
  -OEChem-04052304473D

 87 95  0     1  0  0  0  0  0999 V2000
  -18.3624  -26.0569   23.4802 C   0  0  0  0  0  0  0  0  0  0  0  0
  -19.2956  -25.8848   22.4629 C   0  0  0  0  0  0  0  0  0  0  0  0
  -26.7671  -12.6575   21.8479 C   0  0  0  0  0  0  0  0  0  0  0  0
  -26.0686  -14.3096   20.2295 C   0  0  0  0  0  0  0  0  0  0  0  0
  -18.0427  -27.3402   23.9216 C   0  0  0  0  0  0  0  0  0  0  0  0
  -19.9089  -26.9961   21.8856 C   0  0  0  0  0  0  0  0  0  0  0  0
  -24.9015  -26.3772   21.3057 C   0  0  0  0  0  0  0  0  0  0  0  0
  -25.4737  -12.1360   21.8739 C   0  0  0  0  0  0  0  0  0  0  0  0
  -24.7751  -13.7881   20.2553 C   0  0  0  0  0  0  0  0  0  0  0  0
  -25.3257  -25.5947   20.2326 C   0  0  0  0  0  0  0  0  0  0  0  0
  -22.4427  -10.1413   22.0957 C   0  0  0  0  0  0  0  0  0  0  0  0
  -22.3015   -8.7545   22.0462 C   0  0  0  0  0  0  0  0  0  0  0  0
  -25.8006  -27.5944   18.9699 C   0  0  0  0  0  0  0  0  0  0  0  0
  -23.4260   -8.7164   19.9081 C   0  0  0  0  0  0  0  0  0  0  0  0
  -27.0646  -13.7444   21.0258 C   0  0  0  0  0  0  0  0  0  0  0  0
  -29.4557  -13.8991   20.1505 C   0  0  0  0  0  0  0  0  0  0  0  0
  -18.6595  -28.4673   23.3560 C   0  0  0  0  0  0  0  0  0  0  0  0
  -24.9134  -27.7765   21.2147 C   0  0  0  0  0  0  0  0  0  0  0  0
  -19.5962  -28.2958   22.3189 C   0  0  0  0  0  0  0  0  0  0  0  0
  -25.3785  -28.3925   20.0441 C   0  0  0  0  0  0  0  0  0  0  0  0
  -24.4777  -12.7012   21.0776 C   0  0  0  0  0  0  0  0  0  0  0  0
  -25.7726  -26.2032   19.0634 C   0  0  0  0  0  0  0  0  0  0  0  0
  -23.0755  -10.8157   21.0514 C   0  0  0  0  0  0  0  0  0  0  0  0
  -22.7932   -8.0421   20.9524 C   0  0  0  0  0  0  0  0  0  0  0  0
  -23.5671  -10.1032   19.9576 C   0  0  0  0  0  0  0  0  0  0  0  0
  -28.4003  -14.2839   20.9990 C   0  0  0  0  0  0  0  0  0  0  0  0
  -30.4678  -23.8319   20.8070 C   0  0  0  0  0  0  0  0  0  0  0  0
  -30.5045  -14.7055   20.5197 C   0  0  0  0  0  0  0  0  0  0  0  0
  -29.6669  -23.4915   19.7371 C   0  0  0  0  0  0  0  0  0  0  0  0
  -30.1391  -21.7202   21.2998 C   0  0  0  0  0  0  0  0  0  0  0  0
  -29.4853  -12.9021   19.1206 C   0  0  0  0  0  0  0  0  0  0  0  0
  -22.6974  -30.0517   21.3430 C   0  0  0  0  0  0  0  0  0  0  0  0
  -25.2719  -32.0225   21.2442 C   0  0  0  0  0  0  0  0  0  0  0  0
  -28.5384  -32.4800   20.3680 C   0  0  0  0  0  0  0  0  0  0  0  0
  -28.3683  -23.7824   17.6015 C   0  0  0  0  0  0  0  0  0  0  0  0
  -30.8048  -20.0872   23.0988 C   0  0  0  0  0  0  0  0  0  0  0  0
  -18.2467  -29.8370   23.8336 C   0  0  0  0  0  0  0  0  0  0  0  0
  -24.4778  -28.6067   22.3909 C   0  0  0  0  0  0  0  0  0  0  0  0
  -25.4301  -29.8912   19.9034 C   0  0  0  0  0  0  0  0  0  0  0  0
  -19.2182  -30.9422   23.4272 C   0  0  0  0  0  0  0  0  0  0  0  0
  -32.2631  -17.0678   24.2961 C   0  0  0  0  0  0  0  0  0  0  0  0
  -19.5933  -30.8084   21.9547 C   0  0  0  0  0  0  0  0  0  0  0  0
  -31.5383  -15.9765   23.5048 C   0  0  0  0  0  0  0  0  0  0  0  0
  -31.3297  -18.2226   24.6552 C   0  0  0  0  0  0  0  0  0  0  0  0
  -29.8770  -17.7167   22.7309 C   0  0  0  0  0  0  0  0  0  0  0  0
  -20.3012  -29.4752   21.6847 C   0  0  1  0  0  0  0  0  0  0  0  0
  -24.0481  -30.0174   22.0001 C   0  0  1  0  0  0  0  0  0  0  0  0
  -30.7921  -16.5625   22.2902 C   0  0  2  0  0  0  0  0  0  0  0  0
  -30.3571  -34.2090   20.3783 C   0  0  0  0  0  0  0  0  0  0  0  0
  -29.9405  -26.2582   21.2321 C   0  0  0  0  0  0  0  0  0  0  0  0
  -31.9826  -25.6297   19.9013 C   0  0  0  0  0  0  0  0  0  0  0  0
  -31.9301  -25.2865   22.3632 C   0  0  0  0  0  0  0  0  0  0  0  0
  -29.3059  -25.4143   15.9265 C   0  0  0  0  0  0  0  0  0  0  0  0
  -23.9563  -33.4170   18.8705 C   0  0  0  0  0  0  0  0  0  0  0  0
  -26.1714  -34.4582   18.3437 C   0  0  0  0  0  0  0  0  0  0  0  0
  -25.0450  -34.9571   20.5128 C   0  0  0  0  0  0  0  0  0  0  0  0
  -30.2630  -30.8233   22.1115 C   0  0  0  0  0  0  0  0  0  0  0  0
  -27.1911  -25.9961   17.1659 C   0  0  0  0  0  0  0  0  0  1  0  0
  -26.0754  -32.6775   20.1467 C   0  0  1  0  0  0  0  0  0  0  0  0
  -29.7157  -33.0558   21.1341 C   0  0  2  0  0  0  0  0  0  0  0  0
  -31.0487  -25.1648   21.0685 C   0  0  0  0  0  0  0  0  0  0  0  0
  -28.0351  -24.8684   16.5725 C   0  0  2  0  0  0  0  0  0  0  0  0
  -25.3094  -33.8492   19.4700 C   0  0  0  0  0  0  0  0  0  0  0  0
  -28.7471  -15.2587   21.8437 N   0  0  0  0  0  0  0  0  0  0  0  0
  -30.7393  -22.8176   21.7043 N   0  0  0  0  0  0  0  0  0  0  0  0
  -30.0321  -15.4933   21.5278 N   0  0  0  0  0  0  0  0  0  0  0  0
  -24.9877  -30.6595   21.0787 N   0  0  0  0  0  0  0  0  0  0  0  0
  -30.6609  -18.7296   23.4550 N   0  0  0  0  0  0  0  0  0  0  0  0
  -31.7755  -14.8104   20.0771 N   0  0  0  0  0  0  0  0  0  0  0  0
  -28.3201  -12.1642   18.8713 N   0  0  0  0  0  0  0  0  0  0  0  0
  -29.1794  -24.2334   18.6344 N   0  0  0  0  0  0  0  0  0  0  0  0
  -30.1506  -20.4467   21.9209 N   0  0  0  0  0  0  0  0  0  0  0  0
  -21.6792  -29.5368   22.1226 N   0  0  0  0  0  0  0  0  0  0  0  0
  -27.3479  -33.0633   20.7470 N   0  0  0  0  0  0  0  0  0  0  0  0
  -30.7507  -32.0072   21.3581 N   0  3  0  0  0  0  0  0  0  0  0  0
  -30.5193  -12.6610   18.4526 O   0  0  0  0  0  0  0  0  0  0  0  0
  -22.5868  -30.5125   20.2129 O   0  0  0  0  0  0  0  0  0  0  0  0
  -24.9160  -32.6936   22.2160 O   0  0  0  0  0  0  0  0  0  0  0  0
  -28.6629  -31.6033   19.5156 O   0  0  0  0  0  0  0  0  0  0  0  0
  -27.9220  -22.6466   17.4537 O   0  0  0  0  0  0  0  0  0  0  0  0
  -31.4826  -20.8668   23.7733 O   0  0  0  0  0  0  0  0  0  0  0  0
  -23.2156  -12.1924   21.1024 O   0  0  0  0  0  0  0  0  0  0  0  0
  -26.1866  -25.4417   18.0143 O   0  0  0  0  0  0  0  0  0  1  0  0
  -22.6589   -6.7102   20.9057 F   0  0  0  0  0  0  0  0  0  0  0  0
  -24.1770  -10.7455   18.9520 F   0  0  0  0  0  0  0  0  0  0  0  0
  -27.2966  -24.3122   15.5595 F   0  0  0  0  0  0  0  0  0  0  0  0
  -29.2317  -21.8363   19.8478 S   0  0  0  0  0  0  0  0  0  0  0  0
  1  2  1  0  0  0  0
  1  5  2  0  0  0  0
  2  6  2  0  0  0  0
  3  8  2  0  0  0  0
  3 15  1  0  0  0  0
  4  9  1  0  0  0  0
  4 15  2  0  0  0  0
  5 17  1  0  0  0  0
  6 19  1  0  0  0  0
  7 10  2  0  0  0  0
  7 18  1  0  0  0  0
  8 21  1  0  0  0  0
  9 21  2  0  0  0  0
 10 22  1  0  0  0  0
 11 12  2  0  0  0  0
 11 23  1  0  0  0  0
 12 24  1  0  0  0  0
 13 20  1  0  0  0  0
 13 22  2  0  0  0  0
 14 24  2  0  0  0  0
 14 25  1  0  0  0  0
 15 26  1  0  0  0  0
 16 26  1  0  0  0  0
 16 28  2  0  0  0  0
 16 31  1  0  0  0  0
 17 19  2  0  0  0  0
 17 37  1  0  0  0  0
 18 20  2  0  0  0  0
 18 38  1  0  0  0  0
 19 46  1  0  0  0  0
 20 39  1  0  0  0  0
 21 82  1  0  0  0  0
 22 83  1  0  0  0  0
 23 25  2  0  0  0  0
 23 82  1  0  0  0  0
 24 84  1  0  0  0  0
 25 85  1  0  0  0  0
 26 64  2  0  0  0  0
 27 29  2  0  0  0  0
 27 61  1  0  0  0  0
 27 65  1  0  0  0  0
 28 66  1  0  0  0  0
 28 69  1  0  0  0  0
 29 71  1  0  0  0  0
 29 87  1  0  0  0  0
 30 65  2  0  0  0  0
 30 72  1  0  0  0  0
 30 87  1  0  0  0  0
 31 70  1  0  0  0  0
 31 76  2  0  0  0  0
 32 47  1  0  0  0  0
 32 73  1  0  0  0  0
 32 77  2  0  0  0  0
 33 59  1  0  0  0  0
 33 67  1  0  0  0  0
 33 78  2  0  0  0  0
 34 60  1  0  0  0  0
 34 74  1  0  0  0  0
 34 79  2  0  0  0  0
 35 62  1  0  0  0  0
 35 71  1  0  0  0  0
 35 80  2  0  0  0  0
 36 68  1  0  0  0  0
 36 72  1  0  0  0  0
 36 81  2  0  0  0  0
 37 40  1  0  0  0  0
 38 47  1  0  0  0  0
 39 67  1  0  0  0  0
 40 42  1  0  0  0  0
 41 43  1  0  0  0  0
 41 44  1  0  0  0  0
 42 46  1  0  0  0  0
 43 48  1  0  0  0  0
 44 68  1  0  0  0  0
 45 48  1  0  0  0  0
 45 68  1  0  0  0  0
 46 73  1  0  0  0  0
 47 67  1  0  0  0  0
 48 66  1  0  0  0  0
 49 60  1  0  0  0  0
 50 61  1  0  0  0  0
 51 61  1  0  0  0  0
 52 61  1  0  0  0  0
 53 62  1  0  0  0  0
 54 63  1  0  0  0  0
 55 63  1  0  0  0  0
 56 63  1  0  0  0  0
 57 75  1  0  0  0  0
 58 62  1  0  0  0  0
 58 83  1  0  0  0  0
 59 63  1  0  0  0  0
 59 74  1  0  0  0  0
 60 75  1  0  0  0  0
 62 86  1  0  0  0  0
 64 66  1  0  0  0  0
M  CHG  1  75   1
M  ISO  4  36 100  58 101  72 100  83 101
M  END
> <Batch ID>
0179

> <Smiles>
CNC(C)C(=O)NC(C(=O)N1Cc2cc([101O:1][101CH2:1]C(C)(F)C(=O)Nc3sc([100NH:0][100C:0](=O)N4CCCC(n5nc(-c6ccc(Oc7ccc(F)cc7F)cc6)c(C(N)=O)c5N)C4)nc3C(C)(C)C)ccc2CC1C(=O)NC1CCCc2ccccc21)C(C)(C)C

> <Shape>
0.306

> <Color>
0.085

> <Negative vol penalty>
0.000

$$$$

  -OEChem-04052304473D

 83 91  0     1  0  0  0  0  0999 V2000
  -25.7956  -37.7718   26.8729 C   0  0  0  0  0  0  0  0  0  0  0  0
  -25.1262  -36.6388   27.3243 C   0  0  0  0  0  0  0  0  0  0  0  0
  -24.4728   -9.2720   21.5700 C   0  0  0  0  0  0  0  0  0  0  0  0
  -22.6360  -10.3388   20.4189 C   0  0  0  0  0  0  0  0  0  0  0  0
  -26.0642  -37.9260   25.5135 C   0  0  0  0  0  0  0  0  0  0  0  0
  -24.7242  -35.6598   26.4164 C   0  0  0  0  0  0  0  0  0  0  0  0
  -23.7864  -28.5772   25.8943 C   0  0  0  0  0  0  0  0  0  0  0  0
  -23.7086   -8.1144   21.7168 C   0  0  0  0  0  0  0  0  0  0  0  0
  -21.8717   -9.1812   20.5657 C   0  0  0  0  0  0  0  0  0  0  0  0
  -22.8223  -27.6432   25.5175 C   0  0  0  0  0  0  0  0  0  0  0  0
  -21.2226   -7.0093   23.7225 C   0  0  0  0  0  0  0  0  0  0  0  0
  -21.2265   -6.3849   24.9697 C   0  0  0  0  0  0  0  0  0  0  0  0
  -23.4107  -27.9790   23.2022 C   0  0  0  0  0  0  0  0  0  0  0  0
  -22.1172   -4.3778   23.9621 C   0  0  0  0  0  0  0  0  0  0  0  0
  -23.9365  -10.3842   20.9210 C   0  0  0  0  0  0  0  0  0  0  0  0
  -25.5825  -11.9038   19.7008 C   0  0  0  0  0  0  0  0  0  0  0  0
  -25.6738  -36.9439   24.5896 C   0  0  0  0  0  0  0  0  0  0  0  0
  -24.5637  -29.2281   24.9255 C   0  0  0  0  0  0  0  0  0  0  0  0
  -24.9867  -35.8017   25.0431 C   0  0  0  0  0  0  0  0  0  0  0  0
  -24.3857  -28.9189   23.5695 C   0  0  0  0  0  0  0  0  0  0  0  0
  -22.4080   -8.0690   21.2147 C   0  0  0  0  0  0  0  0  0  0  0  0
  -22.6323  -27.3461   24.1711 C   0  0  0  0  0  0  0  0  0  0  0  0
  -21.6659   -6.3180   22.5950 C   0  0  0  0  0  0  0  0  0  0  0  0
  -21.6738   -5.0692   25.0896 C   0  0  0  0  0  0  0  0  0  0  0  0
  -22.1132   -5.0022   22.7148 C   0  0  0  0  0  0  0  0  0  0  0  0
  -24.7253  -11.5804   20.7696 C   0  0  0  0  0  0  0  0  0  0  0  0
  -20.5372  -19.9705   21.0076 C   0  0  0  0  0  0  0  0  0  0  0  0
  -21.2617  -20.6377   21.9730 C   0  0  0  0  0  0  0  0  0  0  0  0
  -26.0913  -13.1365   20.0295 C   0  0  0  0  0  0  0  0  0  0  0  0
  -22.2388  -18.6799   22.1217 C   0  0  0  0  0  0  0  0  0  0  0  0
  -22.0674  -25.1251   23.7036 C   0  0  0  0  0  0  0  0  0  1  0  0
  -25.8913  -11.1567   18.5166 C   0  0  0  0  0  0  0  0  0  0  0  0
  -21.2257  -24.1469   23.3482 C   0  0  0  0  0  0  0  0  0  0  0  0
  -21.7367  -22.7393   23.2723 C   0  0  0  0  0  0  0  0  0  0  0  0
  -24.9533  -32.2507   24.0222 C   0  0  0  0  0  0  0  0  0  0  0  0
  -27.2734  -30.9819   22.1435 C   0  0  0  0  0  0  0  0  0  0  0  0
  -28.5145  -28.2490   20.5195 C   0  0  0  0  0  0  0  0  0  0  0  0
  -24.0822  -17.6001   23.4567 C   0  0  0  0  0  0  0  0  0  0  0  0
  -25.9445  -37.1771   23.1243 C   0  0  0  0  0  0  0  0  0  0  0  0
  -25.6180  -30.2134   25.3501 C   0  0  0  0  0  0  0  0  0  0  0  0
  -25.2083  -29.5750   22.4919 C   0  0  0  0  0  0  0  0  0  0  0  0
  -25.8162  -35.9164   22.2731 C   0  0  0  0  0  0  0  0  0  0  0  0
  -27.1637  -15.8544   23.8238 C   0  0  0  0  0  0  0  0  0  0  0  0
  -24.5397  -35.1604   22.6276 C   0  0  0  0  0  0  0  0  0  0  0  0
  -26.9683  -14.5927   22.9801 C   0  0  0  0  0  0  0  0  0  0  0  0
  -25.8768  -16.2640   24.5380 C   0  0  0  0  0  0  0  0  0  0  0  0
  -24.5067  -15.1432   22.8246 C   0  0  0  0  0  0  0  0  0  0  0  0
  -24.5564  -34.7060   24.0921 C   0  0  1  0  0  0  0  0  0  0  0  0
  -25.9984  -31.1945   24.2456 C   0  0  1  0  0  0  0  0  0  0  0  0
  -25.7587  -14.7287   22.0346 C   0  0  2  0  0  0  0  0  0  0  0  0
  -19.4372  -20.4426   20.1420 C   0  0  0  0  0  0  0  0  0  0  0  0
  -30.4057  -27.5301   19.0349 C   0  0  0  0  0  0  0  0  0  0  0  0
  -25.9337  -32.3599   19.7736 C   0  0  0  0  0  0  0  0  0  0  0  0
  -27.2533  -30.8725   18.2522 C   0  0  0  0  0  0  0  0  0  0  0  0
  -28.4323  -32.4664   19.7662 C   0  0  0  0  0  0  0  0  0  0  0  0
  -29.4806  -26.2812   22.5078 C   0  0  0  0  0  0  0  0  0  0  0  0
  -27.3259  -30.4148   20.7455 C   0  0  1  0  0  0  0  0  0  0  0  0
  -29.9110  -27.6563   20.4675 C   0  0  2  0  0  0  0  0  0  0  0  0
  -27.2193  -31.5173   19.6543 C   0  0  0  0  0  0  0  0  0  0  0  0
  -24.6891  -12.5310   21.7072 N   0  0  0  0  0  0  0  0  0  0  0  0
  -22.2377  -19.8991   22.6132 N   0  0  0  0  0  0  0  0  0  0  0  0
  -25.5300  -13.4636   21.2287 N   0  0  0  0  0  0  0  0  0  0  0  0
  -26.2221  -30.5360   22.9570 N   0  0  0  0  0  0  0  0  0  0  0  0
  -24.7757  -16.3774   23.5792 N   0  0  0  0  0  0  0  0  0  0  0  0
  -26.9597  -13.9616   19.4070 N   0  0  0  0  0  0  0  0  0  0  0  0
  -25.2804   -9.9083   18.3360 N   0  0  0  0  0  0  0  0  0  0  0  0
  -21.0546  -21.9946   22.3198 N   0  0  0  0  0  0  0  0  0  0  0  0
  -23.0770  -17.5985   22.4902 N   0  0  0  0  0  0  0  0  0  0  0  0
  -25.3978  -33.5391   24.2497 N   0  0  0  0  0  0  0  0  0  0  0  0
  -28.5465  -29.6189   20.6734 N   0  0  0  0  0  0  0  0  0  0  0  0
  -29.9225  -26.3021   21.0896 N   0  3  0  0  0  0  0  0  0  0  0  0
  -26.6979  -11.5762   17.6524 O   0  0  0  0  0  0  0  0  0  0  0  0
  -22.6513  -22.3612   23.9964 O   0  0  0  0  0  0  0  0  0  0  0  0
  -23.8273  -31.9212   23.6682 O   0  0  0  0  0  0  0  0  0  0  0  0
  -28.1376  -31.7854   22.5031 O   0  0  0  0  0  0  0  0  0  0  0  0
  -27.4970  -27.5656   20.4286 O   0  0  0  0  0  0  0  0  0  0  0  0
  -24.3778  -18.5848   24.1384 O   0  0  0  0  0  0  0  0  0  0  0  0
  -19.8992  -24.3818   23.0484 O   0  0  0  0  0  0  0  0  0  0  0  0
  -21.6621   -6.9395   21.3575 O   0  0  0  0  0  0  0  0  0  0  0  0
  -21.6915  -26.4354   23.8005 O   0  0  0  0  0  0  0  0  0  1  0  0
  -21.6790   -4.4702   26.2876 F   0  0  0  0  0  0  0  0  0  0  0  0
  -22.5414   -4.3334   21.6354 F   0  0  0  0  0  0  0  0  0  0  0  0
  -21.0931  -18.3526   20.8867 S   0  0  0  0  0  0  0  0  0  0  0  0
  1  2  1  0  0  0  0
  1  5  2  0  0  0  0
  2  6  2  0  0  0  0
  3  8  2  0  0  0  0
  3 15  1  0  0  0  0
  4  9  1  0  0  0  0
  4 15  2  0  0  0  0
  5 17  1  0  0  0  0
  6 19  1  0  0  0  0
  7 10  2  0  0  0  0
  7 18  1  0  0  0  0
  8 21  1  0  0  0  0
  9 21  2  0  0  0  0
 10 22  1  0  0  0  0
 11 12  2  0  0  0  0
 11 23  1  0  0  0  0
 12 24  1  0  0  0  0
 13 20  1  0  0  0  0
 13 22  2  0  0  0  0
 14 24  2  0  0  0  0
 14 25  1  0  0  0  0
 15 26  1  0  0  0  0
 16 26  1  0  0  0  0
 16 29  2  0  0  0  0
 16 32  1  0  0  0  0
 17 19  2  0  0  0  0
 17 39  1  0  0  0  0
 18 20  2  0  0  0  0
 18 40  1  0  0  0  0
 19 48  1  0  0  0  0
 20 41  1  0  0  0  0
 21 79  1  0  0  0  0
 22 80  1  0  0  0  0
 23 25  2  0  0  0  0
 23 79  1  0  0  0  0
 24 81  1  0  0  0  0
 25 82  1  0  0  0  0
 26 60  2  0  0  0  0
 27 28  2  0  0  0  0
 27 51  1  0  0  0  0
 27 83  1  0  0  0  0
 28 61  1  0  0  0  0
 28 67  1  0  0  0  0
 29 62  1  0  0  0  0
 29 65  1  0  0  0  0
 30 61  2  0  0  0  0
 30 68  1  0  0  0  0
 30 83  1  0  0  0  0
 31 33  2  0  0  0  0
 31 80  1  0  0  0  0
 32 66  1  0  0  0  0
 32 72  2  0  0  0  0
 33 34  1  0  0  0  0
 33 78  1  0  0  0  0
 34 67  1  0  0  0  0
 34 73  2  0  0  0  0
 35 49  1  0  0  0  0
 35 69  1  0  0  0  0
 35 74  2  0  0  0  0
 36 57  1  0  0  0  0
 36 63  1  0  0  0  0
 36 75  2  0  0  0  0
 37 58  1  0  0  0  0
 37 70  1  0  0  0  0
 37 76  2  0  0  0  0
 38 64  1  0  0  0  0
 38 68  1  0  0  0  0
 38 77  2  0  0  0  0
 39 42  1  0  0  0  0
 40 49  1  0  0  0  0
 41 63  1  0  0  0  0
 42 44  1  0  0  0  0
 43 45  1  0  0  0  0
 43 46  1  0  0  0  0
 44 48  1  0  0  0  0
 45 50  1  0  0  0  0
 46 64  1  0  0  0  0
 47 50  1  0  0  0  0
 47 64  1  0  0  0  0
 48 69  1  0  0  0  0
 49 63  1  0  0  0  0
 50 62  1  0  0  0  0
 52 58  1  0  0  0  0
 53 59  1  0  0  0  0
 54 59  1  0  0  0  0
 55 59  1  0  0  0  0
 56 71  1  0  0  0  0
 57 59  1  0  0  0  0
 57 70  1  0  0  0  0
 58 71  1  0  0  0  0
 60 62  1  0  0  0  0
M  CHG  1  71   1
M  ISO  4  31 101  38 100  68 100  80 101
M  END
> <Batch ID>
0179

> <Smiles>
CNC(C)C(=O)NC(C(=O)N1Cc2cc([101O:1][101CH2:1]C(=O)C(=O)Nc3nc([100NH:0][100C:0](=O)N4CCCC(n5nc(-c6ccc(Oc7ccc(F)cc7F)cc6)c(C(N)=O)c5N)C4)sc3C)ccc2CC1C(=O)NC1CCCc2ccccc21)C(C)(C)C

> <Shape>
0.253

> <Color>
0.108

> <Negative vol penalty>
0.000

$$$$

  -OEChem-04052304473D

 88 96  0     1  0  0  0  0  0999 V2000
  -16.1240  -27.7291   21.8164 C   0  0  0  0  0  0  0  0  0  0  0  0
  -17.3700  -27.1206   21.7040 C   0  0  0  0  0  0  0  0  0  0  0  0
  -23.6588   -9.6547   21.9230 C   0  0  0  0  0  0  0  0  0  0  0  0
  -24.2126  -11.0371   23.8255 C   0  0  0  0  0  0  0  0  0  0  0  0
  -16.0183  -29.1174   21.7418 C   0  0  0  0  0  0  0  0  0  0  0  0
  -18.5109  -27.8999   21.5159 C   0  0  0  0  0  0  0  0  0  0  0  0
  -22.3645  -26.4452   24.4618 C   0  0  0  0  0  0  0  0  0  0  0  0
  -23.1094   -8.6989   22.7774 C   0  0  0  0  0  0  0  0  0  0  0  0
  -23.6632  -10.0812   24.6799 C   0  0  0  0  0  0  0  0  0  0  0  0
  -23.0790  -25.3161   24.0641 C   0  0  0  0  0  0  0  0  0  0  0  0
  -24.2258   -6.2380   24.8077 C   0  0  0  0  0  0  0  0  0  0  0  0
  -24.5490   -4.9009   24.5766 C   0  0  0  0  0  0  0  0  0  0  0  0
  -24.8003  -26.7357   23.1469 C   0  0  0  0  0  0  0  0  0  0  0  0
  -22.2097   -4.3915   24.2518 C   0  0  0  0  0  0  0  0  0  0  0  0
  -24.2105  -10.8238   22.4470 C   0  0  0  0  0  0  0  0  0  0  0  0
  -24.1153  -12.8997   20.9674 C   0  0  0  0  0  0  0  0  0  0  0  0
  -17.1597  -29.9147   21.5624 C   0  0  0  0  0  0  0  0  0  0  0  0
  -22.8581  -27.7304   24.1949 C   0  0  0  0  0  0  0  0  0  0  0  0
  -18.4202  -29.3000   21.4375 C   0  0  0  0  0  0  0  0  0  0  0  0
  -24.0913  -27.8795   23.5445 C   0  0  0  0  0  0  0  0  0  0  0  0
  -23.1116   -8.9121   24.1559 C   0  0  0  0  0  0  0  0  0  0  0  0
  -24.2957  -25.4612   23.4040 C   0  0  0  0  0  0  0  0  0  0  0  0
  -22.8945   -6.6518   24.7610 C   0  0  0  0  0  0  0  0  0  0  0  0
  -23.5410   -3.9777   24.2986 C   0  0  0  0  0  0  0  0  0  0  0  0
  -21.8865   -5.7286   24.4830 C   0  0  0  0  0  0  0  0  0  0  0  0
  -24.7787  -11.8113   21.5649 C   0  0  0  0  0  0  0  0  0  0  0  0
  -29.2858  -20.3364   19.2845 C   0  0  0  0  0  0  0  0  0  0  0  0
  -30.4928  -19.8459   18.8324 C   0  0  0  0  0  0  0  0  0  0  0  0
  -25.0862  -13.5298   20.2280 C   0  0  0  0  0  0  0  0  0  0  0  0
  -29.6164  -17.9641   19.5399 C   0  0  0  0  0  0  0  0  0  0  0  0
  -22.7439  -13.3051   21.0715 C   0  0  0  0  0  0  0  0  0  0  0  0
  -28.7424  -21.7191   19.2905 C   0  0  0  0  0  0  0  0  0  0  0  0
  -21.8401  -30.2160   22.4951 C   0  0  0  0  0  0  0  0  0  0  0  0
  -25.9417  -23.1543   21.1393 C   0  0  0  0  0  0  0  0  0  0  0  0
  -24.4120  -31.6806   23.8226 C   0  0  0  0  0  0  0  0  0  0  0  0
  -27.4954  -31.3844   25.2551 C   0  0  0  0  0  0  0  0  0  0  0  0
  -30.2525  -15.5299   19.6688 C   0  0  0  0  0  0  0  0  0  0  0  0
  -16.9900  -31.4084   21.4406 C   0  0  0  0  0  0  0  0  0  0  0  0
  -22.0882  -28.9381   24.6542 C   0  0  0  0  0  0  0  0  0  0  0  0
  -24.6747  -29.2370   23.2523 C   0  0  0  0  0  0  0  0  0  0  0  0
  -18.2921  -32.1856   21.6152 C   0  0  0  0  0  0  0  0  0  0  0  0
  -29.7770  -12.0618   19.0181 C   0  0  0  0  0  0  0  0  0  0  0  0
  -19.4085  -31.5483   20.7939 C   0  0  0  0  0  0  0  0  0  0  0  0
  -28.3796  -11.7770   19.5735 C   0  0  0  0  0  0  0  0  0  0  0  0
  -30.5351  -13.0701   19.8797 C   0  0  0  0  0  0  0  0  0  0  0  0
  -28.4229  -14.0415   20.6948 C   0  0  0  0  0  0  0  0  0  0  0  0
  -19.6840  -30.1128   21.2577 C   0  0  1  0  0  0  0  0  0  0  0  0
  -22.4373  -30.2016   23.8738 C   0  0  1  0  0  0  0  0  0  0  0  0
  -27.5965  -13.0806   19.8246 C   0  0  2  0  0  0  0  0  0  0  0  0
  -29.3680  -32.7607   26.2020 C   0  0  0  0  0  0  0  0  0  0  0  0
  -25.2847  -32.4328   20.9972 C   0  0  0  0  0  0  0  0  0  0  0  0
  -27.5602  -32.9400   21.9100 C   0  0  0  0  0  0  0  0  0  0  0  0
  -25.5835  -34.2420   22.6978 C   0  0  0  0  0  0  0  0  0  0  0  0
  -27.2215  -30.1325   27.9228 C   0  0  0  0  0  0  0  0  0  0  0  0
  -25.8093  -24.4876   21.8493 C   0  0  0  0  0  0  0  0  0  1  0  0
  -26.8000  -23.1448   19.8828 C   0  0  2  0  0  0  0  0  0  0  0  0
  -25.8642  -31.8424   23.4429 C   0  0  1  0  0  0  0  0  0  0  0  0
  -28.0867  -32.0015   26.5097 C   0  0  2  0  0  0  0  0  0  0  0  0
  -26.0615  -32.8386   22.2656 C   0  0  0  0  0  0  0  0  0  0  0  0
  -25.9532  -23.3878   18.6533 C   0  0  0  0  0  0  0  0  0  0  0  0
  -26.0712  -11.7504   21.2336 N   0  0  0  0  0  0  0  0  0  0  0  0
  -30.6844  -18.4858   18.9783 N   0  0  0  0  0  0  0  0  0  0  0  0
  -26.2277  -12.8084   20.4199 N   0  0  0  0  0  0  0  0  0  0  0  0
  -23.8812  -30.3873   23.7156 N   0  0  0  0  0  0  0  0  0  0  0  0
  -29.7339  -14.2810   20.0713 N   0  0  0  0  0  0  0  0  0  0  0  0
  -31.4579  -20.6141   18.2724 N   0  0  0  0  0  0  0  0  0  0  0  0
  -25.0664  -14.6250   19.4390 N   0  0  0  0  0  0  0  0  0  0  0  0
  -21.8817  -12.5452   21.8737 N   0  0  0  0  0  0  0  0  0  0  0  0
  -29.3879  -16.6053   19.8705 N   0  0  0  0  0  0  0  0  0  0  0  0
  -27.4710  -21.8725   19.8285 N   0  0  0  0  0  0  0  0  0  0  0  0
  -20.4619  -30.1165   22.4780 N   0  0  0  0  0  0  0  0  0  0  0  0
  -26.5666  -32.2160   24.6658 N   0  0  0  0  0  0  0  0  0  0  0  0
  -28.3969  -30.9424   27.5112 N   0  3  0  0  0  0  0  0  0  0  0  0
  -22.2926  -14.3017   20.4580 O   0  0  0  0  0  0  0  0  0  0  0  0
  -29.4148  -22.6301   18.8147 O   0  0  0  0  0  0  0  0  0  0  0  0
  -22.5750  -30.3117   21.5193 O   0  0  0  0  0  0  0  0  0  0  0  0
  -25.3614  -22.1457   21.5419 O   0  0  0  0  0  0  0  0  0  0  0  0
  -23.7743  -32.6641   24.2069 O   0  0  0  0  0  0  0  0  0  0  0  0
  -27.8272  -30.2772   24.8373 O   0  0  0  0  0  0  0  0  0  0  0  0
  -31.3697  -15.6339   19.1559 O   0  0  0  0  0  0  0  0  0  0  0  0
  -22.5753   -7.9797   24.9899 O   0  0  0  0  0  0  0  0  0  0  0  0
  -24.9948  -24.3607   23.0142 O   0  0  0  0  0  0  0  0  0  1  0  0
  -23.8517   -2.6941   24.0751 F   0  0  0  0  0  0  0  0  0  0  0  0
  -20.6059   -6.1205   24.4356 F   0  0  0  0  0  0  0  0  0  0  0  0
  -26.7028  -23.3467   17.5297 F   0  0  0  0  0  0  0  0  0  0  0  0
  -25.3375  -24.5888   18.6953 F   0  0  0  0  0  0  0  0  0  0  0  0
  -24.9970  -22.4393   18.5326 F   0  0  0  0  0  0  0  0  0  0  0  0
  -28.3436  -19.0512   19.9185 S   0  0  0  0  0  0  0  0  0  0  0  0
  1  2  1  0  0  0  0
  1  5  2  0  0  0  0
  2  6  2  0  0  0  0
  3  8  2  0  0  0  0
  3 15  1  0  0  0  0
  4  9  1  0  0  0  0
  4 15  2  0  0  0  0
  5 17  1  0  0  0  0
  6 19  1  0  0  0  0
  7 10  2  0  0  0  0
  7 18  1  0  0  0  0
  8 21  1  0  0  0  0
  9 21  2  0  0  0  0
 10 22  1  0  0  0  0
 11 12  2  0  0  0  0
 11 23  1  0  0  0  0
 12 24  1  0  0  0  0
 13 20  1  0  0  0  0
 13 22  2  0  0  0  0
 14 24  2  0  0  0  0
 14 25  1  0  0  0  0
 15 26  1  0  0  0  0
 16 26  1  0  0  0  0
 16 29  2  0  0  0  0
 16 31  1  0  0  0  0
 17 19  2  0  0  0  0
 17 38  1  0  0  0  0
 18 20  2  0  0  0  0
 18 39  1  0  0  0  0
 19 47  1  0  0  0  0
 20 40  1  0  0  0  0
 21 81  1  0  0  0  0
 22 82  1  0  0  0  0
 23 25  2  0  0  0  0
 23 81  1  0  0  0  0
 24 83  1  0  0  0  0
 25 84  1  0  0  0  0
 26 61  2  0  0  0  0
 27 28  2  0  0  0  0
 27 32  1  0  0  0  0
 27 88  1  0  0  0  0
 28 62  1  0  0  0  0
 28 66  1  0  0  0  0
 29 63  1  0  0  0  0
 29 67  1  0  0  0  0
 30 62  2  0  0  0  0
 30 69  1  0  0  0  0
 30 88  1  0  0  0  0
 31 68  1  0  0  0  0
 31 74  2  0  0  0  0
 32 70  1  0  0  0  0
 32 75  2  0  0  0  0
 33 48  1  0  0  0  0
 33 71  1  0  0  0  0
 33 76  2  0  0  0  0
 34 55  1  0  0  0  0
 34 56  1  0  0  0  0
 34 77  2  0  0  0  0
 35 57  1  0  0  0  0
 35 64  1  0  0  0  0
 35 78  2  0  0  0  0
 36 58  1  0  0  0  0
 36 72  1  0  0  0  0
 36 79  2  0  0  0  0
 37 65  1  0  0  0  0
 37 69  1  0  0  0  0
 37 80  2  0  0  0  0
 38 41  1  0  0  0  0
 39 48  1  0  0  0  0
 40 64  1  0  0  0  0
 41 43  1  0  0  0  0
 42 44  1  0  0  0  0
 42 45  1  0  0  0  0
 43 47  1  0  0  0  0
 44 49  1  0  0  0  0
 45 65  1  0  0  0  0
 46 49  1  0  0  0  0
 46 65  1  0  0  0  0
 47 71  1  0  0  0  0
 48 64  1  0  0  0  0
 49 63  1  0  0  0  0
 50 58  1  0  0  0  0
 51 59  1  0  0  0  0
 52 59  1  0  0  0  0
 53 59  1  0  0  0  0
 54 73  1  0  0  0  0
 55 82  1  0  0  0  0
 56 60  1  0  0  0  0
 56 70  1  0  0  0  0
 57 59  1  0  0  0  0
 57 72  1  0  0  0  0
 58 73  1  0  0  0  0
 60 85  1  0  0  0  0
 60 86  1  0  0  0  0
 60 87  1  0  0  0  0
 61 63  1  0  0  0  0
M  CHG  1  73   1
M  ISO  4  37 100  55 101  69 100  82 101
M  END
> <Batch ID>
0179

> <Smiles>
CNC(C)C(=O)NC(C(=O)N1Cc2cc([101O:1][101CH2:1]C(=O)C(NC(=O)c3sc([100NH:0][100C:0](=O)N4CCCC(n5nc(-c6ccc(Oc7ccc(F)cc7F)cc6)c(C(N)=O)c5N)C4)nc3N)C(F)(F)F)ccc2CC1C(=O)NC1CCCc2ccccc21)C(C)(C)C

> <Shape>
0.287

> <Color>
0.126

> <Negative vol penalty>
0.000

$$$$

  -OEChem-04052304473D

 83 91  0     1  0  0  0  0  0999 V2000
  -27.5890  -23.4669   18.3785 C   0  0  0  0  0  0  0  0  0  0  0  0
  -26.3753  -23.9743   18.8311 C   0  0  0  0  0  0  0  0  0  0  0  0
  -26.9425  -16.1595   22.2842 C   0  0  0  0  0  0  0  0  0  0  0  0
  -24.6783  -15.8925   21.4846 C   0  0  0  0  0  0  0  0  0  0  0  0
  -28.7769  -23.8413   19.0051 C   0  0  0  0  0  0  0  0  0  0  0  0
  -26.3487  -24.8556   19.9114 C   0  0  0  0  0  0  0  0  0  0  0  0
  -23.2941  -28.8152   19.1138 C   0  0  0  0  0  0  0  0  0  0  0  0
  -27.2510  -14.8738   21.8399 C   0  0  0  0  0  0  0  0  0  0  0  0
  -24.9869  -14.6068   21.0401 C   0  0  0  0  0  0  0  0  0  0  0  0
  -21.9242  -28.6027   19.2627 C   0  0  0  0  0  0  0  0  0  0  0  0
  -28.7333  -11.7978   20.5923 C   0  0  0  0  0  0  0  0  0  0  0  0
  -29.9314  -11.6210   19.9005 C   0  0  0  0  0  0  0  0  0  0  0  0
  -22.0167  -29.5884   21.4625 C   0  0  0  0  0  0  0  0  0  0  0  0
  -19.8569  -24.7509   26.0554 C   0  0  0  0  0  0  0  0  0  0  0  0
  -29.1889  -13.1844   18.2148 C   0  0  0  0  0  0  0  0  0  0  0  0
  -25.6561  -16.6688   22.1066 C   0  0  0  0  0  0  0  0  0  0  0  0
  -25.4510  -19.1976   21.8405 C   0  0  0  0  0  0  0  0  0  0  0  0
  -28.7658  -24.7351   20.0874 C   0  0  0  0  0  0  0  0  0  0  0  0
  -24.0387  -29.4069   20.1442 C   0  0  0  0  0  0  0  0  0  0  0  0
  -27.5375  -25.2413   20.5539 C   0  0  0  0  0  0  0  0  0  0  0  0
  -23.3953  -29.8096   21.3232 C   0  0  0  0  0  0  0  0  0  0  0  0
  -19.2441  -25.8728   25.4262 C   0  0  0  0  0  0  0  0  0  0  0  0
  -26.2733  -14.0975   21.2178 C   0  0  0  0  0  0  0  0  0  0  0  0
  -21.2858  -28.9867   20.4384 C   0  0  0  0  0  0  0  0  0  0  0  0
  -27.7628  -12.6679   20.0954 C   0  0  0  0  0  0  0  0  0  0  0  0
  -30.1593  -12.3142   18.7117 C   0  0  0  0  0  0  0  0  0  0  0  0
  -27.9906  -13.3612   18.9066 C   0  0  0  0  0  0  0  0  0  0  0  0
  -25.3366  -17.9966   22.5660 C   0  0  0  0  0  0  0  0  0  0  0  0
  -19.4037  -25.8500   24.0582 C   0  0  0  0  0  0  0  0  0  0  0  0
  -25.0269  -20.1685   22.7146 C   0  0  0  0  0  0  0  0  0  0  0  0
  -20.4615  -23.9131   25.1441 C   0  0  0  0  0  0  0  0  0  0  0  0
  -25.9003  -19.4161   20.4966 C   0  0  0  0  0  0  0  0  0  0  0  0
  -18.9248  -26.8194   23.0394 C   0  0  0  0  0  0  0  0  0  0  0  0
  -26.4677  -28.4806   21.9734 C   0  0  0  0  0  0  0  0  0  0  0  0
  -26.3544  -31.5538   23.0053 C   0  0  0  0  0  0  0  0  0  0  0  0
  -24.5224  -34.4016   23.4304 C   0  0  0  0  0  0  0  0  0  0  0  0
  -21.4408  -22.0541   26.5339 C   0  0  0  0  0  0  0  0  0  0  0  0
  -30.0711  -25.0737   20.7628 C   0  0  0  0  0  0  0  0  0  0  0  0
  -25.5107  -29.6535   19.9573 C   0  0  0  0  0  0  0  0  0  0  0  0
  -24.1458  -30.4673   22.4512 C   0  0  0  0  0  0  0  0  0  0  0  0
  -29.9902  -26.3042   21.6625 C   0  0  0  0  0  0  0  0  0  0  0  0
  -24.0662  -19.9392   27.6791 C   0  0  0  0  0  0  0  0  0  0  0  0
  -28.7511  -26.2365   22.5495 C   0  0  0  0  0  0  0  0  0  0  0  0
  -24.6402  -19.3440   26.3912 C   0  0  0  0  0  0  0  0  0  0  0  0
  -22.5493  -20.1030   27.6013 C   0  0  0  0  0  0  0  0  0  0  0  0
  -22.6383  -20.2516   25.1438 C   0  0  0  0  0  0  0  0  0  0  0  0
  -27.4699  -26.2189   21.7071 C   0  0  1  0  0  0  0  0  0  0  0  0
  -26.2648  -29.7959   21.2758 C   0  0  1  0  0  0  0  0  0  0  0  0
  -24.1708  -20.1281   25.1500 C   0  0  2  0  0  0  0  0  0  0  0  0
  -18.5218  -26.9332   26.1703 C   0  0  0  0  0  0  0  0  0  0  0  0
  -24.6915  -36.7359   24.3359 C   0  0  0  0  0  0  0  0  0  0  0  0
  -17.2694  -26.3043   19.7847 C   0  0  0  0  0  0  0  0  0  0  0  0
  -26.1777  -30.4611   25.8486 C   0  0  0  0  0  0  0  0  0  0  0  0
  -25.4044  -32.7222   26.5951 C   0  0  0  0  0  0  0  0  0  0  0  0
  -27.6698  -32.4509   25.5867 C   0  0  0  0  0  0  0  0  0  0  0  0
  -23.9354  -35.5942   20.7861 C   0  0  0  0  0  0  0  0  0  0  0  0
  -19.3851  -27.6614   19.9030 C   0  0  0  0  0  0  0  0  0  1  0  0
  -25.6265  -32.2855   24.1069 C   0  0  1  0  0  0  0  0  0  0  0  0
  -24.8265  -35.8529   23.1051 C   0  0  2  0  0  0  0  0  0  0  0  0
  -18.1945  -27.1113   20.6862 C   0  0  2  0  0  0  0  0  0  0  0  0
  -26.2055  -31.9658   25.5140 C   0  0  0  0  0  0  0  0  0  0  0  0
  -24.8760  -18.1848   23.8055 N   0  0  0  0  0  0  0  0  0  0  0  0
  -24.6974  -19.5154   23.8658 N   0  0  0  0  0  0  0  0  0  0  0  0
  -25.5845  -30.6812   22.2233 N   0  0  0  0  0  0  0  0  0  0  0  0
  -22.1791  -20.8589   26.4028 N   0  0  0  0  0  0  0  0  0  0  0  0
  -24.9075  -21.5085   22.6031 N   0  0  0  0  0  0  0  0  0  0  0  0
  -26.3000  -18.3079   19.7373 N   0  0  0  0  0  0  0  0  0  0  0  0
  -21.1753  -22.7031   25.3285 N   0  0  0  0  0  0  0  0  0  0  0  0
  -18.6452  -26.2925   21.7885 N   0  0  0  0  0  0  0  0  0  0  0  0
  -27.1628  -27.5489   21.2263 N   0  0  0  0  0  0  0  0  0  0  0  0
  -25.6651  -33.7001   23.7523 N   0  0  0  0  0  0  0  0  0  0  0  0
  -23.8907  -36.3566   22.0604 N   0  3  0  0  0  0  0  0  0  0  0  0
  -25.9616  -20.5619   19.9898 O   0  0  0  0  0  0  0  0  0  0  0  0
  -18.8235  -28.0057   23.3408 O   0  0  0  0  0  0  0  0  0  0  0  0
  -26.0275  -28.3233   23.1062 O   0  0  0  0  0  0  0  0  0  0  0  0
  -27.5602  -31.7547   22.8400 O   0  0  0  0  0  0  0  0  0  0  0  0
  -23.3846  -33.9377   23.4053 O   0  0  0  0  0  0  0  0  0  0  0  0
  -21.0946  -22.4854   27.6367 O   0  0  0  0  0  0  0  0  0  0  0  0
  -26.5741  -12.8430   20.7838 O   0  0  0  0  0  0  0  0  0  0  0  0
  -19.9490  -28.7799   20.5866 O   0  0  0  0  0  0  0  0  0  1  0  0
  -31.3106  -12.1455   18.0483 F   0  0  0  0  0  0  0  0  0  0  0  0
  -27.0626  -14.1993   18.4249 F   0  0  0  0  0  0  0  0  0  0  0  0
  -20.2893  -24.4800   23.5375 S   0  0  0  0  0  0  0  0  0  0  0  0
  1  2  1  0  0  0  0
  1  5  2  0  0  0  0
  2  6  2  0  0  0  0
  3  8  2  0  0  0  0
  3 16  1  0  0  0  0
  4  9  1  0  0  0  0
  4 16  2  0  0  0  0
  5 18  1  0  0  0  0
  6 20  1  0  0  0  0
  7 10  2  0  0  0  0
  7 19  1  0  0  0  0
  8 23  1  0  0  0  0
  9 23  2  0  0  0  0
 10 24  1  0  0  0  0
 11 12  2  0  0  0  0
 11 25  1  0  0  0  0
 12 26  1  0  0  0  0
 13 21  1  0  0  0  0
 13 24  2  0  0  0  0
 14 22  1  0  0  0  0
 14 31  2  0  0  0  0
 15 26  2  0  0  0  0
 15 27  1  0  0  0  0
 16 28  1  0  0  0  0
 17 28  1  0  0  0  0
 17 30  2  0  0  0  0
 17 32  1  0  0  0  0
 18 20  2  0  0  0  0
 18 38  1  0  0  0  0
 19 21  2  0  0  0  0
 19 39  1  0  0  0  0
 20 47  1  0  0  0  0
 21 40  1  0  0  0  0
 22 29  2  0  0  0  0
 22 50  1  0  0  0  0
 23 79  1  0  0  0  0
 24 80  1  0  0  0  0
 25 27  2  0  0  0  0
 25 79  1  0  0  0  0
 26 81  1  0  0  0  0
 27 82  1  0  0  0  0
 28 62  2  0  0  0  0
 29 33  1  0  0  0  0
 29 83  1  0  0  0  0
 30 63  1  0  0  0  0
 30 66  1  0  0  0  0
 31 68  1  0  0  0  0
 31 83  1  0  0  0  0
 32 67  1  0  0  0  0
 32 73  2  0  0  0  0
 33 69  1  0  0  0  0
 33 74  2  0  0  0  0
 34 48  1  0  0  0  0
 34 70  1  0  0  0  0
 34 75  2  0  0  0  0
 35 58  1  0  0  0  0
 35 64  1  0  0  0  0
 35 76  2  0  0  0  0
 36 59  1  0  0  0  0
 36 71  1  0  0  0  0
 36 77  2  0  0  0  0
 37 65  1  0  0  0  0
 37 68  1  0  0  0  0
 37 78  2  0  0  0  0
 38 41  1  0  0  0  0
 39 48  1  0  0  0  0
 40 64  1  0  0  0  0
 41 43  1  0  0  0  0
 42 44  1  0  0  0  0
 42 45  1  0  0  0  0
 43 47  1  0  0  0  0
 44 49  1  0  0  0  0
 45 65  1  0  0  0  0
 46 49  1  0  0  0  0
 46 65  1  0  0  0  0
 47 70  1  0  0  0  0
 48 64  1  0  0  0  0
 49 63  1  0  0  0  0
 51 59  1  0  0  0  0
 52 60  1  0  0  0  0
 53 61  1  0  0  0  0
 54 61  1  0  0  0  0
 55 61  1  0  0  0  0
 56 72  1  0  0  0  0
 57 60  1  0  0  0  0
 57 80  1  0  0  0  0
 58 61  1  0  0  0  0
 58 71  1  0  0  0  0
 59 72  1  0  0  0  0
 60 69  1  0  0  0  0
 62 63  1  0  0  0  0
M  CHG  1  72   1
M  ISO  4  37 100  57 101  68 100  80 101
M  END
> <Batch ID>
0179

> <Smiles>
CNC(C)C(=O)NC(C(=O)N1Cc2cc([101O:1][101CH2:1]C(C)NC(=O)c3sc([100NH:0][100C:0](=O)N4CCCC(n5nc(-c6ccc(Oc7ccc(F)cc7F)cc6)c(C(N)=O)c5N)C4)cc3C)ccc2CC1C(=O)NC1CCCc2ccccc21)C(C)(C)C

> <Shape>
0.259

> <Color>
0.064

> <Negative vol penalty>
0.000

$$$$

  -OEChem-04052304473D

 86 94  0     1  0  0  0  0  0999 V2000
  -29.6004  -32.5538   25.4532 C   0  0  0  0  0  0  0  0  0  0  0  0
  -29.3896  -31.3777   24.7405 C   0  0  0  0  0  0  0  0  0  0  0  0
  -24.1418   -8.7015   20.7412 C   0  0  0  0  0  0  0  0  0  0  0  0
  -23.1328  -10.8801   21.0102 C   0  0  0  0  0  0  0  0  0  0  0  0
  -28.5263  -33.1993   26.0643 C   0  0  0  0  0  0  0  0  0  0  0  0
  -28.1046  -30.8459   24.6396 C   0  0  0  0  0  0  0  0  0  0  0  0
  -26.9880  -29.3434   19.9342 C   0  0  0  0  0  0  0  0  0  0  0  0
  -23.2428   -8.1709   21.6663 C   0  0  0  0  0  0  0  0  0  0  0  0
  -22.2337  -10.3495   21.9353 C   0  0  0  0  0  0  0  0  0  0  0  0
  -27.5178  -28.1247   19.5124 C   0  0  0  0  0  0  0  0  0  0  0  0
  -20.0142   -7.1671   21.7089 C   0  0  0  0  0  0  0  0  0  0  0  0
  -19.4003   -5.9549   21.3943 C   0  0  0  0  0  0  0  0  0  0  0  0
  -25.4012  -27.0570   19.9590 C   0  0  0  0  0  0  0  0  0  0  0  0
  -27.6553  -19.1784   20.4820 C   0  0  0  0  0  0  0  0  0  0  0  0
  -20.3635   -4.9541   23.3711 C   0  0  0  0  0  0  0  0  0  0  0  0
  -24.0868  -10.0561   20.4132 C   0  0  0  0  0  0  0  0  0  0  0  0
  -24.8453  -10.6984   18.0638 C   0  0  0  0  0  0  0  0  0  0  0  0
  -27.2260  -32.6803   25.9627 C   0  0  0  0  0  0  0  0  0  0  0  0
  -25.6619  -29.4260   20.3826 C   0  0  0  0  0  0  0  0  0  0  0  0
  -27.0122  -31.4843   25.2511 C   0  0  0  0  0  0  0  0  0  0  0  0
  -24.8563  -28.2784   20.3836 C   0  0  0  0  0  0  0  0  0  0  0  0
  -27.6527  -17.7901   20.4054 C   0  0  0  0  0  0  0  0  0  0  0  0
  -28.8637  -19.8662   20.4942 C   0  0  0  0  0  0  0  0  0  0  0  0
  -22.2887   -8.9949   22.2633 C   0  0  0  0  0  0  0  0  0  0  0  0
  -26.7252  -26.9807   19.5275 C   0  0  0  0  0  0  0  0  0  0  0  0
  -20.8029   -7.2729   22.8545 C   0  0  0  0  0  0  0  0  0  0  0  0
  -19.5749   -4.8483   22.2254 C   0  0  0  0  0  0  0  0  0  0  0  0
  -20.9775   -6.1664   23.6856 C   0  0  0  0  0  0  0  0  0  0  0  0
  -25.0156  -10.6050   19.4581 C   0  0  0  0  0  0  0  0  0  0  0  0
  -28.8757  -17.1417   20.3436 C   0  0  0  0  0  0  0  0  0  0  0  0
  -30.0324  -19.1249   20.4286 C   0  0  0  0  0  0  0  0  0  0  0  0
  -26.0011  -11.2900   17.6156 C   0  0  0  0  0  0  0  0  0  0  0  0
  -23.7411  -10.2874   17.2468 C   0  0  0  0  0  0  0  0  0  0  0  0
  -28.1542  -23.5546   20.7177 C   0  0  0  0  0  0  0  0  0  0  0  0
  -27.7667  -22.1057   20.6487 C   0  0  0  0  0  0  0  0  0  0  0  0
  -24.2675  -30.2148   23.1280 C   0  0  0  0  0  0  0  0  0  0  0  0
  -21.5492  -29.9198   21.3825 C   0  0  0  0  0  0  0  0  0  0  0  0
  -19.9771  -28.5582   18.6767 C   0  0  0  0  0  0  0  0  0  0  0  0
  -30.0071  -14.8958   20.1953 C   0  0  0  0  0  0  0  0  0  0  0  0
  -26.1038  -33.3879   26.6800 C   0  0  0  0  0  0  0  0  0  0  0  0
  -25.0974  -30.7534   20.8091 C   0  0  0  0  0  0  0  0  0  0  0  0
  -23.4204  -28.3179   20.8366 C   0  0  0  0  0  0  0  0  0  0  0  0
  -24.7155  -32.9607   26.2103 C   0  0  0  0  0  0  0  0  0  0  0  0
  -30.6456  -11.7297   18.6969 C   0  0  0  0  0  0  0  0  0  0  0  0
  -24.6270  -31.4406   26.1197 C   0  0  0  0  0  0  0  0  0  0  0  0
  -29.2581  -11.0930   18.5896 C   0  0  0  0  0  0  0  0  0  0  0  0
  -30.7959  -12.5495   19.9772 C   0  0  0  0  0  0  0  0  0  0  0  0
  -28.3630  -12.9207   20.0880 C   0  0  0  0  0  0  0  0  0  0  0  0
  -25.6291  -30.8896   25.0981 C   0  0  1  0  0  0  0  0  0  0  0  0
  -23.8895  -30.6204   21.7314 C   0  0  1  0  0  0  0  0  0  0  0  0
  -28.1420  -12.1381   18.7833 C   0  0  2  0  0  0  0  0  0  0  0  0
  -17.7449  -28.4699   17.5336 C   0  0  0  0  0  0  0  0  0  0  0  0
  -20.5313  -27.9994   23.5240 C   0  0  0  0  0  0  0  0  0  0  0  0
  -18.7815  -27.2327   21.9058 C   0  0  0  0  0  0  0  0  0  0  0  0
  -18.8193  -29.6081   22.6664 C   0  0  0  0  0  0  0  0  0  0  0  0
  -21.0671  -29.7599   16.2015 C   0  0  0  0  0  0  0  0  0  0  0  0
  -28.9094  -24.1052   19.5279 C   0  0  0  0  0  0  0  0  0  0  0  0
  -28.6393  -25.5862   19.3091 C   0  0  0  0  0  0  0  0  0  1  0  0
  -20.5985  -28.7903   21.0672 C   0  0  1  0  0  0  0  0  0  0  0  0
  -19.0896  -29.1758   17.6111 C   0  0  2  0  0  0  0  0  0  0  0  0
  -19.7103  -28.4062   22.2841 C   0  0  0  0  0  0  0  0  0  0  0  0
  -26.1873  -11.0975   19.8686 N   0  0  0  0  0  0  0  0  0  0  0  0
  -30.0697  -17.7756   20.3533 N   0  0  0  0  0  0  0  0  0  0  0  0
  -26.7638  -11.5061   18.7255 N   0  0  0  0  0  0  0  0  0  0  0  0
  -22.9163  -29.6379   21.2501 N   0  0  0  0  0  0  0  0  0  0  0  0
  -29.7062  -13.5213   20.0911 N   0  0  0  0  0  0  0  0  0  0  0  0
  -26.4307  -17.0916   20.3938 N   0  0  0  0  0  0  0  0  0  0  0  0
  -31.2696  -19.8175   20.4406 N   0  0  0  0  0  0  0  0  0  0  0  0
  -26.4292  -11.6411   16.3844 N   0  0  0  0  0  0  0  0  0  0  0  0
  -22.6331   -9.6965   17.8691 N   0  0  0  0  0  0  0  0  0  0  0  0
  -28.8663  -21.2784   20.5720 N   0  0  0  0  0  0  0  0  0  0  0  0
  -28.8896  -15.7270   20.2650 N   0  0  0  0  0  0  0  0  0  0  0  0
  -25.1385  -31.0880   23.7511 N   0  0  0  0  0  0  0  0  0  0  0  0
  -19.8481  -29.2059   19.8871 N   0  0  0  0  0  0  0  0  0  0  0  0
  -19.7450  -29.0865   16.2757 N   0  3  0  0  0  0  0  0  0  0  0  0
  -23.7442  -10.4247   15.9999 O   0  0  0  0  0  0  0  0  0  0  0  0
  -27.8226  -24.1755   21.7162 O   0  0  0  0  0  0  0  0  0  0  0  0
  -26.5735  -21.8566   20.6944 O   0  0  0  0  0  0  0  0  0  0  0  0
  -23.8020  -29.1867   23.6054 O   0  0  0  0  0  0  0  0  0  0  0  0
  -21.0954  -31.0140   21.7265 O   0  0  0  0  0  0  0  0  0  0  0  0
  -20.7087  -27.5951   18.4582 O   0  0  0  0  0  0  0  0  0  0  0  0
  -31.1701  -15.3075   20.1934 O   0  0  0  0  0  0  0  0  0  0  0  0
  -21.4111   -8.4774   23.1659 O   0  0  0  0  0  0  0  0  0  0  0  0
  -27.2400  -25.7898   19.1169 O   0  0  0  0  0  0  0  0  0  1  0  0
  -18.9839   -3.6846   21.9239 F   0  0  0  0  0  0  0  0  0  0  0  0
  -21.7330   -6.2622   24.7882 F   0  0  0  0  0  0  0  0  0  0  0  0
  1  2  1  0  0  0  0
  1  5  2  0  0  0  0
  2  6  2  0  0  0  0
  3  8  2  0  0  0  0
  3 16  1  0  0  0  0
  4  9  1  0  0  0  0
  4 16  2  0  0  0  0
  5 18  1  0  0  0  0
  6 20  1  0  0  0  0
  7 10  2  0  0  0  0
  7 19  1  0  0  0  0
  8 24  1  0  0  0  0
  9 24  2  0  0  0  0
 10 25  1  0  0  0  0
 11 12  2  0  0  0  0
 11 26  1  0  0  0  0
 12 27  1  0  0  0  0
 13 21  1  0  0  0  0
 13 25  2  0  0  0  0
 14 22  2  0  0  0  0
 14 23  1  0  0  0  0
 15 27  2  0  0  0  0
 15 28  1  0  0  0  0
 16 29  1  0  0  0  0
 17 29  1  0  0  0  0
 17 32  2  0  0  0  0
 17 33  1  0  0  0  0
 18 20  2  0  0  0  0
 18 40  1  0  0  0  0
 19 21  2  0  0  0  0
 19 41  1  0  0  0  0
 20 49  1  0  0  0  0
 21 42  1  0  0  0  0
 22 30  1  0  0  0  0
 22 67  1  0  0  0  0
 23 31  2  0  0  0  0
 23 71  1  0  0  0  0
 24 83  1  0  0  0  0
 25 84  1  0  0  0  0
 26 28  2  0  0  0  0
 26 83  1  0  0  0  0
 27 85  1  0  0  0  0
 28 86  1  0  0  0  0
 29 62  2  0  0  0  0
 30 63  2  0  0  0  0
 30 72  1  0  0  0  0
 31 63  1  0  0  0  0
 31 68  1  0  0  0  0
 32 64  1  0  0  0  0
 32 69  1  0  0  0  0
 33 70  1  0  0  0  0
 33 76  2  0  0  0  0
 34 35  1  0  0  0  0
 34 57  1  0  0  0  0
 34 77  2  0  0  0  0
 35 71  1  0  0  0  0
 35 78  2  0  0  0  0
 36 50  1  0  0  0  0
 36 73  1  0  0  0  0
 36 79  2  0  0  0  0
 37 59  1  0  0  0  0
 37 65  1  0  0  0  0
 37 80  2  0  0  0  0
 38 60  1  0  0  0  0
 38 74  1  0  0  0  0
 38 81  2  0  0  0  0
 39 66  1  0  0  0  0
 39 72  1  0  0  0  0
 39 82  2  0  0  0  0
 40 43  1  0  0  0  0
 41 50  1  0  0  0  0
 42 65  1  0  0  0  0
 43 45  1  0  0  0  0
 44 46  1  0  0  0  0
 44 47  1  0  0  0  0
 45 49  1  0  0  0  0
 46 51  1  0  0  0  0
 47 66  1  0  0  0  0
 48 51  1  0  0  0  0
 48 66  1  0  0  0  0
 49 73  1  0  0  0  0
 50 65  1  0  0  0  0
 51 64  1  0  0  0  0
 52 60  1  0  0  0  0
 53 61  1  0  0  0  0
 54 61  1  0  0  0  0
 55 61  1  0  0  0  0
 56 75  1  0  0  0  0
 57 58  1  0  0  0  0
 58 84  1  0  0  0  0
 59 61  1  0  0  0  0
 59 74  1  0  0  0  0
 60 75  1  0  0  0  0
 62 64  1  0  0  0  0
M  CHG  1  75   1
M  ISO  4  39 100  58 101  72 100  84 101
M  END
> <Batch ID>
0179

> <Smiles>
CNC(C)C(=O)NC(C(=O)N1Cc2cc([101O:1][101CH2:1]CC(=O)C(=O)Nc3cc(N)c([100NH:0][100C:0](=O)N4CCCC(n5nc(-c6ccc(Oc7ccc(F)cc7F)cc6)c(C(N)=O)c5N)C4)nc3N)ccc2CC1C(=O)NC1CCCc2ccccc21)C(C)(C)C

> <Shape>
0.342

> <Color>
0.097

> <Negative vol penalty>
0.000

$$$$

  -OEChem-04052304473D

 84 92  0     1  0  0  0  0  0999 V2000
  -15.5837  -28.8854   25.3883 C   0  0  0  0  0  0  0  0  0  0  0  0
  -16.3945  -27.9617   24.7366 C   0  0  0  0  0  0  0  0  0  0  0  0
  -23.4880   -9.1385   20.3432 C   0  0  0  0  0  0  0  0  0  0  0  0
  -23.1849  -10.9752   21.8832 C   0  0  0  0  0  0  0  0  0  0  0  0
  -15.7718  -30.2502   25.1737 C   0  0  0  0  0  0  0  0  0  0  0  0
  -17.3933  -28.4023   23.8690 C   0  0  0  0  0  0  0  0  0  0  0  0
  -22.8742  -25.8275   22.9544 C   0  0  0  0  0  0  0  0  0  0  0  0
  -22.5628   -8.3824   21.0628 C   0  0  0  0  0  0  0  0  0  0  0  0
  -22.2596  -10.2191   22.6028 C   0  0  0  0  0  0  0  0  0  0  0  0
  -23.3539  -24.9686   21.9664 C   0  0  0  0  0  0  0  0  0  0  0  0
  -22.5083   -6.5694   23.9149 C   0  0  0  0  0  0  0  0  0  0  0  0
  -22.8335   -5.2418   24.1928 C   0  0  0  0  0  0  0  0  0  0  0  0
  -24.2441  -26.8602   20.7628 C   0  0  0  0  0  0  0  0  0  0  0  0
  -20.8755   -4.5087   22.9821 C   0  0  0  0  0  0  0  0  0  0  0  0
  -31.4820  -18.7265   18.2731 C   0  0  0  0  0  0  0  0  0  0  0  0
  -23.7991  -10.4349   20.7534 C   0  0  0  0  0  0  0  0  0  0  0  0
  -24.4918  -12.0792   18.9302 C   0  0  0  0  0  0  0  0  0  0  0  0
  -16.7797  -30.7079   24.3105 C   0  0  0  0  0  0  0  0  0  0  0  0
  -23.0666  -27.2124   22.8483 C   0  0  0  0  0  0  0  0  0  0  0  0
  -17.5942  -29.7744   23.6416 C   0  0  0  0  0  0  0  0  0  0  0  0
  -23.7680  -27.7342   21.7520 C   0  0  0  0  0  0  0  0  0  0  0  0
  -21.9486   -8.9227   22.1926 C   0  0  0  0  0  0  0  0  0  0  0  0
  -24.0365  -25.4852   20.8690 C   0  0  0  0  0  0  0  0  0  0  0  0
  -21.3666   -6.8667   23.1706 C   0  0  0  0  0  0  0  0  0  0  0  0
  -22.0171   -4.2114   23.7264 C   0  0  0  0  0  0  0  0  0  0  0  0
  -20.5502   -5.8364   22.7042 C   0  0  0  0  0  0  0  0  0  0  0  0
  -24.7552  -11.2163   20.0108 C   0  0  0  0  0  0  0  0  0  0  0  0
  -30.2273  -19.2273   17.9954 C   0  0  0  0  0  0  0  0  0  0  0  0
  -25.7231  -12.5770   18.5802 C   0  0  0  0  0  0  0  0  0  0  0  0
  -30.2874  -17.0145   18.9456 C   0  0  0  0  0  0  0  0  0  0  0  0
  -25.7685  -24.1473   20.0439 C   0  0  0  0  0  0  0  0  0  1  0  0
  -29.3205  -21.4860   18.4753 C   0  0  0  0  0  0  0  0  0  0  0  0
  -23.2455  -12.4020   18.2992 C   0  0  0  0  0  0  0  0  0  0  0  0
  -26.3294  -23.3179   19.1558 C   0  0  0  0  0  0  0  0  0  0  0  0
  -27.7191  -22.8263   19.4024 C   0  0  0  0  0  0  0  0  0  0  0  0
  -21.1439  -29.7330   22.6163 C   0  0  0  0  0  0  0  0  0  0  0  0
  -23.9223  -31.3867   22.8762 C   0  0  0  0  0  0  0  0  0  0  0  0
  -27.3128  -31.4340   22.4897 C   0  0  0  0  0  0  0  0  0  0  0  0
  -30.6719  -14.7339   19.9442 C   0  0  0  0  0  0  0  0  0  0  0  0
  -16.9142  -32.1914   24.0737 C   0  0  0  0  0  0  0  0  0  0  0  0
  -22.5662  -28.1231   23.9358 C   0  0  0  0  0  0  0  0  0  0  0  0
  -24.0187  -29.2117   21.6013 C   0  0  0  0  0  0  0  0  0  0  0  0
  -18.2393  -32.5873   23.4276 C   0  0  0  0  0  0  0  0  0  0  0  0
  -30.3704  -11.1872   20.0270 C   0  0  0  0  0  0  0  0  0  0  0  0
  -18.5552  -31.6689   22.2513 C   0  0  0  0  0  0  0  0  0  0  0  0
  -28.8610  -10.9496   19.9413 C   0  0  0  0  0  0  0  0  0  0  0  0
  -30.7034  -12.4239   20.8597 C   0  0  0  0  0  0  0  0  0  0  0  0
  -28.5035  -13.4156   20.3633 C   0  0  0  0  0  0  0  0  0  0  0  0
  -18.7045  -30.2139   22.7121 C   0  0  1  0  0  0  0  0  0  0  0  0
  -22.3702  -29.5617   23.4675 C   0  0  1  0  0  0  0  0  0  0  0  0
  -28.1161  -12.2178   19.4807 C   0  0  2  0  0  0  0  0  0  0  0  0
  -29.3041  -32.9391   22.7482 C   0  0  0  0  0  0  0  0  0  0  0  0
  -23.1441  -32.8521   20.3156 C   0  0  0  0  0  0  0  0  0  0  0  0
  -25.5209  -33.6119   20.1107 C   0  0  0  0  0  0  0  0  0  0  0  0
  -24.1575  -34.3042   22.0817 C   0  0  0  0  0  0  0  0  0  0  0  0
  -28.5534  -29.6416   24.4915 C   0  0  0  0  0  0  0  0  0  0  0  0
  -29.8278  -20.5542   17.4100 C   0  0  0  0  0  0  0  0  0  0  0  0
  -24.9501  -31.9101   21.9022 C   0  0  1  0  0  0  0  0  0  0  0  0
  -28.4258  -31.8918   23.4149 C   0  0  2  0  0  0  0  0  0  0  0  0
  -24.4369  -33.1419   21.1041 C   0  0  0  0  0  0  0  0  0  0  0  0
  -31.5184  -17.4580   18.8183 N   0  0  0  0  0  0  0  0  0  0  0  0
  -26.0521  -11.1663   20.3265 N   0  0  0  0  0  0  0  0  0  0  0  0
  -28.1331  -21.9874   18.3920 N   0  0  0  0  0  0  0  0  0  0  0  0
  -26.6146  -12.0041   19.4389 N   0  0  0  0  0  0  0  0  0  0  0  0
  -23.5043  -30.0617   22.6878 N   0  0  0  0  0  0  0  0  0  0  0  0
  -29.9648  -13.5869   20.3628 N   0  0  0  0  0  0  0  0  0  0  0  0
  -26.1195  -13.4445   17.6248 N   0  0  0  0  0  0  0  0  0  0  0  0
  -22.0757  -11.8013   18.7841 N   0  0  0  0  0  0  0  0  0  0  0  0
  -29.8656  -15.7638   19.4608 N   0  0  0  0  0  0  0  0  0  0  0  0
  -19.9957  -30.0105   23.3334 N   0  0  0  0  0  0  0  0  0  0  0  0
  -26.1581  -32.1631   22.6800 N   0  0  0  0  0  0  0  0  0  0  0  0
  -29.2840  -30.7371   23.8038 N   0  3  0  0  0  0  0  0  0  0  0  0
  -23.1734  -13.1868   17.3233 O   0  0  0  0  0  0  0  0  0  0  0  0
  -28.3577  -23.1590   20.3960 O   0  0  0  0  0  0  0  0  0  0  0  0
  -21.2330  -29.6231   21.3991 O   0  0  0  0  0  0  0  0  0  0  0  0
  -23.5110  -32.1240   23.7756 O   0  0  0  0  0  0  0  0  0  0  0  0
  -27.4548  -30.5233   21.6767 O   0  0  0  0  0  0  0  0  0  0  0  0
  -31.9038  -14.7875   19.9844 O   0  0  0  0  0  0  0  0  0  0  0  0
  -25.6764  -22.8966   18.0156 O   0  0  0  0  0  0  0  0  0  0  0  0
  -21.0455   -8.1852   22.8949 O   0  0  0  0  0  0  0  0  0  0  0  0
  -24.5052  -24.6492   19.9029 O   0  0  0  0  0  0  0  0  0  1  0  0
  -22.3304   -2.9365   23.9921 F   0  0  0  0  0  0  0  0  0  0  0  0
  -19.4528   -6.1157   21.9877 F   0  0  0  0  0  0  0  0  0  0  0  0
  -29.0374  -18.0707   18.4288 S   0  0  0  0  0  0  0  0  0  0  0  0
  1  2  1  0  0  0  0
  1  5  2  0  0  0  0
  2  6  2  0  0  0  0
  3  8  2  0  0  0  0
  3 16  1  0  0  0  0
  4  9  1  0  0  0  0
  4 16  2  0  0  0  0
  5 18  1  0  0  0  0
  6 20  1  0  0  0  0
  7 10  2  0  0  0  0
  7 19  1  0  0  0  0
  8 22  1  0  0  0  0
  9 22  2  0  0  0  0
 10 23  1  0  0  0  0
 11 12  2  0  0  0  0
 11 24  1  0  0  0  0
 12 25  1  0  0  0  0
 13 21  1  0  0  0  0
 13 23  2  0  0  0  0
 14 25  2  0  0  0  0
 14 26  1  0  0  0  0
 15 28  2  0  0  0  0
 15 61  1  0  0  0  0
 16 27  1  0  0  0  0
 17 27  1  0  0  0  0
 17 29  2  0  0  0  0
 17 33  1  0  0  0  0
 18 20  2  0  0  0  0
 18 40  1  0  0  0  0
 19 21  2  0  0  0  0
 19 41  1  0  0  0  0
 20 49  1  0  0  0  0
 21 42  1  0  0  0  0
 22 80  1  0  0  0  0
 23 81  1  0  0  0  0
 24 26  2  0  0  0  0
 24 80  1  0  0  0  0
 25 82  1  0  0  0  0
 26 83  1  0  0  0  0
 27 62  2  0  0  0  0
 28 57  1  0  0  0  0
 28 84  1  0  0  0  0
 29 64  1  0  0  0  0
 29 67  1  0  0  0  0
 30 61  2  0  0  0  0
 30 69  1  0  0  0  0
 30 84  1  0  0  0  0
 31 34  2  0  0  0  0
 31 81  1  0  0  0  0
 32 57  1  0  0  0  0
 32 63  2  0  0  0  0
 33 68  1  0  0  0  0
 33 73  2  0  0  0  0
 34 35  1  0  0  0  0
 34 79  1  0  0  0  0
 35 63  1  0  0  0  0
 35 74  2  0  0  0  0
 36 50  1  0  0  0  0
 36 70  1  0  0  0  0
 36 75  2  0  0  0  0
 37 58  1  0  0  0  0
 37 65  1  0  0  0  0
 37 76  2  0  0  0  0
 38 59  1  0  0  0  0
 38 71  1  0  0  0  0
 38 77  2  0  0  0  0
 39 66  1  0  0  0  0
 39 69  1  0  0  0  0
 39 78  2  0  0  0  0
 40 43  1  0  0  0  0
 41 50  1  0  0  0  0
 42 65  1  0  0  0  0
 43 45  1  0  0  0  0
 44 46  1  0  0  0  0
 44 47  1  0  0  0  0
 45 49  1  0  0  0  0
 46 51  1  0  0  0  0
 47 66  1  0  0  0  0
 48 51  1  0  0  0  0
 48 66  1  0  0  0  0
 49 70  1  0  0  0  0
 50 65  1  0  0  0  0
 51 64  1  0  0  0  0
 52 59  1  0  0  0  0
 53 60  1  0  0  0  0
 54 60  1  0  0  0  0
 55 60  1  0  0  0  0
 56 72  1  0  0  0  0
 58 60  1  0  0  0  0
 58 71  1  0  0  0  0
 59 72  1  0  0  0  0
 62 64  1  0  0  0  0
M  CHG  1  72   1
M  ISO  4  31 101  39 100  69 100  81 101
M  END
> <Batch ID>
0179

> <Smiles>
CNC(C)C(=O)NC(C(=O)N1Cc2cc([101O:1][101CH2:1]C(=O)C(=O)NC=Cc3cnc([100NH:0][100C:0](=O)N4CCCC(n5nc(-c6ccc(Oc7ccc(F)cc7F)cc6)c(C(N)=O)c5N)C4)s3)ccc2CC1C(=O)NC1CCCc2ccccc21)C(C)(C)C

> <Shape>
0.264

> <Color>
0.098

> <Negative vol penalty>
0.000

$$$$

  -OEChem-04052304473D

 92100  0     1  0  0  0  0  0999 V2000
  -16.1219  -27.7321   21.8212 C   0  0  0  0  0  0  0  0  0  0  0  0
  -17.3678  -27.1235   21.7084 C   0  0  0  0  0  0  0  0  0  0  0  0
  -23.6606   -9.6546   21.9223 C   0  0  0  0  0  0  0  0  0  0  0  0
  -24.2146  -11.0367   23.8249 C   0  0  0  0  0  0  0  0  0  0  0  0
  -16.0162  -29.1203   21.7465 C   0  0  0  0  0  0  0  0  0  0  0  0
  -18.5087  -27.9028   21.5196 C   0  0  0  0  0  0  0  0  0  0  0  0
  -22.3637  -26.4487   24.4640 C   0  0  0  0  0  0  0  0  0  0  0  0
  -23.1119   -8.6983   22.7766 C   0  0  0  0  0  0  0  0  0  0  0  0
  -23.6659  -10.0804   24.6793 C   0  0  0  0  0  0  0  0  0  0  0  0
  -23.0780  -25.3195   24.0662 C   0  0  0  0  0  0  0  0  0  0  0  0
  -24.2299   -6.2373   24.8059 C   0  0  0  0  0  0  0  0  0  0  0  0
  -24.5535   -4.9004   24.5742 C   0  0  0  0  0  0  0  0  0  0  0  0
  -24.7988  -26.7389   23.1479 C   0  0  0  0  0  0  0  0  0  0  0  0
  -22.2143   -4.3903   24.2503 C   0  0  0  0  0  0  0  0  0  0  0  0
  -24.2121  -10.8238   22.4464 C   0  0  0  0  0  0  0  0  0  0  0  0
  -24.1155  -12.9000   20.9674 C   0  0  0  0  0  0  0  0  0  0  0  0
  -17.1574  -29.9176   21.5664 C   0  0  0  0  0  0  0  0  0  0  0  0
  -22.8571  -27.7338   24.1966 C   0  0  0  0  0  0  0  0  0  0  0  0
  -18.4179  -29.3029   21.4410 C   0  0  0  0  0  0  0  0  0  0  0  0
  -24.0900  -27.8829   23.5456 C   0  0  0  0  0  0  0  0  0  0  0  0
  -23.1145   -8.9112   24.1552 C   0  0  0  0  0  0  0  0  0  0  0  0
  -24.2944  -25.4645   23.4055 C   0  0  0  0  0  0  0  0  0  0  0  0
  -22.8985   -6.6507   24.7598 C   0  0  0  0  0  0  0  0  0  0  0  0
  -23.5458   -3.9769   24.2964 C   0  0  0  0  0  0  0  0  0  0  0  0
  -21.8907   -5.7272   24.4820 C   0  0  0  0  0  0  0  0  0  0  0  0
  -24.7796  -11.8117   21.5643 C   0  0  0  0  0  0  0  0  0  0  0  0
  -29.2825  -20.3390   19.2846 C   0  0  0  0  0  0  0  0  0  0  0  0
  -30.4896  -19.8491   18.8317 C   0  0  0  0  0  0  0  0  0  0  0  0
  -25.0860  -13.5306   20.2278 C   0  0  0  0  0  0  0  0  0  0  0  0
  -29.6142  -17.9667   19.5390 C   0  0  0  0  0  0  0  0  0  0  0  0
  -22.7440  -13.3048   21.0721 C   0  0  0  0  0  0  0  0  0  0  0  0
  -28.7391  -21.7217   19.2906 C   0  0  0  0  0  0  0  0  0  0  0  0
  -21.8383  -30.2191   22.4969 C   0  0  0  0  0  0  0  0  0  0  0  0
  -25.9394  -23.1572   21.1404 C   0  0  0  0  0  0  0  0  0  0  0  0
  -24.4108  -31.6840   23.8228 C   0  0  0  0  0  0  0  0  0  0  0  0
  -32.7404  -20.2352   17.7702 C   0  0  0  0  0  0  0  0  0  0  0  0
  -27.4949  -31.3881   25.2539 C   0  0  0  0  0  0  0  0  0  0  0  0
  -30.2513  -15.5327   19.6670 C   0  0  0  0  0  0  0  0  0  0  0  0
  -16.9876  -31.4112   21.4443 C   0  0  0  0  0  0  0  0  0  0  0  0
  -22.0874  -28.9417   24.6561 C   0  0  0  0  0  0  0  0  0  0  0  0
  -24.6732  -29.2403   23.2528 C   0  0  0  0  0  0  0  0  0  0  0  0
  -18.2899  -32.1885   21.6182 C   0  0  0  0  0  0  0  0  0  0  0  0
  -29.7767  -12.0646   19.0156 C   0  0  0  0  0  0  0  0  0  0  0  0
  -19.4058  -31.5511   20.7965 C   0  0  0  0  0  0  0  0  0  0  0  0
  -28.3797  -11.7792   19.5715 C   0  0  0  0  0  0  0  0  0  0  0  0
  -30.5348  -13.0730   19.8772 C   0  0  0  0  0  0  0  0  0  0  0  0
  -28.4226  -14.0434   20.6934 C   0  0  0  0  0  0  0  0  0  0  0  0
  -19.6816  -30.1157   21.2604 C   0  0  1  0  0  0  0  0  0  0  0  0
  -22.4362  -30.2050   23.8752 C   0  0  1  0  0  0  0  0  0  0  0  0
  -27.5962  -13.0824   19.8232 C   0  0  2  0  0  0  0  0  0  0  0  0
  -34.9015  -21.0282   16.7183 C   0  0  0  0  0  0  0  0  0  0  0  0
  -29.3679  -32.7646   26.1997 C   0  0  0  0  0  0  0  0  0  0  0  0
  -25.2821  -32.4357   20.9969 C   0  0  0  0  0  0  0  0  0  0  0  0
  -27.5580  -32.9431   21.9085 C   0  0  0  0  0  0  0  0  0  0  0  0
  -25.5818  -34.2452   22.6969 C   0  0  0  0  0  0  0  0  0  0  0  0
  -27.2222  -30.1367   27.9219 C   0  0  0  0  0  0  0  0  0  0  0  0
  -25.8073  -24.4907   21.8503 C   0  0  0  0  0  0  0  0  0  1  0  0
  -33.5248  -21.4193   17.2249 C   0  0  0  0  0  0  0  0  0  0  0  0
  -26.7971  -23.1474   19.8835 C   0  0  2  0  0  0  0  0  0  0  0  0
  -25.8628  -31.8457   23.4424 C   0  0  1  0  0  0  0  0  0  0  0  0
  -28.0867  -32.0055   26.5081 C   0  0  2  0  0  0  0  0  0  0  0  0
  -26.0595  -32.8417   22.2648 C   0  0  0  0  0  0  0  0  0  0  0  0
  -25.9496  -23.3902   18.6544 C   0  0  0  0  0  0  0  0  0  0  0  0
  -26.0719  -11.7513   21.2325 N   0  0  0  0  0  0  0  0  0  0  0  0
  -30.6818  -18.4891   18.9772 N   0  0  0  0  0  0  0  0  0  0  0  0
  -26.2277  -12.8096   20.4189 N   0  0  0  0  0  0  0  0  0  0  0  0
  -23.8799  -30.3907   23.7163 N   0  0  0  0  0  0  0  0  0  0  0  0
  -29.7333  -14.2835   20.0694 N   0  0  0  0  0  0  0  0  0  0  0  0
  -25.0654  -14.6260   19.4390 N   0  0  0  0  0  0  0  0  0  0  0  0
  -21.8824  -12.5444   21.8744 N   0  0  0  0  0  0  0  0  0  0  0  0
  -31.4759  -20.6297   18.2648 N   0  0  0  0  0  0  0  0  0  0  0  0
  -29.3864  -16.6078   19.8693 N   0  0  0  0  0  0  0  0  0  0  0  0
  -27.4681  -21.8752   19.8291 N   0  0  0  0  0  0  0  0  0  0  0  0
  -20.4601  -30.1196   22.4804 N   0  0  0  0  0  0  0  0  0  0  0  0
  -26.5658  -32.2195   24.6649 N   0  0  0  0  0  0  0  0  0  0  0  0
  -28.3974  -30.9465   27.5097 N   0  3  0  0  0  0  0  0  0  0  0  0
  -22.2922  -14.3015   20.4590 O   0  0  0  0  0  0  0  0  0  0  0  0
  -29.4113  -22.6326   18.8143 O   0  0  0  0  0  0  0  0  0  0  0  0
  -22.5728  -30.3146   21.5206 O   0  0  0  0  0  0  0  0  0  0  0  0
  -25.3592  -22.1487   21.5435 O   0  0  0  0  0  0  0  0  0  0  0  0
  -23.7732  -32.6675   24.2072 O   0  0  0  0  0  0  0  0  0  0  0  0
  -33.1925  -19.0950   17.7597 O   0  0  0  0  0  0  0  0  0  0  0  0
  -27.8264  -30.2808   24.8362 O   0  0  0  0  0  0  0  0  0  0  0  0
  -31.3682  -15.6372   19.1537 O   0  0  0  0  0  0  0  0  0  0  0  0
  -22.5789   -7.9784   24.9892 O   0  0  0  0  0  0  0  0  0  0  0  0
  -24.9933  -24.3639   23.0155 O   0  0  0  0  0  0  0  0  0  1  0  0
  -23.8568   -2.6935   24.0725 F   0  0  0  0  0  0  0  0  0  0  0  0
  -20.6099   -6.1186   24.4352 F   0  0  0  0  0  0  0  0  0  0  0  0
  -26.6987  -23.3489   17.5304 F   0  0  0  0  0  0  0  0  0  0  0  0
  -25.3340  -24.5913   18.6964 F   0  0  0  0  0  0  0  0  0  0  0  0
  -24.9934  -22.4417   18.5343 F   0  0  0  0  0  0  0  0  0  0  0  0
  -28.3412  -19.0531   19.9185 S   0  0  0  0  0  0  0  0  0  0  0  0
  1  2  1  0  0  0  0
  1  5  2  0  0  0  0
  2  6  2  0  0  0  0
  3  8  2  0  0  0  0
  3 15  1  0  0  0  0
  4  9  1  0  0  0  0
  4 15  2  0  0  0  0
  5 17  1  0  0  0  0
  6 19  1  0  0  0  0
  7 10  2  0  0  0  0
  7 18  1  0  0  0  0
  8 21  1  0  0  0  0
  9 21  2  0  0  0  0
 10 22  1  0  0  0  0
 11 12  2  0  0  0  0
 11 23  1  0  0  0  0
 12 24  1  0  0  0  0
 13 20  1  0  0  0  0
 13 22  2  0  0  0  0
 14 24  2  0  0  0  0
 14 25  1  0  0  0  0
 15 26  1  0  0  0  0
 16 26  1  0  0  0  0
 16 29  2  0  0  0  0
 16 31  1  0  0  0  0
 17 19  2  0  0  0  0
 17 39  1  0  0  0  0
 18 20  2  0  0  0  0
 18 40  1  0  0  0  0
 19 48  1  0  0  0  0
 20 41  1  0  0  0  0
 21 85  1  0  0  0  0
 22 86  1  0  0  0  0
 23 25  2  0  0  0  0
 23 85  1  0  0  0  0
 24 87  1  0  0  0  0
 25 88  1  0  0  0  0
 26 64  2  0  0  0  0
 27 28  2  0  0  0  0
 27 32  1  0  0  0  0
 27 92  1  0  0  0  0
 28 65  1  0  0  0  0
 28 71  1  0  0  0  0
 29 66  1  0  0  0  0
 29 69  1  0  0  0  0
 30 65  2  0  0  0  0
 30 72  1  0  0  0  0
 30 92  1  0  0  0  0
 31 70  1  0  0  0  0
 31 77  2  0  0  0  0
 32 73  1  0  0  0  0
 32 78  2  0  0  0  0
 33 49  1  0  0  0  0
 33 74  1  0  0  0  0
 33 79  2  0  0  0  0
 34 57  1  0  0  0  0
 34 59  1  0  0  0  0
 34 80  2  0  0  0  0
 35 60  1  0  0  0  0
 35 67  1  0  0  0  0
 35 81  2  0  0  0  0
 36 58  1  0  0  0  0
 36 71  1  0  0  0  0
 36 82  2  0  0  0  0
 37 61  1  0  0  0  0
 37 75  1  0  0  0  0
 37 83  2  0  0  0  0
 38 68  1  0  0  0  0
 38 72  1  0  0  0  0
 38 84  2  0  0  0  0
 39 42  1  0  0  0  0
 40 49  1  0  0  0  0
 41 67  1  0  0  0  0
 42 44  1  0  0  0  0
 43 45  1  0  0  0  0
 43 46  1  0  0  0  0
 44 48  1  0  0  0  0
 45 50  1  0  0  0  0
 46 68  1  0  0  0  0
 47 50  1  0  0  0  0
 47 68  1  0  0  0  0
 48 74  1  0  0  0  0
 49 67  1  0  0  0  0
 50 66  1  0  0  0  0
 51 58  1  0  0  0  0
 52 61  1  0  0  0  0
 53 62  1  0  0  0  0
 54 62  1  0  0  0  0
 55 62  1  0  0  0  0
 56 76  1  0  0  0  0
 57 86  1  0  0  0  0
 59 63  1  0  0  0  0
 59 73  1  0  0  0  0
 60 62  1  0  0  0  0
 60 75  1  0  0  0  0
 61 76  1  0  0  0  0
 63 89  1  0  0  0  0
 63 90  1  0  0  0  0
 63 91  1  0  0  0  0
 64 66  1  0  0  0  0
M  CHG  1  76   1
M  ISO  4  38 100  57 101  72 100  86 101
M  END
> <Batch ID>
0179

> <Smiles>
CCC(=O)Nc1nc([100NH:0][100C:0](=O)N2CCCC(n3nc(-c4ccc(Oc5ccc(F)cc5F)cc4)c(C(N)=O)c3N)C2)sc1C(=O)NC(C(=O)[101CH2:1][101O:1]c1ccc2c(c1)CN(C(=O)C(NC(=O)C(C)NC)C(C)(C)C)C(C(=O)NC1CCCc3ccccc31)C2)C(F)(F)F

> <Shape>
0.282

> <Color>
0.123

> <Negative vol penalty>
0.000

$$$$

  -OEChem-04052304473D

 84 92  0     1  0  0  0  0  0999 V2000
  -30.2343  -32.4380   25.3581 C   0  0  0  0  0  0  0  0  0  0  0  0
  -29.8723  -31.2715   24.6919 C   0  0  0  0  0  0  0  0  0  0  0  0
  -26.5192   -6.8632   22.4104 C   0  0  0  0  0  0  0  0  0  0  0  0
  -26.4032   -6.5324   20.0199 C   0  0  0  0  0  0  0  0  0  0  0  0
  -29.2542  -33.2358   25.9471 C   0  0  0  0  0  0  0  0  0  0  0  0
  -28.5300  -30.9017   24.6152 C   0  0  0  0  0  0  0  0  0  0  0  0
  -27.1978  -29.3743   19.9744 C   0  0  0  0  0  0  0  0  0  0  0  0
  -25.4979   -5.9302   22.5890 C   0  0  0  0  0  0  0  0  0  0  0  0
  -25.3819   -5.5993   20.1986 C   0  0  0  0  0  0  0  0  0  0  0  0
  -27.5674  -28.0837   19.5983 C   0  0  0  0  0  0  0  0  0  0  0  0
  -22.1303   -5.8406   22.3134 C   0  0  0  0  0  0  0  0  0  0  0  0
  -21.1042   -6.1660   23.2004 C   0  0  0  0  0  0  0  0  0  0  0  0
  -25.3373  -27.3077   20.0918 C   0  0  0  0  0  0  0  0  0  0  0  0
  -21.6453   -4.2278   24.5374 C   0  0  0  0  0  0  0  0  0  0  0  0
  -29.2030  -20.6198   22.9813 C   0  0  0  0  0  0  0  0  0  0  0  0
  -26.9719   -7.1643   21.1258 C   0  0  0  0  0  0  0  0  0  0  0  0
  -29.4113   -7.8778   20.9078 C   0  0  0  0  0  0  0  0  0  0  0  0
  -27.8983  -32.8806   25.8692 C   0  0  0  0  0  0  0  0  0  0  0  0
  -25.8960  -29.6396   20.4231 C   0  0  0  0  0  0  0  0  0  0  0  0
  -27.5310  -31.6949   25.2048 C   0  0  0  0  0  0  0  0  0  0  0  0
  -24.9530  -28.6030   20.4706 C   0  0  0  0  0  0  0  0  0  0  0  0
  -28.5129  -20.4460   21.8018 C   0  0  0  0  0  0  0  0  0  0  0  0
  -24.9292   -5.2982   21.4832 C   0  0  0  0  0  0  0  0  0  0  0  0
  -26.6380  -27.0495   19.6597 C   0  0  0  0  0  0  0  0  0  0  0  0
  -22.9139   -4.7088   22.5383 C   0  0  0  0  0  0  0  0  0  0  0  0
  -20.8617   -5.3596   24.3124 C   0  0  0  0  0  0  0  0  0  0  0  0
  -22.6714   -3.9024   23.6503 C   0  0  0  0  0  0  0  0  0  0  0  0
  -28.2086  -19.0759   21.5566 C   0  0  0  0  0  0  0  0  0  0  0  0
  -28.0265   -8.1285   20.9405 C   0  0  0  0  0  0  0  0  0  0  0  0
  -28.6779  -18.2544   22.5580 C   0  0  0  0  0  0  0  0  0  0  0  0
  -29.9792   -9.1125   20.7086 C   0  0  0  0  0  0  0  0  0  0  0  0
  -28.5722  -16.8516   22.6694 C   0  0  0  0  0  0  0  0  0  0  0  0
  -27.9833  -15.9931   21.7702 C   0  0  0  0  0  0  0  0  0  0  0  0
  -27.5009  -24.9587   20.2551 C   0  0  0  0  0  0  0  0  0  1  0  0
  -30.1210   -6.6396   21.0452 C   0  0  0  0  0  0  0  0  0  0  0  0
  -27.8847  -23.7006   20.0073 C   0  0  0  0  0  0  0  0  0  0  0  0
  -27.9615  -14.5389   22.0260 C   0  0  0  0  0  0  0  0  0  0  0  0
  -28.4250  -22.8698   21.1325 C   0  0  0  0  0  0  0  0  0  0  0  0
  -24.6325  -30.7005   23.1401 C   0  0  0  0  0  0  0  0  0  0  0  0
  -21.8854  -30.6830   21.4151 C   0  0  0  0  0  0  0  0  0  0  0  0
  -20.1343  -29.4281   18.7683 C   0  0  0  0  0  0  0  0  0  0  0  0
  -26.8792  -33.7501   26.5620 C   0  0  0  0  0  0  0  0  0  0  0  0
  -25.5056  -31.0425   20.7998 C   0  0  0  0  0  0  0  0  0  0  0  0
  -23.5369  -28.8395   20.9259 C   0  0  0  0  0  0  0  0  0  0  0  0
  -25.4448  -33.4830   26.1132 C   0  0  0  0  0  0  0  0  0  0  0  0
  -29.1092  -13.3726   18.7466 C   0  0  0  0  0  0  0  0  0  0  0  0
  -25.1658  -31.9837   26.0813 C   0  0  0  0  0  0  0  0  0  0  0  0
  -29.0387  -11.8592   18.9320 C   0  0  0  0  0  0  0  0  0  0  0  0
  -28.0017  -14.0946   19.5126 C   0  0  0  0  0  0  0  0  0  0  0  0
  -27.8884  -12.2371   21.1488 C   0  0  0  0  0  0  0  0  0  0  0  0
  -26.0831  -31.2730   25.0789 C   0  0  1  0  0  0  0  0  0  0  0  0
  -24.2977  -31.0971   21.7300 C   0  0  1  0  0  0  0  0  0  0  0  0
  -29.0219  -11.4939   20.4248 C   0  0  1  0  0  0  0  0  0  0  0  0
  -17.8999  -29.5774   17.6359 C   0  0  0  0  0  0  0  0  0  0  0  0
  -20.6514  -28.9880   23.6319 C   0  0  0  0  0  0  0  0  0  0  0  0
  -18.8070  -28.3862   22.0495 C   0  0  0  0  0  0  0  0  0  0  0  0
  -19.1479  -30.7652   22.7179 C   0  0  0  0  0  0  0  0  0  0  0  0
  -21.3473  -30.3890   16.2455 C   0  0  0  0  0  0  0  0  0  0  0  0
  -20.7983  -29.6707   21.1463 C   0  0  1  0  0  0  0  0  0  0  0  0
  -19.3231  -30.1114   17.6823 C   0  0  2  0  0  0  0  0  0  0  0  0
  -19.8783  -29.4473   22.3796 C   0  0  0  0  0  0  0  0  0  0  0  0
  -27.7323   -9.4209   20.7754 N   0  0  0  0  0  0  0  0  0  0  0  0
  -28.9403   -9.9933   20.6371 N   0  0  0  0  0  0  0  0  0  0  0  0
  -27.9685  -13.6849   20.9246 N   0  0  0  0  0  0  0  0  0  0  0  0
  -23.2053  -30.2270   21.2897 N   0  0  0  0  0  0  0  0  0  0  0  0
  -31.2607   -9.5197   20.5893 N   0  0  0  0  0  0  0  0  0  0  0  0
  -29.3829   -5.4649   21.2444 N   0  0  0  0  0  0  0  0  0  0  0  0
  -28.1579  -21.5199   20.9502 N   0  0  0  0  0  0  0  0  0  0  0  0
  -25.6109  -31.4804   23.7267 N   0  0  0  0  0  0  0  0  0  0  0  0
  -20.0968  -30.1322   19.9532 N   0  0  0  0  0  0  0  0  0  0  0  0
  -19.9518  -29.8902   16.3493 N   0  3  0  0  0  0  0  0  0  0  0  0
  -31.3735   -6.5790   21.0094 O   0  0  0  0  0  0  0  0  0  0  0  0
  -27.9334  -14.1686   23.2010 O   0  0  0  0  0  0  0  0  0  0  0  0
  -29.0216  -23.3897   22.0694 O   0  0  0  0  0  0  0  0  0  0  0  0
  -24.0456  -29.7576   23.6581 O   0  0  0  0  0  0  0  0  0  0  0  0
  -21.5750  -31.8378   21.7181 O   0  0  0  0  0  0  0  0  0  0  0  0
  -20.7378  -28.3732   18.5849 O   0  0  0  0  0  0  0  0  0  0  0  0
  -27.8018  -23.1330   18.7520 O   0  0  0  0  0  0  0  0  0  0  0  0
  -23.9328   -4.3875   21.6572 O   0  0  0  0  0  0  0  0  0  0  0  0
  -26.9963  -25.7888   19.2938 O   0  0  0  0  0  0  0  0  0  1  0  0
  -19.8773   -5.6730   25.1650 F   0  0  0  0  0  0  0  0  0  0  0  0
  -23.4216   -2.8144   23.8723 F   0  0  0  0  0  0  0  0  0  0  0  0
  -27.5464  -18.6418   20.4809 F   0  0  0  0  0  0  0  0  0  0  0  0
  -29.4815  -19.1349   23.7874 S   0  0  0  0  0  0  0  0  0  0  0  0
  1  2  1  0  0  0  0
  1  5  2  0  0  0  0
  2  6  2  0  0  0  0
  3  8  2  0  0  0  0
  3 16  1  0  0  0  0
  4  9  1  0  0  0  0
  4 16  2  0  0  0  0
  5 18  1  0  0  0  0
  6 20  1  0  0  0  0
  7 10  2  0  0  0  0
  7 19  1  0  0  0  0
  8 23  1  0  0  0  0
  9 23  2  0  0  0  0
 10 24  1  0  0  0  0
 11 12  2  0  0  0  0
 11 25  1  0  0  0  0
 12 26  1  0  0  0  0
 13 21  1  0  0  0  0
 13 24  2  0  0  0  0
 14 26  2  0  0  0  0
 14 27  1  0  0  0  0
 15 22  2  0  0  0  0
 15 84  1  0  0  0  0
 16 29  1  0  0  0  0
 17 29  1  0  0  0  0
 17 31  2  0  0  0  0
 17 35  1  0  0  0  0
 18 20  2  0  0  0  0
 18 42  1  0  0  0  0
 19 21  2  0  0  0  0
 19 43  1  0  0  0  0
 20 51  1  0  0  0  0
 21 44  1  0  0  0  0
 22 28  1  0  0  0  0
 22 68  1  0  0  0  0
 23 79  1  0  0  0  0
 24 80  1  0  0  0  0
 25 27  2  0  0  0  0
 25 79  1  0  0  0  0
 26 81  1  0  0  0  0
 27 82  1  0  0  0  0
 28 30  2  0  0  0  0
 28 83  1  0  0  0  0
 29 62  2  0  0  0  0
 30 32  1  0  0  0  0
 30 84  1  0  0  0  0
 31 63  1  0  0  0  0
 31 66  1  0  0  0  0
 32 33  2  0  0  0  0
 33 37  1  0  0  0  0
 34 36  2  0  0  0  0
 34 80  1  0  0  0  0
 35 67  1  0  0  0  0
 35 72  2  0  0  0  0
 36 38  1  0  0  0  0
 36 78  1  0  0  0  0
 37 64  1  0  0  0  0
 37 73  2  0  0  0  0
 38 68  1  0  0  0  0
 38 74  2  0  0  0  0
 39 52  1  0  0  0  0
 39 69  1  0  0  0  0
 39 75  2  0  0  0  0
 40 59  1  0  0  0  0
 40 65  1  0  0  0  0
 40 76  2  0  0  0  0
 41 60  1  0  0  0  0
 41 70  1  0  0  0  0
 41 77  2  0  0  0  0
 42 45  1  0  0  0  0
 43 52  1  0  0  0  0
 44 65  1  0  0  0  0
 45 47  1  0  0  0  0
 46 48  1  0  0  0  0
 46 49  1  0  0  0  0
 47 51  1  0  0  0  0
 48 53  1  0  0  0  0
 49 64  1  0  0  0  0
 50 53  1  0  0  0  0
 50 64  1  0  0  0  0
 51 69  1  0  0  0  0
 52 65  1  0  0  0  0
 53 63  1  0  0  0  0
 54 60  1  0  0  0  0
 55 61  1  0  0  0  0
 56 61  1  0  0  0  0
 57 61  1  0  0  0  0
 58 71  1  0  0  0  0
 59 61  1  0  0  0  0
 59 70  1  0  0  0  0
 60 71  1  0  0  0  0
 62 63  1  0  0  0  0
M  CHG  1  71   1
M  ISO  4  33 100  34 101  37 100  80 101
M  END
> <Batch ID>
0179

> <Smiles>
CNC(C)C(=O)NC(C(=O)N1Cc2cc([101O:1][101CH2:1]C(=O)C(=O)Nc3csc(C=[100CH:0][100C:0](=O)N4CCCC(n5nc(-c6ccc(Oc7ccc(F)cc7F)cc6)c(C(N)=O)c5N)C4)c3F)ccc2CC1C(=O)NC1CCCc2ccccc21)C(C)(C)C

> <Shape>
0.261

> <Color>
0.071

> <Negative vol penalty>
0.000

$$$$

  -OEChem-04052304473D

 85 93  0     1  0  0  0  0  0999 V2000
  -28.7936  -35.0582   25.2394 C   0  0  0  0  0  0  0  0  0  0  0  0
  -29.0243  -33.8390   24.6103 C   0  0  0  0  0  0  0  0  0  0  0  0
  -23.0215   -9.9705   20.9462 C   0  0  0  0  0  0  0  0  0  0  0  0
  -23.7544  -10.6354   23.1503 C   0  0  0  0  0  0  0  0  0  0  0  0
  -27.5468  -35.3256   25.8031 C   0  0  0  0  0  0  0  0  0  0  0  0
  -28.0084  -32.8859   24.5456 C   0  0  0  0  0  0  0  0  0  0  0  0
  -26.9321  -28.9572   19.9725 C   0  0  0  0  0  0  0  0  0  0  0  0
  -22.2580   -8.9476   21.5087 C   0  0  0  0  0  0  0  0  0  0  0  0
  -22.9908   -9.6125   23.7127 C   0  0  0  0  0  0  0  0  0  0  0  0
  -27.2605  -27.6142   19.7929 C   0  0  0  0  0  0  0  0  0  0  0  0
  -19.2815   -8.6384   23.0828 C   0  0  0  0  0  0  0  0  0  0  0  0
  -17.9799   -8.4670   22.6117 C   0  0  0  0  0  0  0  0  0  0  0  0
  -25.0815  -26.9784   20.6094 C   0  0  0  0  0  0  0  0  0  0  0  0
  -18.5266   -6.2178   21.9194 C   0  0  0  0  0  0  0  0  0  0  0  0
  -23.7698  -10.8143   21.7670 C   0  0  0  0  0  0  0  0  0  0  0  0
  -24.1500  -13.1919   20.9243 C   0  0  0  0  0  0  0  0  0  0  0  0
  -26.5122  -34.3791   25.7368 C   0  0  0  0  0  0  0  0  0  0  0  0
  -25.6778  -29.3211   20.4831 C   0  0  0  0  0  0  0  0  0  0  0  0
  -26.7470  -33.1404   25.1101 C   0  0  0  0  0  0  0  0  0  0  0  0
  -24.7387  -28.3268   20.7922 C   0  0  0  0  0  0  0  0  0  0  0  0
  -22.2426   -8.7687   22.8919 C   0  0  0  0  0  0  0  0  0  0  0  0
  -26.3362  -26.6244   20.1140 C   0  0  0  0  0  0  0  0  0  0  0  0
  -20.2057   -7.5994   22.9722 C   0  0  0  0  0  0  0  0  0  0  0  0
  -17.6024   -7.2567   22.0300 C   0  0  0  0  0  0  0  0  0  0  0  0
  -19.8282   -6.3892   22.3905 C   0  0  0  0  0  0  0  0  0  0  0  0
  -24.5593  -11.8707   21.1866 C   0  0  0  0  0  0  0  0  0  0  0  0
  -30.7546  -19.6034   21.3082 C   0  0  0  0  0  0  0  0  0  0  0  0
  -31.8592  -19.0239   20.7197 C   0  0  0  0  0  0  0  0  0  0  0  0
  -25.2572  -13.7919   20.3760 C   0  0  0  0  0  0  0  0  0  0  0  0
  -30.5986  -17.2370   20.8860 C   0  0  0  0  0  0  0  0  0  0  0  0
  -27.7267  -24.8146   20.6256 C   0  0  0  0  0  0  0  0  0  1  0  0
  -22.8824  -13.8206   21.1556 C   0  0  0  0  0  0  0  0  0  0  0  0
  -30.6032  -21.0281   21.6677 C   0  0  0  0  0  0  0  0  0  0  0  0
  -28.1286  -23.5423   20.5306 C   0  0  0  0  0  0  0  0  0  0  0  0
  -29.3069  -23.1134   21.3204 C   0  0  0  0  0  0  0  0  0  0  0  0
  -24.6717  -30.8560   23.0784 C   0  0  0  0  0  0  0  0  0  0  0  0
  -21.7787  -30.5980   21.6340 C   0  0  0  0  0  0  0  0  0  0  0  0
  -19.7884  -28.9436   19.4095 C   0  0  0  0  0  0  0  0  0  0  0  0
  -30.7358  -14.7850   20.3245 C   0  0  0  0  0  0  0  0  0  0  0  0
  -25.1960  -34.6947   26.4022 C   0  0  0  0  0  0  0  0  0  0  0  0
  -25.3292  -30.7752   20.6459 C   0  0  0  0  0  0  0  0  0  0  0  0
  -23.3710  -28.6656   21.3243 C   0  0  0  0  0  0  0  0  0  0  0  0
  -24.0562  -33.7794   25.9623 C   0  0  0  0  0  0  0  0  0  0  0  0
  -29.6140  -11.7993   18.7419 C   0  0  0  0  0  0  0  0  0  0  0  0
  -24.5058  -32.3218   25.9777 C   0  0  0  0  0  0  0  0  0  0  0  0
  -28.1652  -11.6604   19.2153 C   0  0  0  0  0  0  0  0  0  0  0  0
  -30.5181  -12.3575   19.8394 C   0  0  0  0  0  0  0  0  0  0  0  0
  -28.6059  -13.4722   20.9212 C   0  0  0  0  0  0  0  0  0  0  0  0
  -25.6625  -32.0909   24.9979 C   0  0  1  0  0  0  0  0  0  0  0  0
  -24.2113  -31.0121   21.6567 C   0  0  1  0  0  0  0  0  0  0  0  0
  -27.6446  -12.9747   19.8294 C   0  0  2  0  0  0  0  0  0  0  0  0
  -17.4606  -28.9411   18.4720 C   0  0  0  0  0  0  0  0  0  0  0  0
  -20.7450  -29.3320   24.2106 C   0  0  0  0  0  0  0  0  0  0  0  0
  -18.7614  -28.5050   22.9262 C   0  0  0  0  0  0  0  0  0  0  0  0
  -19.1718  -30.9561   23.1419 C   0  0  0  0  0  0  0  0  0  0  0  0
  -20.7702  -29.4345   16.6611 C   0  0  0  0  0  0  0  0  0  0  0  0
  -20.6674  -29.5763   21.6415 C   0  0  1  0  0  0  0  0  0  0  0  0
  -18.8843  -29.4469   18.2988 C   0  0  2  0  0  0  0  0  0  0  0  0
  -19.8628  -29.5856   22.9718 C   0  0  0  0  0  0  0  0  0  0  0  0
  -25.8274  -11.6441   20.8338 N   0  0  0  0  0  0  0  0  0  0  0  0
  -31.7716  -17.6670   20.4772 N   0  0  0  0  0  0  0  0  0  0  0  0
  -26.2246  -12.8309   20.3442 N   0  0  0  0  0  0  0  0  0  0  0  0
  -23.0798  -30.1012   21.4719 N   0  0  0  0  0  0  0  0  0  0  0  0
  -29.9641  -13.6047   20.3710 N   0  0  0  0  0  0  0  0  0  0  0  0
  -32.9826  -19.7026   20.3828 N   0  0  0  0  0  0  0  0  0  0  0  0
  -25.4880  -15.0424   19.9228 N   0  0  0  0  0  0  0  0  0  0  0  0
  -21.8534  -13.0594   21.7266 N   0  0  0  0  0  0  0  0  0  0  0  0
  -30.0925  -15.9147   20.8290 N   0  0  0  0  0  0  0  0  0  0  0  0
  -29.6032  -21.7193   21.1028 N   0  0  0  0  0  0  0  0  0  0  0  0
  -25.1675  -32.0172   23.6399 N   0  0  0  0  0  0  0  0  0  0  0  0
  -19.8619  -29.8407   20.4541 N   0  0  0  0  0  0  0  0  0  0  0  0
  -31.4712  -21.5444   22.5372 N   0  3  0  0  0  0  0  0  0  0  0  0
  -19.3879  -28.9885   16.9732 N   0  3  0  0  0  0  0  0  0  0  0  0
  -22.6635  -15.0172   20.8495 O   0  0  0  0  0  0  0  0  0  0  0  0
  -29.9651  -23.8184   22.0677 O   0  0  0  0  0  0  0  0  0  0  0  0
  -24.5824  -29.7633   23.6259 O   0  0  0  0  0  0  0  0  0  0  0  0
  -21.5020  -31.7935   21.7600 O   0  0  0  0  0  0  0  0  0  0  0  0
  -20.3681  -27.8612   19.3575 O   0  0  0  0  0  0  0  0  0  0  0  0
  -31.8726  -14.7986   19.8456 O   0  0  0  0  0  0  0  0  0  0  0  0
  -27.4986  -22.6126   19.7328 O   0  0  0  0  0  0  0  0  0  0  0  0
  -21.4974   -7.7709   23.4411 O   0  0  0  0  0  0  0  0  0  0  0  0
  -26.6544  -25.3128   19.9403 O   0  0  0  0  0  0  0  0  0  1  0  0
  -16.3519   -7.0918   21.5790 F   0  0  0  0  0  0  0  0  0  0  0  0
  -20.7114   -5.3870   22.2826 F   0  0  0  0  0  0  0  0  0  0  0  0
  -29.5508  -18.4106   21.5714 S   0  0  0  0  0  0  0  0  0  0  0  0
  1  2  1  0  0  0  0
  1  5  2  0  0  0  0
  2  6  2  0  0  0  0
  3  8  2  0  0  0  0
  3 15  1  0  0  0  0
  4  9  1  0  0  0  0
  4 15  2  0  0  0  0
  5 17  1  0  0  0  0
  6 19  1  0  0  0  0
  7 10  2  0  0  0  0
  7 18  1  0  0  0  0
  8 21  1  0  0  0  0
  9 21  2  0  0  0  0
 10 22  1  0  0  0  0
 11 12  2  0  0  0  0
 11 23  1  0  0  0  0
 12 24  1  0  0  0  0
 13 20  1  0  0  0  0
 13 22  2  0  0  0  0
 14 24  2  0  0  0  0
 14 25  1  0  0  0  0
 15 26  1  0  0  0  0
 16 26  1  0  0  0  0
 16 29  2  0  0  0  0
 16 32  1  0  0  0  0
 17 19  2  0  0  0  0
 17 40  1  0  0  0  0
 18 20  2  0  0  0  0
 18 41  1  0  0  0  0
 19 49  1  0  0  0  0
 20 42  1  0  0  0  0
 21 81  1  0  0  0  0
 22 82  1  0  0  0  0
 23 25  2  0  0  0  0
 23 81  1  0  0  0  0
 24 83  1  0  0  0  0
 25 84  1  0  0  0  0
 26 60  2  0  0  0  0
 27 28  2  0  0  0  0
 27 33  1  0  0  0  0
 27 85  1  0  0  0  0
 28 61  1  0  0  0  0
 28 65  1  0  0  0  0
 29 62  1  0  0  0  0
 29 66  1  0  0  0  0
 30 61  2  0  0  0  0
 30 68  1  0  0  0  0
 30 85  1  0  0  0  0
 31 34  2  0  0  0  0
 31 82  1  0  0  0  0
 32 67  1  0  0  0  0
 32 74  2  0  0  0  0
 33 69  1  0  0  0  0
 33 72  2  0  0  0  0
 34 35  1  0  0  0  0
 34 80  1  0  0  0  0
 35 69  1  0  0  0  0
 35 75  2  0  0  0  0
 36 50  1  0  0  0  0
 36 70  1  0  0  0  0
 36 76  2  0  0  0  0
 37 57  1  0  0  0  0
 37 63  1  0  0  0  0
 37 77  2  0  0  0  0
 38 58  1  0  0  0  0
 38 71  1  0  0  0  0
 38 78  2  0  0  0  0
 39 64  1  0  0  0  0
 39 68  1  0  0  0  0
 39 79  2  0  0  0  0
 40 43  1  0  0  0  0
 41 50  1  0  0  0  0
 42 63  1  0  0  0  0
 43 45  1  0  0  0  0
 44 46  1  0  0  0  0
 44 47  1  0  0  0  0
 45 49  1  0  0  0  0
 46 51  1  0  0  0  0
 47 64  1  0  0  0  0
 48 51  1  0  0  0  0
 48 64  1  0  0  0  0
 49 70  1  0  0  0  0
 50 63  1  0  0  0  0
 51 62  1  0  0  0  0
 52 58  1  0  0  0  0
 53 59  1  0  0  0  0
 54 59  1  0  0  0  0
 55 59  1  0  0  0  0
 56 73  1  0  0  0  0
 57 59  1  0  0  0  0
 57 71  1  0  0  0  0
 58 73  1  0  0  0  0
 60 62  1  0  0  0  0
M  CHG  2  72   1  73   1
M  ISO  4  31 101  39 100  68 100  82 101
M  END
> <Batch ID>
0179

> <Smiles>
CNC(C)C(=O)NC(C(=O)N1Cc2cc([101O:1][101CH2:1]C(=O)C(=O)NC(=N)c3sc([100NH:0][100C:0](=O)N4CCCC(n5nc(-c6ccc(Oc7ccc(F)cc7F)cc6)c(C(N)=O)c5N)C4)nc3N)ccc2CC1C(=O)NC1CCCc2ccccc21)C(C)(C)C

> <Shape>
0.329

> <Color>
0.172

> <Negative vol penalty>
0.000

$$$$

  -OEChem-04052304473D

 83 91  0     1  0  0  0  0  0999 V2000
  -29.1646  -10.0657   16.5426 C   0  0  0  0  0  0  0  0  0  0  0  0
  -28.2154  -10.9878   16.1133 C   0  0  0  0  0  0  0  0  0  0  0  0
  -25.7173  -29.8811   24.6330 C   0  0  0  0  0  0  0  0  0  0  0  0
  -26.3016  -27.9679   23.2782 C   0  0  0  0  0  0  0  0  0  0  0  0
  -29.7659  -10.2161   17.7914 C   0  0  0  0  0  0  0  0  0  0  0  0
  -27.8662  -12.0602   16.9332 C   0  0  0  0  0  0  0  0  0  0  0  0
  -26.3565  -17.7205   15.1476 C   0  0  0  0  0  0  0  0  0  0  0  0
  -26.8472  -29.6673   25.4224 C   0  0  0  0  0  0  0  0  0  0  0  0
  -27.4316  -27.7541   24.0676 C   0  0  0  0  0  0  0  0  0  0  0  0
  -25.1258  -18.3504   14.9679 C   0  0  0  0  0  0  0  0  0  0  0  0
  -30.5376  -29.0506   24.3713 C   0  0  0  0  0  0  0  0  0  0  0  0
  -31.7397  -28.7770   23.7189 C   0  0  0  0  0  0  0  0  0  0  0  0
  -18.4391  -21.9688   19.4640 C   0  0  0  0  0  0  0  0  0  0  0  0
  -18.2330  -23.1016   20.3033 C   0  0  0  0  0  0  0  0  0  0  0  0
  -25.2894  -19.2891   17.1840 C   0  0  0  0  0  0  0  0  0  0  0  0
  -31.8688  -26.6462   24.8506 C   0  0  0  0  0  0  0  0  0  0  0  0
  -25.4445  -29.0314   23.5609 C   0  0  0  0  0  0  0  0  0  0  0  0
  -24.1874  -30.0448   21.5860 C   0  0  0  0  0  0  0  0  0  0  0  0
  -29.4310  -11.2963   18.6230 C   0  0  0  0  0  0  0  0  0  0  0  0
  -27.0590  -17.8615   16.3530 C   0  0  0  0  0  0  0  0  0  0  0  0
  -28.4626  -12.2245   18.1950 C   0  0  0  0  0  0  0  0  0  0  0  0
  -26.5301  -18.6620   17.3755 C   0  0  0  0  0  0  0  0  0  0  0  0
  -27.7044  -28.6038   25.1397 C   0  0  0  0  0  0  0  0  0  0  0  0
  -24.5907  -19.1325   15.9872 C   0  0  0  0  0  0  0  0  0  0  0  0
  -30.0011  -28.1221   25.2634 C   0  0  0  0  0  0  0  0  0  0  0  0
  -32.4053  -27.5748   23.9585 C   0  0  0  0  0  0  0  0  0  0  0  0
  -30.6666  -26.9200   25.5030 C   0  0  0  0  0  0  0  0  0  0  0  0
  -24.2771  -29.2514   22.7454 C   0  0  0  0  0  0  0  0  0  0  0  0
  -22.8781  -29.9252   21.1886 C   0  0  0  0  0  0  0  0  0  0  0  0
  -19.7565  -21.8402   19.0825 C   0  0  0  0  0  0  0  0  0  0  0  0
  -19.4010  -23.7957   20.5315 C   0  0  0  0  0  0  0  0  0  0  0  0
  -25.1972  -30.8204   20.9270 C   0  0  0  0  0  0  0  0  0  0  0  0
  -20.7924  -18.9917   16.8531 C   0  0  0  0  0  0  0  0  0  0  0  0
  -19.8015  -19.8029   17.6369 C   0  0  0  0  0  0  0  0  0  0  0  0
  -28.0281  -15.8678   18.6311 C   0  0  0  0  0  0  0  0  0  0  0  0
  -29.4964  -18.5198   19.7857 C   0  0  0  0  0  0  0  0  0  0  0  0
  -29.6178  -21.9267   19.9457 C   0  0  0  0  0  0  0  0  0  0  0  0
  -18.7271  -25.7091   22.0251 C   0  0  0  0  0  0  0  0  0  0  0  0
  -30.0732  -11.3908   19.9844 C   0  0  0  0  0  0  0  0  0  0  0  0
  -28.3979  -17.1972   16.5211 C   0  0  0  0  0  0  0  0  0  0  0  0
  -27.2541  -18.8619   18.6810 C   0  0  0  0  0  0  0  0  0  0  0  0
  -29.9217  -12.7632   20.6354 C   0  0  0  0  0  0  0  0  0  0  0  0
  -18.4899  -29.1420   22.9393 C   0  0  0  0  0  0  0  0  0  0  0  0
  -28.4828  -13.2552   20.5151 C   0  0  0  0  0  0  0  0  0  0  0  0
  -19.9382  -29.6334   22.8819 C   0  0  0  0  0  0  0  0  0  0  0  0
  -18.3973  -27.7096   23.4619 C   0  0  0  0  0  0  0  0  0  0  0  0
  -20.6902  -27.2275   22.7007 C   0  0  0  0  0  0  0  0  0  0  0  0
  -28.0755  -13.4149   19.0454 C   0  0  1  0  0  0  0  0  0  0  0  0
  -28.7842  -16.9928   17.9828 C   0  0  1  0  0  0  0  0  0  0  0  0
  -20.8395  -28.6428   22.1192 C   0  0  2  0  0  0  0  0  0  0  0  0
  -30.9066  -23.8046   20.9992 C   0  0  0  0  0  0  0  0  0  0  0  0
  -28.1026  -17.9809   22.4459 C   0  0  0  0  0  0  0  0  0  0  0  0
  -28.6443  -20.3288   23.1258 C   0  0  0  0  0  0  0  0  0  0  0  0
  -30.4849  -18.7148   22.6463 C   0  0  0  0  0  0  0  0  0  0  0  0
  -30.4266  -23.0043   17.3107 C   0  0  0  0  0  0  0  0  0  0  0  0
  -21.0360  -19.4265   15.4246 C   0  0  0  0  0  0  0  0  0  0  0  0
  -22.4473  -19.1048   14.9570 C   0  0  0  0  0  0  0  0  0  1  0  0
  -29.1089  -19.6297   20.7328 C   0  0  1  0  0  0  0  0  0  0  0  0
  -30.7693  -22.9023   19.7827 C   0  0  2  0  0  0  0  0  0  0  0  0
  -29.0703  -19.1584   22.2140 C   0  0  0  0  0  0  0  0  0  0  0  0
  -23.1172  -28.6709   23.0641 N   0  0  0  0  0  0  0  0  0  0  0  0
  -22.2862  -29.0999   22.0990 N   0  0  0  0  0  0  0  0  0  0  0  0
  -28.5569  -18.1866   18.7997 N   0  0  0  0  0  0  0  0  0  0  0  0
  -19.2744  -26.8274   22.6890 N   0  0  0  0  0  0  0  0  0  0  0  0
  -22.1868  -30.4466   20.1529 N   0  0  0  0  0  0  0  0  0  0  0  0
  -26.4898  -30.8327   21.4686 N   0  0  0  0  0  0  0  0  0  0  0  0
  -20.3935  -20.8763   18.2667 N   0  0  0  0  0  0  0  0  0  0  0  0
  -19.6516  -24.9624   21.2954 N   0  0  0  0  0  0  0  0  0  0  0  0
  -28.6323  -14.6325   18.4960 N   0  0  0  0  0  0  0  0  0  0  0  0
  -30.0372  -20.7260   20.4785 N   0  0  0  0  0  0  0  0  0  0  0  0
  -30.5554  -23.7602   18.5831 N   0  3  0  0  0  0  0  0  0  0  0  0
  -24.9564  -31.4961   19.8980 O   0  0  0  0  0  0  0  0  0  0  0  0
  -21.3300  -18.0573   17.4280 O   0  0  0  0  0  0  0  0  0  0  0  0
  -18.6392  -19.4351   17.5945 O   0  0  0  0  0  0  0  0  0  0  0  0
  -26.9752  -16.1034   19.2122 O   0  0  0  0  0  0  0  0  0  0  0  0
  -30.5953  -17.9736   19.9115 O   0  0  0  0  0  0  0  0  0  0  0  0
  -28.4613  -22.2033   19.6353 O   0  0  0  0  0  0  0  0  0  0  0  0
  -17.5221  -25.4497   22.0762 O   0  0  0  0  0  0  0  0  0  0  0  0
  -28.8071  -28.3950   25.9097 O   0  0  0  0  0  0  0  0  0  0  0  0
  -23.3893  -19.7479   15.8146 O   0  0  0  0  0  0  0  0  0  1  0  0
  -33.5589  -27.3114   23.3308 F   0  0  0  0  0  0  0  0  0  0  0  0
  -30.1555  -26.0236   26.3580 F   0  0  0  0  0  0  0  0  0  0  0  0
  -20.7385  -23.0819   19.7354 S   0  0  0  0  0  0  0  0  0  0  0  0
  1  2  1  0  0  0  0
  1  5  2  0  0  0  0
  2  6  2  0  0  0  0
  3  8  2  0  0  0  0
  3 17  1  0  0  0  0
  4  9  1  0  0  0  0
  4 17  2  0  0  0  0
  5 19  1  0  0  0  0
  6 21  1  0  0  0  0
  7 10  2  0  0  0  0
  7 20  1  0  0  0  0
  8 23  1  0  0  0  0
  9 23  2  0  0  0  0
 10 24  1  0  0  0  0
 11 12  2  0  0  0  0
 11 25  1  0  0  0  0
 12 26  1  0  0  0  0
 13 14  1  0  0  0  0
 13 30  2  0  0  0  0
 14 31  2  0  0  0  0
 15 22  1  0  0  0  0
 15 24  2  0  0  0  0
 16 26  2  0  0  0  0
 16 27  1  0  0  0  0
 17 28  1  0  0  0  0
 18 28  1  0  0  0  0
 18 29  2  0  0  0  0
 18 32  1  0  0  0  0
 19 21  2  0  0  0  0
 19 39  1  0  0  0  0
 20 22  2  0  0  0  0
 20 40  1  0  0  0  0
 21 48  1  0  0  0  0
 22 41  1  0  0  0  0
 23 79  1  0  0  0  0
 24 80  1  0  0  0  0
 25 27  2  0  0  0  0
 25 79  1  0  0  0  0
 26 81  1  0  0  0  0
 27 82  1  0  0  0  0
 28 61  2  0  0  0  0
 29 62  1  0  0  0  0
 29 65  1  0  0  0  0
 30 67  1  0  0  0  0
 30 83  1  0  0  0  0
 31 68  1  0  0  0  0
 31 83  1  0  0  0  0
 32 66  1  0  0  0  0
 32 72  2  0  0  0  0
 33 34  1  0  0  0  0
 33 56  1  0  0  0  0
 33 73  2  0  0  0  0
 34 67  1  0  0  0  0
 34 74  2  0  0  0  0
 35 49  1  0  0  0  0
 35 69  1  0  0  0  0
 35 75  2  0  0  0  0
 36 58  1  0  0  0  0
 36 63  1  0  0  0  0
 36 76  2  0  0  0  0
 37 59  1  0  0  0  0
 37 70  1  0  0  0  0
 37 77  2  0  0  0  0
 38 64  1  0  0  0  0
 38 68  1  0  0  0  0
 38 78  2  0  0  0  0
 39 42  1  0  0  0  0
 40 49  1  0  0  0  0
 41 63  1  0  0  0  0
 42 44  1  0  0  0  0
 43 45  1  0  0  0  0
 43 46  1  0  0  0  0
 44 48  1  0  0  0  0
 45 50  1  0  0  0  0
 46 64  1  0  0  0  0
 47 50  1  0  0  0  0
 47 64  1  0  0  0  0
 48 69  1  0  0  0  0
 49 63  1  0  0  0  0
 50 62  1  0  0  0  0
 51 59  1  0  0  0  0
 52 60  1  0  0  0  0
 53 60  1  0  0  0  0
 54 60  1  0  0  0  0
 55 71  1  0  0  0  0
 56 57  1  0  0  0  0
 57 80  1  0  0  0  0
 58 60  1  0  0  0  0
 58 70  1  0  0  0  0
 59 71  1  0  0  0  0
 61 62  1  0  0  0  0
M  CHG  1  71   1
M  ISO  4  38 100  57 101  68 100  80 101
M  END
> <Batch ID>
0179

> <Smiles>
CNC(C)C(=O)NC(C(=O)N1Cc2cc([101O:1][101CH2:1]CC(=O)C(=O)Nc3ccc([100NH:0][100C:0](=O)N4CCCC(n5nc(-c6ccc(Oc7ccc(F)cc7F)cc6)c(C(N)=O)c5N)C4)s3)ccc2CC1C(=O)NC1CCCc2ccccc21)C(C)(C)C

> <Shape>
0.229

> <Color>
0.065

> <Negative vol penalty>
0.000

$$$$

  -OEChem-04052304473D

 88 96  0     1  0  0  0  0  0999 V2000
  -29.4459  -32.9837   27.0140 C   0  0  0  0  0  0  0  0  0  0  0  0
  -28.8522  -31.8907   26.3909 C   0  0  0  0  0  0  0  0  0  0  0  0
  -24.6360   -8.8160   21.4432 C   0  0  0  0  0  0  0  0  0  0  0  0
  -23.1841  -10.7429   21.3167 C   0  0  0  0  0  0  0  0  0  0  0  0
  -28.7226  -34.1628   27.1886 C   0  0  0  0  0  0  0  0  0  0  0  0
  -27.5345  -31.9758   25.9429 C   0  0  0  0  0  0  0  0  0  0  0  0
  -26.9335  -30.0507   21.2977 C   0  0  0  0  0  0  0  0  0  0  0  0
  -23.8302   -8.2746   22.4448 C   0  0  0  0  0  0  0  0  0  0  0  0
  -22.3782  -10.2014   22.3182 C   0  0  0  0  0  0  0  0  0  0  0  0
  -26.8739  -28.6622   21.1867 C   0  0  0  0  0  0  0  0  0  0  0  0
  -21.9542   -6.2168   24.7817 C   0  0  0  0  0  0  0  0  0  0  0  0
  -21.6233   -4.8650   24.6879 C   0  0  0  0  0  0  0  0  0  0  0  0
  -24.4687  -28.7827   21.0463 C   0  0  0  0  0  0  0  0  0  0  0  0
  -20.5534   -5.2746   22.5607 C   0  0  0  0  0  0  0  0  0  0  0  0
  -24.3130  -10.0502   20.8792 C   0  0  0  0  0  0  0  0  0  0  0  0
  -25.0170  -10.4226   18.4557 C   0  0  0  0  0  0  0  0  0  0  0  0
  -27.3985  -34.2656   26.7339 C   0  0  0  0  0  0  0  0  0  0  0  0
  -25.7585  -30.8160   21.2948 C   0  0  0  0  0  0  0  0  0  0  0  0
  -26.7923  -33.1569   26.1128 C   0  0  0  0  0  0  0  0  0  0  0  0
  -24.5163  -30.1809   21.1548 C   0  0  0  0  0  0  0  0  0  0  0  0
  -22.7013   -8.9672   22.8823 C   0  0  0  0  0  0  0  0  0  0  0  0
  -25.6413  -28.0277   21.0639 C   0  0  0  0  0  0  0  0  0  0  0  0
  -21.5847   -7.0975   23.7651 C   0  0  0  0  0  0  0  0  0  0  0  0
  -20.9230   -4.3939   23.5774 C   0  0  0  0  0  0  0  0  0  0  0  0
  -20.8843   -6.6264   22.6546 C   0  0  0  0  0  0  0  0  0  0  0  0
  -28.2951  -19.0061   19.4996 C   0  0  0  0  0  0  0  0  0  0  0  0
  -25.1453  -10.6103   19.8450 C   0  0  0  0  0  0  0  0  0  0  0  0
  -27.4698  -20.1593   19.3674 C   0  0  0  0  0  0  0  0  0  0  0  0
  -26.0412  -11.1598   17.9136 C   0  0  0  0  0  0  0  0  0  0  0  0
  -27.5150  -17.8744   19.5974 C   0  0  0  0  0  0  0  0  0  0  0  0
  -24.0577   -9.6509   17.7210 C   0  0  0  0  0  0  0  0  0  0  0  0
  -27.9709  -21.5519   19.2382 C   0  0  0  0  0  0  0  0  0  0  0  0
  -24.3485  -32.7691   23.3687 C   0  0  0  0  0  0  0  0  0  0  0  0
  -26.2414  -24.7387   19.6560 C   0  0  0  0  0  0  0  0  0  0  0  0
  -22.3208  -33.3018   20.8933 C   0  0  0  0  0  0  0  0  0  0  0  0
  -20.9493  -32.1765   17.9780 C   0  0  0  0  0  0  0  0  0  0  0  0
  -29.0961  -15.9264   19.8249 C   0  0  0  0  0  0  0  0  0  0  0  0
  -26.6412  -35.5450   26.9875 C   0  0  0  0  0  0  0  0  0  0  0  0
  -25.8414  -32.3149   21.3885 C   0  0  0  0  0  0  0  0  0  0  0  0
  -23.2268  -30.9586   21.1259 C   0  0  0  0  0  0  0  0  0  0  0  0
  -25.3728  -35.6785   26.1486 C   0  0  0  0  0  0  0  0  0  0  0  0
  -30.4429  -12.7583   18.9158 C   0  0  0  0  0  0  0  0  0  0  0  0
  -24.5698  -34.3821   26.1850 C   0  0  0  0  0  0  0  0  0  0  0  0
  -29.2246  -11.8321   18.9186 C   0  0  0  0  0  0  0  0  0  0  0  0
  -30.3658  -13.8002   20.0304 C   0  0  0  0  0  0  0  0  0  0  0  0
  -27.9065  -13.6586   20.0648 C   0  0  0  0  0  0  0  0  0  0  0  0
  -25.3732  -33.2188   25.5910 C   0  0  1  0  0  0  0  0  0  0  0  0
  -24.5508  -32.9544   21.8914 C   0  0  1  0  0  0  0  0  0  0  0  0
  -27.9078  -12.6331   18.9193 C   0  0  2  0  0  0  0  0  0  0  0  0
  -19.2936  -32.8161   16.2040 C   0  0  0  0  0  0  0  0  0  0  0  0
  -20.0296  -32.6025   22.7830 C   0  0  0  0  0  0  0  0  0  0  0  0
  -18.5532  -32.3290   20.7796 C   0  0  0  0  0  0  0  0  0  0  0  0
  -19.5818  -34.5468   21.2753 C   0  0  0  0  0  0  0  0  0  0  0  0
  -23.0232  -32.1431   15.8669 C   0  0  0  0  0  0  0  0  0  0  0  0
  -26.6864  -26.0200   20.3340 C   0  0  0  0  0  0  0  0  0  1  0  0
  -27.3300  -23.9329   18.9624 C   0  0  2  0  0  0  0  0  0  0  0  0
  -21.0382  -32.6713   20.4073 C   0  0  1  0  0  0  0  0  0  0  0  0
  -20.7527  -32.8495   16.6316 C   0  0  2  0  0  0  0  0  0  0  0  0
  -19.8247  -33.0223   21.3138 C   0  0  0  0  0  0  0  0  0  0  0  0
  -27.4407  -24.3244   17.5055 C   0  0  0  0  0  0  0  0  0  0  0  0
  -26.1704  -11.4044   20.1655 N   0  0  0  0  0  0  0  0  0  0  0  0
  -26.1527  -19.9681   19.3594 N   0  0  0  0  0  0  0  0  0  0  0  0
  -26.6955  -11.7221   18.9700 N   0  0  0  0  0  0  0  0  0  0  0  0
  -23.3597  -32.4213   21.2271 N   0  0  0  0  0  0  0  0  0  0  0  0
  -29.0934  -14.5225   19.9657 N   0  0  0  0  0  0  0  0  0  0  0  0
  -26.4371  -11.3754   16.6411 N   0  0  0  0  0  0  0  0  0  0  0  0
  -23.0726   -8.9546   18.4346 N   0  0  0  0  0  0  0  0  0  0  0  0
  -27.8278  -16.5000   19.7417 N   0  0  0  0  0  0  0  0  0  0  0  0
  -27.0021  -22.5402   19.1196 N   0  0  0  0  0  0  0  0  0  0  0  0
  -25.3675  -33.2867   24.1454 N   0  0  0  0  0  0  0  0  0  0  0  0
  -20.8832  -33.0817   19.0160 N   0  0  0  0  0  0  0  0  0  0  0  0
  -21.5644  -32.1641   15.5865 N   0  3  0  0  0  0  0  0  0  0  0  0
  -24.0835   -9.5677   16.4696 O   0  0  0  0  0  0  0  0  0  0  0  0
  -29.1821  -21.7546   19.2221 O   0  0  0  0  0  0  0  0  0  0  0  0
  -23.3417  -32.2001   23.7739 O   0  0  0  0  0  0  0  0  0  0  0  0
  -25.0609  -24.3891   19.6431 O   0  0  0  0  0  0  0  0  0  0  0  0
  -22.4006  -34.5306   20.9671 O   0  0  0  0  0  0  0  0  0  0  0  0
  -21.1386  -30.9680   18.0973 O   0  0  0  0  0  0  0  0  0  0  0  0
  -30.1465  -16.5695   19.7539 O   0  0  0  0  0  0  0  0  0  0  0  0
  -21.9146   -8.4391   23.8594 O   0  0  0  0  0  0  0  0  0  0  0  0
  -25.5802  -26.6725   20.9561 O   0  0  0  0  0  0  0  0  0  1  0  0
  -20.6066   -3.0955   23.4867 F   0  0  0  0  0  0  0  0  0  0  0  0
  -20.5276   -7.4675   21.6742 F   0  0  0  0  0  0  0  0  0  0  0  0
  -29.6283  -19.0179   19.5254 F   0  0  0  0  0  0  0  0  0  0  0  0
  -28.3821  -23.5889   16.8738 F   0  0  0  0  0  0  0  0  0  0  0  0
  -27.7658  -25.6265   17.3573 F   0  0  0  0  0  0  0  0  0  0  0  0
  -26.2701  -24.1166   16.8612 F   0  0  0  0  0  0  0  0  0  0  0  0
  -25.8682  -18.3383   19.5172 S   0  0  0  0  0  0  0  0  0  0  0  0
  1  2  1  0  0  0  0
  1  5  2  0  0  0  0
  2  6  2  0  0  0  0
  3  8  2  0  0  0  0
  3 15  1  0  0  0  0
  4  9  1  0  0  0  0
  4 15  2  0  0  0  0
  5 17  1  0  0  0  0
  6 19  1  0  0  0  0
  7 10  2  0  0  0  0
  7 18  1  0  0  0  0
  8 21  1  0  0  0  0
  9 21  2  0  0  0  0
 10 22  1  0  0  0  0
 11 12  2  0  0  0  0
 11 23  1  0  0  0  0
 12 24  1  0  0  0  0
 13 20  1  0  0  0  0
 13 22  2  0  0  0  0
 14 24  2  0  0  0  0
 14 25  1  0  0  0  0
 15 27  1  0  0  0  0
 16 27  1  0  0  0  0
 16 29  2  0  0  0  0
 16 31  1  0  0  0  0
 17 19  2  0  0  0  0
 17 38  1  0  0  0  0
 18 20  2  0  0  0  0
 18 39  1  0  0  0  0
 19 47  1  0  0  0  0
 20 40  1  0  0  0  0
 21 80  1  0  0  0  0
 22 81  1  0  0  0  0
 23 25  2  0  0  0  0
 23 80  1  0  0  0  0
 24 82  1  0  0  0  0
 25 83  1  0  0  0  0
 26 28  1  0  0  0  0
 26 30  2  0  0  0  0
 26 84  1  0  0  0  0
 27 61  2  0  0  0  0
 28 32  1  0  0  0  0
 28 62  2  0  0  0  0
 29 63  1  0  0  0  0
 29 66  1  0  0  0  0
 30 68  1  0  0  0  0
 30 88  1  0  0  0  0
 31 67  1  0  0  0  0
 31 73  2  0  0  0  0
 32 69  1  0  0  0  0
 32 74  2  0  0  0  0
 33 48  1  0  0  0  0
 33 70  1  0  0  0  0
 33 75  2  0  0  0  0
 34 55  1  0  0  0  0
 34 56  1  0  0  0  0
 34 76  2  0  0  0  0
 35 57  1  0  0  0  0
 35 64  1  0  0  0  0
 35 77  2  0  0  0  0
 36 58  1  0  0  0  0
 36 71  1  0  0  0  0
 36 78  2  0  0  0  0
 37 65  1  0  0  0  0
 37 68  1  0  0  0  0
 37 79  2  0  0  0  0
 38 41  1  0  0  0  0
 39 48  1  0  0  0  0
 40 64  1  0  0  0  0
 41 43  1  0  0  0  0
 42 44  1  0  0  0  0
 42 45  1  0  0  0  0
 43 47  1  0  0  0  0
 44 49  1  0  0  0  0
 45 65  1  0  0  0  0
 46 49  1  0  0  0  0
 46 65  1  0  0  0  0
 47 70  1  0  0  0  0
 48 64  1  0  0  0  0
 49 63  1  0  0  0  0
 50 58  1  0  0  0  0
 51 59  1  0  0  0  0
 52 59  1  0  0  0  0
 53 59  1  0  0  0  0
 54 72  1  0  0  0  0
 55 81  1  0  0  0  0
 56 60  1  0  0  0  0
 56 69  1  0  0  0  0
 57 59  1  0  0  0  0
 57 71  1  0  0  0  0
 58 72  1  0  0  0  0
 60 85  1  0  0  0  0
 60 86  1  0  0  0  0
 60 87  1  0  0  0  0
 61 63  1  0  0  0  0
 62 88  1  0  0  0  0
M  CHG  1  72   1
M  ISO  4  37 100  55 101  68 100  81 101
M  END
> <Batch ID>
0179

> <Smiles>
CNC(C)C(=O)NC(C(=O)N1Cc2cc([101O:1][101CH2:1]C(=O)C(NC(=O)c3nsc([100NH:0][100C:0](=O)N4CCCC(n5nc(-c6ccc(Oc7ccc(F)cc7F)cc6)c(C(N)=O)c5N)C4)c3F)C(F)(F)F)ccc2CC1C(=O)NC1CCCc2ccccc21)C(C)(C)C

> <Shape>
0.259

> <Color>
0.100

> <Negative vol penalty>
0.000

$$$$

  -OEChem-04052304473D

 86 94  0     1  0  0  0  0  0999 V2000
  -26.7773  -32.8106   28.2991 C   0  0  0  0  0  0  0  0  0  0  0  0
  -27.2237  -31.8293   27.4197 C   0  0  0  0  0  0  0  0  0  0  0  0
  -24.7395   -8.5055   21.6911 C   0  0  0  0  0  0  0  0  0  0  0  0
  -23.0187   -9.9025   20.7298 C   0  0  0  0  0  0  0  0  0  0  0  0
  -25.4289  -33.1645   28.3206 C   0  0  0  0  0  0  0  0  0  0  0  0
  -26.3216  -31.2007   26.5620 C   0  0  0  0  0  0  0  0  0  0  0  0
  -27.4130  -29.2452   20.8620 C   0  0  0  0  0  0  0  0  0  0  0  0
  -23.7795   -7.8578   22.4685 C   0  0  0  0  0  0  0  0  0  0  0  0
  -22.0586   -9.2547   21.5071 C   0  0  0  0  0  0  0  0  0  0  0  0
  -27.7196  -27.9875   20.3444 C   0  0  0  0  0  0  0  0  0  0  0  0
  -21.4376   -5.4560   22.0445 C   0  0  0  0  0  0  0  0  0  0  0  0
  -21.4921   -4.0640   22.1151 C   0  0  0  0  0  0  0  0  0  0  0  0
  -25.3901  -27.6408   19.8227 C   0  0  0  0  0  0  0  0  0  0  0  0
  -24.7789  -20.1118   18.1358 C   0  0  0  0  0  0  0  0  0  0  0  0
  -21.7853   -4.1970   24.5096 C   0  0  0  0  0  0  0  0  0  0  0  0
  -24.3592   -9.5279   20.8217 C   0  0  0  0  0  0  0  0  0  0  0  0
  -25.7816   -9.8403   18.7272 C   0  0  0  0  0  0  0  0  0  0  0  0
  -24.5115  -32.5467   27.4561 C   0  0  0  0  0  0  0  0  0  0  0  0
  -26.0888  -29.7065   20.8738 C   0  0  0  0  0  0  0  0  0  0  0  0
  -24.9595  -31.5458   26.5730 C   0  0  0  0  0  0  0  0  0  0  0  0
  -25.0696  -28.9058   20.3386 C   0  0  0  0  0  0  0  0  0  0  0  0
  -24.0457  -18.9316   18.0581 C   0  0  0  0  0  0  0  0  0  0  0  0
  -22.4390   -8.2323   22.3765 C   0  0  0  0  0  0  0  0  0  0  0  0
  -26.7078  -27.1839   19.8273 C   0  0  0  0  0  0  0  0  0  0  0  0
  -21.5570   -6.2185   23.2064 C   0  0  0  0  0  0  0  0  0  0  0  0
  -21.6659   -3.4345   23.3477 C   0  0  0  0  0  0  0  0  0  0  0  0
  -21.7308   -5.5890   24.4389 C   0  0  0  0  0  0  0  0  0  0  0  0
  -24.5840  -17.7470   18.5515 C   0  0  0  0  0  0  0  0  0  0  0  0
  -25.3505  -10.1977   20.0188 C   0  0  0  0  0  0  0  0  0  0  0  0
  -26.7260  -10.7847   18.4068 C   0  0  0  0  0  0  0  0  0  0  0  0
  -26.0420  -20.0774   18.7093 C   0  0  0  0  0  0  0  0  0  0  0  0
  -25.8521  -17.7724   19.1144 C   0  0  0  0  0  0  0  0  0  0  0  0
  -27.8375  -23.8022   19.8709 C   0  0  0  0  0  0  0  0  0  0  0  0
  -25.3654   -8.7520   17.8918 C   0  0  0  0  0  0  0  0  0  0  0  0
  -28.5540  -22.8518   19.2443 C   0  0  0  0  0  0  0  0  0  0  0  0
  -28.0629  -21.4368   19.3254 C   0  0  0  0  0  0  0  0  0  0  0  0
  -24.0247  -30.5422   23.1420 C   0  0  0  0  0  0  0  0  0  0  0  0
  -22.1922  -31.4108   20.6102 C   0  0  0  0  0  0  0  0  0  0  0  0
  -21.4567  -31.0293   17.2996 C   0  0  0  0  0  0  0  0  0  0  0  0
  -27.6578  -16.4032   20.2148 C   0  0  0  0  0  0  0  0  0  0  0  0
  -23.0556  -32.9292   27.5488 C   0  0  0  0  0  0  0  0  0  0  0  0
  -25.7783  -31.0765   21.4112 C   0  0  0  0  0  0  0  0  0  0  0  0
  -23.6348  -29.3630   20.3093 C   0  0  0  0  0  0  0  0  0  0  0  0
  -22.2301  -32.4804   26.3458 C   0  0  0  0  0  0  0  0  0  0  0  0
  -29.9529  -13.6894   20.4276 C   0  0  0  0  0  0  0  0  0  0  0  0
  -22.5417  -31.0287   25.9961 C   0  0  0  0  0  0  0  0  0  0  0  0
  -29.0733  -12.4539   20.2233 C   0  0  0  0  0  0  0  0  0  0  0  0
  -29.2331  -14.7716   21.2304 C   0  0  0  0  0  0  0  0  0  0  0  0
  -27.0369  -13.9240   20.5041 C   0  0  0  0  0  0  0  0  0  0  0  0
  -24.0159  -30.8585   25.6099 C   0  0  1  0  0  0  0  0  0  0  0  0
  -24.3232  -31.2338   21.8419 C   0  0  1  0  0  0  0  0  0  0  0  0
  -27.6956  -12.8322   19.6451 C   0  0  2  0  0  0  0  0  0  0  0  0
  -29.7897  -23.0507   18.4229 C   0  0  0  0  0  0  0  0  0  0  0  0
  -19.8832  -31.8474   15.5242 C   0  0  0  0  0  0  0  0  0  0  0  0
  -19.9729  -29.6743   21.7804 C   0  0  0  0  0  0  0  0  0  0  0  0
  -18.8271  -29.7616   19.5561 C   0  0  0  0  0  0  0  0  0  0  0  0
  -19.2026  -31.8628   20.8470 C   0  0  0  0  0  0  0  0  0  0  0  0
  -23.6756  -32.1160   15.6703 C   0  0  0  0  0  0  0  0  0  0  0  0
  -28.1198  -25.2713   19.8909 C   0  0  0  0  0  0  0  0  0  1  0  0
  -21.1683  -30.7180   19.7438 C   0  0  1  0  0  0  0  0  0  0  0  0
  -21.2343  -32.0451   16.1936 C   0  0  2  0  0  0  0  0  0  0  0  0
  -19.8194  -30.4945   20.4840 C   0  0  0  0  0  0  0  0  0  0  0  0
  -25.9704  -11.2843   20.4870 N   0  0  0  0  0  0  0  0  0  0  0  0
  -26.8006  -11.6177   19.4842 N   0  0  0  0  0  0  0  0  0  0  0  0
  -26.5363  -18.9228   19.1765 N   0  3  0  0  0  0  0  0  0  0  0  0
  -23.3808  -30.7077   20.8522 N   0  0  0  0  0  0  0  0  0  0  0  0
  -27.9378  -15.0814   20.6213 N   0  0  0  0  0  0  0  0  0  0  0  0
  -22.7594  -18.9389   17.4805 N   0  0  0  0  0  0  0  0  0  0  0  0
  -27.4917  -10.9754   17.3115 N   0  0  0  0  0  0  0  0  0  0  0  0
  -24.3846   -7.8754   18.3756 N   0  0  0  0  0  0  0  0  0  0  0  0
  -26.7928  -21.2751   18.7908 N   0  0  0  0  0  0  0  0  0  0  0  0
  -26.4082  -16.5708   19.6191 N   0  0  0  0  0  0  0  0  0  0  0  0
  -24.2417  -31.3261   24.2590 N   0  0  0  0  0  0  0  0  0  0  0  0
  -21.0572  -31.5147   18.5267 N   0  0  0  0  0  0  0  0  0  0  0  0
  -22.2959  -31.9209   15.1551 N   0  3  0  0  0  0  0  0  0  0  0  0
  -25.8607   -8.5528   16.7567 O   0  0  0  0  0  0  0  0  0  0  0  0
  -28.7643  -20.5938   19.8755 O   0  0  0  0  0  0  0  0  0  0  0  0
  -23.6255  -29.3836   23.1323 O   0  0  0  0  0  0  0  0  0  0  0  0
  -21.9493  -32.5374   21.0500 O   0  0  0  0  0  0  0  0  0  0  0  0
  -21.9335  -29.9152   17.0947 O   0  0  0  0  0  0  0  0  0  0  0  0
  -28.4779  -17.3137   20.3580 O   0  0  0  0  0  0  0  0  0  0  0  0
  -21.5019   -7.6003   23.1347 O   0  0  0  0  0  0  0  0  0  0  0  0
  -27.0042  -25.9556   19.3220 O   0  0  0  0  0  0  0  0  0  1  0  0
  -21.7167   -2.0977   23.4155 F   0  0  0  0  0  0  0  0  0  0  0  0
  -21.8450   -6.3162   25.5588 F   0  0  0  0  0  0  0  0  0  0  0  0
  -23.8884  -16.6027   18.4829 F   0  0  0  0  0  0  0  0  0  0  0  0
  1  2  1  0  0  0  0
  1  5  2  0  0  0  0
  2  6  2  0  0  0  0
  3  8  2  0  0  0  0
  3 16  1  0  0  0  0
  4  9  1  0  0  0  0
  4 16  2  0  0  0  0
  5 18  1  0  0  0  0
  6 20  1  0  0  0  0
  7 10  2  0  0  0  0
  7 19  1  0  0  0  0
  8 23  1  0  0  0  0
  9 23  2  0  0  0  0
 10 24  1  0  0  0  0
 11 12  2  0  0  0  0
 11 25  1  0  0  0  0
 12 26  1  0  0  0  0
 13 21  1  0  0  0  0
 13 24  2  0  0  0  0
 14 22  2  0  0  0  0
 14 31  1  0  0  0  0
 15 26  2  0  0  0  0
 15 27  1  0  0  0  0
 16 29  1  0  0  0  0
 17 29  1  0  0  0  0
 17 30  2  0  0  0  0
 17 34  1  0  0  0  0
 18 20  2  0  0  0  0
 18 41  1  0  0  0  0
 19 21  2  0  0  0  0
 19 42  1  0  0  0  0
 20 50  1  0  0  0  0
 21 43  1  0  0  0  0
 22 28  1  0  0  0  0
 22 68  1  0  0  0  0
 23 82  1  0  0  0  0
 24 83  1  0  0  0  0
 25 27  2  0  0  0  0
 25 82  1  0  0  0  0
 26 84  1  0  0  0  0
 27 85  1  0  0  0  0
 28 32  2  0  0  0  0
 28 86  1  0  0  0  0
 29 63  2  0  0  0  0
 30 64  1  0  0  0  0
 30 69  1  0  0  0  0
 31 65  2  0  0  0  0
 31 71  1  0  0  0  0
 32 65  1  0  0  0  0
 32 72  1  0  0  0  0
 33 35  2  0  0  0  0
 33 59  1  0  0  0  0
 34 70  1  0  0  0  0
 34 76  2  0  0  0  0
 35 36  1  0  0  0  0
 35 53  1  0  0  0  0
 36 71  1  0  0  0  0
 36 77  2  0  0  0  0
 37 51  1  0  0  0  0
 37 73  1  0  0  0  0
 37 78  2  0  0  0  0
 38 60  1  0  0  0  0
 38 66  1  0  0  0  0
 38 79  2  0  0  0  0
 39 61  1  0  0  0  0
 39 74  1  0  0  0  0
 39 80  2  0  0  0  0
 40 67  1  0  0  0  0
 40 72  1  0  0  0  0
 40 81  2  0  0  0  0
 41 44  1  0  0  0  0
 42 51  1  0  0  0  0
 43 66  1  0  0  0  0
 44 46  1  0  0  0  0
 45 47  1  0  0  0  0
 45 48  1  0  0  0  0
 46 50  1  0  0  0  0
 47 52  1  0  0  0  0
 48 67  1  0  0  0  0
 49 52  1  0  0  0  0
 49 67  1  0  0  0  0
 50 73  1  0  0  0  0
 51 66  1  0  0  0  0
 52 64  1  0  0  0  0
 54 61  1  0  0  0  0
 55 62  1  0  0  0  0
 56 62  1  0  0  0  0
 57 62  1  0  0  0  0
 58 75  1  0  0  0  0
 59 83  1  0  0  0  0
 60 62  1  0  0  0  0
 60 74  1  0  0  0  0
 61 75  1  0  0  0  0
 63 64  1  0  0  0  0
M  CHG  2  65   1  75   1
M  ISO  4  40 100  59 101  72 100  83 101
M  END
> <Batch ID>
0179

> <Smiles>
CNC(C)C(=O)NC(C(=O)N1Cc2cc([101O:1][101CH2:1]C=C(C)C(=O)Nc3cc(N)c(F)c([100NH:0][100C:0](=O)N4CCCC(n5nc(-c6ccc(Oc7ccc(F)cc7F)cc6)c(C(N)=O)c5N)C4)n3)ccc2CC1C(=O)NC1CCCc2ccccc21)C(C)(C)C

> <Shape>
0.277

> <Color>
0.106

> <Negative vol penalty>
0.000

$$$$

  -OEChem-04052304473D

 83 91  0     1  0  0  0  0  0999 V2000
  -25.7287  -38.9494   23.9800 C   0  0  0  0  0  0  0  0  0  0  0  0
  -26.3489  -38.1854   22.9966 C   0  0  0  0  0  0  0  0  0  0  0  0
  -24.0095   -9.5237   21.6178 C   0  0  0  0  0  0  0  0  0  0  0  0
  -24.5035  -10.7488   23.6407 C   0  0  0  0  0  0  0  0  0  0  0  0
  -25.4070  -38.3740   25.2086 C   0  0  0  0  0  0  0  0  0  0  0  0
  -26.6487  -36.8458   23.2416 C   0  0  0  0  0  0  0  0  0  0  0  0
  -27.1333  -30.5307   19.8948 C   0  0  0  0  0  0  0  0  0  0  0  0
  -23.5750   -8.4396   22.3804 C   0  0  0  0  0  0  0  0  0  0  0  0
  -24.0689   -9.6647   24.4033 C   0  0  0  0  0  0  0  0  0  0  0  0
  -28.0210  -29.4700   19.7194 C   0  0  0  0  0  0  0  0  0  0  0  0
  -20.8099   -7.5663   24.1196 C   0  0  0  0  0  0  0  0  0  0  0  0
  -19.6179   -6.9465   23.7449 C   0  0  0  0  0  0  0  0  0  0  0  0
  -27.3470  -28.5616   21.8501 C   0  0  0  0  0  0  0  0  0  0  0  0
  -20.8020   -4.8656   23.4204 C   0  0  0  0  0  0  0  0  0  0  0  0
  -30.1497  -19.3392   19.4970 C   0  0  0  0  0  0  0  0  0  0  0  0
  -24.4738  -10.6783   22.2480 C   0  0  0  0  0  0  0  0  0  0  0  0
  -24.1474  -12.8774   20.9969 C   0  0  0  0  0  0  0  0  0  0  0  0
  -25.6943  -37.0242   25.4653 C   0  0  0  0  0  0  0  0  0  0  0  0
  -26.3525  -30.6208   21.0561 C   0  0  0  0  0  0  0  0  0  0  0  0
  -26.3317  -36.2522   24.4753 C   0  0  0  0  0  0  0  0  0  0  0  0
  -26.4483  -29.6231   22.0366 C   0  0  0  0  0  0  0  0  0  0  0  0
  -23.6047   -8.5101   23.7731 C   0  0  0  0  0  0  0  0  0  0  0  0
  -28.1300  -28.4868   20.6984 C   0  0  0  0  0  0  0  0  0  0  0  0
  -21.9980   -6.8359   24.1446 C   0  0  0  0  0  0  0  0  0  0  0  0
  -19.6139   -5.5961   23.3953 C   0  0  0  0  0  0  0  0  0  0  0  0
  -21.9940   -5.4856   23.7950 C   0  0  0  0  0  0  0  0  0  0  0  0
  -24.9233  -11.7982   21.4607 C   0  0  0  0  0  0  0  0  0  0  0  0
  -25.0340  -13.6652   20.3043 C   0  0  0  0  0  0  0  0  0  0  0  0
  -29.1447  -18.5415   20.0026 C   0  0  0  0  0  0  0  0  0  0  0  0
  -28.7033  -20.9096   19.9989 C   0  0  0  0  0  0  0  0  0  0  0  0
  -22.7500  -13.1439   21.1763 C   0  0  0  0  0  0  0  0  0  0  0  0
  -28.1138  -22.2650   20.1437 C   0  0  0  0  0  0  0  0  0  0  0  0
  -26.1040  -32.7140   23.4353 C   0  0  0  0  0  0  0  0  0  0  0  0
  -23.6269  -30.8182   24.3257 C   0  0  0  0  0  0  0  0  0  0  0  0
  -28.5310  -24.6647   19.7279 C   0  0  0  0  0  0  0  0  0  0  0  0
  -22.1496  -27.7435   24.2243 C   0  0  0  0  0  0  0  0  0  0  0  0
  -29.9833  -16.1721   19.8325 C   0  0  0  0  0  0  0  0  0  0  0  0
  -25.3704  -36.4590   26.8256 C   0  0  0  0  0  0  0  0  0  0  0  0
  -25.3802  -31.7570   21.2180 C   0  0  0  0  0  0  0  0  0  0  0  0
  -25.6175  -29.6628   23.2923 C   0  0  0  0  0  0  0  0  0  0  0  0
  -25.3828  -34.9332   26.8699 C   0  0  0  0  0  0  0  0  0  0  0  0
  -29.7921  -12.7600   18.8336 C   0  0  0  0  0  0  0  0  0  0  0  0
  -26.6266  -34.3890   26.1745 C   0  0  0  0  0  0  0  0  0  0  0  0
  -28.4445  -12.2944   19.3899 C   0  0  0  0  0  0  0  0  0  0  0  0
  -30.4874  -13.7394   19.7775 C   0  0  0  0  0  0  0  0  0  0  0  0
  -28.3268  -14.4268   20.7410 C   0  0  0  0  0  0  0  0  0  0  0  0
  -26.6507  -34.7892   24.6943 C   0  0  1  0  0  0  0  0  0  0  0  0
  -25.0087  -32.0227   22.6736 C   0  0  1  0  0  0  0  0  0  0  0  0
  -27.5590  -13.4890   19.7951 C   0  0  2  0  0  0  0  0  0  0  0  0
  -20.1516  -26.4888   25.0794 C   0  0  0  0  0  0  0  0  0  0  0  0
  -24.9356  -30.6125   27.0743 C   0  0  0  0  0  0  0  0  0  0  0  0
  -23.4597  -28.6476   27.5529 C   0  0  0  0  0  0  0  0  0  0  0  0
  -22.4503  -30.8874   27.1201 C   0  0  0  0  0  0  0  0  0  0  0  0
  -21.1602  -27.2205   21.4845 C   0  0  0  0  0  0  0  0  0  0  0  0
  -29.6336  -25.5604   19.1843 C   0  0  0  0  0  0  0  0  0  0  0  0
  -29.2577  -27.0340   19.1905 C   0  0  0  0  0  0  0  0  0  1  0  0
  -23.4755  -29.5983   25.2020 C   0  0  1  0  0  0  0  0  0  0  0  0
  -20.7190  -27.3222   23.9408 C   0  0  2  0  0  0  0  0  0  0  0  0
  -23.5975  -29.9365   26.7147 C   0  0  0  0  0  0  0  0  0  0  0  0
  -29.8983  -20.6974   19.4937 N   0  0  0  0  0  0  0  0  0  0  0  0
  -26.2043  -11.8889   21.0936 N   0  0  0  0  0  0  0  0  0  0  0  0
  -26.2401  -13.0344   20.3917 N   0  0  0  0  0  0  0  0  0  0  0  0
  -24.6861  -30.7972   23.4073 N   0  0  0  0  0  0  0  0  0  0  0  0
  -29.5900  -14.8467   20.1144 N   0  0  0  0  0  0  0  0  0  0  0  0
  -24.8918  -14.8289   19.6351 N   0  0  0  0  0  0  0  0  0  0  0  0
  -21.9851  -12.2309   21.9150 N   0  0  0  0  0  0  0  0  0  0  0  0
  -29.0351  -17.1384   20.1669 N   0  0  0  0  0  0  0  0  0  0  0  0
  -28.9123  -23.3204   19.7064 N   0  0  0  0  0  0  0  0  0  0  0  0
  -25.7488  -33.9542   23.9303 N   0  0  0  0  0  0  0  0  0  0  0  0
  -22.2073  -28.9819   24.8279 N   0  0  0  0  0  0  0  0  0  0  0  0
  -20.6550  -26.5145   22.6900 N   0  3  0  0  0  0  0  0  0  0  0  0
  -22.1928  -14.1530   20.6817 O   0  0  0  0  0  0  0  0  0  0  0  0
  -26.9799  -22.3779   20.6015 O   0  0  0  0  0  0  0  0  0  0  0  0
  -27.1904  -32.1622   23.5656 O   0  0  0  0  0  0  0  0  0  0  0  0
  -22.8303  -31.7523   24.4465 O   0  0  0  0  0  0  0  0  0  0  0  0
  -27.4526  -25.0915   20.1309 O   0  0  0  0  0  0  0  0  0  0  0  0
  -23.1188  -27.0424   23.9420 O   0  0  0  0  0  0  0  0  0  0  0  0
  -31.0693  -16.4288   19.3064 O   0  0  0  0  0  0  0  0  0  0  0  0
  -23.1805   -7.4525   24.5176 O   0  0  0  0  0  0  0  0  0  0  0  0
  -28.9961  -27.4508   20.5300 O   0  0  0  0  0  0  0  0  0  1  0  0
  -18.4689   -5.0006   23.0370 F   0  0  0  0  0  0  0  0  0  0  0  0
  -23.1321   -4.7784   23.8184 F   0  0  0  0  0  0  0  0  0  0  0  0
  -27.8273  -19.5212   20.4986 S   0  0  0  0  0  0  0  0  0  0  0  0
  1  2  1  0  0  0  0
  1  5  2  0  0  0  0
  2  6  2  0  0  0  0
  3  8  2  0  0  0  0
  3 16  1  0  0  0  0
  4  9  1  0  0  0  0
  4 16  2  0  0  0  0
  5 18  1  0  0  0  0
  6 20  1  0  0  0  0
  7 10  2  0  0  0  0
  7 19  1  0  0  0  0
  8 22  1  0  0  0  0
  9 22  2  0  0  0  0
 10 23  1  0  0  0  0
 11 12  2  0  0  0  0
 11 24  1  0  0  0  0
 12 25  1  0  0  0  0
 13 21  1  0  0  0  0
 13 23  2  0  0  0  0
 14 25  2  0  0  0  0
 14 26  1  0  0  0  0
 15 29  2  0  0  0  0
 15 60  1  0  0  0  0
 16 27  1  0  0  0  0
 17 27  1  0  0  0  0
 17 28  2  0  0  0  0
 17 31  1  0  0  0  0
 18 20  2  0  0  0  0
 18 38  1  0  0  0  0
 19 21  2  0  0  0  0
 19 39  1  0  0  0  0
 20 47  1  0  0  0  0
 21 40  1  0  0  0  0
 22 79  1  0  0  0  0
 23 80  1  0  0  0  0
 24 26  2  0  0  0  0
 24 79  1  0  0  0  0
 25 81  1  0  0  0  0
 26 82  1  0  0  0  0
 27 61  2  0  0  0  0
 28 62  1  0  0  0  0
 28 65  1  0  0  0  0
 29 67  1  0  0  0  0
 29 83  1  0  0  0  0
 30 32  1  0  0  0  0
 30 60  2  0  0  0  0
 30 83  1  0  0  0  0
 31 66  1  0  0  0  0
 31 72  2  0  0  0  0
 32 68  1  0  0  0  0
 32 73  2  0  0  0  0
 33 48  1  0  0  0  0
 33 69  1  0  0  0  0
 33 74  2  0  0  0  0
 34 57  1  0  0  0  0
 34 63  1  0  0  0  0
 34 75  2  0  0  0  0
 35 55  1  0  0  0  0
 35 68  1  0  0  0  0
 35 76  2  0  0  0  0
 36 58  1  0  0  0  0
 36 70  1  0  0  0  0
 36 77  2  0  0  0  0
 37 64  1  0  0  0  0
 37 67  1  0  0  0  0
 37 78  2  0  0  0  0
 38 41  1  0  0  0  0
 39 48  1  0  0  0  0
 40 63  1  0  0  0  0
 41 43  1  0  0  0  0
 42 44  1  0  0  0  0
 42 45  1  0  0  0  0
 43 47  1  0  0  0  0
 44 49  1  0  0  0  0
 45 64  1  0  0  0  0
 46 49  1  0  0  0  0
 46 64  1  0  0  0  0
 47 69  1  0  0  0  0
 48 63  1  0  0  0  0
 49 62  1  0  0  0  0
 50 58  1  0  0  0  0
 51 59  1  0  0  0  0
 52 59  1  0  0  0  0
 53 59  1  0  0  0  0
 54 71  1  0  0  0  0
 55 56  1  0  0  0  0
 56 80  1  0  0  0  0
 57 59  1  0  0  0  0
 57 70  1  0  0  0  0
 58 71  1  0  0  0  0
 61 62  1  0  0  0  0
M  CHG  1  71   1
M  ISO  4  37 100  56 101  67 100  80 101
M  END
> <Batch ID>
0179

> <Smiles>
CNC(C)C(=O)NC(C(=O)N1Cc2cc([101O:1][101CH2:1]CC(=O)NC(=O)c3ncc([100NH:0][100C:0](=O)N4CCCC(n5nc(-c6ccc(Oc7ccc(F)cc7F)cc6)c(C(N)=O)c5N)C4)s3)ccc2CC1C(=O)NC1CCCc2ccccc21)C(C)(C)C

> <Shape>
0.359

> <Color>
0.136

> <Negative vol penalty>
0.000

$$$$

  -OEChem-04052304473D

 89 97  0     1  0  0  0  0  0999 V2000
  -24.2565  -36.3385   14.4161 C   0  0  0  0  0  0  0  0  0  0  0  0
  -24.2381  -34.9875   14.7475 C   0  0  0  0  0  0  0  0  0  0  0  0
  -23.8915   -9.5112   21.1684 C   0  0  0  0  0  0  0  0  0  0  0  0
  -24.5115  -10.4181   23.3202 C   0  0  0  0  0  0  0  0  0  0  0  0
  -28.5738  -20.5534   21.1423 C   0  0  0  0  0  0  0  0  0  0  0  0
  -25.1537  -37.1981   15.0487 C   0  0  0  0  0  0  0  0  0  0  0  0
  -25.1175  -34.4950   15.7111 C   0  0  0  0  0  0  0  0  0  0  0  0
  -24.0343  -30.0054   19.7330 C   0  0  0  0  0  0  0  0  0  0  0  0
  -23.4232   -8.3542   21.7909 C   0  0  0  0  0  0  0  0  0  0  0  0
  -24.0431   -9.2610   23.9427 C   0  0  0  0  0  0  0  0  0  0  0  0
  -24.3610  -28.6500   19.7362 C   0  0  0  0  0  0  0  0  0  0  0  0
  -20.6697   -7.3833   23.4964 C   0  0  0  0  0  0  0  0  0  0  0  0
  -19.4355   -6.8802   23.0852 C   0  0  0  0  0  0  0  0  0  0  0  0
  -28.4203  -19.1715   21.1390 C   0  0  0  0  0  0  0  0  0  0  0  0
  -26.3112  -29.1296   21.0726 C   0  0  0  0  0  0  0  0  0  0  0  0
  -20.4965   -4.8095   22.4343 C   0  0  0  0  0  0  0  0  0  0  0  0
  -24.4357  -10.5432   21.9330 C   0  0  0  0  0  0  0  0  0  0  0  0
  -29.7215  -21.1211   20.6002 C   0  0  0  0  0  0  0  0  0  0  0  0
  -24.1890  -12.9079   21.0085 C   0  0  0  0  0  0  0  0  0  0  0  0
  -26.0380  -36.7177   16.0275 C   0  0  0  0  0  0  0  0  0  0  0  0
  -24.8509  -30.9360   20.3914 C   0  0  0  0  0  0  0  0  0  0  0  0
  -26.0283  -35.3487   16.3564 C   0  0  0  0  0  0  0  0  0  0  0  0
  -25.9913  -30.4958   21.0784 C   0  0  0  0  0  0  0  0  0  0  0  0
  -23.4990   -8.2291   23.1781 C   0  0  0  0  0  0  0  0  0  0  0  0
  -25.5012  -28.2123   20.4037 C   0  0  0  0  0  0  0  0  0  0  0  0
  -21.8174   -6.5996   23.3765 C   0  0  0  0  0  0  0  0  0  0  0  0
  -19.3488   -5.5933   22.5542 C   0  0  0  0  0  0  0  0  0  0  0  0
  -21.7307   -5.3127   22.8454 C   0  0  0  0  0  0  0  0  0  0  0  0
  -24.9201  -11.7384   21.2905 C   0  0  0  0  0  0  0  0  0  0  0  0
  -29.4353  -18.4075   20.5860 C   0  0  0  0  0  0  0  0  0  0  0  0
  -30.6783  -20.2699   20.0714 C   0  0  0  0  0  0  0  0  0  0  0  0
  -25.0949  -13.7402   20.3976 C   0  0  0  0  0  0  0  0  0  0  0  0
  -29.8763  -22.5986   20.6088 C   0  0  0  0  0  0  0  0  0  0  0  0
  -22.8140  -13.2146   21.2749 C   0  0  0  0  0  0  0  0  0  0  0  0
  -26.5635  -33.4553   19.4840 C   0  0  0  0  0  0  0  0  0  0  0  0
  -27.4841  -25.2346   19.8024 C   0  0  0  0  0  0  0  0  0  0  0  0
  -26.9967  -33.8214   22.6778 C   0  0  0  0  0  0  0  0  0  0  0  0
  -27.0572  -32.3916   25.7760 C   0  0  0  0  0  0  0  0  0  0  0  0
  -30.1542  -16.0449   20.0886 C   0  0  0  0  0  0  0  0  0  0  0  0
  -27.0220  -37.6762   16.6500 C   0  0  0  0  0  0  0  0  0  0  0  0
  -24.4701  -32.3911   20.4010 C   0  0  0  0  0  0  0  0  0  0  0  0
  -26.8900  -31.4520   21.8177 C   0  0  0  0  0  0  0  0  0  0  0  0
  -27.6639  -37.1449   17.9291 C   0  0  0  0  0  0  0  0  0  0  0  0
  -29.7510  -12.8177   18.6393 C   0  0  0  0  0  0  0  0  0  0  0  0
  -28.1306  -35.7058   17.7342 C   0  0  0  0  0  0  0  0  0  0  0  0
  -28.3981  -12.3455   19.1767 C   0  0  0  0  0  0  0  0  0  0  0  0
  -30.5260  -13.6218   19.6818 C   0  0  0  0  0  0  0  0  0  0  0  0
  -28.4354  -14.2730   20.8108 C   0  0  0  0  0  0  0  0  0  0  0  0
  -26.9497  -34.7814   17.4144 C   0  0  1  0  0  0  0  0  0  0  0  0
  -25.6527  -33.3164   20.6708 C   0  0  1  0  0  0  0  0  0  0  0  0
  -27.5903  -13.5139   19.7748 C   0  0  2  0  0  0  0  0  0  0  0  0
  -27.4789  -32.9363   28.1891 C   0  0  0  0  0  0  0  0  0  0  0  0
  -29.9991  -33.8814   22.1371 C   0  0  0  0  0  0  0  0  0  0  0  0
  -30.3763  -33.4691   24.5776 C   0  0  0  0  0  0  0  0  0  0  0  0
  -29.2106  -35.5442   23.8306 C   0  0  0  0  0  0  0  0  0  0  0  0
  -24.3087  -31.6151   26.5518 C   0  0  0  0  0  0  0  0  0  0  0  0
  -27.2085  -26.5588   20.4880 C   0  0  0  0  0  0  0  0  0  1  0  0
  -28.9276  -24.7535   19.8263 C   0  0  2  0  0  0  0  0  0  0  0  0
  -28.0076  -33.3254   23.6834 C   0  0  1  0  0  0  0  0  0  0  0  0
  -26.4317  -32.8146   27.0930 C   0  0  2  0  0  0  0  0  0  0  0  0
  -29.3827  -34.0370   23.5417 C   0  0  0  0  0  0  0  0  0  0  0  0
  -29.6676  -25.2171   18.5913 C   0  0  0  0  0  0  0  0  0  0  0  0
  -26.1924  -11.8168   20.8914 N   0  0  0  0  0  0  0  0  0  0  0  0
  -30.5644  -18.9229   20.0501 N   0  0  0  0  0  0  0  0  0  0  0  0
  -26.2678  -13.0455   20.3524 N   0  0  0  0  0  0  0  0  0  0  0  0
  -26.4788  -32.8654   21.7926 N   0  0  0  0  0  0  0  0  0  0  0  0
  -29.6996  -14.7139   20.2007 N   0  0  0  0  0  0  0  0  0  0  0  0
  -31.8513  -20.8411   19.5173 N   0  0  0  0  0  0  0  0  0  0  0  0
  -24.9947  -14.9911   19.9001 N   0  0  0  0  0  0  0  0  0  0  0  0
  -22.0244  -12.2461   21.9097 N   0  0  0  0  0  0  0  0  0  0  0  0
  -29.2694  -17.0003   20.5875 N   0  0  0  0  0  0  0  0  0  0  0  0
  -28.9021  -23.3180   19.9286 N   0  0  0  0  0  0  0  0  0  0  0  0
  -26.2089  -34.4726   18.6186 N   0  0  0  0  0  0  0  0  0  0  0  0
  -27.3877  -33.4789   24.9951 N   0  0  0  0  0  0  0  0  0  0  0  0
  -25.4120  -31.8177   27.5259 N   0  3  0  0  0  0  0  0  0  0  0  0
  -30.8411  -23.0975   21.1823 O   0  0  0  0  0  0  0  0  0  0  0  0
  -22.2966  -14.3085   20.9446 O   0  0  0  0  0  0  0  0  0  0  0  0
  -27.5183  -32.6967   19.3630 O   0  0  0  0  0  0  0  0  0  0  0  0
  -26.5940  -24.6025   19.2331 O   0  0  0  0  0  0  0  0  0  0  0  0
  -26.6731  -35.0117   22.6824 O   0  0  0  0  0  0  0  0  0  0  0  0
  -27.2382  -31.2145   25.4722 O   0  0  0  0  0  0  0  0  0  0  0  0
  -31.2358  -16.3190   19.5623 O   0  0  0  0  0  0  0  0  0  0  0  0
  -23.0419   -7.1003   23.7859 O   0  0  0  0  0  0  0  0  0  0  0  0
  -25.8228  -26.8900   20.4079 O   0  0  0  0  0  0  0  0  0  1  0  0
  -18.1633   -5.1097   22.1608 F   0  0  0  0  0  0  0  0  0  0  0  0
  -22.8296   -4.5546   22.7289 F   0  0  0  0  0  0  0  0  0  0  0  0
  -30.9411  -24.7650   18.5882 F   0  0  0  0  0  0  0  0  0  0  0  0
  -29.7074  -26.5640   18.5040 F   0  0  0  0  0  0  0  0  0  0  0  0
  -29.0732  -24.7495   17.4704 F   0  0  0  0  0  0  0  0  0  0  0  0
  1  2  1  0  0  0  0
  1  6  2  0  0  0  0
  2  7  2  0  0  0  0
  3  9  2  0  0  0  0
  3 17  1  0  0  0  0
  4 10  1  0  0  0  0
  4 17  2  0  0  0  0
  5 14  2  0  0  0  0
  5 18  1  0  0  0  0
  6 20  1  0  0  0  0
  7 22  1  0  0  0  0
  8 11  2  0  0  0  0
  8 21  1  0  0  0  0
  9 24  1  0  0  0  0
 10 24  2  0  0  0  0
 11 25  1  0  0  0  0
 12 13  2  0  0  0  0
 12 26  1  0  0  0  0
 13 27  1  0  0  0  0
 14 30  1  0  0  0  0
 15 23  1  0  0  0  0
 15 25  2  0  0  0  0
 16 27  2  0  0  0  0
 16 28  1  0  0  0  0
 17 29  1  0  0  0  0
 18 31  2  0  0  0  0
 18 33  1  0  0  0  0
 19 29  1  0  0  0  0
 19 32  2  0  0  0  0
 19 34  1  0  0  0  0
 20 22  2  0  0  0  0
 20 40  1  0  0  0  0
 21 23  2  0  0  0  0
 21 41  1  0  0  0  0
 22 49  1  0  0  0  0
 23 42  1  0  0  0  0
 24 83  1  0  0  0  0
 25 84  1  0  0  0  0
 26 28  2  0  0  0  0
 26 83  1  0  0  0  0
 27 85  1  0  0  0  0
 28 86  1  0  0  0  0
 29 63  2  0  0  0  0
 30 64  2  0  0  0  0
 30 71  1  0  0  0  0
 31 64  1  0  0  0  0
 31 68  1  0  0  0  0
 32 65  1  0  0  0  0
 32 69  1  0  0  0  0
 33 72  1  0  0  0  0
 33 76  2  0  0  0  0
 34 70  1  0  0  0  0
 34 77  2  0  0  0  0
 35 50  1  0  0  0  0
 35 73  1  0  0  0  0
 35 78  2  0  0  0  0
 36 57  1  0  0  0  0
 36 58  1  0  0  0  0
 36 79  2  0  0  0  0
 37 59  1  0  0  0  0
 37 66  1  0  0  0  0
 37 80  2  0  0  0  0
 38 60  1  0  0  0  0
 38 74  1  0  0  0  0
 38 81  2  0  0  0  0
 39 67  1  0  0  0  0
 39 71  1  0  0  0  0
 39 82  2  0  0  0  0
 40 43  1  0  0  0  0
 41 50  1  0  0  0  0
 42 66  1  0  0  0  0
 43 45  1  0  0  0  0
 44 46  1  0  0  0  0
 44 47  1  0  0  0  0
 45 49  1  0  0  0  0
 46 51  1  0  0  0  0
 47 67  1  0  0  0  0
 48 51  1  0  0  0  0
 48 67  1  0  0  0  0
 49 73  1  0  0  0  0
 50 66  1  0  0  0  0
 51 65  1  0  0  0  0
 52 60  1  0  0  0  0
 53 61  1  0  0  0  0
 54 61  1  0  0  0  0
 55 61  1  0  0  0  0
 56 75  1  0  0  0  0
 57 84  1  0  0  0  0
 58 62  1  0  0  0  0
 58 72  1  0  0  0  0
 59 61  1  0  0  0  0
 59 74  1  0  0  0  0
 60 75  1  0  0  0  0
 62 87  1  0  0  0  0
 62 88  1  0  0  0  0
 62 89  1  0  0  0  0
 63 65  1  0  0  0  0
M  CHG  1  75   1
M  ISO  4  39 100  57 101  71 100  84 101
M  END
> <Batch ID>
0179

> <Smiles>
CNC(C)C(=O)NC(C(=O)N1Cc2cc([101O:1][101CH2:1]C(=O)C(NC(=O)c3ccc([100NH:0][100C:0](=O)N4CCCC(n5nc(-c6ccc(Oc7ccc(F)cc7F)cc6)c(C(N)=O)c5N)C4)nc3N)C(F)(F)F)ccc2CC1C(=O)NC1CCCc2ccccc21)C(C)(C)C

> <Shape>
0.330

> <Color>
0.135

> <Negative vol penalty>
0.000

$$$$

  -OEChem-04052304473D

 91 99  0     1  0  0  0  0  0999 V2000
  -28.4723  -22.7731   28.6653 C   0  0  0  0  0  0  0  0  0  0  0  0
  -28.6003  -23.4471   27.4551 C   0  0  0  0  0  0  0  0  0  0  0  0
  -25.6263  -13.1621   22.0807 C   0  0  0  0  0  0  0  0  0  0  0  0
  -26.0949  -13.6751   19.7668 C   0  0  0  0  0  0  0  0  0  0  0  0
  -27.3144  -22.0458   28.9377 C   0  0  0  0  0  0  0  0  0  0  0  0
  -27.5709  -23.3934   26.5160 C   0  0  0  0  0  0  0  0  0  0  0  0
  -25.8455  -27.8494   22.6855 C   0  0  0  0  0  0  0  0  0  0  0  0
  -24.5789  -12.3305   21.6843 C   0  0  0  0  0  0  0  0  0  0  0  0
  -25.0475  -12.8434   19.3703 C   0  0  0  0  0  0  0  0  0  0  0  0
  -26.1277  -28.0929   21.3421 C   0  0  0  0  0  0  0  0  0  0  0  0
  -24.2110   -9.2046   20.4490 C   0  0  0  0  0  0  0  0  0  0  0  0
  -24.1075   -7.9557   21.0615 C   0  0  0  0  0  0  0  0  0  0  0  0
  -24.0657  -27.0074   20.7185 C   0  0  0  0  0  0  0  0  0  0  0  0
  -21.9096   -8.5383   21.8781 C   0  0  0  0  0  0  0  0  0  0  0  0
  -26.3842  -13.8344   21.1219 C   0  0  0  0  0  0  0  0  0  0  0  0
  -28.8128  -14.3326   21.7232 C   0  0  0  0  0  0  0  0  0  0  0  0
  -26.2662  -21.9910   28.0056 C   0  0  0  0  0  0  0  0  0  0  0  0
  -24.6746  -27.1723   23.0555 C   0  0  0  0  0  0  0  0  0  0  0  0
  -26.3984  -22.6636   26.7757 C   0  0  0  0  0  0  0  0  0  0  0  0
  -23.7697  -26.7588   22.0675 C   0  0  0  0  0  0  0  0  0  0  0  0
  -24.2896  -12.1712   20.3291 C   0  0  0  0  0  0  0  0  0  0  0  0
  -25.2391  -27.6694   20.3582 C   0  0  0  0  0  0  0  0  0  0  0  0
  -23.1638  -10.1204   20.5512 C   0  0  0  0  0  0  0  0  0  0  0  0
  -22.9568   -7.6225   21.7760 C   0  0  0  0  0  0  0  0  0  0  0  0
  -22.0131   -9.7872   21.2656 C   0  0  0  0  0  0  0  0  0  0  0  0
  -27.4659  -14.6940   21.5308 C   0  0  0  0  0  0  0  0  0  0  0  0
  -29.3870  -23.3943   17.5202 C   0  0  0  0  0  0  0  0  0  0  0  0
  -29.4299  -15.4985   22.1058 C   0  0  0  0  0  0  0  0  0  0  0  0
  -29.4027  -22.4063   16.5580 C   0  0  0  0  0  0  0  0  0  0  0  0
  -28.7881  -21.7000   18.7774 C   0  0  0  0  0  0  0  0  0  0  0  0
  -29.4492  -13.0570   21.5698 C   0  0  0  0  0  0  0  0  0  0  0  0
  -27.0383  -27.5250   17.2337 C   0  0  0  0  0  0  0  0  0  0  0  0
  -28.3343  -26.8667   16.8607 C   0  0  0  0  0  0  0  0  0  0  0  0
  -24.0409  -24.4421   24.5549 C   0  0  0  0  0  0  0  0  0  0  0  0
  -20.9797  -25.4973   24.3594 C   0  0  0  0  0  0  0  0  0  0  0  0
  -18.6903  -27.4676   22.7709 C   0  0  0  0  0  0  0  0  0  0  0  0
  -28.1834  -21.2694   21.1848 C   0  0  0  0  0  0  0  0  0  0  0  0
  -25.0535  -21.1531   28.3252 C   0  0  0  0  0  0  0  0  0  0  0  0
  -24.3718  -26.9410   24.5106 C   0  0  0  0  0  0  0  0  0  0  0  0
  -22.4889  -26.0458   22.4134 C   0  0  0  0  0  0  0  0  0  0  0  0
  -23.8526  -21.4543   27.4323 C   0  0  0  0  0  0  0  0  0  0  0  0
  -28.5488  -19.6458   24.3324 C   0  0  0  0  0  0  0  0  0  0  0  0
  -24.2787  -21.5223   25.9693 C   0  0  0  0  0  0  0  0  0  0  0  0
  -28.4413  -18.1585   23.9878 C   0  0  0  0  0  0  0  0  0  0  0  0
  -27.6118  -20.4956   23.4760 C   0  0  0  0  0  0  0  0  0  0  0  0
  -27.6333  -18.8066   21.6826 C   0  0  0  0  0  0  0  0  0  0  0  0
  -25.2932  -22.6495   25.7420 C   0  0  1  0  0  0  0  0  0  0  0  0
  -23.4001  -25.7881   24.7428 C   0  0  1  0  0  0  0  0  0  0  0  0
  -28.6058  -17.9173   22.4745 C   0  0  2  0  0  0  0  0  0  0  0  0
  -16.2598  -28.0906   22.8145 C   0  0  0  0  0  0  0  0  0  0  0  0
  -20.2749  -22.8284   23.0593 C   0  0  0  0  0  0  0  0  0  0  0  0
  -18.1278  -23.8542   22.2806 C   0  0  0  0  0  0  0  0  0  0  0  0
  -18.5990  -23.6537   24.7220 C   0  0  0  0  0  0  0  0  0  0  0  0
  -19.3097  -30.3128   23.2999 C   0  0  0  0  0  0  0  0  0  0  0  0
  -26.8875  -27.9589   18.6685 C   0  0  0  0  0  0  0  0  0  1  0  0
  -29.7165  -24.8598   17.3064 C   0  0  2  0  0  0  0  0  0  0  0  0
  -19.8641  -25.3606   23.3516 C   0  0  1  0  0  0  0  0  0  0  0  0
  -17.6557  -28.4412   23.3057 C   0  0  2  0  0  0  0  0  0  0  0  0
  -19.2414  -23.9359   23.3464 C   0  0  0  0  0  0  0  0  0  0  0  0
  -30.9156  -25.3070   18.1541 C   0  0  0  0  0  0  0  0  0  0  0  0
  -32.1936  -24.5455   17.8859 C   0  0  0  0  0  0  0  0  0  0  0  0
  -27.2399  -15.9882   21.7714 N   0  0  0  0  0  0  0  0  0  0  0  0
  -29.0344  -22.9912   18.7934 N   0  0  0  0  0  0  0  0  0  0  0  0
  -28.4531  -16.4502   22.1191 N   0  0  0  0  0  0  0  0  0  0  0  0
  -22.2408  -25.8375   23.8496 N   0  0  0  0  0  0  0  0  0  0  0  0
  -27.8273  -20.2169   22.0544 N   0  0  0  0  0  0  0  0  0  0  0  0
  -30.7073  -15.7921   22.4288 N   0  0  0  0  0  0  0  0  0  0  0  0
  -29.7082  -22.5249   15.2430 N   0  0  0  0  0  0  0  0  0  0  0  0
  -28.6679  -11.9642   21.1701 N   0  0  0  0  0  0  0  0  0  0  0  0
  -28.3941  -20.8787   19.8628 N   0  0  0  0  0  0  0  0  0  0  0  0
  -28.5527  -25.6852   17.5311 N   0  0  0  0  0  0  0  0  0  0  0  0
  -24.6232  -23.9316   25.6994 N   0  0  0  0  0  0  0  0  0  0  0  0
  -18.9136  -26.4271   23.6477 N   0  0  0  0  0  0  0  0  0  0  0  0
  -17.9740  -29.8290   22.8654 N   0  3  0  0  0  0  0  0  0  0  0  0
  -30.6712  -12.8876   21.7968 O   0  0  0  0  0  0  0  0  0  0  0  0
  -26.2098  -27.6815   16.3493 O   0  0  0  0  0  0  0  0  0  0  0  0
  -29.0241  -27.4089   16.0117 O   0  0  0  0  0  0  0  0  0  0  0  0
  -24.0081  -23.9057   23.4536 O   0  0  0  0  0  0  0  0  0  0  0  0
  -20.7396  -25.3162   25.5557 O   0  0  0  0  0  0  0  0  0  0  0  0
  -19.2422  -27.6134   21.6825 O   0  0  0  0  0  0  0  0  0  0  0  0
  -28.3198  -22.4270   21.5888 O   0  0  0  0  0  0  0  0  0  0  0  0
  -23.2678  -11.3596   19.9419 O   0  0  0  0  0  0  0  0  0  0  0  0
  -25.5124  -27.9052   19.0461 O   0  0  0  0  0  0  0  0  0  1  0  0
  -22.8569   -6.4225   22.3627 F   0  0  0  0  0  0  0  0  0  0  0  0
  -21.0033  -10.6624   21.3663 F   0  0  0  0  0  0  0  0  0  0  0  0
  -31.1564  -26.6305   17.9680 F   0  0  0  0  0  0  0  0  0  0  0  0
  -30.6092  -25.1517   19.4718 F   0  0  0  0  0  0  0  0  0  0  0  0
  -32.5809  -24.6784   16.5993 F   0  0  0  0  0  0  0  0  0  0  0  0
  -33.2061  -24.9704   18.6698 F   0  0  0  0  0  0  0  0  0  0  0  0
  -32.0178  -23.2273   18.1272 F   0  0  0  0  0  0  0  0  0  0  0  0
  -28.9616  -20.9075   17.2652 S   0  0  0  0  0  0  0  0  0  0  0  0
  1  2  1  0  0  0  0
  1  5  2  0  0  0  0
  2  6  2  0  0  0  0
  3  8  2  0  0  0  0
  3 15  1  0  0  0  0
  4  9  1  0  0  0  0
  4 15  2  0  0  0  0
  5 17  1  0  0  0  0
  6 19  1  0  0  0  0
  7 10  2  0  0  0  0
  7 18  1  0  0  0  0
  8 21  1  0  0  0  0
  9 21  2  0  0  0  0
 10 22  1  0  0  0  0
 11 12  2  0  0  0  0
 11 23  1  0  0  0  0
 12 24  1  0  0  0  0
 13 20  1  0  0  0  0
 13 22  2  0  0  0  0
 14 24  2  0  0  0  0
 14 25  1  0  0  0  0
 15 26  1  0  0  0  0
 16 26  1  0  0  0  0
 16 28  2  0  0  0  0
 16 31  1  0  0  0  0
 17 19  2  0  0  0  0
 17 38  1  0  0  0  0
 18 20  2  0  0  0  0
 18 39  1  0  0  0  0
 19 47  1  0  0  0  0
 20 40  1  0  0  0  0
 21 82  1  0  0  0  0
 22 83  1  0  0  0  0
 23 25  2  0  0  0  0
 23 82  1  0  0  0  0
 24 84  1  0  0  0  0
 25 85  1  0  0  0  0
 26 62  2  0  0  0  0
 27 29  2  0  0  0  0
 27 56  1  0  0  0  0
 27 63  1  0  0  0  0
 28 64  1  0  0  0  0
 28 67  1  0  0  0  0
 29 68  1  0  0  0  0
 29 91  1  0  0  0  0
 30 63  2  0  0  0  0
 30 70  1  0  0  0  0
 30 91  1  0  0  0  0
 31 69  1  0  0  0  0
 31 75  2  0  0  0  0
 32 33  1  0  0  0  0
 32 55  1  0  0  0  0
 32 76  2  0  0  0  0
 33 71  1  0  0  0  0
 33 77  2  0  0  0  0
 34 48  1  0  0  0  0
 34 72  1  0  0  0  0
 34 78  2  0  0  0  0
 35 57  1  0  0  0  0
 35 65  1  0  0  0  0
 35 79  2  0  0  0  0
 36 58  1  0  0  0  0
 36 73  1  0  0  0  0
 36 80  2  0  0  0  0
 37 66  1  0  0  0  0
 37 70  1  0  0  0  0
 37 81  2  0  0  0  0
 38 41  1  0  0  0  0
 39 48  1  0  0  0  0
 40 65  1  0  0  0  0
 41 43  1  0  0  0  0
 42 44  1  0  0  0  0
 42 45  1  0  0  0  0
 43 47  1  0  0  0  0
 44 49  1  0  0  0  0
 45 66  1  0  0  0  0
 46 49  1  0  0  0  0
 46 66  1  0  0  0  0
 47 72  1  0  0  0  0
 48 65  1  0  0  0  0
 49 64  1  0  0  0  0
 50 58  1  0  0  0  0
 51 59  1  0  0  0  0
 52 59  1  0  0  0  0
 53 59  1  0  0  0  0
 54 74  1  0  0  0  0
 55 83  1  0  0  0  0
 56 60  1  0  0  0  0
 56 71  1  0  0  0  0
 57 59  1  0  0  0  0
 57 73  1  0  0  0  0
 58 74  1  0  0  0  0
 60 61  1  0  0  0  0
 60 86  1  0  0  0  0
 60 87  1  0  0  0  0
 61 88  1  0  0  0  0
 61 89  1  0  0  0  0
 61 90  1  0  0  0  0
 62 64  1  0  0  0  0
M  CHG  1  74   1
M  ISO  4  37 100  55 101  70 100  83 101
M  END
> <Batch ID>
0179

> <Smiles>
CNC(C)C(=O)NC(C(=O)N1Cc2cc([101O:1][101CH2:1]C(=O)C(=O)NC(c3nc([100NH:0][100C:0](=O)N4CCCC(n5nc(-c6ccc(Oc7ccc(F)cc7F)cc6)c(C(N)=O)c5N)C4)sc3N)C(F)(F)C(F)(F)F)ccc2CC1C(=O)NC1CCCc2ccccc21)C(C)(C)C

> <Shape>
0.224

> <Color>
0.048

> <Negative vol penalty>
0.000

$$$$

  -OEChem-04052304473D

 85 93  0     1  0  0  0  0  0999 V2000
  -22.4407   -7.6605   24.5644 C   0  0  0  0  0  0  0  0  0  0  0  0
  -23.6683   -8.2813   24.7724 C   0  0  0  0  0  0  0  0  0  0  0  0
  -22.3552  -28.5197   24.0903 C   0  0  0  0  0  0  0  0  0  0  0  0
  -23.8051  -28.6624   22.1630 C   0  0  0  0  0  0  0  0  0  0  0  0
  -21.8082   -7.7664   23.3264 C   0  0  0  0  0  0  0  0  0  0  0  0
  -24.2645   -9.0074   23.7421 C   0  0  0  0  0  0  0  0  0  0  0  0
  -28.4096  -14.7426   22.6273 C   0  0  0  0  0  0  0  0  0  0  0  0
  -22.5768  -29.8707   24.3571 C   0  0  0  0  0  0  0  0  0  0  0  0
  -24.0267  -30.0134   22.4298 C   0  0  0  0  0  0  0  0  0  0  0  0
  -29.5829  -15.1124   21.9713 C   0  0  0  0  0  0  0  0  0  0  0  0
  -25.2599  -33.4112   22.8098 C   0  0  0  0  0  0  0  0  0  0  0  0
  -26.5714  -33.8802   22.7347 C   0  0  0  0  0  0  0  0  0  0  0  0
  -28.3605  -15.2932   19.8996 C   0  0  0  0  0  0  0  0  0  0  0  0
  -27.2254  -32.3292   24.4678 C   0  0  0  0  0  0  0  0  0  0  0  0
  -22.9694  -27.9155   22.9933 C   0  0  0  0  0  0  0  0  0  0  0  0
  -21.7268  -25.9669   21.9131 C   0  0  0  0  0  0  0  0  0  0  0  0
  -22.3925   -8.5023   22.2834 C   0  0  0  0  0  0  0  0  0  0  0  0
  -27.2030  -14.6345   21.9210 C   0  0  0  0  0  0  0  0  0  0  0  0
  -23.6399   -9.1221   22.4885 C   0  0  0  0  0  0  0  0  0  0  0  0
  -27.1727  -14.9243   20.5495 C   0  0  0  0  0  0  0  0  0  0  0  0
  -28.6723  -22.0134   19.7839 C   0  0  0  0  0  0  0  0  0  0  0  0
  -23.4126  -30.6176   23.5268 C   0  0  0  0  0  0  0  0  0  0  0  0
  -29.5591  -15.3849   20.6067 C   0  0  0  0  0  0  0  0  0  0  0  0
  -24.9312  -32.4011   23.7139 C   0  0  0  0  0  0  0  0  0  0  0  0
  -27.5541  -33.3392   23.5636 C   0  0  0  0  0  0  0  0  0  0  0  0
  -25.9139  -31.8601   24.5429 C   0  0  0  0  0  0  0  0  0  0  0  0
  -29.6803  -21.2051   19.1833 C   0  0  0  0  0  0  0  0  0  0  0  0
  -22.7413  -26.5197   22.7175 C   0  0  0  0  0  0  0  0  0  0  0  0
  -21.9414  -24.6116   21.9731 C   0  0  0  0  0  0  0  0  0  0  0  0
  -28.1986  -21.4644   20.9552 C   0  0  0  0  0  0  0  0  0  0  0  0
  -29.9388  -20.0692   19.9186 C   0  0  0  0  0  0  0  0  0  0  0  0
  -20.6839  -26.6200   21.1774 C   0  0  0  0  0  0  0  0  0  0  0  0
  -32.5368  -17.6198   18.7317 C   0  0  0  0  0  0  0  0  0  0  0  0
  -31.7243  -18.8790   18.6388 C   0  0  0  0  0  0  0  0  0  0  0  0
  -25.1678  -12.2717   21.3058 C   0  0  0  0  0  0  0  0  0  0  0  0
  -23.3961  -14.6582   20.0068 C   0  0  0  0  0  0  0  0  0  0  0  0
  -23.3092  -17.7686   18.6050 C   0  0  0  0  0  0  0  0  0  0  0  0
  -26.7929  -21.2899   23.0384 C   0  0  0  0  0  0  0  0  0  0  0  0
  -21.6935   -8.5490   20.9478 C   0  0  0  0  0  0  0  0  0  0  0  0
  -25.9408  -14.2604   22.6486 C   0  0  0  0  0  0  0  0  0  0  0  0
  -25.8991  -14.8426   19.7496 C   0  0  0  0  0  0  0  0  0  0  0  0
  -22.2137   -9.6492   20.0262 C   0  0  0  0  0  0  0  0  0  0  0  0
  -23.7290  -21.2270   24.8512 C   0  0  0  0  0  0  0  0  0  0  0  0
  -23.7389   -9.6533   20.0078 C   0  0  0  0  0  0  0  0  0  0  0  0
  -23.0330  -22.5239   24.4319 C   0  0  0  0  0  0  0  0  0  0  0  0
  -25.2407  -21.4092   24.9753 C   0  0  0  0  0  0  0  0  0  0  0  0
  -25.1998  -23.2811   23.3743 C   0  0  0  0  0  0  0  0  0  0  0  0
  -24.3067   -9.9393   21.4033 C   0  0  1  0  0  0  0  0  0  0  0  0
  -24.8699  -13.6823   21.7287 C   0  0  1  0  0  0  0  0  0  0  0  0
  -23.6831  -23.1308   23.1730 C   0  0  2  0  0  0  0  0  0  0  0  0
  -28.1966  -23.2937   19.2068 C   0  0  0  0  0  0  0  0  0  0  0  0
  -21.7211  -19.4363   17.6081 C   0  0  0  0  0  0  0  0  0  0  0  0
  -23.2571  -12.9953   17.4523 C   0  0  0  0  0  0  0  0  0  0  0  0
  -22.5160  -15.0539   16.2354 C   0  0  0  0  0  0  0  0  0  0  0  0
  -21.1160  -14.1252   18.0793 C   0  0  0  0  0  0  0  0  0  0  0  0
  -23.9575  -19.7917   20.6655 C   0  0  0  0  0  0  0  0  0  0  0  0
  -31.9741  -16.4040   18.0287 C   0  0  0  0  0  0  0  0  0  0  0  0
  -30.6060  -16.0102   18.5649 C   0  0  0  0  0  0  0  0  0  1  0  0
  -23.2900  -15.2881   18.6389 C   0  0  1  0  0  0  0  0  0  0  0  0
  -22.4221  -18.9706   18.8747 C   0  0  2  0  0  0  0  0  0  0  0  0
  -22.5693  -14.3654   17.6159 C   0  0  0  0  0  0  0  0  0  0  0  0
  -23.5408  -25.5915   23.2496 N   0  0  0  0  0  0  0  0  0  0  0  0
  -23.0287  -24.4416   22.7787 N   0  0  0  0  0  0  0  0  0  0  0  0
  -24.6926  -14.4666   20.5049 N   0  0  0  0  0  0  0  0  0  0  0  0
  -25.7876  -21.9841   23.7444 N   0  0  0  0  0  0  0  0  0  0  0  0
  -21.3041  -23.5605   21.4150 N   0  0  0  0  0  0  0  0  0  0  0  0
  -20.6079  -28.0187   21.2247 N   0  0  0  0  0  0  0  0  0  0  0  0
  -30.8479  -19.0091   19.6944 N   0  0  0  0  0  0  0  0  0  0  0  0
  -27.2122  -21.9176   21.8659 N   0  0  0  0  0  0  0  0  0  0  0  0
  -24.2173  -11.3518   21.7056 N   0  0  0  0  0  0  0  0  0  0  0  0
  -22.6452  -16.5821   18.8342 N   0  0  0  0  0  0  0  0  0  0  0  0
  -23.2317  -20.1028   19.4072 N   0  3  0  0  0  0  0  0  0  0  0  0
  -19.8342  -25.9813   20.5113 O   0  0  0  0  0  0  0  0  0  0  0  0
  -33.5871  -17.6762   19.3533 O   0  0  0  0  0  0  0  0  0  0  0  0
  -31.9558  -19.6096   17.6898 O   0  0  0  0  0  0  0  0  0  0  0  0
  -26.1841  -12.0355   20.6630 O   0  0  0  0  0  0  0  0  0  0  0  0
  -22.3663  -14.3543   20.6141 O   0  0  0  0  0  0  0  0  0  0  0  0
  -24.4735  -17.8718   18.2251 O   0  0  0  0  0  0  0  0  0  0  0  0
  -27.2289  -20.2042   23.4298 O   0  0  0  0  0  0  0  0  0  0  0  0
  -23.6289  -31.9360   23.7867 O   0  0  0  0  0  0  0  0  0  0  0  0
  -30.7030  -15.7454   19.9637 O   0  0  0  0  0  0  0  0  0  1  0  0
  -28.8138  -33.7887   23.4903 F   0  0  0  0  0  0  0  0  0  0  0  0
  -25.6043  -30.8888   25.4126 F   0  0  0  0  0  0  0  0  0  0  0  0
  -30.3017  -21.5122   18.0422 F   0  0  0  0  0  0  0  0  0  0  0  0
  -28.9682  -19.9805   21.3266 S   0  0  0  0  0  0  0  0  0  0  0  0
  1  2  1  0  0  0  0
  1  5  2  0  0  0  0
  2  6  2  0  0  0  0
  3  8  2  0  0  0  0
  3 15  1  0  0  0  0
  4  9  1  0  0  0  0
  4 15  2  0  0  0  0
  5 17  1  0  0  0  0
  6 19  1  0  0  0  0
  7 10  2  0  0  0  0
  7 18  1  0  0  0  0
  8 22  1  0  0  0  0
  9 22  2  0  0  0  0
 10 23  1  0  0  0  0
 11 12  2  0  0  0  0
 11 24  1  0  0  0  0
 12 25  1  0  0  0  0
 13 20  1  0  0  0  0
 13 23  2  0  0  0  0
 14 25  2  0  0  0  0
 14 26  1  0  0  0  0
 15 28  1  0  0  0  0
 16 28  1  0  0  0  0
 16 29  2  0  0  0  0
 16 32  1  0  0  0  0
 17 19  2  0  0  0  0
 17 39  1  0  0  0  0
 18 20  2  0  0  0  0
 18 40  1  0  0  0  0
 19 48  1  0  0  0  0
 20 41  1  0  0  0  0
 21 27  1  0  0  0  0
 21 30  2  0  0  0  0
 21 51  1  0  0  0  0
 22 80  1  0  0  0  0
 23 81  1  0  0  0  0
 24 26  2  0  0  0  0
 24 80  1  0  0  0  0
 25 82  1  0  0  0  0
 26 83  1  0  0  0  0
 27 31  2  0  0  0  0
 27 84  1  0  0  0  0
 28 62  2  0  0  0  0
 29 63  1  0  0  0  0
 29 66  1  0  0  0  0
 30 69  1  0  0  0  0
 30 85  1  0  0  0  0
 31 68  1  0  0  0  0
 31 85  1  0  0  0  0
 32 67  1  0  0  0  0
 32 73  2  0  0  0  0
 33 34  1  0  0  0  0
 33 57  1  0  0  0  0
 33 74  2  0  0  0  0
 34 68  1  0  0  0  0
 34 75  2  0  0  0  0
 35 49  1  0  0  0  0
 35 70  1  0  0  0  0
 35 76  2  0  0  0  0
 36 59  1  0  0  0  0
 36 64  1  0  0  0  0
 36 77  2  0  0  0  0
 37 60  1  0  0  0  0
 37 71  1  0  0  0  0
 37 78  2  0  0  0  0
 38 65  1  0  0  0  0
 38 69  1  0  0  0  0
 38 79  2  0  0  0  0
 39 42  1  0  0  0  0
 40 49  1  0  0  0  0
 41 64  1  0  0  0  0
 42 44  1  0  0  0  0
 43 45  1  0  0  0  0
 43 46  1  0  0  0  0
 44 48  1  0  0  0  0
 45 50  1  0  0  0  0
 46 65  1  0  0  0  0
 47 50  1  0  0  0  0
 47 65  1  0  0  0  0
 48 70  1  0  0  0  0
 49 64  1  0  0  0  0
 50 63  1  0  0  0  0
 52 60  1  0  0  0  0
 53 61  1  0  0  0  0
 54 61  1  0  0  0  0
 55 61  1  0  0  0  0
 56 72  1  0  0  0  0
 57 58  1  0  0  0  0
 58 81  1  0  0  0  0
 59 61  1  0  0  0  0
 59 71  1  0  0  0  0
 60 72  1  0  0  0  0
 62 63  1  0  0  0  0
M  CHG  1  72   1
M  ISO  4  38 100  58 101  69 100  81 101
M  END
> <Batch ID>
0179

> <Smiles>
CNC(C)C(=O)NC(C(=O)N1Cc2cc([101O:1][101CH2:1]CC(=O)C(=O)Nc3sc([100NH:0][100C:0](=O)N4CCCC(n5nc(-c6ccc(Oc7ccc(F)cc7F)cc6)c(C(N)=O)c5N)C4)c(C)c3F)ccc2CC1C(=O)NC1CCCc2ccccc21)C(C)(C)C

> <Shape>
0.218

> <Color>
0.072

> <Negative vol penalty>
0.000

$$$$

  -OEChem-04052304473D

 84 92  0     1  0  0  0  0  0999 V2000
  -31.2846  -18.9634   14.9231 C   0  0  0  0  0  0  0  0  0  0  0  0
  -31.0201  -19.3096   16.2443 C   0  0  0  0  0  0  0  0  0  0  0  0
  -23.0022   -9.8907   19.9807 C   0  0  0  0  0  0  0  0  0  0  0  0
  -23.7266   -9.9431   22.2850 C   0  0  0  0  0  0  0  0  0  0  0  0
  -32.2322  -19.6791   14.1925 C   0  0  0  0  0  0  0  0  0  0  0  0
  -31.7039  -20.3710   16.8360 C   0  0  0  0  0  0  0  0  0  0  0  0
  -28.6443  -23.4214   19.4778 C   0  0  0  0  0  0  0  0  0  0  0  0
  -22.2365   -8.7557   20.2473 C   0  0  0  0  0  0  0  0  0  0  0  0
  -22.9609   -8.8081   22.5515 C   0  0  0  0  0  0  0  0  0  0  0  0
  -28.2448  -22.9845   20.7401 C   0  0  0  0  0  0  0  0  0  0  0  0
  -23.2081   -5.4692   22.0809 C   0  0  0  0  0  0  0  0  0  0  0  0
  -23.7962   -4.4528   22.8336 C   0  0  0  0  0  0  0  0  0  0  0  0
  -29.9176  -24.3977   21.7520 C   0  0  0  0  0  0  0  0  0  0  0  0
  -31.8145  -17.4825   21.6954 C   0  0  0  0  0  0  0  0  0  0  0  0
  -22.0716   -4.6949   24.5082 C   0  0  0  0  0  0  0  0  0  0  0  0
  -23.7473  -10.4844   20.9996 C   0  0  0  0  0  0  0  0  0  0  0  0
  -24.1307  -13.0003   20.8228 C   0  0  0  0  0  0  0  0  0  0  0  0
  -32.9210  -20.7560   14.7725 C   0  0  0  0  0  0  0  0  0  0  0  0
  -29.6925  -24.3430   19.3424 C   0  0  0  0  0  0  0  0  0  0  0  0
  -32.6626  -21.1009   16.1129 C   0  0  0  0  0  0  0  0  0  0  0  0
  -30.3268  -24.8466   20.4870 C   0  0  0  0  0  0  0  0  0  0  0  0
  -31.9121  -18.7565   22.3259 C   0  0  0  0  0  0  0  0  0  0  0  0
  -22.2158   -8.2144   21.5326 C   0  0  0  0  0  0  0  0  0  0  0  0
  -28.8834  -23.4704   21.8773 C   0  0  0  0  0  0  0  0  0  0  0  0
  -22.0517   -6.0986   22.5419 C   0  0  0  0  0  0  0  0  0  0  0  0
  -23.2280   -4.0656   24.0472 C   0  0  0  0  0  0  0  0  0  0  0  0
  -21.4835   -5.7114   23.7555 C   0  0  0  0  0  0  0  0  0  0  0  0
  -24.5389  -11.6566   20.7248 C   0  0  0  0  0  0  0  0  0  0  0  0
  -25.2399  -13.7236   20.4585 C   0  0  0  0  0  0  0  0  0  0  0  0
  -30.5903  -16.8897   21.9133 C   0  0  0  0  0  0  0  0  0  0  0  0
  -30.7585  -19.0891   23.0016 C   0  0  0  0  0  0  0  0  0  0  0  0
  -22.8621  -13.5458   21.2087 C   0  0  0  0  0  0  0  0  0  0  0  0
  -32.5585  -24.2945   17.9685 C   0  0  0  0  0  0  0  0  0  0  0  0
  -32.5733  -27.4333   18.7870 C   0  0  0  0  0  0  0  0  0  0  0  0
  -31.3908  -29.9014   20.8259 C   0  0  0  0  0  0  0  0  0  0  0  0
  -29.2208  -20.5023   24.4140 C   0  0  0  0  0  0  0  0  0  0  0  0
  -30.7186  -14.6891   20.6938 C   0  0  0  0  0  0  0  0  0  0  0  0
  -33.9705  -21.4698   13.9579 C   0  0  0  0  0  0  0  0  0  0  0  0
  -30.0937  -24.8245   17.9751 C   0  0  0  0  0  0  0  0  0  0  0  0
  -31.4440  -25.8526   20.3968 C   0  0  0  0  0  0  0  0  0  0  0  0
  -34.3812  -22.8192   14.5417 C   0  0  0  0  0  0  0  0  0  0  0  0
  -29.6029  -12.2346   18.3683 C   0  0  0  0  0  0  0  0  0  0  0  0
  -34.6356  -22.6971   16.0408 C   0  0  0  0  0  0  0  0  0  0  0  0
  -28.1524  -11.9760   18.7821 C   0  0  0  0  0  0  0  0  0  0  0  0
  -30.5029  -12.4791   19.5783 C   0  0  0  0  0  0  0  0  0  0  0  0
  -28.5865  -13.2669   20.9110 C   0  0  0  0  0  0  0  0  0  0  0  0
  -33.3658  -22.2618   16.7822 C   0  0  1  0  0  0  0  0  0  0  0  0
  -31.5156  -25.3755   17.9291 C   0  0  1  0  0  0  0  0  0  0  0  0
  -27.6294  -13.0794   19.7226 C   0  0  2  0  0  0  0  0  0  0  0  0
  -33.1188  -19.6150   22.2562 C   0  0  0  0  0  0  0  0  0  0  0  0
  -31.6161  -32.3594   21.2784 C   0  0  0  0  0  0  0  0  0  0  0  0
  -30.3299  -21.8956   26.1990 C   0  0  0  0  0  0  0  0  0  0  0  0
  -27.8478  -22.1116   25.8124 C   0  0  0  0  0  0  0  0  0  0  0  0
  -35.2461  -26.9311   20.1704 C   0  0  0  0  0  0  0  0  0  0  0  0
  -34.9512  -29.1053   21.3763 C   0  0  0  0  0  0  0  0  0  0  0  0
  -35.1218  -29.0745   18.8878 C   0  0  0  0  0  0  0  0  0  0  0  0
  -28.5366  -30.3931   20.2170 C   0  0  0  0  0  0  0  0  0  0  0  0
  -29.4949  -23.0090   24.1287 C   0  0  0  0  0  0  0  0  0  1  0  0
  -33.0161  -28.2207   19.9965 C   0  0  1  0  0  0  0  0  0  0  0  0
  -30.8492  -31.2864   20.5212 C   0  0  2  0  0  0  0  0  0  0  0  0
  -29.2122  -21.8737   25.1414 C   0  0  0  0  0  0  0  0  0  0  0  0
  -34.5641  -28.3125   20.1097 C   0  0  0  0  0  0  0  0  0  0  0  0
  -25.8084  -11.5310   20.3290 N   0  0  0  0  0  0  0  0  0  0  0  0
  -26.2074  -12.8050   20.1751 N   0  0  0  0  0  0  0  0  0  0  0  0
  -31.8043  -26.2880   19.0373 N   0  0  0  0  0  0  0  0  0  0  0  0
  -29.9468  -13.5399   20.4211 N   0  0  0  0  0  0  0  0  0  0  0  0
  -25.4724  -15.0495   20.3560 N   0  0  0  0  0  0  0  0  0  0  0  0
  -21.8309  -12.6609   21.5523 N   0  0  0  0  0  0  0  0  0  0  0  0
  -30.4185  -20.2388   23.7556 N   0  0  0  0  0  0  0  0  0  0  0  0
  -30.0733  -15.6440   21.4789 N   0  0  0  0  0  0  0  0  0  0  0  0
  -32.4615  -23.3813   16.9360 N   0  0  0  0  0  0  0  0  0  0  0  0
  -32.3456  -29.5135   19.9099 N   0  0  0  0  0  0  0  0  0  0  0  0
  -29.4120  -31.3766   20.9050 N   0  3  0  0  0  0  0  0  0  0  0  0
  -22.6444  -14.7809   21.2320 O   0  0  0  0  0  0  0  0  0  0  0  0
  -33.3905  -24.2902   18.8682 O   0  0  0  0  0  0  0  0  0  0  0  0
  -32.8918  -27.8242   17.6612 O   0  0  0  0  0  0  0  0  0  0  0  0
  -31.0079  -29.2322   21.7830 O   0  0  0  0  0  0  0  0  0  0  0  0
  -28.2373  -19.7646   24.4402 O   0  0  0  0  0  0  0  0  0  0  0  0
  -31.8573  -14.8288   20.2401 O   0  0  0  0  0  0  0  0  0  0  0  0
  -21.4686   -7.1070   21.7931 O   0  0  0  0  0  0  0  0  0  0  0  0
  -28.4958  -23.0452   23.1105 O   0  0  0  0  0  0  0  0  0  1  0  0
  -23.7920   -3.0884   24.7691 F   0  0  0  0  0  0  0  0  0  0  0  0
  -20.3720   -6.3115   24.2030 F   0  0  0  0  0  0  0  0  0  0  0  0
  -29.5648  -17.8679   22.8745 S   0  0  0  0  0  0  0  0  0  0  0  0
  1  2  1  0  0  0  0
  1  5  2  0  0  0  0
  2  6  2  0  0  0  0
  3  8  2  0  0  0  0
  3 16  1  0  0  0  0
  4  9  1  0  0  0  0
  4 16  2  0  0  0  0
  5 18  1  0  0  0  0
  6 20  1  0  0  0  0
  7 10  2  0  0  0  0
  7 19  1  0  0  0  0
  8 23  1  0  0  0  0
  9 23  2  0  0  0  0
 10 24  1  0  0  0  0
 11 12  2  0  0  0  0
 11 25  1  0  0  0  0
 12 26  1  0  0  0  0
 13 21  1  0  0  0  0
 13 24  2  0  0  0  0
 14 22  1  0  0  0  0
 14 30  2  0  0  0  0
 15 26  2  0  0  0  0
 15 27  1  0  0  0  0
 16 28  1  0  0  0  0
 17 28  1  0  0  0  0
 17 29  2  0  0  0  0
 17 32  1  0  0  0  0
 18 20  2  0  0  0  0
 18 38  1  0  0  0  0
 19 21  2  0  0  0  0
 19 39  1  0  0  0  0
 20 47  1  0  0  0  0
 21 40  1  0  0  0  0
 22 31  2  0  0  0  0
 22 50  1  0  0  0  0
 23 80  1  0  0  0  0
 24 81  1  0  0  0  0
 25 27  2  0  0  0  0
 25 80  1  0  0  0  0
 26 82  1  0  0  0  0
 27 83  1  0  0  0  0
 28 63  2  0  0  0  0
 29 64  1  0  0  0  0
 29 67  1  0  0  0  0
 30 70  1  0  0  0  0
 30 84  1  0  0  0  0
 31 69  1  0  0  0  0
 31 84  1  0  0  0  0
 32 68  1  0  0  0  0
 32 74  2  0  0  0  0
 33 48  1  0  0  0  0
 33 71  1  0  0  0  0
 33 75  2  0  0  0  0
 34 59  1  0  0  0  0
 34 65  1  0  0  0  0
 34 76  2  0  0  0  0
 35 60  1  0  0  0  0
 35 72  1  0  0  0  0
 35 77  2  0  0  0  0
 36 61  1  0  0  0  0
 36 69  1  0  0  0  0
 36 78  2  0  0  0  0
 37 66  1  0  0  0  0
 37 70  1  0  0  0  0
 37 79  2  0  0  0  0
 38 41  1  0  0  0  0
 39 48  1  0  0  0  0
 40 65  1  0  0  0  0
 41 43  1  0  0  0  0
 42 44  1  0  0  0  0
 42 45  1  0  0  0  0
 43 47  1  0  0  0  0
 44 49  1  0  0  0  0
 45 66  1  0  0  0  0
 46 49  1  0  0  0  0
 46 66  1  0  0  0  0
 47 71  1  0  0  0  0
 48 65  1  0  0  0  0
 49 64  1  0  0  0  0
 51 60  1  0  0  0  0
 52 61  1  0  0  0  0
 53 61  1  0  0  0  0
 54 62  1  0  0  0  0
 55 62  1  0  0  0  0
 56 62  1  0  0  0  0
 57 73  1  0  0  0  0
 58 61  1  0  0  0  0
 58 81  1  0  0  0  0
 59 62  1  0  0  0  0
 59 72  1  0  0  0  0
 60 73  1  0  0  0  0
 63 64  1  0  0  0  0
M  CHG  1  73   1
M  ISO  4  37 100  58 101  70 100  81 101
M  END
> <Batch ID>
0179

> <Smiles>
CNC(C)C(=O)NC(C(=O)N1Cc2cc([101O:1][101CH2:1]C(C)(C)C(=O)Nc3sc([100NH:0][100C:0](=O)N4CCCC(n5nc(-c6ccc(Oc7ccc(F)cc7F)cc6)c(C(N)=O)c5N)C4)cc3C)ccc2CC1C(=O)NC1CCCc2ccccc21)C(C)(C)C

> <Shape>
0.233

> <Color>
0.193

> <Negative vol penalty>
0.000

$$$$

  -OEChem-04052304473D

 87 95  0     1  0  0  0  0  0999 V2000
  -35.7436  -23.6450   26.7673 C   0  0  0  0  0  0  0  0  0  0  0  0
  -35.7821  -22.9504   25.5625 C   0  0  0  0  0  0  0  0  0  0  0  0
  -23.0559   -9.8582   19.9581 C   0  0  0  0  0  0  0  0  0  0  0  0
  -23.8117   -9.8824   22.2527 C   0  0  0  0  0  0  0  0  0  0  0  0
  -34.6063  -24.3727   27.1150 C   0  0  0  0  0  0  0  0  0  0  0  0
  -34.6828  -22.9822   24.7052 C   0  0  0  0  0  0  0  0  0  0  0  0
  -36.0076  -23.7247   19.8742 C   0  0  0  0  0  0  0  0  0  0  0  0
  -22.3031   -8.7131   20.2182 C   0  0  0  0  0  0  0  0  0  0  0  0
  -23.0588   -8.7373   22.5128 C   0  0  0  0  0  0  0  0  0  0  0  0
  -36.5110  -22.6279   19.1762 C   0  0  0  0  0  0  0  0  0  0  0  0
  -19.3464   -7.9527   21.6718 C   0  0  0  0  0  0  0  0  0  0  0  0
  -18.0401   -7.9113   21.1846 C   0  0  0  0  0  0  0  0  0  0  0  0
  -34.3537  -22.2997   18.1479 C   0  0  0  0  0  0  0  0  0  0  0  0
  -18.5878   -5.9511   19.8828 C   0  0  0  0  0  0  0  0  0  0  0  0
  -23.8102  -10.4429   20.9754 C   0  0  0  0  0  0  0  0  0  0  0  0
  -24.1709  -12.9641   20.8309 C   0  0  0  0  0  0  0  0  0  0  0  0
  -33.4962  -24.4214   26.2571 C   0  0  0  0  0  0  0  0  0  0  0  0
  -34.6682  -24.1114   19.7223 C   0  0  0  0  0  0  0  0  0  0  0  0
  -33.5291  -23.7102   25.0424 C   0  0  0  0  0  0  0  0  0  0  0  0
  -33.8364  -23.4034   18.8432 C   0  0  0  0  0  0  0  0  0  0  0  0
  -22.3045   -8.1527   21.4955 C   0  0  0  0  0  0  0  0  0  0  0  0
  -35.6833  -21.9134   18.3151 C   0  0  0  0  0  0  0  0  0  0  0  0
  -20.2735   -6.9934   21.2644 C   0  0  0  0  0  0  0  0  0  0  0  0
  -17.6608   -6.9105   20.2901 C   0  0  0  0  0  0  0  0  0  0  0  0
  -19.8942   -5.9926   20.3700 C   0  0  0  0  0  0  0  0  0  0  0  0
  -31.5515  -19.2852   22.6629 C   0  0  0  0  0  0  0  0  0  0  0  0
  -24.5886  -11.6254   20.7073 C   0  0  0  0  0  0  0  0  0  0  0  0
  -32.2821  -18.4345   21.8587 C   0  0  0  0  0  0  0  0  0  0  0  0
  -30.3010  -18.8321   23.0306 C   0  0  0  0  0  0  0  0  0  0  0  0
  -25.2692  -13.7019   20.4623 C   0  0  0  0  0  0  0  0  0  0  0  0
  -30.6020  -16.9034   21.8659 C   0  0  0  0  0  0  0  0  0  0  0  0
  -22.9035  -13.4934   21.2423 C   0  0  0  0  0  0  0  0  0  0  0  0
  -33.6427  -18.8138   21.3983 C   0  0  0  0  0  0  0  0  0  0  0  0
  -32.1625  -24.3302   21.6658 C   0  0  0  0  0  0  0  0  0  0  0  0
  -35.5409  -18.8057   18.7498 C   0  0  0  0  0  0  0  0  0  0  0  0
  -30.7510  -25.6530   19.0619 C   0  0  0  0  0  0  0  0  0  0  0  0
  -30.6638  -25.9798   15.6660 C   0  0  0  0  0  0  0  0  0  0  0  0
  -30.7427  -14.7089   20.6368 C   0  0  0  0  0  0  0  0  0  0  0  0
  -32.2711  -25.1828   26.6976 C   0  0  0  0  0  0  0  0  0  0  0  0
  -34.1477  -25.3131   20.4620 C   0  0  0  0  0  0  0  0  0  0  0  0
  -32.3965  -23.7900   18.6294 C   0  0  0  0  0  0  0  0  0  0  0  0
  -31.2922  -25.4711   25.5623 C   0  0  0  0  0  0  0  0  0  0  0  0
  -29.6147  -12.2799   18.2905 C   0  0  0  0  0  0  0  0  0  0  0  0
  -31.0617  -24.2172   24.7248 C   0  0  0  0  0  0  0  0  0  0  0  0
  -28.1722  -12.0032   18.7203 C   0  0  0  0  0  0  0  0  0  0  0  0
  -30.5293  -12.5139   19.4916 C   0  0  0  0  0  0  0  0  0  0  0  0
  -28.6253  -13.2661   20.8620 C   0  0  0  0  0  0  0  0  0  0  0  0
  -32.3661  -23.7407   24.0745 C   0  0  1  0  0  0  0  0  0  0  0  0
  -32.6306  -25.3050   20.6225 C   0  0  1  0  0  0  0  0  0  0  0  0
  -27.6533  -13.0883   19.6841 C   0  0  2  0  0  0  0  0  0  0  0  0
  -37.7821  -19.0562   17.6290 C   0  0  0  0  0  0  0  0  0  0  0  0
  -29.3731  -27.0978   13.8271 C   0  0  0  0  0  0  0  0  0  0  0  0
  -28.5157  -23.6017   19.3870 C   0  0  0  0  0  0  0  0  0  0  0  0
  -27.7889  -24.1265   17.0493 C   0  0  0  0  0  0  0  0  0  0  0  0
  -27.7402  -25.9051   18.7977 C   0  0  0  0  0  0  0  0  0  0  0  0
  -33.0384  -27.4995   14.7655 C   0  0  0  0  0  0  0  0  0  0  0  0
  -35.6255  -18.1005   20.0885 C   0  0  0  0  0  0  0  0  0  0  0  0
  -36.6815  -19.7567   18.4072 C   0  0  1  0  0  0  0  0  0  1  0  0
  -29.9652  -25.1230   17.8869 C   0  0  1  0  0  0  0  0  0  0  0  0
  -30.5582  -27.2038   14.7742 C   0  0  2  0  0  0  0  0  0  0  0  0
  -28.5290  -24.6804   18.2855 C   0  0  0  0  0  0  0  0  0  0  0  0
  -25.8534  -11.5161   20.2924 N   0  0  0  0  0  0  0  0  0  0  0  0
  -31.8365  -17.2318   21.4398 N   0  0  0  0  0  0  0  0  0  0  0  0
  -29.7926  -17.6421   22.6487 N   0  0  0  0  0  0  0  0  0  0  0  0
  -26.2400  -12.7955   20.1520 N   0  0  0  0  0  0  0  0  0  0  0  0
  -31.9326  -24.9685   19.3801 N   0  0  0  0  0  0  0  0  0  0  0  0
  -29.9764  -13.5575   20.3576 N   0  0  0  0  0  0  0  0  0  0  0  0
  -29.5160  -19.6732   23.8567 N   0  0  0  0  0  0  0  0  0  0  0  0
  -25.4896  -15.0309   20.3764 N   0  0  0  0  0  0  0  0  0  0  0  0
  -21.8843  -12.5951   21.5867 N   0  0  0  0  0  0  0  0  0  0  0  0
  -30.1007  -15.6468   21.4447 N   0  0  0  0  0  0  0  0  0  0  0  0
  -34.3004  -17.8894   20.5907 N   0  0  0  0  0  0  0  0  0  0  0  0
  -32.6857  -24.5587   22.9242 N   0  0  0  0  0  0  0  0  0  0  0  0
  -30.0078  -26.1633   16.8649 N   0  0  0  0  0  0  0  0  0  0  0  0
  -31.7972  -27.3606   13.9611 N   0  3  0  0  0  0  0  0  0  0  0  0
  -22.6763  -14.7262   21.2870 O   0  0  0  0  0  0  0  0  0  0  0  0
  -34.1205  -19.8865   21.7581 O   0  0  0  0  0  0  0  0  0  0  0  0
  -31.3833  -23.4379   21.3526 O   0  0  0  0  0  0  0  0  0  0  0  0
  -34.6141  -18.6013   17.9647 O   0  0  0  0  0  0  0  0  0  0  0  0
  -30.3355  -26.6422   19.6706 O   0  0  0  0  0  0  0  0  0  0  0  0
  -31.2647  -24.9614   15.3310 O   0  0  0  0  0  0  0  0  0  0  0  0
  -31.8738  -14.8646   20.1696 O   0  0  0  0  0  0  0  0  0  0  0  0
  -21.5698   -7.0355   21.7496 O   0  0  0  0  0  0  0  0  0  0  0  0
  -36.1720  -20.8419   17.6332 O   0  0  0  0  0  0  0  0  0  1  0  0
  -16.4059   -6.8699   19.8235 F   0  0  0  0  0  0  0  0  0  0  0  0
  -20.7801   -5.0675   19.9759 F   0  0  0  0  0  0  0  0  0  0  0  0
  -32.0274  -20.4715   23.0589 F   0  0  0  0  0  0  0  0  0  0  0  0
  1  2  1  0  0  0  0
  1  5  2  0  0  0  0
  2  6  2  0  0  0  0
  3  8  2  0  0  0  0
  3 15  1  0  0  0  0
  4  9  1  0  0  0  0
  4 15  2  0  0  0  0
  5 17  1  0  0  0  0
  6 19  1  0  0  0  0
  7 10  2  0  0  0  0
  7 18  1  0  0  0  0
  8 21  1  0  0  0  0
  9 21  2  0  0  0  0
 10 22  1  0  0  0  0
 11 12  2  0  0  0  0
 11 23  1  0  0  0  0
 12 24  1  0  0  0  0
 13 20  1  0  0  0  0
 13 22  2  0  0  0  0
 14 24  2  0  0  0  0
 14 25  1  0  0  0  0
 15 27  1  0  0  0  0
 16 27  1  0  0  0  0
 16 30  2  0  0  0  0
 16 32  1  0  0  0  0
 17 19  2  0  0  0  0
 17 39  1  0  0  0  0
 18 20  2  0  0  0  0
 18 40  1  0  0  0  0
 19 48  1  0  0  0  0
 20 41  1  0  0  0  0
 21 83  1  0  0  0  0
 22 84  1  0  0  0  0
 23 25  2  0  0  0  0
 23 83  1  0  0  0  0
 24 85  1  0  0  0  0
 25 86  1  0  0  0  0
 26 28  2  0  0  0  0
 26 29  1  0  0  0  0
 26 87  1  0  0  0  0
 27 62  2  0  0  0  0
 28 33  1  0  0  0  0
 28 63  1  0  0  0  0
 29 64  2  0  0  0  0
 29 68  1  0  0  0  0
 30 65  1  0  0  0  0
 30 69  1  0  0  0  0
 31 63  2  0  0  0  0
 31 64  1  0  0  0  0
 31 71  1  0  0  0  0
 32 70  1  0  0  0  0
 32 76  2  0  0  0  0
 33 72  1  0  0  0  0
 33 77  2  0  0  0  0
 34 49  1  0  0  0  0
 34 73  1  0  0  0  0
 34 78  2  0  0  0  0
 35 57  1  0  0  0  0
 35 58  1  0  0  0  0
 35 79  2  0  0  0  0
 36 59  1  0  0  0  0
 36 66  1  0  0  0  0
 36 80  2  0  0  0  0
 37 60  1  0  0  0  0
 37 74  1  0  0  0  0
 37 81  2  0  0  0  0
 38 67  1  0  0  0  0
 38 71  1  0  0  0  0
 38 82  2  0  0  0  0
 39 42  1  0  0  0  0
 40 49  1  0  0  0  0
 41 66  1  0  0  0  0
 42 44  1  0  0  0  0
 43 45  1  0  0  0  0
 43 46  1  0  0  0  0
 44 48  1  0  0  0  0
 45 50  1  0  0  0  0
 46 67  1  0  0  0  0
 47 50  1  0  0  0  0
 47 67  1  0  0  0  0
 48 73  1  0  0  0  0
 49 66  1  0  0  0  0
 50 65  1  0  0  0  0
 51 58  1  0  0  0  0
 52 60  1  0  0  0  0
 53 61  1  0  0  0  0
 54 61  1  0  0  0  0
 55 61  1  0  0  0  0
 56 75  1  0  0  0  0
 57 72  1  0  0  0  0
 58 84  1  0  0  0  0
 59 61  1  0  0  0  0
 59 74  1  0  0  0  0
 60 75  1  0  0  0  0
 62 65  1  0  0  0  0
M  CHG  1  75   1
M  ISO  4  38 100  58 101  71 100  84 101
M  END
> <Batch ID>
0179

> <Smiles>
CNC(C)C(=O)NC(C(=O)N1Cc2cc([101O:1][101CH:1](C)C(=O)CNC(=O)c3nc([100NH:0][100C:0](=O)N4CCCC(n5nc(-c6ccc(Oc7ccc(F)cc7F)cc6)c(C(N)=O)c5N)C4)nc(N)c3F)ccc2CC1C(=O)NC1CCCc2ccccc21)C(C)(C)C

> <Shape>
0.195

> <Color>
0.176

> <Negative vol penalty>
0.000

$$$$

  -OEChem-04052304473D

 88 96  0     1  0  0  0  0  0999 V2000
  -31.8233  -26.0597   23.0184 C   0  0  0  0  0  0  0  0  0  0  0  0
  -30.5044  -25.6286   22.9177 C   0  0  0  0  0  0  0  0  0  0  0  0
  -27.6810  -27.2911   16.7835 C   0  0  0  0  0  0  0  0  0  0  0  0
  -29.4999  -26.8464   18.3102 C   0  0  0  0  0  0  0  0  0  0  0  0
  -32.8066  -25.4852   22.2140 C   0  0  0  0  0  0  0  0  0  0  0  0
  -30.1679  -24.6235   22.0117 C   0  0  0  0  0  0  0  0  0  0  0  0
  -27.0912  -21.1422   24.0267 C   0  0  0  0  0  0  0  0  0  0  0  0
  -28.5590  -27.1808   15.7053 C   0  0  0  0  0  0  0  0  0  0  0  0
  -30.3779  -26.7361   17.2320 C   0  0  0  0  0  0  0  0  0  0  0  0
  -25.7429  -21.4764   24.1457 C   0  0  0  0  0  0  0  0  0  0  0  0
  -30.0333  -24.7048   13.9366 C   0  0  0  0  0  0  0  0  0  0  0  0
  -29.6168  -23.9569   12.8353 C   0  0  0  0  0  0  0  0  0  0  0  0
  -20.4934  -27.2773   22.9947 C   0  0  0  0  0  0  0  0  0  0  0  0
  -25.2595  -20.2120   22.1490 C   0  0  0  0  0  0  0  0  0  0  0  0
  -18.5270  -26.2236   22.0673 C   0  0  0  0  0  0  0  0  0  0  0  0
  -29.8346  -25.9084   11.4277 C   0  0  0  0  0  0  0  0  0  0  0  0
  -28.1514  -27.1239   18.0860 C   0  0  0  0  0  0  0  0  0  0  0  0
  -19.9116  -28.5306   22.8042 C   0  0  0  0  0  0  0  0  0  0  0  0
  -26.4942  -26.2064   19.7946 C   0  0  0  0  0  0  0  0  0  0  0  0
  -32.4836  -24.4658   21.3045 C   0  0  0  0  0  0  0  0  0  0  0  0
  -27.5362  -20.3480   22.9601 C   0  0  0  0  0  0  0  0  0  0  0  0
  -31.1475  -24.0357   21.1934 C   0  0  0  0  0  0  0  0  0  0  0  0
  -26.6136  -19.8670   22.0202 C   0  0  0  0  0  0  0  0  0  0  0  0
  -18.6375  -28.6305   22.2453 C   0  0  0  0  0  0  0  0  0  0  0  0
  -19.8011  -26.1237   22.6262 C   0  0  0  0  0  0  0  0  0  0  0  0
  -17.9452  -27.4769   21.8769 C   0  0  0  0  0  0  0  0  0  0  0  0
  -29.9074  -26.9033   15.9295 C   0  0  0  0  0  0  0  0  0  0  0  0
  -24.8273  -21.0137   23.2051 C   0  0  0  0  0  0  0  0  0  0  0  0
  -30.3503  -26.0545   13.7835 C   0  0  0  0  0  0  0  0  0  0  0  0
  -29.5175  -24.5587   11.5809 C   0  0  0  0  0  0  0  0  0  0  0  0
  -30.2510  -26.6563   12.5290 C   0  0  0  0  0  0  0  0  0  0  0  0
  -27.2451  -27.2382   19.2002 C   0  0  0  0  0  0  0  0  0  0  0  0
  -25.7990  -26.8255   20.8045 C   0  0  0  0  0  0  0  0  0  0  0  0
  -23.1706  -22.6624   23.2942 C   0  0  0  0  0  0  0  0  0  1  0  0
  -20.6739  -29.7405   23.2065 C   0  0  0  0  0  0  0  0  0  0  0  0
  -26.4308  -24.8128   19.4635 C   0  0  0  0  0  0  0  0  0  0  0  0
  -21.9083  -23.0953   23.3977 C   0  0  0  0  0  0  0  0  0  0  0  0
  -21.6393  -24.5698   23.3588 C   0  0  0  0  0  0  0  0  0  0  0  0
  -29.5469  -20.7712   20.5348 C   0  0  0  0  0  0  0  0  0  0  0  0
  -28.9755  -17.6199   20.0200 C   0  0  0  0  0  0  0  0  0  0  0  0
  -26.8899  -14.9494   20.4268 C   0  0  0  0  0  0  0  0  0  0  0  0
  -22.7492  -31.0145   22.7664 C   0  0  0  0  0  0  0  0  0  0  0  0
  -33.5725  -23.9081   20.4225 C   0  0  0  0  0  0  0  0  0  0  0  0
  -28.9898  -19.9743   22.8608 C   0  0  0  0  0  0  0  0  0  0  0  0
  -27.0372  -18.9945   20.8678 C   0  0  0  0  0  0  0  0  0  0  0  0
  -33.1985  -22.5874   19.7544 C   0  0  0  0  0  0  0  0  0  0  0  0
  -26.2534  -31.4810   22.7472 C   0  0  0  0  0  0  0  0  0  0  0  0
  -31.7985  -22.6704   19.1544 C   0  0  0  0  0  0  0  0  0  0  0  0
  -26.7662  -30.3296   21.8780 C   0  0  0  0  0  0  0  0  0  0  0  0
  -24.9357  -32.0470   22.2196 C   0  0  0  0  0  0  0  0  0  0  0  0
  -24.3902  -29.9093   21.1283 C   0  0  0  0  0  0  0  0  0  0  0  0
  -30.7474  -22.9306   20.2402 C   0  0  1  0  0  0  0  0  0  0  0  0
  -29.4116  -19.5852   21.4473 C   0  0  1  0  0  0  0  0  0  0  0  0
  -25.6785  -29.2591   21.6580 C   0  0  1  0  0  0  0  0  0  0  0  0
  -18.0139  -29.9760   22.0410 C   0  0  0  0  0  0  0  0  0  0  0  0
  -26.6758  -12.5134   19.8635 C   0  0  0  0  0  0  0  0  0  0  0  0
  -28.2376  -18.3507   17.1510 C   0  0  0  0  0  0  0  0  0  0  0  0
  -27.1501  -16.1061   16.9328 C   0  0  0  0  0  0  0  0  0  0  0  0
  -29.5992  -16.2654   17.3791 C   0  0  0  0  0  0  0  0  0  0  0  0
  -15.6706  -26.5335   21.4746 C   0  0  0  0  0  0  0  0  0  0  0  0
  -26.8334  -14.1749   23.2826 C   0  0  0  0  0  0  0  0  0  0  0  0
  -27.9640  -16.8332   19.2219 C   0  0  1  0  0  0  0  0  0  0  0  0
  -27.1521  -13.5281   20.8912 C   0  0  2  0  0  0  0  0  0  0  0  0
  -28.2297  -16.9069   17.6917 C   0  0  0  0  0  0  0  0  0  0  0  0
  -27.0456  -28.4230   19.7838 N   0  0  0  0  0  0  0  0  0  0  0  0
  -26.1614  -28.1395   20.7553 N   0  0  0  0  0  0  0  0  0  0  0  0
  -28.4702  -18.6618   20.8106 N   0  0  0  0  0  0  0  0  0  0  0  0
  -23.9568  -30.9720   22.0478 N   0  0  0  0  0  0  0  0  0  0  0  0
  -24.9192  -26.3688   21.7208 N   0  0  0  0  0  0  0  0  0  0  0  0
  -27.2099  -24.3433   18.3973 N   0  0  0  0  0  0  0  0  0  0  0  0
  -20.3917  -24.8516   22.8193 N   0  0  0  0  0  0  0  0  0  0  0  0
  -16.6542  -27.5569   21.3093 N   0  0  0  0  0  0  0  0  0  0  0  0
  -21.9001  -29.9205   22.5658 N   0  0  0  0  0  0  0  0  0  0  0  0
  -30.4606  -21.7130   20.9680 N   0  0  0  0  0  0  0  0  0  0  0  0
  -27.9778  -15.4798   19.7663 N   0  0  0  0  0  0  0  0  0  0  0  0
  -26.4439  -13.2640   22.1756 N   0  3  0  0  0  0  0  0  0  0  0  0
  -20.1819  -30.5126   24.0249 O   0  0  0  0  0  0  0  0  0  0  0  0
  -25.6923  -24.0109   20.0840 O   0  0  0  0  0  0  0  0  0  0  0  0
  -22.4691  -25.3727   23.7719 O   0  0  0  0  0  0  0  0  0  0  0  0
  -28.8734  -20.8270   19.5126 O   0  0  0  0  0  0  0  0  0  0  0  0
  -30.1691  -17.3164   19.9504 O   0  0  0  0  0  0  0  0  0  0  0  0
  -25.8250  -15.5297   20.6265 O   0  0  0  0  0  0  0  0  0  0  0  0
  -22.4678  -31.9281   23.5483 O   0  0  0  0  0  0  0  0  0  0  0  0
  -20.8380  -22.2353   23.5381 O   0  0  0  0  0  0  0  0  0  0  0  0
  -30.7644  -26.7954   14.8776 O   0  0  0  0  0  0  0  0  0  0  0  0
  -23.5108  -21.3390   23.3185 O   0  0  0  0  0  0  0  0  0  1  0  0
  -29.1190  -23.8400   10.5231 F   0  0  0  0  0  0  0  0  0  0  0  0
  -30.5554  -27.9523   12.3755 F   0  0  0  0  0  0  0  0  0  0  0  0
  1  2  1  0  0  0  0
  1  5  2  0  0  0  0
  2  6  2  0  0  0  0
  3  8  2  0  0  0  0
  3 17  1  0  0  0  0
  4  9  1  0  0  0  0
  4 17  2  0  0  0  0
  5 20  1  0  0  0  0
  6 22  1  0  0  0  0
  7 10  2  0  0  0  0
  7 21  1  0  0  0  0
  8 27  1  0  0  0  0
  9 27  2  0  0  0  0
 10 28  1  0  0  0  0
 11 12  2  0  0  0  0
 11 29  1  0  0  0  0
 12 30  1  0  0  0  0
 13 18  2  0  0  0  0
 13 25  1  0  0  0  0
 14 23  1  0  0  0  0
 14 28  2  0  0  0  0
 15 25  2  0  0  0  0
 15 26  1  0  0  0  0
 16 30  2  0  0  0  0
 16 31  1  0  0  0  0
 17 32  1  0  0  0  0
 18 24  1  0  0  0  0
 18 35  1  0  0  0  0
 19 32  1  0  0  0  0
 19 33  2  0  0  0  0
 19 36  1  0  0  0  0
 20 22  2  0  0  0  0
 20 43  1  0  0  0  0
 21 23  2  0  0  0  0
 21 44  1  0  0  0  0
 22 52  1  0  0  0  0
 23 45  1  0  0  0  0
 24 26  2  0  0  0  0
 24 55  1  0  0  0  0
 25 71  1  0  0  0  0
 26 72  1  0  0  0  0
 27 85  1  0  0  0  0
 28 86  1  0  0  0  0
 29 31  2  0  0  0  0
 29 85  1  0  0  0  0
 30 87  1  0  0  0  0
 31 88  1  0  0  0  0
 32 65  2  0  0  0  0
 33 66  1  0  0  0  0
 33 69  1  0  0  0  0
 34 37  2  0  0  0  0
 34 86  1  0  0  0  0
 35 73  1  0  0  0  0
 35 77  2  0  0  0  0
 36 70  1  0  0  0  0
 36 78  2  0  0  0  0
 37 38  1  0  0  0  0
 37 84  1  0  0  0  0
 38 71  1  0  0  0  0
 38 79  2  0  0  0  0
 39 53  1  0  0  0  0
 39 74  1  0  0  0  0
 39 80  2  0  0  0  0
 40 62  1  0  0  0  0
 40 67  1  0  0  0  0
 40 81  2  0  0  0  0
 41 63  1  0  0  0  0
 41 75  1  0  0  0  0
 41 82  2  0  0  0  0
 42 68  1  0  0  0  0
 42 73  1  0  0  0  0
 42 83  2  0  0  0  0
 43 46  1  0  0  0  0
 44 53  1  0  0  0  0
 45 67  1  0  0  0  0
 46 48  1  0  0  0  0
 47 49  1  0  0  0  0
 47 50  1  0  0  0  0
 48 52  1  0  0  0  0
 49 54  1  0  0  0  0
 50 68  1  0  0  0  0
 51 54  1  0  0  0  0
 51 68  1  0  0  0  0
 52 74  1  0  0  0  0
 53 67  1  0  0  0  0
 54 66  1  0  0  0  0
 56 63  1  0  0  0  0
 57 64  1  0  0  0  0
 58 64  1  0  0  0  0
 59 64  1  0  0  0  0
 60 72  1  0  0  0  0
 61 76  1  0  0  0  0
 62 64  1  0  0  0  0
 62 75  1  0  0  0  0
 63 76  1  0  0  0  0
 65 66  1  0  0  0  0
M  CHG  1  76   1
M  ISO  4  34 101  42 100  73 100  86 101
M  END
> <Batch ID>
0179

> <Smiles>
CNc1cc(NC(=O)C(=O)[101CH2:1][101O:1]c2ccc3c(c2)CN(C(=O)C(NC(=O)C(C)NC)C(C)(C)C)C(C(=O)NC2CCCc4ccccc42)C3)cc(C(=O)[100NH:0][100C:0](=O)N2CCCC(n3nc(-c4ccc(Oc5ccc(F)cc5F)cc4)c(C(N)=O)c3N)C2)c1C

> <Shape>
0.211

> <Color>
0.081

> <Negative vol penalty>
0.000

$$$$

  -OEChem-04052304473D

 83 91  0     1  0  0  0  0  0999 V2000
  -17.5682  -23.2466   26.8185 C   0  0  0  0  0  0  0  0  0  0  0  0
  -18.9077  -22.9030   26.9704 C   0  0  0  0  0  0  0  0  0  0  0  0
  -22.8968   -9.9789   20.0400 C   0  0  0  0  0  0  0  0  0  0  0  0
  -23.6585  -10.0043   22.3327 C   0  0  0  0  0  0  0  0  0  0  0  0
  -17.1684  -24.0259   25.7337 C   0  0  0  0  0  0  0  0  0  0  0  0
  -19.8481  -23.3376   26.0370 C   0  0  0  0  0  0  0  0  0  0  0  0
  -25.6655  -24.9090   27.1295 C   0  0  0  0  0  0  0  0  0  0  0  0
  -22.0858   -8.8795   20.3217 C   0  0  0  0  0  0  0  0  0  0  0  0
  -22.8475   -8.9049   22.6143 C   0  0  0  0  0  0  0  0  0  0  0  0
  -26.8666  -24.2150   26.9900 C   0  0  0  0  0  0  0  0  0  0  0  0
  -22.9392   -5.5573   22.1498 C   0  0  0  0  0  0  0  0  0  0  0  0
  -23.4933   -4.5175   22.8963 C   0  0  0  0  0  0  0  0  0  0  0  0
  -27.1915  -25.2246   24.8234 C   0  0  0  0  0  0  0  0  0  0  0  0
  -21.8074   -4.8396   24.5965 C   0  0  0  0  0  0  0  0  0  0  0  0
  -23.6832  -10.5412   21.0455 C   0  0  0  0  0  0  0  0  0  0  0  0
  -24.1748  -13.0372   20.8554 C   0  0  0  0  0  0  0  0  0  0  0  0
  -18.1058  -24.4783   24.7917 C   0  0  0  0  0  0  0  0  0  0  0  0
  -25.2122  -25.7591   26.1105 C   0  0  0  0  0  0  0  0  0  0  0  0
  -19.4602  -24.1225   24.9378 C   0  0  0  0  0  0  0  0  0  0  0  0
  -25.9856  -25.9302   24.9535 C   0  0  0  0  0  0  0  0  0  0  0  0
  -22.0611   -8.3426   21.6088 C   0  0  0  0  0  0  0  0  0  0  0  0
  -27.6284  -24.3705   25.8357 C   0  0  0  0  0  0  0  0  0  0  0  0
  -21.8191   -6.2384   22.6267 C   0  0  0  0  0  0  0  0  0  0  0  0
  -22.9274   -4.1586   24.1196 C   0  0  0  0  0  0  0  0  0  0  0  0
  -21.2532   -5.8795   23.8500 C   0  0  0  0  0  0  0  0  0  0  0  0
  -24.5216  -11.6765   20.7551 C   0  0  0  0  0  0  0  0  0  0  0  0
  -32.1483  -18.3609   22.1062 C   0  0  0  0  0  0  0  0  0  0  0  0
  -25.3093  -13.7098   20.4719 C   0  0  0  0  0  0  0  0  0  0  0  0
  -31.0715  -18.8137   22.8395 C   0  0  0  0  0  0  0  0  0  0  0  0
  -30.8057  -16.6522   21.8099 C   0  0  0  0  0  0  0  0  0  0  0  0
  -28.7647  -22.4563   25.1178 C   0  0  0  0  0  0  0  0  0  1  0  0
  -22.9379  -13.6393   21.2593 C   0  0  0  0  0  0  0  0  0  0  0  0
  -29.8558  -21.7037   24.9316 C   0  0  0  0  0  0  0  0  0  0  0  0
  -29.7102  -20.3586   24.2853 C   0  0  0  0  0  0  0  0  0  0  0  0
  -22.6563  -25.8331   24.2223 C   0  0  0  0  0  0  0  0  0  0  0  0
  -23.9066  -28.6790   23.2950 C   0  0  0  0  0  0  0  0  0  0  0  0
  -26.6603  -30.6712   22.9872 C   0  0  0  0  0  0  0  0  0  0  0  0
  -30.8283  -14.4319   20.6199 C   0  0  0  0  0  0  0  0  0  0  0  0
  -17.6189  -25.2788   23.6099 C   0  0  0  0  0  0  0  0  0  0  0  0
  -23.9276  -26.5212   26.2878 C   0  0  0  0  0  0  0  0  0  0  0  0
  -25.5532  -26.8465   23.8390 C   0  0  0  0  0  0  0  0  0  0  0  0
  -18.7345  -26.0124   22.8699 C   0  0  0  0  0  0  0  0  0  0  0  0
  -29.5690  -12.0241   18.3191 C   0  0  0  0  0  0  0  0  0  0  0  0
  -19.9195  -25.0818   22.6325 C   0  0  0  0  0  0  0  0  0  0  0  0
  -28.1151  -11.8310   18.7560 C   0  0  0  0  0  0  0  0  0  0  0  0
  -30.4977  -12.2312   19.5144 C   0  0  0  0  0  0  0  0  0  0  0  0
  -28.6390  -13.1061   20.8742 C   0  0  0  0  0  0  0  0  0  0  0  0
  -20.5137  -24.5956   23.9599 C   0  0  1  0  0  0  0  0  0  0  0  0
  -23.3085  -26.9643   24.9658 C   0  0  1  0  0  0  0  0  0  0  0  0
  -27.6561  -12.9586   19.7012 C   0  0  2  0  0  0  0  0  0  0  0  0
  -33.4246  -19.0769   21.9035 C   0  0  0  0  0  0  0  0  0  0  0  0
  -27.3754  -32.9292   22.1581 C   0  0  0  0  0  0  0  0  0  0  0  0
  -23.7391  -27.6734   20.4191 C   0  0  0  0  0  0  0  0  0  0  0  0
  -25.3010  -29.5149   19.7578 C   0  0  0  0  0  0  0  0  0  0  0  0
  -23.0697  -30.0629   20.7293 C   0  0  0  0  0  0  0  0  0  0  0  0
  -27.5799  -31.4960   25.6767 C   0  0  0  0  0  0  0  0  0  0  0  0
  -24.8768  -29.1234   22.2272 C   0  0  1  0  0  0  0  0  0  0  0  0
  -26.8990  -32.1240   23.3570 C   0  0  2  0  0  0  0  0  0  0  0  0
  -24.2541  -29.0748   20.8033 C   0  0  0  0  0  0  0  0  0  0  0  0
  -25.7780  -11.4938   20.3402 N   0  0  0  0  0  0  0  0  0  0  0  0
  -31.9978  -17.1215   21.5155 N   0  0  0  0  0  0  0  0  0  0  0  0
  -26.2306  -12.7486   20.1764 N   0  0  0  0  0  0  0  0  0  0  0  0
  -24.2867  -27.5649   24.0567 N   0  0  0  0  0  0  0  0  0  0  0  0
  -30.0022  -13.3174   20.3625 N   0  0  0  0  0  0  0  0  0  0  0  0
  -25.5986  -15.0238   20.3620 N   0  0  0  0  0  0  0  0  0  0  0  0
  -21.8740  -12.8018   21.6213 N   0  0  0  0  0  0  0  0  0  0  0  0
  -30.8477  -20.0035   23.5734 N   0  0  0  0  0  0  0  0  0  0  0  0
  -30.2383  -15.4163   21.4121 N   0  0  0  0  0  0  0  0  0  0  0  0
  -21.3310  -25.6301   24.5568 N   0  0  0  0  0  0  0  0  0  0  0  0
  -25.3485  -30.4443   22.6284 N   0  0  0  0  0  0  0  0  0  0  0  0
  -27.9293  -32.2231   24.4292 N   0  3  0  0  0  0  0  0  0  0  0  0
  -22.7755  -14.8829   21.2823 O   0  0  0  0  0  0  0  0  0  0  0  0
  -28.6798  -19.7062   24.4137 O   0  0  0  0  0  0  0  0  0  0  0  0
  -23.3068  -25.1929   23.4047 O   0  0  0  0  0  0  0  0  0  0  0  0
  -22.8535  -29.3019   23.4524 O   0  0  0  0  0  0  0  0  0  0  0  0
  -27.5497  -29.8232   23.0105 O   0  0  0  0  0  0  0  0  0  0  0  0
  -31.9649  -14.5200   20.1483 O   0  0  0  0  0  0  0  0  0  0  0  0
  -31.1166  -22.1177   25.3109 O   0  0  0  0  0  0  0  0  0  0  0  0
  -21.2697   -7.2700   21.8840 O   0  0  0  0  0  0  0  0  0  0  0  0
  -28.8008  -23.6937   25.6967 O   0  0  0  0  0  0  0  0  0  1  0  0
  -23.4587   -3.1590   24.8356 F   0  0  0  0  0  0  0  0  0  0  0  0
  -20.1765   -6.5293   24.3128 F   0  0  0  0  0  0  0  0  0  0  0  0
  -29.8132  -17.6493   22.7927 S   0  0  0  0  0  0  0  0  0  0  0  0
  1  2  1  0  0  0  0
  1  5  2  0  0  0  0
  2  6  2  0  0  0  0
  3  8  2  0  0  0  0
  3 15  1  0  0  0  0
  4  9  1  0  0  0  0
  4 15  2  0  0  0  0
  5 17  1  0  0  0  0
  6 19  1  0  0  0  0
  7 10  2  0  0  0  0
  7 18  1  0  0  0  0
  8 21  1  0  0  0  0
  9 21  2  0  0  0  0
 10 22  1  0  0  0  0
 11 12  2  0  0  0  0
 11 23  1  0  0  0  0
 12 24  1  0  0  0  0
 13 20  1  0  0  0  0
 13 22  2  0  0  0  0
 14 24  2  0  0  0  0
 14 25  1  0  0  0  0
 15 26  1  0  0  0  0
 16 26  1  0  0  0  0
 16 28  2  0  0  0  0
 16 32  1  0  0  0  0
 17 19  2  0  0  0  0
 17 39  1  0  0  0  0
 18 20  2  0  0  0  0
 18 40  1  0  0  0  0
 19 48  1  0  0  0  0
 20 41  1  0  0  0  0
 21 79  1  0  0  0  0
 22 80  1  0  0  0  0
 23 25  2  0  0  0  0
 23 79  1  0  0  0  0
 24 81  1  0  0  0  0
 25 82  1  0  0  0  0
 26 60  2  0  0  0  0
 27 29  2  0  0  0  0
 27 51  1  0  0  0  0
 27 61  1  0  0  0  0
 28 62  1  0  0  0  0
 28 65  1  0  0  0  0
 29 67  1  0  0  0  0
 29 83  1  0  0  0  0
 30 61  2  0  0  0  0
 30 68  1  0  0  0  0
 30 83  1  0  0  0  0
 31 33  2  0  0  0  0
 31 80  1  0  0  0  0
 32 66  1  0  0  0  0
 32 72  2  0  0  0  0
 33 34  1  0  0  0  0
 33 78  1  0  0  0  0
 34 67  1  0  0  0  0
 34 73  2  0  0  0  0
 35 49  1  0  0  0  0
 35 69  1  0  0  0  0
 35 74  2  0  0  0  0
 36 57  1  0  0  0  0
 36 63  1  0  0  0  0
 36 75  2  0  0  0  0
 37 58  1  0  0  0  0
 37 70  1  0  0  0  0
 37 76  2  0  0  0  0
 38 64  1  0  0  0  0
 38 68  1  0  0  0  0
 38 77  2  0  0  0  0
 39 42  1  0  0  0  0
 40 49  1  0  0  0  0
 41 63  1  0  0  0  0
 42 44  1  0  0  0  0
 43 45  1  0  0  0  0
 43 46  1  0  0  0  0
 44 48  1  0  0  0  0
 45 50  1  0  0  0  0
 46 64  1  0  0  0  0
 47 50  1  0  0  0  0
 47 64  1  0  0  0  0
 48 69  1  0  0  0  0
 49 63  1  0  0  0  0
 50 62  1  0  0  0  0
 52 58  1  0  0  0  0
 53 59  1  0  0  0  0
 54 59  1  0  0  0  0
 55 59  1  0  0  0  0
 56 71  1  0  0  0  0
 57 59  1  0  0  0  0
 57 70  1  0  0  0  0
 58 71  1  0  0  0  0
 60 62  1  0  0  0  0
M  CHG  1  71   1
M  ISO  4  31 101  38 100  68 100  80 101
M  END
> <Batch ID>
0179

> <Smiles>
CNC(C)C(=O)NC(C(=O)N1Cc2cc([101O:1][101CH2:1]C(=O)C(=O)Nc3sc([100NH:0][100C:0](=O)N4CCCC(n5nc(-c6ccc(Oc7ccc(F)cc7F)cc6)c(C(N)=O)c5N)C4)nc3C)ccc2CC1C(=O)NC1CCCc2ccccc21)C(C)(C)C

> <Shape>
0.273

> <Color>
0.198

> <Negative vol penalty>
0.000

$$$$

  -OEChem-04052304473D

 85 93  0     1  0  0  0  0  0999 V2000
  -28.9149  -24.6660   17.0706 C   0  0  0  0  0  0  0  0  0  0  0  0
  -27.7127  -24.7677   17.7632 C   0  0  0  0  0  0  0  0  0  0  0  0
  -25.7690  -13.5932   19.1731 C   0  0  0  0  0  0  0  0  0  0  0  0
  -24.3144  -13.7691   21.0941 C   0  0  0  0  0  0  0  0  0  0  0  0
  -30.0512  -25.3167   17.5496 C   0  0  0  0  0  0  0  0  0  0  0  0
  -27.6463  -25.5192   18.9359 C   0  0  0  0  0  0  0  0  0  0  0  0
  -23.5448  -28.4842   19.1136 C   0  0  0  0  0  0  0  0  0  0  0  0
  -25.9516  -12.2355   19.4356 C   0  0  0  0  0  0  0  0  0  0  0  0
  -24.4970  -12.4114   21.3566 C   0  0  0  0  0  0  0  0  0  0  0  0
  -22.3338  -27.8768   19.4428 C   0  0  0  0  0  0  0  0  0  0  0  0
  -23.3252   -9.4688   20.1783 C   0  0  0  0  0  0  0  0  0  0  0  0
  -22.1951   -8.7129   20.4902 C   0  0  0  0  0  0  0  0  0  0  0  0
  -22.5553  -28.6768   21.7078 C   0  0  0  0  0  0  0  0  0  0  0  0
  -22.8945  -23.9418   24.3720 C   0  0  0  0  0  0  0  0  0  0  0  0
  -23.1593   -8.1562   22.6344 C   0  0  0  0  0  0  0  0  0  0  0  0
  -24.9505  -14.3601   20.0024 C   0  0  0  0  0  0  0  0  0  0  0  0
  -23.7670  -16.3468   18.9254 C   0  0  0  0  0  0  0  0  0  0  0  0
  -29.9964  -26.0845   18.7235 C   0  0  0  0  0  0  0  0  0  0  0  0
  -24.2767  -29.1844   20.0833 C   0  0  0  0  0  0  0  0  0  0  0  0
  -28.7832  -26.1797   19.4318 C   0  0  0  0  0  0  0  0  0  0  0  0
  -23.7740  -29.2943   21.3877 C   0  0  0  0  0  0  0  0  0  0  0  0
  -24.0329  -23.4540   25.0765 C   0  0  0  0  0  0  0  0  0  0  0  0
  -25.3155  -11.6446   20.5274 C   0  0  0  0  0  0  0  0  0  0  0  0
  -21.8403  -27.9706   20.7408 C   0  0  0  0  0  0  0  0  0  0  0  0
  -24.3723   -9.5683   21.0945 C   0  0  0  0  0  0  0  0  0  0  0  0
  -22.1121   -8.0567   21.7182 C   0  0  0  0  0  0  0  0  0  0  0  0
  -24.2894   -8.9120   22.3225 C   0  0  0  0  0  0  0  0  0  0  0  0
  -24.7620  -15.7627   19.7321 C   0  0  0  0  0  0  0  0  0  0  0  0
  -24.0180  -17.6955   18.9931 C   0  0  0  0  0  0  0  0  0  0  0  0
  -23.2369  -24.5055   23.1626 C   0  0  0  0  0  0  0  0  0  0  0  0
  -25.2020  -23.6632   24.3785 C   0  0  0  0  0  0  0  0  0  0  0  0
  -22.7102  -15.7258   18.1816 C   0  0  0  0  0  0  0  0  0  0  0  0
  -27.1560  -28.8576   21.3897 C   0  0  0  0  0  0  0  0  0  0  0  0
  -26.4076  -31.6810   22.8007 C   0  0  0  0  0  0  0  0  0  0  0  0
  -23.9844  -33.8421   23.8518 C   0  0  0  0  0  0  0  0  0  0  0  0
  -21.0559  -25.2734   22.1662 C   0  0  0  0  0  0  0  0  0  0  0  0
  -26.6249  -21.0238   23.0995 C   0  0  0  0  0  0  0  0  0  0  0  0
  -31.2622  -26.7309   19.2280 C   0  0  0  0  0  0  0  0  0  0  0  0
  -25.5681  -29.8566   19.7055 C   0  0  0  0  0  0  0  0  0  0  0  0
  -24.5114  -30.0518   22.4605 C   0  0  0  0  0  0  0  0  0  0  0  0
  -31.0175  -27.8141   20.2753 C   0  0  0  0  0  0  0  0  0  0  0  0
  -27.5868  -20.8160   19.6290 C   0  0  0  0  0  0  0  0  0  0  0  0
  -30.0253  -27.3262   21.3261 C   0  0  0  0  0  0  0  0  0  0  0  0
  -26.8711  -19.5380   19.1890 C   0  0  0  0  0  0  0  0  0  0  0  0
  -28.1246  -20.6920   21.0523 C   0  0  0  0  0  0  0  0  0  0  0  0
  -26.3856  -19.0411   21.6261 C   0  0  0  0  0  0  0  0  0  0  0  0
  -28.6653  -27.0059   20.6942 C   0  0  1  0  0  0  0  0  0  0  0  0
  -26.4825  -30.1085   20.9004 C   0  0  1  0  0  0  0  0  0  0  0  0
  -25.7939  -19.1227   20.2079 C   0  0  2  0  0  0  0  0  0  0  0  0
  -23.9605  -22.7988   26.4034 C   0  0  0  0  0  0  0  0  0  0  0  0
  -23.6793  -36.0505   25.0038 C   0  0  0  0  0  0  0  0  0  0  0  0
  -19.1380  -25.5844   20.5586 C   0  0  0  0  0  0  0  0  0  0  0  0
  -27.0521  -30.3700   25.4794 C   0  0  0  0  0  0  0  0  0  0  0  0
  -25.8467  -32.2503   26.6107 C   0  0  0  0  0  0  0  0  0  0  0  0
  -27.8788  -32.7182   25.2416 C   0  0  0  0  0  0  0  0  0  0  0  0
  -22.6269  -35.0140   21.4975 C   0  0  0  0  0  0  0  0  0  0  0  0
  -25.7222  -32.0867   24.0831 C   0  0  1  0  0  0  0  0  0  0  0  0
  -23.8214  -35.3399   23.6667 C   0  0  2  0  0  0  0  0  0  0  0  0
  -20.5728  -25.9641   20.8934 C   0  0  1  0  0  0  0  0  0  1  0  0
  -26.6118  -31.8403   25.3342 C   0  0  0  0  0  0  0  0  0  0  0  0
  -25.5839  -16.6663   20.2723 N   0  0  0  0  0  0  0  0  0  0  0  0
  -25.1059  -17.8319   19.8042 N   0  0  0  0  0  0  0  0  0  0  0  0
  -25.7727  -30.6864   22.0434 N   0  0  0  0  0  0  0  0  0  0  0  0
  -27.0524  -20.3002   21.9745 N   0  0  0  0  0  0  0  0  0  0  0  0
  -23.4121  -18.7661   18.4372 N   0  0  0  0  0  0  0  0  0  0  0  0
  -22.5959  -14.3295   18.2219 N   0  0  0  0  0  0  0  0  0  0  0  0
  -22.4364  -25.1026   22.1598 N   0  0  0  0  0  0  0  0  0  0  0  0
  -27.9288  -28.2244   20.4351 N   0  0  0  0  0  0  0  0  0  0  0  0
  -25.3126  -33.4756   23.9053 N   0  0  0  0  0  0  0  0  0  0  0  0
  -27.2785  -22.2720   23.3857 N   0  0  0  0  0  0  0  0  0  0  0  0
  -22.6107  -35.6320   22.8483 N   0  3  0  0  0  0  0  0  0  0  0  0
  -21.9016  -16.3882   17.4881 O   0  0  0  0  0  0  0  0  0  0  0  0
  -26.9881  -28.4946   22.5481 O   0  0  0  0  0  0  0  0  0  0  0  0
  -27.4636  -32.2315   22.4790 O   0  0  0  0  0  0  0  0  0  0  0  0
  -23.0291  -33.0744   23.9437 O   0  0  0  0  0  0  0  0  0  0  0  0
  -20.2703  -24.9510   23.0528 O   0  0  0  0  0  0  0  0  0  0  0  0
  -25.7141  -20.6262   23.8270 O   0  0  0  0  0  0  0  0  0  0  0  0
  -27.6293  -24.5412   24.5741 O   0  0  0  0  0  0  0  0  0  0  0  0
  -26.9659  -22.5323   25.9407 O   0  0  0  0  0  0  0  0  0  0  0  0
  -25.4932  -10.3197   20.7837 O   0  0  0  0  0  0  0  0  0  0  0  0
  -20.6589  -27.3781   21.0650 O   0  0  0  0  0  0  0  0  0  1  0  0
  -21.0262   -7.3321   22.0182 F   0  0  0  0  0  0  0  0  0  0  0  0
  -25.2916   -9.0049   23.2071 F   0  0  0  0  0  0  0  0  0  0  0  0
  -24.9248  -24.4451   22.8805 S   0  0  0  0  0  0  0  0  0  0  0  0
  -26.8988  -23.2958   24.7096 S   0  0  0  0  0  0  0  0  0  0  0  0
  1  2  1  0  0  0  0
  1  5  2  0  0  0  0
  2  6  2  0  0  0  0
  3  8  2  0  0  0  0
  3 16  1  0  0  0  0
  4  9  1  0  0  0  0
  4 16  2  0  0  0  0
  5 18  1  0  0  0  0
  6 20  1  0  0  0  0
  7 10  2  0  0  0  0
  7 19  1  0  0  0  0
  8 23  1  0  0  0  0
  9 23  2  0  0  0  0
 10 24  1  0  0  0  0
 11 12  2  0  0  0  0
 11 25  1  0  0  0  0
 12 26  1  0  0  0  0
 13 21  1  0  0  0  0
 13 24  2  0  0  0  0
 14 22  1  0  0  0  0
 14 30  2  0  0  0  0
 15 26  2  0  0  0  0
 15 27  1  0  0  0  0
 16 28  1  0  0  0  0
 17 28  1  0  0  0  0
 17 29  2  0  0  0  0
 17 32  1  0  0  0  0
 18 20  2  0  0  0  0
 18 38  1  0  0  0  0
 19 21  2  0  0  0  0
 19 39  1  0  0  0  0
 20 47  1  0  0  0  0
 21 40  1  0  0  0  0
 22 31  2  0  0  0  0
 22 50  1  0  0  0  0
 23 80  1  0  0  0  0
 24 81  1  0  0  0  0
 25 27  2  0  0  0  0
 25 80  1  0  0  0  0
 26 82  1  0  0  0  0
 27 83  1  0  0  0  0
 28 61  2  0  0  0  0
 29 62  1  0  0  0  0
 29 65  1  0  0  0  0
 30 67  1  0  0  0  0
 30 84  1  0  0  0  0
 31 84  1  0  0  0  0
 31 85  1  0  0  0  0
 32 66  1  0  0  0  0
 32 72  2  0  0  0  0
 33 48  1  0  0  0  0
 33 68  1  0  0  0  0
 33 73  2  0  0  0  0
 34 57  1  0  0  0  0
 34 63  1  0  0  0  0
 34 74  2  0  0  0  0
 35 58  1  0  0  0  0
 35 69  1  0  0  0  0
 35 75  2  0  0  0  0
 36 59  1  0  0  0  0
 36 67  1  0  0  0  0
 36 76  2  0  0  0  0
 37 64  1  0  0  0  0
 37 70  1  0  0  0  0
 37 77  2  0  0  0  0
 38 41  1  0  0  0  0
 39 48  1  0  0  0  0
 40 63  1  0  0  0  0
 41 43  1  0  0  0  0
 42 44  1  0  0  0  0
 42 45  1  0  0  0  0
 43 47  1  0  0  0  0
 44 49  1  0  0  0  0
 45 64  1  0  0  0  0
 46 49  1  0  0  0  0
 46 64  1  0  0  0  0
 47 68  1  0  0  0  0
 48 63  1  0  0  0  0
 49 62  1  0  0  0  0
 51 58  1  0  0  0  0
 52 59  1  0  0  0  0
 53 60  1  0  0  0  0
 54 60  1  0  0  0  0
 55 60  1  0  0  0  0
 56 71  1  0  0  0  0
 57 60  1  0  0  0  0
 57 69  1  0  0  0  0
 58 71  1  0  0  0  0
 59 81  1  0  0  0  0
 61 62  1  0  0  0  0
 70 85  1  0  0  0  0
 78 85  2  0  0  0  0
 79 85  2  0  0  0  0
M  CHG  1  71   1
M  ISO  4  37 100  59 101  70 100  81 101
M  END
> <Batch ID>
0179

> <Smiles>
CNC(C)C(=O)NC(C(=O)N1Cc2cc([101O:1][101CH:1](C)C(=O)Nc3cc(C)c(S(=O)(=O)[100NH:0][100C:0](=O)N4CCCC(n5nc(-c6ccc(Oc7ccc(F)cc7F)cc6)c(C(N)=O)c5N)C4)s3)ccc2CC1C(=O)NC1CCCc2ccccc21)C(C)(C)C

> <Shape>
0.290

> <Color>
0.082

> <Negative vol penalty>
0.000

$$$$

  -OEChem-04052304473D

 85 93  0     1  0  0  0  0  0999 V2000
  -24.4454  -34.2777   28.4332 C   0  0  0  0  0  0  0  0  0  0  0  0
  -24.6222  -32.8980   28.4083 C   0  0  0  0  0  0  0  0  0  0  0  0
  -23.0890   -9.8114   19.9530 C   0  0  0  0  0  0  0  0  0  0  0  0
  -23.7632   -9.9250   22.2702 C   0  0  0  0  0  0  0  0  0  0  0  0
  -24.0146  -34.9449   27.2873 C   0  0  0  0  0  0  0  0  0  0  0  0
  -24.3672  -32.1845   27.2377 C   0  0  0  0  0  0  0  0  0  0  0  0
  -27.9761  -28.7838   26.2099 C   0  0  0  0  0  0  0  0  0  0  0  0
  -22.3526   -8.6581   20.2237 C   0  0  0  0  0  0  0  0  0  0  0  0
  -23.0268   -8.7717   22.5410 C   0  0  0  0  0  0  0  0  0  0  0  0
  -27.9524  -27.5920   26.9329 C   0  0  0  0  0  0  0  0  0  0  0  0
  -23.3848   -5.4345   22.1342 C   0  0  0  0  0  0  0  0  0  0  0  0
  -23.9876   -4.4494   22.9165 C   0  0  0  0  0  0  0  0  0  0  0  0
  -26.8969  -26.4875   25.0660 C   0  0  0  0  0  0  0  0  0  0  0  0
  -22.2218   -4.6669   24.5511 C   0  0  0  0  0  0  0  0  0  0  0  0
  -23.7943  -10.4448   20.9763 C   0  0  0  0  0  0  0  0  0  0  0  0
  -24.1049  -12.9679   20.7631 C   0  0  0  0  0  0  0  0  0  0  0  0
  -23.7634  -34.2405   26.0992 C   0  0  0  0  0  0  0  0  0  0  0  0
  -27.4496  -28.8392   24.9114 C   0  0  0  0  0  0  0  0  0  0  0  0
  -23.9313  -32.8428   26.0752 C   0  0  0  0  0  0  0  0  0  0  0  0
  -26.9175  -27.6807   24.3277 C   0  0  0  0  0  0  0  0  0  0  0  0
  -22.3215   -8.1383   21.5177 C   0  0  0  0  0  0  0  0  0  0  0  0
  -27.4101  -26.4443   26.3621 C   0  0  0  0  0  0  0  0  0  0  0  0
  -22.2005   -6.0358   22.5604 C   0  0  0  0  0  0  0  0  0  0  0  0
  -23.4061   -4.0656   24.1248 C   0  0  0  0  0  0  0  0  0  0  0  0
  -21.6190   -5.6520   23.7688 C   0  0  0  0  0  0  0  0  0  0  0  0
  -24.5556  -11.6359   20.6971 C   0  0  0  0  0  0  0  0  0  0  0  0
  -30.4737  -19.2729   22.8940 C   0  0  0  0  0  0  0  0  0  0  0  0
  -31.6075  -18.8927   22.2068 C   0  0  0  0  0  0  0  0  0  0  0  0
  -25.1991  -13.7186   20.4089 C   0  0  0  0  0  0  0  0  0  0  0  0
  -30.4085  -17.0836   21.8912 C   0  0  0  0  0  0  0  0  0  0  0  0
  -30.1725  -20.4825   23.5997 C   0  0  0  0  0  0  0  0  0  0  0  0
  -29.3857  -20.5472   24.6830 C   0  0  0  0  0  0  0  0  0  0  0  0
  -22.8126  -13.4807   21.1135 C   0  0  0  0  0  0  0  0  0  0  0  0
  -28.1080  -22.9933   27.1528 C   0  0  0  0  0  0  0  0  0  0  0  0
  -28.2611  -21.6434   26.5146 C   0  0  0  0  0  0  0  0  0  0  0  0
  -25.0829  -30.4383   23.5168 C   0  0  0  0  0  0  0  0  0  0  0  0
  -26.2665  -29.0701   20.8243 C   0  0  0  0  0  0  0  0  0  0  0  0
  -28.0469  -26.5254   19.4096 C   0  0  0  0  0  0  0  0  0  0  0  0
  -30.6399  -14.8555   20.7389 C   0  0  0  0  0  0  0  0  0  0  0  0
  -23.2538  -34.9991   24.8994 C   0  0  0  0  0  0  0  0  0  0  0  0
  -27.5070  -30.1261   24.1348 C   0  0  0  0  0  0  0  0  0  0  0  0
  -26.3581  -27.6824   22.9293 C   0  0  0  0  0  0  0  0  0  0  0  0
  -23.3654  -34.2181   23.5926 C   0  0  0  0  0  0  0  0  0  0  0  0
  -29.6480  -12.3289   18.4345 C   0  0  0  0  0  0  0  0  0  0  0  0
  -22.8535  -32.7930   23.7770 C   0  0  0  0  0  0  0  0  0  0  0  0
  -28.1976  -12.0330   18.8232 C   0  0  0  0  0  0  0  0  0  0  0  0
  -30.5146  -12.6213   19.6581 C   0  0  0  0  0  0  0  0  0  0  0  0
  -28.5478  -13.3724   20.9375 C   0  0  0  0  0  0  0  0  0  0  0  0
  -23.6888  -32.0370   24.8173 C   0  0  1  0  0  0  0  0  0  0  0  0
  -26.4766  -30.1927   23.0118 C   0  0  1  0  0  0  0  0  0  0  0  0
  -27.6218  -13.1356   19.7332 C   0  0  2  0  0  0  0  0  0  0  0  0
  -28.8121  -25.6568   17.1831 C   0  0  0  0  0  0  0  0  0  0  0  0
  -23.4521  -28.0331   20.2642 C   0  0  0  0  0  0  0  0  0  0  0  0
  -24.4451  -26.4334   18.6141 C   0  0  0  0  0  0  0  0  0  0  0  0
  -24.6667  -28.8918   18.2538 C   0  0  0  0  0  0  0  0  0  0  0  0
  -30.8984  -26.7898   20.1562 C   0  0  0  0  0  0  0  0  0  0  0  0
  -27.4602  -24.0670   26.3176 C   0  0  0  0  0  0  0  0  0  1  0  0
  -26.0150  -27.7804   20.0811 C   0  0  1  0  0  0  0  0  0  0  0  0
  -29.1623  -26.5273   18.3799 C   0  0  2  0  0  0  0  0  0  0  0  0
  -24.6534  -27.7848   19.3304 C   0  0  0  0  0  0  0  0  0  0  0  0
  -25.8363  -11.5426   20.3296 N   0  0  0  0  0  0  0  0  0  0  0  0
  -31.5721  -17.6375   21.6315 N   0  0  0  0  0  0  0  0  0  0  0  0
  -26.1997  -12.8254   20.1614 N   0  0  0  0  0  0  0  0  0  0  0  0
  -26.4313  -28.9664   22.2128 N   0  0  0  0  0  0  0  0  0  0  0  0
  -29.9091  -13.6787   20.4707 N   0  0  0  0  0  0  0  0  0  0  0  0
  -32.7125  -19.6671   22.0775 N   0  0  0  0  0  0  0  0  0  0  0  0
  -25.3933  -15.0491   20.2879 N   0  0  0  0  0  0  0  0  0  0  0  0
  -21.8018  -12.5706   21.4514 N   0  0  0  0  0  0  0  0  0  0  0  0
  -29.9497  -15.8033   21.4937 N   0  0  0  0  0  0  0  0  0  0  0  0
  -29.0757  -21.6622   25.4041 N   0  0  0  0  0  0  0  0  0  0  0  0
  -24.9448  -31.6069   24.2413 N   0  0  0  0  0  0  0  0  0  0  0  0
  -27.1728  -27.5744   19.2177 N   0  0  0  0  0  0  0  0  0  0  0  0
  -30.4243  -26.0125   18.9824 N   0  3  0  0  0  0  0  0  0  0  0  0
  -22.5571  -14.7088   21.1106 O   0  0  0  0  0  0  0  0  0  0  0  0
  -28.4962  -23.1205   28.3043 O   0  0  0  0  0  0  0  0  0  0  0  0
  -27.6927  -20.6998   27.0421 O   0  0  0  0  0  0  0  0  0  0  0  0
  -24.1980  -29.6285   23.2663 O   0  0  0  0  0  0  0  0  0  0  0  0
  -26.3220  -30.1297   20.1951 O   0  0  0  0  0  0  0  0  0  0  0  0
  -27.9577  -25.6760   20.2933 O   0  0  0  0  0  0  0  0  0  0  0  0
  -31.7830  -15.0223   20.3060 O   0  0  0  0  0  0  0  0  0  0  0  0
  -21.6029   -7.0131   21.7823 O   0  0  0  0  0  0  0  0  0  0  0  0
  -27.3851  -25.2799   27.0658 O   0  0  0  0  0  0  0  0  0  1  0  0
  -23.9842   -3.1185   24.8752 F   0  0  0  0  0  0  0  0  0  0  0  0
  -20.4807   -6.2253   24.1829 F   0  0  0  0  0  0  0  0  0  0  0  0
  -29.3088  -18.0163   22.8218 S   0  0  0  0  0  0  0  0  0  0  0  0
  1  2  1  0  0  0  0
  1  5  2  0  0  0  0
  2  6  2  0  0  0  0
  3  8  2  0  0  0  0
  3 15  1  0  0  0  0
  4  9  1  0  0  0  0
  4 15  2  0  0  0  0
  5 17  1  0  0  0  0
  6 19  1  0  0  0  0
  7 10  2  0  0  0  0
  7 18  1  0  0  0  0
  8 21  1  0  0  0  0
  9 21  2  0  0  0  0
 10 22  1  0  0  0  0
 11 12  2  0  0  0  0
 11 23  1  0  0  0  0
 12 24  1  0  0  0  0
 13 20  1  0  0  0  0
 13 22  2  0  0  0  0
 14 24  2  0  0  0  0
 14 25  1  0  0  0  0
 15 26  1  0  0  0  0
 16 26  1  0  0  0  0
 16 29  2  0  0  0  0
 16 33  1  0  0  0  0
 17 19  2  0  0  0  0
 17 40  1  0  0  0  0
 18 20  2  0  0  0  0
 18 41  1  0  0  0  0
 19 49  1  0  0  0  0
 20 42  1  0  0  0  0
 21 81  1  0  0  0  0
 22 82  1  0  0  0  0
 23 25  2  0  0  0  0
 23 81  1  0  0  0  0
 24 83  1  0  0  0  0
 25 84  1  0  0  0  0
 26 61  2  0  0  0  0
 27 28  2  0  0  0  0
 27 31  1  0  0  0  0
 27 85  1  0  0  0  0
 28 62  1  0  0  0  0
 28 66  1  0  0  0  0
 29 63  1  0  0  0  0
 29 67  1  0  0  0  0
 30 62  2  0  0  0  0
 30 69  1  0  0  0  0
 30 85  1  0  0  0  0
 31 32  2  0  0  0  0
 32 70  1  0  0  0  0
 33 68  1  0  0  0  0
 33 74  2  0  0  0  0
 34 35  1  0  0  0  0
 34 57  1  0  0  0  0
 34 75  2  0  0  0  0
 35 70  1  0  0  0  0
 35 76  2  0  0  0  0
 36 50  1  0  0  0  0
 36 71  1  0  0  0  0
 36 77  2  0  0  0  0
 37 58  1  0  0  0  0
 37 64  1  0  0  0  0
 37 78  2  0  0  0  0
 38 59  1  0  0  0  0
 38 72  1  0  0  0  0
 38 79  2  0  0  0  0
 39 65  1  0  0  0  0
 39 69  1  0  0  0  0
 39 80  2  0  0  0  0
 40 43  1  0  0  0  0
 41 50  1  0  0  0  0
 42 64  1  0  0  0  0
 43 45  1  0  0  0  0
 44 46  1  0  0  0  0
 44 47  1  0  0  0  0
 45 49  1  0  0  0  0
 46 51  1  0  0  0  0
 47 65  1  0  0  0  0
 48 51  1  0  0  0  0
 48 65  1  0  0  0  0
 49 71  1  0  0  0  0
 50 64  1  0  0  0  0
 51 63  1  0  0  0  0
 52 59  1  0  0  0  0
 53 60  1  0  0  0  0
 54 60  1  0  0  0  0
 55 60  1  0  0  0  0
 56 73  1  0  0  0  0
 57 82  1  0  0  0  0
 58 60  1  0  0  0  0
 58 72  1  0  0  0  0
 59 73  1  0  0  0  0
 61 63  1  0  0  0  0
M  CHG  1  73   1
M  ISO  4  39 100  57 101  69 100  82 101
M  END
> <Batch ID>
0179

> <Smiles>
CNC(C)C(=O)NC(C(=O)N1Cc2cc([101O:1][101CH2:1]C(=O)C(=O)NC=Cc3sc([100NH:0][100C:0](=O)N4CCCC(n5nc(-c6ccc(Oc7ccc(F)cc7F)cc6)c(C(N)=O)c5N)C4)nc3N)ccc2CC1C(=O)NC1CCCc2ccccc21)C(C)(C)C

> <Shape>
0.309

> <Color>
0.192

> <Negative vol penalty>
0.000

$$$$

  -OEChem-04052304473D

 85 93  0     1  0  0  0  0  0999 V2000
  -31.2217  -33.0049   20.6873 C   0  0  0  0  0  0  0  0  0  0  0  0
  -31.0899  -31.9390   21.5715 C   0  0  0  0  0  0  0  0  0  0  0  0
  -22.9733   -9.9296   20.0695 C   0  0  0  0  0  0  0  0  0  0  0  0
  -23.7277  -10.0185   22.3630 C   0  0  0  0  0  0  0  0  0  0  0  0
  -30.4963  -33.0152   19.4966 C   0  0  0  0  0  0  0  0  0  0  0  0
  -30.2317  -30.8832   21.2661 C   0  0  0  0  0  0  0  0  0  0  0  0
  -32.3156  -26.3592   22.1799 C   0  0  0  0  0  0  0  0  0  0  0  0
  -22.1626   -8.8374   20.3785 C   0  0  0  0  0  0  0  0  0  0  0  0
  -22.9169   -8.9263   22.6720 C   0  0  0  0  0  0  0  0  0  0  0  0
  -32.3560  -25.9330   23.5067 C   0  0  0  0  0  0  0  0  0  0  0  0
  -19.6463   -8.3530   23.3005 C   0  0  0  0  0  0  0  0  0  0  0  0
  -18.8859   -8.4220   24.4678 C   0  0  0  0  0  0  0  0  0  0  0  0
  -30.4192  -24.5493   23.1149 C   0  0  0  0  0  0  0  0  0  0  0  0
  -20.0101   -6.4588   25.3160 C   0  0  0  0  0  0  0  0  0  0  0  0
  -32.2079  -18.3766   21.9359 C   0  0  0  0  0  0  0  0  0  0  0  0
  -23.7559  -10.5201   21.0618 C   0  0  0  0  0  0  0  0  0  0  0  0
  -24.2455  -13.0105   20.8051 C   0  0  0  0  0  0  0  0  0  0  0  0
  -29.6361  -31.9544   19.1720 C   0  0  0  0  0  0  0  0  0  0  0  0
  -31.3185  -25.8912   21.3120 C   0  0  0  0  0  0  0  0  0  0  0  0
  -29.4931  -30.8800   20.0706 C   0  0  0  0  0  0  0  0  0  0  0  0
  -30.3699  -24.9691   21.7768 C   0  0  0  0  0  0  0  0  0  0  0  0
  -22.1343   -8.3358   21.6797 C   0  0  0  0  0  0  0  0  0  0  0  0
  -31.4060  -25.0302   23.9752 C   0  0  0  0  0  0  0  0  0  0  0  0
  -20.5885   -7.3369   23.1408 C   0  0  0  0  0  0  0  0  0  0  0  0
  -19.0678   -7.4749   25.4756 C   0  0  0  0  0  0  0  0  0  0  0  0
  -20.7704   -6.3898   24.1486 C   0  0  0  0  0  0  0  0  0  0  0  0
  -24.5940  -11.6480   20.7431 C   0  0  0  0  0  0  0  0  0  0  0  0
  -31.1276  -18.8473   22.6525 C   0  0  0  0  0  0  0  0  0  0  0  0
  -25.3805  -13.6737   20.4070 C   0  0  0  0  0  0  0  0  0  0  0  0
  -30.8694  -16.6579   21.6816 C   0  0  0  0  0  0  0  0  0  0  0  0
  -30.9560  -20.0889   23.3458 C   0  0  0  0  0  0  0  0  0  0  0  0
  -31.9600  -20.8008   23.8768 C   0  0  0  0  0  0  0  0  0  0  0  0
  -23.0066  -13.6220   21.1884 C   0  0  0  0  0  0  0  0  0  0  0  0
  -32.5649  -23.9665   25.7061 C   0  0  0  0  0  0  0  0  0  1  0  0
  -33.2994  -24.4567   26.7213 C   0  0  0  0  0  0  0  0  0  0  0  0
  -32.9546  -22.6857   25.0314 C   0  0  0  0  0  0  0  0  0  0  0  0
  -28.9617  -27.2460   19.6648 C   0  0  0  0  0  0  0  0  0  0  0  0
  -28.6115  -24.2563   18.4560 C   0  0  0  0  0  0  0  0  0  0  0  0
  -29.0861  -20.8993   18.8465 C   0  0  0  0  0  0  0  0  0  0  0  0
  -30.8982  -14.4059   20.5528 C   0  0  0  0  0  0  0  0  0  0  0  0
  -28.8368  -32.0325   17.8953 C   0  0  0  0  0  0  0  0  0  0  0  0
  -31.3048  -26.3400   19.8765 C   0  0  0  0  0  0  0  0  0  0  0  0
  -29.2911  -24.4209   20.8801 C   0  0  0  0  0  0  0  0  0  0  0  0
  -28.2331  -30.6959   17.4719 C   0  0  0  0  0  0  0  0  0  0  0  0
  -29.6489  -11.9347   18.3147 C   0  0  0  0  0  0  0  0  0  0  0  0
  -27.5692  -30.0093   18.6612 C   0  0  0  0  0  0  0  0  0  0  0  0
  -28.1938  -11.7519   18.7520 C   0  0  0  0  0  0  0  0  0  0  0  0
  -30.5734  -12.1754   19.5067 C   0  0  0  0  0  0  0  0  0  0  0  0
  -28.7095  -13.0851   20.8362 C   0  0  0  0  0  0  0  0  0  0  0  0
  -28.5910  -29.7044   19.7632 C   0  0  1  0  0  0  0  0  0  0  0  0
  -29.9365  -26.1937   19.2178 C   0  0  1  0  0  0  0  0  0  0  0  0
  -27.7306  -12.9044   19.6645 C   0  0  2  0  0  0  0  0  0  0  0  0
  -32.9700  -25.7237   27.4557 C   0  0  0  0  0  0  0  0  0  0  0  0
  -28.6604  -18.7040   17.7078 C   0  0  0  0  0  0  0  0  0  0  0  0
  -25.6747  -24.4063   19.2701 C   0  0  0  0  0  0  0  0  0  0  0  0
  -25.5439  -21.9211   18.9960 C   0  0  0  0  0  0  0  0  0  0  0  0
  -26.0855  -23.3637   17.0343 C   0  0  0  0  0  0  0  0  0  0  0  0
  -31.9780  -20.2918   18.6818 C   0  0  0  0  0  0  0  0  0  0  0  0
  -27.8186  -23.0319   18.8449 C   0  0  1  0  0  0  0  0  0  0  0  0
  -29.6454  -19.8452   17.9082 C   0  0  2  0  0  0  0  0  0  0  0  0
  -26.2997  -23.1924   18.5540 C   0  0  0  0  0  0  0  0  0  0  0  0
  -32.0618  -17.1211   21.3788 N   0  0  0  0  0  0  0  0  0  0  0  0
  -25.8519  -11.4555   20.3374 N   0  0  0  0  0  0  0  0  0  0  0  0
  -26.3037  -12.7058   20.1408 N   0  0  0  0  0  0  0  0  0  0  0  0
  -29.3159  -24.8949   19.4864 N   0  0  0  0  0  0  0  0  0  0  0  0
  -30.0741  -13.2839   20.3233 N   0  0  0  0  0  0  0  0  0  0  0  0
  -25.6687  -14.9846   20.2621 N   0  0  0  0  0  0  0  0  0  0  0  0
  -21.9424  -12.7935   21.5698 N   0  0  0  0  0  0  0  0  0  0  0  0
  -30.3046  -15.4109   21.3159 N   0  0  0  0  0  0  0  0  0  0  0  0
  -31.8612  -21.9937   24.5326 N   0  0  0  0  0  0  0  0  0  0  0  0
  -29.3771  -28.5401   19.4154 N   0  0  0  0  0  0  0  0  0  0  0  0
  -28.4429  -21.9062   18.1583 N   0  0  0  0  0  0  0  0  0  0  0  0
  -30.9114  -19.2823   18.4571 N   0  3  0  0  0  0  0  0  0  0  0  0
  -22.8428  -14.8656   21.1769 O   0  0  0  0  0  0  0  0  0  0  0  0
  -34.1256  -22.3251   24.9505 O   0  0  0  0  0  0  0  0  0  0  0  0
  -27.9097  -26.9088   20.1953 O   0  0  0  0  0  0  0  0  0  0  0  0
  -28.6118  -24.6281   17.2798 O   0  0  0  0  0  0  0  0  0  0  0  0
  -29.2045  -20.8340   20.0681 O   0  0  0  0  0  0  0  0  0  0  0  0
  -32.0362  -14.4824   20.0826 O   0  0  0  0  0  0  0  0  0  0  0  0
  -34.4479  -23.8210   27.1578 O   0  0  0  0  0  0  0  0  0  0  0  0
  -21.3432   -7.2702   21.9816 O   0  0  0  0  0  0  0  0  0  0  0  0
  -31.4427  -24.6132   25.2701 O   0  0  0  0  0  0  0  0  0  1  0  0
  -18.3387   -7.5421   26.5971 F   0  0  0  0  0  0  0  0  0  0  0  0
  -21.6749   -5.4120   24.0015 F   0  0  0  0  0  0  0  0  0  0  0  0
  -29.8715  -17.6797   22.6331 S   0  0  0  0  0  0  0  0  0  0  0  0
  1  2  1  0  0  0  0
  1  5  2  0  0  0  0
  2  6  2  0  0  0  0
  3  8  2  0  0  0  0
  3 16  1  0  0  0  0
  4  9  1  0  0  0  0
  4 16  2  0  0  0  0
  5 18  1  0  0  0  0
  6 20  1  0  0  0  0
  7 10  2  0  0  0  0
  7 19  1  0  0  0  0
  8 22  1  0  0  0  0
  9 22  2  0  0  0  0
 10 23  1  0  0  0  0
 11 12  2  0  0  0  0
 11 24  1  0  0  0  0
 12 25  1  0  0  0  0
 13 21  1  0  0  0  0
 13 23  2  0  0  0  0
 14 25  2  0  0  0  0
 14 26  1  0  0  0  0
 15 28  2  0  0  0  0
 15 62  1  0  0  0  0
 16 27  1  0  0  0  0
 17 27  1  0  0  0  0
 17 29  2  0  0  0  0
 17 33  1  0  0  0  0
 18 20  2  0  0  0  0
 18 41  1  0  0  0  0
 19 21  2  0  0  0  0
 19 42  1  0  0  0  0
 20 50  1  0  0  0  0
 21 43  1  0  0  0  0
 22 81  1  0  0  0  0
 23 82  1  0  0  0  0
 24 26  2  0  0  0  0
 24 81  1  0  0  0  0
 25 83  1  0  0  0  0
 26 84  1  0  0  0  0
 27 63  2  0  0  0  0
 28 31  1  0  0  0  0
 28 85  1  0  0  0  0
 29 64  1  0  0  0  0
 29 67  1  0  0  0  0
 30 62  2  0  0  0  0
 30 69  1  0  0  0  0
 30 85  1  0  0  0  0
 31 32  2  0  0  0  0
 32 70  1  0  0  0  0
 33 68  1  0  0  0  0
 33 74  2  0  0  0  0
 34 35  2  0  0  0  0
 34 36  1  0  0  0  0
 34 82  1  0  0  0  0
 35 53  1  0  0  0  0
 35 80  1  0  0  0  0
 36 70  1  0  0  0  0
 36 75  2  0  0  0  0
 37 51  1  0  0  0  0
 37 71  1  0  0  0  0
 37 76  2  0  0  0  0
 38 59  1  0  0  0  0
 38 65  1  0  0  0  0
 38 77  2  0  0  0  0
 39 60  1  0  0  0  0
 39 72  1  0  0  0  0
 39 78  2  0  0  0  0
 40 66  1  0  0  0  0
 40 69  1  0  0  0  0
 40 79  2  0  0  0  0
 41 44  1  0  0  0  0
 42 51  1  0  0  0  0
 43 65  1  0  0  0  0
 44 46  1  0  0  0  0
 45 47  1  0  0  0  0
 45 48  1  0  0  0  0
 46 50  1  0  0  0  0
 47 52  1  0  0  0  0
 48 66  1  0  0  0  0
 49 52  1  0  0  0  0
 49 66  1  0  0  0  0
 50 71  1  0  0  0  0
 51 65  1  0  0  0  0
 52 64  1  0  0  0  0
 54 60  1  0  0  0  0
 55 61  1  0  0  0  0
 56 61  1  0  0  0  0
 57 61  1  0  0  0  0
 58 73  1  0  0  0  0
 59 61  1  0  0  0  0
 59 72  1  0  0  0  0
 60 73  1  0  0  0  0
 63 64  1  0  0  0  0
M  CHG  1  73   1
M  ISO  4  34 101  40 100  69 100  82 101
M  END
> <Batch ID>
0179

> <Smiles>
CNC(C)C(=O)NC(C(=O)N1Cc2cc([101O:1][101CH:1](C(C)=O)C(=O)NC=Cc3cnc([100NH:0][100C:0](=O)N4CCCC(n5nc(-c6ccc(Oc7ccc(F)cc7F)cc6)c(C(N)=O)c5N)C4)s3)ccc2CC1C(=O)NC1CCCc2ccccc21)C(C)(C)C

> <Shape>
0.244

> <Color>
0.205

> <Negative vol penalty>
0.000

$$$$

  -OEChem-04052304473D

 89 97  0     1  0  0  0  0  0999 V2000
  -29.1764  -37.1408   18.9175 C   0  0  0  0  0  0  0  0  0  0  0  0
  -29.2754  -35.7782   18.6547 C   0  0  0  0  0  0  0  0  0  0  0  0
  -23.4472   -9.4979   20.9314 C   0  0  0  0  0  0  0  0  0  0  0  0
  -24.0792  -10.2686   23.1323 C   0  0  0  0  0  0  0  0  0  0  0  0
  -28.7730  -37.5790   20.1781 C   0  0  0  0  0  0  0  0  0  0  0  0
  -28.9719  -34.8530   19.6529 C   0  0  0  0  0  0  0  0  0  0  0  0
  -26.3635  -29.3617   18.9128 C   0  0  0  0  0  0  0  0  0  0  0  0
  -22.8273   -8.3848   21.4992 C   0  0  0  0  0  0  0  0  0  0  0  0
  -23.4592   -9.1555   23.7001 C   0  0  0  0  0  0  0  0  0  0  0  0
  -26.8928  -28.0740   18.8398 C   0  0  0  0  0  0  0  0  0  0  0  0
  -23.7574   -5.3940   22.7697 C   0  0  0  0  0  0  0  0  0  0  0  0
  -23.9905   -4.1519   22.1794 C   0  0  0  0  0  0  0  0  0  0  0  0
  -26.4503  -27.7653   21.1910 C   0  0  0  0  0  0  0  0  0  0  0  0
  -21.6245   -3.9099   21.7543 C   0  0  0  0  0  0  0  0  0  0  0  0
  -24.0732  -10.4397   21.7480 C   0  0  0  0  0  0  0  0  0  0  0  0
  -24.1313  -12.8418   20.8911 C   0  0  0  0  0  0  0  0  0  0  0  0
  -28.4551  -36.6585   21.1892 C   0  0  0  0  0  0  0  0  0  0  0  0
  -25.8827  -29.8657   20.1299 C   0  0  0  0  0  0  0  0  0  0  0  0
  -28.5651  -35.2793   20.9286 C   0  0  0  0  0  0  0  0  0  0  0  0
  -25.9130  -29.0588   21.2762 C   0  0  0  0  0  0  0  0  0  0  0  0
  -22.8332   -8.2136   22.8835 C   0  0  0  0  0  0  0  0  0  0  0  0
  -26.9390  -27.2766   19.9796 C   0  0  0  0  0  0  0  0  0  0  0  0
  -22.4579   -5.8941   22.8523 C   0  0  0  0  0  0  0  0  0  0  0  0
  -22.9240   -3.4098   21.6717 C   0  0  0  0  0  0  0  0  0  0  0  0
  -21.3914   -5.1520   22.3446 C   0  0  0  0  0  0  0  0  0  0  0  0
  -31.0399  -19.7841   20.7491 C   0  0  0  0  0  0  0  0  0  0  0  0
  -31.1310  -18.3861   20.4892 C   0  0  0  0  0  0  0  0  0  0  0  0
  -24.7143  -11.5894   21.1620 C   0  0  0  0  0  0  0  0  0  0  0  0
  -29.8305  -20.1280   21.3118 C   0  0  0  0  0  0  0  0  0  0  0  0
  -25.1487  -13.5823   20.3406 C   0  0  0  0  0  0  0  0  0  0  0  0
  -29.9878  -17.7147   20.8636 C   0  0  0  0  0  0  0  0  0  0  0  0
  -22.7900  -13.2953   21.1170 C   0  0  0  0  0  0  0  0  0  0  0  0
  -29.3444  -21.4687   21.7283 C   0  0  0  0  0  0  0  0  0  0  0  0
  -26.6677  -32.3010   22.0159 C   0  0  0  0  0  0  0  0  0  0  0  0
  -29.1667  -24.5141   20.7319 C   0  0  0  0  0  0  0  0  0  0  0  0
  -24.0168  -31.3860   23.6462 C   0  0  0  0  0  0  0  0  0  0  0  0
  -21.8062  -28.9050   24.4240 C   0  0  0  0  0  0  0  0  0  0  0  0
  -30.4435  -15.3044   20.2898 C   0  0  0  0  0  0  0  0  0  0  0  0
  -28.0692  -37.1803   22.5507 C   0  0  0  0  0  0  0  0  0  0  0  0
  -25.2903  -31.2471   20.1862 C   0  0  0  0  0  0  0  0  0  0  0  0
  -25.3911  -29.5455   22.6026 C   0  0  0  0  0  0  0  0  0  0  0  0
  -27.4048  -36.1315   23.4390 C   0  0  0  0  0  0  0  0  0  0  0  0
  -29.7376  -12.1855   18.7243 C   0  0  0  0  0  0  0  0  0  0  0  0
  -28.1881  -34.8232   23.3975 C   0  0  0  0  0  0  0  0  0  0  0  0
  -28.3198  -11.8554   19.1966 C   0  0  0  0  0  0  0  0  0  0  0  0
  -30.5560  -12.8670   19.8195 C   0  0  0  0  0  0  0  0  0  0  0  0
  -28.5087  -13.7202   20.8919 C   0  0  0  0  0  0  0  0  0  0  0  0
  -28.2207  -34.2446   21.9778 C   0  0  1  0  0  0  0  0  0  0  0  0
  -25.3009  -31.8451   21.5896 C   0  0  1  0  0  0  0  0  0  0  0  0
  -27.6255  -13.0911   19.8020 C   0  0  2  0  0  0  0  0  0  0  0  0
  -19.7665  -28.4480   25.8125 C   0  0  0  0  0  0  0  0  0  0  0  0
  -25.7535  -31.2607   26.1519 C   0  0  0  0  0  0  0  0  0  0  0  0
  -23.9477  -29.9201   27.2519 C   0  0  0  0  0  0  0  0  0  0  0  0
  -23.4855  -32.2543   26.5032 C   0  0  0  0  0  0  0  0  0  0  0  0
  -20.1847  -28.2519   22.0359 C   0  0  0  0  0  0  0  0  0  0  0  0
  -28.0792  -25.5088   21.0889 C   0  0  0  0  0  0  0  0  0  1  0  0
  -29.9062  -23.8792   21.9004 C   0  0  2  0  0  0  0  0  0  0  0  0
  -23.7350  -30.4250   24.7759 C   0  0  1  0  0  0  0  0  0  0  0  0
  -20.2886  -28.8801   24.4511 C   0  0  2  0  0  0  0  0  0  0  0  0
  -24.2421  -30.9563   26.1463 C   0  0  0  0  0  0  0  0  0  0  0  0
  -31.1469  -24.6730   22.2445 C   0  0  0  0  0  0  0  0  0  0  0  0
  -26.0021  -11.5337   20.8123 N   0  0  0  0  0  0  0  0  0  0  0  0
  -26.2367  -12.7603   20.3158 N   0  0  0  0  0  0  0  0  0  0  0  0
  -24.8273  -30.9055   22.6079 N   0  0  0  0  0  0  0  0  0  0  0  0
  -29.8378  -14.0312   20.3427 N   0  0  0  0  0  0  0  0  0  0  0  0
  -25.2097  -14.8498   19.8800 N   0  0  0  0  0  0  0  0  0  0  0  0
  -21.8717  -12.4058   21.6913 N   0  0  0  0  0  0  0  0  0  0  0  0
  -29.6527  -16.3401   20.7865 N   0  0  0  0  0  0  0  0  0  0  0  0
  -30.2225  -22.5257   21.5265 N   0  0  0  0  0  0  0  0  0  0  0  0
  -26.9612  -33.6045   21.6638 N   0  0  0  0  0  0  0  0  0  0  0  0
  -22.3021  -30.1539   24.7333 N   0  0  0  0  0  0  0  0  0  0  0  0
  -19.7677  -27.9326   23.4256 N   0  3  0  0  0  0  0  0  0  0  0  0
  -22.4125  -14.4497   20.8032 O   0  0  0  0  0  0  0  0  0  0  0  0
  -28.2304  -21.5722   22.2352 O   0  0  0  0  0  0  0  0  0  0  0  0
  -27.4011  -31.5278   22.6209 O   0  0  0  0  0  0  0  0  0  0  0  0
  -29.4533  -24.2602   19.5616 O   0  0  0  0  0  0  0  0  0  0  0  0
  -23.5297  -32.5188   23.6803 O   0  0  0  0  0  0  0  0  0  0  0  0
  -22.4840  -27.9147   24.1589 O   0  0  0  0  0  0  0  0  0  0  0  0
  -31.5691  -15.4683   19.8123 O   0  0  0  0  0  0  0  0  0  0  0  0
  -22.2282   -7.1278   23.4379 O   0  0  0  0  0  0  0  0  0  0  0  0
  -27.4558  -26.0196   19.9113 O   0  0  0  0  0  0  0  0  0  1  0  0
  -23.1482   -2.2177   21.1035 F   0  0  0  0  0  0  0  0  0  0  0  0
  -20.1409   -5.6278   22.4200 F   0  0  0  0  0  0  0  0  0  0  0  0
  -32.0153  -20.6532   20.4767 F   0  0  0  0  0  0  0  0  0  0  0  0
  -32.2007  -17.8009   19.9469 F   0  0  0  0  0  0  0  0  0  0  0  0
  -31.8280  -24.0965   23.2594 F   0  0  0  0  0  0  0  0  0  0  0  0
  -30.8495  -25.9377   22.6128 F   0  0  0  0  0  0  0  0  0  0  0  0
  -31.9849  -24.7391   21.1854 F   0  0  0  0  0  0  0  0  0  0  0  0
  -28.8112  -18.7686   21.5249 S   0  0  0  0  0  0  0  0  0  0  0  0
  1  2  1  0  0  0  0
  1  5  2  0  0  0  0
  2  6  2  0  0  0  0
  3  8  2  0  0  0  0
  3 15  1  0  0  0  0
  4  9  1  0  0  0  0
  4 15  2  0  0  0  0
  5 17  1  0  0  0  0
  6 19  1  0  0  0  0
  7 10  2  0  0  0  0
  7 18  1  0  0  0  0
  8 21  1  0  0  0  0
  9 21  2  0  0  0  0
 10 22  1  0  0  0  0
 11 12  2  0  0  0  0
 11 23  1  0  0  0  0
 12 24  1  0  0  0  0
 13 20  1  0  0  0  0
 13 22  2  0  0  0  0
 14 24  2  0  0  0  0
 14 25  1  0  0  0  0
 15 28  1  0  0  0  0
 16 28  1  0  0  0  0
 16 30  2  0  0  0  0
 16 32  1  0  0  0  0
 17 19  2  0  0  0  0
 17 39  1  0  0  0  0
 18 20  2  0  0  0  0
 18 40  1  0  0  0  0
 19 48  1  0  0  0  0
 20 41  1  0  0  0  0
 21 80  1  0  0  0  0
 22 81  1  0  0  0  0
 23 25  2  0  0  0  0
 23 80  1  0  0  0  0
 24 82  1  0  0  0  0
 25 83  1  0  0  0  0
 26 27  1  0  0  0  0
 26 29  2  0  0  0  0
 26 84  1  0  0  0  0
 27 31  2  0  0  0  0
 27 85  1  0  0  0  0
 28 62  2  0  0  0  0
 29 33  1  0  0  0  0
 29 89  1  0  0  0  0
 30 63  1  0  0  0  0
 30 66  1  0  0  0  0
 31 68  1  0  0  0  0
 31 89  1  0  0  0  0
 32 67  1  0  0  0  0
 32 73  2  0  0  0  0
 33 69  1  0  0  0  0
 33 74  2  0  0  0  0
 34 49  1  0  0  0  0
 34 70  1  0  0  0  0
 34 75  2  0  0  0  0
 35 56  1  0  0  0  0
 35 57  1  0  0  0  0
 35 76  2  0  0  0  0
 36 58  1  0  0  0  0
 36 64  1  0  0  0  0
 36 77  2  0  0  0  0
 37 59  1  0  0  0  0
 37 71  1  0  0  0  0
 37 78  2  0  0  0  0
 38 65  1  0  0  0  0
 38 68  1  0  0  0  0
 38 79  2  0  0  0  0
 39 42  1  0  0  0  0
 40 49  1  0  0  0  0
 41 64  1  0  0  0  0
 42 44  1  0  0  0  0
 43 45  1  0  0  0  0
 43 46  1  0  0  0  0
 44 48  1  0  0  0  0
 45 50  1  0  0  0  0
 46 65  1  0  0  0  0
 47 50  1  0  0  0  0
 47 65  1  0  0  0  0
 48 70  1  0  0  0  0
 49 64  1  0  0  0  0
 50 63  1  0  0  0  0
 51 59  1  0  0  0  0
 52 60  1  0  0  0  0
 53 60  1  0  0  0  0
 54 60  1  0  0  0  0
 55 72  1  0  0  0  0
 56 81  1  0  0  0  0
 57 61  1  0  0  0  0
 57 69  1  0  0  0  0
 58 60  1  0  0  0  0
 58 71  1  0  0  0  0
 59 72  1  0  0  0  0
 61 86  1  0  0  0  0
 61 87  1  0  0  0  0
 61 88  1  0  0  0  0
 62 63  1  0  0  0  0
M  CHG  1  72   1
M  ISO  4  38 100  56 101  68 100  81 101
M  END
> <Batch ID>
0179

> <Smiles>
CNC(C)C(=O)NC(C(=O)N1Cc2cc([101O:1][101CH2:1]C(=O)C(NC(=O)c3sc([100NH:0][100C:0](=O)N4CCCC(n5nc(-c6ccc(Oc7ccc(F)cc7F)cc6)c(C(N)=O)c5N)C4)c(F)c3F)C(F)(F)F)ccc2CC1C(=O)NC1CCCc2ccccc21)C(C)(C)C

> <Shape>
0.328

> <Color>
0.193

> <Negative vol penalty>
0.000

$$$$

  -OEChem-04052304473D

 85 93  0     1  0  0  0  0  0999 V2000
  -44.8848  -19.8558   30.5959 C   0  0  0  0  0  0  0  0  0  0  0  0
  -43.4988  -19.7969   30.4914 C   0  0  0  0  0  0  0  0  0  0  0  0
  -23.1740   -9.8576   19.9509 C   0  0  0  0  0  0  0  0  0  0  0  0
  -23.8847   -9.9167   22.2593 C   0  0  0  0  0  0  0  0  0  0  0  0
  -45.6715  -19.8230   29.4453 C   0  0  0  0  0  0  0  0  0  0  0  0
  -42.8986  -19.7063   29.2359 C   0  0  0  0  0  0  0  0  0  0  0  0
  -39.1914  -16.2592   29.0991 C   0  0  0  0  0  0  0  0  0  0  0  0
  -22.4586   -8.6866   20.2011 C   0  0  0  0  0  0  0  0  0  0  0  0
  -23.1692   -8.7458   22.5095 C   0  0  0  0  0  0  0  0  0  0  0  0
  -37.9639  -16.6221   29.6517 C   0  0  0  0  0  0  0  0  0  0  0  0
  -21.2361   -5.9698   23.8420 C   0  0  0  0  0  0  0  0  0  0  0  0
  -20.4568   -5.9195   24.9977 C   0  0  0  0  0  0  0  0  0  0  0  0
  -37.1126  -17.0840   27.4423 C   0  0  0  0  0  0  0  0  0  0  0  0
  -19.1727   -7.8100   24.2139 C   0  0  0  0  0  0  0  0  0  0  0  0
  -23.8871  -10.4726   20.9800 C   0  0  0  0  0  0  0  0  0  0  0  0
  -24.1584  -13.0049   20.8325 C   0  0  0  0  0  0  0  0  0  0  0  0
  -45.0811  -19.7222   28.1757 C   0  0  0  0  0  0  0  0  0  0  0  0
  -39.3925  -16.3166   27.7125 C   0  0  0  0  0  0  0  0  0  0  0  0
  -43.6782  -19.6735   28.0672 C   0  0  0  0  0  0  0  0  0  0  0  0
  -38.3428  -16.7190   26.8744 C   0  0  0  0  0  0  0  0  0  0  0  0
  -22.4561   -8.1307   21.4804 C   0  0  0  0  0  0  0  0  0  0  0  0
  -36.9252  -17.0373   28.8235 C   0  0  0  0  0  0  0  0  0  0  0  0
  -20.9838   -6.9402   22.8722 C   0  0  0  0  0  0  0  0  0  0  0  0
  -19.4251   -6.8396   25.1837 C   0  0  0  0  0  0  0  0  0  0  0  0
  -19.9521   -7.8603   23.0582 C   0  0  0  0  0  0  0  0  0  0  0  0
  -24.6268  -11.6819   20.7220 C   0  0  0  0  0  0  0  0  0  0  0  0
  -32.4721  -15.4730   25.4048 C   0  0  0  0  0  0  0  0  0  0  0  0
  -33.0930  -15.9576   24.2726 C   0  0  0  0  0  0  0  0  0  0  0  0
  -25.2360  -13.7810   20.4817 C   0  0  0  0  0  0  0  0  0  0  0  0
  -31.6370  -14.6311   23.3080 C   0  0  0  0  0  0  0  0  0  0  0  0
  -22.8650  -13.4889   21.2178 C   0  0  0  0  0  0  0  0  0  0  0  0
  -32.7977  -15.8300   26.7984 C   0  0  0  0  0  0  0  0  0  0  0  0
  -41.3370  -17.9412   25.7932 C   0  0  0  0  0  0  0  0  0  0  0  0
  -40.0286  -16.0474   23.5076 C   0  0  0  0  0  0  0  0  0  0  0  0
  -37.4010  -14.1171   22.4993 C   0  0  0  0  0  0  0  0  0  0  0  0
  -33.5916  -17.6084   28.3192 C   0  0  0  0  0  0  0  0  0  0  0  0
  -30.9886  -13.9371   20.9747 C   0  0  0  0  0  0  0  0  0  0  0  0
  -45.9709  -19.7378   26.9581 C   0  0  0  0  0  0  0  0  0  0  0  0
  -40.7140  -15.8964   27.1299 C   0  0  0  0  0  0  0  0  0  0  0  0
  -38.5011  -16.7786   25.3778 C   0  0  0  0  0  0  0  0  0  0  0  0
  -45.2718  -19.2631   25.6867 C   0  0  0  0  0  0  0  0  0  0  0  0
  -29.4017  -13.0095   17.9254 C   0  0  0  0  0  0  0  0  0  0  0  0
  -43.9040  -19.9245   25.5509 C   0  0  0  0  0  0  0  0  0  0  0  0
  -27.9624  -12.7016   18.3448 C   0  0  0  0  0  0  0  0  0  0  0  0
  -30.4085  -12.5658   18.9852 C   0  0  0  0  0  0  0  0  0  0  0  0
  -28.7096  -12.7646   20.7582 C   0  0  0  0  0  0  0  0  0  0  0  0
  -42.9910  -19.5498   26.7246 C   0  0  1  0  0  0  0  0  0  0  0  0
  -40.9711  -16.4846   25.7460 C   0  0  1  0  0  0  0  0  0  0  0  0
  -27.6552  -13.2523   19.7512 C   0  0  2  0  0  0  0  0  0  0  0  0
  -36.6035  -12.7296   20.5664 C   0  0  0  0  0  0  0  0  0  0  0  0
  -33.9849  -16.0052   30.1901 C   0  0  0  0  0  0  0  0  0  0  0  0
  -39.3538  -18.5910   21.9633 C   0  0  0  0  0  0  0  0  0  0  0  0
  -37.7672  -17.2427   20.5730 C   0  0  0  0  0  0  0  0  0  0  0  0
  -40.2038  -16.7088   20.5529 C   0  0  0  0  0  0  0  0  0  0  0  0
  -31.7260  -18.0618   26.6552 C   0  0  0  0  0  0  0  0  0  0  0  0
  -37.2932  -11.6655   24.1536 C   0  0  0  0  0  0  0  0  0  0  0  0
  -38.8280  -16.1441   22.5975 C   0  0  1  0  0  0  0  0  0  0  0  0
  -37.3470  -12.7265   21.8930 C   0  0  2  0  0  0  0  0  0  0  0  0
  -34.5829  -16.6446   28.9485 C   0  0  2  0  0  0  0  0  0  1  0  0
  -39.0355  -17.1725   21.4500 C   0  0  0  0  0  0  0  0  0  0  0  0
  -25.9025  -11.6175   20.3314 N   0  0  0  0  0  0  0  0  0  0  0  0
  -32.6157  -15.4757   23.0694 N   0  0  0  0  0  0  0  0  0  0  0  0
  -26.2448  -12.9097   20.1934 N   0  0  0  0  0  0  0  0  0  0  0  0
  -39.8141  -16.3637   24.8566 N   0  0  0  0  0  0  0  0  0  0  0  0
  -30.0561  -13.1290   20.2904 N   0  0  0  0  0  0  0  0  0  0  0  0
  -34.1115  -16.8512   24.2899 N   0  0  0  0  0  0  0  0  0  0  0  0
  -25.4094  -15.1170   20.3949 N   0  0  0  0  0  0  0  0  0  0  0  0
  -21.8728  -12.5551   21.5464 N   0  0  0  0  0  0  0  0  0  0  0  0
  -30.8682  -13.9066   22.3637 N   0  0  0  0  0  0  0  0  0  0  0  0
  -42.4623  -18.2143   26.5472 N   0  0  0  0  0  0  0  0  0  0  0  0
  -38.5519  -14.7864   22.1405 N   0  0  0  0  0  0  0  0  0  0  0  0
  -32.7107  -17.1154   27.2419 N   0  0  0  0  0  0  0  0  0  0  0  0
  -33.2115  -14.8003   27.5420 N   0  3  0  0  0  0  0  0  0  0  0  0
  -36.6546  -11.7849   22.8176 N   0  3  0  0  0  0  0  0  0  0  0  0
  -22.5922  -14.7128   21.2533 O   0  0  0  0  0  0  0  0  0  0  0  0
  -40.6502  -18.7566   25.1891 O   0  0  0  0  0  0  0  0  0  0  0  0
  -41.1151  -15.6970   23.0403 O   0  0  0  0  0  0  0  0  0  0  0  0
  -36.5095  -14.5663   23.2163 O   0  0  0  0  0  0  0  0  0  0  0  0
  -33.4968  -18.7707   28.7044 O   0  0  0  0  0  0  0  0  0  0  0  0
  -31.8143  -14.6278   20.3721 O   0  0  0  0  0  0  0  0  0  0  0  0
  -21.7579   -6.9883   21.7250 O   0  0  0  0  0  0  0  0  0  0  0  0
  -35.7262  -17.3926   29.3604 O   0  0  0  0  0  0  0  0  0  1  0  0
  -18.6758   -6.7903   26.2929 F   0  0  0  0  0  0  0  0  0  0  0  0
  -19.7041   -8.7940   22.1296 F   0  0  0  0  0  0  0  0  0  0  0  0
  -31.2379  -14.3698   24.9565 S   0  0  0  0  0  0  0  0  0  0  0  0
  1  2  1  0  0  0  0
  1  5  2  0  0  0  0
  2  6  2  0  0  0  0
  3  8  2  0  0  0  0
  3 15  1  0  0  0  0
  4  9  1  0  0  0  0
  4 15  2  0  0  0  0
  5 17  1  0  0  0  0
  6 19  1  0  0  0  0
  7 10  2  0  0  0  0
  7 18  1  0  0  0  0
  8 21  1  0  0  0  0
  9 21  2  0  0  0  0
 10 22  1  0  0  0  0
 11 12  2  0  0  0  0
 11 23  1  0  0  0  0
 12 24  1  0  0  0  0
 13 20  1  0  0  0  0
 13 22  2  0  0  0  0
 14 24  2  0  0  0  0
 14 25  1  0  0  0  0
 15 26  1  0  0  0  0
 16 26  1  0  0  0  0
 16 29  2  0  0  0  0
 16 31  1  0  0  0  0
 17 19  2  0  0  0  0
 17 38  1  0  0  0  0
 18 20  2  0  0  0  0
 18 39  1  0  0  0  0
 19 47  1  0  0  0  0
 20 40  1  0  0  0  0
 21 81  1  0  0  0  0
 22 82  1  0  0  0  0
 23 25  2  0  0  0  0
 23 81  1  0  0  0  0
 24 83  1  0  0  0  0
 25 84  1  0  0  0  0
 26 61  2  0  0  0  0
 27 28  2  0  0  0  0
 27 32  1  0  0  0  0
 27 85  1  0  0  0  0
 28 62  1  0  0  0  0
 28 66  1  0  0  0  0
 29 63  1  0  0  0  0
 29 67  1  0  0  0  0
 30 62  2  0  0  0  0
 30 69  1  0  0  0  0
 30 85  1  0  0  0  0
 31 68  1  0  0  0  0
 31 75  2  0  0  0  0
 32 72  1  0  0  0  0
 32 73  2  0  0  0  0
 33 48  1  0  0  0  0
 33 70  1  0  0  0  0
 33 76  2  0  0  0  0
 34 57  1  0  0  0  0
 34 64  1  0  0  0  0
 34 77  2  0  0  0  0
 35 58  1  0  0  0  0
 35 71  1  0  0  0  0
 35 78  2  0  0  0  0
 36 59  1  0  0  0  0
 36 72  1  0  0  0  0
 36 79  2  0  0  0  0
 37 65  1  0  0  0  0
 37 69  1  0  0  0  0
 37 80  2  0  0  0  0
 38 41  1  0  0  0  0
 39 48  1  0  0  0  0
 40 64  1  0  0  0  0
 41 43  1  0  0  0  0
 42 44  1  0  0  0  0
 42 45  1  0  0  0  0
 43 47  1  0  0  0  0
 44 49  1  0  0  0  0
 45 65  1  0  0  0  0
 46 49  1  0  0  0  0
 46 65  1  0  0  0  0
 47 70  1  0  0  0  0
 48 64  1  0  0  0  0
 49 63  1  0  0  0  0
 50 58  1  0  0  0  0
 51 59  1  0  0  0  0
 52 60  1  0  0  0  0
 53 60  1  0  0  0  0
 54 60  1  0  0  0  0
 55 72  1  0  0  0  0
 56 74  1  0  0  0  0
 57 60  1  0  0  0  0
 57 71  1  0  0  0  0
 58 74  1  0  0  0  0
 59 82  1  0  0  0  0
 61 63  1  0  0  0  0
M  CHG  2  73   1  74   1
M  ISO  4  37 100  59 101  69 100  82 101
M  END
> <Batch ID>
0179

> <Smiles>
CNC(C)C(=O)NC(C(=O)N1Cc2cc([101O:1][101CH:1](C)C(=O)N(C)C(=N)c3sc([100NH:0][100C:0](=O)N4CCCC(n5nc(-c6ccc(Oc7ccc(F)cc7F)cc6)c(C(N)=O)c5N)C4)nc3N)ccc2CC1C(=O)NC1CCCc2ccccc21)C(C)(C)C

> <Shape>
0.144

> <Color>
0.181

> <Negative vol penalty>
0.000

$$$$

  -OEChem-04052304473D

 90 98  0     1  0  0  0  0  0999 V2000
  -31.9921  -16.9652   17.3694 C   0  0  0  0  0  0  0  0  0  0  0  0
  -31.8904  -17.5432   18.6307 C   0  0  0  0  0  0  0  0  0  0  0  0
  -23.2041   -9.8515   19.9497 C   0  0  0  0  0  0  0  0  0  0  0  0
  -23.9189   -9.9275   22.2563 C   0  0  0  0  0  0  0  0  0  0  0  0
  -32.2089  -17.7689   16.2510 C   0  0  0  0  0  0  0  0  0  0  0  0
  -32.0065  -18.9254   18.7744 C   0  0  0  0  0  0  0  0  0  0  0  0
  -28.4788  -20.8622   21.8483 C   0  0  0  0  0  0  0  0  0  0  0  0
  -22.5158   -8.6649   20.2020 C   0  0  0  0  0  0  0  0  0  0  0  0
  -23.2305   -8.7409   22.5087 C   0  0  0  0  0  0  0  0  0  0  0  0
  -28.6766  -20.7102   23.2200 C   0  0  0  0  0  0  0  0  0  0  0  0
  -20.0366   -7.7856   23.0630 C   0  0  0  0  0  0  0  0  0  0  0  0
  -19.2606   -7.7219   24.2203 C   0  0  0  0  0  0  0  0  0  0  0  0
  -29.5003  -22.9740   23.3460 C   0  0  0  0  0  0  0  0  0  0  0  0
  -20.5855   -5.8608   25.0064 C   0  0  0  0  0  0  0  0  0  0  0  0
  -23.9057  -10.4828   20.9768 C   0  0  0  0  0  0  0  0  0  0  0  0
  -24.1197  -13.0205   20.8278 C   0  0  0  0  0  0  0  0  0  0  0  0
  -32.3181  -19.1625   16.3798 C   0  0  0  0  0  0  0  0  0  0  0  0
  -28.8011  -22.0696   21.2122 C   0  0  0  0  0  0  0  0  0  0  0  0
  -32.2263  -19.7483   17.6568 C   0  0  0  0  0  0  0  0  0  0  0  0
  -29.3033  -23.1396   21.9665 C   0  0  0  0  0  0  0  0  0  0  0  0
  -22.5289   -8.1096   21.4815 C   0  0  0  0  0  0  0  0  0  0  0  0
  -29.1901  -21.7652   23.9686 C   0  0  0  0  0  0  0  0  0  0  0  0
  -21.0871   -6.8868   22.8773 C   0  0  0  0  0  0  0  0  0  0  0  0
  -19.5350   -6.7596   25.1920 C   0  0  0  0  0  0  0  0  0  0  0  0
  -21.3616   -5.9245   23.8490 C   0  0  0  0  0  0  0  0  0  0  0  0
  -24.6174  -11.7083   20.7166 C   0  0  0  0  0  0  0  0  0  0  0  0
  -31.6183  -16.8684   24.9626 C   0  0  0  0  0  0  0  0  0  0  0  0
  -32.6099  -16.7945   24.0069 C   0  0  0  0  0  0  0  0  0  0  0  0
  -25.1787  -13.8205   20.4741 C   0  0  0  0  0  0  0  0  0  0  0  0
  -31.1370  -15.4768   23.0562 C   0  0  0  0  0  0  0  0  0  0  0  0
  -22.8167  -13.4755   21.2161 C   0  0  0  0  0  0  0  0  0  0  0  0
  -31.5628  -17.6142   26.2462 C   0  0  0  0  0  0  0  0  0  0  0  0
  -30.8400  -22.9281   18.9298 C   0  0  0  0  0  0  0  0  0  0  0  0
  -29.3124  -20.3600   27.3712 C   0  0  0  0  0  0  0  0  0  0  0  0
  -29.3446  -25.7927   19.2120 C   0  0  0  0  0  0  0  0  0  0  0  0
  -27.5165  -27.9285   21.1468 C   0  0  0  0  0  0  0  0  0  0  0  0
  -30.9276  -14.1059   20.9530 C   0  0  0  0  0  0  0  0  0  0  0  0
  -32.5996  -19.9856   15.1478 C   0  0  0  0  0  0  0  0  0  0  0  0
  -28.5568  -22.2266   19.7364 C   0  0  0  0  0  0  0  0  0  0  0  0
  -29.6462  -24.4632   21.3349 C   0  0  0  0  0  0  0  0  0  0  0  0
  -32.3371  -21.4772   15.3388 C   0  0  0  0  0  0  0  0  0  0  0  0
  -29.3545  -13.1417   17.9079 C   0  0  0  0  0  0  0  0  0  0  0  0
  -32.9491  -21.9635   16.6487 C   0  0  0  0  0  0  0  0  0  0  0  0
  -27.9235  -12.8018   18.3309 C   0  0  0  0  0  0  0  0  0  0  0  0
  -30.3735  -12.7212   18.9654 C   0  0  0  0  0  0  0  0  0  0  0  0
  -28.6750  -12.8825   20.7425 C   0  0  0  0  0  0  0  0  0  0  0  0
  -32.3222  -21.2462   17.8503 C   0  0  1  0  0  0  0  0  0  0  0  0
  -29.4023  -23.3281   19.1046 C   0  0  1  0  0  0  0  0  0  0  0  0
  -27.6074  -13.3459   19.7379 C   0  0  2  0  0  0  0  0  0  0  0  0
  -26.4761  -30.2119   21.1178 C   0  0  0  0  0  0  0  0  0  0  0  0
  -32.0967  -27.0491   19.6090 C   0  0  0  0  0  0  0  0  0  0  0  0
  -30.9581  -29.0921   20.5026 C   0  0  0  0  0  0  0  0  0  0  0  0
  -30.5490  -28.3662   18.1513 C   0  0  0  0  0  0  0  0  0  0  0  0
  -30.6988  -15.1177   30.6866 C   0  0  0  0  0  0  0  0  0  0  0  0
  -32.4494  -16.6910   29.8323 C   0  0  0  0  0  0  0  0  0  0  0  0
  -24.7986  -26.8219   21.5305 C   0  0  0  0  0  0  0  0  0  0  0  0
  -28.9774  -19.0892   28.1312 C   0  0  0  0  0  0  0  0  0  0  0  0
  -29.0411  -20.3582   25.8801 C   0  0  0  0  0  0  0  0  0  1  0  0
  -29.9669  -17.1390   29.3826 C   0  0  0  0  0  0  0  0  0  0  0  0
  -29.5532  -27.0294   20.0522 C   0  0  1  0  0  0  0  0  0  0  0  0
  -26.2612  -28.7299   20.8528 C   0  0  2  0  0  0  0  0  0  0  0  0
  -30.1821  -18.1468   28.2377 C   0  0  1  0  0  0  0  0  0  0  0  0
  -30.7847  -27.8587   19.5906 C   0  0  0  0  0  0  0  0  0  0  0  0
  -31.0760  -16.0842   29.5647 C   0  0  0  0  0  0  0  0  0  0  0  0
  -25.8933  -11.6724   20.3229 N   0  0  0  0  0  0  0  0  0  0  0  0
  -32.3359  -15.9967   22.9132 N   0  0  0  0  0  0  0  0  0  0  0  0
  -26.2062  -12.9719   20.1836 N   0  0  0  0  0  0  0  0  0  0  0  0
  -29.3955  -24.5653   19.8877 N   0  0  0  0  0  0  0  0  0  0  0  0
  -30.0118  -13.2769   20.2713 N   0  0  0  0  0  0  0  0  0  0  0  0
  -33.7932  -17.4481   24.0946 N   0  0  0  0  0  0  0  0  0  0  0  0
  -25.3219  -15.1599   20.3864 N   0  0  0  0  0  0  0  0  0  0  0  0
  -21.8466  -12.5198   21.5474 N   0  0  0  0  0  0  0  0  0  0  0  0
  -30.4609  -14.6020   22.1699 N   0  0  0  0  0  0  0  0  0  0  0  0
  -30.3971  -17.4664   26.9805 N   0  0  0  0  0  0  0  0  0  0  0  0
  -31.0199  -21.8028   18.1481 N   0  0  0  0  0  0  0  0  0  0  0  0
  -28.2925  -27.7629   20.0191 N   0  0  0  0  0  0  0  0  0  0  0  0
  -25.1340  -28.2585   21.7062 N   0  3  0  0  0  0  0  0  0  0  0  0
  -22.5166  -14.6929   21.2519 O   0  0  0  0  0  0  0  0  0  0  0  0
  -32.5145  -18.3188   26.5724 O   0  0  0  0  0  0  0  0  0  0  0  0
  -31.7210  -23.5921   19.4633 O   0  0  0  0  0  0  0  0  0  0  0  0
  -29.7706  -21.3439   27.9520 O   0  0  0  0  0  0  0  0  0  0  0  0
  -29.1368  -25.9118   18.0019 O   0  0  0  0  0  0  0  0  0  0  0  0
  -27.7840  -27.4961   22.2657 O   0  0  0  0  0  0  0  0  0  0  0  0
  -32.0331  -14.3793   20.4786 O   0  0  0  0  0  0  0  0  0  0  0  0
  -21.8572   -6.9518   21.7282 O   0  0  0  0  0  0  0  0  0  0  0  0
  -29.3847  -21.6193   25.3075 O   0  0  0  0  0  0  0  0  0  1  0  0
  -18.7907   -6.6995   26.3039 F   0  0  0  0  0  0  0  0  0  0  0  0
  -22.3702   -5.0591   23.6768 F   0  0  0  0  0  0  0  0  0  0  0  0
  -31.1650  -15.3462   28.4192 F   0  0  0  0  0  0  0  0  0  0  0  0
  -30.2832  -15.9052   24.4818 S   0  0  0  0  0  0  0  0  0  0  0  0
  1  2  1  0  0  0  0
  1  5  2  0  0  0  0
  2  6  2  0  0  0  0
  3  8  2  0  0  0  0
  3 15  1  0  0  0  0
  4  9  1  0  0  0  0
  4 15  2  0  0  0  0
  5 17  1  0  0  0  0
  6 19  1  0  0  0  0
  7 10  2  0  0  0  0
  7 18  1  0  0  0  0
  8 21  1  0  0  0  0
  9 21  2  0  0  0  0
 10 22  1  0  0  0  0
 11 12  2  0  0  0  0
 11 23  1  0  0  0  0
 12 24  1  0  0  0  0
 13 20  1  0  0  0  0
 13 22  2  0  0  0  0
 14 24  2  0  0  0  0
 14 25  1  0  0  0  0
 15 26  1  0  0  0  0
 16 26  1  0  0  0  0
 16 29  2  0  0  0  0
 16 31  1  0  0  0  0
 17 19  2  0  0  0  0
 17 38  1  0  0  0  0
 18 20  2  0  0  0  0
 18 39  1  0  0  0  0
 19 47  1  0  0  0  0
 20 40  1  0  0  0  0
 21 85  1  0  0  0  0
 22 86  1  0  0  0  0
 23 25  2  0  0  0  0
 23 85  1  0  0  0  0
 24 87  1  0  0  0  0
 25 88  1  0  0  0  0
 26 65  2  0  0  0  0
 27 28  2  0  0  0  0
 27 32  1  0  0  0  0
 27 90  1  0  0  0  0
 28 66  1  0  0  0  0
 28 70  1  0  0  0  0
 29 67  1  0  0  0  0
 29 71  1  0  0  0  0
 30 66  2  0  0  0  0
 30 73  1  0  0  0  0
 30 90  1  0  0  0  0
 31 72  1  0  0  0  0
 31 78  2  0  0  0  0
 32 74  1  0  0  0  0
 32 79  2  0  0  0  0
 33 48  1  0  0  0  0
 33 75  1  0  0  0  0
 33 80  2  0  0  0  0
 34 57  1  0  0  0  0
 34 58  1  0  0  0  0
 34 81  2  0  0  0  0
 35 60  1  0  0  0  0
 35 68  1  0  0  0  0
 35 82  2  0  0  0  0
 36 61  1  0  0  0  0
 36 76  1  0  0  0  0
 36 83  2  0  0  0  0
 37 69  1  0  0  0  0
 37 73  1  0  0  0  0
 37 84  2  0  0  0  0
 38 41  1  0  0  0  0
 39 48  1  0  0  0  0
 40 68  1  0  0  0  0
 41 43  1  0  0  0  0
 42 44  1  0  0  0  0
 42 45  1  0  0  0  0
 43 47  1  0  0  0  0
 44 49  1  0  0  0  0
 45 69  1  0  0  0  0
 46 49  1  0  0  0  0
 46 69  1  0  0  0  0
 47 75  1  0  0  0  0
 48 68  1  0  0  0  0
 49 67  1  0  0  0  0
 50 61  1  0  0  0  0
 51 63  1  0  0  0  0
 52 63  1  0  0  0  0
 53 63  1  0  0  0  0
 54 64  1  0  0  0  0
 55 64  1  0  0  0  0
 56 77  1  0  0  0  0
 57 62  1  0  0  0  0
 58 86  1  0  0  0  0
 59 62  1  0  0  0  0
 59 64  1  0  0  0  0
 60 63  1  0  0  0  0
 60 76  1  0  0  0  0
 61 77  1  0  0  0  0
 62 74  1  0  0  0  0
 64 89  1  0  0  0  0
 65 67  1  0  0  0  0
M  CHG  1  77   1
M  ISO  4  37 100  58 101  73 100  86 101
M  END
> <Batch ID>
0179

> <Smiles>
CNC(C)C(=O)NC(C(=O)N1Cc2cc([101O:1][101CH2:1]C(=O)CC(CC(C)(C)F)NC(=O)c3sc([100NH:0][100C:0](=O)N4CCCC(n5nc(-c6ccc(Oc7ccc(F)cc7F)cc6)c(C(N)=O)c5N)C4)nc3N)ccc2CC1C(=O)NC1CCCc2ccccc21)C(C)(C)C

> <Shape>
0.268

> <Color>
0.168

> <Negative vol penalty>
0.000

$$$$

  -OEChem-04052304473D

 88 96  0     1  0  0  0  0  0999 V2000
  -18.7390  -24.6923   21.6300 C   0  0  0  0  0  0  0  0  0  0  0  0
  -20.1015  -24.7820   21.3634 C   0  0  0  0  0  0  0  0  0  0  0  0
  -22.4414  -14.8595   21.9427 C   0  0  0  0  0  0  0  0  0  0  0  0
  -23.0557  -17.0947   21.2617 C   0  0  0  0  0  0  0  0  0  0  0  0
  -17.9698  -25.8516   21.7202 C   0  0  0  0  0  0  0  0  0  0  0  0
  -20.6953  -26.0311   21.1858 C   0  0  0  0  0  0  0  0  0  0  0  0
  -25.0842  -26.4672   23.6742 C   0  0  0  0  0  0  0  0  0  0  0  0
  -21.5512  -15.3888   22.8770 C   0  0  0  0  0  0  0  0  0  0  0  0
  -22.1654  -17.6240   22.1960 C   0  0  0  0  0  0  0  0  0  0  0  0
  -26.2029  -25.8622   23.1030 C   0  0  0  0  0  0  0  0  0  0  0  0
  -19.7898  -19.5607   24.1515 C   0  0  0  0  0  0  0  0  0  0  0  0
  -18.9639  -20.6071   23.7410 C   0  0  0  0  0  0  0  0  0  0  0  0
  -26.9079  -27.9995   22.2347 C   0  0  0  0  0  0  0  0  0  0  0  0
  -30.2136  -20.6605   17.5243 C   0  0  0  0  0  0  0  0  0  0  0  0
  -18.0068  -19.1840   22.0393 C   0  0  0  0  0  0  0  0  0  0  0  0
  -23.1937  -15.7124   21.1351 C   0  0  0  0  0  0  0  0  0  0  0  0
  -23.8417  -14.8330   18.8298 C   0  0  0  0  0  0  0  0  0  0  0  0
  -18.5563  -27.1161   21.5532 C   0  0  0  0  0  0  0  0  0  0  0  0
  -24.8629  -27.8433   23.5206 C   0  0  0  0  0  0  0  0  0  0  0  0
  -19.9329  -27.2084   21.2726 C   0  0  0  0  0  0  0  0  0  0  0  0
  -25.7870  -28.6200   22.8072 C   0  0  0  0  0  0  0  0  0  0  0  0
  -30.7897  -19.3574   17.5096 C   0  0  0  0  0  0  0  0  0  0  0  0
  -21.4132  -16.7710   23.0037 C   0  0  0  0  0  0  0  0  0  0  0  0
  -27.1134  -26.6279   22.3807 C   0  0  0  0  0  0  0  0  0  0  0  0
  -19.7243  -18.3260   23.5059 C   0  0  0  0  0  0  0  0  0  0  0  0
  -18.0724  -20.4188   22.6850 C   0  0  0  0  0  0  0  0  0  0  0  0
  -18.8327  -18.1376   22.4498 C   0  0  0  0  0  0  0  0  0  0  0  0
  -24.1139  -15.1663   20.1702 C   0  0  0  0  0  0  0  0  0  0  0  0
  -30.9255  -18.8374   18.7780 C   0  0  0  0  0  0  0  0  0  0  0  0
  -25.0357  -14.3580   18.3448 C   0  0  0  0  0  0  0  0  0  0  0  0
  -29.9307  -21.0867   18.8034 C   0  0  0  0  0  0  0  0  0  0  0  0
  -22.6189  -14.9430   18.0893 C   0  0  0  0  0  0  0  0  0  0  0  0
  -28.3903  -24.4755   19.3523 C   0  0  0  0  0  0  0  0  0  0  0  0
  -28.9410  -23.3619   18.5090 C   0  0  0  0  0  0  0  0  0  0  0  0
  -22.5845  -29.6137   22.1870 C   0  0  0  0  0  0  0  0  0  0  0  0
  -24.2664  -32.0625   23.4897 C   0  0  0  0  0  0  0  0  0  0  0  0
  -27.2531  -33.2252   24.6622 C   0  0  0  0  0  0  0  0  0  0  0  0
  -30.7357  -15.2749   19.9323 C   0  0  0  0  0  0  0  0  0  0  0  0
  -17.6751  -28.3386   21.6128 C   0  0  0  0  0  0  0  0  0  0  0  0
  -23.6654  -28.4854   24.1656 C   0  0  0  0  0  0  0  0  0  0  0  0
  -25.6059  -30.1047   22.6303 C   0  0  0  0  0  0  0  0  0  0  0  0
  -18.4519  -29.6416   21.7833 C   0  0  0  0  0  0  0  0  0  0  0  0
  -29.0383  -12.1500   19.7572 C   0  0  0  0  0  0  0  0  0  0  0  0
  -19.6336  -29.6885   20.8199 C   0  0  0  0  0  0  0  0  0  0  0  0
  -27.5592  -12.5386   19.7222 C   0  0  0  0  0  0  0  0  0  0  0  0
  -29.8452  -13.0807   20.6598 C   0  0  0  0  0  0  0  0  0  0  0  0
  -28.2237  -14.9052   20.3193 C   0  0  0  0  0  0  0  0  0  0  0  0
  -20.6182  -28.5463   21.0984 C   0  0  1  0  0  0  0  0  0  0  0  0
  -23.2697  -29.8052   23.5105 C   0  0  1  0  0  0  0  0  0  0  0  0
  -27.3791  -14.0294   19.3781 C   0  0  2  0  0  0  0  0  0  0  0  0
  -28.3261  -35.2786   25.6263 C   0  0  0  0  0  0  0  0  0  0  0  0
  -24.3352  -33.3269   20.7136 C   0  0  0  0  0  0  0  0  0  0  0  0
  -26.1729  -34.8250   21.5178 C   0  0  0  0  0  0  0  0  0  0  0  0
  -23.9199  -34.9357   22.5827 C   0  0  0  0  0  0  0  0  0  0  0  0
  -27.9269  -31.8304   27.1840 C   0  0  0  0  0  0  0  0  0  0  0  0
  -31.4735  -17.5254   19.1908 C   0  0  0  0  0  0  0  0  0  0  0  0
  -29.3718  -25.5468   19.7743 C   0  0  0  0  0  0  0  0  0  0  0  0
  -28.7174  -26.6250   20.6248 C   0  0  0  0  0  0  0  0  0  1  0  0
  -25.4059  -32.9400   23.0309 C   0  0  1  0  0  0  0  0  0  0  0  0
  -27.6145  -33.9704   25.9344 C   0  0  2  0  0  0  0  0  0  0  0  0
  -31.1919  -18.6540   16.2684 C   0  0  0  0  0  0  0  0  0  0  0  0
  -24.9612  -33.9786   21.9628 C   0  0  0  0  0  0  0  0  0  0  0  0
  -25.3813  -14.9235   20.5147 N   0  0  0  0  0  0  0  0  0  0  0  0
  -25.9161  -14.4324   19.3838 N   0  0  0  0  0  0  0  0  0  0  0  0
  -24.4160  -30.6851   23.2745 N   0  0  0  0  0  0  0  0  0  0  0  0
  -29.6315  -14.4792   20.2797 N   0  0  0  0  0  0  0  0  0  0  0  0
  -25.4078  -13.8879   17.1353 N   0  0  0  0  0  0  0  0  0  0  0  0
  -21.4869  -15.4517   18.7406 N   0  0  0  0  0  0  0  0  0  0  0  0
  -29.3633  -22.2946   19.2719 N   0  0  0  0  0  0  0  0  0  0  0  0
  -21.4333  -28.8523   22.2544 N   0  0  0  0  0  0  0  0  0  0  0  0
  -25.9776  -33.5302   24.2365 N   0  0  0  0  0  0  0  0  0  0  0  0
  -30.4444  -16.5867   19.5788 N   0  0  0  0  0  0  0  0  0  0  0  0
  -28.5101  -33.1375   26.7860 N   0  3  0  0  0  0  0  0  0  0  0  0
  -22.5284  -14.5849   16.8905 O   0  0  0  0  0  0  0  0  0  0  0  0
  -27.1992  -24.4372   19.6212 O   0  0  0  0  0  0  0  0  0  0  0  0
  -28.9195  -23.5295   17.3010 O   0  0  0  0  0  0  0  0  0  0  0  0
  -23.0639  -30.1206   21.1796 O   0  0  0  0  0  0  0  0  0  0  0  0
  -23.2831  -32.5793   24.0259 O   0  0  0  0  0  0  0  0  0  0  0  0
  -28.0264  -32.4528   24.1001 O   0  0  0  0  0  0  0  0  0  0  0  0
  -31.8947  -14.8463   19.9318 O   0  0  0  0  0  0  0  0  0  0  0  0
  -20.5444  -17.2879   23.9151 O   0  0  0  0  0  0  0  0  0  0  0  0
  -28.2058  -26.0398   21.8215 O   0  0  0  0  0  0  0  0  0  1  0  0
  -17.2782  -21.4232   22.2919 F   0  0  0  0  0  0  0  0  0  0  0  0
  -18.7644  -16.9533   21.8264 F   0  0  0  0  0  0  0  0  0  0  0  0
  -30.9608  -19.3693   15.1235 F   0  0  0  0  0  0  0  0  0  0  0  0
  -32.5228  -18.3351   16.2165 F   0  0  0  0  0  0  0  0  0  0  0  0
  -30.5325  -17.4684   16.0887 F   0  0  0  0  0  0  0  0  0  0  0  0
  -30.3595  -19.9183   19.9795 S   0  0  0  0  0  0  0  0  0  0  0  0
  1  2  1  0  0  0  0
  1  5  2  0  0  0  0
  2  6  2  0  0  0  0
  3  8  2  0  0  0  0
  3 16  1  0  0  0  0
  4  9  1  0  0  0  0
  4 16  2  0  0  0  0
  5 18  1  0  0  0  0
  6 20  1  0  0  0  0
  7 10  2  0  0  0  0
  7 19  1  0  0  0  0
  8 23  1  0  0  0  0
  9 23  2  0  0  0  0
 10 24  1  0  0  0  0
 11 12  2  0  0  0  0
 11 25  1  0  0  0  0
 12 26  1  0  0  0  0
 13 21  1  0  0  0  0
 13 24  2  0  0  0  0
 14 22  1  0  0  0  0
 14 31  2  0  0  0  0
 15 26  2  0  0  0  0
 15 27  1  0  0  0  0
 16 28  1  0  0  0  0
 17 28  1  0  0  0  0
 17 30  2  0  0  0  0
 17 32  1  0  0  0  0
 18 20  2  0  0  0  0
 18 39  1  0  0  0  0
 19 21  2  0  0  0  0
 19 40  1  0  0  0  0
 20 48  1  0  0  0  0
 21 41  1  0  0  0  0
 22 29  2  0  0  0  0
 22 61  1  0  0  0  0
 23 81  1  0  0  0  0
 24 82  1  0  0  0  0
 25 27  2  0  0  0  0
 25 81  1  0  0  0  0
 26 83  1  0  0  0  0
 27 84  1  0  0  0  0
 28 63  2  0  0  0  0
 29 56  1  0  0  0  0
 29 88  1  0  0  0  0
 30 64  1  0  0  0  0
 30 67  1  0  0  0  0
 31 69  1  0  0  0  0
 31 88  1  0  0  0  0
 32 68  1  0  0  0  0
 32 74  2  0  0  0  0
 33 34  1  0  0  0  0
 33 57  1  0  0  0  0
 33 75  2  0  0  0  0
 34 69  1  0  0  0  0
 34 76  2  0  0  0  0
 35 49  1  0  0  0  0
 35 70  1  0  0  0  0
 35 77  2  0  0  0  0
 36 59  1  0  0  0  0
 36 65  1  0  0  0  0
 36 78  2  0  0  0  0
 37 60  1  0  0  0  0
 37 71  1  0  0  0  0
 37 79  2  0  0  0  0
 38 66  1  0  0  0  0
 38 72  1  0  0  0  0
 38 80  2  0  0  0  0
 39 42  1  0  0  0  0
 40 49  1  0  0  0  0
 41 65  1  0  0  0  0
 42 44  1  0  0  0  0
 43 45  1  0  0  0  0
 43 46  1  0  0  0  0
 44 48  1  0  0  0  0
 45 50  1  0  0  0  0
 46 66  1  0  0  0  0
 47 50  1  0  0  0  0
 47 66  1  0  0  0  0
 48 70  1  0  0  0  0
 49 65  1  0  0  0  0
 50 64  1  0  0  0  0
 51 60  1  0  0  0  0
 52 62  1  0  0  0  0
 53 62  1  0  0  0  0
 54 62  1  0  0  0  0
 55 73  1  0  0  0  0
 56 72  1  0  0  0  0
 57 58  1  0  0  0  0
 58 82  1  0  0  0  0
 59 62  1  0  0  0  0
 59 71  1  0  0  0  0
 60 73  1  0  0  0  0
 61 85  1  0  0  0  0
 61 86  1  0  0  0  0
 61 87  1  0  0  0  0
 63 64  1  0  0  0  0
M  CHG  1  73   1
M  ISO  4  38 100  58 101  72 100  82 101
M  END
> <Batch ID>
0179

> <Smiles>
CNC(C)C(=O)NC(C(=O)N1Cc2cc([101O:1][101CH2:1]CC(=O)C(=O)Nc3cc(C(F)(F)F)c(C[100NH:0][100C:0](=O)N4CCCC(n5nc(-c6ccc(Oc7ccc(F)cc7F)cc6)c(C(N)=O)c5N)C4)s3)ccc2CC1C(=O)NC1CCCc2ccccc21)C(C)(C)C

> <Shape>
0.232

> <Color>
0.091

> <Negative vol penalty>
0.000

$$$$

  -OEChem-04052304473D

 87 95  0     1  0  0  0  0  0999 V2000
  -16.1986  -20.5725   24.2506 C   0  0  0  0  0  0  0  0  0  0  0  0
  -16.9950  -19.6805   23.5395 C   0  0  0  0  0  0  0  0  0  0  0  0
  -26.0887  -27.3340   19.0347 C   0  0  0  0  0  0  0  0  0  0  0  0
  -26.1523  -26.4424   21.2793 C   0  0  0  0  0  0  0  0  0  0  0  0
  -16.7389  -21.7716   24.7131 C   0  0  0  0  0  0  0  0  0  0  0  0
  -18.3320  -19.9877   23.2896 C   0  0  0  0  0  0  0  0  0  0  0  0
  -23.0264  -16.0629   23.0377 C   0  0  0  0  0  0  0  0  0  0  0  0
  -25.4704  -28.4899   19.5113 C   0  0  0  0  0  0  0  0  0  0  0  0
  -25.5340  -27.5984   21.7559 C   0  0  0  0  0  0  0  0  0  0  0  0
  -23.6833  -15.4535   21.9695 C   0  0  0  0  0  0  0  0  0  0  0  0
  -24.2989  -30.4678   23.6157 C   0  0  0  0  0  0  0  0  0  0  0  0
  -24.8155  -31.0504   24.7730 C   0  0  0  0  0  0  0  0  0  0  0  0
  -25.3666  -17.1805   22.0273 C   0  0  0  0  0  0  0  0  0  0  0  0
  -26.9438  -31.3535   23.6703 C   0  0  0  0  0  0  0  0  0  0  0  0
  -26.4295  -26.3102   19.9187 C   0  0  0  0  0  0  0  0  0  0  0  0
  -28.4498  -24.8827   19.2954 C   0  0  0  0  0  0  0  0  0  0  0  0
  -18.0858  -22.0894   24.4770 C   0  0  0  0  0  0  0  0  0  0  0  0
  -23.5296  -17.2436   23.6025 C   0  0  0  0  0  0  0  0  0  0  0  0
  -18.8905  -21.1929   23.7482 C   0  0  0  0  0  0  0  0  0  0  0  0
  -24.7156  -17.8014   23.1042 C   0  0  0  0  0  0  0  0  0  0  0  0
  -25.1931  -28.6221   20.8719 C   0  0  0  0  0  0  0  0  0  0  0  0
  -24.8520  -16.0139   21.4623 C   0  0  0  0  0  0  0  0  0  0  0  0
  -25.1047  -30.3280   22.4857 C   0  0  0  0  0  0  0  0  0  0  0  0
  -26.1379  -31.4933   24.8002 C   0  0  0  0  0  0  0  0  0  0  0  0
  -26.4271  -30.7708   22.5130 C   0  0  0  0  0  0  0  0  0  0  0  0
  -27.0677  -25.1156   19.4269 C   0  0  0  0  0  0  0  0  0  0  0  0
  -28.5367  -23.6093   18.7881 C   0  0  0  0  0  0  0  0  0  0  0  0
  -31.1486  -16.5892   20.2868 C   0  0  0  0  0  0  0  0  0  0  0  0
  -29.1607  -17.3074   19.5325 C   0  0  0  0  0  0  0  0  0  0  0  0
  -29.7633  -15.1650   19.2430 C   0  0  0  0  0  0  0  0  0  0  0  0
  -29.5562  -25.7407   19.6043 C   0  0  0  0  0  0  0  0  0  0  0  0
  -22.4501  -20.2166   23.9183 C   0  0  0  0  0  0  0  0  0  0  0  0
  -28.4909  -12.3069   17.2378 C   0  0  0  0  0  0  0  0  0  0  0  0
  -27.1856  -13.3641   19.1497 C   0  0  0  0  0  0  0  0  0  0  0  0
  -25.1455  -20.5927   25.6835 C   0  0  0  0  0  0  0  0  0  0  0  0
  -28.3167  -19.5469   26.3880 C   0  0  0  0  0  0  0  0  0  0  0  0
  -26.9692  -18.2667   18.7428 C   0  0  0  0  0  0  0  0  0  0  0  0
  -18.6126  -23.4190   24.9558 C   0  0  0  0  0  0  0  0  0  0  0  0
  -22.8238  -17.8739   24.7717 C   0  0  0  0  0  0  0  0  0  0  0  0
  -25.3082  -19.0568   23.6884 C   0  0  0  0  0  0  0  0  0  0  0  0
  -20.1369  -23.4998   24.9727 C   0  0  0  0  0  0  0  0  0  0  0  0
  -24.9596  -20.5619   16.9068 C   0  0  0  0  0  0  0  0  0  0  0  0
  -20.7148  -22.9568   23.6696 C   0  0  0  0  0  0  0  0  0  0  0  0
  -25.4426  -21.9320   17.3880 C   0  0  0  0  0  0  0  0  0  0  0  0
  -24.9517  -19.5343   18.0372 C   0  0  0  0  0  0  0  0  0  0  0  0
  -26.7023  -20.7745   19.2481 C   0  0  0  0  0  0  0  0  0  0  0  0
  -20.3518  -21.4793   23.4785 C   0  0  1  0  0  0  0  0  0  0  0  0
  -23.1453  -19.3562   24.9353 C   0  0  1  0  0  0  0  0  0  0  0  0
  -26.7893  -21.8262   18.1301 C   0  0  2  0  0  0  0  0  0  0  0  0
  -29.5667  -12.4092   16.1855 C   0  0  0  0  0  0  0  0  0  0  0  0
  -30.2851  -20.0741   27.8525 C   0  0  0  0  0  0  0  0  0  0  0  0
  -25.8285  -22.9752   23.9038 C   0  0  0  0  0  0  0  0  0  0  0  0
  -28.1755  -22.8587   24.7675 C   0  0  0  0  0  0  0  0  0  0  0  0
  -26.2926  -23.3233   26.3364 C   0  0  0  0  0  0  0  0  0  0  0  0
  -28.2075  -16.8909   27.6890 C   0  0  0  0  0  0  0  0  0  0  0  0
  -25.7635  -13.7225   18.7354 C   0  0  0  0  0  0  0  0  0  0  0  0
  -24.9161  -14.2278   19.8932 C   0  0  0  0  0  0  0  0  0  1  0  0
  -28.2576  -13.5435   18.0900 C   0  0  1  0  0  0  0  0  0  0  0  0
  -26.5697  -20.9964   25.3873 C   0  0  1  0  0  0  0  0  0  0  0  0
  -29.0119  -19.2555   27.7056 C   0  0  2  0  0  0  0  0  0  0  0  0
  -26.7046  -22.5158   25.0863 C   0  0  0  0  0  0  0  0  0  0  0  0
  -26.3296  -24.0738   19.0345 N   0  0  0  0  0  0  0  0  0  0  0  0
  -30.3029  -17.6250   20.1625 N   0  0  0  0  0  0  0  0  0  0  0  0
  -30.9474  -15.3344   19.8531 N   0  0  0  0  0  0  0  0  0  0  0  0
  -28.8221  -16.1023   19.0465 N   0  0  0  0  0  0  0  0  0  0  0  0
  -27.2514  -23.1740   18.6515 N   0  0  0  0  0  0  0  0  0  0  0  0
  -24.5778  -19.6393   24.8264 N   0  0  0  0  0  0  0  0  0  0  0  0
  -26.2611  -19.4860   18.6913 N   0  0  0  0  0  0  0  0  0  0  0  0
  -29.5864  -22.8307   18.4499 N   0  0  0  0  0  0  0  0  0  0  0  0
  -32.3725  -16.8460   20.9418 N   0  0  0  0  0  0  0  0  0  0  0  0
  -29.2889  -27.0170   20.1180 N   0  0  0  0  0  0  0  0  0  0  0  0
  -28.2166  -18.3500   19.3605 N   0  0  0  0  0  0  0  0  0  0  0  0
  -29.4846  -13.8942   18.7675 N   0  0  0  0  0  0  0  0  0  0  0  0
  -21.1933  -20.6410   24.3053 N   0  0  0  0  0  0  0  0  0  0  0  0
  -27.3676  -20.5384   26.5196 N   0  0  0  0  0  0  0  0  0  0  0  0
  -29.3688  -17.8113   27.7947 N   0  3  0  0  0  0  0  0  0  0  0  0
  -30.7462  -25.3922   19.4146 O   0  0  0  0  0  0  0  0  0  0  0  0
  -23.0129  -20.4773   22.8615 O   0  0  0  0  0  0  0  0  0  0  0  0
  -27.8398  -11.2712   17.3734 O   0  0  0  0  0  0  0  0  0  0  0  0
  -27.4616  -12.9724   20.2836 O   0  0  0  0  0  0  0  0  0  0  0  0
  -24.5607  -21.0992   26.6443 O   0  0  0  0  0  0  0  0  0  0  0  0
  -28.5911  -18.9568   25.3453 O   0  0  0  0  0  0  0  0  0  0  0  0
  -26.5150  -17.2312   18.2494 O   0  0  0  0  0  0  0  0  0  0  0  0
  -24.5901  -29.7501   21.3373 O   0  0  0  0  0  0  0  0  0  0  0  0
  -25.4947  -15.4215   20.4193 O   0  0  0  0  0  0  0  0  0  1  0  0
  -26.6335  -32.0542   25.9111 F   0  0  0  0  0  0  0  0  0  0  0  0
  -27.2057  -30.6403   21.4302 F   0  0  0  0  0  0  0  0  0  0  0  0
  1  2  1  0  0  0  0
  1  5  2  0  0  0  0
  2  6  2  0  0  0  0
  3  8  2  0  0  0  0
  3 15  1  0  0  0  0
  4  9  1  0  0  0  0
  4 15  2  0  0  0  0
  5 17  1  0  0  0  0
  6 19  1  0  0  0  0
  7 10  2  0  0  0  0
  7 18  1  0  0  0  0
  8 21  1  0  0  0  0
  9 21  2  0  0  0  0
 10 22  1  0  0  0  0
 11 12  2  0  0  0  0
 11 23  1  0  0  0  0
 12 24  1  0  0  0  0
 13 20  1  0  0  0  0
 13 22  2  0  0  0  0
 14 24  2  0  0  0  0
 14 25  1  0  0  0  0
 15 26  1  0  0  0  0
 16 26  1  0  0  0  0
 16 27  2  0  0  0  0
 16 31  1  0  0  0  0
 17 19  2  0  0  0  0
 17 38  1  0  0  0  0
 18 20  2  0  0  0  0
 18 39  1  0  0  0  0
 19 47  1  0  0  0  0
 20 40  1  0  0  0  0
 21 84  1  0  0  0  0
 22 85  1  0  0  0  0
 23 25  2  0  0  0  0
 23 84  1  0  0  0  0
 24 86  1  0  0  0  0
 25 87  1  0  0  0  0
 26 62  2  0  0  0  0
 27 66  1  0  0  0  0
 27 69  1  0  0  0  0
 28 63  1  0  0  0  0
 28 64  2  0  0  0  0
 28 70  1  0  0  0  0
 29 63  2  0  0  0  0
 29 65  1  0  0  0  0
 29 72  1  0  0  0  0
 30 64  1  0  0  0  0
 30 65  2  0  0  0  0
 30 73  1  0  0  0  0
 31 71  1  0  0  0  0
 31 77  2  0  0  0  0
 32 48  1  0  0  0  0
 32 74  1  0  0  0  0
 32 78  2  0  0  0  0
 33 50  1  0  0  0  0
 33 58  1  0  0  0  0
 33 79  2  0  0  0  0
 34 56  1  0  0  0  0
 34 58  1  0  0  0  0
 34 80  2  0  0  0  0
 35 59  1  0  0  0  0
 35 67  1  0  0  0  0
 35 81  2  0  0  0  0
 36 60  1  0  0  0  0
 36 75  1  0  0  0  0
 36 82  2  0  0  0  0
 37 68  1  0  0  0  0
 37 72  1  0  0  0  0
 37 83  2  0  0  0  0
 38 41  1  0  0  0  0
 39 48  1  0  0  0  0
 40 67  1  0  0  0  0
 41 43  1  0  0  0  0
 42 44  1  0  0  0  0
 42 45  1  0  0  0  0
 43 47  1  0  0  0  0
 44 49  1  0  0  0  0
 45 68  1  0  0  0  0
 46 49  1  0  0  0  0
 46 68  1  0  0  0  0
 47 74  1  0  0  0  0
 48 67  1  0  0  0  0
 49 66  1  0  0  0  0
 51 60  1  0  0  0  0
 52 61  1  0  0  0  0
 53 61  1  0  0  0  0
 54 61  1  0  0  0  0
 55 76  1  0  0  0  0
 56 57  1  0  0  0  0
 57 85  1  0  0  0  0
 58 73  1  0  0  0  0
 59 61  1  0  0  0  0
 59 75  1  0  0  0  0
 60 76  1  0  0  0  0
 62 66  1  0  0  0  0
M  CHG  1  76   1
M  ISO  4  37 100  57 101  72 100  85 101
M  END
> <Batch ID>
0179

> <Smiles>
CNC(C)C(=O)NC(C(=O)N1Cc2cc([101O:1][101CH2:1]CC(=O)C(Nc3nc(N)nc([100NH:0][100C:0](=O)N4CCCC(n5nc(-c6ccc(Oc7ccc(F)cc7F)cc6)c(C(N)=O)c5N)C4)n3)C(C)=O)ccc2CC1C(=O)NC1CCCc2ccccc21)C(C)(C)C

> <Shape>
0.186

> <Color>
0.073

> <Negative vol penalty>
0.000

$$$$

  -OEChem-04052304473D

 90 98  0     1  0  0  0  0  0999 V2000
  -26.7231  -37.4976   22.9926 C   0  0  0  0  0  0  0  0  0  0  0  0
  -27.3524  -36.3781   22.4576 C   0  0  0  0  0  0  0  0  0  0  0  0
  -22.5333  -10.2111   22.3412 C   0  0  0  0  0  0  0  0  0  0  0  0
  -24.1489   -9.7085   20.6165 C   0  0  0  0  0  0  0  0  0  0  0  0
  -25.7029  -37.3410   23.9299 C   0  0  0  0  0  0  0  0  0  0  0  0
  -26.9626  -35.1013   22.8605 C   0  0  0  0  0  0  0  0  0  0  0  0
  -26.8182  -30.0384   19.4179 C   0  0  0  0  0  0  0  0  0  0  0  0
  -22.0093   -8.9236   22.2255 C   0  0  0  0  0  0  0  0  0  0  0  0
  -23.6249   -8.4210   20.5009 C   0  0  0  0  0  0  0  0  0  0  0  0
  -27.7066  -28.9730   19.2789 C   0  0  0  0  0  0  0  0  0  0  0  0
  -20.4803   -5.6514   22.6380 C   0  0  0  0  0  0  0  0  0  0  0  0
  -20.2117   -4.9525   23.8148 C   0  0  0  0  0  0  0  0  0  0  0  0
  -26.4239  -27.7025   20.8789 C   0  0  0  0  0  0  0  0  0  0  0  0
  -22.5410   -5.1059   24.4376 C   0  0  0  0  0  0  0  0  0  0  0  0
  -29.2316  -18.0685   19.6554 C   0  0  0  0  0  0  0  0  0  0  0  0
  -23.6031  -10.6036   21.5366 C   0  0  0  0  0  0  0  0  0  0  0  0
  -25.1838  -12.3557   22.5056 C   0  0  0  0  0  0  0  0  0  0  0  0
  -25.2937  -36.0614   24.3373 C   0  0  0  0  0  0  0  0  0  0  0  0
  -25.7303  -29.9478   20.2981 C   0  0  0  0  0  0  0  0  0  0  0  0
  -25.9368  -34.9275   23.8051 C   0  0  0  0  0  0  0  0  0  0  0  0
  -25.5216  -28.7673   21.0253 C   0  0  0  0  0  0  0  0  0  0  0  0
  -30.2163  -20.2005   19.1366 C   0  0  0  0  0  0  0  0  0  0  0  0
  -22.5551   -8.0285   21.3054 C   0  0  0  0  0  0  0  0  0  0  0  0
  -27.5112  -27.8059   20.0116 C   0  0  0  0  0  0  0  0  0  0  0  0
  -21.7793   -6.0775   22.3609 C   0  0  0  0  0  0  0  0  0  0  0  0
  -21.2420   -4.6797   24.7146 C   0  0  0  0  0  0  0  0  0  0  0  0
  -22.8096   -5.8048   23.2608 C   0  0  0  0  0  0  0  0  0  0  0  0
  -30.3339  -18.9160   19.6556 C   0  0  0  0  0  0  0  0  0  0  0  0
  -24.1444  -11.9336   21.6552 C   0  0  0  0  0  0  0  0  0  0  0  0
  -28.9844  -20.5864   18.6333 C   0  0  0  0  0  0  0  0  0  0  0  0
  -28.0437  -18.5499   19.1291 C   0  0  0  0  0  0  0  0  0  0  0  0
  -25.3204  -13.6966   22.2416 C   0  0  0  0  0  0  0  0  0  0  0  0
  -25.9569  -11.6029   23.4497 C   0  0  0  0  0  0  0  0  0  0  0  0
  -28.4187  -22.8410   18.8664 C   0  0  0  0  0  0  0  0  0  0  0  0
  -28.1969  -24.2450   18.3699 C   0  0  0  0  0  0  0  0  0  0  0  0
  -24.8129  -31.5259   22.9003 C   0  0  0  0  0  0  0  0  0  0  0  0
  -22.1632  -29.6768   22.6133 C   0  0  0  0  0  0  0  0  0  0  0  0
  -20.7487  -26.8046   21.4316 C   0  0  0  0  0  0  0  0  0  0  0  0
  -25.6429  -17.9477   18.6601 C   0  0  0  0  0  0  0  0  0  0  0  0
  -24.2186  -35.9434   25.3884 C   0  0  0  0  0  0  0  0  0  0  0  0
  -24.7658  -31.0960   20.4166 C   0  0  0  0  0  0  0  0  0  0  0  0
  -24.3576  -28.6120   21.9684 C   0  0  0  0  0  0  0  0  0  0  0  0
  -23.6097  -34.5468   25.4827 C   0  0  0  0  0  0  0  0  0  0  0  0
  -22.3845  -16.8453   19.5791 C   0  0  0  0  0  0  0  0  0  0  0  0
  -24.7059  -33.4861   25.4942 C   0  0  0  0  0  0  0  0  0  0  0  0
  -22.6374  -15.5039   20.2711 C   0  0  0  0  0  0  0  0  0  0  0  0
  -23.3345  -17.0646   18.4029 C   0  0  0  0  0  0  0  0  0  0  0  0
  -25.0131  -15.5699   19.4115 C   0  0  0  0  0  0  0  0  0  0  0  0
  -25.5252  -33.5254   24.1986 C   0  0  1  0  0  0  0  0  0  0  0  0
  -23.9840  -31.0868   21.7266 C   0  0  1  0  0  0  0  0  0  0  0  0
  -24.1234  -15.3328   20.6427 C   0  0  2  0  0  0  0  0  0  0  0  0
  -26.7508  -22.2629   20.6161 C   0  0  0  0  0  0  0  0  0  0  0  0
  -18.5740  -25.5532   21.3873 C   0  0  0  0  0  0  0  0  0  0  0  0
  -22.5997  -28.8204   25.5091 C   0  0  0  0  0  0  0  0  0  0  0  0
  -21.0272  -26.9137   25.1092 C   0  0  0  0  0  0  0  0  0  0  0  0
  -20.2147  -29.2630   24.9003 C   0  0  0  0  0  0  0  0  0  0  0  0
  -20.6068  -26.9241   18.4779 C   0  0  0  0  0  0  0  0  0  0  0  0
  -28.2026  -22.6062   20.3395 C   0  0  0  0  0  0  0  0  0  0  0  0
  -29.4020  -25.1558   18.3877 C   0  0  0  0  0  0  0  0  0  0  0  0
  -29.0182  -26.6109   18.6127 C   0  0  0  0  0  0  0  0  0  1  0  0
  -21.7467  -28.3188   23.1245 C   0  0  1  0  0  0  0  0  0  0  0  0
  -19.4611  -26.5565   20.6668 C   0  0  2  0  0  0  0  0  0  0  0  0
  -31.3916  -21.1160   19.1320 C   0  0  0  0  0  0  0  0  0  0  0  0
  -21.4202  -28.3323   24.6445 C   0  0  0  0  0  0  0  0  0  0  0  0
  -23.6552  -12.9261   20.9070 N   0  0  0  0  0  0  0  0  0  0  0  0
  -27.8912  -19.7913   18.6161 N   0  0  0  0  0  0  0  0  0  0  0  0
  -28.7988  -21.8703   18.0945 N   0  0  0  0  0  0  0  0  0  0  0  0
  -24.3904  -13.9851   21.2865 N   0  0  0  0  0  0  0  0  0  0  0  0
  -23.4460  -29.7649   22.0544 N   0  0  0  0  0  0  0  0  0  0  0  0
  -24.7242  -16.8906   18.8309 N   0  0  0  0  0  0  0  0  0  0  0  0
  -26.1439  -14.6454   22.7356 N   0  0  0  0  0  0  0  0  0  0  0  0
  -25.6862  -10.2355   23.5957 N   0  0  0  0  0  0  0  0  0  0  0  0
  -26.9265  -17.6784   19.1341 N   0  0  0  0  0  0  0  0  0  0  0  0
  -24.7976  -32.8899   23.1210 N   0  0  0  0  0  0  0  0  0  0  0  0
  -20.6389  -27.8866   22.2792 N   0  0  0  0  0  0  0  0  0  0  0  0
  -19.7606  -26.0270   19.3063 N   0  3  0  0  0  0  0  0  0  0  0  0
  -26.8498  -12.1308   24.1552 O   0  0  0  0  0  0  0  0  0  0  0  0
  -27.0819  -24.5329   17.9624 O   0  0  0  0  0  0  0  0  0  0  0  0
  -25.4201  -30.6890   23.5580 O   0  0  0  0  0  0  0  0  0  0  0  0
  -21.3764  -30.6230   22.7000 O   0  0  0  0  0  0  0  0  0  0  0  0
  -21.7505  -26.1059   21.2940 O   0  0  0  0  0  0  0  0  0  0  0  0
  -25.3084  -19.0233   18.1569 O   0  0  0  0  0  0  0  0  0  0  0  0
  -22.0443   -6.7720   21.1925 O   0  0  0  0  0  0  0  0  0  0  0  0
  -28.3772  -26.7647   19.8784 O   0  0  0  0  0  0  0  0  0  1  0  0
  -20.9836   -4.0099   25.8454 F   0  0  0  0  0  0  0  0  0  0  0  0
  -24.0593   -6.2127   23.0006 F   0  0  0  0  0  0  0  0  0  0  0  0
  -31.5010  -18.4871   20.1560 F   0  0  0  0  0  0  0  0  0  0  0  0
  -32.5205  -20.5631   19.6683 F   0  0  0  0  0  0  0  0  0  0  0  0
  -31.7590  -21.5305   17.8827 F   0  0  0  0  0  0  0  0  0  0  0  0
  -31.1715  -22.2593   19.8455 F   0  0  0  0  0  0  0  0  0  0  0  0
  1  2  1  0  0  0  0
  1  5  2  0  0  0  0
  2  6  2  0  0  0  0
  3  8  2  0  0  0  0
  3 16  1  0  0  0  0
  4  9  1  0  0  0  0
  4 16  2  0  0  0  0
  5 18  1  0  0  0  0
  6 20  1  0  0  0  0
  7 10  2  0  0  0  0
  7 19  1  0  0  0  0
  8 23  1  0  0  0  0
  9 23  2  0  0  0  0
 10 24  1  0  0  0  0
 11 12  2  0  0  0  0
 11 25  1  0  0  0  0
 12 26  1  0  0  0  0
 13 21  1  0  0  0  0
 13 24  2  0  0  0  0
 14 26  2  0  0  0  0
 14 27  1  0  0  0  0
 15 28  2  0  0  0  0
 15 31  1  0  0  0  0
 16 29  1  0  0  0  0
 17 29  1  0  0  0  0
 17 32  2  0  0  0  0
 17 33  1  0  0  0  0
 18 20  2  0  0  0  0
 18 40  1  0  0  0  0
 19 21  2  0  0  0  0
 19 41  1  0  0  0  0
 20 49  1  0  0  0  0
 21 42  1  0  0  0  0
 22 28  1  0  0  0  0
 22 30  2  0  0  0  0
 22 63  1  0  0  0  0
 23 83  1  0  0  0  0
 24 84  1  0  0  0  0
 25 27  2  0  0  0  0
 25 83  1  0  0  0  0
 26 85  1  0  0  0  0
 27 86  1  0  0  0  0
 28 87  1  0  0  0  0
 29 65  2  0  0  0  0
 30 66  1  0  0  0  0
 30 67  1  0  0  0  0
 31 66  2  0  0  0  0
 31 73  1  0  0  0  0
 32 68  1  0  0  0  0
 32 71  1  0  0  0  0
 33 72  1  0  0  0  0
 33 77  2  0  0  0  0
 34 35  1  0  0  0  0
 34 58  1  0  0  0  0
 34 67  2  0  0  0  0
 35 59  1  0  0  0  0
 35 78  2  0  0  0  0
 36 50  1  0  0  0  0
 36 74  1  0  0  0  0
 36 79  2  0  0  0  0
 37 61  1  0  0  0  0
 37 69  1  0  0  0  0
 37 80  2  0  0  0  0
 38 62  1  0  0  0  0
 38 75  1  0  0  0  0
 38 81  2  0  0  0  0
 39 70  1  0  0  0  0
 39 73  1  0  0  0  0
 39 82  2  0  0  0  0
 40 43  1  0  0  0  0
 41 50  1  0  0  0  0
 42 69  1  0  0  0  0
 43 45  1  0  0  0  0
 44 46  1  0  0  0  0
 44 47  1  0  0  0  0
 45 49  1  0  0  0  0
 46 51  1  0  0  0  0
 47 70  1  0  0  0  0
 48 51  1  0  0  0  0
 48 70  1  0  0  0  0
 49 74  1  0  0  0  0
 50 69  1  0  0  0  0
 51 68  1  0  0  0  0
 52 58  1  0  0  0  0
 53 62  1  0  0  0  0
 54 64  1  0  0  0  0
 55 64  1  0  0  0  0
 56 64  1  0  0  0  0
 57 76  1  0  0  0  0
 59 60  1  0  0  0  0
 60 84  1  0  0  0  0
 61 64  1  0  0  0  0
 61 75  1  0  0  0  0
 62 76  1  0  0  0  0
 63 88  1  0  0  0  0
 63 89  1  0  0  0  0
 63 90  1  0  0  0  0
 65 68  1  0  0  0  0
M  CHG  1  76   1
M  ISO  4  39 100  60 101  73 100  84 101
M  END
> <Batch ID>
0179

> <Smiles>
C=CC(Nc1nc([100NH:0][100C:0](=O)N2CCCC(n3nc(-c4ccc(Oc5ccc(F)cc5F)cc4)c(C(N)=O)c3N)C2)cc(F)c1C(F)(F)F)C(=O)C[101CH2:1][101O:1]c1ccc2c(c1)CN(C(=O)C(NC(=O)C(C)NC)C(C)(C)C)C(C(=O)NC1CCCc3ccccc31)C2

> <Shape>
0.333

> <Color>
0.105

> <Negative vol penalty>
0.000

$$$$

  -OEChem-04052304473D

 87 95  0     1  0  0  0  0  0999 V2000
  -26.1693  -37.5742   19.7911 C   0  0  0  0  0  0  0  0  0  0  0  0
  -26.8222  -36.3640   19.5800 C   0  0  0  0  0  0  0  0  0  0  0  0
  -30.6051  -18.4319   20.9630 C   0  0  0  0  0  0  0  0  0  0  0  0
  -26.3203  -14.2696   19.6741 C   0  0  0  0  0  0  0  0  0  0  0  0
  -23.9417  -14.4316   20.0652 C   0  0  0  0  0  0  0  0  0  0  0  0
  -25.2704  -37.7047   20.8489 C   0  0  0  0  0  0  0  0  0  0  0  0
  -26.5775  -35.2840   20.4273 C   0  0  0  0  0  0  0  0  0  0  0  0
  -26.4566  -29.3559   18.8943 C   0  0  0  0  0  0  0  0  0  0  0  0
  -30.2183  -19.5958   20.2986 C   0  0  0  0  0  0  0  0  0  0  0  0
  -30.3192  -18.2752   22.3192 C   0  0  0  0  0  0  0  0  0  0  0  0
  -26.2030  -12.8868   19.5335 C   0  0  0  0  0  0  0  0  0  0  0  0
  -23.8244  -13.0488   19.9247 C   0  0  0  0  0  0  0  0  0  0  0  0
  -27.4046  -28.3395   19.0031 C   0  0  0  0  0  0  0  0  0  0  0  0
  -22.9531   -9.5216   20.0260 C   0  0  0  0  0  0  0  0  0  0  0  0
  -22.1715   -8.8392   20.9582 C   0  0  0  0  0  0  0  0  0  0  0  0
  -26.4024  -27.6354   21.0813 C   0  0  0  0  0  0  0  0  0  0  0  0
  -29.2597  -20.4463   22.3467 C   0  0  0  0  0  0  0  0  0  0  0  0
  -23.6150   -9.6125   22.7346 C   0  0  0  0  0  0  0  0  0  0  0  0
  -25.1896  -15.0420   19.9400 C   0  0  0  0  0  0  0  0  0  0  0  0
  -25.2091  -17.4401   19.0703 C   0  0  0  0  0  0  0  0  0  0  0  0
  -25.0072  -36.6228   21.7037 C   0  0  0  0  0  0  0  0  0  0  0  0
  -25.4794  -29.5269   19.8855 C   0  0  0  0  0  0  0  0  0  0  0  0
  -25.6752  -35.4005   21.4983 C   0  0  0  0  0  0  0  0  0  0  0  0
  -25.4416  -28.6532   20.9815 C   0  0  0  0  0  0  0  0  0  0  0  0
  -29.5456  -20.6030   20.9905 C   0  0  0  0  0  0  0  0  0  0  0  0
  -29.6465  -19.2824   23.0111 C   0  0  0  0  0  0  0  0  0  0  0  0
  -24.9551  -12.2764   19.6588 C   0  0  0  0  0  0  0  0  0  0  0  0
  -27.3794  -27.4808   20.0981 C   0  0  0  0  0  0  0  0  0  0  0  0
  -24.0657  -10.2495   20.4481 C   0  0  0  0  0  0  0  0  0  0  0  0
  -22.5024   -8.8847   22.3125 C   0  0  0  0  0  0  0  0  0  0  0  0
  -24.3966  -10.2949   21.8024 C   0  0  0  0  0  0  0  0  0  0  0  0
  -25.3102  -16.4704   20.0858 C   0  0  0  0  0  0  0  0  0  0  0  0
  -25.3963  -18.6366   19.7183 C   0  0  0  0  0  0  0  0  0  0  0  0
  -24.9674  -17.2742   17.6668 C   0  0  0  0  0  0  0  0  0  0  0  0
  -28.7978  -23.4391   18.6165 C   0  0  0  0  0  0  0  0  0  0  0  0
  -29.2708  -24.5327   19.2468 C   0  0  0  0  0  0  0  0  0  0  0  0
  -29.3513  -22.0932   18.9783 C   0  0  0  0  0  0  0  0  0  0  0  0
  -24.7268  -31.8538   21.9158 C   0  0  0  0  0  0  0  0  0  0  0  0
  -22.2123  -29.9196   22.5928 C   0  0  0  0  0  0  0  0  0  0  0  0
  -20.9054  -26.7670   22.6136 C   0  0  0  0  0  0  0  0  0  0  0  0
  -28.2307  -19.6991   25.0391 C   0  0  0  0  0  0  0  0  0  0  0  0
  -24.0631  -36.8259   22.8622 C   0  0  0  0  0  0  0  0  0  0  0  0
  -24.4475  -30.6115   19.7400 C   0  0  0  0  0  0  0  0  0  0  0  0
  -24.4007  -28.7816   22.0625 C   0  0  0  0  0  0  0  0  0  0  0  0
  -23.5774  -35.5211   23.4881 C   0  0  0  0  0  0  0  0  0  0  0  0
  -24.8449  -20.7444   23.9728 C   0  0  0  0  0  0  0  0  0  0  0  0
  -24.7471  -34.5675   23.7097 C   0  0  0  0  0  0  0  0  0  0  0  0
  -24.5418  -19.7883   22.8207 C   0  0  0  0  0  0  0  0  0  0  0  0
  -25.7934  -20.1204   24.9920 C   0  0  0  0  0  0  0  0  0  0  0  0
  -26.7655  -18.6647   23.2378 C   0  0  0  0  0  0  0  0  0  0  0  0
  -25.4175  -34.1985   22.3808 C   0  0  1  0  0  0  0  0  0  0  0  0
  -23.8134  -31.0149   21.0676 C   0  0  1  0  0  0  0  0  0  0  0  0
  -25.8440  -19.2847   22.1768 C   0  0  1  0  0  0  0  0  0  0  0  0
  -27.7584  -23.4103   17.5372 C   0  0  0  0  0  0  0  0  0  0  0  0
  -31.4459  -19.5747   25.6273 C   0  0  0  0  0  0  0  0  0  0  0  0
  -18.8416  -25.4944   23.2603 C   0  0  0  0  0  0  0  0  0  0  0  0
  -23.0211  -30.1047   25.5290 C   0  0  0  0  0  0  0  0  0  0  0  0
  -21.5667  -28.1180   25.9828 C   0  0  0  0  0  0  0  0  0  0  0  0
  -20.5577  -30.2281   25.1157 C   0  0  0  0  0  0  0  0  0  0  0  0
  -20.4393  -25.8800   19.8288 C   0  0  0  0  0  0  0  0  0  0  0  0
  -28.8157  -25.9412   18.9924 C   0  0  0  0  0  0  0  0  0  1  0  0
  -30.3887  -18.5496   25.2700 C   0  0  0  0  0  0  0  0  0  0  0  0
  -21.9590  -28.7985   23.5715 C   0  0  1  0  0  0  0  0  0  0  0  0
  -19.5664  -26.2286   22.1430 C   0  0  2  0  0  0  0  0  0  0  0  0
  -21.7971  -29.3109   25.0305 C   0  0  0  0  0  0  0  0  0  0  0  0
  -25.5437  -17.0046   21.2875 N   0  0  0  0  0  0  0  0  0  0  0  0
  -25.5909  -18.3230   21.0313 N   0  0  0  0  0  0  0  0  0  0  0  0
  -23.4173  -29.8617   21.8783 N   0  0  0  0  0  0  0  0  0  0  0  0
  -27.0014  -19.5917   24.3567 N   0  0  0  0  0  0  0  0  0  0  0  0
  -25.4118  -19.9158   19.2873 N   0  0  0  0  0  0  0  0  0  0  0  0
  -24.7976  -15.9759   17.1670 N   0  0  0  0  0  0  0  0  0  0  0  0
  -29.1530  -21.7835   20.3156 N   0  0  0  0  0  0  0  0  0  0  0  0
  -24.6300  -33.2110   21.6745 N   0  0  0  0  0  0  0  0  0  0  0  0
  -20.8038  -28.0664   23.0636 N   0  0  0  0  0  0  0  0  0  0  0  0
  -29.3510  -19.1196   24.4136 N   0  0  0  0  0  0  0  0  0  0  0  0
  -19.7585  -25.2835   21.0068 N   0  3  0  0  0  0  0  0  0  0  0  0
  -24.9203  -18.2473   16.8766 O   0  0  0  0  0  0  0  0  0  0  0  0
  -29.8601  -21.4016   18.1030 O   0  0  0  0  0  0  0  0  0  0  0  0
  -25.4637  -31.3102   22.7302 O   0  0  0  0  0  0  0  0  0  0  0  0
  -21.3687  -30.8100   22.4616 O   0  0  0  0  0  0  0  0  0  0  0  0
  -21.9376  -26.1003   22.5882 O   0  0  0  0  0  0  0  0  0  0  0  0
  -28.3156  -20.2257   26.1554 O   0  0  0  0  0  0  0  0  0  0  0  0
  -30.2955  -24.4239   20.1758 O   0  0  0  0  0  0  0  0  0  0  0  0
  -24.8402  -10.9271   19.5215 O   0  0  0  0  0  0  0  0  0  0  0  0
  -28.3040  -26.4882   20.2070 O   0  0  0  0  0  0  0  0  0  1  0  0
  -21.7508   -8.2305   23.2077 F   0  0  0  0  0  0  0  0  0  0  0  0
  -25.4636  -10.9935   22.2140 F   0  0  0  0  0  0  0  0  0  0  0  0
  1  2  1  0  0  0  0
  1  6  2  0  0  0  0
  2  7  2  0  0  0  0
  3  9  1  0  0  0  0
  3 10  2  0  0  0  0
  4 11  2  0  0  0  0
  4 19  1  0  0  0  0
  5 12  1  0  0  0  0
  5 19  2  0  0  0  0
  6 21  1  0  0  0  0
  7 23  1  0  0  0  0
  8 13  2  0  0  0  0
  8 22  1  0  0  0  0
  9 25  2  0  0  0  0
 10 26  1  0  0  0  0
 11 27  1  0  0  0  0
 12 27  2  0  0  0  0
 13 28  1  0  0  0  0
 14 15  2  0  0  0  0
 14 29  1  0  0  0  0
 15 30  1  0  0  0  0
 16 24  1  0  0  0  0
 16 28  2  0  0  0  0
 17 25  1  0  0  0  0
 17 26  2  0  0  0  0
 18 30  2  0  0  0  0
 18 31  1  0  0  0  0
 19 32  1  0  0  0  0
 20 32  1  0  0  0  0
 20 33  2  0  0  0  0
 20 34  1  0  0  0  0
 21 23  2  0  0  0  0
 21 42  1  0  0  0  0
 22 24  2  0  0  0  0
 22 43  1  0  0  0  0
 23 51  1  0  0  0  0
 24 44  1  0  0  0  0
 25 72  1  0  0  0  0
 26 75  1  0  0  0  0
 27 84  1  0  0  0  0
 28 85  1  0  0  0  0
 29 31  2  0  0  0  0
 29 84  1  0  0  0  0
 30 86  1  0  0  0  0
 31 87  1  0  0  0  0
 32 66  2  0  0  0  0
 33 67  1  0  0  0  0
 33 70  1  0  0  0  0
 34 71  1  0  0  0  0
 34 77  2  0  0  0  0
 35 36  2  0  0  0  0
 35 37  1  0  0  0  0
 35 54  1  0  0  0  0
 36 61  1  0  0  0  0
 36 83  1  0  0  0  0
 37 72  1  0  0  0  0
 37 78  2  0  0  0  0
 38 52  1  0  0  0  0
 38 73  1  0  0  0  0
 38 79  2  0  0  0  0
 39 63  1  0  0  0  0
 39 68  1  0  0  0  0
 39 80  2  0  0  0  0
 40 64  1  0  0  0  0
 40 74  1  0  0  0  0
 40 81  2  0  0  0  0
 41 69  1  0  0  0  0
 41 75  1  0  0  0  0
 41 82  2  0  0  0  0
 42 45  1  0  0  0  0
 43 52  1  0  0  0  0
 44 68  1  0  0  0  0
 45 47  1  0  0  0  0
 46 48  1  0  0  0  0
 46 49  1  0  0  0  0
 47 51  1  0  0  0  0
 48 53  1  0  0  0  0
 49 69  1  0  0  0  0
 50 53  1  0  0  0  0
 50 69  1  0  0  0  0
 51 73  1  0  0  0  0
 52 68  1  0  0  0  0
 53 67  1  0  0  0  0
 55 62  1  0  0  0  0
 56 64  1  0  0  0  0
 57 65  1  0  0  0  0
 58 65  1  0  0  0  0
 59 65  1  0  0  0  0
 60 76  1  0  0  0  0
 61 85  1  0  0  0  0
 62 75  1  0  0  0  0
 63 65  1  0  0  0  0
 63 74  1  0  0  0  0
 64 76  1  0  0  0  0
 66 67  1  0  0  0  0
M  CHG  1  76   1
M  ISO  4  41 100  61 101  75 100  85 101
M  END
> <Batch ID>
0179

> <Smiles>
CC[100N:0](c1cccc(NC(=O)C(C)C(=O)[101CH2:1][101O:1]c2ccc3c(c2)CN(C(=O)C(NC(=O)C(C)NC)C(C)(C)C)C(C(=O)NC2CCCc4ccccc42)C3)c1)[100C:0](=O)N1CCCC(n2nc(-c3ccc(Oc4ccc(F)cc4F)cc3)c(C(N)=O)c2N)C1

> <Shape>
0.267

> <Color>
0.070

> <Negative vol penalty>
0.000

$$$$

  -OEChem-04052304473D

 86 94  0     1  0  0  0  0  0999 V2000
  -20.9301  -16.0941   16.8797 C   0  0  0  0  0  0  0  0  0  0  0  0
  -21.5104  -17.0870   17.6625 C   0  0  0  0  0  0  0  0  0  0  0  0
  -23.0753   -9.8659   19.9422 C   0  0  0  0  0  0  0  0  0  0  0  0
  -23.8351   -9.8757   22.2356 C   0  0  0  0  0  0  0  0  0  0  0  0
  -19.6207  -15.6862   17.1308 C   0  0  0  0  0  0  0  0  0  0  0  0
  -20.7811  -17.6734   18.6963 C   0  0  0  0  0  0  0  0  0  0  0  0
  -23.4770  -18.1314   22.9586 C   0  0  0  0  0  0  0  0  0  0  0  0
  -22.3318   -8.7128   20.1933 C   0  0  0  0  0  0  0  0  0  0  0  0
  -23.0915   -8.7225   22.4868 C   0  0  0  0  0  0  0  0  0  0  0  0
  -24.3951  -19.1787   23.0219 C   0  0  0  0  0  0  0  0  0  0  0  0
  -19.8636   -7.9244   23.0899 C   0  0  0  0  0  0  0  0  0  0  0  0
  -19.1065   -7.8855   24.2608 C   0  0  0  0  0  0  0  0  0  0  0  0
  -22.8221  -20.4714   24.3156 C   0  0  0  0  0  0  0  0  0  0  0  0
  -20.3485   -5.9492   24.9994 C   0  0  0  0  0  0  0  0  0  0  0  0
  -23.8270  -10.4474   20.9633 C   0  0  0  0  0  0  0  0  0  0  0  0
  -24.1681  -12.9725   20.8405 C   0  0  0  0  0  0  0  0  0  0  0  0
  -18.8784  -16.2611   18.1744 C   0  0  0  0  0  0  0  0  0  0  0  0
  -22.2183  -18.2507   23.5651 C   0  0  0  0  0  0  0  0  0  0  0  0
  -19.4601  -17.2738   18.9608 C   0  0  0  0  0  0  0  0  0  0  0  0
  -21.8908  -19.4232   24.2608 C   0  0  0  0  0  0  0  0  0  0  0  0
  -22.3399   -8.1411   21.4656 C   0  0  0  0  0  0  0  0  0  0  0  0
  -24.0667  -20.3500   23.6980 C   0  0  0  0  0  0  0  0  0  0  0  0
  -20.8630   -6.9756   22.8737 C   0  0  0  0  0  0  0  0  0  0  0  0
  -19.3490   -6.8979   25.2156 C   0  0  0  0  0  0  0  0  0  0  0  0
  -21.1055   -5.9881   23.8285 C   0  0  0  0  0  0  0  0  0  0  0  0
  -24.5958  -11.6382   20.7043 C   0  0  0  0  0  0  0  0  0  0  0  0
  -30.7065  -19.0984   22.9836 C   0  0  0  0  0  0  0  0  0  0  0  0
  -31.8085  -18.7296   22.2409 C   0  0  0  0  0  0  0  0  0  0  0  0
  -25.2600  -13.7219   20.4765 C   0  0  0  0  0  0  0  0  0  0  0  0
  -30.5706  -16.9516   21.8994 C   0  0  0  0  0  0  0  0  0  0  0  0
  -22.8974  -13.4883   21.2588 C   0  0  0  0  0  0  0  0  0  0  0  0
  -30.4376  -20.3268   23.7747 C   0  0  0  0  0  0  0  0  0  0  0  0
  -19.2149  -18.2175   22.5248 C   0  0  0  0  0  0  0  0  0  0  0  0
  -27.1608  -22.0570   24.5049 C   0  0  0  0  0  0  0  0  0  0  0  0
  -18.5272  -18.3003   25.6938 C   0  0  0  0  0  0  0  0  0  0  0  0
  -19.5243  -19.1142   28.8545 C   0  0  0  0  0  0  0  0  0  0  0  0
  -30.7259  -14.7693   20.6506 C   0  0  0  0  0  0  0  0  0  0  0  0
  -17.4502  -15.8208   18.3776 C   0  0  0  0  0  0  0  0  0  0  0  0
  -21.2493  -17.1015   23.5106 C   0  0  0  0  0  0  0  0  0  0  0  0
  -20.5604  -19.5935   24.9461 C   0  0  0  0  0  0  0  0  0  0  0  0
  -16.8739  -16.2284   19.7310 C   0  0  0  0  0  0  0  0  0  0  0  0
  -29.6124  -12.3527   18.2847 C   0  0  0  0  0  0  0  0  0  0  0  0
  -17.1952  -17.6893   20.0300 C   0  0  0  0  0  0  0  0  0  0  0  0
  -28.1728  -12.0612   18.7145 C   0  0  0  0  0  0  0  0  0  0  0  0
  -30.5273  -12.5830   19.4862 C   0  0  0  0  0  0  0  0  0  0  0  0
  -28.6201  -13.3083   20.8666 C   0  0  0  0  0  0  0  0  0  0  0  0
  -18.7098  -17.9164   20.1071 C   0  0  1  0  0  0  0  0  0  0  0  0
  -19.8011  -17.5304   23.7256 C   0  0  1  0  0  0  0  0  0  0  0  0
  -27.6474  -13.1336   19.6889 C   0  0  2  0  0  0  0  0  0  0  0  0
  -18.7315  -19.0996   31.2354 C   0  0  0  0  0  0  0  0  0  0  0  0
  -29.0803  -21.7638   26.0535 C   0  0  0  0  0  0  0  0  0  0  0  0
  -29.3594  -23.1185   23.9522 C   0  0  0  0  0  0  0  0  0  0  0  0
  -16.7727  -20.7303   25.1219 C   0  0  0  0  0  0  0  0  0  0  0  0
  -16.7855  -21.2298   27.5752 C   0  0  0  0  0  0  0  0  0  0  0  0
  -15.7954  -19.0964   26.7437 C   0  0  0  0  0  0  0  0  0  0  0  0
  -21.7073  -17.2998   29.6922 C   0  0  0  0  0  0  0  0  0  0  0  0
  -26.3454  -21.0296   23.7386 C   0  0  0  0  0  0  0  0  0  1  0  0
  -18.3060  -19.3932   26.7116 C   0  0  1  0  0  0  0  0  0  0  0  0
  -19.4818  -18.3345   30.1563 C   0  0  2  0  0  0  0  0  0  0  0  0
  -28.6895  -21.8935   24.5782 C   0  0  0  0  0  0  0  0  0  0  0  0
  -16.9393  -20.1103   26.5236 C   0  0  0  0  0  0  0  0  0  0  0  0
  -25.8607  -11.5423   20.2862 N   0  0  0  0  0  0  0  0  0  0  0  0
  -31.7325  -17.4987   21.6188 N   0  0  0  0  0  0  0  0  0  0  0  0
  -26.2372  -12.8259   20.1565 N   0  0  0  0  0  0  0  0  0  0  0  0
  -19.6445  -18.4441   24.8591 N   0  0  0  0  0  0  0  0  0  0  0  0
  -29.9680  -13.6146   20.3625 N   0  0  0  0  0  0  0  0  0  0  0  0
  -32.9165  -19.4964   22.1022 N   0  0  0  0  0  0  0  0  0  0  0  0
  -25.4700  -15.0534   20.4021 N   0  0  0  0  0  0  0  0  0  0  0  0
  -21.8857  -12.5792   21.5970 N   0  0  0  0  0  0  0  0  0  0  0  0
  -30.0782  -15.6950   21.4680 N   0  0  0  0  0  0  0  0  0  0  0  0
  -29.1089  -20.7070   23.8640 N   0  0  0  0  0  0  0  0  0  0  0  0
  -19.2268  -17.4499   21.3758 N   0  0  0  0  0  0  0  0  0  0  0  0
  -18.4805  -18.7732   28.0206 N   0  0  0  0  0  0  0  0  0  0  0  0
  -20.8640  -18.0665   30.6450 N   0  3  0  0  0  0  0  0  0  0  0  0
  -22.6607  -14.7190   21.3148 O   0  0  0  0  0  0  0  0  0  0  0  0
  -31.3791  -20.9356   24.2762 O   0  0  0  0  0  0  0  0  0  0  0  0
  -18.7823  -19.3589   22.6331 O   0  0  0  0  0  0  0  0  0  0  0  0
  -26.6016  -22.9816   25.1024 O   0  0  0  0  0  0  0  0  0  0  0  0
  -17.7416  -17.3505   25.6461 O   0  0  0  0  0  0  0  0  0  0  0  0
  -20.3943  -19.9455   28.6041 O   0  0  0  0  0  0  0  0  0  0  0  0
  -31.8550  -14.9379   20.1829 O   0  0  0  0  0  0  0  0  0  0  0  0
  -21.6143   -7.0161   21.7111 O   0  0  0  0  0  0  0  0  0  0  0  0
  -24.9607  -21.3740   23.7607 O   0  0  0  0  0  0  0  0  0  1  0  0
  -18.6230   -6.8616   26.3406 F   0  0  0  0  0  0  0  0  0  0  0  0
  -22.0651   -5.0747   23.6270 F   0  0  0  0  0  0  0  0  0  0  0  0
  -29.5202  -17.8623   22.9055 S   0  0  0  0  0  0  0  0  0  0  0  0
  1  2  1  0  0  0  0
  1  5  2  0  0  0  0
  2  6  2  0  0  0  0
  3  8  2  0  0  0  0
  3 15  1  0  0  0  0
  4  9  1  0  0  0  0
  4 15  2  0  0  0  0
  5 17  1  0  0  0  0
  6 19  1  0  0  0  0
  7 10  2  0  0  0  0
  7 18  1  0  0  0  0
  8 21  1  0  0  0  0
  9 21  2  0  0  0  0
 10 22  1  0  0  0  0
 11 12  2  0  0  0  0
 11 23  1  0  0  0  0
 12 24  1  0  0  0  0
 13 20  1  0  0  0  0
 13 22  2  0  0  0  0
 14 24  2  0  0  0  0
 14 25  1  0  0  0  0
 15 26  1  0  0  0  0
 16 26  1  0  0  0  0
 16 29  2  0  0  0  0
 16 31  1  0  0  0  0
 17 19  2  0  0  0  0
 17 38  1  0  0  0  0
 18 20  2  0  0  0  0
 18 39  1  0  0  0  0
 19 47  1  0  0  0  0
 20 40  1  0  0  0  0
 21 82  1  0  0  0  0
 22 83  1  0  0  0  0
 23 25  2  0  0  0  0
 23 82  1  0  0  0  0
 24 84  1  0  0  0  0
 25 85  1  0  0  0  0
 26 62  2  0  0  0  0
 27 28  2  0  0  0  0
 27 32  1  0  0  0  0
 27 86  1  0  0  0  0
 28 63  1  0  0  0  0
 28 67  1  0  0  0  0
 29 64  1  0  0  0  0
 29 68  1  0  0  0  0
 30 63  2  0  0  0  0
 30 70  1  0  0  0  0
 30 86  1  0  0  0  0
 31 69  1  0  0  0  0
 31 75  2  0  0  0  0
 32 71  1  0  0  0  0
 32 76  2  0  0  0  0
 33 48  1  0  0  0  0
 33 72  1  0  0  0  0
 33 77  2  0  0  0  0
 34 57  1  0  0  0  0
 34 60  1  0  0  0  0
 34 78  2  0  0  0  0
 35 58  1  0  0  0  0
 35 65  1  0  0  0  0
 35 79  2  0  0  0  0
 36 59  1  0  0  0  0
 36 73  1  0  0  0  0
 36 80  2  0  0  0  0
 37 66  1  0  0  0  0
 37 70  1  0  0  0  0
 37 81  2  0  0  0  0
 38 41  1  0  0  0  0
 39 48  1  0  0  0  0
 40 65  1  0  0  0  0
 41 43  1  0  0  0  0
 42 44  1  0  0  0  0
 42 45  1  0  0  0  0
 43 47  1  0  0  0  0
 44 49  1  0  0  0  0
 45 66  1  0  0  0  0
 46 49  1  0  0  0  0
 46 66  1  0  0  0  0
 47 72  1  0  0  0  0
 48 65  1  0  0  0  0
 49 64  1  0  0  0  0
 50 59  1  0  0  0  0
 51 60  1  0  0  0  0
 52 60  1  0  0  0  0
 53 61  1  0  0  0  0
 54 61  1  0  0  0  0
 55 61  1  0  0  0  0
 56 74  1  0  0  0  0
 57 83  1  0  0  0  0
 58 61  1  0  0  0  0
 58 73  1  0  0  0  0
 59 74  1  0  0  0  0
 60 71  1  0  0  0  0
 62 64  1  0  0  0  0
M  CHG  1  74   1
M  ISO  4  37 100  57 101  70 100  83 101
M  END
> <Batch ID>
0179

> <Smiles>
CNC(C)C(=O)NC(C(=O)N1Cc2cc([101O:1][101CH2:1]C(=O)C(C)(C)NC(=O)c3sc([100NH:0][100C:0](=O)N4CCCC(n5nc(-c6ccc(Oc7ccc(F)cc7F)cc6)c(C(N)=O)c5N)C4)nc3N)ccc2CC1C(=O)NC1CCCc2ccccc21)C(C)(C)C

> <Shape>
0.167

> <Color>
0.173

> <Negative vol penalty>
0.000

$$$$

  -OEChem-04052304473D

 84 92  0     1  0  0  0  0  0999 V2000
  -20.4995  -29.4910   19.9057 C   0  0  0  0  0  0  0  0  0  0  0  0
  -21.0763  -28.8814   21.0153 C   0  0  0  0  0  0  0  0  0  0  0  0
  -23.0583   -9.8960   19.9320 C   0  0  0  0  0  0  0  0  0  0  0  0
  -23.8310   -9.8655   22.2209 C   0  0  0  0  0  0  0  0  0  0  0  0
  -20.3759  -28.7853   18.7096 C   0  0  0  0  0  0  0  0  0  0  0  0
  -21.5290  -27.5653   20.9296 C   0  0  0  0  0  0  0  0  0  0  0  0
  -26.3944  -25.1540   23.7615 C   0  0  0  0  0  0  0  0  0  0  0  0
  -22.3031   -8.7481   20.1716 C   0  0  0  0  0  0  0  0  0  0  0  0
  -23.0758   -8.7176   22.4605 C   0  0  0  0  0  0  0  0  0  0  0  0
  -26.5223  -24.3945   24.9236 C   0  0  0  0  0  0  0  0  0  0  0  0
  -21.0681   -5.9857   23.7738 C   0  0  0  0  0  0  0  0  0  0  0  0
  -20.3179   -5.9356   24.9487 C   0  0  0  0  0  0  0  0  0  0  0  0
  -26.5222  -22.3785   23.5988 C   0  0  0  0  0  0  0  0  0  0  0  0
  -19.0909   -7.8956   24.2487 C   0  0  0  0  0  0  0  0  0  0  0  0
  -31.8734  -17.4621   21.7463 C   0  0  0  0  0  0  0  0  0  0  0  0
  -23.8223  -10.4547   20.9566 C   0  0  0  0  0  0  0  0  0  0  0  0
  -24.1914  -12.9773   20.8665 C   0  0  0  0  0  0  0  0  0  0  0  0
  -20.8361  -27.4631   18.6065 C   0  0  0  0  0  0  0  0  0  0  0  0
  -26.3184  -24.5299   22.5080 C   0  0  0  0  0  0  0  0  0  0  0  0
  -21.4103  -26.8408   19.7314 C   0  0  0  0  0  0  0  0  0  0  0  0
  -26.3960  -23.1325   22.4221 C   0  0  0  0  0  0  0  0  0  0  0  0
  -22.3118   -8.1588   21.4359 C   0  0  0  0  0  0  0  0  0  0  0  0
  -26.5833  -23.0064   24.8426 C   0  0  0  0  0  0  0  0  0  0  0  0
  -20.8297   -6.9909   22.8364 C   0  0  0  0  0  0  0  0  0  0  0  0
  -19.3293   -6.8905   25.1861 C   0  0  0  0  0  0  0  0  0  0  0  0
  -19.8411   -7.9458   23.0739 C   0  0  0  0  0  0  0  0  0  0  0  0
  -31.9783  -18.7116   22.4229 C   0  0  0  0  0  0  0  0  0  0  0  0
  -24.6031  -11.6403   20.7095 C   0  0  0  0  0  0  0  0  0  0  0  0
  -30.8378  -19.0120   23.1347 C   0  0  0  0  0  0  0  0  0  0  0  0
  -25.2898  -13.7193   20.5065 C   0  0  0  0  0  0  0  0  0  0  0  0
  -30.6566  -16.8549   21.9669 C   0  0  0  0  0  0  0  0  0  0  0  0
  -22.9291  -13.5017   21.2992 C   0  0  0  0  0  0  0  0  0  0  0  0
  -30.5464  -20.2075   23.9664 C   0  0  0  0  0  0  0  0  0  0  0  0
  -24.1383  -24.3928   20.1989 C   0  0  0  0  0  0  0  0  0  0  0  0
  -26.4846  -22.8124   18.6118 C   0  0  0  0  0  0  0  0  0  0  0  0
  -29.3325  -20.9382   18.7669 C   0  0  0  0  0  0  0  0  0  0  0  0
  -28.8134  -21.2744   25.3659 C   0  0  0  0  0  0  0  0  0  0  0  0
  -30.7682  -14.7022   20.6632 C   0  0  0  0  0  0  0  0  0  0  0  0
  -20.6380  -26.7248   17.3063 C   0  0  0  0  0  0  0  0  0  0  0  0
  -26.2075  -25.3647   21.2617 C   0  0  0  0  0  0  0  0  0  0  0  0
  -26.3392  -22.4150   21.0991 C   0  0  0  0  0  0  0  0  0  0  0  0
  -21.4832  -25.4590   17.1897 C   0  0  0  0  0  0  0  0  0  0  0  0
  -29.6138  -12.3312   18.2709 C   0  0  0  0  0  0  0  0  0  0  0  0
  -21.3927  -24.6368   18.4713 C   0  0  0  0  0  0  0  0  0  0  0  0
  -28.1734  -12.0500   18.7050 C   0  0  0  0  0  0  0  0  0  0  0  0
  -30.5381  -12.5345   19.4701 C   0  0  0  0  0  0  0  0  0  0  0  0
  -28.6471  -13.2623   20.8713 C   0  0  0  0  0  0  0  0  0  0  0  0
  -21.9359  -25.4230   19.6707 C   0  0  1  0  0  0  0  0  0  0  0  0
  -25.6218  -24.5986   20.0796 C   0  0  1  0  0  0  0  0  0  0  0  0
  -27.6658  -13.1148   19.6970 C   0  0  2  0  0  0  0  0  0  0  0  0
  -30.9986  -19.7618   17.3049 C   0  0  0  0  0  0  0  0  0  0  0  0
  -27.4076  -20.3553   27.2315 C   0  0  0  0  0  0  0  0  0  0  0  0
  -24.4767  -20.5647   18.1363 C   0  0  0  0  0  0  0  0  0  0  0  0
  -26.3956  -19.0703   17.5423 C   0  0  0  0  0  0  0  0  0  0  0  0
  -25.9274  -21.1007   16.1709 C   0  0  0  0  0  0  0  0  0  0  0  0
  -31.5597  -22.6181   19.7550 C   0  0  0  0  0  0  0  0  0  0  0  0
  -26.9053  -21.3679   18.4870 C   0  0  1  0  0  0  0  0  0  0  0  0
  -30.6553  -21.0531   18.0311 C   0  0  2  0  0  0  0  0  0  0  0  0
  -27.3970  -21.0183   25.8632 C   0  0  1  0  0  0  0  0  0  1  0  0
  -25.9254  -20.5390   17.6094 C   0  0  0  0  0  0  0  0  0  0  0  0
  -25.8645  -11.5358   20.2828 N   0  0  0  0  0  0  0  0  0  0  0  0
  -26.2548  -12.8167   20.1686 N   0  0  0  0  0  0  0  0  0  0  0  0
  -26.2243  -23.2749   19.9096 N   0  0  0  0  0  0  0  0  0  0  0  0
  -29.9955  -13.5602   20.3637 N   0  0  0  0  0  0  0  0  0  0  0  0
  -25.5145  -15.0491   20.4491 N   0  0  0  0  0  0  0  0  0  0  0  0
  -21.9091  -12.5995   21.6307 N   0  0  0  0  0  0  0  0  0  0  0  0
  -30.1357  -15.6238   21.4970 N   0  0  0  0  0  0  0  0  0  0  0  0
  -29.2909  -20.2305   24.5713 N   0  0  0  0  0  0  0  0  0  0  0  0
  -23.3831  -25.4190   19.6641 N   0  0  0  0  0  0  0  0  0  0  0  0
  -28.2792  -21.3837   17.9967 N   0  0  0  0  0  0  0  0  0  0  0  0
  -31.7554  -21.3607   18.9883 N   0  3  0  0  0  0  0  0  0  0  0  0
  -22.7068  -14.7340   21.3734 O   0  0  0  0  0  0  0  0  0  0  0  0
  -31.3900  -21.0957   24.0529 O   0  0  0  0  0  0  0  0  0  0  0  0
  -23.7104  -23.3774   20.7352 O   0  0  0  0  0  0  0  0  0  0  0  0
  -26.3975  -23.5068   17.5960 O   0  0  0  0  0  0  0  0  0  0  0  0
  -29.2421  -20.4939   19.9093 O   0  0  0  0  0  0  0  0  0  0  0  0
  -29.4308  -22.3021   25.6352 O   0  0  0  0  0  0  0  0  0  0  0  0
  -31.8964  -14.8644   20.1913 O   0  0  0  0  0  0  0  0  0  0  0  0
  -21.5748   -7.0388   21.6701 O   0  0  0  0  0  0  0  0  0  0  0  0
  -26.7074  -22.2626   25.9754 O   0  0  0  0  0  0  0  0  0  1  0  0
  -18.6080   -6.8414   26.3137 F   0  0  0  0  0  0  0  0  0  0  0  0
  -19.6067   -8.9130   22.1765 F   0  0  0  0  0  0  0  0  0  0  0  0
  -33.0576  -19.4946   22.3694 F   0  0  0  0  0  0  0  0  0  0  0  0
  -29.6471  -17.7903   22.9859 S   0  0  0  0  0  0  0  0  0  0  0  0
  1  2  1  0  0  0  0
  1  5  2  0  0  0  0
  2  6  2  0  0  0  0
  3  8  2  0  0  0  0
  3 16  1  0  0  0  0
  4  9  1  0  0  0  0
  4 16  2  0  0  0  0
  5 18  1  0  0  0  0
  6 20  1  0  0  0  0
  7 10  2  0  0  0  0
  7 19  1  0  0  0  0
  8 22  1  0  0  0  0
  9 22  2  0  0  0  0
 10 23  1  0  0  0  0
 11 12  2  0  0  0  0
 11 24  1  0  0  0  0
 12 25  1  0  0  0  0
 13 21  1  0  0  0  0
 13 23  2  0  0  0  0
 14 25  2  0  0  0  0
 14 26  1  0  0  0  0
 15 27  1  0  0  0  0
 15 31  2  0  0  0  0
 16 28  1  0  0  0  0
 17 28  1  0  0  0  0
 17 30  2  0  0  0  0
 17 32  1  0  0  0  0
 18 20  2  0  0  0  0
 18 39  1  0  0  0  0
 19 21  2  0  0  0  0
 19 40  1  0  0  0  0
 20 48  1  0  0  0  0
 21 41  1  0  0  0  0
 22 79  1  0  0  0  0
 23 80  1  0  0  0  0
 24 26  2  0  0  0  0
 24 79  1  0  0  0  0
 25 81  1  0  0  0  0
 26 82  1  0  0  0  0
 27 29  2  0  0  0  0
 27 83  1  0  0  0  0
 28 61  2  0  0  0  0
 29 33  1  0  0  0  0
 29 84  1  0  0  0  0
 30 62  1  0  0  0  0
 30 65  1  0  0  0  0
 31 67  1  0  0  0  0
 31 84  1  0  0  0  0
 32 66  1  0  0  0  0
 32 72  2  0  0  0  0
 33 68  1  0  0  0  0
 33 73  2  0  0  0  0
 34 49  1  0  0  0  0
 34 69  1  0  0  0  0
 34 74  2  0  0  0  0
 35 57  1  0  0  0  0
 35 63  1  0  0  0  0
 35 75  2  0  0  0  0
 36 58  1  0  0  0  0
 36 70  1  0  0  0  0
 36 76  2  0  0  0  0
 37 59  1  0  0  0  0
 37 68  1  0  0  0  0
 37 77  2  0  0  0  0
 38 64  1  0  0  0  0
 38 67  1  0  0  0  0
 38 78  2  0  0  0  0
 39 42  1  0  0  0  0
 40 49  1  0  0  0  0
 41 63  1  0  0  0  0
 42 44  1  0  0  0  0
 43 45  1  0  0  0  0
 43 46  1  0  0  0  0
 44 48  1  0  0  0  0
 45 50  1  0  0  0  0
 46 64  1  0  0  0  0
 47 50  1  0  0  0  0
 47 64  1  0  0  0  0
 48 69  1  0  0  0  0
 49 63  1  0  0  0  0
 50 62  1  0  0  0  0
 51 58  1  0  0  0  0
 52 59  1  0  0  0  0
 53 60  1  0  0  0  0
 54 60  1  0  0  0  0
 55 60  1  0  0  0  0
 56 71  1  0  0  0  0
 57 60  1  0  0  0  0
 57 70  1  0  0  0  0
 58 71  1  0  0  0  0
 59 80  1  0  0  0  0
 61 62  1  0  0  0  0
M  CHG  1  71   1
M  ISO  4  38 100  59 101  67 100  80 101
M  END
> <Batch ID>
0179

> <Smiles>
CNC(C)C(=O)NC(C(=O)N1Cc2cc([101O:1][101CH:1](C)C(=O)NC(=O)c3sc([100NH:0][100C:0](=O)N4CCCC(n5nc(-c6ccc(Oc7ccc(F)cc7F)cc6)c(C(N)=O)c5N)C4)cc3F)ccc2CC1C(=O)NC1CCCc2ccccc21)C(C)(C)C

> <Shape>
0.197

> <Color>
0.212

> <Negative vol penalty>
0.000

$$$$

  -OEChem-04052304473D

 83 91  0     1  0  0  0  0  0999 V2000
  -37.8071  -31.6399   22.3561 C   0  0  0  0  0  0  0  0  0  0  0  0
  -37.0065  -30.6485   22.9143 C   0  0  0  0  0  0  0  0  0  0  0  0
  -23.0195   -9.8608   19.9685 C   0  0  0  0  0  0  0  0  0  0  0  0
  -23.7302   -9.9253   22.2767 C   0  0  0  0  0  0  0  0  0  0  0  0
  -37.3814  -32.9675   22.3691 C   0  0  0  0  0  0  0  0  0  0  0  0
  -35.7802  -30.9842   23.4868 C   0  0  0  0  0  0  0  0  0  0  0  0
  -32.0705  -27.8148   22.1312 C   0  0  0  0  0  0  0  0  0  0  0  0
  -22.2595   -8.7218   20.2343 C   0  0  0  0  0  0  0  0  0  0  0  0
  -22.9701   -8.7863   22.5425 C   0  0  0  0  0  0  0  0  0  0  0  0
  -32.0234  -26.5781   22.7731 C   0  0  0  0  0  0  0  0  0  0  0  0
  -23.2414   -5.4475   22.0842 C   0  0  0  0  0  0  0  0  0  0  0  0
  -23.8316   -4.4373   22.8436 C   0  0  0  0  0  0  0  0  0  0  0  0
  -30.2835  -27.4048   24.2251 C   0  0  0  0  0  0  0  0  0  0  0  0
  -22.0958   -4.6738   24.5074 C   0  0  0  0  0  0  0  0  0  0  0  0
  -31.8592  -18.7904   22.3381 C   0  0  0  0  0  0  0  0  0  0  0  0
  -23.7548  -10.4626   20.9897 C   0  0  0  0  0  0  0  0  0  0  0  0
  -24.1231  -12.9802   20.8069 C   0  0  0  0  0  0  0  0  0  0  0  0
  -36.1449  -33.3184   22.9334 C   0  0  0  0  0  0  0  0  0  0  0  0
  -31.2307  -28.8610   22.5393 C   0  0  0  0  0  0  0  0  0  0  0  0
  -35.3382  -32.3180   23.5085 C   0  0  0  0  0  0  0  0  0  0  0  0
  -30.3201  -28.6531   23.5851 C   0  0  0  0  0  0  0  0  0  0  0  0
  -22.2348   -8.1845   21.5213 C   0  0  0  0  0  0  0  0  0  0  0  0
  -31.1318  -26.3738   23.8222 C   0  0  0  0  0  0  0  0  0  0  0  0
  -22.0784   -6.0710   22.5365 C   0  0  0  0  0  0  0  0  0  0  0  0
  -23.2588   -4.0504   24.0551 C   0  0  0  0  0  0  0  0  0  0  0  0
  -21.5056   -5.6841   23.7480 C   0  0  0  0  0  0  0  0  0  0  0  0
  -31.7731  -17.5147   21.7094 C   0  0  0  0  0  0  0  0  0  0  0  0
  -24.5405  -11.6389   20.7156 C   0  0  0  0  0  0  0  0  0  0  0  0
  -30.7001  -19.1168   23.0071 C   0  0  0  0  0  0  0  0  0  0  0  0
  -25.2299  -13.7095   20.4466 C   0  0  0  0  0  0  0  0  0  0  0  0
  -30.5514  -16.9145   21.9220 C   0  0  0  0  0  0  0  0  0  0  0  0
  -30.9493  -21.5240   23.4645 C   0  0  0  0  0  0  0  0  0  0  0  0
  -22.8489  -13.5189   21.1837 C   0  0  0  0  0  0  0  0  0  0  0  0
  -30.3944  -20.3390   23.7767 C   0  0  0  0  0  0  0  0  0  0  0  0
  -30.6795  -22.7988   24.1958 C   0  0  0  0  0  0  0  0  0  0  0  0
  -31.6904  -31.7723   23.7295 C   0  0  0  0  0  0  0  0  0  0  0  0
  -28.4723  -31.9960   23.3883 C   0  0  0  0  0  0  0  0  0  0  0  0
  -25.4656  -30.3986   23.1554 C   0  0  0  0  0  0  0  0  0  0  0  0
  -30.7008  -14.7108   20.7105 C   0  0  0  0  0  0  0  0  0  0  0  0
  -35.7486  -34.7733   22.9663 C   0  0  0  0  0  0  0  0  0  0  0  0
  -31.2750  -30.1807   21.8190 C   0  0  0  0  0  0  0  0  0  0  0  0
  -29.3829  -29.7375   24.0479 C   0  0  0  0  0  0  0  0  0  0  0  0
  -34.2666  -34.9945   23.2577 C   0  0  0  0  0  0  0  0  0  0  0  0
  -29.6143  -12.2418   18.3866 C   0  0  0  0  0  0  0  0  0  0  0  0
  -33.8186  -34.1301   24.4320 C   0  0  0  0  0  0  0  0  0  0  0  0
  -28.1631  -11.9751   18.7929 C   0  0  0  0  0  0  0  0  0  0  0  0
  -30.5057  -12.4959   19.6010 C   0  0  0  0  0  0  0  0  0  0  0  0
  -28.5766  -13.2757   20.9200 C   0  0  0  0  0  0  0  0  0  0  0  0
  -33.9902  -32.6393   24.1168 C   0  0  1  0  0  0  0  0  0  0  0  0
  -30.7345  -31.3364   22.6554 C   0  0  1  0  0  0  0  0  0  0  0  0
  -27.6276  -13.0782   19.7267 C   0  0  2  0  0  0  0  0  0  0  0  0
  -23.0082  -30.8498   22.9211 C   0  0  0  0  0  0  0  0  0  0  0  0
  -28.3422  -32.8012   26.3285 C   0  0  0  0  0  0  0  0  0  0  0  0
  -25.8872  -32.3124   26.2816 C   0  0  0  0  0  0  0  0  0  0  0  0
  -26.8287  -34.1032   24.8224 C   0  0  0  0  0  0  0  0  0  0  0  0
  -25.3254  -28.9418   20.5831 C   0  0  0  0  0  0  0  0  0  0  0  0
  -31.4131  -24.0170   23.6740 C   0  0  0  0  0  0  0  0  0  1  0  0
  -27.2804  -31.6802   24.2592 C   0  0  1  0  0  0  0  0  0  0  0  0
  -24.3089  -30.5650   22.1865 C   0  0  2  0  0  0  0  0  0  0  0  0
  -27.1035  -32.7042   25.4157 C   0  0  0  0  0  0  0  0  0  0  0  0
  -25.8131  -11.5201   20.3277 N   0  0  0  0  0  0  0  0  0  0  0  0
  -26.2048  -12.7962   20.1719 N   0  0  0  0  0  0  0  0  0  0  0  0
  -29.4686  -31.0121   23.3162 N   0  0  0  0  0  0  0  0  0  0  0  0
  -29.9379  -13.5558   20.4371 N   0  0  0  0  0  0  0  0  0  0  0  0
  -25.4544  -15.0365   20.3412 N   0  0  0  0  0  0  0  0  0  0  0  0
  -21.8214  -12.6285   21.5241 N   0  0  0  0  0  0  0  0  0  0  0  0
  -30.0449  -15.6641   21.4887 N   0  0  0  0  0  0  0  0  0  0  0  0
  -32.9228  -32.1788   23.2548 N   0  0  0  0  0  0  0  0  0  0  0  0
  -26.1331  -31.5871   23.3628 N   0  0  0  0  0  0  0  0  0  0  0  0
  -24.1298  -29.3271   21.3762 N   0  3  0  0  0  0  0  0  0  0  0  0
  -22.6232  -14.7527   21.2016 O   0  0  0  0  0  0  0  0  0  0  0  0
  -29.9156  -22.8550   25.1550 O   0  0  0  0  0  0  0  0  0  0  0  0
  -31.3356  -31.7435   24.9021 O   0  0  0  0  0  0  0  0  0  0  0  0
  -28.5145  -33.0730   22.7883 O   0  0  0  0  0  0  0  0  0  0  0  0
  -25.7463  -29.3227   23.6791 O   0  0  0  0  0  0  0  0  0  0  0  0
  -31.8412  -14.8563   20.2629 O   0  0  0  0  0  0  0  0  0  0  0  0
  -29.4915  -20.1406   24.8001 O   0  0  0  0  0  0  0  0  0  0  0  0
  -21.4932   -7.0732   21.7810 O   0  0  0  0  0  0  0  0  0  0  0  0
  -31.0842  -25.1679   24.4509 O   0  0  0  0  0  0  0  0  0  1  0  0
  -23.8249   -3.0792   24.7835 F   0  0  0  0  0  0  0  0  0  0  0  0
  -20.3877   -6.2785   24.1871 F   0  0  0  0  0  0  0  0  0  0  0  0
  -32.7638  -16.9679   21.0017 F   0  0  0  0  0  0  0  0  0  0  0  0
  -29.5147  -17.8880   22.8759 S   0  0  0  0  0  0  0  0  0  0  0  0
  1  2  1  0  0  0  0
  1  5  2  0  0  0  0
  2  6  2  0  0  0  0
  3  8  2  0  0  0  0
  3 16  1  0  0  0  0
  4  9  1  0  0  0  0
  4 16  2  0  0  0  0
  5 18  1  0  0  0  0
  6 20  1  0  0  0  0
  7 10  2  0  0  0  0
  7 19  1  0  0  0  0
  8 22  1  0  0  0  0
  9 22  2  0  0  0  0
 10 23  1  0  0  0  0
 11 12  2  0  0  0  0
 11 24  1  0  0  0  0
 12 25  1  0  0  0  0
 13 21  1  0  0  0  0
 13 23  2  0  0  0  0
 14 25  2  0  0  0  0
 14 26  1  0  0  0  0
 15 27  1  0  0  0  0
 15 29  2  0  0  0  0
 16 28  1  0  0  0  0
 17 28  1  0  0  0  0
 17 30  2  0  0  0  0
 17 33  1  0  0  0  0
 18 20  2  0  0  0  0
 18 40  1  0  0  0  0
 19 21  2  0  0  0  0
 19 41  1  0  0  0  0
 20 49  1  0  0  0  0
 21 42  1  0  0  0  0
 22 78  1  0  0  0  0
 23 79  1  0  0  0  0
 24 26  2  0  0  0  0
 24 78  1  0  0  0  0
 25 80  1  0  0  0  0
 26 81  1  0  0  0  0
 27 31  2  0  0  0  0
 27 82  1  0  0  0  0
 28 61  2  0  0  0  0
 29 34  1  0  0  0  0
 29 83  1  0  0  0  0
 30 62  1  0  0  0  0
 30 65  1  0  0  0  0
 31 67  1  0  0  0  0
 31 83  1  0  0  0  0
 32 34  2  0  0  0  0
 32 35  1  0  0  0  0
 33 66  1  0  0  0  0
 33 71  2  0  0  0  0
 34 77  1  0  0  0  0
 35 57  1  0  0  0  0
 35 72  2  0  0  0  0
 36 50  1  0  0  0  0
 36 68  1  0  0  0  0
 36 73  2  0  0  0  0
 37 58  1  0  0  0  0
 37 63  1  0  0  0  0
 37 74  2  0  0  0  0
 38 59  1  0  0  0  0
 38 69  1  0  0  0  0
 38 75  2  0  0  0  0
 39 64  1  0  0  0  0
 39 67  1  0  0  0  0
 39 76  2  0  0  0  0
 40 43  1  0  0  0  0
 41 50  1  0  0  0  0
 42 63  1  0  0  0  0
 43 45  1  0  0  0  0
 44 46  1  0  0  0  0
 44 47  1  0  0  0  0
 45 49  1  0  0  0  0
 46 51  1  0  0  0  0
 47 64  1  0  0  0  0
 48 51  1  0  0  0  0
 48 64  1  0  0  0  0
 49 68  1  0  0  0  0
 50 63  1  0  0  0  0
 51 62  1  0  0  0  0
 52 59  1  0  0  0  0
 53 60  1  0  0  0  0
 54 60  1  0  0  0  0
 55 60  1  0  0  0  0
 56 70  1  0  0  0  0
 57 79  1  0  0  0  0
 58 60  1  0  0  0  0
 58 69  1  0  0  0  0
 59 70  1  0  0  0  0
 61 62  1  0  0  0  0
M  CHG  1  70   1
M  ISO  4  39 100  57 101  67 100  79 101
M  END
> <Batch ID>
0179

> <Smiles>
CNC(C)C(=O)NC(C(=O)N1Cc2cc([101O:1][101CH2:1]C(=O)CC(=O)c3cc(F)c([100NH:0][100C:0](=O)N4CCCC(n5nc(-c6ccc(Oc7ccc(F)cc7F)cc6)c(C(N)=O)c5N)C4)s3)ccc2CC1C(=O)NC1CCCc2ccccc21)C(C)(C)C

> <Shape>
0.262

> <Color>
0.199

> <Negative vol penalty>
0.000

$$$$

  -OEChem-04052304473D

 86 94  0     1  0  0  0  0  0999 V2000
  -15.4240  -26.8442   22.2775 C   0  0  0  0  0  0  0  0  0  0  0  0
  -15.7052  -25.5379   21.8904 C   0  0  0  0  0  0  0  0  0  0  0  0
  -27.7912  -23.4295   20.3409 C   0  0  0  0  0  0  0  0  0  0  0  0
  -29.3309  -23.6611   18.4935 C   0  0  0  0  0  0  0  0  0  0  0  0
  -16.4644  -27.7110   22.6092 C   0  0  0  0  0  0  0  0  0  0  0  0
  -17.0272  -25.0979   21.8337 C   0  0  0  0  0  0  0  0  0  0  0  0
  -19.0967  -19.4811   23.1277 C   0  0  0  0  0  0  0  0  0  0  0  0
  -27.8138  -24.8109   20.5330 C   0  0  0  0  0  0  0  0  0  0  0  0
  -29.3535  -25.0425   18.6855 C   0  0  0  0  0  0  0  0  0  0  0  0
  -19.4247  -18.3932   22.3199 C   0  0  0  0  0  0  0  0  0  0  0  0
  -27.1852  -28.3126   21.2801 C   0  0  0  0  0  0  0  0  0  0  0  0
  -25.9666  -28.9583   21.4889 C   0  0  0  0  0  0  0  0  0  0  0  0
  -21.7420  -19.0613   22.3711 C   0  0  0  0  0  0  0  0  0  0  0  0
  -25.1912  -28.1921   19.3328 C   0  0  0  0  0  0  0  0  0  0  0  0
  -28.5498  -22.8546   19.3213 C   0  0  0  0  0  0  0  0  0  0  0  0
  -27.6494  -20.6976   18.2993 C   0  0  0  0  0  0  0  0  0  0  0  0
  -17.7992  -27.2787   22.5658 C   0  0  0  0  0  0  0  0  0  0  0  0
  -20.0891  -20.3751   23.5550 C   0  0  0  0  0  0  0  0  0  0  0  0
  -18.0865  -25.9602   22.1638 C   0  0  0  0  0  0  0  0  0  0  0  0
  -21.4245  -20.1584   23.1864 C   0  0  0  0  0  0  0  0  0  0  0  0
  -25.3568  -12.6016   20.6599 C   0  0  0  0  0  0  0  0  0  0  0  0
  -28.5949  -25.6174   19.7053 C   0  0  0  0  0  0  0  0  0  0  0  0
  -20.7470  -18.1847   21.9391 C   0  0  0  0  0  0  0  0  0  0  0  0
  -27.4069  -27.6066   20.0976 C   0  0  0  0  0  0  0  0  0  0  0  0
  -24.9696  -28.8980   20.5152 C   0  0  0  0  0  0  0  0  0  0  0  0
  -26.4099  -27.5464   19.1240 C   0  0  0  0  0  0  0  0  0  0  0  0
  -24.0607  -13.0296   20.2511 C   0  0  0  0  0  0  0  0  0  0  0  0
  -28.5274  -21.4277   19.1228 C   0  0  0  0  0  0  0  0  0  0  0  0
  -26.2328  -13.6566   20.7906 C   0  0  0  0  0  0  0  0  0  0  0  0
  -28.0377  -19.3898   18.4578 C   0  0  0  0  0  0  0  0  0  0  0  0
  -23.9955  -14.3957   20.0851 C   0  0  0  0  0  0  0  0  0  0  0  0
  -26.5787  -21.1604   17.4656 C   0  0  0  0  0  0  0  0  0  0  0  0
  -27.6636  -13.6514   21.1903 C   0  0  0  0  0  0  0  0  0  0  0  0
  -20.6431  -23.4774   23.1397 C   0  0  0  0  0  0  0  0  0  0  0  0
  -23.0341  -22.9370   25.2641 C   0  0  0  0  0  0  0  0  0  0  0  0
  -21.6199  -14.8494   19.3791 C   0  0  0  0  0  0  0  0  0  0  0  0
  -25.1859  -20.7109   26.6998 C   0  0  0  0  0  0  0  0  0  0  0  0
  -29.6077  -15.1205   21.6213 C   0  0  0  0  0  0  0  0  0  0  0  0
  -18.8930  -28.2660   22.8877 C   0  0  0  0  0  0  0  0  0  0  0  0
  -19.7229  -21.5287   24.4480 C   0  0  0  0  0  0  0  0  0  0  0  0
  -22.5301  -21.0774   23.6352 C   0  0  0  0  0  0  0  0  0  0  0  0
  -20.2437  -27.6104   23.1629 C   0  0  0  0  0  0  0  0  0  0  0  0
  -32.1322  -17.4133   20.6901 C   0  0  0  0  0  0  0  0  0  0  0  0
  -20.5530  -26.5591   22.1018 C   0  0  0  0  0  0  0  0  0  0  0  0
  -31.3499  -18.6012   20.1232 C   0  0  0  0  0  0  0  0  0  0  0  0
  -31.4228  -16.7875   21.8901 C   0  0  0  0  0  0  0  0  0  0  0  0
  -29.2414  -17.6088   21.0997 C   0  0  0  0  0  0  0  0  0  0  0  0
  -19.5062  -25.4385   22.1139 C   0  0  1  0  0  0  0  0  0  0  0  0
  -20.7382  -22.6664   24.4010 C   0  0  1  0  0  0  0  0  0  0  0  0
  -29.8792  -18.2297   19.8464 C   0  0  1  0  0  0  0  0  0  0  0  0
  -19.7104  -15.6423   17.9743 C   0  0  0  0  0  0  0  0  0  0  0  0
  -27.0480  -20.5721   28.3763 C   0  0  0  0  0  0  0  0  0  0  0  0
  -24.9450  -24.1893   23.2417 C   0  0  0  0  0  0  0  0  0  0  0  0
  -26.8473  -23.1801   24.5189 C   0  0  0  0  0  0  0  0  0  0  0  0
  -25.3582  -24.8532   25.6172 C   0  0  0  0  0  0  0  0  0  0  0  0
  -23.6620  -18.8372   28.4104 C   0  0  0  0  0  0  0  0  0  0  0  0
  -20.0741  -16.6686   20.2349 C   0  0  0  0  0  0  0  0  0  1  0  0
  -24.4830  -22.5256   25.1612 C   0  0  1  0  0  0  0  0  0  0  0  0
  -20.7565  -16.0625   19.0060 C   0  0  1  0  0  0  0  0  0  0  0  0
  -25.5487  -20.4534   28.1512 C   0  0  2  0  0  0  0  0  0  0  0  0
  -25.3875  -23.6707   24.6245 C   0  0  0  0  0  0  0  0  0  0  0  0
  -29.4069  -20.6482   19.7575 N   0  0  0  0  0  0  0  0  0  0  0  0
  -29.0836  -19.4149   19.3328 N   0  0  0  0  0  0  0  0  0  0  0  0
  -22.1208  -22.1947   24.5021 N   0  0  0  0  0  0  0  0  0  0  0  0
  -30.0397  -16.4560   21.5431 N   0  0  0  0  0  0  0  0  0  0  0  0
  -25.6803  -11.3069   20.8909 N   0  0  0  0  0  0  0  0  0  0  0  0
  -27.5830  -18.2322   17.9328 N   0  0  0  0  0  0  0  0  0  0  0  0
  -26.3148  -22.5361   17.4190 N   0  0  0  0  0  0  0  0  0  0  0  0
  -22.9211  -15.2307   19.6958 N   0  0  0  0  0  0  0  0  0  0  0  0
  -28.2827  -14.9010   21.2283 N   0  0  0  0  0  0  0  0  0  0  0  0
  -19.7510  -24.5301   23.2136 N   0  0  0  0  0  0  0  0  0  0  0  0
  -24.8622  -22.0333   26.4811 N   0  0  0  0  0  0  0  0  0  0  0  0
  -25.1193  -19.0854   28.5576 N   0  3  0  0  0  0  0  0  0  0  0  0
  -25.8663  -20.3756   16.7947 O   0  0  0  0  0  0  0  0  0  0  0  0
  -28.1957  -12.5873   21.4944 O   0  0  0  0  0  0  0  0  0  0  0  0
  -21.3294  -23.1716   22.1716 O   0  0  0  0  0  0  0  0  0  0  0  0
  -22.7233  -23.8775   25.9992 O   0  0  0  0  0  0  0  0  0  0  0  0
  -21.1663  -13.7087   19.3718 O   0  0  0  0  0  0  0  0  0  0  0  0
  -25.1929  -19.8281   25.8447 O   0  0  0  0  0  0  0  0  0  0  0  0
  -30.3484  -14.1973   21.9738 O   0  0  0  0  0  0  0  0  0  0  0  0
  -28.6170  -26.9654   19.8922 O   0  0  0  0  0  0  0  0  0  0  0  0
  -21.0698  -17.1240   21.1501 O   0  0  0  0  0  0  0  0  0  1  0  0
  -23.7989  -29.5169   20.7165 F   0  0  0  0  0  0  0  0  0  0  0  0
  -26.6166  -26.8687   17.9865 F   0  0  0  0  0  0  0  0  0  0  0  0
  -23.0283  -12.2060   20.0543 F   0  0  0  0  0  0  0  0  0  0  0  0
  -25.4926  -15.1559   20.4213 S   0  0  0  0  0  0  0  0  0  0  0  0
  1  2  1  0  0  0  0
  1  5  2  0  0  0  0
  2  6  2  0  0  0  0
  3  8  2  0  0  0  0
  3 15  1  0  0  0  0
  4  9  1  0  0  0  0
  4 15  2  0  0  0  0
  5 17  1  0  0  0  0
  6 19  1  0  0  0  0
  7 10  2  0  0  0  0
  7 18  1  0  0  0  0
  8 22  1  0  0  0  0
  9 22  2  0  0  0  0
 10 23  1  0  0  0  0
 11 12  2  0  0  0  0
 11 24  1  0  0  0  0
 12 25  1  0  0  0  0
 13 20  1  0  0  0  0
 13 23  2  0  0  0  0
 14 25  2  0  0  0  0
 14 26  1  0  0  0  0
 15 28  1  0  0  0  0
 16 28  1  0  0  0  0
 16 30  2  0  0  0  0
 16 32  1  0  0  0  0
 17 19  2  0  0  0  0
 17 39  1  0  0  0  0
 18 20  2  0  0  0  0
 18 40  1  0  0  0  0
 19 48  1  0  0  0  0
 20 41  1  0  0  0  0
 21 27  1  0  0  0  0
 21 29  2  0  0  0  0
 21 66  1  0  0  0  0
 22 81  1  0  0  0  0
 23 82  1  0  0  0  0
 24 26  2  0  0  0  0
 24 81  1  0  0  0  0
 25 83  1  0  0  0  0
 26 84  1  0  0  0  0
 27 31  2  0  0  0  0
 27 85  1  0  0  0  0
 28 62  2  0  0  0  0
 29 33  1  0  0  0  0
 29 86  1  0  0  0  0
 30 63  1  0  0  0  0
 30 67  1  0  0  0  0
 31 69  1  0  0  0  0
 31 86  1  0  0  0  0
 32 68  1  0  0  0  0
 32 74  2  0  0  0  0
 33 70  1  0  0  0  0
 33 75  2  0  0  0  0
 34 49  1  0  0  0  0
 34 71  1  0  0  0  0
 34 76  2  0  0  0  0
 35 58  1  0  0  0  0
 35 64  1  0  0  0  0
 35 77  2  0  0  0  0
 36 59  1  0  0  0  0
 36 69  1  0  0  0  0
 36 78  2  0  0  0  0
 37 60  1  0  0  0  0
 37 72  1  0  0  0  0
 37 79  2  0  0  0  0
 38 65  1  0  0  0  0
 38 70  1  0  0  0  0
 38 80  2  0  0  0  0
 39 42  1  0  0  0  0
 40 49  1  0  0  0  0
 41 64  1  0  0  0  0
 42 44  1  0  0  0  0
 43 45  1  0  0  0  0
 43 46  1  0  0  0  0
 44 48  1  0  0  0  0
 45 50  1  0  0  0  0
 46 65  1  0  0  0  0
 47 50  1  0  0  0  0
 47 65  1  0  0  0  0
 48 71  1  0  0  0  0
 49 64  1  0  0  0  0
 50 63  1  0  0  0  0
 51 59  1  0  0  0  0
 52 60  1  0  0  0  0
 53 61  1  0  0  0  0
 54 61  1  0  0  0  0
 55 61  1  0  0  0  0
 56 73  1  0  0  0  0
 57 59  1  0  0  0  0
 57 82  1  0  0  0  0
 58 61  1  0  0  0  0
 58 72  1  0  0  0  0
 60 73  1  0  0  0  0
 62 63  1  0  0  0  0
M  CHG  1  73   1
M  ISO  4  38 100  57 101  70 100  82 101
M  END
> <Batch ID>
0179

> <Smiles>
CNC(C)C(=O)NC(C(=O)N1Cc2cc([101O:1][101CH2:1]C(C)C(=O)Nc3sc(C(=O)[100NH:0][100C:0](=O)N4CCCC(n5nc(-c6ccc(Oc7ccc(F)cc7F)cc6)c(C(N)=O)c5N)C4)c(N)c3F)ccc2CC1C(=O)NC1CCCc2ccccc21)C(C)(C)C

> <Shape>
0.227

> <Color>
0.077

> <Negative vol penalty>
0.000

$$$$

  -OEChem-04052304473D

 89 97  0     1  0  0  0  0  0999 V2000
  -36.2257  -26.6977   11.0122 C   0  0  0  0  0  0  0  0  0  0  0  0
  -36.4173  -26.0286   12.2168 C   0  0  0  0  0  0  0  0  0  0  0  0
  -23.0258   -9.9715   19.8921 C   0  0  0  0  0  0  0  0  0  0  0  0
  -23.9188   -9.7740   22.1283 C   0  0  0  0  0  0  0  0  0  0  0  0
  -35.0265  -27.3668   10.7709 C   0  0  0  0  0  0  0  0  0  0  0  0
  -35.4103  -26.0292   13.1813 C   0  0  0  0  0  0  0  0  0  0  0  0
  -34.6542  -21.4482   15.2032 C   0  0  0  0  0  0  0  0  0  0  0  0
  -22.2924   -8.8003   20.0816 C   0  0  0  0  0  0  0  0  0  0  0  0
  -23.1853   -8.6028   22.3178 C   0  0  0  0  0  0  0  0  0  0  0  0
  -35.5663  -21.0189   16.1662 C   0  0  0  0  0  0  0  0  0  0  0  0
  -19.9943   -7.7528   23.0355 C   0  0  0  0  0  0  0  0  0  0  0  0
  -19.3071   -7.6081   24.2407 C   0  0  0  0  0  0  0  0  0  0  0  0
  -34.0118  -21.6355   17.9048 C   0  0  0  0  0  0  0  0  0  0  0  0
  -29.5653  -18.1760   21.6287 C   0  0  0  0  0  0  0  0  0  0  0  0
  -20.5803   -5.6132   24.7272 C   0  0  0  0  0  0  0  0  0  0  0  0
  -23.8390  -10.4584   20.9155 C   0  0  0  0  0  0  0  0  0  0  0  0
  -24.1852  -12.9843   21.0012 C   0  0  0  0  0  0  0  0  0  0  0  0
  -34.0005  -27.3674   11.7290 C   0  0  0  0  0  0  0  0  0  0  0  0
  -33.4163  -21.9854   15.5847 C   0  0  0  0  0  0  0  0  0  0  0  0
  -34.1968  -26.7000   12.9531 C   0  0  0  0  0  0  0  0  0  0  0  0
  -33.0847  -22.0686   16.9445 C   0  0  0  0  0  0  0  0  0  0  0  0
  -30.0462  -19.4306   21.9865 C   0  0  0  0  0  0  0  0  0  0  0  0
  -31.4170  -19.6620   22.0131 C   0  0  0  0  0  0  0  0  0  0  0  0
  -22.3721   -8.1159   21.2944 C   0  0  0  0  0  0  0  0  0  0  0  0
  -35.2464  -21.1151   17.5173 C   0  0  0  0  0  0  0  0  0  0  0  0
  -20.9745   -6.8276   22.6761 C   0  0  0  0  0  0  0  0  0  0  0  0
  -19.6001   -6.5383   25.0865 C   0  0  0  0  0  0  0  0  0  0  0  0
  -21.2675   -5.7579   23.5220 C   0  0  0  0  0  0  0  0  0  0  0  0
  -24.5973  -11.6679   20.7202 C   0  0  0  0  0  0  0  0  0  0  0  0
  -30.4894  -17.1943   21.3089 C   0  0  0  0  0  0  0  0  0  0  0  0
  -32.2581  -18.6137   21.6763 C   0  0  0  0  0  0  0  0  0  0  0  0
  -25.2578  -13.7638   20.6427 C   0  0  0  0  0  0  0  0  0  0  0  0
  -22.9439  -13.4600   21.5385 C   0  0  0  0  0  0  0  0  0  0  0  0
  -31.9871  -24.8019   15.2263 C   0  0  0  0  0  0  0  0  0  0  0  0
  -29.4690  -23.2562   16.5650 C   0  0  0  0  0  0  0  0  0  0  0  0
  -28.3504  -20.6978   18.5272 C   0  0  0  0  0  0  0  0  0  0  0  0
  -34.6644  -17.9263   21.3987 C   0  0  0  0  0  0  0  0  0  0  0  0
  -30.7297  -14.7924   20.5882 C   0  0  0  0  0  0  0  0  0  0  0  0
  -32.7400  -28.1443   11.4423 C   0  0  0  0  0  0  0  0  0  0  0  0
  -32.4326  -22.4194   14.5328 C   0  0  0  0  0  0  0  0  0  0  0  0
  -31.7608  -22.6189   17.4057 C   0  0  0  0  0  0  0  0  0  0  0  0
  -31.5782  -27.7819   12.3638 C   0  0  0  0  0  0  0  0  0  0  0  0
  -29.4670  -12.5991   18.0838 C   0  0  0  0  0  0  0  0  0  0  0  0
  -32.0437  -27.7326   13.8156 C   0  0  0  0  0  0  0  0  0  0  0  0
  -28.0536  -12.2696   18.5695 C   0  0  0  0  0  0  0  0  0  0  0  0
  -30.4520  -12.7202   19.2451 C   0  0  0  0  0  0  0  0  0  0  0  0
  -28.6327  -13.3174   20.7952 C   0  0  0  0  0  0  0  0  0  0  0  0
  -33.1185  -26.6570   14.0140 C   0  0  1  0  0  0  0  0  0  0  0  0
  -31.4097  -23.4260   15.0503 C   0  0  1  0  0  0  0  0  0  0  0  0
  -27.5917  -13.2495   19.6659 C   0  0  2  0  0  0  0  0  0  0  0  0
  -29.0737  -20.5083   22.3362 C   0  0  0  0  0  0  0  0  0  0  0  0
  -26.2427  -19.7145   19.4696 C   0  0  0  0  0  0  0  0  0  0  0  0
  -29.3414  -25.5067   18.6215 C   0  0  0  0  0  0  0  0  0  0  0  0
  -27.9024  -24.0316   20.0434 C   0  0  0  0  0  0  0  0  0  0  0  0
  -27.1162  -24.7330   17.7822 C   0  0  0  0  0  0  0  0  0  0  0  0
  -28.7877  -18.1261   17.1294 C   0  0  0  0  0  0  0  0  0  0  0  0
  -36.5385  -19.1341   20.2358 C   0  0  0  0  0  0  0  0  0  0  0  0
  -35.5976  -20.1992   19.6838 C   0  0  0  0  0  0  0  0  0  1  0  0
  -28.9781  -23.0336   17.9751 C   0  0  1  0  0  0  0  0  0  0  0  0
  -27.2407  -19.6824   18.3225 C   0  0  2  0  0  0  0  0  0  0  0  0
  -36.0472  -18.5537   21.5625 C   0  0  2  0  0  0  0  0  0  0  0  0
  -31.9522  -21.0027   22.3947 C   0  0  0  0  0  0  0  0  0  0  0  0
  -28.3603  -24.3176   18.5972 C   0  0  0  0  0  0  0  0  0  0  0  0
  -25.8350  -11.6104   20.2214 N   0  0  0  0  0  0  0  0  0  0  0  0
  -31.8282  -17.3815   21.3235 N   0  0  0  0  0  0  0  0  0  0  0  0
  -26.2099  -12.9005   20.1861 N   0  0  0  0  0  0  0  0  0  0  0  0
  -30.8351  -23.0359   16.3395 N   0  0  0  0  0  0  0  0  0  0  0  0
  -29.9503  -13.6683   20.2423 N   0  0  0  0  0  0  0  0  0  0  0  0
  -25.4698  -15.0966   20.6764 N   0  0  0  0  0  0  0  0  0  0  0  0
  -21.9492  -12.5239   21.8522 N   0  0  0  0  0  0  0  0  0  0  0  0
  -33.6555  -18.8358   21.6994 N   0  0  0  0  0  0  0  0  0  0  0  0
  -29.9898  -15.9191   20.9455 N   0  0  0  0  0  0  0  0  0  0  0  0
  -32.5144  -25.3430   14.0693 N   0  0  0  0  0  0  0  0  0  0  0  0
  -28.0628  -21.8991   17.9144 N   0  0  0  0  0  0  0  0  0  0  0  0
  -27.8074  -18.3071   18.2310 N   0  3  0  0  0  0  0  0  0  0  0  0
  -22.7173  -14.6805   21.7191 O   0  0  0  0  0  0  0  0  0  0  0  0
  -31.9552  -25.3339   16.3298 O   0  0  0  0  0  0  0  0  0  0  0  0
  -28.6683  -23.6056   15.6940 O   0  0  0  0  0  0  0  0  0  0  0  0
  -29.3686  -20.4514   19.1698 O   0  0  0  0  0  0  0  0  0  0  0  0
  -34.5322  -16.7552   21.0551 O   0  0  0  0  0  0  0  0  0  0  0  0
  -31.9623  -14.7663   20.5427 O   0  0  0  0  0  0  0  0  0  0  0  0
  -36.9543  -17.5521   21.9955 O   0  0  0  0  0  0  0  0  0  0  0  0
  -21.6564   -6.9731   21.4797 O   0  0  0  0  0  0  0  0  0  0  0  0
  -36.1352  -20.6974   18.4594 O   0  0  0  0  0  0  0  0  0  1  0  0
  -18.9411   -6.4004   26.2445 F   0  0  0  0  0  0  0  0  0  0  0  0
  -22.2089   -4.8666   23.1827 F   0  0  0  0  0  0  0  0  0  0  0  0
  -30.9800  -21.9131   22.6948 F   0  0  0  0  0  0  0  0  0  0  0  0
  -32.7650  -20.9731   23.4911 F   0  0  0  0  0  0  0  0  0  0  0  0
  -32.6947  -21.5717   21.4018 F   0  0  0  0  0  0  0  0  0  0  0  0
  1  2  1  0  0  0  0
  1  5  2  0  0  0  0
  2  6  2  0  0  0  0
  3  8  2  0  0  0  0
  3 16  1  0  0  0  0
  4  9  1  0  0  0  0
  4 16  2  0  0  0  0
  5 18  1  0  0  0  0
  6 20  1  0  0  0  0
  7 10  2  0  0  0  0
  7 19  1  0  0  0  0
  8 24  1  0  0  0  0
  9 24  2  0  0  0  0
 10 25  1  0  0  0  0
 11 12  2  0  0  0  0
 11 26  1  0  0  0  0
 12 27  1  0  0  0  0
 13 21  1  0  0  0  0
 13 25  2  0  0  0  0
 14 22  2  0  0  0  0
 14 30  1  0  0  0  0
 15 27  2  0  0  0  0
 15 28  1  0  0  0  0
 16 29  1  0  0  0  0
 17 29  1  0  0  0  0
 17 32  2  0  0  0  0
 17 33  1  0  0  0  0
 18 20  2  0  0  0  0
 18 39  1  0  0  0  0
 19 21  2  0  0  0  0
 19 40  1  0  0  0  0
 20 48  1  0  0  0  0
 21 41  1  0  0  0  0
 22 23  1  0  0  0  0
 22 51  1  0  0  0  0
 23 31  2  0  0  0  0
 23 62  1  0  0  0  0
 24 83  1  0  0  0  0
 25 84  1  0  0  0  0
 26 28  2  0  0  0  0
 26 83  1  0  0  0  0
 27 85  1  0  0  0  0
 28 86  1  0  0  0  0
 29 64  2  0  0  0  0
 30 65  2  0  0  0  0
 30 72  1  0  0  0  0
 31 65  1  0  0  0  0
 31 71  1  0  0  0  0
 32 66  1  0  0  0  0
 32 69  1  0  0  0  0
 33 70  1  0  0  0  0
 33 76  2  0  0  0  0
 34 49  1  0  0  0  0
 34 73  1  0  0  0  0
 34 77  2  0  0  0  0
 35 59  1  0  0  0  0
 35 67  1  0  0  0  0
 35 78  2  0  0  0  0
 36 60  1  0  0  0  0
 36 74  1  0  0  0  0
 36 79  2  0  0  0  0
 37 61  1  0  0  0  0
 37 71  1  0  0  0  0
 37 80  2  0  0  0  0
 38 68  1  0  0  0  0
 38 72  1  0  0  0  0
 38 81  2  0  0  0  0
 39 42  1  0  0  0  0
 40 49  1  0  0  0  0
 41 67  1  0  0  0  0
 42 44  1  0  0  0  0
 43 45  1  0  0  0  0
 43 46  1  0  0  0  0
 44 48  1  0  0  0  0
 45 50  1  0  0  0  0
 46 68  1  0  0  0  0
 47 50  1  0  0  0  0
 47 68  1  0  0  0  0
 48 73  1  0  0  0  0
 49 67  1  0  0  0  0
 50 66  1  0  0  0  0
 52 60  1  0  0  0  0
 53 63  1  0  0  0  0
 54 63  1  0  0  0  0
 55 63  1  0  0  0  0
 56 75  1  0  0  0  0
 57 58  1  0  0  0  0
 57 61  1  0  0  0  0
 58 84  1  0  0  0  0
 59 63  1  0  0  0  0
 59 74  1  0  0  0  0
 60 75  1  0  0  0  0
 61 82  1  0  0  0  0
 62 87  1  0  0  0  0
 62 88  1  0  0  0  0
 62 89  1  0  0  0  0
 64 66  1  0  0  0  0
M  CHG  1  75   1
M  ISO  4  38 100  58 101  72 100  84 101
M  END
> <Batch ID>
0179

> <Smiles>
CNC(C)C(=O)NC(C(=O)N1Cc2cc([101O:1][101CH2:1]CC(O)C(=O)Nc3nc([100NH:0][100C:0](=O)N4CCCC(n5nc(-c6ccc(Oc7ccc(F)cc7F)cc6)c(C(N)=O)c5N)C4)cc(C)c3C(F)(F)F)ccc2CC1C(=O)NC1CCCc2ccccc21)C(C)(C)C

> <Shape>
0.224

> <Color>
0.183

> <Negative vol penalty>
0.000

$$$$

  -OEChem-04052304473D

 89 97  0     1  0  0  0  0  0999 V2000
  -23.4130  -33.5897   14.7761 C   0  0  0  0  0  0  0  0  0  0  0  0
  -24.4119  -32.7648   15.2833 C   0  0  0  0  0  0  0  0  0  0  0  0
  -23.3434  -10.6171   22.2303 C   0  0  0  0  0  0  0  0  0  0  0  0
  -22.7281  -12.8150   21.4379 C   0  0  0  0  0  0  0  0  0  0  0  0
  -22.7885  -34.5184   15.6075 C   0  0  0  0  0  0  0  0  0  0  0  0
  -24.7876  -32.8690   16.6221 C   0  0  0  0  0  0  0  0  0  0  0  0
  -25.2842  -28.3523   18.8577 C   0  0  0  0  0  0  0  0  0  0  0  0
  -22.3314  -10.6792   23.1882 C   0  0  0  0  0  0  0  0  0  0  0  0
  -21.7160  -12.8770   22.3957 C   0  0  0  0  0  0  0  0  0  0  0  0
  -26.4508  -27.6360   18.5936 C   0  0  0  0  0  0  0  0  0  0  0  0
  -18.5903  -11.6567   22.7968 C   0  0  0  0  0  0  0  0  0  0  0  0
  -17.3396  -12.1188   22.3870 C   0  0  0  0  0  0  0  0  0  0  0  0
  -27.3696  -28.3669   20.7009 C   0  0  0  0  0  0  0  0  0  0  0  0
  -17.4844  -13.9264   23.9834 C   0  0  0  0  0  0  0  0  0  0  0  0
  -23.5418  -11.6851   21.3552 C   0  0  0  0  0  0  0  0  0  0  0  0
  -24.4874  -11.1210   19.0540 C   0  0  0  0  0  0  0  0  0  0  0  0
  -23.1500  -34.6274   16.9596 C   0  0  0  0  0  0  0  0  0  0  0  0
  -25.1557  -29.0915   20.0424 C   0  0  0  0  0  0  0  0  0  0  0  0
  -24.1683  -33.8010   17.4721 C   0  0  0  0  0  0  0  0  0  0  0  0
  -26.1993  -29.0898   20.9788 C   0  0  0  0  0  0  0  0  0  0  0  0
  -21.5177  -11.8091   23.2709 C   0  0  0  0  0  0  0  0  0  0  0  0
  -27.4948  -27.6455   19.5139 C   0  0  0  0  0  0  0  0  0  0  0  0
  -19.2880  -12.3294   23.8000 C   0  0  0  0  0  0  0  0  0  0  0  0
  -16.7867  -13.2536   22.9803 C   0  0  0  0  0  0  0  0  0  0  0  0
  -18.7350  -13.4643   24.3933 C   0  0  0  0  0  0  0  0  0  0  0  0
  -24.5875  -11.6218   20.3659 C   0  0  0  0  0  0  0  0  0  0  0  0
  -28.6619  -18.2653   18.4101 C   0  0  0  0  0  0  0  0  0  0  0  0
  -25.7454  -11.2842   18.5273 C   0  0  0  0  0  0  0  0  0  0  0  0
  -29.5110  -17.2686   18.8436 C   0  0  0  0  0  0  0  0  0  0  0  0
  -30.5709  -19.2983   18.0956 C   0  0  0  0  0  0  0  0  0  0  0  0
  -23.3583  -10.5587   18.3724 C   0  0  0  0  0  0  0  0  0  0  0  0
  -24.7512  -32.1673   20.7346 C   0  0  0  0  0  0  0  0  0  0  0  0
  -29.5839  -24.7608   18.8228 C   0  0  0  0  0  0  0  0  0  0  0  0
  -30.6391  -22.4531   18.3723 C   0  0  0  0  0  0  0  0  0  0  0  0
  -24.4530  -31.0453   23.7635 C   0  0  0  0  0  0  0  0  0  0  0  0
  -25.1340  -28.5759   26.0185 C   0  0  0  0  0  0  0  0  0  0  0  0
  -30.2314  -15.0347   19.7583 C   0  0  0  0  0  0  0  0  0  0  0  0
  -22.4795  -35.6789   17.8078 C   0  0  0  0  0  0  0  0  0  0  0  0
  -23.8803  -29.8372   20.3246 C   0  0  0  0  0  0  0  0  0  0  0  0
  -26.1031  -29.8508   22.2749 C   0  0  0  0  0  0  0  0  0  0  0  0
  -22.6750  -35.4678   19.3070 C   0  0  0  0  0  0  0  0  0  0  0  0
  -30.3517  -11.4768   19.8231 C   0  0  0  0  0  0  0  0  0  0  0  0
  -24.1366  -35.1597   19.6166 C   0  0  0  0  0  0  0  0  0  0  0  0
  -28.8780  -11.0645   19.8441 C   0  0  0  0  0  0  0  0  0  0  0  0
  -30.5984  -12.7418   20.6432 C   0  0  0  0  0  0  0  0  0  0  0  0
  -28.2677  -13.4707   20.3184 C   0  0  0  0  0  0  0  0  0  0  0  0
  -24.5863  -33.8670   18.9250 C   0  0  1  0  0  0  0  0  0  0  0  0
  -24.0612  -30.9719   21.3282 C   0  0  1  0  0  0  0  0  0  0  0  0
  -27.9588  -12.2382   19.4527 C   0  0  2  0  0  0  0  0  0  0  0  0
  -32.3079  -22.2067   16.5281 C   0  0  0  0  0  0  0  0  0  0  0  0
  -24.7918  -27.9580   28.4266 C   0  0  0  0  0  0  0  0  0  0  0  0
  -26.6245  -33.0278   24.5783 C   0  0  0  0  0  0  0  0  0  0  0  0
  -26.9060  -31.7384   26.7058 C   0  0  0  0  0  0  0  0  0  0  0  0
  -24.7258  -32.8377   26.1948 C   0  0  0  0  0  0  0  0  0  0  0  0
  -23.6113  -26.1425   25.2983 C   0  0  0  0  0  0  0  0  0  0  0  0
  -29.5632  -23.4680   18.0319 C   0  0  0  0  0  0  0  0  0  0  0  0
  -28.5106  -25.7696   18.4627 C   0  0  0  0  0  0  0  0  0  1  0  0
  -31.1158  -21.5725   17.2256 C   0  0  1  0  0  0  0  0  0  0  0  0
  -25.4066  -30.7744   24.9020 C   0  0  1  0  0  0  0  0  0  0  0  0
  -24.2474  -27.8456   27.0110 C   0  0  2  0  0  0  0  0  0  0  0  0
  -27.1869  -18.1928   18.3676 C   0  0  0  0  0  0  0  0  0  0  0  0
  -25.9186  -32.0817   25.5700 C   0  0  0  0  0  0  0  0  0  0  0  0
  -25.8123  -12.0695   20.6549 N   0  0  0  0  0  0  0  0  0  0  0  0
  -29.2679  -19.4300   17.9811 N   0  0  0  0  0  0  0  0  0  0  0  0
  -26.4934  -11.8504   19.5173 N   0  0  0  0  0  0  0  0  0  0  0  0
  -24.8384  -30.5695   22.5022 N   0  0  0  0  0  0  0  0  0  0  0  0
  -29.6951  -13.8117   20.2141 N   0  0  0  0  0  0  0  0  0  0  0  0
  -26.2736  -10.9971   17.3186 N   0  0  0  0  0  0  0  0  0  0  0  0
  -22.1410  -10.4653   19.0607 N   0  0  0  0  0  0  0  0  0  0  0  0
  -29.2774  -15.9645   19.3460 N   0  0  0  0  0  0  0  0  0  0  0  0
  -31.4869  -20.2786   17.7542 N   0  0  0  0  0  0  0  0  0  0  0  0
  -24.0969  -32.7115   19.6459 N   0  0  0  0  0  0  0  0  0  0  0  0
  -24.7100  -29.8716   25.8120 N   0  0  0  0  0  0  0  0  0  0  0  0
  -24.1539  -26.4010   26.6568 N   0  3  0  0  0  0  0  0  0  0  0  0
  -23.4310  -10.1361   17.1936 O   0  0  0  0  0  0  0  0  0  0  0  0
  -25.7989  -32.5673   21.2287 O   0  0  0  0  0  0  0  0  0  0  0  0
  -30.4356  -25.0018   19.6766 O   0  0  0  0  0  0  0  0  0  0  0  0
  -31.0847  -22.3309   19.5134 O   0  0  0  0  0  0  0  0  0  0  0  0
  -23.4014  -31.6502   23.9865 O   0  0  0  0  0  0  0  0  0  0  0  0
  -26.1077  -28.0507   25.4831 O   0  0  0  0  0  0  0  0  0  0  0  0
  -31.4482  -15.2318   19.7099 O   0  0  0  0  0  0  0  0  0  0  0  0
  -20.5298  -11.8698   24.2053 O   0  0  0  0  0  0  0  0  0  0  0  0
  -28.6348  -26.9477   19.2583 O   0  0  0  0  0  0  0  0  0  1  0  0
  -15.5864  -13.6982   22.5855 F   0  0  0  0  0  0  0  0  0  0  0  0
  -19.4011  -14.1154   25.3567 F   0  0  0  0  0  0  0  0  0  0  0  0
  -26.6702  -17.0024   18.8117 F   0  0  0  0  0  0  0  0  0  0  0  0
  -26.5566  -19.1452   19.1271 F   0  0  0  0  0  0  0  0  0  0  0  0
  -26.6755  -18.3513   17.1061 F   0  0  0  0  0  0  0  0  0  0  0  0
  -31.1363  -17.7997   18.7115 S   0  0  0  0  0  0  0  0  0  0  0  0
  1  2  1  0  0  0  0
  1  5  2  0  0  0  0
  2  6  2  0  0  0  0
  3  8  2  0  0  0  0
  3 15  1  0  0  0  0
  4  9  1  0  0  0  0
  4 15  2  0  0  0  0
  5 17  1  0  0  0  0
  6 19  1  0  0  0  0
  7 10  2  0  0  0  0
  7 18  1  0  0  0  0
  8 21  1  0  0  0  0
  9 21  2  0  0  0  0
 10 22  1  0  0  0  0
 11 12  2  0  0  0  0
 11 23  1  0  0  0  0
 12 24  1  0  0  0  0
 13 20  1  0  0  0  0
 13 22  2  0  0  0  0
 14 24  2  0  0  0  0
 14 25  1  0  0  0  0
 15 26  1  0  0  0  0
 16 26  1  0  0  0  0
 16 28  2  0  0  0  0
 16 31  1  0  0  0  0
 17 19  2  0  0  0  0
 17 38  1  0  0  0  0
 18 20  2  0  0  0  0
 18 39  1  0  0  0  0
 19 47  1  0  0  0  0
 20 40  1  0  0  0  0
 21 82  1  0  0  0  0
 22 83  1  0  0  0  0
 23 25  2  0  0  0  0
 23 82  1  0  0  0  0
 24 84  1  0  0  0  0
 25 85  1  0  0  0  0
 26 63  2  0  0  0  0
 27 29  2  0  0  0  0
 27 61  1  0  0  0  0
 27 64  1  0  0  0  0
 28 65  1  0  0  0  0
 28 68  1  0  0  0  0
 29 70  1  0  0  0  0
 29 89  1  0  0  0  0
 30 64  2  0  0  0  0
 30 71  1  0  0  0  0
 30 89  1  0  0  0  0
 31 69  1  0  0  0  0
 31 75  2  0  0  0  0
 32 48  1  0  0  0  0
 32 72  1  0  0  0  0
 32 76  2  0  0  0  0
 33 56  1  0  0  0  0
 33 57  1  0  0  0  0
 33 77  2  0  0  0  0
 34 56  1  0  0  0  0
 34 58  1  0  0  0  0
 34 78  2  0  0  0  0
 35 59  1  0  0  0  0
 35 66  1  0  0  0  0
 35 79  2  0  0  0  0
 36 60  1  0  0  0  0
 36 73  1  0  0  0  0
 36 80  2  0  0  0  0
 37 67  1  0  0  0  0
 37 70  1  0  0  0  0
 37 81  2  0  0  0  0
 38 41  1  0  0  0  0
 39 48  1  0  0  0  0
 40 66  1  0  0  0  0
 41 43  1  0  0  0  0
 42 44  1  0  0  0  0
 42 45  1  0  0  0  0
 43 47  1  0  0  0  0
 44 49  1  0  0  0  0
 45 67  1  0  0  0  0
 46 49  1  0  0  0  0
 46 67  1  0  0  0  0
 47 72  1  0  0  0  0
 48 66  1  0  0  0  0
 49 65  1  0  0  0  0
 50 58  1  0  0  0  0
 51 60  1  0  0  0  0
 52 62  1  0  0  0  0
 53 62  1  0  0  0  0
 54 62  1  0  0  0  0
 55 74  1  0  0  0  0
 57 83  1  0  0  0  0
 58 71  1  0  0  0  0
 59 62  1  0  0  0  0
 59 73  1  0  0  0  0
 60 74  1  0  0  0  0
 61 86  1  0  0  0  0
 61 87  1  0  0  0  0
 61 88  1  0  0  0  0
 63 65  1  0  0  0  0
M  CHG  1  74   1
M  ISO  4  37 100  57 101  70 100  83 101
M  END
> <Batch ID>
0179

> <Smiles>
CNC(C)C(=O)NC(C(=O)N1Cc2cc([101O:1][101CH2:1]C(=O)CC(=O)C(C)Nc3nc(C(F)(F)F)c([100NH:0][100C:0](=O)N4CCCC(n5nc(-c6ccc(Oc7ccc(F)cc7F)cc6)c(C(N)=O)c5N)C4)s3)ccc2CC1C(=O)NC1CCCc2ccccc21)C(C)(C)C

> <Shape>
0.249

> <Color>
0.116

> <Negative vol penalty>
0.000

$$$$

  -OEChem-04052304473D

 87 95  0     1  0  0  0  0  0999 V2000
  -22.8834  -26.8661   29.5700 C   0  0  0  0  0  0  0  0  0  0  0  0
  -23.9446  -25.9666   29.5647 C   0  0  0  0  0  0  0  0  0  0  0  0
  -23.0000   -9.8848   19.9957 C   0  0  0  0  0  0  0  0  0  0  0  0
  -23.7114   -9.9688   22.3031 C   0  0  0  0  0  0  0  0  0  0  0  0
  -22.2459  -27.1976   28.3752 C   0  0  0  0  0  0  0  0  0  0  0  0
  -24.3682  -25.3970   28.3645 C   0  0  0  0  0  0  0  0  0  0  0  0
  -29.4099  -25.3939   27.8885 C   0  0  0  0  0  0  0  0  0  0  0  0
  -22.2316   -8.7544   20.2737 C   0  0  0  0  0  0  0  0  0  0  0  0
  -22.9429   -8.8384   22.5811 C   0  0  0  0  0  0  0  0  0  0  0  0
  -30.1153  -24.4186   28.5920 C   0  0  0  0  0  0  0  0  0  0  0  0
  -23.1891   -5.4930   22.1589 C   0  0  0  0  0  0  0  0  0  0  0  0
  -23.7718   -4.4867   22.9291 C   0  0  0  0  0  0  0  0  0  0  0  0
  -32.4199  -17.1492   23.9033 C   0  0  0  0  0  0  0  0  0  0  0  0
  -30.2944  -23.1037   26.5775 C   0  0  0  0  0  0  0  0  0  0  0  0
  -22.0380   -4.7540   24.5903 C   0  0  0  0  0  0  0  0  0  0  0  0
  -23.7400  -10.4920   21.0103 C   0  0  0  0  0  0  0  0  0  0  0  0
  -31.8277  -18.3944   24.1138 C   0  0  0  0  0  0  0  0  0  0  0  0
  -24.1271  -13.0047   20.8004 C   0  0  0  0  0  0  0  0  0  0  0  0
  -22.6682  -26.6392   27.1584 C   0  0  0  0  0  0  0  0  0  0  0  0
  -29.1315  -25.2261   26.5244 C   0  0  0  0  0  0  0  0  0  0  0  0
  -23.7350  -25.7202   27.1524 C   0  0  0  0  0  0  0  0  0  0  0  0
  -29.5875  -24.0796   25.8584 C   0  0  0  0  0  0  0  0  0  0  0  0
  -30.6610  -16.5752   22.3497 C   0  0  0  0  0  0  0  0  0  0  0  0
  -22.2030   -8.2313   21.5665 C   0  0  0  0  0  0  0  0  0  0  0  0
  -30.5551  -23.2719   27.9372 C   0  0  0  0  0  0  0  0  0  0  0  0
  -22.0308   -6.1300   22.6044 C   0  0  0  0  0  0  0  0  0  0  0  0
  -23.1963   -4.1171   24.1447 C   0  0  0  0  0  0  0  0  0  0  0  0
  -31.8366  -16.2396   23.0211 C   0  0  0  0  0  0  0  0  0  0  0  0
  -21.4553   -5.7605   23.8200 C   0  0  0  0  0  0  0  0  0  0  0  0
  -30.6521  -18.7300   23.4423 C   0  0  0  0  0  0  0  0  0  0  0  0
  -30.0687  -17.8204   22.5602 C   0  0  0  0  0  0  0  0  0  0  0  0
  -24.5344  -11.6594   20.7236 C   0  0  0  0  0  0  0  0  0  0  0  0
  -25.2392  -13.7218   20.4323 C   0  0  0  0  0  0  0  0  0  0  0  0
  -32.4477  -19.3556   25.0487 C   0  0  0  0  0  0  0  0  0  0  0  0
  -22.8570  -13.5569   21.1714 C   0  0  0  0  0  0  0  0  0  0  0  0
  -26.4791  -24.9867   24.7892 C   0  0  0  0  0  0  0  0  0  0  0  0
  -28.5635  -25.0549   22.3047 C   0  0  0  0  0  0  0  0  0  0  0  0
  -31.7352  -24.5112   21.1681 C   0  0  0  0  0  0  0  0  0  0  0  0
  -32.1592  -20.6920   27.1241 C   0  0  0  0  0  0  0  0  0  0  0  0
  -30.7174  -14.6850   20.6852 C   0  0  0  0  0  0  0  0  0  0  0  0
  -21.9176  -26.9916   25.8986 C   0  0  0  0  0  0  0  0  0  0  0  0
  -28.3927  -26.2999   25.7737 C   0  0  0  0  0  0  0  0  0  0  0  0
  -29.3322  -23.8611   24.3902 C   0  0  0  0  0  0  0  0  0  0  0  0
  -22.6698  -26.6306   24.6203 C   0  0  0  0  0  0  0  0  0  0  0  0
  -29.6124  -12.1991   18.3882 C   0  0  0  0  0  0  0  0  0  0  0  0
  -23.2351  -25.2170   24.7146 C   0  0  0  0  0  0  0  0  0  0  0  0
  -28.1593  -11.9477   18.7974 C   0  0  0  0  0  0  0  0  0  0  0  0
  -30.5057  -12.4597   19.5998 C   0  0  0  0  0  0  0  0  0  0  0  0
  -28.5826  -13.2681   20.9103 C   0  0  0  0  0  0  0  0  0  0  0  0
  -24.2396  -25.1003   25.8674 C   0  0  1  0  0  0  0  0  0  0  0  0
  -27.7190  -25.7864   24.5050 C   0  0  1  0  0  0  0  0  0  0  0  0
  -27.6321  -13.0648   19.7192 C   0  0  2  0  0  0  0  0  0  0  0  0
  -33.1259  -24.6200   19.0820 C   0  0  0  0  0  0  0  0  0  0  0  0
  -31.2764  -20.0489   29.3678 C   0  0  0  0  0  0  0  0  0  0  0  0
  -27.2670  -22.4786   21.3089 C   0  0  0  0  0  0  0  0  0  0  0  0
  -29.2528  -22.1357   19.8233 C   0  0  0  0  0  0  0  0  0  0  0  0
  -27.7989  -24.1393   19.5163 C   0  0  0  0  0  0  0  0  0  0  0  0
  -33.5585  -26.5209   22.3494 C   0  0  0  0  0  0  0  0  0  0  0  0
  -29.3306  -24.0152   21.5239 C   0  0  1  0  0  0  0  0  0  0  0  0
  -32.6630  -25.3660   20.3238 C   0  0  2  0  0  0  0  0  0  0  0  0
  -31.1054  -20.9703   28.1733 C   0  0  1  0  0  0  0  0  0  1  0  0
  -28.4156  -23.1951   20.5712 C   0  0  0  0  0  0  0  0  0  0  0  0
  -25.8060  -11.5269   20.3369 N   0  0  0  0  0  0  0  0  0  0  0  0
  -26.2073  -12.7983   20.1674 N   0  0  0  0  0  0  0  0  0  0  0  0
  -28.6002  -24.9368   23.7013 N   0  0  0  0  0  0  0  0  0  0  0  0
  -29.9459  -13.5328   20.4243 N   0  0  0  0  0  0  0  0  0  0  0  0
  -25.4736  -15.0458   20.3125 N   0  0  0  0  0  0  0  0  0  0  0  0
  -21.8229  -12.6780   21.5215 N   0  0  0  0  0  0  0  0  0  0  0  0
  -30.0687  -15.6516   21.4531 N   0  0  0  0  0  0  0  0  0  0  0  0
  -31.7296  -19.7619   26.1047 N   0  0  0  0  0  0  0  0  0  0  0  0
  -25.5110  -25.6798   25.4905 N   0  0  0  0  0  0  0  0  0  0  0  0
  -30.4111  -24.7264   20.8492 N   0  0  0  0  0  0  0  0  0  0  0  0
  -33.6884  -19.7646   24.7856 N   0  3  0  0  0  0  0  0  0  0  0  0
  -33.8655  -25.7589   21.1116 N   0  3  0  0  0  0  0  0  0  0  0  0
  -22.6405  -14.7925   21.1761 O   0  0  0  0  0  0  0  0  0  0  0  0
  -26.4055  -23.8271   24.3997 O   0  0  0  0  0  0  0  0  0  0  0  0
  -27.9601  -25.9434   21.6980 O   0  0  0  0  0  0  0  0  0  0  0  0
  -32.1443  -23.7279   22.0223 O   0  0  0  0  0  0  0  0  0  0  0  0
  -33.2697  -21.2040   27.0960 O   0  0  0  0  0  0  0  0  0  0  0  0
  -31.8588  -14.8171   20.2361 O   0  0  0  0  0  0  0  0  0  0  0  0
  -21.4531   -7.1284   21.8382 O   0  0  0  0  0  0  0  0  0  0  0  0
  -31.2432  -22.3180   28.6216 O   0  0  0  0  0  0  0  0  0  1  0  0
  -23.7551   -3.1496   24.8835 F   0  0  0  0  0  0  0  0  0  0  0  0
  -32.4152  -15.0461   22.8260 F   0  0  0  0  0  0  0  0  0  0  0  0
  -20.3419   -6.3679   24.2527 F   0  0  0  0  0  0  0  0  0  0  0  0
  -30.0752  -19.9239   23.6384 F   0  0  0  0  0  0  0  0  0  0  0  0
  -28.9391  -18.1539   21.9198 F   0  0  0  0  0  0  0  0  0  0  0  0
  1  2  1  0  0  0  0
  1  5  2  0  0  0  0
  2  6  2  0  0  0  0
  3  8  2  0  0  0  0
  3 16  1  0  0  0  0
  4  9  1  0  0  0  0
  4 16  2  0  0  0  0
  5 19  1  0  0  0  0
  6 21  1  0  0  0  0
  7 10  2  0  0  0  0
  7 20  1  0  0  0  0
  8 24  1  0  0  0  0
  9 24  2  0  0  0  0
 10 25  1  0  0  0  0
 11 12  2  0  0  0  0
 11 26  1  0  0  0  0
 12 27  1  0  0  0  0
 13 17  1  0  0  0  0
 13 28  2  0  0  0  0
 14 22  1  0  0  0  0
 14 25  2  0  0  0  0
 15 27  2  0  0  0  0
 15 29  1  0  0  0  0
 16 32  1  0  0  0  0
 17 30  2  0  0  0  0
 17 34  1  0  0  0  0
 18 32  1  0  0  0  0
 18 33  2  0  0  0  0
 18 35  1  0  0  0  0
 19 21  2  0  0  0  0
 19 41  1  0  0  0  0
 20 22  2  0  0  0  0
 20 42  1  0  0  0  0
 21 50  1  0  0  0  0
 22 43  1  0  0  0  0
 23 28  1  0  0  0  0
 23 31  2  0  0  0  0
 23 69  1  0  0  0  0
 24 81  1  0  0  0  0
 25 82  1  0  0  0  0
 26 29  2  0  0  0  0
 26 81  1  0  0  0  0
 27 83  1  0  0  0  0
 28 84  1  0  0  0  0
 29 85  1  0  0  0  0
 30 31  1  0  0  0  0
 30 86  1  0  0  0  0
 31 87  1  0  0  0  0
 32 63  2  0  0  0  0
 33 64  1  0  0  0  0
 33 67  1  0  0  0  0
 34 70  1  0  0  0  0
 34 73  2  0  0  0  0
 35 68  1  0  0  0  0
 35 75  2  0  0  0  0
 36 51  1  0  0  0  0
 36 71  1  0  0  0  0
 36 76  2  0  0  0  0
 37 59  1  0  0  0  0
 37 65  1  0  0  0  0
 37 77  2  0  0  0  0
 38 60  1  0  0  0  0
 38 72  1  0  0  0  0
 38 78  2  0  0  0  0
 39 61  1  0  0  0  0
 39 70  1  0  0  0  0
 39 79  2  0  0  0  0
 40 66  1  0  0  0  0
 40 69  1  0  0  0  0
 40 80  2  0  0  0  0
 41 44  1  0  0  0  0
 42 51  1  0  0  0  0
 43 65  1  0  0  0  0
 44 46  1  0  0  0  0
 45 47  1  0  0  0  0
 45 48  1  0  0  0  0
 46 50  1  0  0  0  0
 47 52  1  0  0  0  0
 48 66  1  0  0  0  0
 49 52  1  0  0  0  0
 49 66  1  0  0  0  0
 50 71  1  0  0  0  0
 51 65  1  0  0  0  0
 52 64  1  0  0  0  0
 53 60  1  0  0  0  0
 54 61  1  0  0  0  0
 55 62  1  0  0  0  0
 56 62  1  0  0  0  0
 57 62  1  0  0  0  0
 58 74  1  0  0  0  0
 59 62  1  0  0  0  0
 59 72  1  0  0  0  0
 60 74  1  0  0  0  0
 61 82  1  0  0  0  0
 63 64  1  0  0  0  0
M  CHG  2  73   1  74   1
M  ISO  4  40 100  61 101  69 100  82 101
M  END
> <Batch ID>
0179

> <Smiles>
CNC(C)C(=O)NC(C(=O)N1Cc2cc([101O:1][101CH:1](C)C(=O)NC(=N)c3cc(F)c([100NH:0][100C:0](=O)N4CCCC(n5nc(-c6ccc(Oc7ccc(F)cc7F)cc6)c(C(N)=O)c5N)C4)c(F)c3F)ccc2CC1C(=O)NC1CCCc2ccccc21)C(C)(C)C

> <Shape>
0.208

> <Color>
0.194

> <Negative vol penalty>
0.000

$$$$

  -OEChem-04052304473D

 81 89  0     1  0  0  0  0  0999 V2000
  -24.2796  -31.1782   21.8823 C   0  0  0  0  0  0  0  0  0  0  0  0
  -23.5081  -30.0351   22.0657 C   0  0  0  0  0  0  0  0  0  0  0  0
  -23.0603  -15.6379   20.7310 C   0  0  0  0  0  0  0  0  0  0  0  0
  -22.5463  -14.0968   18.9427 C   0  0  0  0  0  0  0  0  0  0  0  0
  -25.3836  -31.1436   21.0315 C   0  0  0  0  0  0  0  0  0  0  0  0
  -23.8397  -28.8570   21.3974 C   0  0  0  0  0  0  0  0  0  0  0  0
  -25.2974  -22.8137   25.0368 C   0  0  0  0  0  0  0  0  0  0  0  0
  -22.0265  -16.4734   20.3081 C   0  0  0  0  0  0  0  0  0  0  0  0
  -21.5124  -14.9323   18.5199 C   0  0  0  0  0  0  0  0  0  0  0  0
  -25.3832  -21.5650   25.6529 C   0  0  0  0  0  0  0  0  0  0  0  0
  -21.5127  -18.7652   17.8774 C   0  0  0  0  0  0  0  0  0  0  0  0
  -21.7753  -20.1330   17.8025 C   0  0  0  0  0  0  0  0  0  0  0  0
  -31.7797  -17.8249   23.8376 C   0  0  0  0  0  0  0  0  0  0  0  0
  -30.8741  -18.4978   24.6922 C   0  0  0  0  0  0  0  0  0  0  0  0
  -25.8604  -20.5330   23.5186 C   0  0  0  0  0  0  0  0  0  0  0  0
  -20.0178  -20.5583   19.4048 C   0  0  0  0  0  0  0  0  0  0  0  0
  -23.3202  -14.4496   20.0482 C   0  0  0  0  0  0  0  0  0  0  0  0
  -24.3045  -12.5339   21.4152 C   0  0  0  0  0  0  0  0  0  0  0  0
  -25.7345  -29.9619   20.3600 C   0  0  0  0  0  0  0  0  0  0  0  0
  -25.5082  -22.9291   23.6600 C   0  0  0  0  0  0  0  0  0  0  0  0
  -24.9486  -28.8069   20.5358 C   0  0  0  0  0  0  0  0  0  0  0  0
  -25.7881  -21.7829   22.8980 C   0  0  0  0  0  0  0  0  0  0  0  0
  -21.2525  -16.1206   19.2026 C   0  0  0  0  0  0  0  0  0  0  0  0
  -25.6638  -20.4275   24.8956 C   0  0  0  0  0  0  0  0  0  0  0  0
  -20.5025  -18.2938   18.7160 C   0  0  0  0  0  0  0  0  0  0  0  0
  -21.0280  -21.0295   18.5662 C   0  0  0  0  0  0  0  0  0  0  0  0
  -19.7552  -19.1904   19.4797 C   0  0  0  0  0  0  0  0  0  0  0  0
  -24.3884  -13.5865   20.4842 C   0  0  0  0  0  0  0  0  0  0  0  0
  -31.0146  -17.0106   23.0355 C   0  0  0  0  0  0  0  0  0  0  0  0
  -25.5809  -12.0308   21.4807 C   0  0  0  0  0  0  0  0  0  0  0  0
  -29.6202  -18.0469   24.3513 C   0  0  0  0  0  0  0  0  0  0  0  0
  -31.3845  -16.0751   21.9586 C   0  0  0  0  0  0  0  0  0  0  0  0
  -23.1739  -12.0536   22.1546 C   0  0  0  0  0  0  0  0  0  0  0  0
  -25.6933  -25.1903   20.6719 C   0  0  0  0  0  0  0  0  0  0  0  0
  -27.9649  -23.1486   20.3863 C   0  0  0  0  0  0  0  0  0  0  0  0
  -30.5911  -20.9886   20.6591 C   0  0  0  0  0  0  0  0  0  0  0  0
  -30.9150  -14.5297   20.3206 C   0  0  0  0  0  0  0  0  0  0  0  0
  -26.9088  -29.9859   19.4139 C   0  0  0  0  0  0  0  0  0  0  0  0
  -25.3649  -24.2450   22.9446 C   0  0  0  0  0  0  0  0  0  0  0  0
  -25.9733  -21.9498   21.4145 C   0  0  0  0  0  0  0  0  0  0  0  0
  -27.4131  -28.5962   19.0336 C   0  0  0  0  0  0  0  0  0  0  0  0
  -29.5540  -11.5184   18.8767 C   0  0  0  0  0  0  0  0  0  0  0  0
  -26.2455  -27.6877   18.6620 C   0  0  0  0  0  0  0  0  0  0  0  0
  -28.0606  -11.6311   19.1827 C   0  0  0  0  0  0  0  0  0  0  0  0
  -30.1731  -12.8847   18.5981 C   0  0  0  0  0  0  0  0  0  0  0  0
  -28.4554  -13.9973   19.9982 C   0  0  0  0  0  0  0  0  0  0  0  0
  -25.2909  -27.5033   19.8478 C   0  0  1  0  0  0  0  0  0  0  0  0
  -26.3465  -24.4032   21.7697 C   0  0  1  0  0  0  0  0  0  0  0  0
  -27.8029  -12.6408   20.3154 C   0  0  1  0  0  0  0  0  0  0  0  0
  -32.6727  -20.2577   19.4632 C   0  0  0  0  0  0  0  0  0  0  0  0
  -26.6201  -17.6564   27.0827 C   0  0  0  0  0  0  0  0  0  0  0  0
  -26.2673  -21.5692   18.4045 C   0  0  0  0  0  0  0  0  0  0  0  0
  -28.2838  -20.1747   17.8973 C   0  0  0  0  0  0  0  0  0  0  0  0
  -28.3107  -22.6231   17.4205 C   0  0  0  0  0  0  0  0  0  0  0  0
  -32.3182  -21.8224   22.9132 C   0  0  0  0  0  0  0  0  0  0  0  0
  -28.1286  -19.2960   25.9135 C   0  0  0  0  0  0  0  0  0  0  0  0
  -28.4128  -21.8260   19.8176 C   0  0  1  0  0  0  0  0  0  0  0  0
  -32.0870  -21.1969   20.5061 C   0  0  2  0  0  0  0  0  0  0  0  0
  -26.7452  -19.0634   26.5165 C   0  0  1  0  0  0  0  0  0  1  0  0
  -27.8089  -21.5505   18.4116 C   0  0  0  0  0  0  0  0  0  0  0  0
  -25.6207  -13.7439   19.9936 N   0  0  0  0  0  0  0  0  0  0  0  0
  -30.4954  -15.3890   21.3181 N   0  0  0  0  0  0  0  0  0  0  0  0
  -26.3229  -12.7836   20.6187 N   0  0  0  0  0  0  0  0  0  0  0  0
  -26.7855  -23.1457   21.1411 N   0  0  0  0  0  0  0  0  0  0  0  0
  -29.8790  -13.8259   19.6795 N   0  0  0  0  0  0  0  0  0  0  0  0
  -26.1297  -11.0225   22.1909 N   0  0  0  0  0  0  0  0  0  0  0  0
  -21.9364  -12.6845   21.9677 N   0  0  0  0  0  0  0  0  0  0  0  0
  -28.3625  -18.3521   24.8442 N   0  0  0  0  0  0  0  0  0  0  0  0
  -25.8402  -26.5587   20.7966 N   0  0  0  0  0  0  0  0  0  0  0  0
  -29.8713  -21.8412   19.8490 N   0  0  0  0  0  0  0  0  0  0  0  0
  -32.7796  -20.9504   21.8025 N   0  3  0  0  0  0  0  0  0  0  0  0
  -23.2620  -11.1042   22.9696 O   0  0  0  0  0  0  0  0  0  0  0  0
  -25.1004  -24.6007   19.7761 O   0  0  0  0  0  0  0  0  0  0  0  0
  -28.6373  -24.1595   20.1642 O   0  0  0  0  0  0  0  0  0  0  0  0
  -30.1095  -20.1507   21.4183 O   0  0  0  0  0  0  0  0  0  0  0  0
  -32.0949  -14.3780   19.9953 O   0  0  0  0  0  0  0  0  0  0  0  0
  -29.6971  -17.1400   23.3422 O   0  0  0  0  0  0  0  0  0  0  0  0
  -20.2435  -16.9355   18.7899 O   0  0  0  0  0  0  0  0  0  0  0  0
  -25.7506  -19.2122   25.5041 O   0  0  0  0  0  0  0  0  0  1  0  0
  -21.2813  -22.3429   18.4953 F   0  0  0  0  0  0  0  0  0  0  0  0
  -18.7843  -18.7435   20.2881 F   0  0  0  0  0  0  0  0  0  0  0  0
  1  2  1  0  0  0  0
  1  5  2  0  0  0  0
  2  6  2  0  0  0  0
  3  8  2  0  0  0  0
  3 17  1  0  0  0  0
  4  9  1  0  0  0  0
  4 17  2  0  0  0  0
  5 19  1  0  0  0  0
  6 21  1  0  0  0  0
  7 10  2  0  0  0  0
  7 20  1  0  0  0  0
  8 23  1  0  0  0  0
  9 23  2  0  0  0  0
 10 24  1  0  0  0  0
 11 12  2  0  0  0  0
 11 25  1  0  0  0  0
 12 26  1  0  0  0  0
 13 14  1  0  0  0  0
 13 29  2  0  0  0  0
 14 31  2  0  0  0  0
 15 22  1  0  0  0  0
 15 24  2  0  0  0  0
 16 26  2  0  0  0  0
 16 27  1  0  0  0  0
 17 28  1  0  0  0  0
 18 28  1  0  0  0  0
 18 30  2  0  0  0  0
 18 33  1  0  0  0  0
 19 21  2  0  0  0  0
 19 38  1  0  0  0  0
 20 22  2  0  0  0  0
 20 39  1  0  0  0  0
 21 47  1  0  0  0  0
 22 40  1  0  0  0  0
 23 78  1  0  0  0  0
 24 79  1  0  0  0  0
 25 27  2  0  0  0  0
 25 78  1  0  0  0  0
 26 80  1  0  0  0  0
 27 81  1  0  0  0  0
 28 61  2  0  0  0  0
 29 32  1  0  0  0  0
 29 77  1  0  0  0  0
 30 63  1  0  0  0  0
 30 66  1  0  0  0  0
 31 68  1  0  0  0  0
 31 77  1  0  0  0  0
 32 62  2  0  0  0  0
 33 67  1  0  0  0  0
 33 72  2  0  0  0  0
 34 48  1  0  0  0  0
 34 69  1  0  0  0  0
 34 73  2  0  0  0  0
 35 57  1  0  0  0  0
 35 64  1  0  0  0  0
 35 74  2  0  0  0  0
 36 58  1  0  0  0  0
 36 70  1  0  0  0  0
 36 75  2  0  0  0  0
 37 62  1  0  0  0  0
 37 65  1  0  0  0  0
 37 76  2  0  0  0  0
 38 41  1  0  0  0  0
 39 48  1  0  0  0  0
 40 64  1  0  0  0  0
 41 43  1  0  0  0  0
 42 44  1  0  0  0  0
 42 45  1  0  0  0  0
 43 47  1  0  0  0  0
 44 49  1  0  0  0  0
 45 65  1  0  0  0  0
 46 49  1  0  0  0  0
 46 65  1  0  0  0  0
 47 69  1  0  0  0  0
 48 64  1  0  0  0  0
 49 63  1  0  0  0  0
 50 58  1  0  0  0  0
 51 59  1  0  0  0  0
 52 60  1  0  0  0  0
 53 60  1  0  0  0  0
 54 60  1  0  0  0  0
 55 71  1  0  0  0  0
 56 59  1  0  0  0  0
 56 68  1  0  0  0  0
 57 60  1  0  0  0  0
 57 70  1  0  0  0  0
 58 71  1  0  0  0  0
 59 79  1  0  0  0  0
 61 63  1  0  0  0  0
M  CHG  1  71   1
M  ISO  4  37 100  59 101  62 100  79 101
M  END
> <Batch ID>
0179

> <Smiles>
CNC(C)C(=O)NC(C(=O)N1Cc2cc([101O:1][101CH:1](C)CNc3ccc(C=[100N:0][100C:0](=O)N4CCCC(n5nc(-c6ccc(Oc7ccc(F)cc7F)cc6)c(C(N)=O)c5N)C4)o3)ccc2CC1C(=O)NC1CCCc2ccccc21)C(C)(C)C

> <Shape>
0.194

> <Color>
0.107

> <Negative vol penalty>
0.000

$$$$

  -OEChem-04052304473D

 87 95  0     1  0  0  0  0  0999 V2000
  -27.7894  -36.4616   24.7683 C   0  0  0  0  0  0  0  0  0  0  0  0
  -28.2905  -35.3231   24.1452 C   0  0  0  0  0  0  0  0  0  0  0  0
  -23.6438   -9.8885   22.4126 C   0  0  0  0  0  0  0  0  0  0  0  0
  -23.3058   -9.9613   20.0215 C   0  0  0  0  0  0  0  0  0  0  0  0
  -26.5588  -36.4128   25.4218 C   0  0  0  0  0  0  0  0  0  0  0  0
  -27.5616  -34.1347   24.1762 C   0  0  0  0  0  0  0  0  0  0  0  0
  -27.2490  -29.8917   19.7712 C   0  0  0  0  0  0  0  0  0  0  0  0
  -22.8417   -8.7501   22.4913 C   0  0  0  0  0  0  0  0  0  0  0  0
  -22.5038   -8.8228   20.1002 C   0  0  0  0  0  0  0  0  0  0  0  0
  -27.9082  -28.6766   19.5908 C   0  0  0  0  0  0  0  0  0  0  0  0
  -23.1542   -5.4368   21.8936 C   0  0  0  0  0  0  0  0  0  0  0  0
  -23.6086   -4.3767   22.6780 C   0  0  0  0  0  0  0  0  0  0  0  0
  -26.0380  -27.5214   20.5844 C   0  0  0  0  0  0  0  0  0  0  0  0
  -21.6335   -4.5514   24.0584 C   0  0  0  0  0  0  0  0  0  0  0  0
  -23.8758  -10.4942   21.1777 C   0  0  0  0  0  0  0  0  0  0  0  0
  -26.0970  -11.7176   20.9001 C   0  0  0  0  0  0  0  0  0  0  0  0
  -25.8100  -35.2258   25.4525 C   0  0  0  0  0  0  0  0  0  0  0  0
  -25.9818  -29.9319   20.3704 C   0  0  0  0  0  0  0  0  0  0  0  0
  -26.3204  -34.0696   24.8319 C   0  0  0  0  0  0  0  0  0  0  0  0
  -25.3637  -28.7381   20.7689 C   0  0  0  0  0  0  0  0  0  0  0  0
  -29.3352  -18.6401   16.4968 C   0  0  0  0  0  0  0  0  0  0  0  0
  -22.2718   -8.2172   21.3351 C   0  0  0  0  0  0  0  0  0  0  0  0
  -27.3040  -27.4914   20.0000 C   0  0  0  0  0  0  0  0  0  0  0  0
  -21.9395   -6.0543   22.1917 C   0  0  0  0  0  0  0  0  0  0  0  0
  -22.8483   -3.9340   23.7604 C   0  0  0  0  0  0  0  0  0  0  0  0
  -21.1791   -5.6116   23.2741 C   0  0  0  0  0  0  0  0  0  0  0  0
  -29.2727  -20.0289   16.5255 C   0  0  0  0  0  0  0  0  0  0  0  0
  -28.3785  -17.8926   17.1745 C   0  0  0  0  0  0  0  0  0  0  0  0
  -24.7037  -11.6706   21.0958 C   0  0  0  0  0  0  0  0  0  0  0  0
  -28.2420  -20.6171   17.2406 C   0  0  0  0  0  0  0  0  0  0  0  0
  -27.3879  -18.5764   17.8607 C   0  0  0  0  0  0  0  0  0  0  0  0
  -26.3984  -13.0576   20.8975 C   0  0  0  0  0  0  0  0  0  0  0  0
  -27.0350  -10.6458   20.7354 C   0  0  0  0  0  0  0  0  0  0  0  0
  -27.5285  -24.2753   17.7549 C   0  0  0  0  0  0  0  0  0  0  0  0
  -27.2524  -22.8086   17.9191 C   0  0  0  0  0  0  0  0  0  0  0  0
  -24.7884  -31.2450   23.0077 C   0  0  0  0  0  0  0  0  0  0  0  0
  -21.9739  -30.1811   21.7959 C   0  0  0  0  0  0  0  0  0  0  0  0
  -20.3430  -27.9789   19.7618 C   0  0  0  0  0  0  0  0  0  0  0  0
  -25.3399  -18.2851   19.2985 C   0  0  0  0  0  0  0  0  0  0  0  0
  -24.5069  -35.2090   26.2118 C   0  0  0  0  0  0  0  0  0  0  0  0
  -25.2725  -31.2482   20.5336 C   0  0  0  0  0  0  0  0  0  0  0  0
  -23.9957  -28.7252   21.3989 C   0  0  0  0  0  0  0  0  0  0  0  0
  -23.6227  -34.0103   25.8777 C   0  0  0  0  0  0  0  0  0  0  0  0
  -23.5765  -17.0709   22.1434 C   0  0  0  0  0  0  0  0  0  0  0  0
  -24.4425  -32.7239   25.8845 C   0  0  0  0  0  0  0  0  0  0  0  0
  -23.8272  -15.5616   22.1083 C   0  0  0  0  0  0  0  0  0  0  0  0
  -23.4170  -17.6521   20.7396 C   0  0  0  0  0  0  0  0  0  0  0  0
  -24.7580  -15.8251   19.7736 C   0  0  0  0  0  0  0  0  0  0  0  0
  -25.5478  -32.7684   24.8225 C   0  0  1  0  0  0  0  0  0  0  0  0
  -24.2051  -31.2208   21.6232 C   0  0  1  0  0  0  0  0  0  0  0  0
  -24.9898  -15.2053   21.1613 C   0  0  2  0  0  0  0  0  0  0  0  0
  -30.4239  -17.9554   15.7428 C   0  0  0  0  0  0  0  0  0  0  0  0
  -18.0397  -27.3290   19.0071 C   0  0  0  0  0  0  0  0  0  0  0  0
  -21.4949  -28.7859   24.4669 C   0  0  0  0  0  0  0  0  0  0  0  0
  -19.7169  -27.4186   23.3545 C   0  0  0  0  0  0  0  0  0  0  0  0
  -19.4770  -29.8976   23.4940 C   0  0  0  0  0  0  0  0  0  0  0  0
  -20.9655  -28.6066   16.9374 C   0  0  0  0  0  0  0  0  0  0  0  0
  -28.8796  -24.7618   18.2311 C   0  0  0  0  0  0  0  0  0  0  0  0
  -28.8353  -26.2035   18.7146 C   0  0  0  0  0  0  0  0  0  1  0  0
  -21.1764  -28.9042   21.9075 C   0  0  1  0  0  0  0  0  0  0  0  0
  -19.2627  -28.1845   18.7153 C   0  0  2  0  0  0  0  0  0  0  0  0
  -20.4929  -28.7517   23.2957 C   0  0  0  0  0  0  0  0  0  0  0  0
  -24.1577  -12.8843   21.2094 N   0  0  0  0  0  0  0  0  0  0  0  0
  -27.2945  -19.9241   17.9113 N   0  0  0  0  0  0  0  0  0  0  0  0
  -25.2135  -13.7065   21.0848 N   0  0  0  0  0  0  0  0  0  0  0  0
  -23.3454  -30.0382   21.5427 N   0  0  0  0  0  0  0  0  0  0  0  0
  -24.5570  -17.2772   19.9002 N   0  0  0  0  0  0  0  0  0  0  0  0
  -27.5587  -13.7324   20.7533 N   0  0  0  0  0  0  0  0  0  0  0  0
  -26.5563   -9.3288   20.7637 N   0  0  0  0  0  0  0  0  0  0  0  0
  -28.1836  -22.0300   17.2664 N   0  0  0  0  0  0  0  0  0  0  0  0
  -26.4161  -17.8095   18.5500 N   0  0  0  0  0  0  0  0  0  0  0  0
  -24.9966  -32.5160   23.5084 N   0  0  0  0  0  0  0  0  0  0  0  0
  -20.2489  -28.9024   20.7814 N   0  0  0  0  0  0  0  0  0  0  0  0
  -19.7761  -27.8250   17.3633 N   0  3  0  0  0  0  0  0  0  0  0  0
  -28.2635  -10.8494   20.5844 O   0  0  0  0  0  0  0  0  0  0  0  0
  -26.6523  -24.9557   17.2431 O   0  0  0  0  0  0  0  0  0  0  0  0
  -26.2903  -22.5074   18.6057 O   0  0  0  0  0  0  0  0  0  0  0  0
  -25.0302  -30.1888   23.5800 O   0  0  0  0  0  0  0  0  0  0  0  0
  -21.3996  -31.2656   21.9215 O   0  0  0  0  0  0  0  0  0  0  0  0
  -21.1839  -27.0859   19.6846 O   0  0  0  0  0  0  0  0  0  0  0  0
  -25.0912  -19.4827   19.4593 O   0  0  0  0  0  0  0  0  0  0  0  0
  -21.4893   -7.1061   21.4115 O   0  0  0  0  0  0  0  0  0  0  0  0
  -27.9456  -26.3040   19.8258 O   0  0  0  0  0  0  0  0  0  1  0  0
  -23.2841   -2.9149   24.5126 F   0  0  0  0  0  0  0  0  0  0  0  0
  -20.0108   -6.2001   23.5646 F   0  0  0  0  0  0  0  0  0  0  0  0
  -30.1837  -20.7700   15.8798 F   0  0  0  0  0  0  0  0  0  0  0  0
  -28.4187  -16.5531   17.1613 F   0  0  0  0  0  0  0  0  0  0  0  0
  1  2  1  0  0  0  0
  1  5  2  0  0  0  0
  2  6  2  0  0  0  0
  3  8  2  0  0  0  0
  3 15  1  0  0  0  0
  4  9  1  0  0  0  0
  4 15  2  0  0  0  0
  5 17  1  0  0  0  0
  6 19  1  0  0  0  0
  7 10  2  0  0  0  0
  7 18  1  0  0  0  0
  8 22  1  0  0  0  0
  9 22  2  0  0  0  0
 10 23  1  0  0  0  0
 11 12  2  0  0  0  0
 11 24  1  0  0  0  0
 12 25  1  0  0  0  0
 13 20  1  0  0  0  0
 13 23  2  0  0  0  0
 14 25  2  0  0  0  0
 14 26  1  0  0  0  0
 15 29  1  0  0  0  0
 16 29  1  0  0  0  0
 16 32  2  0  0  0  0
 16 33  1  0  0  0  0
 17 19  2  0  0  0  0
 17 40  1  0  0  0  0
 18 20  2  0  0  0  0
 18 41  1  0  0  0  0
 19 49  1  0  0  0  0
 20 42  1  0  0  0  0
 21 27  1  0  0  0  0
 21 28  2  0  0  0  0
 21 52  1  0  0  0  0
 22 82  1  0  0  0  0
 23 83  1  0  0  0  0
 24 26  2  0  0  0  0
 24 82  1  0  0  0  0
 25 84  1  0  0  0  0
 26 85  1  0  0  0  0
 27 30  2  0  0  0  0
 27 86  1  0  0  0  0
 28 31  1  0  0  0  0
 28 87  1  0  0  0  0
 29 63  2  0  0  0  0
 30 64  1  0  0  0  0
 30 70  1  0  0  0  0
 31 64  2  0  0  0  0
 31 71  1  0  0  0  0
 32 65  1  0  0  0  0
 32 68  1  0  0  0  0
 33 69  1  0  0  0  0
 33 75  2  0  0  0  0
 34 35  1  0  0  0  0
 34 58  1  0  0  0  0
 34 76  2  0  0  0  0
 35 70  1  0  0  0  0
 35 77  2  0  0  0  0
 36 50  1  0  0  0  0
 36 72  1  0  0  0  0
 36 78  2  0  0  0  0
 37 60  1  0  0  0  0
 37 66  1  0  0  0  0
 37 79  2  0  0  0  0
 38 61  1  0  0  0  0
 38 73  1  0  0  0  0
 38 80  2  0  0  0  0
 39 67  1  0  0  0  0
 39 71  1  0  0  0  0
 39 81  2  0  0  0  0
 40 43  1  0  0  0  0
 41 50  1  0  0  0  0
 42 66  1  0  0  0  0
 43 45  1  0  0  0  0
 44 46  1  0  0  0  0
 44 47  1  0  0  0  0
 45 49  1  0  0  0  0
 46 51  1  0  0  0  0
 47 67  1  0  0  0  0
 48 51  1  0  0  0  0
 48 67  1  0  0  0  0
 49 72  1  0  0  0  0
 50 66  1  0  0  0  0
 51 65  1  0  0  0  0
 53 61  1  0  0  0  0
 54 62  1  0  0  0  0
 55 62  1  0  0  0  0
 56 62  1  0  0  0  0
 57 74  1  0  0  0  0
 58 59  1  0  0  0  0
 59 83  1  0  0  0  0
 60 62  1  0  0  0  0
 60 73  1  0  0  0  0
 61 74  1  0  0  0  0
 63 65  1  0  0  0  0
M  CHG  1  74   1
M  ISO  4  39 100  59 101  71 100  83 101
M  END
> <Batch ID>
0179

> <Smiles>
CNC(C)C(=O)NC(C(=O)N1Cc2cc([101O:1][101CH2:1]CC(=O)C(=O)Nc3nc([100NH:0][100C:0](=O)N4CCCC(n5nc(-c6ccc(Oc7ccc(F)cc7F)cc6)c(C(N)=O)c5N)C4)c(F)c(C)c3F)ccc2CC1C(=O)NC1CCCc2ccccc21)C(C)(C)C

> <Shape>
0.292

> <Color>
0.103

> <Negative vol penalty>
0.000

$$$$

  -OEChem-04052304473D

 84 92  0     1  0  0  0  0  0999 V2000
  -19.8421  -31.0452   21.7619 C   0  0  0  0  0  0  0  0  0  0  0  0
  -21.1735  -30.6423   21.7783 C   0  0  0  0  0  0  0  0  0  0  0  0
  -26.2618  -12.5399   21.6187 C   0  0  0  0  0  0  0  0  0  0  0  0
  -25.2504  -13.8917   19.8904 C   0  0  0  0  0  0  0  0  0  0  0  0
  -18.8308  -30.1161   22.0027 C   0  0  0  0  0  0  0  0  0  0  0  0
  -21.4946  -29.3101   22.0365 C   0  0  0  0  0  0  0  0  0  0  0  0
  -25.0109  -27.5097   18.8682 C   0  0  0  0  0  0  0  0  0  0  0  0
  -25.0836  -11.8019   21.7310 C   0  0  0  0  0  0  0  0  0  0  0  0
  -24.0721  -13.1536   20.0027 C   0  0  0  0  0  0  0  0  0  0  0  0
  -26.3350  -27.8692   19.1157 C   0  0  0  0  0  0  0  0  0  0  0  0
  -23.5395   -9.3041   20.0548 C   0  0  0  0  0  0  0  0  0  0  0  0
  -23.6486   -7.9153   20.1234 C   0  0  0  0  0  0  0  0  0  0  0  0
  -26.7139  -25.7295   20.1632 C   0  0  0  0  0  0  0  0  0  0  0  0
  -22.5730   -7.9376   22.2867 C   0  0  0  0  0  0  0  0  0  0  0  0
  -26.3452  -13.5849   20.6984 C   0  0  0  0  0  0  0  0  0  0  0  0
  -28.6543  -14.0825   19.7349 C   0  0  0  0  0  0  0  0  0  0  0  0
  -19.1391  -28.7699   22.2545 C   0  0  0  0  0  0  0  0  0  0  0  0
  -24.5246  -26.2595   19.2767 C   0  0  0  0  0  0  0  0  0  0  0  0
  -20.4865  -28.3624   22.2823 C   0  0  0  0  0  0  0  0  0  0  0  0
  -25.3839  -25.3555   19.9174 C   0  0  0  0  0  0  0  0  0  0  0  0
  -23.9887  -12.1087   20.9231 C   0  0  0  0  0  0  0  0  0  0  0  0
  -27.1859  -26.9802   19.7659 C   0  0  0  0  0  0  0  0  0  0  0  0
  -22.9472  -10.0098   21.1022 C   0  0  0  0  0  0  0  0  0  0  0  0
  -23.1653   -7.2320   21.2394 C   0  0  0  0  0  0  0  0  0  0  0  0
  -22.4640   -9.3265   22.2181 C   0  0  0  0  0  0  0  0  0  0  0  0
  -27.5619  -14.3480   20.5822 C   0  0  0  0  0  0  0  0  0  0  0  0
  -30.6434  -23.5513   18.0568 C   0  0  0  0  0  0  0  0  0  0  0  0
  -30.2358  -22.8956   16.9140 C   0  0  0  0  0  0  0  0  0  0  0  0
  -29.5477  -15.0915   20.0001 C   0  0  0  0  0  0  0  0  0  0  0  0
  -29.9034  -21.7057   18.9819 C   0  0  0  0  0  0  0  0  0  0  0  0
  -29.4666  -26.5562   19.4666 C   0  0  0  0  0  0  0  0  0  1  0  0
  -28.8445  -13.0189   18.7924 C   0  0  0  0  0  0  0  0  0  0  0  0
  -31.2534  -24.9000   18.0687 C   0  0  0  0  0  0  0  0  0  0  0  0
  -30.6657  -26.3955   20.0369 C   0  0  0  0  0  0  0  0  0  0  0  0
  -31.6660  -25.5348   19.3598 C   0  0  0  0  0  0  0  0  0  0  0  0
  -22.2581  -25.2792   21.2781 C   0  0  0  0  0  0  0  0  0  0  0  0
  -23.0140  -22.3583   20.0869 C   0  0  0  0  0  0  0  0  0  0  0  0
  -25.3267  -20.3568   18.5728 C   0  0  0  0  0  0  0  0  0  0  0  0
  -29.6888  -20.7196   21.2902 C   0  0  0  0  0  0  0  0  0  0  0  0
  -18.0141  -27.8117   22.5560 C   0  0  0  0  0  0  0  0  0  0  0  0
  -23.1010  -25.8763   18.9784 C   0  0  0  0  0  0  0  0  0  0  0  0
  -24.9163  -23.9933   20.3580 C   0  0  0  0  0  0  0  0  0  0  0  0
  -18.4197  -26.3438   22.4510 C   0  0  0  0  0  0  0  0  0  0  0  0
  -30.2508  -18.2232   23.7659 C   0  0  0  0  0  0  0  0  0  0  0  0
  -19.7433  -26.1029   23.1701 C   0  0  0  0  0  0  0  0  0  0  0  0
  -29.7220  -16.9425   23.1159 C   0  0  0  0  0  0  0  0  0  0  0  0
  -29.4001  -19.4381   23.3995 C   0  0  0  0  0  0  0  0  0  0  0  0
  -28.6657  -18.3599   21.3097 C   0  0  0  0  0  0  0  0  0  0  0  0
  -20.8735  -26.9212   22.5341 C   0  0  1  0  0  0  0  0  0  0  0  0
  -22.5727  -24.7787   19.8968 C   0  0  1  0  0  0  0  0  0  0  0  0
  -29.5280  -17.1200   21.5972 C   0  0  2  0  0  0  0  0  0  0  0  0
  -30.2866  -23.3191   15.4999 C   0  0  0  0  0  0  0  0  0  0  0  0
  -25.6689  -18.0068   17.7617 C   0  0  0  0  0  0  0  0  0  0  0  0
  -23.4075  -21.4247   22.9651 C   0  0  0  0  0  0  0  0  0  0  0  0
  -24.6358  -19.4319   22.0772 C   0  0  0  0  0  0  0  0  0  0  0  0
  -22.2377  -19.7819   21.4862 C   0  0  0  0  0  0  0  0  0  0  0  0
  -25.7235  -21.2548   15.7808 C   0  0  0  0  0  0  0  0  0  0  0  0
  -23.9987  -21.2752   20.4563 C   0  0  1  0  0  0  0  0  0  0  0  0
  -25.2206  -19.4116   17.3897 C   0  0  2  0  0  0  0  0  0  0  0  0
  -23.5785  -20.5048   21.7397 C   0  0  0  0  0  0  0  0  0  0  0  0
  -27.7427  -15.4400   21.3298 N   0  0  0  0  0  0  0  0  0  0  0  0
  -30.4532  -22.8707   19.2436 N   0  0  0  0  0  0  0  0  0  0  0  0
  -28.9591  -15.8695   20.9532 N   0  0  0  0  0  0  0  0  0  0  0  0
  -23.5141  -23.6676   20.0493 N   0  0  0  0  0  0  0  0  0  0  0  0
  -29.2633  -19.5446   21.9453 N   0  0  0  0  0  0  0  0  0  0  0  0
  -30.7714  -15.3801   19.5086 N   0  0  0  0  0  0  0  0  0  0  0  0
  -27.8264  -12.0670   18.6448 N   0  0  0  0  0  0  0  0  0  0  0  0
  -29.5395  -20.6932   19.9039 N   0  0  0  0  0  0  0  0  0  0  0  0
  -21.3226  -26.2958   21.3087 N   0  0  0  0  0  0  0  0  0  0  0  0
  -24.1417  -20.4330   19.2737 N   0  0  0  0  0  0  0  0  0  0  0  0
  -26.0700  -19.8934   16.2640 N   0  3  0  0  0  0  0  0  0  0  0  0
  -29.8932  -12.9064   18.1135 O   0  0  0  0  0  0  0  0  0  0  0  0
  -31.4618  -25.5480   17.0534 O   0  0  0  0  0  0  0  0  0  0  0  0
  -32.8006  -25.3187   19.7561 O   0  0  0  0  0  0  0  0  0  0  0  0
  -22.8212  -24.7790   22.2448 O   0  0  0  0  0  0  0  0  0  0  0  0
  -21.8460  -22.0529   19.8339 O   0  0  0  0  0  0  0  0  0  0  0  0
  -26.3589  -20.9638   18.8499 O   0  0  0  0  0  0  0  0  0  0  0  0
  -30.1767  -21.6680   21.9103 O   0  0  0  0  0  0  0  0  0  0  0  0
  -31.0208  -26.9949   21.2251 O   0  0  0  0  0  0  0  0  0  0  0  0
  -22.8389  -11.3886   21.0323 O   0  0  0  0  0  0  0  0  0  0  0  0
  -28.4786  -27.3289   20.0094 O   0  0  0  0  0  0  0  0  0  1  0  0
  -23.2688   -5.8981   21.3044 F   0  0  0  0  0  0  0  0  0  0  0  0
  -21.8929   -9.9989   23.2269 F   0  0  0  0  0  0  0  0  0  0  0  0
  -29.5883  -21.3630   17.3302 S   0  0  0  0  0  0  0  0  0  0  0  0
  1  2  1  0  0  0  0
  1  5  2  0  0  0  0
  2  6  2  0  0  0  0
  3  8  2  0  0  0  0
  3 15  1  0  0  0  0
  4  9  1  0  0  0  0
  4 15  2  0  0  0  0
  5 17  1  0  0  0  0
  6 19  1  0  0  0  0
  7 10  2  0  0  0  0
  7 18  1  0  0  0  0
  8 21  1  0  0  0  0
  9 21  2  0  0  0  0
 10 22  1  0  0  0  0
 11 12  2  0  0  0  0
 11 23  1  0  0  0  0
 12 24  1  0  0  0  0
 13 20  1  0  0  0  0
 13 22  2  0  0  0  0
 14 24  2  0  0  0  0
 14 25  1  0  0  0  0
 15 26  1  0  0  0  0
 16 26  1  0  0  0  0
 16 29  2  0  0  0  0
 16 32  1  0  0  0  0
 17 19  2  0  0  0  0
 17 40  1  0  0  0  0
 18 20  2  0  0  0  0
 18 41  1  0  0  0  0
 19 49  1  0  0  0  0
 20 42  1  0  0  0  0
 21 80  1  0  0  0  0
 22 81  1  0  0  0  0
 23 25  2  0  0  0  0
 23 80  1  0  0  0  0
 24 82  1  0  0  0  0
 25 83  1  0  0  0  0
 26 61  2  0  0  0  0
 27 28  2  0  0  0  0
 27 33  1  0  0  0  0
 27 62  1  0  0  0  0
 28 52  1  0  0  0  0
 28 84  1  0  0  0  0
 29 63  1  0  0  0  0
 29 66  1  0  0  0  0
 30 62  2  0  0  0  0
 30 68  1  0  0  0  0
 30 84  1  0  0  0  0
 31 34  2  0  0  0  0
 31 81  1  0  0  0  0
 32 67  1  0  0  0  0
 32 72  2  0  0  0  0
 33 35  1  0  0  0  0
 33 73  2  0  0  0  0
 34 35  1  0  0  0  0
 34 79  1  0  0  0  0
 35 74  2  0  0  0  0
 36 50  1  0  0  0  0
 36 69  1  0  0  0  0
 36 75  2  0  0  0  0
 37 58  1  0  0  0  0
 37 64  1  0  0  0  0
 37 76  2  0  0  0  0
 38 59  1  0  0  0  0
 38 70  1  0  0  0  0
 38 77  2  0  0  0  0
 39 65  1  0  0  0  0
 39 68  1  0  0  0  0
 39 78  2  0  0  0  0
 40 43  1  0  0  0  0
 41 50  1  0  0  0  0
 42 64  1  0  0  0  0
 43 45  1  0  0  0  0
 44 46  1  0  0  0  0
 44 47  1  0  0  0  0
 45 49  1  0  0  0  0
 46 51  1  0  0  0  0
 47 65  1  0  0  0  0
 48 51  1  0  0  0  0
 48 65  1  0  0  0  0
 49 69  1  0  0  0  0
 50 64  1  0  0  0  0
 51 63  1  0  0  0  0
 53 59  1  0  0  0  0
 54 60  1  0  0  0  0
 55 60  1  0  0  0  0
 56 60  1  0  0  0  0
 57 71  1  0  0  0  0
 58 60  1  0  0  0  0
 58 70  1  0  0  0  0
 59 71  1  0  0  0  0
 61 63  1  0  0  0  0
M  CHG  1  71   1
M  ISO  4  31 101  39 100  68 100  81 101
M  END
> <Batch ID>
0179

> <Smiles>
CNC(C)C(=O)NC(C(=O)N1Cc2cc([101O:1][101CH2:1]C(=O)C(=O)C(=O)c3nc([100NH:0][100C:0](=O)N4CCCC(n5nc(-c6ccc(Oc7ccc(F)cc7F)cc6)c(C(N)=O)c5N)C4)sc3C)ccc2CC1C(=O)NC1CCCc2ccccc21)C(C)(C)C

> <Shape>
0.277

> <Color>
0.066

> <Negative vol penalty>
0.000

$$$$

  -OEChem-04052304473D

 88 96  0     1  0  0  0  0  0999 V2000
  -16.1240  -27.7291   21.8164 C   0  0  0  0  0  0  0  0  0  0  0  0
  -17.3700  -27.1206   21.7040 C   0  0  0  0  0  0  0  0  0  0  0  0
  -23.6588   -9.6547   21.9230 C   0  0  0  0  0  0  0  0  0  0  0  0
  -24.2126  -11.0371   23.8255 C   0  0  0  0  0  0  0  0  0  0  0  0
  -16.0183  -29.1174   21.7418 C   0  0  0  0  0  0  0  0  0  0  0  0
  -18.5109  -27.8999   21.5159 C   0  0  0  0  0  0  0  0  0  0  0  0
  -22.3645  -26.4452   24.4618 C   0  0  0  0  0  0  0  0  0  0  0  0
  -23.1094   -8.6989   22.7774 C   0  0  0  0  0  0  0  0  0  0  0  0
  -23.6632  -10.0812   24.6799 C   0  0  0  0  0  0  0  0  0  0  0  0
  -23.0790  -25.3161   24.0641 C   0  0  0  0  0  0  0  0  0  0  0  0
  -24.2258   -6.2380   24.8077 C   0  0  0  0  0  0  0  0  0  0  0  0
  -24.5490   -4.9009   24.5766 C   0  0  0  0  0  0  0  0  0  0  0  0
  -24.8003  -26.7357   23.1469 C   0  0  0  0  0  0  0  0  0  0  0  0
  -22.2097   -4.3915   24.2518 C   0  0  0  0  0  0  0  0  0  0  0  0
  -24.2105  -10.8238   22.4470 C   0  0  0  0  0  0  0  0  0  0  0  0
  -24.1153  -12.8997   20.9674 C   0  0  0  0  0  0  0  0  0  0  0  0
  -17.1597  -29.9147   21.5624 C   0  0  0  0  0  0  0  0  0  0  0  0
  -22.8581  -27.7304   24.1949 C   0  0  0  0  0  0  0  0  0  0  0  0
  -18.4202  -29.3000   21.4375 C   0  0  0  0  0  0  0  0  0  0  0  0
  -24.0913  -27.8795   23.5445 C   0  0  0  0  0  0  0  0  0  0  0  0
  -23.1116   -8.9121   24.1559 C   0  0  0  0  0  0  0  0  0  0  0  0
  -24.2957  -25.4612   23.4040 C   0  0  0  0  0  0  0  0  0  0  0  0
  -22.8945   -6.6518   24.7610 C   0  0  0  0  0  0  0  0  0  0  0  0
  -23.5410   -3.9777   24.2986 C   0  0  0  0  0  0  0  0  0  0  0  0
  -21.8865   -5.7286   24.4830 C   0  0  0  0  0  0  0  0  0  0  0  0
  -24.7787  -11.8113   21.5649 C   0  0  0  0  0  0  0  0  0  0  0  0
  -29.2858  -20.3364   19.2845 C   0  0  0  0  0  0  0  0  0  0  0  0
  -30.4928  -19.8459   18.8324 C   0  0  0  0  0  0  0  0  0  0  0  0
  -25.0862  -13.5298   20.2280 C   0  0  0  0  0  0  0  0  0  0  0  0
  -29.6164  -17.9641   19.5399 C   0  0  0  0  0  0  0  0  0  0  0  0
  -22.7439  -13.3051   21.0715 C   0  0  0  0  0  0  0  0  0  0  0  0
  -28.7424  -21.7191   19.2905 C   0  0  0  0  0  0  0  0  0  0  0  0
  -21.8401  -30.2160   22.4951 C   0  0  0  0  0  0  0  0  0  0  0  0
  -25.9417  -23.1543   21.1393 C   0  0  0  0  0  0  0  0  0  0  0  0
  -24.4120  -31.6806   23.8226 C   0  0  0  0  0  0  0  0  0  0  0  0
  -27.4954  -31.3844   25.2551 C   0  0  0  0  0  0  0  0  0  0  0  0
  -30.2525  -15.5299   19.6688 C   0  0  0  0  0  0  0  0  0  0  0  0
  -16.9900  -31.4084   21.4406 C   0  0  0  0  0  0  0  0  0  0  0  0
  -22.0882  -28.9381   24.6542 C   0  0  0  0  0  0  0  0  0  0  0  0
  -24.6747  -29.2370   23.2523 C   0  0  0  0  0  0  0  0  0  0  0  0
  -18.2921  -32.1856   21.6152 C   0  0  0  0  0  0  0  0  0  0  0  0
  -29.7770  -12.0618   19.0181 C   0  0  0  0  0  0  0  0  0  0  0  0
  -19.4085  -31.5483   20.7939 C   0  0  0  0  0  0  0  0  0  0  0  0
  -28.3796  -11.7770   19.5735 C   0  0  0  0  0  0  0  0  0  0  0  0
  -30.5351  -13.0701   19.8797 C   0  0  0  0  0  0  0  0  0  0  0  0
  -28.4229  -14.0415   20.6948 C   0  0  0  0  0  0  0  0  0  0  0  0
  -19.6840  -30.1128   21.2577 C   0  0  1  0  0  0  0  0  0  0  0  0
  -22.4373  -30.2016   23.8738 C   0  0  1  0  0  0  0  0  0  0  0  0
  -27.5965  -13.0806   19.8246 C   0  0  2  0  0  0  0  0  0  0  0  0
  -29.3680  -32.7607   26.2020 C   0  0  0  0  0  0  0  0  0  0  0  0
  -25.2847  -32.4328   20.9972 C   0  0  0  0  0  0  0  0  0  0  0  0
  -27.5602  -32.9400   21.9100 C   0  0  0  0  0  0  0  0  0  0  0  0
  -25.5835  -34.2420   22.6978 C   0  0  0  0  0  0  0  0  0  0  0  0
  -27.2215  -30.1325   27.9228 C   0  0  0  0  0  0  0  0  0  0  0  0
  -25.8093  -24.4876   21.8493 C   0  0  0  0  0  0  0  0  0  1  0  0
  -26.8000  -23.1448   19.8828 C   0  0  2  0  0  0  0  0  0  0  0  0
  -25.8642  -31.8424   23.4429 C   0  0  1  0  0  0  0  0  0  0  0  0
  -28.0867  -32.0015   26.5097 C   0  0  2  0  0  0  0  0  0  0  0  0
  -26.0615  -32.8386   22.2656 C   0  0  0  0  0  0  0  0  0  0  0  0
  -25.9532  -23.3878   18.6533 C   0  0  0  0  0  0  0  0  0  0  0  0
  -26.0712  -11.7504   21.2336 N   0  0  0  0  0  0  0  0  0  0  0  0
  -30.6844  -18.4858   18.9783 N   0  0  0  0  0  0  0  0  0  0  0  0
  -26.2277  -12.8084   20.4199 N   0  0  0  0  0  0  0  0  0  0  0  0
  -23.8812  -30.3873   23.7156 N   0  0  0  0  0  0  0  0  0  0  0  0
  -29.7339  -14.2810   20.0713 N   0  0  0  0  0  0  0  0  0  0  0  0
  -31.4579  -20.6141   18.2724 N   0  0  0  0  0  0  0  0  0  0  0  0
  -25.0664  -14.6250   19.4390 N   0  0  0  0  0  0  0  0  0  0  0  0
  -21.8817  -12.5452   21.8737 N   0  0  0  0  0  0  0  0  0  0  0  0
  -29.3879  -16.6053   19.8705 N   0  0  0  0  0  0  0  0  0  0  0  0
  -27.4710  -21.8725   19.8285 N   0  0  0  0  0  0  0  0  0  0  0  0
  -20.4619  -30.1165   22.4780 N   0  0  0  0  0  0  0  0  0  0  0  0
  -26.5666  -32.2160   24.6658 N   0  0  0  0  0  0  0  0  0  0  0  0
  -28.3969  -30.9424   27.5112 N   0  3  0  0  0  0  0  0  0  0  0  0
  -22.2926  -14.3017   20.4580 O   0  0  0  0  0  0  0  0  0  0  0  0
  -29.4148  -22.6301   18.8147 O   0  0  0  0  0  0  0  0  0  0  0  0
  -22.5750  -30.3117   21.5193 O   0  0  0  0  0  0  0  0  0  0  0  0
  -25.3614  -22.1457   21.5419 O   0  0  0  0  0  0  0  0  0  0  0  0
  -23.7743  -32.6641   24.2069 O   0  0  0  0  0  0  0  0  0  0  0  0
  -27.8272  -30.2772   24.8373 O   0  0  0  0  0  0  0  0  0  0  0  0
  -31.3697  -15.6339   19.1559 O   0  0  0  0  0  0  0  0  0  0  0  0
  -22.5753   -7.9797   24.9899 O   0  0  0  0  0  0  0  0  0  0  0  0
  -24.9948  -24.3607   23.0142 O   0  0  0  0  0  0  0  0  0  1  0  0
  -23.8517   -2.6941   24.0751 F   0  0  0  0  0  0  0  0  0  0  0  0
  -20.6059   -6.1205   24.4356 F   0  0  0  0  0  0  0  0  0  0  0  0
  -26.7028  -23.3467   17.5297 F   0  0  0  0  0  0  0  0  0  0  0  0
  -25.3375  -24.5888   18.6953 F   0  0  0  0  0  0  0  0  0  0  0  0
  -24.9970  -22.4393   18.5326 F   0  0  0  0  0  0  0  0  0  0  0  0
  -28.3436  -19.0512   19.9185 S   0  0  0  0  0  0  0  0  0  0  0  0
  1  2  1  0  0  0  0
  1  5  2  0  0  0  0
  2  6  2  0  0  0  0
  3  8  2  0  0  0  0
  3 15  1  0  0  0  0
  4  9  1  0  0  0  0
  4 15  2  0  0  0  0
  5 17  1  0  0  0  0
  6 19  1  0  0  0  0
  7 10  2  0  0  0  0
  7 18  1  0  0  0  0
  8 21  1  0  0  0  0
  9 21  2  0  0  0  0
 10 22  1  0  0  0  0
 11 12  2  0  0  0  0
 11 23  1  0  0  0  0
 12 24  1  0  0  0  0
 13 20  1  0  0  0  0
 13 22  2  0  0  0  0
 14 24  2  0  0  0  0
 14 25  1  0  0  0  0
 15 26  1  0  0  0  0
 16 26  1  0  0  0  0
 16 29  2  0  0  0  0
 16 31  1  0  0  0  0
 17 19  2  0  0  0  0
 17 38  1  0  0  0  0
 18 20  2  0  0  0  0
 18 39  1  0  0  0  0
 19 47  1  0  0  0  0
 20 40  1  0  0  0  0
 21 81  1  0  0  0  0
 22 82  1  0  0  0  0
 23 25  2  0  0  0  0
 23 81  1  0  0  0  0
 24 83  1  0  0  0  0
 25 84  1  0  0  0  0
 26 61  2  0  0  0  0
 27 28  2  0  0  0  0
 27 32  1  0  0  0  0
 27 88  1  0  0  0  0
 28 62  1  0  0  0  0
 28 66  1  0  0  0  0
 29 63  1  0  0  0  0
 29 67  1  0  0  0  0
 30 62  2  0  0  0  0
 30 69  1  0  0  0  0
 30 88  1  0  0  0  0
 31 68  1  0  0  0  0
 31 74  2  0  0  0  0
 32 70  1  0  0  0  0
 32 75  2  0  0  0  0
 33 48  1  0  0  0  0
 33 71  1  0  0  0  0
 33 76  2  0  0  0  0
 34 55  1  0  0  0  0
 34 56  1  0  0  0  0
 34 77  2  0  0  0  0
 35 57  1  0  0  0  0
 35 64  1  0  0  0  0
 35 78  2  0  0  0  0
 36 58  1  0  0  0  0
 36 72  1  0  0  0  0
 36 79  2  0  0  0  0
 37 65  1  0  0  0  0
 37 69  1  0  0  0  0
 37 80  2  0  0  0  0
 38 41  1  0  0  0  0
 39 48  1  0  0  0  0
 40 64  1  0  0  0  0
 41 43  1  0  0  0  0
 42 44  1  0  0  0  0
 42 45  1  0  0  0  0
 43 47  1  0  0  0  0
 44 49  1  0  0  0  0
 45 65  1  0  0  0  0
 46 49  1  0  0  0  0
 46 65  1  0  0  0  0
 47 71  1  0  0  0  0
 48 64  1  0  0  0  0
 49 63  1  0  0  0  0
 50 58  1  0  0  0  0
 51 59  1  0  0  0  0
 52 59  1  0  0  0  0
 53 59  1  0  0  0  0
 54 73  1  0  0  0  0
 55 82  1  0  0  0  0
 56 60  1  0  0  0  0
 56 70  1  0  0  0  0
 57 59  1  0  0  0  0
 57 72  1  0  0  0  0
 58 73  1  0  0  0  0
 60 85  1  0  0  0  0
 60 86  1  0  0  0  0
 60 87  1  0  0  0  0
 61 63  1  0  0  0  0
M  CHG  1  73   1
M  ISO  4  37 100  55 101  69 100  82 101
M  END
> <Batch ID>
0179

> <Smiles>
CNC(C)C(=O)NC(C(=O)N1Cc2cc([101O:1][101CH2:1]C(=O)C(NC(=O)c3sc([100NH:0][100C:0](=O)N4CCCC(n5nc(-c6ccc(Oc7ccc(F)cc7F)cc6)c(C(N)=O)c5N)C4)nc3N)C(F)(F)F)ccc2CC1C(=O)NC1CCCc2ccccc21)C(C)(C)C

> <Shape>
0.287

> <Color>
0.126

> <Negative vol penalty>
0.000

$$$$

  -OEChem-04052304473D

 84 92  0     1  0  0  0  0  0999 V2000
  -16.8836  -30.7910   23.3112 C   0  0  0  0  0  0  0  0  0  0  0  0
  -18.1791  -31.2957   23.2627 C   0  0  0  0  0  0  0  0  0  0  0  0
  -26.7782  -12.1585   21.7447 C   0  0  0  0  0  0  0  0  0  0  0  0
  -25.9971  -13.1580   19.6885 C   0  0  0  0  0  0  0  0  0  0  0  0
  -16.6691  -29.4157   23.2310 C   0  0  0  0  0  0  0  0  0  0  0  0
  -19.2610  -30.4253   23.1351 C   0  0  0  0  0  0  0  0  0  0  0  0
  -25.8012  -30.0355   20.2385 C   0  0  0  0  0  0  0  0  0  0  0  0
  -25.5911  -11.4327   21.8429 C   0  0  0  0  0  0  0  0  0  0  0  0
  -24.8100  -12.4322   19.7866 C   0  0  0  0  0  0  0  0  0  0  0  0
  -27.1165  -29.7306   20.5858 C   0  0  0  0  0  0  0  0  0  0  0  0
  -23.7632   -9.2778   19.1746 C   0  0  0  0  0  0  0  0  0  0  0  0
  -23.2925   -8.6492   18.0219 C   0  0  0  0  0  0  0  0  0  0  0  0
  -26.6205  -27.3792   20.3764 C   0  0  0  0  0  0  0  0  0  0  0  0
  -21.2545   -9.9404   18.1500 C   0  0  0  0  0  0  0  0  0  0  0  0
  -26.9812  -13.0212   20.6675 C   0  0  0  0  0  0  0  0  0  0  0  0
  -29.3949  -13.3761   19.9222 C   0  0  0  0  0  0  0  0  0  0  0  0
  -17.7482  -28.5286   23.0925 C   0  0  0  0  0  0  0  0  0  0  0  0
  -24.8812  -29.0124   19.9677 C   0  0  0  0  0  0  0  0  0  0  0  0
  -19.0608  -29.0367   23.0542 C   0  0  0  0  0  0  0  0  0  0  0  0
  -25.2947  -27.6737   20.0233 C   0  0  0  0  0  0  0  0  0  0  0  0
  -24.6070  -11.5695   20.8638 C   0  0  0  0  0  0  0  0  0  0  0  0
  -27.5256  -28.4022   20.6576 C   0  0  0  0  0  0  0  0  0  0  0  0
  -22.9795  -10.2376   19.8152 C   0  0  0  0  0  0  0  0  0  0  0  0
  -22.0382   -8.9806   17.5095 C   0  0  0  0  0  0  0  0  0  0  0  0
  -21.7252  -10.5690   19.3029 C   0  0  0  0  0  0  0  0  0  0  0  0
  -28.2070  -13.7716   20.5659 C   0  0  0  0  0  0  0  0  0  0  0  0
  -28.7063  -23.1306   17.8038 C   0  0  0  0  0  0  0  0  0  0  0  0
  -30.2539  -14.4317   20.1081 C   0  0  0  0  0  0  0  0  0  0  0  0
  -28.0887  -22.3734   16.8304 C   0  0  0  0  0  0  0  0  0  0  0  0
  -28.6753  -21.2054   18.8539 C   0  0  0  0  0  0  0  0  0  0  0  0
  -29.0228  -24.5661   17.6986 C   0  0  0  0  0  0  0  0  0  0  0  0
  -29.6436  -25.2806   18.6478 C   0  0  0  0  0  0  0  0  0  0  0  0
  -29.6951  -12.1632   19.2192 C   0  0  0  0  0  0  0  0  0  0  0  0
  -29.9266  -26.7322   18.4393 C   0  0  0  0  0  0  0  0  0  0  0  0
  -22.1432  -28.0557   21.2684 C   0  0  0  0  0  0  0  0  0  0  0  0
  -22.0876  -26.0449   18.7236 C   0  0  0  0  0  0  0  0  0  0  0  0
  -23.8321  -24.3721   16.3142 C   0  0  0  0  0  0  0  0  0  0  0  0
  -29.4019  -20.2663   21.0757 C   0  0  0  0  0  0  0  0  0  0  0  0
  -17.4699  -27.0467   23.0573 C   0  0  0  0  0  0  0  0  0  0  0  0
  -23.4729  -29.3586   19.5683 C   0  0  0  0  0  0  0  0  0  0  0  0
  -24.3512  -26.5391   19.7221 C   0  0  0  0  0  0  0  0  0  0  0  0
  -18.6457  -26.2181   22.5463 C   0  0  0  0  0  0  0  0  0  0  0  0
  -31.1947  -18.0020   23.1580 C   0  0  0  0  0  0  0  0  0  0  0  0
  -19.9424  -26.6614   23.2163 C   0  0  0  0  0  0  0  0  0  0  0  0
  -30.7447  -16.6241   22.6669 C   0  0  0  0  0  0  0  0  0  0  0  0
  -30.0537  -19.0172   23.1226 C   0  0  0  0  0  0  0  0  0  0  0  0
  -28.9151  -17.7546   21.3396 C   0  0  0  0  0  0  0  0  0  0  0  0
  -20.2586  -28.1263   22.8914 C   0  0  1  0  0  0  0  0  0  0  0  0
  -22.4854  -28.2222   19.8148 C   0  0  1  0  0  0  0  0  0  0  0  0
  -30.0467  -16.7148   21.2957 C   0  0  2  0  0  0  0  0  0  0  0  0
  -23.5164  -22.7767   14.4031 C   0  0  0  0  0  0  0  0  0  0  0  0
  -30.7308  -29.5321   20.9726 C   0  0  0  0  0  0  0  0  0  0  0  0
  -21.7163  -23.7521   20.7022 C   0  0  0  0  0  0  0  0  0  0  0  0
  -22.3554  -22.1642   18.8751 C   0  0  0  0  0  0  0  0  0  0  0  0
  -20.3179  -23.5834   18.6357 C   0  0  0  0  0  0  0  0  0  0  0  0
  -24.9170  -26.3140   14.3620 C   0  0  0  0  0  0  0  0  0  0  0  0
  -30.6358  -27.4292   19.5916 C   0  0  0  0  0  0  0  0  0  0  0  0
  -22.6017  -24.6521   18.4501 C   0  0  1  0  0  0  0  0  0  0  0  0
  -23.6076  -24.2366   14.8190 C   0  0  2  0  0  0  0  0  0  0  0  0
  -29.8401  -28.6093   20.1512 C   0  0  1  0  0  0  0  0  0  1  0  0
  -21.7653  -23.5591   19.1734 C   0  0  0  0  0  0  0  0  0  0  0  0
  -28.2993  -14.9837   21.1194 N   0  0  0  0  0  0  0  0  0  0  0  0
  -29.0430  -22.4627   18.9649 N   0  0  0  0  0  0  0  0  0  0  0  0
  -29.5555  -15.3589   20.8241 N   0  0  0  0  0  0  0  0  0  0  0  0
  -22.9831  -26.9285   19.3425 N   0  0  0  0  0  0  0  0  0  0  0  0
  -29.4430  -19.0514   21.7919 N   0  0  0  0  0  0  0  0  0  0  0  0
  -31.5309  -14.6478   19.7272 N   0  0  0  0  0  0  0  0  0  0  0  0
  -27.6518  -22.7643   15.6073 N   0  0  0  0  0  0  0  0  0  0  0  0
  -28.6981  -11.1829   19.1222 N   0  0  0  0  0  0  0  0  0  0  0  0
  -28.8271  -20.1697   19.8089 N   0  0  0  0  0  0  0  0  0  0  0  0
  -20.8044  -28.2413   21.5560 N   0  0  0  0  0  0  0  0  0  0  0  0
  -22.6431  -24.5100   16.9987 N   0  0  0  0  0  0  0  0  0  0  0  0
  -24.7278  -24.8703   14.0675 N   0  3  0  0  0  0  0  0  0  0  0  0
  -30.8196  -11.9480   18.7066 O   0  0  0  0  0  0  0  0  0  0  0  0
  -29.6056  -27.3102   17.4045 O   0  0  0  0  0  0  0  0  0  0  0  0
  -23.0279  -27.7779   22.0695 O   0  0  0  0  0  0  0  0  0  0  0  0
  -20.9362  -26.3402   18.3935 O   0  0  0  0  0  0  0  0  0  0  0  0
  -24.9501  -24.3535   16.8243 O   0  0  0  0  0  0  0  0  0  0  0  0
  -29.8688  -21.3096   21.5402 O   0  0  0  0  0  0  0  0  0  0  0  0
  -23.4486  -10.8613   20.9592 O   0  0  0  0  0  0  0  0  0  0  0  0
  -28.8088  -28.1019   20.9970 O   0  0  0  0  0  0  0  0  0  1  0  0
  -21.5869   -8.3780   16.4016 F   0  0  0  0  0  0  0  0  0  0  0  0
  -20.9683  -11.4911   19.9132 F   0  0  0  0  0  0  0  0  0  0  0  0
  -27.9194  -20.7576   17.3798 S   0  0  0  0  0  0  0  0  0  0  0  0
  1  2  1  0  0  0  0
  1  5  2  0  0  0  0
  2  6  2  0  0  0  0
  3  8  2  0  0  0  0
  3 15  1  0  0  0  0
  4  9  1  0  0  0  0
  4 15  2  0  0  0  0
  5 17  1  0  0  0  0
  6 19  1  0  0  0  0
  7 10  2  0  0  0  0
  7 18  1  0  0  0  0
  8 21  1  0  0  0  0
  9 21  2  0  0  0  0
 10 22  1  0  0  0  0
 11 12  2  0  0  0  0
 11 23  1  0  0  0  0
 12 24  1  0  0  0  0
 13 20  1  0  0  0  0
 13 22  2  0  0  0  0
 14 24  2  0  0  0  0
 14 25  1  0  0  0  0
 15 26  1  0  0  0  0
 16 26  1  0  0  0  0
 16 28  2  0  0  0  0
 16 33  1  0  0  0  0
 17 19  2  0  0  0  0
 17 39  1  0  0  0  0
 18 20  2  0  0  0  0
 18 40  1  0  0  0  0
 19 48  1  0  0  0  0
 20 41  1  0  0  0  0
 21 80  1  0  0  0  0
 22 81  1  0  0  0  0
 23 25  2  0  0  0  0
 23 80  1  0  0  0  0
 24 82  1  0  0  0  0
 25 83  1  0  0  0  0
 26 62  2  0  0  0  0
 27 29  2  0  0  0  0
 27 31  1  0  0  0  0
 27 63  1  0  0  0  0
 28 64  1  0  0  0  0
 28 67  1  0  0  0  0
 29 68  1  0  0  0  0
 29 84  1  0  0  0  0
 30 63  2  0  0  0  0
 30 70  1  0  0  0  0
 30 84  1  0  0  0  0
 31 32  2  0  0  0  0
 32 34  1  0  0  0  0
 33 69  1  0  0  0  0
 33 74  2  0  0  0  0
 34 57  1  0  0  0  0
 34 75  2  0  0  0  0
 35 49  1  0  0  0  0
 35 71  1  0  0  0  0
 35 76  2  0  0  0  0
 36 58  1  0  0  0  0
 36 65  1  0  0  0  0
 36 77  2  0  0  0  0
 37 59  1  0  0  0  0
 37 72  1  0  0  0  0
 37 78  2  0  0  0  0
 38 66  1  0  0  0  0
 38 70  1  0  0  0  0
 38 79  2  0  0  0  0
 39 42  1  0  0  0  0
 40 49  1  0  0  0  0
 41 65  1  0  0  0  0
 42 44  1  0  0  0  0
 43 45  1  0  0  0  0
 43 46  1  0  0  0  0
 44 48  1  0  0  0  0
 45 50  1  0  0  0  0
 46 66  1  0  0  0  0
 47 50  1  0  0  0  0
 47 66  1  0  0  0  0
 48 71  1  0  0  0  0
 49 65  1  0  0  0  0
 50 64  1  0  0  0  0
 51 59  1  0  0  0  0
 52 60  1  0  0  0  0
 53 61  1  0  0  0  0
 54 61  1  0  0  0  0
 55 61  1  0  0  0  0
 56 73  1  0  0  0  0
 57 60  1  0  0  0  0
 58 61  1  0  0  0  0
 58 72  1  0  0  0  0
 59 73  1  0  0  0  0
 60 81  1  0  0  0  0
 62 64  1  0  0  0  0
M  CHG  1  73   1
M  ISO  4  38 100  60 101  70 100  81 101
M  END
> <Batch ID>
0179

> <Smiles>
CNC(C)C(=O)NC(C(=O)N1Cc2cc([101O:1][101CH:1](C)CC(=O)C=Cc3nc([100NH:0][100C:0](=O)N4CCCC(n5nc(-c6ccc(Oc7ccc(F)cc7F)cc6)c(C(N)=O)c5N)C4)sc3N)ccc2CC1C(=O)NC1CCCc2ccccc21)C(C)(C)C

> <Shape>
0.307

> <Color>
0.088

> <Negative vol penalty>
0.000

$$$$

  -OEChem-04052304473D

 87 95  0     1  0  0  0  0  0999 V2000
  -30.9865  -35.5688   20.6420 C   0  0  0  0  0  0  0  0  0  0  0  0
  -30.7427  -34.2832   20.1697 C   0  0  0  0  0  0  0  0  0  0  0  0
  -23.9601   -9.3995   22.5864 C   0  0  0  0  0  0  0  0  0  0  0  0
  -23.5742   -9.7438   20.2264 C   0  0  0  0  0  0  0  0  0  0  0  0
  -30.4883  -35.9601   21.8840 C   0  0  0  0  0  0  0  0  0  0  0  0
  -30.0014  -33.3876   20.9398 C   0  0  0  0  0  0  0  0  0  0  0  0
  -26.1335  -29.1010   18.8977 C   0  0  0  0  0  0  0  0  0  0  0  0
  -22.9916   -8.3957   22.5983 C   0  0  0  0  0  0  0  0  0  0  0  0
  -22.6058   -8.7400   20.2382 C   0  0  0  0  0  0  0  0  0  0  0  0
  -26.2784  -27.7304   18.6873 C   0  0  0  0  0  0  0  0  0  0  0  0
  -22.7639   -5.1433   21.7023 C   0  0  0  0  0  0  0  0  0  0  0  0
  -23.0670   -3.9581   22.3723 C   0  0  0  0  0  0  0  0  0  0  0  0
  -25.3199  -27.3018   20.8592 C   0  0  0  0  0  0  0  0  0  0  0  0
  -21.1813   -4.3067   23.8419 C   0  0  0  0  0  0  0  0  0  0  0  0
  -29.7492  -17.0241   17.8775 C   0  0  0  0  0  0  0  0  0  0  0  0
  -24.2514  -10.0736   21.4004 C   0  0  0  0  0  0  0  0  0  0  0  0
  -26.6289  -10.9607   21.1403 C   0  0  0  0  0  0  0  0  0  0  0  0
  -29.7323  -35.0721   22.6654 C   0  0  0  0  0  0  0  0  0  0  0  0
  -25.5899  -29.5835   20.0969 C   0  0  0  0  0  0  0  0  0  0  0  0
  -29.4937  -33.7670   22.1940 C   0  0  0  0  0  0  0  0  0  0  0  0
  -25.1668  -28.6789   21.0813 C   0  0  0  0  0  0  0  0  0  0  0  0
  -22.3145   -8.0660   21.4242 C   0  0  0  0  0  0  0  0  0  0  0  0
  -25.8743  -26.8307   19.6693 C   0  0  0  0  0  0  0  0  0  0  0  0
  -21.6696   -5.9103   22.1021 C   0  0  0  0  0  0  0  0  0  0  0  0
  -22.2756   -3.5397   23.4421 C   0  0  0  0  0  0  0  0  0  0  0  0
  -20.8783   -5.4920   23.1719 C   0  0  0  0  0  0  0  0  0  0  0  0
  -30.7946  -17.6705   17.2274 C   0  0  0  0  0  0  0  0  0  0  0  0
  -30.9557  -19.0435   17.3768 C   0  0  0  0  0  0  0  0  0  0  0  0
  -25.2512  -11.1110   21.3876 C   0  0  0  0  0  0  0  0  0  0  0  0
  -30.0517  -19.7189   18.1808 C   0  0  0  0  0  0  0  0  0  0  0  0
  -28.8993  -17.7899   18.6593 C   0  0  0  0  0  0  0  0  0  0  0  0
  -27.1368  -12.2328   21.2420 C   0  0  0  0  0  0  0  0  0  0  0  0
  -27.2731  -25.0030   19.2530 C   0  0  0  0  0  0  0  0  0  1  0  0
  -27.3823   -9.7771   20.8449 C   0  0  0  0  0  0  0  0  0  0  0  0
  -30.1567  -21.1782   18.3851 C   0  0  0  0  0  0  0  0  0  0  0  0
  -27.5277  -23.7066   19.0431 C   0  0  0  0  0  0  0  0  0  0  0  0
  -28.9326  -23.2902   18.8211 C   0  0  0  0  0  0  0  0  0  0  0  0
  -26.6545  -31.4179   22.4645 C   0  0  0  0  0  0  0  0  0  0  0  0
  -23.5896  -31.1858   23.5012 C   0  0  0  0  0  0  0  0  0  0  0  0
  -20.6577  -29.4391   23.5077 C   0  0  0  0  0  0  0  0  0  0  0  0
  -26.8700  -17.6859   20.1483 C   0  0  0  0  0  0  0  0  0  0  0  0
  -29.2547  -35.5251   24.0224 C   0  0  0  0  0  0  0  0  0  0  0  0
  -25.4156  -31.0640   20.2975 C   0  0  0  0  0  0  0  0  0  0  0  0
  -24.5585  -29.1450   22.3778 C   0  0  0  0  0  0  0  0  0  0  0  0
  -28.1607  -34.6377   24.6106 C   0  0  0  0  0  0  0  0  0  0  0  0
  -25.0142  -16.5004   22.9461 C   0  0  0  0  0  0  0  0  0  0  0  0
  -28.5320  -33.1654   24.4653 C   0  0  0  0  0  0  0  0  0  0  0  0
  -25.0237  -14.9802   22.7697 C   0  0  0  0  0  0  0  0  0  0  0  0
  -24.9106  -17.2262   21.6059 C   0  0  0  0  0  0  0  0  0  0  0  0
  -25.9219  -15.3117   20.4308 C   0  0  0  0  0  0  0  0  0  0  0  0
  -28.6729  -32.7750   22.9891 C   0  0  1  0  0  0  0  0  0  0  0  0
  -25.3240  -31.4611   21.7676 C   0  0  1  0  0  0  0  0  0  0  0  0
  -26.0904  -14.5381   21.7488 C   0  0  2  0  0  0  0  0  0  0  0  0
  -18.3437  -29.4779   24.4780 C   0  0  0  0  0  0  0  0  0  0  0  0
  -24.6996  -30.2368   26.1803 C   0  0  0  0  0  0  0  0  0  0  0  0
  -22.4098  -29.4031   26.7547 C   0  0  0  0  0  0  0  0  0  0  0  0
  -22.7847  -31.8362   26.3521 C   0  0  0  0  0  0  0  0  0  0  0  0
  -19.4117  -29.6041   20.8284 C   0  0  0  0  0  0  0  0  0  0  0  0
  -22.8330  -30.2345   24.3965 C   0  0  1  0  0  0  0  0  0  0  0  0
  -19.2204  -29.8827   23.3031 C   0  0  2  0  0  0  0  0  0  0  0  0
  -23.1950  -30.4186   25.8974 C   0  0  0  0  0  0  0  0  0  0  0  0
  -24.9058  -12.3785   21.6285 N   0  0  0  0  0  0  0  0  0  0  0  0
  -29.0240  -19.1254   18.8282 N   0  0  0  0  0  0  0  0  0  0  0  0
  -26.0738  -13.0363   21.5331 N   0  0  0  0  0  0  0  0  0  0  0  0
  -24.4149  -30.6024   22.5294 N   0  0  0  0  0  0  0  0  0  0  0  0
  -25.9549  -16.7594   20.6914 N   0  0  0  0  0  0  0  0  0  0  0  0
  -28.3844  -12.7313   21.1100 N   0  0  0  0  0  0  0  0  0  0  0  0
  -26.7037   -8.5526   20.7779 N   0  0  0  0  0  0  0  0  0  0  0  0
  -27.8379  -17.1214   19.3182 N   0  0  0  0  0  0  0  0  0  0  0  0
  -29.0294  -21.8669   18.6121 N   0  0  0  0  0  0  0  0  0  0  0  0
  -27.3691  -32.5980   22.3865 N   0  0  0  0  0  0  0  0  0  0  0  0
  -21.4187  -30.4277   24.0949 N   0  0  0  0  0  0  0  0  0  0  0  0
  -31.3703  -21.7262   18.3336 N   0  3  0  0  0  0  0  0  0  0  0  0
  -18.6603  -29.2698   22.0656 N   0  3  0  0  0  0  0  0  0  0  0  0
  -28.6231   -9.8022   20.6624 O   0  0  0  0  0  0  0  0  0  0  0  0
  -29.9059  -24.0258   18.8100 O   0  0  0  0  0  0  0  0  0  0  0  0
  -27.0060  -30.3904   23.0323 O   0  0  0  0  0  0  0  0  0  0  0  0
  -23.4479  -32.4016   23.6537 O   0  0  0  0  0  0  0  0  0  0  0  0
  -21.0638  -28.3255   23.1828 O   0  0  0  0  0  0  0  0  0  0  0  0
  -26.8168  -18.8875   20.4227 O   0  0  0  0  0  0  0  0  0  0  0  0
  -26.5453  -22.7412   19.0234 O   0  0  0  0  0  0  0  0  0  0  0  0
  -21.3696   -7.0864   21.4354 O   0  0  0  0  0  0  0  0  0  0  0  0
  -26.0152  -25.4924   19.4668 O   0  0  0  0  0  0  0  0  0  1  0  0
  -22.5659   -2.4007   24.0844 F   0  0  0  0  0  0  0  0  0  0  0  0
  -19.8249   -6.2240   23.5598 F   0  0  0  0  0  0  0  0  0  0  0  0
  -31.6427  -16.9737   16.4602 F   0  0  0  0  0  0  0  0  0  0  0  0
  -31.9555  -19.6837   16.7591 F   0  0  0  0  0  0  0  0  0  0  0  0
  1  2  1  0  0  0  0
  1  5  2  0  0  0  0
  2  6  2  0  0  0  0
  3  8  2  0  0  0  0
  3 16  1  0  0  0  0
  4  9  1  0  0  0  0
  4 16  2  0  0  0  0
  5 18  1  0  0  0  0
  6 20  1  0  0  0  0
  7 10  2  0  0  0  0
  7 19  1  0  0  0  0
  8 22  1  0  0  0  0
  9 22  2  0  0  0  0
 10 23  1  0  0  0  0
 11 12  2  0  0  0  0
 11 24  1  0  0  0  0
 12 25  1  0  0  0  0
 13 21  1  0  0  0  0
 13 23  2  0  0  0  0
 14 25  2  0  0  0  0
 14 26  1  0  0  0  0
 15 27  2  0  0  0  0
 15 31  1  0  0  0  0
 16 29  1  0  0  0  0
 17 29  1  0  0  0  0
 17 32  2  0  0  0  0
 17 34  1  0  0  0  0
 18 20  2  0  0  0  0
 18 42  1  0  0  0  0
 19 21  2  0  0  0  0
 19 43  1  0  0  0  0
 20 51  1  0  0  0  0
 21 44  1  0  0  0  0
 22 82  1  0  0  0  0
 23 83  1  0  0  0  0
 24 26  2  0  0  0  0
 24 82  1  0  0  0  0
 25 84  1  0  0  0  0
 26 85  1  0  0  0  0
 27 28  1  0  0  0  0
 27 86  1  0  0  0  0
 28 30  2  0  0  0  0
 28 87  1  0  0  0  0
 29 62  2  0  0  0  0
 30 35  1  0  0  0  0
 30 63  1  0  0  0  0
 31 63  2  0  0  0  0
 31 69  1  0  0  0  0
 32 64  1  0  0  0  0
 32 67  1  0  0  0  0
 33 36  2  0  0  0  0
 33 83  1  0  0  0  0
 34 68  1  0  0  0  0
 34 75  2  0  0  0  0
 35 70  1  0  0  0  0
 35 73  2  0  0  0  0
 36 37  1  0  0  0  0
 36 81  1  0  0  0  0
 37 70  1  0  0  0  0
 37 76  2  0  0  0  0
 38 52  1  0  0  0  0
 38 71  1  0  0  0  0
 38 77  2  0  0  0  0
 39 59  1  0  0  0  0
 39 65  1  0  0  0  0
 39 78  2  0  0  0  0
 40 60  1  0  0  0  0
 40 72  1  0  0  0  0
 40 79  2  0  0  0  0
 41 66  1  0  0  0  0
 41 69  1  0  0  0  0
 41 80  2  0  0  0  0
 42 45  1  0  0  0  0
 43 52  1  0  0  0  0
 44 65  1  0  0  0  0
 45 47  1  0  0  0  0
 46 48  1  0  0  0  0
 46 49  1  0  0  0  0
 47 51  1  0  0  0  0
 48 53  1  0  0  0  0
 49 66  1  0  0  0  0
 50 53  1  0  0  0  0
 50 66  1  0  0  0  0
 51 71  1  0  0  0  0
 52 65  1  0  0  0  0
 53 64  1  0  0  0  0
 54 60  1  0  0  0  0
 55 61  1  0  0  0  0
 56 61  1  0  0  0  0
 57 61  1  0  0  0  0
 58 74  1  0  0  0  0
 59 61  1  0  0  0  0
 59 72  1  0  0  0  0
 60 74  1  0  0  0  0
 62 64  1  0  0  0  0
M  CHG  2  73   1  74   1
M  ISO  4  33 101  41 100  69 100  83 101
M  END
> <Batch ID>
0179

> <Smiles>
CNC(C)C(=O)NC(C(=O)N1Cc2cc([101O:1][101CH2:1]C(=O)C(=O)NC(=N)c3nc([100NH:0][100C:0](=O)N4CCCC(n5nc(-c6ccc(Oc7ccc(F)cc7F)cc6)c(C(N)=O)c5N)C4)cc(F)c3F)ccc2CC1C(=O)NC1CCCc2ccccc21)C(C)(C)C

> <Shape>
0.275

> <Color>
0.098

> <Negative vol penalty>
0.000

$$$$

  -OEChem-04052304473D

 85 93  0     1  0  0  0  0  0999 V2000
  -22.6806  -35.0477   15.6741 C   0  0  0  0  0  0  0  0  0  0  0  0
  -23.3091  -33.8066   15.6736 C   0  0  0  0  0  0  0  0  0  0  0  0
  -24.6546   -9.2329   21.6159 C   0  0  0  0  0  0  0  0  0  0  0  0
  -23.1635  -10.1746   19.9645 C   0  0  0  0  0  0  0  0  0  0  0  0
  -22.8398  -35.9080   16.7597 C   0  0  0  0  0  0  0  0  0  0  0  0
  -24.0982  -33.4255   16.7583 C   0  0  0  0  0  0  0  0  0  0  0  0
  -24.7490  -27.7767   19.0329 C   0  0  0  0  0  0  0  0  0  0  0  0
  -23.6759   -8.3044   21.9702 C   0  0  0  0  0  0  0  0  0  0  0  0
  -22.1848   -9.2460   20.3188 C   0  0  0  0  0  0  0  0  0  0  0  0
  -25.7316  -26.8030   18.8592 C   0  0  0  0  0  0  0  0  0  0  0  0
  -22.4497   -5.3940   20.7623 C   0  0  0  0  0  0  0  0  0  0  0  0
  -22.8444   -4.0660   20.9242 C   0  0  0  0  0  0  0  0  0  0  0  0
  -26.8169  -27.5460   20.8814 C   0  0  0  0  0  0  0  0  0  0  0  0
  -22.0951   -4.1233   23.2204 C   0  0  0  0  0  0  0  0  0  0  0  0
  -24.3984  -10.1681   20.6130 C   0  0  0  0  0  0  0  0  0  0  0  0
  -26.4049  -10.9802   19.2632 C   0  0  0  0  0  0  0  0  0  0  0  0
  -23.6234  -35.5333   17.8625 C   0  0  0  0  0  0  0  0  0  0  0  0
  -24.7991  -28.6510   20.1282 C   0  0  0  0  0  0  0  0  0  0  0  0
  -24.2692  -34.2821   17.8590 C   0  0  0  0  0  0  0  0  0  0  0  0
  -25.8323  -28.5283   21.0681 C   0  0  0  0  0  0  0  0  0  0  0  0
  -22.4410   -8.3109   21.3216 C   0  0  0  0  0  0  0  0  0  0  0  0
  -26.7673  -26.6894   19.7819 C   0  0  0  0  0  0  0  0  0  0  0  0
  -21.8778   -6.0867   21.8295 C   0  0  0  0  0  0  0  0  0  0  0  0
  -22.6670   -3.4306   22.1532 C   0  0  0  0  0  0  0  0  0  0  0  0
  -21.7004   -5.4513   23.0585 C   0  0  0  0  0  0  0  0  0  0  0  0
  -25.4088  -11.1278   20.2470 C   0  0  0  0  0  0  0  0  0  0  0  0
  -29.2513  -19.6827   16.1580 C   0  0  0  0  0  0  0  0  0  0  0  0
  -27.1048  -12.1613   19.3033 C   0  0  0  0  0  0  0  0  0  0  0  0
  -29.1853  -18.7408   15.1528 C   0  0  0  0  0  0  0  0  0  0  0  0
  -28.2051  -18.0995   17.2576 C   0  0  0  0  0  0  0  0  0  0  0  0
  -26.6733   -9.8744   18.3909 C   0  0  0  0  0  0  0  0  0  0  0  0
  -29.8708  -21.0184   16.0139 C   0  0  0  0  0  0  0  0  0  0  0  0
  -29.8913  -21.9717   17.1694 C   0  0  0  0  0  0  0  0  0  0  0  0
  -25.0712  -31.7989   20.4750 C   0  0  0  0  0  0  0  0  0  0  0  0
  -28.7644  -23.9095   18.4116 C   0  0  0  0  0  0  0  0  0  0  0  0
  -24.5859  -31.1038   23.6061 C   0  0  0  0  0  0  0  0  0  0  0  0
  -24.7579  -28.8070   26.1244 C   0  0  0  0  0  0  0  0  0  0  0  0
  -27.2668  -17.7209   19.5647 C   0  0  0  0  0  0  0  0  0  0  0  0
  -23.8044  -36.5163   18.9919 C   0  0  0  0  0  0  0  0  0  0  0  0
  -23.7167  -29.6785   20.3158 C   0  0  0  0  0  0  0  0  0  0  0  0
  -25.9203  -29.4291   22.2720 C   0  0  0  0  0  0  0  0  0  0  0  0
  -24.3535  -35.8835   20.2680 C   0  0  0  0  0  0  0  0  0  0  0  0
  -26.9658  -15.9607   22.6450 C   0  0  0  0  0  0  0  0  0  0  0  0
  -25.5361  -34.9750   19.9472 C   0  0  0  0  0  0  0  0  0  0  0  0
  -26.6158  -14.5343   22.2148 C   0  0  0  0  0  0  0  0  0  0  0  0
  -26.3083  -17.0029   21.7420 C   0  0  0  0  0  0  0  0  0  0  0  0
  -26.2062  -15.3983   19.8754 C   0  0  0  0  0  0  0  0  0  0  0  0
  -25.1131  -33.8227   19.0281 C   0  0  1  0  0  0  0  0  0  0  0  0
  -24.1508  -30.8507   21.1903 C   0  0  1  0  0  0  0  0  0  0  0  0
  -26.8979  -14.3126   20.7159 C   0  0  2  0  0  0  0  0  0  0  0  0
  -24.3280  -28.5431   28.5826 C   0  0  0  0  0  0  0  0  0  0  0  0
  -27.1427  -32.6529   24.2171 C   0  0  0  0  0  0  0  0  0  0  0  0
  -27.1744  -31.5730   26.4757 C   0  0  0  0  0  0  0  0  0  0  0  0
  -25.2717  -33.0507   25.8282 C   0  0  0  0  0  0  0  0  0  0  0  0
  -22.7400  -26.6919   25.6624 C   0  0  0  0  0  0  0  0  0  0  0  0
  -28.7586  -22.9631   17.2282 C   0  0  0  0  0  0  0  0  0  0  0  0
  -27.6131  -24.8946   18.4707 C   0  0  0  0  0  0  0  0  0  1  0  0
  -25.4768  -30.7611   24.7757 C   0  0  1  0  0  0  0  0  0  0  0  0
  -23.7508  -28.3960   27.1833 C   0  0  2  0  0  0  0  0  0  0  0  0
  -26.2661  -31.9936   25.3005 C   0  0  0  0  0  0  0  0  0  0  0  0
  -25.4675  -12.3094   20.8670 N   0  0  0  0  0  0  0  0  0  0  0  0
  -28.6894  -19.3169   17.3656 N   0  0  0  0  0  0  0  0  0  0  0  0
  -26.5089  -12.9150   20.2713 N   0  0  0  0  0  0  0  0  0  0  0  0
  -24.8418  -30.4220   22.4080 N   0  0  0  0  0  0  0  0  0  0  0  0
  -26.6229  -16.7316   20.3376 N   0  0  0  0  0  0  0  0  0  0  0  0
  -28.1658  -12.6182   18.6048 N   0  0  0  0  0  0  0  0  0  0  0  0
  -29.6503  -18.8338   13.8827 N   0  0  0  0  0  0  0  0  0  0  0  0
  -25.8571   -8.7387   18.4814 N   0  0  0  0  0  0  0  0  0  0  0  0
  -27.5443  -17.3376   18.2529 N   0  0  0  0  0  0  0  0  0  0  0  0
  -24.4190  -32.8021   19.7838 N   0  0  0  0  0  0  0  0  0  0  0  0
  -24.6173  -30.1330   25.7732 N   0  0  0  0  0  0  0  0  0  0  0  0
  -23.3457  -26.9750   26.9891 N   0  3  0  0  0  0  0  0  0  0  0  0
  -27.6194   -9.8865   17.5674 O   0  0  0  0  0  0  0  0  0  0  0  0
  -30.4014  -21.4032   14.9824 O   0  0  0  0  0  0  0  0  0  0  0  0
  -30.8444  -21.9073   17.9302 O   0  0  0  0  0  0  0  0  0  0  0  0
  -26.2833  -31.6335   20.5462 O   0  0  0  0  0  0  0  0  0  0  0  0
  -29.6265  -23.8710   19.2879 O   0  0  0  0  0  0  0  0  0  0  0  0
  -23.6912  -31.9403   23.7522 O   0  0  0  0  0  0  0  0  0  0  0  0
  -25.5888  -28.0306   25.6583 O   0  0  0  0  0  0  0  0  0  0  0  0
  -27.5756  -18.8167   20.0399 O   0  0  0  0  0  0  0  0  0  0  0  0
  -21.4858   -7.4049   21.6669 O   0  0  0  0  0  0  0  0  0  0  0  0
  -27.7281  -25.7403   19.6143 O   0  0  0  0  0  0  0  0  0  1  0  0
  -23.0447   -2.1548   22.3081 F   0  0  0  0  0  0  0  0  0  0  0  0
  -21.1505   -6.1112   24.0870 F   0  0  0  0  0  0  0  0  0  0  0  0
  -28.3912  -17.3355   15.7323 S   0  0  0  0  0  0  0  0  0  0  0  0
  1  2  1  0  0  0  0
  1  5  2  0  0  0  0
  2  6  2  0  0  0  0
  3  8  2  0  0  0  0
  3 15  1  0  0  0  0
  4  9  1  0  0  0  0
  4 15  2  0  0  0  0
  5 17  1  0  0  0  0
  6 19  1  0  0  0  0
  7 10  2  0  0  0  0
  7 18  1  0  0  0  0
  8 21  1  0  0  0  0
  9 21  2  0  0  0  0
 10 22  1  0  0  0  0
 11 12  2  0  0  0  0
 11 23  1  0  0  0  0
 12 24  1  0  0  0  0
 13 20  1  0  0  0  0
 13 22  2  0  0  0  0
 14 24  2  0  0  0  0
 14 25  1  0  0  0  0
 15 26  1  0  0  0  0
 16 26  1  0  0  0  0
 16 28  2  0  0  0  0
 16 31  1  0  0  0  0
 17 19  2  0  0  0  0
 17 39  1  0  0  0  0
 18 20  2  0  0  0  0
 18 40  1  0  0  0  0
 19 48  1  0  0  0  0
 20 41  1  0  0  0  0
 21 81  1  0  0  0  0
 22 82  1  0  0  0  0
 23 25  2  0  0  0  0
 23 81  1  0  0  0  0
 24 83  1  0  0  0  0
 25 84  1  0  0  0  0
 26 61  2  0  0  0  0
 27 29  2  0  0  0  0
 27 32  1  0  0  0  0
 27 62  1  0  0  0  0
 28 63  1  0  0  0  0
 28 66  1  0  0  0  0
 29 67  1  0  0  0  0
 29 85  1  0  0  0  0
 30 62  2  0  0  0  0
 30 69  1  0  0  0  0
 30 85  1  0  0  0  0
 31 68  1  0  0  0  0
 31 73  2  0  0  0  0
 32 33  1  0  0  0  0
 32 74  2  0  0  0  0
 33 56  1  0  0  0  0
 33 75  2  0  0  0  0
 34 49  1  0  0  0  0
 34 70  1  0  0  0  0
 34 76  2  0  0  0  0
 35 56  1  0  0  0  0
 35 57  1  0  0  0  0
 35 77  2  0  0  0  0
 36 58  1  0  0  0  0
 36 64  1  0  0  0  0
 36 78  2  0  0  0  0
 37 59  1  0  0  0  0
 37 71  1  0  0  0  0
 37 79  2  0  0  0  0
 38 65  1  0  0  0  0
 38 69  1  0  0  0  0
 38 80  2  0  0  0  0
 39 42  1  0  0  0  0
 40 49  1  0  0  0  0
 41 64  1  0  0  0  0
 42 44  1  0  0  0  0
 43 45  1  0  0  0  0
 43 46  1  0  0  0  0
 44 48  1  0  0  0  0
 45 50  1  0  0  0  0
 46 65  1  0  0  0  0
 47 50  1  0  0  0  0
 47 65  1  0  0  0  0
 48 70  1  0  0  0  0
 49 64  1  0  0  0  0
 50 63  1  0  0  0  0
 51 59  1  0  0  0  0
 52 60  1  0  0  0  0
 53 60  1  0  0  0  0
 54 60  1  0  0  0  0
 55 72  1  0  0  0  0
 57 82  1  0  0  0  0
 58 60  1  0  0  0  0
 58 71  1  0  0  0  0
 59 72  1  0  0  0  0
 61 63  1  0  0  0  0
M  CHG  1  72   1
M  ISO  4  38 100  57 101  69 100  82 101
M  END
> <Batch ID>
0179

> <Smiles>
CNC(C)C(=O)NC(C(=O)N1Cc2cc([101O:1][101CH2:1]C(=O)CC(=O)C(=O)c3nc([100NH:0][100C:0](=O)N4CCCC(n5nc(-c6ccc(Oc7ccc(F)cc7F)cc6)c(C(N)=O)c5N)C4)sc3N)ccc2CC1C(=O)NC1CCCc2ccccc21)C(C)(C)C

> <Shape>
0.264

> <Color>
0.100

> <Negative vol penalty>
0.000

$$$$

  -OEChem-04052304473D

 85 93  0     1  0  0  0  0  0999 V2000
  -28.0173  -32.9255   26.4837 C   0  0  0  0  0  0  0  0  0  0  0  0
  -28.1473  -31.7668   25.7248 C   0  0  0  0  0  0  0  0  0  0  0  0
  -24.4899   -9.6106   21.5336 C   0  0  0  0  0  0  0  0  0  0  0  0
  -23.0689  -11.5349   21.1944 C   0  0  0  0  0  0  0  0  0  0  0  0
  -26.7520  -33.3671   26.8686 C   0  0  0  0  0  0  0  0  0  0  0  0
  -27.0120  -31.0483   25.3513 C   0  0  0  0  0  0  0  0  0  0  0  0
  -27.1276  -29.6204   20.4941 C   0  0  0  0  0  0  0  0  0  0  0  0
  -23.5877   -9.1098   22.4721 C   0  0  0  0  0  0  0  0  0  0  0  0
  -22.1667  -11.0341   22.1329 C   0  0  0  0  0  0  0  0  0  0  0  0
  -27.9210  -28.5200   20.1726 C   0  0  0  0  0  0  0  0  0  0  0  0
  -20.6244   -7.4814   22.4565 C   0  0  0  0  0  0  0  0  0  0  0  0
  -20.2931   -6.1287   22.3796 C   0  0  0  0  0  0  0  0  0  0  0  0
  -25.9581  -27.1178   20.1540 C   0  0  0  0  0  0  0  0  0  0  0  0
  -28.4195  -19.6833   19.5787 C   0  0  0  0  0  0  0  0  0  0  0  0
  -21.1483   -5.7922   24.6140 C   0  0  0  0  0  0  0  0  0  0  0  0
  -24.2306  -10.8232   20.8948 C   0  0  0  0  0  0  0  0  0  0  0  0
  -25.1679  -11.1011   18.5386 C   0  0  0  0  0  0  0  0  0  0  0  0
  -25.6001  -32.6590   26.4914 C   0  0  0  0  0  0  0  0  0  0  0  0
  -25.7426  -29.4754   20.6589 C   0  0  0  0  0  0  0  0  0  0  0  0
  -25.7303  -31.4801   25.7327 C   0  0  0  0  0  0  0  0  0  0  0  0
  -25.1490  -28.2184   20.4751 C   0  0  0  0  0  0  0  0  0  0  0  0
  -27.6985  -20.8857   19.3250 C   0  0  0  0  0  0  0  0  0  0  0  0
  -22.4260   -9.8215   22.7717 C   0  0  0  0  0  0  0  0  0  0  0  0
  -27.3367  -27.2679   20.0054 C   0  0  0  0  0  0  0  0  0  0  0  0
  -21.2177   -7.9895   23.6121 C   0  0  0  0  0  0  0  0  0  0  0  0
  -20.5550   -5.2840   23.4583 C   0  0  0  0  0  0  0  0  0  0  0  0
  -21.4797   -7.1449   24.6909 C   0  0  0  0  0  0  0  0  0  0  0  0
  -25.1625  -11.3414   19.9257 C   0  0  0  0  0  0  0  0  0  0  0  0
  -26.3455  -20.6606   19.1969 C   0  0  0  0  0  0  0  0  0  0  0  0
  -26.2443  -11.8146   18.0708 C   0  0  0  0  0  0  0  0  0  0  0  0
  -27.5899  -18.5848   19.6350 C   0  0  0  0  0  0  0  0  0  0  0  0
  -25.2903  -21.5897   18.9428 C   0  0  0  0  0  0  0  0  0  0  0  0
  -24.2794  -10.3044   17.7440 C   0  0  0  0  0  0  0  0  0  0  0  0
  -29.8957  -23.9353   19.1514 C   0  0  0  0  0  0  0  0  0  0  0  0
  -29.6328  -22.4670   19.3236 C   0  0  0  0  0  0  0  0  0  0  0  0
  -23.7130  -29.9059   23.0671 C   0  0  0  0  0  0  0  0  0  0  0  0
  -21.4880  -29.2791   20.7914 C   0  0  0  0  0  0  0  0  0  0  0  0
  -20.7361  -27.8233   17.7977 C   0  0  0  0  0  0  0  0  0  0  0  0
  -29.1295  -16.6429   20.0879 C   0  0  0  0  0  0  0  0  0  0  0  0
  -24.2570  -33.1493   26.9712 C   0  0  0  0  0  0  0  0  0  0  0  0
  -24.8971  -30.6775   20.9794 C   0  0  0  0  0  0  0  0  0  0  0  0
  -23.6640  -28.0137   20.6209 C   0  0  0  0  0  0  0  0  0  0  0  0
  -23.0798  -32.5359   26.2173 C   0  0  0  0  0  0  0  0  0  0  0  0
  -30.5383  -13.4390   19.4337 C   0  0  0  0  0  0  0  0  0  0  0  0
  -23.2575  -31.0266   26.0868 C   0  0  0  0  0  0  0  0  0  0  0  0
  -29.3196  -12.5167   19.3533 C   0  0  0  0  0  0  0  0  0  0  0  0
  -30.3602  -14.5229   20.4954 C   0  0  0  0  0  0  0  0  0  0  0  0
  -27.9083  -14.3889   20.2968 C   0  0  0  0  0  0  0  0  0  0  0  0
  -24.5210  -30.6869   25.2870 C   0  0  1  0  0  0  0  0  0  0  0  0
  -23.5651  -30.3151   21.6289 C   0  0  1  0  0  0  0  0  0  0  0  0
  -28.0139  -13.3205   19.1963 C   0  0  2  0  0  0  0  0  0  0  0  0
  -18.8254  -27.4464   16.2152 C   0  0  0  0  0  0  0  0  0  0  0  0
  -20.3808  -27.1234   22.6454 C   0  0  0  0  0  0  0  0  0  0  0  0
  -19.1415  -26.1745   20.6878 C   0  0  0  0  0  0  0  0  0  0  0  0
  -18.6413  -28.4878   21.4762 C   0  0  0  0  0  0  0  0  0  0  0  0
  -22.0963  -29.2970   15.6213 C   0  0  0  0  0  0  0  0  0  0  0  0
  -29.9098  -24.7677   20.4147 C   0  0  0  0  0  0  0  0  0  0  0  0
  -29.4545  -26.1980   20.1674 C   0  0  0  0  0  0  0  0  0  1  0  0
  -20.8154  -28.0329   20.2684 C   0  0  1  0  0  0  0  0  0  0  0  0
  -19.9950  -28.3470   16.5809 C   0  0  2  0  0  0  0  0  0  0  0  0
  -19.7730  -27.4578   21.2685 C   0  0  0  0  0  0  0  0  0  0  0  0
  -26.1566  -12.1445   20.3138 N   0  0  0  0  0  0  0  0  0  0  0  0
  -25.4628  -22.8828   18.7825 N   0  0  0  0  0  0  0  0  0  0  0  0
  -26.7969  -12.4151   19.1636 N   0  0  0  0  0  0  0  0  0  0  0  0
  -22.8807  -29.2185   20.9411 N   0  0  0  0  0  0  0  0  0  0  0  0
  -29.1045  -15.2454   20.2807 N   0  0  0  0  0  0  0  0  0  0  0  0
  -26.7627  -11.9805   16.8354 N   0  0  0  0  0  0  0  0  0  0  0  0
  -23.2257   -9.6383   18.3846 N   0  0  0  0  0  0  0  0  0  0  0  0
  -28.2926  -22.1646   19.2157 N   0  0  0  0  0  0  0  0  0  0  0  0
  -27.8787  -17.2160   19.8607 N   0  0  0  0  0  0  0  0  0  0  0  0
  -24.2877  -30.8720   23.8707 N   0  0  0  0  0  0  0  0  0  0  0  0
  -20.2622  -28.3840   18.9649 N   0  0  0  0  0  0  0  0  0  0  0  0
  -20.9126  -28.4247   15.4092 N   0  3  0  0  0  0  0  0  0  0  0  0
  -24.4255  -10.1734   16.5050 O   0  0  0  0  0  0  0  0  0  0  0  0
  -30.0877  -24.3397   18.0147 O   0  0  0  0  0  0  0  0  0  0  0  0
  -30.6069  -21.7552   19.5037 O   0  0  0  0  0  0  0  0  0  0  0  0
  -23.3325  -28.7963   23.4217 O   0  0  0  0  0  0  0  0  0  0  0  0
  -20.8037  -30.2722   21.0506 O   0  0  0  0  0  0  0  0  0  0  0  0
  -21.6422  -26.9964   17.7209 O   0  0  0  0  0  0  0  0  0  0  0  0
  -30.1858  -17.2801   20.0948 O   0  0  0  0  0  0  0  0  0  0  0  0
  -21.5453   -9.3329   23.6873 O   0  0  0  0  0  0  0  0  0  0  0  0
  -28.1089  -26.1920   19.6923 O   0  0  0  0  0  0  0  0  0  1  0  0
  -20.2354   -3.9853   23.3849 F   0  0  0  0  0  0  0  0  0  0  0  0
  -22.0484   -7.6276   25.8042 F   0  0  0  0  0  0  0  0  0  0  0  0
  -25.9493  -19.0050   19.3824 S   0  0  0  0  0  0  0  0  0  0  0  0
  1  2  1  0  0  0  0
  1  5  2  0  0  0  0
  2  6  2  0  0  0  0
  3  8  2  0  0  0  0
  3 16  1  0  0  0  0
  4  9  1  0  0  0  0
  4 16  2  0  0  0  0
  5 18  1  0  0  0  0
  6 20  1  0  0  0  0
  7 10  2  0  0  0  0
  7 19  1  0  0  0  0
  8 23  1  0  0  0  0
  9 23  2  0  0  0  0
 10 24  1  0  0  0  0
 11 12  2  0  0  0  0
 11 25  1  0  0  0  0
 12 26  1  0  0  0  0
 13 21  1  0  0  0  0
 13 24  2  0  0  0  0
 14 22  1  0  0  0  0
 14 31  2  0  0  0  0
 15 26  2  0  0  0  0
 15 27  1  0  0  0  0
 16 28  1  0  0  0  0
 17 28  1  0  0  0  0
 17 30  2  0  0  0  0
 17 33  1  0  0  0  0
 18 20  2  0  0  0  0
 18 40  1  0  0  0  0
 19 21  2  0  0  0  0
 19 41  1  0  0  0  0
 20 49  1  0  0  0  0
 21 42  1  0  0  0  0
 22 29  2  0  0  0  0
 22 69  1  0  0  0  0
 23 81  1  0  0  0  0
 24 82  1  0  0  0  0
 25 27  2  0  0  0  0
 25 81  1  0  0  0  0
 26 83  1  0  0  0  0
 27 84  1  0  0  0  0
 28 62  2  0  0  0  0
 29 32  1  0  0  0  0
 29 85  1  0  0  0  0
 30 64  1  0  0  0  0
 30 67  1  0  0  0  0
 31 70  1  0  0  0  0
 31 85  1  0  0  0  0
 32 63  2  0  0  0  0
 33 68  1  0  0  0  0
 33 74  2  0  0  0  0
 34 35  1  0  0  0  0
 34 57  1  0  0  0  0
 34 75  2  0  0  0  0
 35 69  1  0  0  0  0
 35 76  2  0  0  0  0
 36 50  1  0  0  0  0
 36 71  1  0  0  0  0
 36 77  2  0  0  0  0
 37 59  1  0  0  0  0
 37 65  1  0  0  0  0
 37 78  2  0  0  0  0
 38 60  1  0  0  0  0
 38 72  1  0  0  0  0
 38 79  2  0  0  0  0
 39 66  1  0  0  0  0
 39 70  1  0  0  0  0
 39 80  2  0  0  0  0
 40 43  1  0  0  0  0
 41 50  1  0  0  0  0
 42 65  1  0  0  0  0
 43 45  1  0  0  0  0
 44 46  1  0  0  0  0
 44 47  1  0  0  0  0
 45 49  1  0  0  0  0
 46 51  1  0  0  0  0
 47 66  1  0  0  0  0
 48 51  1  0  0  0  0
 48 66  1  0  0  0  0
 49 71  1  0  0  0  0
 50 65  1  0  0  0  0
 51 64  1  0  0  0  0
 52 60  1  0  0  0  0
 53 61  1  0  0  0  0
 54 61  1  0  0  0  0
 55 61  1  0  0  0  0
 56 73  1  0  0  0  0
 57 58  1  0  0  0  0
 58 82  1  0  0  0  0
 59 61  1  0  0  0  0
 59 72  1  0  0  0  0
 60 73  1  0  0  0  0
 62 64  1  0  0  0  0
M  CHG  1  73   1
M  ISO  4  39 100  58 101  70 100  82 101
M  END
> <Batch ID>
0179

> <Smiles>
CNC(C)C(=O)NC(C(=O)N1Cc2cc([101O:1][101CH2:1]CC(=O)C(=O)Nc3cc([100NH:0][100C:0](=O)N4CCCC(n5nc(-c6ccc(Oc7ccc(F)cc7F)cc6)c(C(N)=O)c5N)C4)sc3C=N)ccc2CC1C(=O)NC1CCCc2ccccc21)C(C)(C)C

> <Shape>
0.343

> <Color>
0.091

> <Negative vol penalty>
0.000

$$$$

  -OEChem-04052304473D

 85 93  0     1  0  0  0  0  0999 V2000
  -23.4171  -23.5640   21.4351 C   0  0  0  0  0  0  0  0  0  0  0  0
  -24.5436  -22.7532   21.5302 C   0  0  0  0  0  0  0  0  0  0  0  0
  -22.0637  -28.5691   21.0067 C   0  0  0  0  0  0  0  0  0  0  0  0
  -23.3433  -28.0440   22.9876 C   0  0  0  0  0  0  0  0  0  0  0  0
  -22.1676  -23.0649   21.8005 C   0  0  0  0  0  0  0  0  0  0  0  0
  -24.4214  -21.4432   21.9919 C   0  0  0  0  0  0  0  0  0  0  0  0
  -27.0361  -18.1407   19.1809 C   0  0  0  0  0  0  0  0  0  0  0  0
  -20.8811  -28.4212   21.7313 C   0  0  0  0  0  0  0  0  0  0  0  0
  -22.1606  -27.8961   23.7123 C   0  0  0  0  0  0  0  0  0  0  0  0
  -28.4133  -18.0779   19.3887 C   0  0  0  0  0  0  0  0  0  0  0  0
  -19.0647  -30.2352   23.9319 C   0  0  0  0  0  0  0  0  0  0  0  0
  -18.0761  -31.2048   23.7642 C   0  0  0  0  0  0  0  0  0  0  0  0
  -28.1115  -16.1120   20.7537 C   0  0  0  0  0  0  0  0  0  0  0  0
  -16.5450  -29.5082   22.9805 C   0  0  0  0  0  0  0  0  0  0  0  0
  -23.2948  -28.3805   21.6348 C   0  0  0  0  0  0  0  0  0  0  0  0
  -25.2672  -29.7112   20.7147 C   0  0  0  0  0  0  0  0  0  0  0  0
  -22.0286  -21.7450   22.2578 C   0  0  0  0  0  0  0  0  0  0  0  0
  -26.1838  -17.1945   19.7678 C   0  0  0  0  0  0  0  0  0  0  0  0
  -23.1691  -20.9264   22.3651 C   0  0  0  0  0  0  0  0  0  0  0  0
  -26.7241  -16.1635   20.5497 C   0  0  0  0  0  0  0  0  0  0  0  0
  -20.9295  -28.0847   23.0841 C   0  0  0  0  0  0  0  0  0  0  0  0
  -28.9509  -17.0651   20.1776 C   0  0  0  0  0  0  0  0  0  0  0  0
  -18.7934  -28.9021   23.6238 C   0  0  0  0  0  0  0  0  0  0  0  0
  -16.8162  -30.8413   23.2885 C   0  0  0  0  0  0  0  0  0  0  0  0
  -17.5336  -28.5386   23.1481 C   0  0  0  0  0  0  0  0  0  0  0  0
  -24.5168  -28.5326   20.8867 C   0  0  0  0  0  0  0  0  0  0  0  0
  -32.2421  -22.6082   21.7184 C   0  0  0  0  0  0  0  0  0  0  0  0
  -26.3282  -29.3312   19.9296 C   0  0  0  0  0  0  0  0  0  0  0  0
  -31.9207  -23.1554   22.9429 C   0  0  0  0  0  0  0  0  0  0  0  0
  -30.4405  -23.7090   21.1250 C   0  0  0  0  0  0  0  0  0  0  0  0
  -25.0266  -31.0314   21.2195 C   0  0  0  0  0  0  0  0  0  0  0  0
  -32.2280  -18.1251   21.2533 C   0  0  0  0  0  0  0  0  0  0  0  0
  -32.6992  -19.3882   21.9126 C   0  0  0  0  0  0  0  0  0  0  0  0
  -23.7979  -17.3199   21.8643 C   0  0  0  0  0  0  0  0  0  0  0  0
  -23.5135  -14.1707   21.1404 C   0  0  0  0  0  0  0  0  0  0  0  0
  -24.9876  -11.3204   19.9787 C   0  0  0  0  0  0  0  0  0  0  0  0
  -29.0823  -24.1035   19.0402 C   0  0  0  0  0  0  0  0  0  0  0  0
  -20.6644  -21.2650   22.6861 C   0  0  0  0  0  0  0  0  0  0  0  0
  -24.7031  -17.2605   19.5121 C   0  0  0  0  0  0  0  0  0  0  0  0
  -25.8541  -15.1113   21.1857 C   0  0  0  0  0  0  0  0  0  0  0  0
  -20.5643  -19.7468   22.8106 C   0  0  0  0  0  0  0  0  0  0  0  0
  -27.5463  -26.1495   16.5640 C   0  0  0  0  0  0  0  0  0  0  0  0
  -21.7625  -19.1937   23.5755 C   0  0  0  0  0  0  0  0  0  0  0  0
  -26.6680  -27.1041   17.3763 C   0  0  0  0  0  0  0  0  0  0  0  0
  -27.5751  -24.7487   17.1729 C   0  0  0  0  0  0  0  0  0  0  0  0
  -27.0612  -25.6516   19.4067 C   0  0  0  0  0  0  0  0  0  0  0  0
  -23.0734  -19.4920   22.8379 C   0  0  1  0  0  0  0  0  0  0  0  0
  -23.8799  -16.5456   20.5792 C   0  0  1  0  0  0  0  0  0  0  0  0
  -27.0529  -27.0918   18.8687 C   0  0  2  0  0  0  0  0  0  0  0  0
  -34.3689  -22.3052   20.3853 C   0  0  0  0  0  0  0  0  0  0  0  0
  -24.5130   -8.8959   19.5383 C   0  0  0  0  0  0  0  0  0  0  0  0
  -23.6878  -13.5957   24.1319 C   0  0  0  0  0  0  0  0  0  0  0  0
  -24.1639  -11.2020   23.5733 C   0  0  0  0  0  0  0  0  0  0  0  0
  -21.9912  -12.2288   22.9040 C   0  0  0  0  0  0  0  0  0  0  0  0
  -25.5512  -11.6154   17.0883 C   0  0  0  0  0  0  0  0  0  0  0  0
  -31.0125  -18.2351   20.3700 C   0  0  0  0  0  0  0  0  0  1  0  0
  -33.4215  -21.7068   21.4231 C   0  0  2  0  0  0  0  0  0  0  0  0
  -24.1036  -12.8915   21.6830 C   0  0  1  0  0  0  0  0  0  0  0  0
  -24.5345  -10.2987   18.9514 C   0  0  2  0  0  0  0  0  0  0  0  0
  -23.5031  -12.5003   23.0628 C   0  0  0  0  0  0  0  0  0  0  0  0
  -25.0554  -27.4825   20.2611 N   0  0  0  0  0  0  0  0  0  0  0  0
  -31.3942  -22.9243   20.6749 N   0  0  0  0  0  0  0  0  0  0  0  0
  -26.1554  -28.0001   19.6882 N   0  0  0  0  0  0  0  0  0  0  0  0
  -24.4120  -15.2224   20.9112 N   0  0  0  0  0  0  0  0  0  0  0  0
  -27.9515  -24.8151   18.5867 N   0  0  0  0  0  0  0  0  0  0  0  0
  -27.3828  -30.0093   19.4291 N   0  0  0  0  0  0  0  0  0  0  0  0
  -32.5741  -23.0094   24.1212 N   0  0  0  0  0  0  0  0  0  0  0  0
  -23.8898  -31.2476   22.0102 N   0  0  0  0  0  0  0  0  0  0  0  0
  -29.3615  -24.2685   20.3965 N   0  0  0  0  0  0  0  0  0  0  0  0
  -32.9866  -20.3911   21.0155 N   0  0  0  0  0  0  0  0  0  0  0  0
  -23.2475  -18.5800   21.7278 N   0  0  0  0  0  0  0  0  0  0  0  0
  -23.9194  -11.8841   20.6439 N   0  0  0  0  0  0  0  0  0  0  0  0
  -25.4520  -10.3029   17.7771 N   0  3  0  0  0  0  0  0  0  0  0  0
  -25.7882  -31.9946   20.9630 O   0  0  0  0  0  0  0  0  0  0  0  0
  -32.8711  -17.1069   21.4600 O   0  0  0  0  0  0  0  0  0  0  0  0
  -32.7503  -19.4085   23.1322 O   0  0  0  0  0  0  0  0  0  0  0  0
  -24.2025  -16.8111   22.9031 O   0  0  0  0  0  0  0  0  0  0  0  0
  -22.3012  -14.2321   20.9211 O   0  0  0  0  0  0  0  0  0  0  0  0
  -26.1709  -11.5886   20.1743 O   0  0  0  0  0  0  0  0  0  0  0  0
  -29.7694  -23.4213   18.2757 O   0  0  0  0  0  0  0  0  0  0  0  0
  -19.7757  -27.9405   23.7916 O   0  0  0  0  0  0  0  0  0  0  0  0
  -30.2947  -17.0018   20.3826 O   0  0  0  0  0  0  0  0  0  1  0  0
  -15.8665  -31.7723   23.1290 F   0  0  0  0  0  0  0  0  0  0  0  0
  -17.2668  -27.2592   22.8516 F   0  0  0  0  0  0  0  0  0  0  0  0
  -30.5022  -24.1076   22.7930 S   0  0  0  0  0  0  0  0  0  0  0  0
  1  2  1  0  0  0  0
  1  5  2  0  0  0  0
  2  6  2  0  0  0  0
  3  8  2  0  0  0  0
  3 15  1  0  0  0  0
  4  9  1  0  0  0  0
  4 15  2  0  0  0  0
  5 17  1  0  0  0  0
  6 19  1  0  0  0  0
  7 10  2  0  0  0  0
  7 18  1  0  0  0  0
  8 21  1  0  0  0  0
  9 21  2  0  0  0  0
 10 22  1  0  0  0  0
 11 12  2  0  0  0  0
 11 23  1  0  0  0  0
 12 24  1  0  0  0  0
 13 20  1  0  0  0  0
 13 22  2  0  0  0  0
 14 24  2  0  0  0  0
 14 25  1  0  0  0  0
 15 26  1  0  0  0  0
 16 26  1  0  0  0  0
 16 28  2  0  0  0  0
 16 31  1  0  0  0  0
 17 19  2  0  0  0  0
 17 38  1  0  0  0  0
 18 20  2  0  0  0  0
 18 39  1  0  0  0  0
 19 47  1  0  0  0  0
 20 40  1  0  0  0  0
 21 81  1  0  0  0  0
 22 82  1  0  0  0  0
 23 25  2  0  0  0  0
 23 81  1  0  0  0  0
 24 83  1  0  0  0  0
 25 84  1  0  0  0  0
 26 61  2  0  0  0  0
 27 29  2  0  0  0  0
 27 57  1  0  0  0  0
 27 62  1  0  0  0  0
 28 63  1  0  0  0  0
 28 66  1  0  0  0  0
 29 67  1  0  0  0  0
 29 85  1  0  0  0  0
 30 62  2  0  0  0  0
 30 69  1  0  0  0  0
 30 85  1  0  0  0  0
 31 68  1  0  0  0  0
 31 74  2  0  0  0  0
 32 33  1  0  0  0  0
 32 56  1  0  0  0  0
 32 75  2  0  0  0  0
 33 70  1  0  0  0  0
 33 76  2  0  0  0  0
 34 48  1  0  0  0  0
 34 71  1  0  0  0  0
 34 77  2  0  0  0  0
 35 58  1  0  0  0  0
 35 64  1  0  0  0  0
 35 78  2  0  0  0  0
 36 59  1  0  0  0  0
 36 72  1  0  0  0  0
 36 79  2  0  0  0  0
 37 65  1  0  0  0  0
 37 69  1  0  0  0  0
 37 80  2  0  0  0  0
 38 41  1  0  0  0  0
 39 48  1  0  0  0  0
 40 64  1  0  0  0  0
 41 43  1  0  0  0  0
 42 44  1  0  0  0  0
 42 45  1  0  0  0  0
 43 47  1  0  0  0  0
 44 49  1  0  0  0  0
 45 65  1  0  0  0  0
 46 49  1  0  0  0  0
 46 65  1  0  0  0  0
 47 71  1  0  0  0  0
 48 64  1  0  0  0  0
 49 63  1  0  0  0  0
 50 57  1  0  0  0  0
 51 59  1  0  0  0  0
 52 60  1  0  0  0  0
 53 60  1  0  0  0  0
 54 60  1  0  0  0  0
 55 73  1  0  0  0  0
 56 82  1  0  0  0  0
 57 70  1  0  0  0  0
 58 60  1  0  0  0  0
 58 72  1  0  0  0  0
 59 73  1  0  0  0  0
 61 63  1  0  0  0  0
M  CHG  1  73   1
M  ISO  4  37 100  56 101  69 100  82 101
M  END
> <Batch ID>
0179

> <Smiles>
CNC(C)C(=O)NC(C(=O)N1Cc2cc([101O:1][101CH2:1]C(=O)C(=O)NC(C)c3nc([100NH:0][100C:0](=O)N4CCCC(n5nc(-c6ccc(Oc7ccc(F)cc7F)cc6)c(C(N)=O)c5N)C4)sc3N)ccc2CC1C(=O)NC1CCCc2ccccc21)C(C)(C)C

> <Shape>
0.227

> <Color>
0.070

> <Negative vol penalty>
0.000

$$$$

  -OEChem-04052304473D

 84 92  0     1  0  0  0  0  0999 V2000
  -27.0344  -34.7763   24.2913 C   0  0  0  0  0  0  0  0  0  0  0  0
  -27.3990  -33.5133   23.8361 C   0  0  0  0  0  0  0  0  0  0  0  0
  -23.8594  -13.4061   20.9624 C   0  0  0  0  0  0  0  0  0  0  0  0
  -26.2506  -13.7249   21.0954 C   0  0  0  0  0  0  0  0  0  0  0  0
  -25.7647  -34.9825   24.8290 C   0  0  0  0  0  0  0  0  0  0  0  0
  -26.4944  -32.4554   23.9194 C   0  0  0  0  0  0  0  0  0  0  0  0
  -26.3330  -29.6983   19.6747 C   0  0  0  0  0  0  0  0  0  0  0  0
  -24.0588  -12.1352   20.4232 C   0  0  0  0  0  0  0  0  0  0  0  0
  -26.4500  -12.4540   20.5563 C   0  0  0  0  0  0  0  0  0  0  0  0
  -27.3679  -28.7875   19.4673 C   0  0  0  0  0  0  0  0  0  0  0  0
  -24.8603   -9.0494   21.5493 C   0  0  0  0  0  0  0  0  0  0  0  0
  -24.0909   -8.0022   22.0561 C   0  0  0  0  0  0  0  0  0  0  0  0
  -25.9433  -27.0015   20.2420 C   0  0  0  0  0  0  0  0  0  0  0  0
  -23.1688   -7.6151   19.8568 C   0  0  0  0  0  0  0  0  0  0  0  0
  -24.9553  -14.2010   21.2984 C   0  0  0  0  0  0  0  0  0  0  0  0
  -24.6295  -15.8511   23.2164 C   0  0  0  0  0  0  0  0  0  0  0  0
  -24.8406  -33.9289   24.9101 C   0  0  0  0  0  0  0  0  0  0  0  0
  -25.0968  -29.2685   20.1784 C   0  0  0  0  0  0  0  0  0  0  0  0
  -25.2116  -32.6474   24.4600 C   0  0  0  0  0  0  0  0  0  0  0  0
  -24.8934  -27.9085   20.4525 C   0  0  0  0  0  0  0  0  0  0  0  0
  -25.3541  -11.6592   20.2202 C   0  0  0  0  0  0  0  0  0  0  0  0
  -27.1742  -27.4393   19.7537 C   0  0  0  0  0  0  0  0  0  0  0  0
  -24.7840   -9.3796   20.1962 C   0  0  0  0  0  0  0  0  0  0  0  0
  -23.2452   -7.2850   21.2099 C   0  0  0  0  0  0  0  0  0  0  0  0
  -23.9383   -8.6624   19.3499 C   0  0  0  0  0  0  0  0  0  0  0  0
  -24.7500  -15.5141   21.8549 C   0  0  0  0  0  0  0  0  0  0  0  0
  -29.9592  -23.4037   19.3873 C   0  0  0  0  0  0  0  0  0  0  0  0
  -24.4487  -17.2127   23.2184 C   0  0  0  0  0  0  0  0  0  0  0  0
  -30.7890  -22.4041   19.8502 C   0  0  0  0  0  0  0  0  0  0  0  0
  -28.4550  -21.8342   19.6773 C   0  0  0  0  0  0  0  0  0  0  0  0
  -24.6768  -15.0088   24.3757 C   0  0  0  0  0  0  0  0  0  0  0  0
  -30.4147  -24.7614   19.0042 C   0  0  0  0  0  0  0  0  0  0  0  0
  -23.4042  -29.8869   22.7969 C   0  0  0  0  0  0  0  0  0  0  0  0
  -21.1697  -28.0638   21.3117 C   0  0  0  0  0  0  0  0  0  0  0  0
  -20.4703  -25.6292   19.0246 C   0  0  0  0  0  0  0  0  0  0  0  0
  -25.9701  -21.5383   19.3870 C   0  0  0  0  0  0  0  0  0  0  0  0
  -23.4965  -34.1892   25.5427 C   0  0  0  0  0  0  0  0  0  0  0  0
  -23.9818  -30.2595   20.3713 C   0  0  0  0  0  0  0  0  0  0  0  0
  -23.5786  -27.3930   20.9758 C   0  0  0  0  0  0  0  0  0  0  0  0
  -22.4652  -33.1021   25.2510 C   0  0  0  0  0  0  0  0  0  0  0  0
  -22.6878  -20.7605   20.5265 C   0  0  0  0  0  0  0  0  0  0  0  0
  -23.0725  -31.7191   25.4643 C   0  0  0  0  0  0  0  0  0  0  0  0
  -22.8345  -19.3600   21.1258 C   0  0  0  0  0  0  0  0  0  0  0  0
  -23.5603  -20.9405   19.2855 C   0  0  0  0  0  0  0  0  0  0  0  0
  -25.1252  -19.2067   20.0693 C   0  0  0  0  0  0  0  0  0  0  0  0
  -24.2494  -31.4804   24.5107 C   0  0  1  0  0  0  0  0  0  0  0  0
  -22.9320  -29.7901   21.3738 C   0  0  1  0  0  0  0  0  0  0  0  0
  -24.3146  -18.9990   21.3591 C   0  0  2  0  0  0  0  0  0  0  0  0
  -31.2024  -24.6141   16.1021 C   0  0  0  0  0  0  0  0  0  0  0  0
  -18.5563  -24.3248   18.0591 C   0  0  0  0  0  0  0  0  0  0  0  0
  -21.0515  -26.3669   23.8448 C   0  0  0  0  0  0  0  0  0  0  0  0
  -19.8891  -24.5908   22.5171 C   0  0  0  0  0  0  0  0  0  0  0  0
  -18.8293  -26.8317   22.7958 C   0  0  0  0  0  0  0  0  0  0  0  0
  -20.9873  -26.6645   16.3007 C   0  0  0  0  0  0  0  0  0  0  0  0
  -30.6188  -25.8610   16.7564 C   0  0  0  0  0  0  0  0  0  0  0  0
  -29.1093  -26.8408   18.5076 C   0  0  0  0  0  0  0  0  0  1  0  0
  -20.8394  -26.5910   21.2814 C   0  0  1  0  0  0  0  0  0  0  0  0
  -19.4367  -25.5564   17.9152 C   0  0  2  0  0  0  0  0  0  0  0  0
  -29.6664  -25.5399   17.9217 C   0  0  2  0  0  0  0  0  0  0  0  0
  -20.1779  -26.1048   22.6018 C   0  0  0  0  0  0  0  0  0  0  0  0
  -24.6537  -16.5760   21.0504 N   0  0  0  0  0  0  0  0  0  0  0  0
  -28.6205  -23.0786   19.2871 N   0  0  0  0  0  0  0  0  0  0  0  0
  -24.4707  -17.5935   21.9090 N   0  0  0  0  0  0  0  0  0  0  0  0
  -22.5212  -28.4019   21.1537 N   0  0  0  0  0  0  0  0  0  0  0  0
  -24.9493  -20.5842   19.5829 N   0  0  0  0  0  0  0  0  0  0  0  0
  -24.2746  -18.1093   24.2125 N   0  0  0  0  0  0  0  0  0  0  0  0
  -32.1302  -22.4481   20.0436 N   0  0  0  0  0  0  0  0  0  0  0  0
  -24.8697  -13.6325   24.1940 N   0  0  0  0  0  0  0  0  0  0  0  0
  -27.2464  -21.0968   19.7346 N   0  0  0  0  0  0  0  0  0  0  0  0
  -23.7681  -31.1627   23.1834 N   0  0  0  0  0  0  0  0  0  0  0  0
  -20.0229  -26.3802   20.0910 N   0  0  0  0  0  0  0  0  0  0  0  0
  -20.1073  -25.5020   16.5854 N   0  3  0  0  0  0  0  0  0  0  0  0
  -24.5354  -15.4609   25.5372 O   0  0  0  0  0  0  0  0  0  0  0  0
  -31.4147  -25.2178   19.5567 O   0  0  0  0  0  0  0  0  0  0  0  0
  -23.4347  -28.8790   23.4933 O   0  0  0  0  0  0  0  0  0  0  0  0
  -20.2611  -28.8843   21.4626 O   0  0  0  0  0  0  0  0  0  0  0  0
  -21.5636  -25.0723   18.9541 O   0  0  0  0  0  0  0  0  0  0  0  0
  -25.7262  -22.6732   18.9692 O   0  0  0  0  0  0  0  0  0  0  0  0
  -25.5491  -10.4190   19.6944 O   0  0  0  0  0  0  0  0  0  0  0  0
  -28.1829  -26.5483   19.5528 O   0  0  0  0  0  0  0  0  0  1  0  0
  -22.5075   -6.2784   21.6964 F   0  0  0  0  0  0  0  0  0  0  0  0
  -23.8616   -8.9742   18.0489 F   0  0  0  0  0  0  0  0  0  0  0  0
  -28.6166  -24.8427   17.3956 F   0  0  0  0  0  0  0  0  0  0  0  0
  -29.8663  -20.9962   20.1783 S   0  0  0  0  0  0  0  0  0  0  0  0
  1  2  1  0  0  0  0
  1  5  2  0  0  0  0
  2  6  2  0  0  0  0
  3  8  2  0  0  0  0
  3 15  1  0  0  0  0
  4  9  1  0  0  0  0
  4 15  2  0  0  0  0
  5 17  1  0  0  0  0
  6 19  1  0  0  0  0
  7 10  2  0  0  0  0
  7 18  1  0  0  0  0
  8 21  1  0  0  0  0
  9 21  2  0  0  0  0
 10 22  1  0  0  0  0
 11 12  2  0  0  0  0
 11 23  1  0  0  0  0
 12 24  1  0  0  0  0
 13 20  1  0  0  0  0
 13 22  2  0  0  0  0
 14 24  2  0  0  0  0
 14 25  1  0  0  0  0
 15 26  1  0  0  0  0
 16 26  1  0  0  0  0
 16 28  2  0  0  0  0
 16 31  1  0  0  0  0
 17 19  2  0  0  0  0
 17 37  1  0  0  0  0
 18 20  2  0  0  0  0
 18 38  1  0  0  0  0
 19 46  1  0  0  0  0
 20 39  1  0  0  0  0
 21 79  1  0  0  0  0
 22 80  1  0  0  0  0
 23 25  2  0  0  0  0
 23 79  1  0  0  0  0
 24 81  1  0  0  0  0
 25 82  1  0  0  0  0
 26 61  2  0  0  0  0
 27 29  2  0  0  0  0
 27 32  1  0  0  0  0
 27 62  1  0  0  0  0
 28 63  1  0  0  0  0
 28 66  1  0  0  0  0
 29 67  1  0  0  0  0
 29 84  1  0  0  0  0
 30 62  2  0  0  0  0
 30 69  1  0  0  0  0
 30 84  1  0  0  0  0
 31 68  1  0  0  0  0
 31 73  2  0  0  0  0
 32 59  1  0  0  0  0
 32 74  2  0  0  0  0
 33 47  1  0  0  0  0
 33 70  1  0  0  0  0
 33 75  2  0  0  0  0
 34 57  1  0  0  0  0
 34 64  1  0  0  0  0
 34 76  2  0  0  0  0
 35 58  1  0  0  0  0
 35 71  1  0  0  0  0
 35 77  2  0  0  0  0
 36 65  1  0  0  0  0
 36 69  1  0  0  0  0
 36 78  2  0  0  0  0
 37 40  1  0  0  0  0
 38 47  1  0  0  0  0
 39 64  1  0  0  0  0
 40 42  1  0  0  0  0
 41 43  1  0  0  0  0
 41 44  1  0  0  0  0
 42 46  1  0  0  0  0
 43 48  1  0  0  0  0
 44 65  1  0  0  0  0
 45 48  1  0  0  0  0
 45 65  1  0  0  0  0
 46 70  1  0  0  0  0
 47 64  1  0  0  0  0
 48 63  1  0  0  0  0
 49 55  1  0  0  0  0
 50 58  1  0  0  0  0
 51 60  1  0  0  0  0
 52 60  1  0  0  0  0
 53 60  1  0  0  0  0
 54 72  1  0  0  0  0
 55 59  1  0  0  0  0
 56 59  1  0  0  0  0
 56 80  1  0  0  0  0
 57 60  1  0  0  0  0
 57 71  1  0  0  0  0
 58 72  1  0  0  0  0
 59 83  1  0  0  0  0
 61 63  1  0  0  0  0
M  CHG  1  72   1
M  ISO  4  36 100  56 101  69 100  80 101
M  END
> <Batch ID>
0179

> <Smiles>
CCC(F)(C(=O)c1nc([100NH:0][100C:0](=O)N2CCCC(n3nc(-c4ccc(Oc5ccc(F)cc5F)cc4)c(C(N)=O)c3N)C2)sc1N)[101CH2:1][101O:1]c1ccc2c(c1)CN(C(=O)C(NC(=O)C(C)NC)C(C)(C)C)C(C(=O)NC1CCCc3ccccc31)C2

> <Shape>
0.264

> <Color>
0.099

> <Negative vol penalty>
0.000

$$$$

  -OEChem-04052304473D

 83 91  0     1  0  0  0  0  0999 V2000
  -22.8644  -17.6969   36.7521 C   0  0  0  0  0  0  0  0  0  0  0  0
  -23.6969  -17.9864   35.6758 C   0  0  0  0  0  0  0  0  0  0  0  0
  -23.1962   -9.8538   19.9552 C   0  0  0  0  0  0  0  0  0  0  0  0
  -23.9050   -9.9351   22.2635 C   0  0  0  0  0  0  0  0  0  0  0  0
  -21.9362  -16.6610   36.6550 C   0  0  0  0  0  0  0  0  0  0  0  0
  -23.6024  -17.2395   34.5020 C   0  0  0  0  0  0  0  0  0  0  0  0
  -23.6571  -20.1345   30.3474 C   0  0  0  0  0  0  0  0  0  0  0  0
  -22.5021   -8.6711   20.2100 C   0  0  0  0  0  0  0  0  0  0  0  0
  -23.2109   -8.7523   22.5183 C   0  0  0  0  0  0  0  0  0  0  0  0
  -24.8937  -20.6234   29.9282 C   0  0  0  0  0  0  0  0  0  0  0  0
  -20.2462   -5.8233   20.3371 C   0  0  0  0  0  0  0  0  0  0  0  0
  -18.9551   -5.7053   19.8226 C   0  0  0  0  0  0  0  0  0  0  0  0
  -25.0127  -18.8796   28.2656 C   0  0  0  0  0  0  0  0  0  0  0  0
  -18.2707   -7.6410   21.0961 C   0  0  0  0  0  0  0  0  0  0  0  0
  -32.6206  -16.7698   24.0151 C   0  0  0  0  0  0  0  0  0  0  0  0
  -23.8977  -10.4858   20.9820 C   0  0  0  0  0  0  0  0  0  0  0  0
  -24.1229  -13.0220   20.8245 C   0  0  0  0  0  0  0  0  0  0  0  0
  -21.8237  -15.9073   35.4761 C   0  0  0  0  0  0  0  0  0  0  0  0
  -23.0932  -19.0061   29.7351 C   0  0  0  0  0  0  0  0  0  0  0  0
  -22.6728  -16.1918   34.3896 C   0  0  0  0  0  0  0  0  0  0  0  0
  -23.7677  -18.3800   28.6772 C   0  0  0  0  0  0  0  0  0  0  0  0
  -22.5094   -8.1203   21.4915 C   0  0  0  0  0  0  0  0  0  0  0  0
  -25.5730  -19.9942   28.8891 C   0  0  0  0  0  0  0  0  0  0  0  0
  -20.5496   -6.8501   21.2312 C   0  0  0  0  0  0  0  0  0  0  0  0
  -17.9674   -6.6142   20.2021 C   0  0  0  0  0  0  0  0  0  0  0  0
  -19.5619   -7.7589   21.6107 C   0  0  0  0  0  0  0  0  0  0  0  0
  -24.6153  -11.7074   20.7193 C   0  0  0  0  0  0  0  0  0  0  0  0
  -31.6268  -16.8495   24.9681 C   0  0  0  0  0  0  0  0  0  0  0  0
  -25.1863  -13.8162   20.4708 C   0  0  0  0  0  0  0  0  0  0  0  0
  -31.1445  -15.4564   23.0631 C   0  0  0  0  0  0  0  0  0  0  0  0
  -30.4304  -18.5647   26.3008 C   0  0  0  0  0  0  0  0  0  0  0  0
  -22.8208  -13.4840   21.2076 C   0  0  0  0  0  0  0  0  0  0  0  0
  -22.2644  -16.0992   30.7184 C   0  0  0  0  0  0  0  0  0  0  0  0
  -28.4729  -19.3439   27.1824 C   0  0  0  0  0  0  0  0  0  0  0  0
  -21.0668  -15.8490   27.7142 C   0  0  0  0  0  0  0  0  0  0  0  0
  -21.1422  -16.9001   24.4682 C   0  0  0  0  0  0  0  0  0  0  0  0
  -30.9350  -14.0790   20.9643 C   0  0  0  0  0  0  0  0  0  0  0  0
  -20.8379  -14.7666   35.4350 C   0  0  0  0  0  0  0  0  0  0  0  0
  -21.7461  -18.5072   30.1810 C   0  0  0  0  0  0  0  0  0  0  0  0
  -23.1959  -17.1775   27.9732 C   0  0  0  0  0  0  0  0  0  0  0  0
  -20.5435  -14.2665   34.0231 C   0  0  0  0  0  0  0  0  0  0  0  0
  -29.3660  -13.1105   17.9184 C   0  0  0  0  0  0  0  0  0  0  0  0
  -21.8397  -14.0874   33.2392 C   0  0  0  0  0  0  0  0  0  0  0  0
  -27.9325  -12.7782   18.3387 C   0  0  0  0  0  0  0  0  0  0  0  0
  -30.3804  -12.6894   18.9801 C   0  0  0  0  0  0  0  0  0  0  0  0
  -28.6777  -12.8643   20.7520 C   0  0  0  0  0  0  0  0  0  0  0  0
  -22.5833  -15.4203   33.0908 C   0  0  1  0  0  0  0  0  0  0  0  0
  -21.5048  -17.0425   29.8291 C   0  0  1  0  0  0  0  0  0  0  0  0
  -27.6149  -13.3287   19.7428 C   0  0  2  0  0  0  0  0  0  0  0  0
  -28.9253  -20.2082   29.4943 C   0  0  0  0  0  0  0  0  0  0  0  0
  -20.0715  -16.4835   22.2373 C   0  0  0  0  0  0  0  0  0  0  0  0
  -22.7013  -13.2905   27.4102 C   0  0  0  0  0  0  0  0  0  0  0  0
  -22.3581  -13.4480   24.9352 C   0  0  0  0  0  0  0  0  0  0  0  0
  -20.3950  -13.1752   26.4500 C   0  0  0  0  0  0  0  0  0  0  0  0
  -20.1197  -19.6730   24.3111 C   0  0  0  0  0  0  0  0  0  0  0  0
  -31.5939  -17.6133   26.2638 C   0  0  0  0  0  0  0  0  0  0  0  0
  -27.8934  -19.5807   28.5718 C   0  0  1  0  0  0  0  0  0  1  0  0
  -21.6092  -15.3917   26.3816 C   0  0  1  0  0  0  0  0  0  0  0  0
  -20.0330  -17.3070   23.5152 C   0  0  2  0  0  0  0  0  0  0  0  0
  -21.7778  -13.8478   26.3086 C   0  0  0  0  0  0  0  0  0  0  0  0
  -32.3459  -15.9711   22.9222 N   0  0  0  0  0  0  0  0  0  0  0  0
  -25.8921  -11.6646   20.3293 N   0  0  0  0  0  0  0  0  0  0  0  0
  -29.5069  -18.4310   27.1935 N   0  0  0  0  0  0  0  0  0  0  0  0
  -26.2109  -12.9623   20.1861 N   0  0  0  0  0  0  0  0  0  0  0  0
  -21.8790  -16.7236   28.4498 N   0  0  0  0  0  0  0  0  0  0  0  0
  -30.0175  -13.2514   20.2830 N   0  0  0  0  0  0  0  0  0  0  0  0
  -25.3354  -15.1548   20.3787 N   0  0  0  0  0  0  0  0  0  0  0  0
  -21.8457  -12.5336   21.5397 N   0  0  0  0  0  0  0  0  0  0  0  0
  -30.4672  -14.5814   22.1781 N   0  0  0  0  0  0  0  0  0  0  0  0
  -21.9679  -16.2305   32.0616 N   0  0  0  0  0  0  0  0  0  0  0  0
  -20.7184  -15.9442   25.3670 N   0  0  0  0  0  0  0  0  0  0  0  0
  -20.1649  -18.7461   23.1510 N   0  3  0  0  0  0  0  0  0  0  0  0
  -22.5258  -14.7028   21.2382 O   0  0  0  0  0  0  0  0  0  0  0  0
  -23.0596  -15.3096   30.2224 O   0  0  0  0  0  0  0  0  0  0  0  0
  -28.0084  -19.9029   26.1904 O   0  0  0  0  0  0  0  0  0  0  0  0
  -19.9599  -15.4505   28.0854 O   0  0  0  0  0  0  0  0  0  0  0  0
  -22.2728  -17.3795   24.4179 O   0  0  0  0  0  0  0  0  0  0  0  0
  -32.0430  -14.3459   20.4919 O   0  0  0  0  0  0  0  0  0  0  0  0
  -21.8321   -6.9663   21.7405 O   0  0  0  0  0  0  0  0  0  0  0  0
  -26.7804  -20.4690   28.4785 O   0  0  0  0  0  0  0  0  0  1  0  0
  -16.7280   -6.5017   19.7067 F   0  0  0  0  0  0  0  0  0  0  0  0
  -19.8476   -8.7481   22.4684 F   0  0  0  0  0  0  0  0  0  0  0  0
  -30.2889  -15.8910   24.4858 S   0  0  0  0  0  0  0  0  0  0  0  0
  1  2  1  0  0  0  0
  1  5  2  0  0  0  0
  2  6  2  0  0  0  0
  3  8  2  0  0  0  0
  3 16  1  0  0  0  0
  4  9  1  0  0  0  0
  4 16  2  0  0  0  0
  5 18  1  0  0  0  0
  6 20  1  0  0  0  0
  7 10  2  0  0  0  0
  7 19  1  0  0  0  0
  8 22  1  0  0  0  0
  9 22  2  0  0  0  0
 10 23  1  0  0  0  0
 11 12  2  0  0  0  0
 11 24  1  0  0  0  0
 12 25  1  0  0  0  0
 13 21  1  0  0  0  0
 13 23  2  0  0  0  0
 14 25  2  0  0  0  0
 14 26  1  0  0  0  0
 15 28  2  0  0  0  0
 15 61  1  0  0  0  0
 16 27  1  0  0  0  0
 17 27  1  0  0  0  0
 17 29  2  0  0  0  0
 17 32  1  0  0  0  0
 18 20  2  0  0  0  0
 18 38  1  0  0  0  0
 19 21  2  0  0  0  0
 19 39  1  0  0  0  0
 20 47  1  0  0  0  0
 21 40  1  0  0  0  0
 22 79  1  0  0  0  0
 23 80  1  0  0  0  0
 24 26  2  0  0  0  0
 24 79  1  0  0  0  0
 25 81  1  0  0  0  0
 26 82  1  0  0  0  0
 27 62  2  0  0  0  0
 28 56  1  0  0  0  0
 28 83  1  0  0  0  0
 29 64  1  0  0  0  0
 29 67  1  0  0  0  0
 30 61  2  0  0  0  0
 30 69  1  0  0  0  0
 30 83  1  0  0  0  0
 31 56  1  0  0  0  0
 31 63  2  0  0  0  0
 32 68  1  0  0  0  0
 32 73  2  0  0  0  0
 33 48  1  0  0  0  0
 33 70  1  0  0  0  0
 33 74  2  0  0  0  0
 34 57  1  0  0  0  0
 34 63  1  0  0  0  0
 34 75  2  0  0  0  0
 35 58  1  0  0  0  0
 35 65  1  0  0  0  0
 35 76  2  0  0  0  0
 36 59  1  0  0  0  0
 36 71  1  0  0  0  0
 36 77  2  0  0  0  0
 37 66  1  0  0  0  0
 37 69  1  0  0  0  0
 37 78  2  0  0  0  0
 38 41  1  0  0  0  0
 39 48  1  0  0  0  0
 40 65  1  0  0  0  0
 41 43  1  0  0  0  0
 42 44  1  0  0  0  0
 42 45  1  0  0  0  0
 43 47  1  0  0  0  0
 44 49  1  0  0  0  0
 45 66  1  0  0  0  0
 46 49  1  0  0  0  0
 46 66  1  0  0  0  0
 47 70  1  0  0  0  0
 48 65  1  0  0  0  0
 49 64  1  0  0  0  0
 50 57  1  0  0  0  0
 51 59  1  0  0  0  0
 52 60  1  0  0  0  0
 53 60  1  0  0  0  0
 54 60  1  0  0  0  0
 55 72  1  0  0  0  0
 57 80  1  0  0  0  0
 58 60  1  0  0  0  0
 58 71  1  0  0  0  0
 59 72  1  0  0  0  0
 62 64  1  0  0  0  0
M  CHG  1  72   1
M  ISO  4  37 100  57 101  69 100  80 101
M  END
> <Batch ID>
0179

> <Smiles>
CNC(C)C(=O)NC(C(=O)N1Cc2cc([101O:1][101CH:1](C)C(=O)NC=Cc3cnc([100NH:0][100C:0](=O)N4CCCC(n5nc(-c6ccc(Oc7ccc(F)cc7F)cc6)c(C(N)=O)c5N)C4)s3)ccc2CC1C(=O)NC1CCCc2ccccc21)C(C)(C)C

> <Shape>
0.137

> <Color>
0.178

> <Negative vol penalty>
0.000

$$$$

  -OEChem-04052304473D

 84 92  0     1  0  0  0  0  0999 V2000
  -27.1099  -37.1234   23.3588 C   0  0  0  0  0  0  0  0  0  0  0  0
  -27.6649  -35.8497   23.2869 C   0  0  0  0  0  0  0  0  0  0  0  0
  -25.0627   -6.5826   22.7796 C   0  0  0  0  0  0  0  0  0  0  0  0
  -23.0554   -6.5430   21.4357 C   0  0  0  0  0  0  0  0  0  0  0  0
  -25.7353  -37.2745   23.5367 C   0  0  0  0  0  0  0  0  0  0  0  0
  -26.8457  -34.7264   23.3939 C   0  0  0  0  0  0  0  0  0  0  0  0
  -27.5469  -29.3703   20.5083 C   0  0  0  0  0  0  0  0  0  0  0  0
  -24.5221   -5.6061   23.6160 C   0  0  0  0  0  0  0  0  0  0  0  0
  -22.5147   -5.5663   22.2722 C   0  0  0  0  0  0  0  0  0  0  0  0
  -28.0979  -28.1539   20.9092 C   0  0  0  0  0  0  0  0  0  0  0  0
  -22.8154   -2.2306   22.7228 C   0  0  0  0  0  0  0  0  0  0  0  0
  -22.1884   -1.1393   22.1216 C   0  0  0  0  0  0  0  0  0  0  0  0
  -25.8957  -27.3513   21.4795 C   0  0  0  0  0  0  0  0  0  0  0  0
  -28.6035  -20.0049   18.4466 C   0  0  0  0  0  0  0  0  0  0  0  0
  -20.1240   -1.7093   23.2398 C   0  0  0  0  0  0  0  0  0  0  0  0
  -24.3293   -7.0511   21.6895 C   0  0  0  0  0  0  0  0  0  0  0  0
  -25.6645   -7.8550   19.6698 C   0  0  0  0  0  0  0  0  0  0  0  0
  -24.8976  -36.1524   23.6363 C   0  0  0  0  0  0  0  0  0  0  0  0
  -26.1651  -29.5906   20.6004 C   0  0  0  0  0  0  0  0  0  0  0  0
  -25.4588  -34.8626   23.5746 C   0  0  0  0  0  0  0  0  0  0  0  0
  -25.3294  -28.5704   21.0767 C   0  0  0  0  0  0  0  0  0  0  0  0
  -28.5856  -18.6145   18.1355 C   0  0  0  0  0  0  0  0  0  0  0  0
  -23.2481   -5.0979   23.3623 C   0  0  0  0  0  0  0  0  0  0  0  0
  -27.2726  -27.1452   21.3976 C   0  0  0  0  0  0  0  0  0  0  0  0
  -22.0967   -3.0613   23.5826 C   0  0  0  0  0  0  0  0  0  0  0  0
  -20.8427   -0.8786   22.3800 C   0  0  0  0  0  0  0  0  0  0  0  0
  -20.7510   -2.8006   23.8411 C   0  0  0  0  0  0  0  0  0  0  0  0
  -24.8870   -8.0603   20.8254 C   0  0  0  0  0  0  0  0  0  0  0  0
  -28.4241  -17.8348   19.2596 C   0  0  0  0  0  0  0  0  0  0  0  0
  -25.9434   -9.1204   19.2144 C   0  0  0  0  0  0  0  0  0  0  0  0
  -28.4547  -20.2349   19.7967 C   0  0  0  0  0  0  0  0  0  0  0  0
  -28.3561  -16.4276   19.3654 C   0  0  0  0  0  0  0  0  0  0  0  0
  -27.6469  -15.7035   20.2941 C   0  0  0  0  0  0  0  0  0  0  0  0
  -27.9254  -24.9651   20.8577 C   0  0  0  0  0  0  0  0  0  1  0  0
  -26.0959   -6.6300   19.0624 C   0  0  0  0  0  0  0  0  0  0  0  0
  -28.4366  -23.7592   21.1333 C   0  0  0  0  0  0  0  0  0  0  0  0
  -27.6688  -14.2272   20.2676 C   0  0  0  0  0  0  0  0  0  0  0  0
  -28.5234  -22.7383   20.0385 C   0  0  0  0  0  0  0  0  0  0  0  0
  -24.3200  -31.6299   22.1944 C   0  0  0  0  0  0  0  0  0  0  0  0
  -21.9607  -30.2645   20.4359 C   0  0  0  0  0  0  0  0  0  0  0  0
  -20.8629  -27.5644   18.6609 C   0  0  0  0  0  0  0  0  0  0  0  0
  -23.4239  -36.3657   23.8754 C   0  0  0  0  0  0  0  0  0  0  0  0
  -25.5833  -30.8986   20.1388 C   0  0  0  0  0  0  0  0  0  0  0  0
  -23.8372  -28.7494   21.1765 C   0  0  0  0  0  0  0  0  0  0  0  0
  -22.5770  -35.1249   23.6043 C   0  0  0  0  0  0  0  0  0  0  0  0
  -24.0687  -13.6051   20.5575 C   0  0  0  0  0  0  0  0  0  0  0  0
  -23.2101  -33.8954   24.2480 C   0  0  0  0  0  0  0  0  0  0  0  0
  -24.0372  -12.0798   20.6057 C   0  0  0  0  0  0  0  0  0  0  0  0
  -25.3104  -14.1733   21.2430 C   0  0  0  0  0  0  0  0  0  0  0  0
  -26.5578  -12.0854   20.7688 C   0  0  0  0  0  0  0  0  0  0  0  0
  -24.6000  -33.6197   23.6617 C   0  0  1  0  0  0  0  0  0  0  0  0
  -24.2219  -31.1988   20.7583 C   0  0  1  0  0  0  0  0  0  0  0  0
  -25.3406  -11.4905   20.0437 C   0  0  1  0  0  0  0  0  0  0  0  0
  -28.7260  -18.0896   16.7546 C   0  0  0  0  0  0  0  0  0  0  0  0
  -18.8778  -26.7282   17.3734 C   0  0  0  0  0  0  0  0  0  0  0  0
  -20.4922  -29.7246   23.0555 C   0  0  0  0  0  0  0  0  0  0  0  0
  -19.0424  -28.0953   21.8260 C   0  0  0  0  0  0  0  0  0  0  0  0
  -19.0310  -30.5053   21.1820 C   0  0  0  0  0  0  0  0  0  0  0  0
  -22.4360  -27.3254   16.1655 C   0  0  0  0  0  0  0  0  0  0  0  0
  -21.0415  -29.0807   20.6163 C   0  0  1  0  0  0  0  0  0  0  0  0
  -20.2115  -27.4547   17.2941 C   0  0  2  0  0  0  0  0  0  0  0  0
  -19.9301  -29.3485   21.6700 C   0  0  0  0  0  0  0  0  0  0  0  0
  -24.6852   -9.3543   21.0879 N   0  0  0  0  0  0  0  0  0  0  0  0
  -25.3398   -9.9735   20.0909 N   0  0  0  0  0  0  0  0  0  0  0  0
  -26.5405  -13.5519   20.7296 N   0  0  0  0  0  0  0  0  0  0  0  0
  -23.3169  -30.0483   20.7188 N   0  0  0  0  0  0  0  0  0  0  0  0
  -26.6436   -9.5755   18.1537 N   0  0  0  0  0  0  0  0  0  0  0  0
  -25.7204   -5.4193   19.6604 N   0  0  0  0  0  0  0  0  0  0  0  0
  -28.4168  -21.4449   20.5308 N   0  0  0  0  0  0  0  0  0  0  0  0
  -24.4851  -32.9914   22.3630 N   0  0  0  0  0  0  0  0  0  0  0  0
  -20.5380  -28.7488   19.2878 N   0  0  0  0  0  0  0  0  0  0  0  0
  -21.0978  -26.7091   16.3563 N   0  3  0  0  0  0  0  0  0  0  0  0
  -26.8074   -6.6100   18.0295 O   0  0  0  0  0  0  0  0  0  0  0  0
  -28.6882  -13.6812   19.8419 O   0  0  0  0  0  0  0  0  0  0  0  0
  -28.6712  -23.0790   18.8697 O   0  0  0  0  0  0  0  0  0  0  0  0
  -24.2496  -30.7896   23.0836 O   0  0  0  0  0  0  0  0  0  0  0  0
  -21.4939  -31.3396   20.0512 O   0  0  0  0  0  0  0  0  0  0  0  0
  -21.5844  -26.6856   19.1274 O   0  0  0  0  0  0  0  0  0  0  0  0
  -28.8909  -23.4152   22.3903 O   0  0  0  0  0  0  0  0  0  0  0  0
  -22.7203   -4.1448   24.1782 O   0  0  0  0  0  0  0  0  0  0  0  0
  -27.8078  -25.9573   21.7902 O   0  0  0  0  0  0  0  0  0  1  0  0
  -20.2404    0.1685   21.8014 F   0  0  0  0  0  0  0  0  0  0  0  0
  -20.0550   -3.5957   24.6652 F   0  0  0  0  0  0  0  0  0  0  0  0
  -28.2947  -18.7783   20.6828 S   0  0  0  0  0  0  0  0  0  0  0  0
  1  2  1  0  0  0  0
  1  5  2  0  0  0  0
  2  6  2  0  0  0  0
  3  8  2  0  0  0  0
  3 16  1  0  0  0  0
  4  9  1  0  0  0  0
  4 16  2  0  0  0  0
  5 18  1  0  0  0  0
  6 20  1  0  0  0  0
  7 10  2  0  0  0  0
  7 19  1  0  0  0  0
  8 23  1  0  0  0  0
  9 23  2  0  0  0  0
 10 24  1  0  0  0  0
 11 12  2  0  0  0  0
 11 25  1  0  0  0  0
 12 26  1  0  0  0  0
 13 21  1  0  0  0  0
 13 24  2  0  0  0  0
 14 22  1  0  0  0  0
 14 31  2  0  0  0  0
 15 26  2  0  0  0  0
 15 27  1  0  0  0  0
 16 28  1  0  0  0  0
 17 28  1  0  0  0  0
 17 30  2  0  0  0  0
 17 35  1  0  0  0  0
 18 20  2  0  0  0  0
 18 42  1  0  0  0  0
 19 21  2  0  0  0  0
 19 43  1  0  0  0  0
 20 51  1  0  0  0  0
 21 44  1  0  0  0  0
 22 29  2  0  0  0  0
 22 54  1  0  0  0  0
 23 80  1  0  0  0  0
 24 81  1  0  0  0  0
 25 27  2  0  0  0  0
 25 80  1  0  0  0  0
 26 82  1  0  0  0  0
 27 83  1  0  0  0  0
 28 63  2  0  0  0  0
 29 32  1  0  0  0  0
 29 84  1  0  0  0  0
 30 64  1  0  0  0  0
 30 67  1  0  0  0  0
 31 69  1  0  0  0  0
 31 84  1  0  0  0  0
 32 33  2  0  0  0  0
 33 37  1  0  0  0  0
 34 36  2  0  0  0  0
 34 81  1  0  0  0  0
 35 68  1  0  0  0  0
 35 73  2  0  0  0  0
 36 38  1  0  0  0  0
 36 79  1  0  0  0  0
 37 65  1  0  0  0  0
 37 74  2  0  0  0  0
 38 69  1  0  0  0  0
 38 75  2  0  0  0  0
 39 52  1  0  0  0  0
 39 70  1  0  0  0  0
 39 76  2  0  0  0  0
 40 60  1  0  0  0  0
 40 66  1  0  0  0  0
 40 77  2  0  0  0  0
 41 61  1  0  0  0  0
 41 71  1  0  0  0  0
 41 78  2  0  0  0  0
 42 45  1  0  0  0  0
 43 52  1  0  0  0  0
 44 66  1  0  0  0  0
 45 47  1  0  0  0  0
 46 48  1  0  0  0  0
 46 49  1  0  0  0  0
 47 51  1  0  0  0  0
 48 53  1  0  0  0  0
 49 65  1  0  0  0  0
 50 53  1  0  0  0  0
 50 65  1  0  0  0  0
 51 70  1  0  0  0  0
 52 66  1  0  0  0  0
 53 64  1  0  0  0  0
 55 61  1  0  0  0  0
 56 62  1  0  0  0  0
 57 62  1  0  0  0  0
 58 62  1  0  0  0  0
 59 72  1  0  0  0  0
 60 62  1  0  0  0  0
 60 71  1  0  0  0  0
 61 72  1  0  0  0  0
 63 64  1  0  0  0  0
M  CHG  1  72   1
M  ISO  4  33 100  34 101  37 100  81 101
M  END
> <Batch ID>
0179

> <Smiles>
CNC(C)C(=O)NC(C(=O)N1Cc2cc([101O:1][101CH2:1]C(=O)C(=O)Nc3cc(C)c(C=[100CH:0][100C:0](=O)N4CCCC(n5nc(-c6ccc(Oc7ccc(F)cc7F)cc6)c(C(N)=O)c5N)C4)s3)ccc2CC1C(=O)NC1CCCc2ccccc21)C(C)(C)C

> <Shape>
0.278

> <Color>
0.059

> <Negative vol penalty>
0.000

$$$$

  -OEChem-04052304473D

 90 99  0     1  0  0  0  0  0999 V2000
  -27.4387  -38.1887   24.7807 C   0  0  0  0  0  0  0  0  0  0  0  0
  -28.1443  -37.0097   24.9986 C   0  0  0  0  0  0  0  0  0  0  0  0
  -24.6882   -8.9295   21.3927 C   0  0  0  0  0  0  0  0  0  0  0  0
  -22.9556  -10.4479   20.6650 C   0  0  0  0  0  0  0  0  0  0  0  0
  -26.0447  -38.1722   24.7618 C   0  0  0  0  0  0  0  0  0  0  0  0
  -27.4561  -35.8135   25.1987 C   0  0  0  0  0  0  0  0  0  0  0  0
  -28.4989  -30.1635   20.8535 C   0  0  0  0  0  0  0  0  0  0  0  0
  -23.7419   -7.9135   21.5258 C   0  0  0  0  0  0  0  0  0  0  0  0
  -22.0093   -9.4319   20.7981 C   0  0  0  0  0  0  0  0  0  0  0  0
  -28.7991  -28.9711   20.1946 C   0  0  0  0  0  0  0  0  0  0  0  0
  -21.3748   -6.9915   23.7554 C   0  0  0  0  0  0  0  0  0  0  0  0
  -21.4222   -6.2099   24.9097 C   0  0  0  0  0  0  0  0  0  0  0  0
  -27.0894  -27.8262   21.4650 C   0  0  0  0  0  0  0  0  0  0  0  0
  -21.7710   -4.2370   23.5594 C   0  0  0  0  0  0  0  0  0  0  0  0
  -22.9525  -18.5027   19.0152 C   0  0  0  0  0  0  0  0  0  0  0  0
  -24.2951  -10.1968   20.9623 C   0  0  0  0  0  0  0  0  0  0  0  0
  -26.4063  -11.2492   19.9913 C   0  0  0  0  0  0  0  0  0  0  0  0
  -25.3393  -36.9736   24.9522 C   0  0  0  0  0  0  0  0  0  0  0  0
  -27.4812  -30.1953   21.8109 C   0  0  0  0  0  0  0  0  0  0  0  0
  -26.0513  -35.7812   25.1837 C   0  0  0  0  0  0  0  0  0  0  0  0
  -26.7758  -29.0205   22.1194 C   0  0  0  0  0  0  0  0  0  0  0  0
  -22.4024   -8.1646   21.2285 C   0  0  0  0  0  0  0  0  0  0  0  0
  -28.0962  -27.8053   20.4998 C   0  0  0  0  0  0  0  0  0  0  0  0
  -21.5254   -6.3959   22.5031 C   0  0  0  0  0  0  0  0  0  0  0  0
  -21.6204   -4.8326   24.8117 C   0  0  0  0  0  0  0  0  0  0  0  0
  -21.7235   -5.0186   22.4051 C   0  0  0  0  0  0  0  0  0  0  0  0
  -25.2720  -11.2469   20.8251 C   0  0  0  0  0  0  0  0  0  0  0  0
  -23.6581  -18.6900   20.1854 C   0  0  0  0  0  0  0  0  0  0  0  0
  -27.0024  -12.4642   20.2257 C   0  0  0  0  0  0  0  0  0  0  0  0
  -23.2246  -20.7894   19.7221 C   0  0  0  0  0  0  0  0  0  0  0  0
  -27.3892  -26.0493   19.1245 C   0  0  0  0  0  0  0  0  0  1  0  0
  -26.8787  -10.2430   19.0857 C   0  0  0  0  0  0  0  0  0  0  0  0
  -27.5455  -24.9126   18.4420 C   0  0  0  0  0  0  0  0  0  0  0  0
  -26.3814  -24.3816   17.7036 C   0  0  0  0  0  0  0  0  0  0  0  0
  -25.5096  -32.2455   24.2574 C   0  0  0  0  0  0  0  0  0  0  0  0
  -23.5267  -30.3551   22.8771 C   0  0  0  0  0  0  0  0  0  0  0  0
  -20.7803  -28.8810   21.4908 C   0  0  0  0  0  0  0  0  0  0  0  0
  -24.9241  -17.7292   22.1400 C   0  0  0  0  0  0  0  0  0  0  0  0
  -23.8317  -37.0135   24.9703 C   0  0  0  0  0  0  0  0  0  0  0  0
  -27.1654  -31.4434   22.5895 C   0  0  0  0  0  0  0  0  0  0  0  0
  -25.7126  -29.0941   23.1810 C   0  0  0  0  0  0  0  0  0  0  0  0
  -23.1841  -35.6396   24.8179 C   0  0  0  0  0  0  0  0  0  0  0  0
  -27.5105  -15.7906   23.6332 C   0  0  0  0  0  0  0  0  0  0  0  0
  -23.8591  -34.6264   25.7370 C   0  0  0  0  0  0  0  0  0  0  0  0
  -27.3370  -14.4072   23.0021 C   0  0  0  0  0  0  0  0  0  0  0  0
  -24.4386  -22.9136   20.5526 C   0  0  0  0  0  0  0  0  0  0  0  0
  -26.1664  -16.4712   23.8861 C   0  0  0  0  0  0  0  0  0  0  0  0
  -24.3696  -22.9714   17.6421 C   0  0  0  0  0  0  0  0  0  0  0  0
  -25.1061  -15.1641   22.0871 C   0  0  0  0  0  0  0  0  0  0  0  0
  -25.3411  -34.4594   25.3802 C   0  0  1  0  0  0  0  0  0  0  0  0
  -25.6686  -31.5868   22.9186 C   0  0  1  0  0  0  0  0  0  0  0  0
  -23.0609  -23.0852   18.4442 C   0  0  1  0  0  0  0  0  0  0  0  0
  -26.4349  -14.4664   21.7538 C   0  0  2  0  0  0  0  0  0  0  0  0
  -25.7425  -22.9565   19.7274 C   0  0  1  0  0  0  0  0  0  0  0  0
  -23.1814  -22.3385   19.8275 C   0  0  1  0  0  0  0  0  0  0  0  0
  -22.6663  -24.5728   18.5410 C   0  0  0  0  0  0  0  0  0  0  0  0
  -26.4747  -21.6145   19.6661 C   0  0  0  0  0  0  0  0  0  0  0  0
  -21.9360  -22.6478   20.7012 C   0  0  0  0  0  0  0  0  0  0  0  0
  -18.4143  -28.2333   22.0198 C   0  0  0  0  0  0  0  0  0  0  0  0
  -24.5439  -27.9937   24.5180 C   0  0  0  0  0  0  0  0  0  0  0  0
  -22.3106  -26.9060   24.2058 C   0  0  0  0  0  0  0  0  0  0  0  0
  -22.4790  -29.0787   25.4197 C   0  0  0  0  0  0  0  0  0  0  0  0
  -19.7031  -30.6239   19.3552 C   0  0  0  0  0  0  0  0  0  0  0  0
  -22.8073  -29.0305   22.9133 C   0  0  1  0  0  0  0  0  0  0  0  0
  -19.3241  -29.3070   21.4435 C   0  0  2  0  0  0  0  0  0  0  0  0
  -23.0507  -28.2601   24.2417 C   0  0  0  0  0  0  0  0  0  0  0  0
  -25.1527  -12.3712   21.5363 N   0  0  0  0  0  0  0  0  0  0  0  0
  -23.8155  -20.0006   20.5920 N   0  0  0  0  0  0  0  0  0  0  0  0
  -26.2196  -13.0912   21.1500 N   0  0  0  0  0  0  0  0  0  0  0  0
  -25.5255  -23.5009   18.3709 N   0  0  0  0  0  0  0  0  0  0  0  0
  -24.9198  -30.3222   23.0136 N   0  0  0  0  0  0  0  0  0  0  0  0
  -25.3678  -16.4944   22.6587 N   0  0  0  0  0  0  0  0  0  0  0  0
  -28.1145  -13.0466   19.7294 N   0  0  0  0  0  0  0  0  0  0  0  0
  -26.4318  -10.2763   17.7577 N   0  0  0  0  0  0  0  0  0  0  0  0
  -24.2013  -17.6291   20.9516 N   0  0  0  0  0  0  0  0  0  0  0  0
  -25.4875  -33.6262   24.2060 N   0  0  0  0  0  0  0  0  0  0  0  0
  -21.4040  -29.3206   22.6393 N   0  0  0  0  0  0  0  0  0  0  0  0
  -18.9071  -29.5712   20.0373 N   0  3  0  0  0  0  0  0  0  0  0  0
  -27.6608   -9.3314   19.4476 O   0  0  0  0  0  0  0  0  0  0  0  0
  -26.2365  -24.7507   16.5365 O   0  0  0  0  0  0  0  0  0  0  0  0
  -25.4123  -31.5529   25.2637 O   0  0  0  0  0  0  0  0  0  0  0  0
  -22.8732  -31.3928   22.7372 O   0  0  0  0  0  0  0  0  0  0  0  0
  -21.3105  -28.2209   20.6000 O   0  0  0  0  0  0  0  0  0  0  0  0
  -25.1905  -18.7990   22.6936 O   0  0  0  0  0  0  0  0  0  0  0  0
  -28.7381  -24.2299   18.4039 O   0  0  0  0  0  0  0  0  0  0  0  0
  -21.4788   -7.1733   21.3581 O   0  0  0  0  0  0  0  0  0  0  0  0
  -28.3934  -26.6373   19.8448 O   0  0  0  0  0  0  0  0  0  1  0  0
  -21.6675   -4.0824   25.9203 F   0  0  0  0  0  0  0  0  0  0  0  0
  -21.8700   -4.4409   21.2048 F   0  0  0  0  0  0  0  0  0  0  0  0
  -22.4597  -20.0223   18.3912 S   0  0  0  0  0  0  0  0  0  0  0  0
  1  2  1  0  0  0  0
  1  5  2  0  0  0  0
  2  6  2  0  0  0  0
  3  8  2  0  0  0  0
  3 16  1  0  0  0  0
  4  9  1  0  0  0  0
  4 16  2  0  0  0  0
  5 18  1  0  0  0  0
  6 20  1  0  0  0  0
  7 10  2  0  0  0  0
  7 19  1  0  0  0  0
  8 22  1  0  0  0  0
  9 22  2  0  0  0  0
 10 23  1  0  0  0  0
 11 12  2  0  0  0  0
 11 24  1  0  0  0  0
 12 25  1  0  0  0  0
 13 21  1  0  0  0  0
 13 23  2  0  0  0  0
 14 25  2  0  0  0  0
 14 26  1  0  0  0  0
 15 28  2  0  0  0  0
 15 90  1  0  0  0  0
 16 27  1  0  0  0  0
 17 27  1  0  0  0  0
 17 29  2  0  0  0  0
 17 32  1  0  0  0  0
 18 20  2  0  0  0  0
 18 39  1  0  0  0  0
 19 21  2  0  0  0  0
 19 40  1  0  0  0  0
 20 50  1  0  0  0  0
 21 41  1  0  0  0  0
 22 86  1  0  0  0  0
 23 87  1  0  0  0  0
 24 26  2  0  0  0  0
 24 86  1  0  0  0  0
 25 88  1  0  0  0  0
 26 89  1  0  0  0  0
 27 67  2  0  0  0  0
 28 68  1  0  0  0  0
 28 75  1  0  0  0  0
 29 69  1  0  0  0  0
 29 73  1  0  0  0  0
 30 55  1  0  0  0  0
 30 68  2  0  0  0  0
 30 90  1  0  0  0  0
 31 33  2  0  0  0  0
 31 87  1  0  0  0  0
 32 74  1  0  0  0  0
 32 79  2  0  0  0  0
 33 34  1  0  0  0  0
 33 85  1  0  0  0  0
 34 70  1  0  0  0  0
 34 80  2  0  0  0  0
 35 51  1  0  0  0  0
 35 76  1  0  0  0  0
 35 81  2  0  0  0  0
 36 64  1  0  0  0  0
 36 71  1  0  0  0  0
 36 82  2  0  0  0  0
 37 65  1  0  0  0  0
 37 77  1  0  0  0  0
 37 83  2  0  0  0  0
 38 72  1  0  0  0  0
 38 75  1  0  0  0  0
 38 84  2  0  0  0  0
 39 42  1  0  0  0  0
 40 51  1  0  0  0  0
 41 71  1  0  0  0  0
 42 44  1  0  0  0  0
 43 45  1  0  0  0  0
 43 47  1  0  0  0  0
 44 50  1  0  0  0  0
 45 53  1  0  0  0  0
 46 54  1  0  0  0  0
 46 55  1  0  0  0  0
 47 72  1  0  0  0  0
 48 52  1  0  0  0  0
 48 70  1  0  0  0  0
 49 53  1  0  0  0  0
 49 72  1  0  0  0  0
 50 76  1  0  0  0  0
 51 71  1  0  0  0  0
 52 55  1  0  0  0  0
 52 56  1  0  0  0  0
 53 69  1  0  0  0  0
 54 57  1  0  0  0  0
 54 70  1  0  0  0  0
 55 58  1  0  0  0  0
 59 65  1  0  0  0  0
 60 66  1  0  0  0  0
 61 66  1  0  0  0  0
 62 66  1  0  0  0  0
 63 78  1  0  0  0  0
 64 66  1  0  0  0  0
 64 77  1  0  0  0  0
 65 78  1  0  0  0  0
 67 69  1  0  0  0  0
M  CHG  1  78   1
M  ISO  4  31 101  38 100  75 100  87 101
M  END
> <Batch ID>
0179

> <Smiles>
CNC(C)C(=O)NC(C(=O)N1Cc2cc([101O:1][101CH2:1]C(=O)C(=O)N3CC(C)C(C)(c4nc([100NH:0][100C:0](=O)N5CCCC(n6nc(-c7ccc(Oc8ccc(F)cc8F)cc7)c(C(N)=O)c6N)C5)cs4)CC3C)ccc2CC1C(=O)NC1CCCc2ccccc21)C(C)(C)C

> <Shape>
0.279

> <Color>
0.120

> <Negative vol penalty>
0.000

$$$$

  -OEChem-04052304473D

 86 94  0     1  0  0  0  0  0999 V2000
  -27.6288  -32.0311   27.2371 C   0  0  0  0  0  0  0  0  0  0  0  0
  -27.8816  -31.0972   26.2375 C   0  0  0  0  0  0  0  0  0  0  0  0
  -22.6940  -10.5909   20.9049 C   0  0  0  0  0  0  0  0  0  0  0  0
  -23.1141  -12.0538   22.7812 C   0  0  0  0  0  0  0  0  0  0  0  0
  -26.3628  -32.1050   27.8164 C   0  0  0  0  0  0  0  0  0  0  0  0
  -26.8688  -30.2357   25.8174 C   0  0  0  0  0  0  0  0  0  0  0  0
  -26.6280  -29.8329   20.7751 C   0  0  0  0  0  0  0  0  0  0  0  0
  -21.7048   -9.9350   21.6376 C   0  0  0  0  0  0  0  0  0  0  0  0
  -22.1248  -11.3980   23.5139 C   0  0  0  0  0  0  0  0  0  0  0  0
  -27.5713  -29.0140   20.1560 C   0  0  0  0  0  0  0  0  0  0  0  0
  -21.5476   -7.5954   24.0719 C   0  0  0  0  0  0  0  0  0  0  0  0
  -21.5341   -6.2011   24.0381 C   0  0  0  0  0  0  0  0  0  0  0  0
  -25.9324  -27.2504   20.0051 C   0  0  0  0  0  0  0  0  0  0  0  0
  -19.3048   -6.2452   23.1078 C   0  0  0  0  0  0  0  0  0  0  0  0
  -32.4535  -17.0091   19.4547 C   0  0  0  0  0  0  0  0  0  0  0  0
  -23.3987  -11.6502   21.4767 C   0  0  0  0  0  0  0  0  0  0  0  0
  -24.2578  -13.4480   19.8837 C   0  0  0  0  0  0  0  0  0  0  0  0
  -25.3312  -31.2506   27.3965 C   0  0  0  0  0  0  0  0  0  0  0  0
  -25.3308  -29.3621   21.0241 C   0  0  0  0  0  0  0  0  0  0  0  0
  -25.5881  -30.2973   26.3926 C   0  0  0  0  0  0  0  0  0  0  0  0
  -24.9737  -28.0662   20.6252 C   0  0  0  0  0  0  0  0  0  0  0  0
  -21.4202  -10.3386   22.9421 C   0  0  0  0  0  0  0  0  0  0  0  0
  -27.2244  -27.7216   19.7735 C   0  0  0  0  0  0  0  0  0  0  0  0
  -20.4396   -8.3147   23.6238 C   0  0  0  0  0  0  0  0  0  0  0  0
  -20.4128   -5.5259   23.5560 C   0  0  0  0  0  0  0  0  0  0  0  0
  -19.3183   -7.6396   23.1417 C   0  0  0  0  0  0  0  0  0  0  0  0
  -24.4211  -12.3277   20.7204 C   0  0  0  0  0  0  0  0  0  0  0  0
  -25.5187  -13.7041   19.4029 C   0  0  0  0  0  0  0  0  0  0  0  0
  -31.1287  -16.7359   19.7239 C   0  0  0  0  0  0  0  0  0  0  0  0
  -31.6481  -19.0376   19.2394 C   0  0  0  0  0  0  0  0  0  0  0  0
  -29.3754  -23.3677   19.5012 C   0  0  0  0  0  0  0  0  0  0  0  0
  -30.5237  -22.6810   19.4612 C   0  0  0  0  0  0  0  0  0  0  0  0
  -23.0725  -14.1909   19.5693 C   0  0  0  0  0  0  0  0  0  0  0  0
  -29.3769  -24.8473   19.3173 C   0  0  0  0  0  0  0  0  0  0  0  0
  -30.4926  -21.2023   19.6789 C   0  0  0  0  0  0  0  0  0  0  0  0
  -23.5862  -28.8687   23.6351 C   0  0  0  0  0  0  0  0  0  0  0  0
  -21.2490  -28.2263   21.4793 C   0  0  0  0  0  0  0  0  0  0  0  0
  -20.4120  -27.2487   18.3185 C   0  0  0  0  0  0  0  0  0  0  0  0
  -31.0052  -14.2600   20.1724 C   0  0  0  0  0  0  0  0  0  0  0  0
  -23.9923  -31.3359   28.0854 C   0  0  0  0  0  0  0  0  0  0  0  0
  -24.3170  -30.2672   21.6688 C   0  0  0  0  0  0  0  0  0  0  0  0
  -23.5884  -27.5202   20.8516 C   0  0  0  0  0  0  0  0  0  0  0  0
  -22.8689  -30.6395   27.3217 C   0  0  0  0  0  0  0  0  0  0  0  0
  -29.7647  -10.9611   19.6670 C   0  0  0  0  0  0  0  0  0  0  0  0
  -23.3177  -29.2589   26.8534 C   0  0  0  0  0  0  0  0  0  0  0  0
  -28.2504  -11.1147   19.8272 C   0  0  0  0  0  0  0  0  0  0  0  0
  -30.5315  -11.8642   20.6315 C   0  0  0  0  0  0  0  0  0  0  0  0
  -28.6379  -13.4358   20.7488 C   0  0  0  0  0  0  0  0  0  0  0  0
  -24.5084  -29.3623   25.8927 C   0  0  1  0  0  0  0  0  0  0  0  0
  -23.1764  -29.5062   22.3376 C   0  0  1  0  0  0  0  0  0  0  0  0
  -27.8231  -12.5938   19.7535 C   0  0  2  0  0  0  0  0  0  0  0  0
  -33.6852  -21.5336   18.8481 C   0  0  0  0  0  0  0  0  0  0  0  0
  -18.4218  -26.7797   16.8637 C   0  0  0  0  0  0  0  0  0  0  0  0
  -20.8314  -25.5653   22.9126 C   0  0  0  0  0  0  0  0  0  0  0  0
  -19.5565  -24.7670   20.9113 C   0  0  0  0  0  0  0  0  0  0  0  0
  -18.7235  -26.7197   22.2211 C   0  0  0  0  0  0  0  0  0  0  0  0
  -21.1661  -29.3744   16.4023 C   0  0  0  0  0  0  0  0  0  0  0  0
  -28.0191  -25.5144   19.3825 C   0  0  0  0  0  0  0  0  0  1  0  0
  -32.4680  -21.0908   18.1099 C   0  0  0  0  0  0  0  0  0  0  0  0
  -20.7690  -26.9891   20.7598 C   0  0  1  0  0  0  0  0  0  0  0  0
  -19.4318  -27.8244   17.3125 C   0  0  2  0  0  0  0  0  0  0  0  0
  -19.9968  -26.0196   21.6985 C   0  0  0  0  0  0  0  0  0  0  0  0
  -32.7531  -18.3284   19.1762 N   0  0  0  0  0  0  0  0  0  0  0  0
  -25.6859  -11.9013   20.7704 N   0  0  0  0  0  0  0  0  0  0  0  0
  -26.3288  -12.7582   19.9589 N   0  0  0  0  0  0  0  0  0  0  0  0
  -22.6345  -28.4413   21.4911 N   0  0  0  0  0  0  0  0  0  0  0  0
  -30.0766  -13.2503   20.5025 N   0  0  0  0  0  0  0  0  0  0  0  0
  -26.0023  -14.6437   18.5629 N   0  0  0  0  0  0  0  0  0  0  0  0
  -21.8607  -13.7927   20.1501 N   0  0  0  0  0  0  0  0  0  0  0  0
  -30.4514  -15.5335   20.0452 N   0  0  0  0  0  0  0  0  0  0  0  0
  -24.0618  -29.7625   24.5755 N   0  0  0  0  0  0  0  0  0  0  0  0
  -19.9939  -27.4571   19.6158 N   0  0  0  0  0  0  0  0  0  0  0  0
  -31.4952  -20.4608   19.0187 N   0  0  0  0  0  0  0  0  0  0  0  0
  -20.1569  -28.3240   16.1102 N   0  3  0  0  0  0  0  0  0  0  0  0
  -23.0846  -15.1685   18.7834 O   0  0  0  0  0  0  0  0  0  0  0  0
  -30.4126  -25.4791   19.1268 O   0  0  0  0  0  0  0  0  0  0  0  0
  -29.6460  -20.7505   20.4507 O   0  0  0  0  0  0  0  0  0  0  0  0
  -23.4776  -27.6560   23.7732 O   0  0  0  0  0  0  0  0  0  0  0  0
  -20.4246  -28.9782   22.0053 O   0  0  0  0  0  0  0  0  0  0  0  0
  -21.4435  -26.6688   17.9867 O   0  0  0  0  0  0  0  0  0  0  0  0
  -32.1988  -14.0087   19.9875 O   0  0  0  0  0  0  0  0  0  0  0  0
  -20.4548   -9.6990   23.6574 O   0  0  0  0  0  0  0  0  0  0  0  0
  -28.1435  -26.9199   19.1696 O   0  0  0  0  0  0  0  0  0  1  0  0
  -20.4006   -4.1870   23.5221 F   0  0  0  0  0  0  0  0  0  0  0  0
  -18.2513   -8.3251   22.7087 F   0  0  0  0  0  0  0  0  0  0  0  0
  -30.2122  -18.1824   19.6292 S   0  0  0  0  0  0  0  0  0  0  0  0
  1  2  1  0  0  0  0
  1  5  2  0  0  0  0
  2  6  2  0  0  0  0
  3  8  2  0  0  0  0
  3 16  1  0  0  0  0
  4  9  1  0  0  0  0
  4 16  2  0  0  0  0
  5 18  1  0  0  0  0
  6 20  1  0  0  0  0
  7 10  2  0  0  0  0
  7 19  1  0  0  0  0
  8 22  1  0  0  0  0
  9 22  2  0  0  0  0
 10 23  1  0  0  0  0
 11 12  2  0  0  0  0
 11 24  1  0  0  0  0
 12 25  1  0  0  0  0
 13 21  1  0  0  0  0
 13 23  2  0  0  0  0
 14 25  2  0  0  0  0
 14 26  1  0  0  0  0
 15 29  2  0  0  0  0
 15 63  1  0  0  0  0
 16 27  1  0  0  0  0
 17 27  1  0  0  0  0
 17 28  2  0  0  0  0
 17 33  1  0  0  0  0
 18 20  2  0  0  0  0
 18 40  1  0  0  0  0
 19 21  2  0  0  0  0
 19 41  1  0  0  0  0
 20 49  1  0  0  0  0
 21 42  1  0  0  0  0
 22 82  1  0  0  0  0
 23 83  1  0  0  0  0
 24 26  2  0  0  0  0
 24 82  1  0  0  0  0
 25 84  1  0  0  0  0
 26 85  1  0  0  0  0
 27 64  2  0  0  0  0
 28 65  1  0  0  0  0
 28 68  1  0  0  0  0
 29 70  1  0  0  0  0
 29 86  1  0  0  0  0
 30 63  2  0  0  0  0
 30 73  1  0  0  0  0
 30 86  1  0  0  0  0
 31 32  2  0  0  0  0
 31 34  1  0  0  0  0
 32 35  1  0  0  0  0
 33 69  1  0  0  0  0
 33 75  2  0  0  0  0
 34 58  1  0  0  0  0
 34 76  2  0  0  0  0
 35 73  1  0  0  0  0
 35 77  2  0  0  0  0
 36 50  1  0  0  0  0
 36 71  1  0  0  0  0
 36 78  2  0  0  0  0
 37 60  1  0  0  0  0
 37 66  1  0  0  0  0
 37 79  2  0  0  0  0
 38 61  1  0  0  0  0
 38 72  1  0  0  0  0
 38 80  2  0  0  0  0
 39 67  1  0  0  0  0
 39 70  1  0  0  0  0
 39 81  2  0  0  0  0
 40 43  1  0  0  0  0
 41 50  1  0  0  0  0
 42 66  1  0  0  0  0
 43 45  1  0  0  0  0
 44 46  1  0  0  0  0
 44 47  1  0  0  0  0
 45 49  1  0  0  0  0
 46 51  1  0  0  0  0
 47 67  1  0  0  0  0
 48 51  1  0  0  0  0
 48 67  1  0  0  0  0
 49 71  1  0  0  0  0
 50 66  1  0  0  0  0
 51 65  1  0  0  0  0
 52 59  1  0  0  0  0
 53 61  1  0  0  0  0
 54 62  1  0  0  0  0
 55 62  1  0  0  0  0
 56 62  1  0  0  0  0
 57 74  1  0  0  0  0
 58 83  1  0  0  0  0
 59 73  1  0  0  0  0
 60 62  1  0  0  0  0
 60 72  1  0  0  0  0
 61 74  1  0  0  0  0
 64 65  1  0  0  0  0
M  CHG  1  74   1
M  ISO  4  39 100  58 101  70 100  83 101
M  END
> <Batch ID>
0179

> <Smiles>
CCN(C(=O)C=CC(=O)[101CH2:1][101O:1]c1ccc2c(c1)CN(C(=O)C(NC(=O)C(C)NC)C(C)(C)C)C(C(=O)NC1CCCc3ccccc31)C2)c1ncc([100NH:0][100C:0](=O)N2CCCC(n3nc(-c4ccc(Oc5ccc(F)cc5F)cc4)c(C(N)=O)c3N)C2)s1

> <Shape>
0.298

> <Color>
0.112

> <Negative vol penalty>
0.000

$$$$

  -OEChem-04052304473D

 88 96  0     1  0  0  0  0  0999 V2000
  -17.4847  -30.6762   19.9808 C   0  0  0  0  0  0  0  0  0  0  0  0
  -18.0701  -29.4780   19.5847 C   0  0  0  0  0  0  0  0  0  0  0  0
  -23.2075   -9.8850   19.9377 C   0  0  0  0  0  0  0  0  0  0  0  0
  -23.7861   -9.9492   22.2825 C   0  0  0  0  0  0  0  0  0  0  0  0
  -17.2566  -30.9256   21.3335 C   0  0  0  0  0  0  0  0  0  0  0  0
  -18.4287  -28.5288   20.5411 C   0  0  0  0  0  0  0  0  0  0  0  0
  -18.2263  -22.4376   19.9395 C   0  0  0  0  0  0  0  0  0  0  0  0
  -22.4729   -8.7186   20.1509 C   0  0  0  0  0  0  0  0  0  0  0  0
  -23.0514   -8.7828   22.4957 C   0  0  0  0  0  0  0  0  0  0  0  0
  -19.2048  -21.4920   19.6357 C   0  0  0  0  0  0  0  0  0  0  0  0
  -19.8052   -7.9175   22.8612 C   0  0  0  0  0  0  0  0  0  0  0  0
  -18.9604   -7.8791   23.9705 C   0  0  0  0  0  0  0  0  0  0  0  0
  -19.5163  -21.0670   21.9898 C   0  0  0  0  0  0  0  0  0  0  0  0
  -28.1268  -18.2360   20.3059 C   0  0  0  0  0  0  0  0  0  0  0  0
  -20.1846   -5.9849   24.8371 C   0  0  0  0  0  0  0  0  0  0  0  0
  -23.8641  -10.5003   21.0035 C   0  0  0  0  0  0  0  0  0  0  0  0
  -24.1566  -13.0306   20.8630 C   0  0  0  0  0  0  0  0  0  0  0  0
  -17.6038  -29.9749   22.3063 C   0  0  0  0  0  0  0  0  0  0  0  0
  -17.8926  -22.7133   21.2733 C   0  0  0  0  0  0  0  0  0  0  0  0
  -18.2063  -28.7662   21.9082 C   0  0  0  0  0  0  0  0  0  0  0  0
  -18.5314  -22.0147   22.3077 C   0  0  0  0  0  0  0  0  0  0  0  0
  -29.2737  -17.4479   20.2937 C   0  0  0  0  0  0  0  0  0  0  0  0
  -22.3948   -8.1675   21.4299 C   0  0  0  0  0  0  0  0  0  0  0  0
  -19.8520  -20.8086   20.6610 C   0  0  0  0  0  0  0  0  0  0  0  0
  -20.8396   -6.9896   22.7398 C   0  0  0  0  0  0  0  0  0  0  0  0
  -19.1501   -6.9128   24.9584 C   0  0  0  0  0  0  0  0  0  0  0  0
  -21.0293   -6.0233   23.7277 C   0  0  0  0  0  0  0  0  0  0  0  0
  -29.5498  -16.6421   19.1932 C   0  0  0  0  0  0  0  0  0  0  0  0
  -24.6236  -11.7049   20.7839 C   0  0  0  0  0  0  0  0  0  0  0  0
  -25.2564  -13.8000   20.5715 C   0  0  0  0  0  0  0  0  0  0  0  0
  -27.2781  -18.1980   19.2087 C   0  0  0  0  0  0  0  0  0  0  0  0
  -28.6650  -16.6443   18.1243 C   0  0  0  0  0  0  0  0  0  0  0  0
  -21.9114  -20.3000   19.6758 C   0  0  0  0  0  0  0  0  0  1  0  0
  -22.8459  -13.5226   21.1725 C   0  0  0  0  0  0  0  0  0  0  0  0
  -22.9111  -19.4795   19.3342 C   0  0  0  0  0  0  0  0  0  0  0  0
  -24.0631  -20.0356   18.5834 C   0  0  0  0  0  0  0  0  0  0  0  0
  -25.1617  -19.0836   18.2200 C   0  0  0  0  0  0  0  0  0  0  0  0
  -18.0353  -25.2853   23.1356 C   0  0  0  0  0  0  0  0  0  0  0  0
  -16.4834  -23.3669   25.2412 C   0  0  0  0  0  0  0  0  0  0  0  0
  -15.7569  -20.1993   26.2832 C   0  0  0  0  0  0  0  0  0  0  0  0
  -29.6455  -14.5947   17.0618 C   0  0  0  0  0  0  0  0  0  0  0  0
  -17.3811  -30.3092   23.7600 C   0  0  0  0  0  0  0  0  0  0  0  0
  -16.8160  -23.7169   21.5833 C   0  0  0  0  0  0  0  0  0  0  0  0
  -18.1953  -22.2593   23.7553 C   0  0  0  0  0  0  0  0  0  0  0  0
  -17.4473  -29.0940   24.6815 C   0  0  0  0  0  0  0  0  0  0  0  0
  -30.1390  -12.6000   20.1393 C   0  0  0  0  0  0  0  0  0  0  0  0
  -18.6647  -28.2373   24.3487 C   0  0  0  0  0  0  0  0  0  0  0  0
  -28.7111  -12.2293   20.5360 C   0  0  0  0  0  0  0  0  0  0  0  0
  -30.2767  -12.7899   18.6318 C   0  0  0  0  0  0  0  0  0  0  0  0
  -27.8843  -13.4137   18.4635 C   0  0  0  0  0  0  0  0  0  0  0  0
  -18.5866  -27.7014   22.9140 C   0  0  1  0  0  0  0  0  0  0  0  0
  -16.9202  -24.2882   22.9940 C   0  0  1  0  0  0  0  0  0  0  0  0
  -27.7102  -13.2564   19.9815 C   0  0  1  0  0  0  0  0  0  0  0  0
  -14.4934  -18.9495   28.0549 C   0  0  0  0  0  0  0  0  0  0  0  0
  -18.6694  -24.0296   27.2642 C   0  0  0  0  0  0  0  0  0  0  0  0
  -17.9058  -22.0723   28.6258 C   0  0  0  0  0  0  0  0  0  0  0  0
  -16.3542  -23.9804   28.2086 C   0  0  0  0  0  0  0  0  0  0  0  0
  -28.7152  -16.3768   15.6511 C   0  0  0  0  0  0  0  0  0  0  0  0
  -14.0220  -18.8815   24.2801 C   0  0  0  0  0  0  0  0  0  0  0  0
  -16.9078  -22.3967   26.3172 C   0  0  1  0  0  0  0  0  0  0  0  0
  -14.4418  -19.5374   26.6533 C   0  0  2  0  0  0  0  0  0  0  0  0
  -17.4672  -23.1163   27.5768 C   0  0  0  0  0  0  0  0  0  0  0  0
  -25.9191  -11.6326   20.4667 N   0  0  0  0  0  0  0  0  0  0  0  0
  -26.2755  -12.9226   20.3439 N   0  0  0  0  0  0  0  0  0  0  0  0
  -27.5680  -17.4129   18.1622 N   0  3  0  0  0  0  0  0  0  0  0  0
  -17.1403  -23.2546   24.0077 N   0  0  0  0  0  0  0  0  0  0  0  0
  -29.2788  -13.7245   18.1089 N   0  0  0  0  0  0  0  0  0  0  0  0
  -30.1532  -17.4682   21.3956 N   0  0  0  0  0  0  0  0  0  0  0  0
  -25.4414  -15.1348   20.4900 N   0  0  0  0  0  0  0  0  0  0  0  0
  -21.8318  -12.5950   21.4474 N   0  0  0  0  0  0  0  0  0  0  0  0
  -26.1110  -18.9964   19.2156 N   0  0  0  0  0  0  0  0  0  0  0  0
  -17.6690  -26.5847   22.8409 N   0  0  0  0  0  0  0  0  0  0  0  0
  -15.7518  -21.5461   26.5789 N   0  0  0  0  0  0  0  0  0  0  0  0
  -28.9429  -15.8120   16.9794 N   0  0  0  0  0  0  0  0  0  0  0  0
  -14.1262  -18.4407   25.6950 N   0  3  0  0  0  0  0  0  0  0  0  0
  -22.5779  -14.7479   21.1883 O   0  0  0  0  0  0  0  0  0  0  0  0
  -24.1974  -21.2031   18.2521 O   0  0  0  0  0  0  0  0  0  0  0  0
  -25.0687  -18.5231   17.1409 O   0  0  0  0  0  0  0  0  0  0  0  0
  -19.1455  -24.9041   23.4877 O   0  0  0  0  0  0  0  0  0  0  0  0
  -15.5965  -24.1891   25.4840 O   0  0  0  0  0  0  0  0  0  0  0  0
  -16.6961  -19.5825   25.7852 O   0  0  0  0  0  0  0  0  0  0  0  0
  -30.5013  -14.2857   16.2236 O   0  0  0  0  0  0  0  0  0  0  0  0
  -22.9246  -18.1383   19.6470 O   0  0  0  0  0  0  0  0  0  0  0  0
  -21.6779   -7.0295   21.6383 O   0  0  0  0  0  0  0  0  0  0  0  0
  -20.8079  -19.8857   20.3674 O   0  0  0  0  0  0  0  0  0  1  0  0
  -18.3398   -6.8770   26.0244 F   0  0  0  0  0  0  0  0  0  0  0  0
  -22.0221   -5.1300   23.6172 F   0  0  0  0  0  0  0  0  0  0  0  0
  -30.6512  -15.8778   19.1685 F   0  0  0  0  0  0  0  0  0  0  0  0
  1  2  1  0  0  0  0
  1  5  2  0  0  0  0
  2  6  2  0  0  0  0
  3  8  2  0  0  0  0
  3 16  1  0  0  0  0
  4  9  1  0  0  0  0
  4 16  2  0  0  0  0
  5 18  1  0  0  0  0
  6 20  1  0  0  0  0
  7 10  2  0  0  0  0
  7 19  1  0  0  0  0
  8 23  1  0  0  0  0
  9 23  2  0  0  0  0
 10 24  1  0  0  0  0
 11 12  2  0  0  0  0
 11 25  1  0  0  0  0
 12 26  1  0  0  0  0
 13 21  1  0  0  0  0
 13 24  2  0  0  0  0
 14 22  2  0  0  0  0
 14 31  1  0  0  0  0
 15 26  2  0  0  0  0
 15 27  1  0  0  0  0
 16 29  1  0  0  0  0
 17 29  1  0  0  0  0
 17 30  2  0  0  0  0
 17 34  1  0  0  0  0
 18 20  2  0  0  0  0
 18 42  1  0  0  0  0
 19 21  2  0  0  0  0
 19 43  1  0  0  0  0
 20 51  1  0  0  0  0
 21 44  1  0  0  0  0
 22 28  1  0  0  0  0
 22 68  1  0  0  0  0
 23 84  1  0  0  0  0
 24 85  1  0  0  0  0
 25 27  2  0  0  0  0
 25 84  1  0  0  0  0
 26 86  1  0  0  0  0
 27 87  1  0  0  0  0
 28 32  2  0  0  0  0
 28 88  1  0  0  0  0
 29 63  2  0  0  0  0
 30 64  1  0  0  0  0
 30 69  1  0  0  0  0
 31 65  2  0  0  0  0
 31 71  1  0  0  0  0
 32 65  1  0  0  0  0
 32 74  1  0  0  0  0
 33 35  2  0  0  0  0
 33 85  1  0  0  0  0
 34 70  1  0  0  0  0
 34 76  2  0  0  0  0
 35 36  1  0  0  0  0
 35 83  1  0  0  0  0
 36 37  1  0  0  0  0
 36 77  2  0  0  0  0
 37 71  1  0  0  0  0
 37 78  2  0  0  0  0
 38 52  1  0  0  0  0
 38 72  1  0  0  0  0
 38 79  2  0  0  0  0
 39 60  1  0  0  0  0
 39 66  1  0  0  0  0
 39 80  2  0  0  0  0
 40 61  1  0  0  0  0
 40 73  1  0  0  0  0
 40 81  2  0  0  0  0
 41 67  1  0  0  0  0
 41 74  1  0  0  0  0
 41 82  2  0  0  0  0
 42 45  1  0  0  0  0
 43 52  1  0  0  0  0
 44 66  1  0  0  0  0
 45 47  1  0  0  0  0
 46 48  1  0  0  0  0
 46 49  1  0  0  0  0
 47 51  1  0  0  0  0
 48 53  1  0  0  0  0
 49 67  1  0  0  0  0
 50 53  1  0  0  0  0
 50 67  1  0  0  0  0
 51 72  1  0  0  0  0
 52 66  1  0  0  0  0
 53 64  1  0  0  0  0
 54 61  1  0  0  0  0
 55 62  1  0  0  0  0
 56 62  1  0  0  0  0
 57 62  1  0  0  0  0
 58 74  1  0  0  0  0
 59 75  1  0  0  0  0
 60 62  1  0  0  0  0
 60 73  1  0  0  0  0
 61 75  1  0  0  0  0
 63 64  1  0  0  0  0
M  CHG  2  65   1  75   1
M  ISO  4  33 101  41 100  74 100  85 101
M  END
> <Batch ID>
0179

> <Smiles>
CNC(C)C(=O)NC(C(=O)N1Cc2cc([101O:1][101CH2:1]C(=O)C(=O)C(=O)Nc3cc(N)c(F)c([100N:0](C)[100C:0](=O)N4CCCC(n5nc(-c6ccc(Oc7ccc(F)cc7F)cc6)c(C(N)=O)c5N)C4)n3)ccc2CC1C(=O)NC1CCCc2ccccc21)C(C)(C)C

> <Shape>
0.204

> <Color>
0.179

> <Negative vol penalty>
0.000

$$$$

  -OEChem-04052304473D

 85 93  0     1  0  0  0  0  0999 V2000
  -32.7775  -23.7296   10.2773 C   0  0  0  0  0  0  0  0  0  0  0  0
  -33.3332  -23.3550   11.4964 C   0  0  0  0  0  0  0  0  0  0  0  0
  -23.0018   -9.8890   19.9813 C   0  0  0  0  0  0  0  0  0  0  0  0
  -23.7271   -9.9427   22.2852 C   0  0  0  0  0  0  0  0  0  0  0  0
  -32.2911  -25.0245   10.1027 C   0  0  0  0  0  0  0  0  0  0  0  0
  -33.4036  -24.2756   12.5414 C   0  0  0  0  0  0  0  0  0  0  0  0
  -31.9741  -22.2930   16.9766 C   0  0  0  0  0  0  0  0  0  0  0  0
  -22.2369   -8.7536   20.2485 C   0  0  0  0  0  0  0  0  0  0  0  0
  -22.9621   -8.8074   22.5525 C   0  0  0  0  0  0  0  0  0  0  0  0
  -32.8955  -21.4823   17.6382 C   0  0  0  0  0  0  0  0  0  0  0  0
  -23.2110   -5.4684   22.0832 C   0  0  0  0  0  0  0  0  0  0  0  0
  -23.8000   -4.4526   22.8360 C   0  0  0  0  0  0  0  0  0  0  0  0
  -33.4815  -23.3303   19.0738 C   0  0  0  0  0  0  0  0  0  0  0  0
  -22.0760   -4.6945   24.5112 C   0  0  0  0  0  0  0  0  0  0  0  0
  -23.7470  -10.4835   20.9996 C   0  0  0  0  0  0  0  0  0  0  0  0
  -24.1288  -12.9995   20.8216 C   0  0  0  0  0  0  0  0  0  0  0  0
  -32.3468  -25.9585   11.1491 C   0  0  0  0  0  0  0  0  0  0  0  0
  -31.8071  -23.6337   17.3522 C   0  0  0  0  0  0  0  0  0  0  0  0
  -32.9187  -25.5846   12.3802 C   0  0  0  0  0  0  0  0  0  0  0  0
  -32.5555  -24.1551   18.4171 C   0  0  0  0  0  0  0  0  0  0  0  0
  -22.2170   -8.2128   21.5342 C   0  0  0  0  0  0  0  0  0  0  0  0
  -33.6514  -22.0017   18.6851 C   0  0  0  0  0  0  0  0  0  0  0  0
  -22.0545   -6.0973   22.5444 C   0  0  0  0  0  0  0  0  0  0  0  0
  -23.2325   -4.0656   24.0500 C   0  0  0  0  0  0  0  0  0  0  0  0
  -21.4870   -5.7103   23.7583 C   0  0  0  0  0  0  0  0  0  0  0  0
  -24.5378  -11.6560   20.7240 C   0  0  0  0  0  0  0  0  0  0  0  0
  -31.8352  -18.6727   22.2030 C   0  0  0  0  0  0  0  0  0  0  0  0
  -25.2375  -13.7233   20.4566 C   0  0  0  0  0  0  0  0  0  0  0  0
  -30.7282  -19.0746   22.9208 C   0  0  0  0  0  0  0  0  0  0  0  0
  -30.5754  -16.9061   21.8830 C   0  0  0  0  0  0  0  0  0  0  0  0
  -22.8601  -13.5444   21.2078 C   0  0  0  0  0  0  0  0  0  0  0  0
  -32.2090  -26.4352   15.9052 C   0  0  0  0  0  0  0  0  0  0  0  0
  -30.8942  -27.5933   18.6352 C   0  0  0  0  0  0  0  0  0  0  0  0
  -30.2533  -27.1488   21.9576 C   0  0  0  0  0  0  0  0  0  0  0  0
  -34.1615  -19.1337   21.3621 C   0  0  0  0  0  0  0  0  0  0  0  0
  -30.7157  -14.6921   20.6894 C   0  0  0  0  0  0  0  0  0  0  0  0
  -31.8513  -27.3606   10.8979 C   0  0  0  0  0  0  0  0  0  0  0  0
  -30.7899  -24.4876   16.6460 C   0  0  0  0  0  0  0  0  0  0  0  0
  -32.3993  -25.5824   18.8722 C   0  0  0  0  0  0  0  0  0  0  0  0
  -31.6224  -28.1638   12.1757 C   0  0  0  0  0  0  0  0  0  0  0  0
  -29.6006  -12.2360   18.3653 C   0  0  0  0  0  0  0  0  0  0  0  0
  -32.8084  -28.0100   13.1226 C   0  0  0  0  0  0  0  0  0  0  0  0
  -28.1504  -11.9767   18.7798 C   0  0  0  0  0  0  0  0  0  0  0  0
  -30.5009  -12.4815   19.5748 C   0  0  0  0  0  0  0  0  0  0  0  0
  -28.5846  -13.2687   20.9080 C   0  0  0  0  0  0  0  0  0  0  0  0
  -32.9904  -26.5473   13.5456 C   0  0  1  0  0  0  0  0  0  0  0  0
  -31.0709  -25.9815   16.7750 C   0  0  1  0  0  0  0  0  0  0  0  0
  -27.6270  -13.0802   19.7200 C   0  0  2  0  0  0  0  0  0  0  0  0
  -36.2127  -19.2427   23.5879 C   0  0  0  0  0  0  0  0  0  0  0  0
  -29.1942  -28.2849   23.9287 C   0  0  0  0  0  0  0  0  0  0  0  0
  -33.3166  -29.4332   18.8732 C   0  0  0  0  0  0  0  0  0  0  0  0
  -32.6945  -29.8276   21.2660 C   0  0  0  0  0  0  0  0  0  0  0  0
  -31.1312  -30.5066   19.4445 C   0  0  0  0  0  0  0  0  0  0  0  0
  -28.2717  -24.9762   22.2923 C   0  0  0  0  0  0  0  0  0  0  0  0
  -35.6443  -20.4728   22.8927 C   0  0  0  0  0  0  0  0  0  0  0  0
  -34.8007  -21.5039   20.7068 C   0  0  0  0  0  0  0  0  0  1  0  0
  -31.4311  -28.0517   19.9696 C   0  0  1  0  0  0  0  0  0  0  0  0
  -28.9830  -27.3223   22.7704 C   0  0  2  0  0  0  0  0  0  0  0  0
  -35.2389  -20.2270   21.4285 C   0  0  2  0  0  0  0  0  0  0  0  0
  -32.1479  -29.4284   19.8787 C   0  0  0  0  0  0  0  0  0  0  0  0
  -25.8072  -11.5310   20.3278 N   0  0  0  0  0  0  0  0  0  0  0  0
  -31.7496  -17.4293   21.6076 N   0  0  0  0  0  0  0  0  0  0  0  0
  -26.2054  -12.8052   20.1732 N   0  0  0  0  0  0  0  0  0  0  0  0
  -31.3965  -26.3790   18.1461 N   0  0  0  0  0  0  0  0  0  0  0  0
  -29.9445  -13.5423   20.4174 N   0  0  0  0  0  0  0  0  0  0  0  0
  -25.4691  -15.0493   20.3534 N   0  0  0  0  0  0  0  0  0  0  0  0
  -21.8296  -12.6591   21.5521 N   0  0  0  0  0  0  0  0  0  0  0  0
  -33.0058  -19.4558   22.0616 N   0  0  0  0  0  0  0  0  0  0  0  0
  -30.0702  -15.6470   21.4743 N   0  0  0  0  0  0  0  0  0  0  0  0
  -32.0205  -26.1897   14.5585 N   0  0  0  0  0  0  0  0  0  0  0  0
  -30.3029  -28.0253   20.8943 N   0  0  0  0  0  0  0  0  0  0  0  0
  -28.5389  -26.0117   23.3235 N   0  3  0  0  0  0  0  0  0  0  0  0
  -22.6417  -14.7795   21.2306 O   0  0  0  0  0  0  0  0  0  0  0  0
  -33.1852  -26.9699   16.4179 O   0  0  0  0  0  0  0  0  0  0  0  0
  -30.0547  -28.2835   18.0517 O   0  0  0  0  0  0  0  0  0  0  0  0
  -31.1170  -26.3213   22.2400 O   0  0  0  0  0  0  0  0  0  0  0  0
  -34.3808  -18.1007   20.7327 O   0  0  0  0  0  0  0  0  0  0  0  0
  -31.8541  -14.8323   20.2352 O   0  0  0  0  0  0  0  0  0  0  0  0
  -21.4705   -7.1051   21.7954 O   0  0  0  0  0  0  0  0  0  0  0  0
  -34.5519  -21.2128   19.3321 O   0  0  0  0  0  0  0  0  0  1  0  0
  -23.7974   -3.0891   24.7721 F   0  0  0  0  0  0  0  0  0  0  0  0
  -20.3753   -6.3100   24.2060 F   0  0  0  0  0  0  0  0  0  0  0  0
  -30.6043  -20.2348   23.5710 F   0  0  0  0  0  0  0  0  0  0  0  0
  -36.3585  -19.7723   20.7789 F   0  0  0  0  0  0  0  0  0  0  0  0
  -29.5244  -17.8549   22.8526 S   0  0  0  0  0  0  0  0  0  0  0  0
  1  2  1  0  0  0  0
  1  5  2  0  0  0  0
  2  6  2  0  0  0  0
  3  8  2  0  0  0  0
  3 15  1  0  0  0  0
  4  9  1  0  0  0  0
  4 15  2  0  0  0  0
  5 17  1  0  0  0  0
  6 19  1  0  0  0  0
  7 10  2  0  0  0  0
  7 18  1  0  0  0  0
  8 21  1  0  0  0  0
  9 21  2  0  0  0  0
 10 22  1  0  0  0  0
 11 12  2  0  0  0  0
 11 23  1  0  0  0  0
 12 24  1  0  0  0  0
 13 20  1  0  0  0  0
 13 22  2  0  0  0  0
 14 24  2  0  0  0  0
 14 25  1  0  0  0  0
 15 26  1  0  0  0  0
 16 26  1  0  0  0  0
 16 28  2  0  0  0  0
 16 31  1  0  0  0  0
 17 19  2  0  0  0  0
 17 37  1  0  0  0  0
 18 20  2  0  0  0  0
 18 38  1  0  0  0  0
 19 46  1  0  0  0  0
 20 39  1  0  0  0  0
 21 79  1  0  0  0  0
 22 80  1  0  0  0  0
 23 25  2  0  0  0  0
 23 79  1  0  0  0  0
 24 81  1  0  0  0  0
 25 82  1  0  0  0  0
 26 61  2  0  0  0  0
 27 29  2  0  0  0  0
 27 62  1  0  0  0  0
 27 68  1  0  0  0  0
 28 63  1  0  0  0  0
 28 66  1  0  0  0  0
 29 83  1  0  0  0  0
 29 85  1  0  0  0  0
 30 62  2  0  0  0  0
 30 69  1  0  0  0  0
 30 85  1  0  0  0  0
 31 67  1  0  0  0  0
 31 73  2  0  0  0  0
 32 47  1  0  0  0  0
 32 70  1  0  0  0  0
 32 74  2  0  0  0  0
 33 57  1  0  0  0  0
 33 64  1  0  0  0  0
 33 75  2  0  0  0  0
 34 58  1  0  0  0  0
 34 71  1  0  0  0  0
 34 76  2  0  0  0  0
 35 59  1  0  0  0  0
 35 68  1  0  0  0  0
 35 77  2  0  0  0  0
 36 65  1  0  0  0  0
 36 69  1  0  0  0  0
 36 78  2  0  0  0  0
 37 40  1  0  0  0  0
 38 47  1  0  0  0  0
 39 64  1  0  0  0  0
 40 42  1  0  0  0  0
 41 43  1  0  0  0  0
 41 44  1  0  0  0  0
 42 46  1  0  0  0  0
 43 48  1  0  0  0  0
 44 65  1  0  0  0  0
 45 48  1  0  0  0  0
 45 65  1  0  0  0  0
 46 70  1  0  0  0  0
 47 64  1  0  0  0  0
 48 63  1  0  0  0  0
 49 55  1  0  0  0  0
 50 58  1  0  0  0  0
 51 60  1  0  0  0  0
 52 60  1  0  0  0  0
 53 60  1  0  0  0  0
 54 72  1  0  0  0  0
 55 59  1  0  0  0  0
 56 59  1  0  0  0  0
 56 80  1  0  0  0  0
 57 60  1  0  0  0  0
 57 71  1  0  0  0  0
 58 72  1  0  0  0  0
 59 84  1  0  0  0  0
 61 63  1  0  0  0  0
M  CHG  1  72   1
M  ISO  4  36 100  56 101  69 100  80 101
M  END
> <Batch ID>
0179

> <Smiles>
CCC(F)(C(=O)Nc1nc([100NH:0][100C:0](=O)N2CCCC(n3nc(-c4ccc(Oc5ccc(F)cc5F)cc4)c(C(N)=O)c3N)C2)sc1F)[101CH2:1][101O:1]c1ccc2c(c1)CN(C(=O)C(NC(=O)C(C)NC)C(C)(C)C)C(C(=O)NC1CCCc3ccccc31)C2

> <Shape>
0.217

> <Color>
0.190

> <Negative vol penalty>
0.000

$$$$

  -OEChem-04052304473D

 82 90  0     1  0  0  0  0  0999 V2000
  -26.2116  -38.0640   23.6787 C   0  0  0  0  0  0  0  0  0  0  0  0
  -26.8907  -37.2547   22.7736 C   0  0  0  0  0  0  0  0  0  0  0  0
  -24.3941   -8.9773   21.3294 C   0  0  0  0  0  0  0  0  0  0  0  0
  -23.0300  -10.6936   20.3141 C   0  0  0  0  0  0  0  0  0  0  0  0
  -25.5277  -37.4893   24.7492 C   0  0  0  0  0  0  0  0  0  0  0  0
  -26.8871  -35.8701   22.9391 C   0  0  0  0  0  0  0  0  0  0  0  0
  -26.9838  -29.7941   19.1458 C   0  0  0  0  0  0  0  0  0  0  0  0
  -23.2511   -8.3896   21.8714 C   0  0  0  0  0  0  0  0  0  0  0  0
  -21.8870  -10.1058   20.8561 C   0  0  0  0  0  0  0  0  0  0  0  0
  -27.6867  -28.5937   19.0524 C   0  0  0  0  0  0  0  0  0  0  0  0
  -20.7351   -6.3942   20.8125 C   0  0  0  0  0  0  0  0  0  0  0  0
  -20.6096   -5.0086   20.7134 C   0  0  0  0  0  0  0  0  0  0  0  0
  -26.4052  -27.7070   20.8938 C   0  0  0  0  0  0  0  0  0  0  0  0
  -20.5300   -4.8435   23.1225 C   0  0  0  0  0  0  0  0  0  0  0  0
  -25.8890  -20.0608   19.0570 C   0  0  0  0  0  0  0  0  0  0  0  0
  -24.2835  -10.1294   20.5508 C   0  0  0  0  0  0  0  0  0  0  0  0
  -26.0497  -10.4635   18.7406 C   0  0  0  0  0  0  0  0  0  0  0  0
  -25.5077  -36.0963   24.9224 C   0  0  0  0  0  0  0  0  0  0  0  0
  -25.9921  -29.9641   20.1226 C   0  0  0  0  0  0  0  0  0  0  0  0
  -26.2034  -35.2763   24.0136 C   0  0  0  0  0  0  0  0  0  0  0  0
  -25.6893  -28.9096   20.9958 C   0  0  0  0  0  0  0  0  0  0  0  0
  -21.9976   -8.9538   21.6348 C   0  0  0  0  0  0  0  0  0  0  0  0
  -27.3995  -27.5510   19.9284 C   0  0  0  0  0  0  0  0  0  0  0  0
  -20.7582   -7.0045   22.0666 C   0  0  0  0  0  0  0  0  0  0  0  0
  -20.5070   -4.2332   21.8683 C   0  0  0  0  0  0  0  0  0  0  0  0
  -20.6556   -6.2291   23.2216 C   0  0  0  0  0  0  0  0  0  0  0  0
  -25.4639  -10.7373   19.9911 C   0  0  0  0  0  0  0  0  0  0  0  0
  -27.0706  -20.3710   19.6970 C   0  0  0  0  0  0  0  0  0  0  0  0
  -27.1400  -11.2968   18.6824 C   0  0  0  0  0  0  0  0  0  0  0  0
  -27.0275  -18.2176   20.1101 C   0  0  0  0  0  0  0  0  0  0  0  0
  -27.3763  -25.2368   19.5895 C   0  0  0  0  0  0  0  0  0  1  0  0
  -25.6445   -9.5387   17.7227 C   0  0  0  0  0  0  0  0  0  0  0  0
  -27.9469  -24.0307   19.4824 C   0  0  0  0  0  0  0  0  0  0  0  0
  -27.0810  -22.8384   19.2048 C   0  0  0  0  0  0  0  0  0  0  0  0
  -25.5927  -31.9187   22.5972 C   0  0  0  0  0  0  0  0  0  0  0  0
  -22.6848  -30.4900   22.7576 C   0  0  0  0  0  0  0  0  0  0  0  0
  -20.7486  -27.7724   22.0416 C   0  0  0  0  0  0  0  0  0  0  0  0
  -28.4405  -16.5069   21.3031 C   0  0  0  0  0  0  0  0  0  0  0  0
  -24.7941  -35.5241   26.1215 C   0  0  0  0  0  0  0  0  0  0  0  0
  -25.2244  -31.2556   20.1929 C   0  0  0  0  0  0  0  0  0  0  0  0
  -24.6199  -29.0343   22.0490 C   0  0  0  0  0  0  0  0  0  0  0  0
  -24.5270  -34.0250   26.0132 C   0  0  0  0  0  0  0  0  0  0  0  0
  -30.3283  -13.4945   21.4999 C   0  0  0  0  0  0  0  0  0  0  0  0
  -25.7785  -33.2925   25.5400 C   0  0  0  0  0  0  0  0  0  0  0  0
  -29.3504  -12.4215   21.0157 C   0  0  0  0  0  0  0  0  0  0  0  0
  -29.6250  -14.5740   22.3208 C   0  0  0  0  0  0  0  0  0  0  0  0
  -27.4874  -14.1210   21.1831 C   0  0  0  0  0  0  0  0  0  0  0  0
  -26.2022  -33.7687   24.1453 C   0  0  1  0  0  0  0  0  0  0  0  0
  -24.5905  -31.5003   21.5588 C   0  0  1  0  0  0  0  0  0  0  0  0
  -28.1385  -13.0465   20.2971 C   0  0  2  0  0  0  0  0  0  0  0  0
  -18.4210  -26.8805   22.3320 C   0  0  0  0  0  0  0  0  0  0  0  0
  -23.2903  -29.8691   25.6830 C   0  0  0  0  0  0  0  0  0  0  0  0
  -21.4219  -28.2031   25.6437 C   0  0  0  0  0  0  0  0  0  0  0  0
  -20.9459  -30.6181   25.2391 C   0  0  0  0  0  0  0  0  0  0  0  0
  -20.3186  -27.6172   19.1176 C   0  0  0  0  0  0  0  0  0  0  0  0
  -22.1290  -29.2723   23.4556 C   0  0  1  0  0  0  0  0  0  0  0  0
  -19.3659  -27.6548   21.4262 C   0  0  2  0  0  0  0  0  0  0  0  0
  -21.9683  -29.4886   24.9868 C   0  0  0  0  0  0  0  0  0  0  0  0
  -26.1272  -11.6714   20.6777 N   0  0  0  0  0  0  0  0  0  0  0  0
  -27.7246  -19.3154   20.3018 N   0  0  0  0  0  0  0  0  0  0  0  0
  -27.1411  -11.9917   19.8559 N   0  0  0  0  0  0  0  0  0  0  0  0
  -23.9014  -30.3189   22.0819 N   0  0  0  0  0  0  0  0  0  0  0  0
  -28.4906  -15.1233   21.5751 N   0  0  0  0  0  0  0  0  0  0  0  0
  -28.0883  -11.4954   17.7423 N   0  0  0  0  0  0  0  0  0  0  0  0
  -24.5006   -8.7598   17.9446 N   0  0  0  0  0  0  0  0  0  0  0  0
  -27.6095  -21.6789   19.7554 N   0  0  0  0  0  0  0  0  0  0  0  0
  -27.3316  -16.9085   20.5591 N   0  0  0  0  0  0  0  0  0  0  0  0
  -25.3606  -33.1722   23.1302 N   0  0  0  0  0  0  0  0  0  0  0  0
  -20.8878  -28.9374   22.7659 N   0  0  0  0  0  0  0  0  0  0  0  0
  -19.4409  -26.9516   20.1143 N   0  3  0  0  0  0  0  0  0  0  0  0
  -26.2873   -9.3951   16.6551 O   0  0  0  0  0  0  0  0  0  0  0  0
  -26.0432  -22.9497   18.5611 O   0  0  0  0  0  0  0  0  0  0  0  0
  -26.5078  -31.1597   22.8939 O   0  0  0  0  0  0  0  0  0  0  0  0
  -22.0590  -31.5519   22.8039 O   0  0  0  0  0  0  0  0  0  0  0  0
  -21.6170  -26.9147   21.8976 O   0  0  0  0  0  0  0  0  0  0  0  0
  -29.3308  -17.2745   21.6776 O   0  0  0  0  0  0  0  0  0  0  0  0
  -29.3069  -23.8385   19.6164 O   0  0  0  0  0  0  0  0  0  0  0  0
  -20.8821   -8.3804   22.1633 O   0  0  0  0  0  0  0  0  0  0  0  0
  -28.0846  -26.3785   19.8398 O   0  0  0  0  0  0  0  0  0  1  0  0
  -20.3849   -2.9027   21.7730 F   0  0  0  0  0  0  0  0  0  0  0  0
  -20.6759   -6.8099   24.4291 F   0  0  0  0  0  0  0  0  0  0  0  0
  -25.5752  -18.3817   19.2107 S   0  0  0  0  0  0  0  0  0  0  0  0
  1  2  1  0  0  0  0
  1  5  2  0  0  0  0
  2  6  2  0  0  0  0
  3  8  2  0  0  0  0
  3 16  1  0  0  0  0
  4  9  1  0  0  0  0
  4 16  2  0  0  0  0
  5 18  1  0  0  0  0
  6 20  1  0  0  0  0
  7 10  2  0  0  0  0
  7 19  1  0  0  0  0
  8 22  1  0  0  0  0
  9 22  2  0  0  0  0
 10 23  1  0  0  0  0
 11 12  2  0  0  0  0
 11 24  1  0  0  0  0
 12 25  1  0  0  0  0
 13 21  1  0  0  0  0
 13 23  2  0  0  0  0
 14 25  2  0  0  0  0
 14 26  1  0  0  0  0
 15 28  2  0  0  0  0
 15 82  1  0  0  0  0
 16 27  1  0  0  0  0
 17 27  1  0  0  0  0
 17 29  2  0  0  0  0
 17 32  1  0  0  0  0
 18 20  2  0  0  0  0
 18 39  1  0  0  0  0
 19 21  2  0  0  0  0
 19 40  1  0  0  0  0
 20 48  1  0  0  0  0
 21 41  1  0  0  0  0
 22 78  1  0  0  0  0
 23 79  1  0  0  0  0
 24 26  2  0  0  0  0
 24 78  1  0  0  0  0
 25 80  1  0  0  0  0
 26 81  1  0  0  0  0
 27 59  2  0  0  0  0
 28 60  1  0  0  0  0
 28 66  1  0  0  0  0
 29 61  1  0  0  0  0
 29 64  1  0  0  0  0
 30 60  2  0  0  0  0
 30 67  1  0  0  0  0
 30 82  1  0  0  0  0
 31 33  2  0  0  0  0
 31 79  1  0  0  0  0
 32 65  1  0  0  0  0
 32 71  2  0  0  0  0
 33 34  1  0  0  0  0
 33 77  1  0  0  0  0
 34 66  1  0  0  0  0
 34 72  2  0  0  0  0
 35 49  1  0  0  0  0
 35 68  1  0  0  0  0
 35 73  2  0  0  0  0
 36 56  1  0  0  0  0
 36 62  1  0  0  0  0
 36 74  2  0  0  0  0
 37 57  1  0  0  0  0
 37 69  1  0  0  0  0
 37 75  2  0  0  0  0
 38 63  1  0  0  0  0
 38 67  1  0  0  0  0
 38 76  2  0  0  0  0
 39 42  1  0  0  0  0
 40 49  1  0  0  0  0
 41 62  1  0  0  0  0
 42 44  1  0  0  0  0
 43 45  1  0  0  0  0
 43 46  1  0  0  0  0
 44 48  1  0  0  0  0
 45 50  1  0  0  0  0
 46 63  1  0  0  0  0
 47 50  1  0  0  0  0
 47 63  1  0  0  0  0
 48 68  1  0  0  0  0
 49 62  1  0  0  0  0
 50 61  1  0  0  0  0
 51 57  1  0  0  0  0
 52 58  1  0  0  0  0
 53 58  1  0  0  0  0
 54 58  1  0  0  0  0
 55 70  1  0  0  0  0
 56 58  1  0  0  0  0
 56 69  1  0  0  0  0
 57 70  1  0  0  0  0
 59 61  1  0  0  0  0
M  CHG  1  70   1
M  ISO  4  31 101  38 100  67 100  79 101
M  END
> <Batch ID>
0179

> <Smiles>
CNC(C)C(=O)NC(C(=O)N1Cc2cc([101O:1][101CH2:1]C(=O)C(=O)Nc3csc([100NH:0][100C:0](=O)N4CCCC(n5nc(-c6ccc(Oc7ccc(F)cc7F)cc6)c(C(N)=O)c5N)C4)n3)ccc2CC1C(=O)NC1CCCc2ccccc21)C(C)(C)C

> <Shape>
0.330

> <Color>
0.092

> <Negative vol penalty>
0.000

$$$$

  -OEChem-04052304473D

 84 92  0     1  0  0  0  0  0999 V2000
  -24.9138  -33.7465   14.5388 C   0  0  0  0  0  0  0  0  0  0  0  0
  -25.6858  -32.8092   15.2179 C   0  0  0  0  0  0  0  0  0  0  0  0
  -31.4114   -6.1667   19.8200 C   0  0  0  0  0  0  0  0  0  0  0  0
  -29.6053   -5.8216   18.2528 C   0  0  0  0  0  0  0  0  0  0  0  0
  -24.3225  -34.7984   15.2372 C   0  0  0  0  0  0  0  0  0  0  0  0
  -25.8679  -32.9241   16.5956 C   0  0  0  0  0  0  0  0  0  0  0  0
  -25.3200  -28.5026   19.0029 C   0  0  0  0  0  0  0  0  0  0  0  0
  -31.3121   -4.8364   20.2274 C   0  0  0  0  0  0  0  0  0  0  0  0
  -29.5061   -4.4912   18.6601 C   0  0  0  0  0  0  0  0  0  0  0  0
  -26.3883  -27.6087   18.9435 C   0  0  0  0  0  0  0  0  0  0  0  0
  -29.0174   -0.9077   19.0311 C   0  0  0  0  0  0  0  0  0  0  0  0
  -28.8939    0.0670   18.0411 C   0  0  0  0  0  0  0  0  0  0  0  0
  -27.0821  -28.3008   21.1477 C   0  0  0  0  0  0  0  0  0  0  0  0
  -31.0179   -0.6101   17.1097 C   0  0  0  0  0  0  0  0  0  0  0  0
  -30.5579   -6.6593   18.8327 C   0  0  0  0  0  0  0  0  0  0  0  0
  -31.4608   -8.5481   17.3749 C   0  0  0  0  0  0  0  0  0  0  0  0
  -24.4895  -34.9208   16.6256 C   0  0  0  0  0  0  0  0  0  0  0  0
  -25.1308  -29.3116   20.1326 C   0  0  0  0  0  0  0  0  0  0  0  0
  -25.2794  -33.9795   17.3129 C   0  0  0  0  0  0  0  0  0  0  0  0
  -26.0093  -29.2024   21.2200 C   0  0  0  0  0  0  0  0  0  0  0  0
  -30.3595   -3.9986   19.6474 C   0  0  0  0  0  0  0  0  0  0  0  0
  -27.2712  -27.5097   20.0148 C   0  0  0  0  0  0  0  0  0  0  0  0
  -30.1410   -1.7337   19.0605 C   0  0  0  0  0  0  0  0  0  0  0  0
  -29.8941    0.2158   17.0803 C   0  0  0  0  0  0  0  0  0  0  0  0
  -31.1413   -1.5848   18.0997 C   0  0  0  0  0  0  0  0  0  0  0  0
  -30.6596   -8.0336   18.4119 C   0  0  0  0  0  0  0  0  0  0  0  0
  -28.7385  -19.9094   21.4257 C   0  0  0  0  0  0  0  0  0  0  0  0
  -31.2005   -9.8967   17.3767 C   0  0  0  0  0  0  0  0  0  0  0  0
  -29.4720  -20.6850   20.5524 C   0  0  0  0  0  0  0  0  0  0  0  0
  -29.8967  -18.3156   20.4621 C   0  0  0  0  0  0  0  0  0  0  0  0
  -30.4100  -17.0447   20.1185 C   0  0  0  0  0  0  0  0  0  0  0  0
  -30.0529  -15.8355   20.6659 C   0  0  0  0  0  0  0  0  0  0  0  0
  -28.1181  -25.3680   20.4227 C   0  0  0  0  0  0  0  0  0  1  0  0
  -32.3600   -7.8678   16.4893 C   0  0  0  0  0  0  0  0  0  0  0  0
  -29.0735  -24.4306   20.4160 C   0  0  0  0  0  0  0  0  0  0  0  0
  -30.6773  -14.5849   20.1897 C   0  0  0  0  0  0  0  0  0  0  0  0
  -28.7561  -23.0646   20.9466 C   0  0  0  0  0  0  0  0  0  0  0  0
  -25.1069  -32.4444   20.6695 C   0  0  0  0  0  0  0  0  0  0  0  0
  -24.1879  -31.5336   23.6441 C   0  0  0  0  0  0  0  0  0  0  0  0
  -24.1333  -29.1077   26.0439 C   0  0  0  0  0  0  0  0  0  0  0  0
  -23.8698  -36.1016   17.3301 C   0  0  0  0  0  0  0  0  0  0  0  0
  -23.9581  -30.2516   20.1920 C   0  0  0  0  0  0  0  0  0  0  0  0
  -25.8383  -30.0339   22.4642 C   0  0  0  0  0  0  0  0  0  0  0  0
  -23.8032  -35.9400   18.8465 C   0  0  0  0  0  0  0  0  0  0  0  0
  -27.6453  -12.5739   19.7481 C   0  0  0  0  0  0  0  0  0  0  0  0
  -25.1364  -35.4345   19.3886 C   0  0  0  0  0  0  0  0  0  0  0  0
  -28.2405  -11.2354   19.3194 C   0  0  0  0  0  0  0  0  0  0  0  0
  -28.5409  -13.3040   20.7478 C   0  0  0  0  0  0  0  0  0  0  0  0
  -30.5369  -12.1495   19.8403 C   0  0  0  0  0  0  0  0  0  0  0  0
  -25.4798  -34.0561   18.8110 C   0  0  1  0  0  0  0  0  0  0  0  0
  -24.1594  -31.3962   21.1805 C   0  0  1  0  0  0  0  0  0  0  0  0
  -29.6748  -11.4194   18.7986 C   0  0  1  0  0  0  0  0  0  0  0  0
  -23.3424  -28.6701   28.3849 C   0  0  0  0  0  0  0  0  0  0  0  0
  -26.4924  -33.2107   24.7336 C   0  0  0  0  0  0  0  0  0  0  0  0
  -26.2489  -32.0030   26.9132 C   0  0  0  0  0  0  0  0  0  0  0  0
  -24.3662  -33.3863   26.0387 C   0  0  0  0  0  0  0  0  0  0  0  0
  -22.3787  -26.8940   25.1611 C   0  0  0  0  0  0  0  0  0  0  0  0
  -24.9065  -31.1822   24.9244 C   0  0  1  0  0  0  0  0  0  0  0  0
  -23.0058  -28.5682   26.9054 C   0  0  2  0  0  0  0  0  0  0  0  0
  -25.5081  -32.4311   25.6284 C   0  0  0  0  0  0  0  0  0  0  0  0
  -29.9440   -8.9784   19.0277 N   0  0  0  0  0  0  0  0  0  0  0  0
  -28.9804  -18.5504   21.3750 N   0  0  0  0  0  0  0  0  0  0  0  0
  -30.2947  -10.1001   18.3759 N   0  0  0  0  0  0  0  0  0  0  0  0
  -29.9211  -13.4158   20.2524 N   0  0  0  0  0  0  0  0  0  0  0  0
  -24.6801  -30.9428   22.4718 N   0  0  0  0  0  0  0  0  0  0  0  0
  -31.6603  -10.9165   16.6211 N   0  0  0  0  0  0  0  0  0  0  0  0
  -32.5089   -6.4807   16.6243 N   0  0  0  0  0  0  0  0  0  0  0  0
  -29.5035  -22.0803   20.3146 N   0  0  0  0  0  0  0  0  0  0  0  0
  -24.7153  -33.0239   19.4778 N   0  0  0  0  0  0  0  0  0  0  0  0
  -23.9503  -30.4399   25.7387 N   0  0  0  0  0  0  0  0  0  0  0  0
  -22.7446  -27.1375   26.5802 N   0  3  0  0  0  0  0  0  0  0  0  0
  -33.0244   -8.4744   15.6152 O   0  0  0  0  0  0  0  0  0  0  0  0
  -31.8338  -14.6510   19.7693 O   0  0  0  0  0  0  0  0  0  0  0  0
  -27.9239  -22.9111   21.8341 O   0  0  0  0  0  0  0  0  0  0  0  0
  -26.1176  -32.7090   21.3100 O   0  0  0  0  0  0  0  0  0  0  0  0
  -23.2209  -32.2984   23.6838 O   0  0  0  0  0  0  0  0  0  0  0  0
  -25.0834  -28.4175   25.6814 O   0  0  0  0  0  0  0  0  0  0  0  0
  -30.3454  -24.6706   19.9369 O   0  0  0  0  0  0  0  0  0  0  0  0
  -30.2625   -2.7004   20.0445 O   0  0  0  0  0  0  0  0  0  0  0  0
  -28.3151  -26.6385   19.9592 O   0  0  0  0  0  0  0  0  0  1  0  0
  -29.7762    1.1529   16.1305 F   0  0  0  0  0  0  0  0  0  0  0  0
  -32.2237   -2.3746   18.1235 F   0  0  0  0  0  0  0  0  0  0  0  0
  -27.8458  -20.4346   22.2722 F   0  0  0  0  0  0  0  0  0  0  0  0
  -30.5113  -19.6828   19.6267 S   0  0  0  0  0  0  0  0  0  0  0  0
  1  2  1  0  0  0  0
  1  5  2  0  0  0  0
  2  6  2  0  0  0  0
  3  8  2  0  0  0  0
  3 15  1  0  0  0  0
  4  9  1  0  0  0  0
  4 15  2  0  0  0  0
  5 17  1  0  0  0  0
  6 19  1  0  0  0  0
  7 10  2  0  0  0  0
  7 18  1  0  0  0  0
  8 21  1  0  0  0  0
  9 21  2  0  0  0  0
 10 22  1  0  0  0  0
 11 12  2  0  0  0  0
 11 23  1  0  0  0  0
 12 24  1  0  0  0  0
 13 20  1  0  0  0  0
 13 22  2  0  0  0  0
 14 24  2  0  0  0  0
 14 25  1  0  0  0  0
 15 26  1  0  0  0  0
 16 26  1  0  0  0  0
 16 28  2  0  0  0  0
 16 34  1  0  0  0  0
 17 19  2  0  0  0  0
 17 41  1  0  0  0  0
 18 20  2  0  0  0  0
 18 42  1  0  0  0  0
 19 50  1  0  0  0  0
 20 43  1  0  0  0  0
 21 79  1  0  0  0  0
 22 80  1  0  0  0  0
 23 25  2  0  0  0  0
 23 79  1  0  0  0  0
 24 81  1  0  0  0  0
 25 82  1  0  0  0  0
 26 61  2  0  0  0  0
 27 29  2  0  0  0  0
 27 62  1  0  0  0  0
 27 83  1  0  0  0  0
 28 63  1  0  0  0  0
 28 66  1  0  0  0  0
 29 68  1  0  0  0  0
 29 84  1  0  0  0  0
 30 31  1  0  0  0  0
 30 62  2  0  0  0  0
 30 84  1  0  0  0  0
 31 32  2  0  0  0  0
 32 36  1  0  0  0  0
 33 35  2  0  0  0  0
 33 80  1  0  0  0  0
 34 67  1  0  0  0  0
 34 72  2  0  0  0  0
 35 37  1  0  0  0  0
 35 78  1  0  0  0  0
 36 64  1  0  0  0  0
 36 73  2  0  0  0  0
 37 68  1  0  0  0  0
 37 74  2  0  0  0  0
 38 51  1  0  0  0  0
 38 69  1  0  0  0  0
 38 75  2  0  0  0  0
 39 58  1  0  0  0  0
 39 65  1  0  0  0  0
 39 76  2  0  0  0  0
 40 59  1  0  0  0  0
 40 70  1  0  0  0  0
 40 77  2  0  0  0  0
 41 44  1  0  0  0  0
 42 51  1  0  0  0  0
 43 65  1  0  0  0  0
 44 46  1  0  0  0  0
 45 47  1  0  0  0  0
 45 48  1  0  0  0  0
 46 50  1  0  0  0  0
 47 52  1  0  0  0  0
 48 64  1  0  0  0  0
 49 52  1  0  0  0  0
 49 64  1  0  0  0  0
 50 69  1  0  0  0  0
 51 65  1  0  0  0  0
 52 63  1  0  0  0  0
 53 59  1  0  0  0  0
 54 60  1  0  0  0  0
 55 60  1  0  0  0  0
 56 60  1  0  0  0  0
 57 71  1  0  0  0  0
 58 60  1  0  0  0  0
 58 70  1  0  0  0  0
 59 71  1  0  0  0  0
 61 63  1  0  0  0  0
M  CHG  1  71   1
M  ISO  4  32 100  33 101  36 100  80 101
M  END
> <Batch ID>
0179

> <Smiles>
CNC(C)C(=O)NC(C(=O)N1Cc2cc([101O:1][101CH2:1]C(=O)C(=O)Nc3sc(C=[100CH:0][100C:0](=O)N4CCCC(n5nc(-c6ccc(Oc7ccc(F)cc7F)cc6)c(C(N)=O)c5N)C4)nc3F)ccc2CC1C(=O)NC1CCCc2ccccc21)C(C)(C)C

> <Shape>
0.206

> <Color>
0.106

> <Negative vol penalty>
0.000

$$$$

  -OEChem-04052304473D

 86 94  0     1  0  0  0  0  0999 V2000
  -20.2329  -34.6215   22.3195 C   0  0  0  0  0  0  0  0  0  0  0  0
  -21.4859  -34.1525   21.9380 C   0  0  0  0  0  0  0  0  0  0  0  0
  -24.0574  -13.6943   21.0798 C   0  0  0  0  0  0  0  0  0  0  0  0
  -26.2204  -13.5754   20.0100 C   0  0  0  0  0  0  0  0  0  0  0  0
  -19.4145  -33.8382   23.1323 C   0  0  0  0  0  0  0  0  0  0  0  0
  -21.9216  -32.9003   22.3701 C   0  0  0  0  0  0  0  0  0  0  0  0
  -25.4161  -28.9448   19.2638 C   0  0  0  0  0  0  0  0  0  0  0  0
  -24.1712  -12.3568   21.4587 C   0  0  0  0  0  0  0  0  0  0  0  0
  -26.3343  -12.2378   20.3890 C   0  0  0  0  0  0  0  0  0  0  0  0
  -26.7820  -28.6686   19.3030 C   0  0  0  0  0  0  0  0  0  0  0  0
  -23.7927   -9.3207   20.0225 C   0  0  0  0  0  0  0  0  0  0  0  0
  -22.6810   -8.4987   19.8377 C   0  0  0  0  0  0  0  0  0  0  0  0
  -26.3615  -26.8328   20.8104 C   0  0  0  0  0  0  0  0  0  0  0  0
  -22.6197   -8.0482   22.2105 C   0  0  0  0  0  0  0  0  0  0  0  0
  -25.0820  -14.3036   20.3554 C   0  0  0  0  0  0  0  0  0  0  0  0
  -25.3868  -16.8141   20.6906 C   0  0  0  0  0  0  0  0  0  0  0  0
  -19.8364  -32.5717   23.5666 C   0  0  0  0  0  0  0  0  0  0  0  0
  -24.5121  -28.1726   20.0076 C   0  0  0  0  0  0  0  0  0  0  0  0
  -21.1086  -32.0999   23.1905 C   0  0  0  0  0  0  0  0  0  0  0  0
  -24.9843  -27.0997   20.7770 C   0  0  0  0  0  0  0  0  0  0  0  0
  -25.3096  -11.6285   21.1134 C   0  0  0  0  0  0  0  0  0  0  0  0
  -27.2553  -27.6143   20.0786 C   0  0  0  0  0  0  0  0  0  0  0  0
  -24.3179   -9.5064   21.3013 C   0  0  0  0  0  0  0  0  0  0  0  0
  -22.0945   -7.8625   20.9317 C   0  0  0  0  0  0  0  0  0  0  0  0
  -23.7315   -8.8702   22.3953 C   0  0  0  0  0  0  0  0  0  0  0  0
  -24.9648  -15.6851   19.9632 C   0  0  0  0  0  0  0  0  0  0  0  0
  -27.9056  -24.1231   15.6807 C   0  0  0  0  0  0  0  0  0  0  0  0
  -26.9960  -24.1864   14.6460 C   0  0  0  0  0  0  0  0  0  0  0  0
  -25.0521  -17.8811   19.8932 C   0  0  0  0  0  0  0  0  0  0  0  0
  -26.4696  -22.2058   15.4270 C   0  0  0  0  0  0  0  0  0  0  0  0
  -26.0245  -16.8913   21.9724 C   0  0  0  0  0  0  0  0  0  0  0  0
  -28.9296  -25.1024   16.1252 C   0  0  0  0  0  0  0  0  0  0  0  0
  -22.4718  -28.7646   22.3719 C   0  0  0  0  0  0  0  0  0  0  0  0
  -21.6096  -25.6766   21.8792 C   0  0  0  0  0  0  0  0  0  0  0  0
  -22.4577  -22.5818   20.7172 C   0  0  0  0  0  0  0  0  0  0  0  0
  -30.1799  -25.9003   18.1026 C   0  0  0  0  0  0  0  0  0  0  0  0
  -24.8340  -20.3602   14.9122 C   0  0  0  0  0  0  0  0  0  0  0  0
  -18.9362  -31.7814   24.4829 C   0  0  0  0  0  0  0  0  0  0  0  0
  -23.0389  -28.4667   19.9336 C   0  0  0  0  0  0  0  0  0  0  0  0
  -24.0531  -26.2278   21.5778 C   0  0  0  0  0  0  0  0  0  0  0  0
  -19.3188  -30.3075   24.5900 C   0  0  0  0  0  0  0  0  0  0  0  0
  -22.1983  -18.1063   15.7186 C   0  0  0  0  0  0  0  0  0  0  0  0
  -20.8220  -30.1603   24.8034 C   0  0  0  0  0  0  0  0  0  0  0  0
  -22.7178  -17.3683   16.9546 C   0  0  0  0  0  0  0  0  0  0  0  0
  -23.3178  -18.4007   14.7217 C   0  0  0  0  0  0  0  0  0  0  0  0
  -25.0017  -18.3591   16.5195 C   0  0  0  0  0  0  0  0  0  0  0  0
  -21.6065  -30.7365   23.6185 C   0  0  1  0  0  0  0  0  0  0  0  0
  -22.2628  -27.9370   21.1354 C   0  0  1  0  0  0  0  0  0  0  0  0
  -23.9217  -18.0981   17.5821 C   0  0  2  0  0  0  0  0  0  0  0  0
  -26.8312  -25.3091   13.6999 C   0  0  0  0  0  0  0  0  0  0  0  0
  -21.5591  -20.2503   20.4852 C   0  0  0  0  0  0  0  0  0  0  0  0
  -30.7159  -24.2233   19.9076 C   0  0  0  0  0  0  0  0  0  0  0  0
  -31.4059  -26.6059   20.1833 C   0  0  0  0  0  0  0  0  0  0  0  0
  -22.0852  -25.1998   24.8552 C   0  0  0  0  0  0  0  0  0  0  0  0
  -22.1065  -22.7405   24.3866 C   0  0  0  0  0  0  0  0  0  0  0  0
  -20.0504  -24.0774   23.9310 C   0  0  0  0  0  0  0  0  0  0  0  0
  -22.6745  -22.6673   17.7668 C   0  0  0  0  0  0  0  0  0  0  0  0
  -28.9682  -25.9842   20.3332 C   0  0  0  0  0  0  0  0  0  1  0  0
  -22.0605  -24.3413   22.4203 C   0  0  1  0  0  0  0  0  0  0  0  0
  -21.7203  -21.6069   19.8171 C   0  0  2  0  0  0  0  0  0  0  0  0
  -30.3055  -25.6793   19.6284 C   0  0  0  0  0  0  0  0  0  0  0  0
  -21.5937  -24.1072   23.8848 C   0  0  0  0  0  0  0  0  0  0  0  0
  -24.4045  -16.0051   18.7937 N   0  0  0  0  0  0  0  0  0  0  0  0
  -26.1719  -23.0877   14.4988 N   0  0  0  0  0  0  0  0  0  0  0  0
  -24.4721  -17.3473   18.7802 N   0  0  0  0  0  0  0  0  0  0  0  0
  -22.6222  -26.5594   21.4778 N   0  0  0  0  0  0  0  0  0  0  0  0
  -24.4219  -19.0967   15.3860 N   0  0  0  0  0  0  0  0  0  0  0  0
  -25.2001  -19.2146   20.0426 N   0  0  0  0  0  0  0  0  0  0  0  0
  -26.2964  -15.6986   22.6564 N   0  0  0  0  0  0  0  0  0  0  0  0
  -25.8706  -20.9399   15.6429 N   0  0  0  0  0  0  0  0  0  0  0  0
  -29.2275  -25.0848   17.4872 N   0  0  0  0  0  0  0  0  0  0  0  0
  -21.5843  -29.8158   22.5021 N   0  0  0  0  0  0  0  0  0  0  0  0
  -21.5870  -23.3366   21.4744 N   0  0  0  0  0  0  0  0  0  0  0  0
  -22.4645  -21.4164   18.5401 N   0  3  0  0  0  0  0  0  0  0  0  0
  -26.3290  -17.9864   22.5031 O   0  0  0  0  0  0  0  0  0  0  0  0
  -29.4606  -25.8313   15.2919 O   0  0  0  0  0  0  0  0  0  0  0  0
  -23.3708  -28.4704   23.1510 O   0  0  0  0  0  0  0  0  0  0  0  0
  -20.4033  -25.9242   21.8083 O   0  0  0  0  0  0  0  0  0  0  0  0
  -23.6837  -22.6630   20.7482 O   0  0  0  0  0  0  0  0  0  0  0  0
  -30.8648  -26.7296   17.5034 O   0  0  0  0  0  0  0  0  0  0  0  0
  -24.2879  -20.9012   13.9473 O   0  0  0  0  0  0  0  0  0  0  0  0
  -25.4211  -10.3234   21.4832 O   0  0  0  0  0  0  0  0  0  0  0  0
  -28.5882  -27.3429   20.1191 O   0  0  0  0  0  0  0  0  0  1  0  0
  -21.0261   -7.0743   20.7543 F   0  0  0  0  0  0  0  0  0  0  0  0
  -24.2309   -9.0457   23.6264 F   0  0  0  0  0  0  0  0  0  0  0  0
  -27.7298  -22.6327   16.5109 S   0  0  0  0  0  0  0  0  0  0  0  0
  1  2  1  0  0  0  0
  1  5  2  0  0  0  0
  2  6  2  0  0  0  0
  3  8  2  0  0  0  0
  3 15  1  0  0  0  0
  4  9  1  0  0  0  0
  4 15  2  0  0  0  0
  5 17  1  0  0  0  0
  6 19  1  0  0  0  0
  7 10  2  0  0  0  0
  7 18  1  0  0  0  0
  8 21  1  0  0  0  0
  9 21  2  0  0  0  0
 10 22  1  0  0  0  0
 11 12  2  0  0  0  0
 11 23  1  0  0  0  0
 12 24  1  0  0  0  0
 13 20  1  0  0  0  0
 13 22  2  0  0  0  0
 14 24  2  0  0  0  0
 14 25  1  0  0  0  0
 15 26  1  0  0  0  0
 16 26  1  0  0  0  0
 16 29  2  0  0  0  0
 16 31  1  0  0  0  0
 17 19  2  0  0  0  0
 17 38  1  0  0  0  0
 18 20  2  0  0  0  0
 18 39  1  0  0  0  0
 19 47  1  0  0  0  0
 20 40  1  0  0  0  0
 21 82  1  0  0  0  0
 22 83  1  0  0  0  0
 23 25  2  0  0  0  0
 23 82  1  0  0  0  0
 24 84  1  0  0  0  0
 25 85  1  0  0  0  0
 26 63  2  0  0  0  0
 27 28  2  0  0  0  0
 27 32  1  0  0  0  0
 27 86  1  0  0  0  0
 28 50  1  0  0  0  0
 28 64  1  0  0  0  0
 29 65  1  0  0  0  0
 29 68  1  0  0  0  0
 30 64  2  0  0  0  0
 30 70  1  0  0  0  0
 30 86  1  0  0  0  0
 31 69  1  0  0  0  0
 31 75  2  0  0  0  0
 32 71  1  0  0  0  0
 32 76  2  0  0  0  0
 33 48  1  0  0  0  0
 33 72  1  0  0  0  0
 33 77  2  0  0  0  0
 34 59  1  0  0  0  0
 34 66  1  0  0  0  0
 34 78  2  0  0  0  0
 35 60  1  0  0  0  0
 35 73  1  0  0  0  0
 35 79  2  0  0  0  0
 36 61  1  0  0  0  0
 36 71  1  0  0  0  0
 36 80  2  0  0  0  0
 37 67  1  0  0  0  0
 37 70  1  0  0  0  0
 37 81  2  0  0  0  0
 38 41  1  0  0  0  0
 39 48  1  0  0  0  0
 40 66  1  0  0  0  0
 41 43  1  0  0  0  0
 42 44  1  0  0  0  0
 42 45  1  0  0  0  0
 43 47  1  0  0  0  0
 44 49  1  0  0  0  0
 45 67  1  0  0  0  0
 46 49  1  0  0  0  0
 46 67  1  0  0  0  0
 47 72  1  0  0  0  0
 48 66  1  0  0  0  0
 49 65  1  0  0  0  0
 51 60  1  0  0  0  0
 52 61  1  0  0  0  0
 53 61  1  0  0  0  0
 54 62  1  0  0  0  0
 55 62  1  0  0  0  0
 56 62  1  0  0  0  0
 57 74  1  0  0  0  0
 58 61  1  0  0  0  0
 58 83  1  0  0  0  0
 59 62  1  0  0  0  0
 59 73  1  0  0  0  0
 60 74  1  0  0  0  0
 63 65  1  0  0  0  0
M  CHG  1  74   1
M  ISO  4  37 100  58 101  70 100  83 101
M  END
> <Batch ID>
0179

> <Smiles>
CNC(C)C(=O)NC(C(=O)N1Cc2cc([101O:1][101CH2:1]C(C)(C)C(=O)NC(=O)c3sc([100NH:0][100C:0](=O)N4CCCC(n5nc(-c6ccc(Oc7ccc(F)cc7F)cc6)c(C(N)=O)c5N)C4)nc3C)ccc2CC1C(=O)NC1CCCc2ccccc21)C(C)(C)C

> <Shape>
0.188

> <Color>
0.090

> <Negative vol penalty>
0.000

$$$$

  -OEChem-04052304473D

 85 93  0     1  0  0  0  0  0999 V2000
  -24.2046  -22.4066   14.9591 C   0  0  0  0  0  0  0  0  0  0  0  0
  -23.5523  -23.2151   15.8845 C   0  0  0  0  0  0  0  0  0  0  0  0
  -27.9392  -14.8554   21.4034 C   0  0  0  0  0  0  0  0  0  0  0  0
  -26.0929  -15.4626   19.9683 C   0  0  0  0  0  0  0  0  0  0  0  0
  -25.5241  -22.0163   15.1840 C   0  0  0  0  0  0  0  0  0  0  0  0
  -24.2188  -23.6328   17.0359 C   0  0  0  0  0  0  0  0  0  0  0  0
  -23.5832  -29.0004   19.9152 C   0  0  0  0  0  0  0  0  0  0  0  0
  -27.5232  -13.5243   21.3753 C   0  0  0  0  0  0  0  0  0  0  0  0
  -25.6770  -14.1315   19.9402 C   0  0  0  0  0  0  0  0  0  0  0  0
  -22.8461  -29.3825   21.0352 C   0  0  0  0  0  0  0  0  0  0  0  0
  -23.9203  -10.9536   19.7819 C   0  0  0  0  0  0  0  0  0  0  0  0
  -22.5599  -10.6958   19.9504 C   0  0  0  0  0  0  0  0  0  0  0  0
  -22.5119  -24.3634   22.3315 C   0  0  0  0  0  0  0  0  0  0  0  0
  -24.8001  -29.0794   22.4169 C   0  0  0  0  0  0  0  0  0  0  0  0
  -22.6303  -11.7460   22.1251 C   0  0  0  0  0  0  0  0  0  0  0  0
  -27.2240  -15.8246   20.6999 C   0  0  0  0  0  0  0  0  0  0  0  0
  -21.4407  -24.8583   21.5330 C   0  0  0  0  0  0  0  0  0  0  0  0
  -28.5478  -17.8301   19.8439 C   0  0  0  0  0  0  0  0  0  0  0  0
  -26.2102  -22.4374   16.3340 C   0  0  0  0  0  0  0  0  0  0  0  0
  -24.9337  -28.6439   20.0395 C   0  0  0  0  0  0  0  0  0  0  0  0
  -25.5483  -23.2466   17.2770 C   0  0  0  0  0  0  0  0  0  0  0  0
  -25.5528  -28.6957   21.2965 C   0  0  0  0  0  0  0  0  0  0  0  0
  -26.3922  -13.1624   20.6437 C   0  0  0  0  0  0  0  0  0  0  0  0
  -23.4538  -29.4193   22.2868 C   0  0  0  0  0  0  0  0  0  0  0  0
  -24.6357  -11.6076   20.7850 C   0  0  0  0  0  0  0  0  0  0  0  0
  -21.9149  -11.0920   21.1220 C   0  0  0  0  0  0  0  0  0  0  0  0
  -23.9907  -12.0038   21.9566 C   0  0  0  0  0  0  0  0  0  0  0  0
  -27.6528  -17.1999   20.7290 C   0  0  0  0  0  0  0  0  0  0  0  0
  -28.6220  -19.1253   20.2951 C   0  0  0  0  0  0  0  0  0  0  0  0
  -23.0372  -23.1947   21.8258 C   0  0  0  0  0  0  0  0  0  0  0  0
  -21.1882  -24.0490   20.4470 C   0  0  0  0  0  0  0  0  0  0  0  0
  -20.6775  -26.0995   21.8200 C   0  0  0  0  0  0  0  0  0  0  0  0
  -29.2494  -17.2929   18.7148 C   0  0  0  0  0  0  0  0  0  0  0  0
  -26.6153  -26.0019   19.4957 C   0  0  0  0  0  0  0  0  0  0  0  0
  -29.1318  -27.9285   20.1872 C   0  0  0  0  0  0  0  0  0  0  0  0
  -20.5019  -27.9995   23.3845 C   0  0  0  0  0  0  0  0  0  0  0  0
  -29.8930  -30.5027   22.5978 C   0  0  0  0  0  0  0  0  0  0  0  0
  -24.8827  -22.5779   23.4259 C   0  0  0  0  0  0  0  0  0  0  0  0
  -27.6203  -21.9509   16.5568 C   0  0  0  0  0  0  0  0  0  0  0  0
  -25.7219  -28.2597   18.8174 C   0  0  0  0  0  0  0  0  0  0  0  0
  -27.0052  -28.3419   21.4803 C   0  0  0  0  0  0  0  0  0  0  0  0
  -28.3778  -22.7444   17.6184 C   0  0  0  0  0  0  0  0  0  0  0  0
  -28.2277  -21.7248   24.2977 C   0  0  0  0  0  0  0  0  0  0  0  0
  -27.5109  -22.9403   18.8581 C   0  0  0  0  0  0  0  0  0  0  0  0
  -28.5435  -20.5288   23.3966 C   0  0  0  0  0  0  0  0  0  0  0  0
  -26.7774  -21.7065   24.7771 C   0  0  0  0  0  0  0  0  0  0  0  0
  -26.0888  -20.3908   22.8114 C   0  0  0  0  0  0  0  0  0  0  0  0
  -26.2457  -23.7406   18.5259 C   0  0  1  0  0  0  0  0  0  0  0  0
  -26.9551  -27.4219   19.1408 C   0  0  1  0  0  0  0  0  0  0  0  0
  -27.5204  -20.4008   22.2509 C   0  0  2  0  0  0  0  0  0  0  0  0
  -31.4789  -32.4431   22.4668 C   0  0  0  0  0  0  0  0  0  0  0  0
  -23.2501  -29.4267   25.6947 C   0  0  0  0  0  0  0  0  0  0  0  0
  -31.1024  -26.0364   21.5461 C   0  0  0  0  0  0  0  0  0  0  0  0
  -31.9369  -27.9797   22.8859 C   0  0  0  0  0  0  0  0  0  0  0  0
  -32.1564  -27.9941   20.4011 C   0  0  0  0  0  0  0  0  0  0  0  0
  -27.7521  -32.4449   23.2330 C   0  0  0  0  0  0  0  0  0  0  0  0
  -21.1421  -28.5305   24.6540 C   0  0  0  0  0  0  0  0  0  0  0  0
  -29.8752  -28.3057   21.4457 C   0  0  1  0  0  0  0  0  0  0  0  0
  -30.0342  -31.9895   22.3257 C   0  0  2  0  0  0  0  0  0  0  0  0
  -22.6229  -28.8386   24.4381 C   0  0  1  0  0  0  0  0  0  1  0  0
  -31.2402  -27.5717   21.5703 C   0  0  0  0  0  0  0  0  0  0  0  0
  -27.1916  -18.0265   21.6713 N   0  0  0  0  0  0  0  0  0  0  0  0
  -27.7992  -19.1895   21.3809 N   0  0  0  0  0  0  0  0  0  0  0  0
  -27.7319  -27.9666   20.2562 N   0  0  0  0  0  0  0  0  0  0  0  0
  -25.8653  -21.5877   23.6374 N   0  0  0  0  0  0  0  0  0  0  0  0
  -29.3102  -20.2041   19.8650 N   0  0  0  0  0  0  0  0  0  0  0  0
  -20.2402  -24.2308   19.4917 N   0  0  0  0  0  0  0  0  0  0  0  0
  -29.0587  -15.9429   18.3902 N   0  0  0  0  0  0  0  0  0  0  0  0
  -24.0952  -22.3759   22.2929 N   0  0  0  0  0  0  0  0  0  0  0  0
  -21.0696  -26.7986   22.9601 N   0  0  0  0  0  0  0  0  0  0  0  0
  -26.5550  -25.1496   18.4097 N   0  0  0  0  0  0  0  0  0  0  0  0
  -29.9778  -29.7610   21.4385 N   0  0  0  0  0  0  0  0  0  0  0  0
  -29.2004  -32.7724   23.2810 N   0  3  0  0  0  0  0  0  0  0  0  0
  -19.7886  -26.4471   21.0473 O   0  0  0  0  0  0  0  0  0  0  0  0
  -30.0352  -17.9853   18.0243 O   0  0  0  0  0  0  0  0  0  0  0  0
  -26.4237  -25.7015   20.6682 O   0  0  0  0  0  0  0  0  0  0  0  0
  -29.7697  -27.6186   19.1779 O   0  0  0  0  0  0  0  0  0  0  0  0
  -19.5901  -28.6014   22.8220 O   0  0  0  0  0  0  0  0  0  0  0  0
  -29.7280  -30.0449   23.7264 O   0  0  0  0  0  0  0  0  0  0  0  0
  -24.7674  -23.5489   24.1781 O   0  0  0  0  0  0  0  0  0  0  0  0
  -25.9861  -11.8635   20.6159 O   0  0  0  0  0  0  0  0  0  0  0  0
  -22.7365  -29.7913   23.3818 O   0  0  0  0  0  0  0  0  0  1  0  0
  -20.6081  -10.8457   21.2831 F   0  0  0  0  0  0  0  0  0  0  0  0
  -24.6725  -12.6334   22.9233 F   0  0  0  0  0  0  0  0  0  0  0  0
  -22.2400  -22.6987   20.3937 S   0  0  0  0  0  0  0  0  0  0  0  0
  1  2  1  0  0  0  0
  1  5  2  0  0  0  0
  2  6  2  0  0  0  0
  3  8  2  0  0  0  0
  3 16  1  0  0  0  0
  4  9  1  0  0  0  0
  4 16  2  0  0  0  0
  5 19  1  0  0  0  0
  6 21  1  0  0  0  0
  7 10  2  0  0  0  0
  7 20  1  0  0  0  0
  8 23  1  0  0  0  0
  9 23  2  0  0  0  0
 10 24  1  0  0  0  0
 11 12  2  0  0  0  0
 11 25  1  0  0  0  0
 12 26  1  0  0  0  0
 13 17  1  0  0  0  0
 13 30  2  0  0  0  0
 14 22  1  0  0  0  0
 14 24  2  0  0  0  0
 15 26  2  0  0  0  0
 15 27  1  0  0  0  0
 16 28  1  0  0  0  0
 17 31  2  0  0  0  0
 17 32  1  0  0  0  0
 18 28  1  0  0  0  0
 18 29  2  0  0  0  0
 18 33  1  0  0  0  0
 19 21  2  0  0  0  0
 19 39  1  0  0  0  0
 20 22  2  0  0  0  0
 20 40  1  0  0  0  0
 21 48  1  0  0  0  0
 22 41  1  0  0  0  0
 23 81  1  0  0  0  0
 24 82  1  0  0  0  0
 25 27  2  0  0  0  0
 25 81  1  0  0  0  0
 26 83  1  0  0  0  0
 27 84  1  0  0  0  0
 28 62  2  0  0  0  0
 29 63  1  0  0  0  0
 29 66  1  0  0  0  0
 30 69  1  0  0  0  0
 30 85  1  0  0  0  0
 31 67  1  0  0  0  0
 31 85  1  0  0  0  0
 32 70  1  0  0  0  0
 32 74  2  0  0  0  0
 33 68  1  0  0  0  0
 33 75  2  0  0  0  0
 34 49  1  0  0  0  0
 34 71  1  0  0  0  0
 34 76  2  0  0  0  0
 35 58  1  0  0  0  0
 35 64  1  0  0  0  0
 35 77  2  0  0  0  0
 36 57  1  0  0  0  0
 36 70  1  0  0  0  0
 36 78  2  0  0  0  0
 37 59  1  0  0  0  0
 37 72  1  0  0  0  0
 37 79  2  0  0  0  0
 38 65  1  0  0  0  0
 38 69  1  0  0  0  0
 38 80  2  0  0  0  0
 39 42  1  0  0  0  0
 40 49  1  0  0  0  0
 41 64  1  0  0  0  0
 42 44  1  0  0  0  0
 43 45  1  0  0  0  0
 43 46  1  0  0  0  0
 44 48  1  0  0  0  0
 45 50  1  0  0  0  0
 46 65  1  0  0  0  0
 47 50  1  0  0  0  0
 47 65  1  0  0  0  0
 48 71  1  0  0  0  0
 49 64  1  0  0  0  0
 50 63  1  0  0  0  0
 51 59  1  0  0  0  0
 52 60  1  0  0  0  0
 53 61  1  0  0  0  0
 54 61  1  0  0  0  0
 55 61  1  0  0  0  0
 56 73  1  0  0  0  0
 57 60  1  0  0  0  0
 58 61  1  0  0  0  0
 58 72  1  0  0  0  0
 59 73  1  0  0  0  0
 60 82  1  0  0  0  0
 62 63  1  0  0  0  0
M  CHG  1  73   1
M  ISO  4  38 100  60 101  69 100  82 101
M  END
> <Batch ID>
0179

> <Smiles>
CNC(C)C(=O)NC(C(=O)N1Cc2cc([101O:1][101CH:1](C)CC(=O)NC(=O)c3cc([100NH:0][100C:0](=O)N4CCCC(n5nc(-c6ccc(Oc7ccc(F)cc7F)cc6)c(C(N)=O)c5N)C4)sc3N)ccc2CC1C(=O)NC1CCCc2ccccc21)C(C)(C)C

> <Shape>
0.227

> <Color>
0.061

> <Negative vol penalty>
0.000

$$$$

  -OEChem-04052304473D

 84 92  0     1  0  0  0  0  0999 V2000
  -20.2167  -30.3637   26.7716 C   0  0  0  0  0  0  0  0  0  0  0  0
  -21.4465  -29.8552   26.3661 C   0  0  0  0  0  0  0  0  0  0  0  0
  -22.2851  -10.5673   21.1452 C   0  0  0  0  0  0  0  0  0  0  0  0
  -24.3628   -9.4457   21.6574 C   0  0  0  0  0  0  0  0  0  0  0  0
  -19.0929  -30.1937   25.9642 C   0  0  0  0  0  0  0  0  0  0  0  0
  -21.5529  -29.1754   25.1533 C   0  0  0  0  0  0  0  0  0  0  0  0
  -26.3336  -29.2007   21.3257 C   0  0  0  0  0  0  0  0  0  0  0  0
  -21.6327   -9.3355   21.0942 C   0  0  0  0  0  0  0  0  0  0  0  0
  -23.7103   -8.2139   21.6064 C   0  0  0  0  0  0  0  0  0  0  0  0
  -27.3835  -28.3044   21.1304 C   0  0  0  0  0  0  0  0  0  0  0  0
  -21.7050   -6.3744   23.6104 C   0  0  0  0  0  0  0  0  0  0  0  0
  -21.9750   -5.4573   24.6260 C   0  0  0  0  0  0  0  0  0  0  0  0
  -26.1669  -27.2843   19.3142 C   0  0  0  0  0  0  0  0  0  0  0  0
  -29.3256  -20.0750   22.2524 C   0  0  0  0  0  0  0  0  0  0  0  0
  -22.7887   -3.8807   22.9860 C   0  0  0  0  0  0  0  0  0  0  0  0
  -23.6502  -10.6224   21.4267 C   0  0  0  0  0  0  0  0  0  0  0  0
  -24.4937  -12.7215   22.6056 C   0  0  0  0  0  0  0  0  0  0  0  0
  -19.1875  -29.5198   24.7364 C   0  0  0  0  0  0  0  0  0  0  0  0
  -25.1858  -29.1383   20.5225 C   0  0  0  0  0  0  0  0  0  0  0  0
  -20.4290  -28.9949   24.3293 C   0  0  0  0  0  0  0  0  0  0  0  0
  -25.1049  -28.1826   19.4997 C   0  0  0  0  0  0  0  0  0  0  0  0
  -29.6268  -18.6830   22.2947 C   0  0  0  0  0  0  0  0  0  0  0  0
  -22.3453   -8.1588   21.3248 C   0  0  0  0  0  0  0  0  0  0  0  0
  -27.2990  -27.3442   20.1264 C   0  0  0  0  0  0  0  0  0  0  0  0
  -21.9768   -6.0447   22.2825 C   0  0  0  0  0  0  0  0  0  0  0  0
  -22.5169   -4.2105   24.3139 C   0  0  0  0  0  0  0  0  0  0  0  0
  -22.5186   -4.7979   21.9704 C   0  0  0  0  0  0  0  0  0  0  0  0
  -24.3248  -11.8945   21.4789 C   0  0  0  0  0  0  0  0  0  0  0  0
  -30.3137  -18.2679   21.1751 C   0  0  0  0  0  0  0  0  0  0  0  0
  -25.1953  -13.8043   22.1346 C   0  0  0  0  0  0  0  0  0  0  0  0
  -29.7941  -20.6709   21.1020 C   0  0  0  0  0  0  0  0  0  0  0  0
  -28.2946  -25.2861   20.6200 C   0  0  0  0  0  0  0  0  0  1  0  0
  -24.0557  -12.5282   23.9570 C   0  0  0  0  0  0  0  0  0  0  0  0
  -29.2472  -24.3525   20.5073 C   0  0  0  0  0  0  0  0  0  0  0  0
  -29.1239  -23.0877   21.3030 C   0  0  0  0  0  0  0  0  0  0  0  0
  -22.1000  -28.5955   21.0581 C   0  0  0  0  0  0  0  0  0  0  0  0
  -21.8231  -29.3405   17.9131 C   0  0  0  0  0  0  0  0  0  0  0  0
  -23.2994  -29.5435   14.8429 C   0  0  0  0  0  0  0  0  0  0  0  0
  -29.3333  -15.9665   19.0772 C   0  0  0  0  0  0  0  0  0  0  0  0
  -17.9354  -29.3194   23.9199 C   0  0  0  0  0  0  0  0  0  0  0  0
  -24.0734  -30.1295   20.7286 C   0  0  0  0  0  0  0  0  0  0  0  0
  -23.9030  -28.0870   18.5970 C   0  0  0  0  0  0  0  0  0  0  0  0
  -18.2095  -28.9136   22.4740 C   0  0  0  0  0  0  0  0  0  0  0  0
  -26.2830  -15.2165   17.4008 C   0  0  0  0  0  0  0  0  0  0  0  0
  -19.2541  -27.8032   22.4201 C   0  0  0  0  0  0  0  0  0  0  0  0
  -25.5189  -14.3489   18.4024 C   0  0  0  0  0  0  0  0  0  0  0  0
  -27.7838  -14.9369   17.4415 C   0  0  0  0  0  0  0  0  0  0  0  0
  -27.6331  -14.1745   19.7803 C   0  0  0  0  0  0  0  0  0  0  0  0
  -20.5897  -28.2732   23.0089 C   0  0  1  0  0  0  0  0  0  0  0  0
  -22.7324  -29.6439   20.1870 C   0  0  1  0  0  0  0  0  0  0  0  0
  -26.1220  -14.4606   19.8156 C   0  0  2  0  0  0  0  0  0  0  0  0
  -22.8095  -30.1507   12.4578 C   0  0  0  0  0  0  0  0  0  0  0  0
  -20.3503  -26.6938   17.5444 C   0  0  0  0  0  0  0  0  0  0  0  0
  -20.7300  -26.9060   15.0788 C   0  0  0  0  0  0  0  0  0  0  0  0
  -19.3708  -28.6174   16.2815 C   0  0  0  0  0  0  0  0  0  0  0  0
  -25.3079  -31.7171   14.8621 C   0  0  0  0  0  0  0  0  0  0  0  0
  -30.8086  -16.9145   20.8333 C   0  0  0  0  0  0  0  0  0  0  0  0
  -21.8755  -28.5613   16.6212 C   0  0  1  0  0  0  0  0  0  0  0  0
  -23.3135  -30.6495   13.8032 C   0  0  2  0  0  0  0  0  0  0  0  0
  -20.6036  -27.6949   16.3996 C   0  0  0  0  0  0  0  0  0  0  0  0
  -24.8746  -12.4080   20.3753 N   0  0  0  0  0  0  0  0  0  0  0  0
  -25.3959  -13.5693   20.8061 N   0  0  0  0  0  0  0  0  0  0  0  0
  -22.8388  -29.0743   18.8422 N   0  0  0  0  0  0  0  0  0  0  0  0
  -28.2935  -15.0609   18.8093 N   0  0  0  0  0  0  0  0  0  0  0  0
  -29.2756  -17.8690   23.3179 N   0  0  0  0  0  0  0  0  0  0  0  0
  -25.6540  -14.9250   22.7313 N   0  0  0  0  0  0  0  0  0  0  0  0
  -23.3472  -11.3599   24.2691 N   0  0  0  0  0  0  0  0  0  0  0  0
  -29.7159  -22.0121   20.6553 N   0  0  0  0  0  0  0  0  0  0  0  0
  -21.2957  -29.1061   22.0590 N   0  0  0  0  0  0  0  0  0  0  0  0
  -22.1252  -29.5371   15.5658 N   0  0  0  0  0  0  0  0  0  0  0  0
  -29.7528  -16.0264   20.4005 N   0  0  0  0  0  0  0  0  0  0  0  0
  -24.6971  -31.1726   13.6221 N   0  3  0  0  0  0  0  0  0  0  0  0
  -24.2715  -13.3744   24.8576 O   0  0  0  0  0  0  0  0  0  0  0  0
  -28.5545  -23.0796   22.3891 O   0  0  0  0  0  0  0  0  0  0  0  0
  -22.3239  -27.4111   20.8374 O   0  0  0  0  0  0  0  0  0  0  0  0
  -20.9184  -30.1606   18.0884 O   0  0  0  0  0  0  0  0  0  0  0  0
  -24.2347  -28.7611   14.9959 O   0  0  0  0  0  0  0  0  0  0  0  0
  -29.8458  -16.6736   18.2029 O   0  0  0  0  0  0  0  0  0  0  0  0
  -30.3435  -24.5065   19.6832 O   0  0  0  0  0  0  0  0  0  0  0  0
  -21.7089   -6.9566   21.2754 O   0  0  0  0  0  0  0  0  0  0  0  0
  -28.3221  -26.4678   19.9340 O   0  0  0  0  0  0  0  0  0  1  0  0
  -22.7776   -3.3304   25.2895 F   0  0  0  0  0  0  0  0  0  0  0  0
  -22.7830   -4.4759   20.6967 F   0  0  0  0  0  0  0  0  0  0  0  0
  -30.5929  -19.5538   20.0792 S   0  0  0  0  0  0  0  0  0  0  0  0
  1  2  1  0  0  0  0
  1  5  2  0  0  0  0
  2  6  2  0  0  0  0
  3  8  2  0  0  0  0
  3 16  1  0  0  0  0
  4  9  1  0  0  0  0
  4 16  2  0  0  0  0
  5 18  1  0  0  0  0
  6 20  1  0  0  0  0
  7 10  2  0  0  0  0
  7 19  1  0  0  0  0
  8 23  1  0  0  0  0
  9 23  2  0  0  0  0
 10 24  1  0  0  0  0
 11 12  2  0  0  0  0
 11 25  1  0  0  0  0
 12 26  1  0  0  0  0
 13 21  1  0  0  0  0
 13 24  2  0  0  0  0
 14 22  1  0  0  0  0
 14 31  2  0  0  0  0
 15 26  2  0  0  0  0
 15 27  1  0  0  0  0
 16 28  1  0  0  0  0
 17 28  1  0  0  0  0
 17 30  2  0  0  0  0
 17 33  1  0  0  0  0
 18 20  2  0  0  0  0
 18 40  1  0  0  0  0
 19 21  2  0  0  0  0
 19 41  1  0  0  0  0
 20 49  1  0  0  0  0
 21 42  1  0  0  0  0
 22 29  2  0  0  0  0
 22 65  1  0  0  0  0
 23 80  1  0  0  0  0
 24 81  1  0  0  0  0
 25 27  2  0  0  0  0
 25 80  1  0  0  0  0
 26 82  1  0  0  0  0
 27 83  1  0  0  0  0
 28 61  2  0  0  0  0
 29 57  1  0  0  0  0
 29 84  1  0  0  0  0
 30 62  1  0  0  0  0
 30 66  1  0  0  0  0
 31 68  1  0  0  0  0
 31 84  1  0  0  0  0
 32 34  2  0  0  0  0
 32 81  1  0  0  0  0
 33 67  1  0  0  0  0
 33 73  2  0  0  0  0
 34 35  1  0  0  0  0
 34 79  1  0  0  0  0
 35 68  1  0  0  0  0
 35 74  2  0  0  0  0
 36 50  1  0  0  0  0
 36 69  1  0  0  0  0
 36 75  2  0  0  0  0
 37 58  1  0  0  0  0
 37 63  1  0  0  0  0
 37 76  2  0  0  0  0
 38 59  1  0  0  0  0
 38 70  1  0  0  0  0
 38 77  2  0  0  0  0
 39 64  1  0  0  0  0
 39 71  1  0  0  0  0
 39 78  2  0  0  0  0
 40 43  1  0  0  0  0
 41 50  1  0  0  0  0
 42 63  1  0  0  0  0
 43 45  1  0  0  0  0
 44 46  1  0  0  0  0
 44 47  1  0  0  0  0
 45 49  1  0  0  0  0
 46 51  1  0  0  0  0
 47 64  1  0  0  0  0
 48 51  1  0  0  0  0
 48 64  1  0  0  0  0
 49 69  1  0  0  0  0
 50 63  1  0  0  0  0
 51 62  1  0  0  0  0
 52 59  1  0  0  0  0
 53 60  1  0  0  0  0
 54 60  1  0  0  0  0
 55 60  1  0  0  0  0
 56 72  1  0  0  0  0
 57 71  1  0  0  0  0
 58 60  1  0  0  0  0
 58 70  1  0  0  0  0
 59 72  1  0  0  0  0
 61 62  1  0  0  0  0
M  CHG  1  72   1
M  ISO  4  32 101  39 100  71 100  81 101
M  END
> <Batch ID>
0179

> <Smiles>
CNC(C)C(=O)NC(C(=O)N1Cc2cc([101O:1][101CH2:1]C(=O)C(=O)Nc3cc(N)c(C[100NH:0][100C:0](=O)N4CCCC(n5nc(-c6ccc(Oc7ccc(F)cc7F)cc6)c(C(N)=O)c5N)C4)s3)ccc2CC1C(=O)NC1CCCc2ccccc21)C(C)(C)C

> <Shape>
0.277

> <Color>
0.114

> <Negative vol penalty>
0.000

$$$$

  -OEChem-04052304473D

 87 95  0     1  0  0  0  0  0999 V2000
  -30.9230  -33.5908   28.9877 C   0  0  0  0  0  0  0  0  0  0  0  0
  -31.1760  -32.5812   28.0647 C   0  0  0  0  0  0  0  0  0  0  0  0
  -23.4340   -9.6439   21.1431 C   0  0  0  0  0  0  0  0  0  0  0  0
  -24.1609  -10.4817   23.2894 C   0  0  0  0  0  0  0  0  0  0  0  0
  -29.8038  -34.4082   28.8359 C   0  0  0  0  0  0  0  0  0  0  0  0
  -30.3091  -32.3876   26.9898 C   0  0  0  0  0  0  0  0  0  0  0  0
  -31.8063  -30.5890   21.3304 C   0  0  0  0  0  0  0  0  0  0  0  0
  -22.8275   -8.5571   21.7727 C   0  0  0  0  0  0  0  0  0  0  0  0
  -23.5543   -9.3949   23.9191 C   0  0  0  0  0  0  0  0  0  0  0  0
  -31.7623  -29.3471   20.6984 C   0  0  0  0  0  0  0  0  0  0  0  0
  -19.9760   -7.9422   23.4828 C   0  0  0  0  0  0  0  0  0  0  0  0
  -18.6893   -7.5916   23.0741 C   0  0  0  0  0  0  0  0  0  0  0  0
  -29.6145  -29.9099   19.7553 C   0  0  0  0  0  0  0  0  0  0  0  0
  -31.3857  -18.1393   20.6322 C   0  0  0  0  0  0  0  0  0  0  0  0
  -19.4882   -5.4023   22.4371 C   0  0  0  0  0  0  0  0  0  0  0  0
  -24.1008  -10.6062   21.9015 C   0  0  0  0  0  0  0  0  0  0  0  0
  -29.0623  -18.7777   20.4562 C   0  0  0  0  0  0  0  0  0  0  0  0
  -24.1459  -12.9773   20.9616 C   0  0  0  0  0  0  0  0  0  0  0  0
  -28.9280  -34.2307   27.7533 C   0  0  0  0  0  0  0  0  0  0  0  0
  -30.7480  -31.4980   21.1881 C   0  0  0  0  0  0  0  0  0  0  0  0
  -29.1763  -33.2024   26.8241 C   0  0  0  0  0  0  0  0  0  0  0  0
  -29.6487  -31.1638   20.3844 C   0  0  0  0  0  0  0  0  0  0  0  0
  -30.0400  -17.7858   20.5342 C   0  0  0  0  0  0  0  0  0  0  0  0
  -30.7762  -20.4764   20.5741 C   0  0  0  0  0  0  0  0  0  0  0  0
  -22.8876   -8.4325   23.1607 C   0  0  0  0  0  0  0  0  0  0  0  0
  -30.6650  -29.0062   19.9130 C   0  0  0  0  0  0  0  0  0  0  0  0
  -21.0189   -7.0229   23.3686 C   0  0  0  0  0  0  0  0  0  0  0  0
  -18.4454   -6.3217   22.5513 C   0  0  0  0  0  0  0  0  0  0  0  0
  -31.7539  -19.4846   20.6522 C   0  0  0  0  0  0  0  0  0  0  0  0
  -20.7750   -5.7530   22.8458 C   0  0  0  0  0  0  0  0  0  0  0  0
  -29.4304  -20.1230   20.4761 C   0  0  0  0  0  0  0  0  0  0  0  0
  -24.7281  -11.7288   21.2516 C   0  0  0  0  0  0  0  0  0  0  0  0
  -25.1470  -13.6883   20.3460 C   0  0  0  0  0  0  0  0  0  0  0  0
  -27.6486  -18.4367   20.3533 C   0  0  0  0  0  0  0  0  0  0  0  0
  -22.8189  -13.4520   21.2252 C   0  0  0  0  0  0  0  0  0  0  0  0
  -28.6777  -32.8596   23.1790 C   0  0  0  0  0  0  0  0  0  0  0  0
  -27.8139  -34.5166   20.5274 C   0  0  0  0  0  0  0  0  0  0  0  0
  -30.4967  -22.9095   19.9870 C   0  0  0  0  0  0  0  0  0  0  0  0
  -27.6867  -34.6703   17.1205 C   0  0  0  0  0  0  0  0  0  0  0  0
  -30.4506  -15.3530   20.0254 C   0  0  0  0  0  0  0  0  0  0  0  0
  -27.7053  -35.1085   27.6572 C   0  0  0  0  0  0  0  0  0  0  0  0
  -30.8230  -32.8442   21.8548 C   0  0  0  0  0  0  0  0  0  0  0  0
  -28.4961  -32.1121   20.1832 C   0  0  0  0  0  0  0  0  0  0  0  0
  -27.0409  -35.0793   26.2831 C   0  0  0  0  0  0  0  0  0  0  0  0
  -29.6545  -12.1904   18.5965 C   0  0  0  0  0  0  0  0  0  0  0  0
  -26.9005  -33.6431   25.7885 C   0  0  0  0  0  0  0  0  0  0  0  0
  -28.2539  -11.8911   19.1361 C   0  0  0  0  0  0  0  0  0  0  0  0
  -30.5223  -12.9000   19.6343 C   0  0  0  0  0  0  0  0  0  0  0  0
  -28.5276  -13.8100   20.7578 C   0  0  0  0  0  0  0  0  0  0  0  0
  -28.2728  -32.9772   25.6311 C   0  0  1  0  0  0  0  0  0  0  0  0
  -29.4547  -33.4879   22.0568 C   0  0  1  0  0  0  0  0  0  0  0  0
  -27.5956  -13.1537   19.7261 C   0  0  2  0  0  0  0  0  0  0  0  0
  -26.8880  -36.1312   15.2430 C   0  0  0  0  0  0  0  0  0  0  0  0
  -24.9443  -33.6255   21.0580 C   0  0  0  0  0  0  0  0  0  0  0  0
  -24.3792  -34.2848   18.7097 C   0  0  0  0  0  0  0  0  0  0  0  0
  -25.1794  -36.0060   20.3284 C   0  0  0  0  0  0  0  0  0  0  0  0
  -30.4272  -34.9913   16.0501 C   0  0  0  0  0  0  0  0  0  0  0  0
  -31.2365  -24.2120   20.2588 C   0  0  0  0  0  0  0  0  0  0  0  0
  -30.5606  -25.4170   19.6138 C   0  0  0  0  0  0  0  0  0  0  0  0
  -31.2908  -26.7120   19.9387 C   0  0  0  0  0  0  0  0  0  1  0  0
  -26.8151  -34.3083   19.4148 C   0  0  1  0  0  0  0  0  0  0  0  0
  -28.0575  -35.7749   16.1475 C   0  0  2  0  0  0  0  0  0  0  0  0
  -25.3502  -34.5373   19.8829 C   0  0  0  0  0  0  0  0  0  0  0  0
  -26.0003  -11.6480   20.8528 N   0  0  0  0  0  0  0  0  0  0  0  0
  -26.7048  -19.3248   20.2783 N   0  0  0  0  0  0  0  0  0  0  0  0
  -26.2257  -12.8547   20.3059 N   0  0  0  0  0  0  0  0  0  0  0  0
  -28.6131  -33.4139   20.8609 N   0  0  0  0  0  0  0  0  0  0  0  0
  -29.8362  -14.0886   20.1457 N   0  0  0  0  0  0  0  0  0  0  0  0
  -25.2008  -14.9389   19.8404 N   0  0  0  0  0  0  0  0  0  0  0  0
  -21.9166  -12.5919   21.8657 N   0  0  0  0  0  0  0  0  0  0  0  0
  -31.1503  -21.8411   20.5947 N   0  0  0  0  0  0  0  0  0  0  0  0
  -29.6898  -16.4129   20.5176 N   0  0  0  0  0  0  0  0  0  0  0  0
  -28.9167  -33.4275   24.4158 N   0  0  0  0  0  0  0  0  0  0  0  0
  -27.2356  -35.1771   18.3209 N   0  0  0  0  0  0  0  0  0  0  0  0
  -29.2009  -35.3491   15.2917 N   0  3  0  0  0  0  0  0  0  0  0  0
  -22.4395  -14.5990   20.8876 O   0  0  0  0  0  0  0  0  0  0  0  0
  -27.9165  -31.9294   22.9401 O   0  0  0  0  0  0  0  0  0  0  0  0
  -27.8874  -35.6192   21.0756 O   0  0  0  0  0  0  0  0  0  0  0  0
  -29.4704  -22.8711   19.3166 O   0  0  0  0  0  0  0  0  0  0  0  0
  -27.7838  -33.4771   16.8422 O   0  0  0  0  0  0  0  0  0  0  0  0
  -31.5576  -15.4890   19.4980 O   0  0  0  0  0  0  0  0  0  0  0  0
  -22.2956   -7.3723   23.7755 O   0  0  0  0  0  0  0  0  0  0  0  0
  -30.6191  -27.7944   19.2956 O   0  0  0  0  0  0  0  0  0  1  0  0
  -17.2094   -5.9846   22.1603 F   0  0  0  0  0  0  0  0  0  0  0  0
  -33.0503  -19.8126   20.7483 F   0  0  0  0  0  0  0  0  0  0  0  0
  -21.7726   -4.8651   22.7347 F   0  0  0  0  0  0  0  0  0  0  0  0
  -28.4902  -21.0777   20.4000 F   0  0  0  0  0  0  0  0  0  0  0  0
  1  2  1  0  0  0  0
  1  5  2  0  0  0  0
  2  6  2  0  0  0  0
  3  8  2  0  0  0  0
  3 16  1  0  0  0  0
  4  9  1  0  0  0  0
  4 16  2  0  0  0  0
  5 19  1  0  0  0  0
  6 21  1  0  0  0  0
  7 10  2  0  0  0  0
  7 20  1  0  0  0  0
  8 25  1  0  0  0  0
  9 25  2  0  0  0  0
 10 26  1  0  0  0  0
 11 12  2  0  0  0  0
 11 27  1  0  0  0  0
 12 28  1  0  0  0  0
 13 22  1  0  0  0  0
 13 26  2  0  0  0  0
 14 23  1  0  0  0  0
 14 29  2  0  0  0  0
 15 28  2  0  0  0  0
 15 30  1  0  0  0  0
 16 32  1  0  0  0  0
 17 23  2  0  0  0  0
 17 31  1  0  0  0  0
 17 34  1  0  0  0  0
 18 32  1  0  0  0  0
 18 33  2  0  0  0  0
 18 35  1  0  0  0  0
 19 21  2  0  0  0  0
 19 41  1  0  0  0  0
 20 22  2  0  0  0  0
 20 42  1  0  0  0  0
 21 50  1  0  0  0  0
 22 43  1  0  0  0  0
 23 72  1  0  0  0  0
 24 29  1  0  0  0  0
 24 31  2  0  0  0  0
 24 71  1  0  0  0  0
 25 82  1  0  0  0  0
 26 83  1  0  0  0  0
 27 30  2  0  0  0  0
 27 82  1  0  0  0  0
 28 84  1  0  0  0  0
 29 85  1  0  0  0  0
 30 86  1  0  0  0  0
 31 87  1  0  0  0  0
 32 64  2  0  0  0  0
 33 66  1  0  0  0  0
 33 69  1  0  0  0  0
 34 65  2  0  0  0  0
 35 70  1  0  0  0  0
 35 76  2  0  0  0  0
 36 51  1  0  0  0  0
 36 73  1  0  0  0  0
 36 77  2  0  0  0  0
 37 61  1  0  0  0  0
 37 67  1  0  0  0  0
 37 78  2  0  0  0  0
 38 58  1  0  0  0  0
 38 71  1  0  0  0  0
 38 79  2  0  0  0  0
 39 62  1  0  0  0  0
 39 74  1  0  0  0  0
 39 80  2  0  0  0  0
 40 68  1  0  0  0  0
 40 72  1  0  0  0  0
 40 81  2  0  0  0  0
 41 44  1  0  0  0  0
 42 51  1  0  0  0  0
 43 67  1  0  0  0  0
 44 46  1  0  0  0  0
 45 47  1  0  0  0  0
 45 48  1  0  0  0  0
 46 50  1  0  0  0  0
 47 52  1  0  0  0  0
 48 68  1  0  0  0  0
 49 52  1  0  0  0  0
 49 68  1  0  0  0  0
 50 73  1  0  0  0  0
 51 67  1  0  0  0  0
 52 66  1  0  0  0  0
 53 62  1  0  0  0  0
 54 63  1  0  0  0  0
 55 63  1  0  0  0  0
 56 63  1  0  0  0  0
 57 75  1  0  0  0  0
 58 59  1  0  0  0  0
 59 60  1  0  0  0  0
 60 83  1  0  0  0  0
 61 63  1  0  0  0  0
 61 74  1  0  0  0  0
 62 75  1  0  0  0  0
 64 66  1  0  0  0  0
M  CHG  1  75   1
M  ISO  4  40 100  60 101  72 100  83 101
M  END
> <Batch ID>
0179

> <Smiles>
CNC(C)C(=O)NC(C(=O)N1Cc2cc([101O:1][101CH2:1]CCC(=O)Nc3c(F)cc([100NH:0][100C:0](=O)N4CCCC(n5nc(-c6ccc(Oc7ccc(F)cc7F)cc6)c(C(N)=O)c5N)C4)c(C=N)c3F)ccc2CC1C(=O)NC1CCCc2ccccc21)C(C)(C)C

> <Shape>
0.234

> <Color>
0.141

> <Negative vol penalty>
0.000

$$$$

  -OEChem-04052304473D

 85 93  0     1  0  0  0  0  0999 V2000
  -17.4680  -28.2336   26.5548 C   0  0  0  0  0  0  0  0  0  0  0  0
  -18.4066  -27.4354   25.9088 C   0  0  0  0  0  0  0  0  0  0  0  0
  -23.1513   -9.7515   21.4882 C   0  0  0  0  0  0  0  0  0  0  0  0
  -23.7978  -10.7745   23.5793 C   0  0  0  0  0  0  0  0  0  0  0  0
  -17.0574  -29.4332   25.9749 C   0  0  0  0  0  0  0  0  0  0  0  0
  -18.9343  -27.8359   24.6818 C   0  0  0  0  0  0  0  0  0  0  0  0
  -23.9561  -27.2301   24.4361 C   0  0  0  0  0  0  0  0  0  0  0  0
  -22.4255   -8.7856   22.1851 C   0  0  0  0  0  0  0  0  0  0  0  0
  -23.0719   -9.8086   24.2763 C   0  0  0  0  0  0  0  0  0  0  0  0
  -24.4314  -25.9389   24.2109 C   0  0  0  0  0  0  0  0  0  0  0  0
  -23.0665   -5.9410   23.8945 C   0  0  0  0  0  0  0  0  0  0  0  0
  -23.2051   -4.6124   23.4930 C   0  0  0  0  0  0  0  0  0  0  0  0
  -24.7530  -26.4703   21.8800 C   0  0  0  0  0  0  0  0  0  0  0  0
  -20.8372   -4.5068   23.0251 C   0  0  0  0  0  0  0  0  0  0  0  0
  -31.5789  -17.8251   20.0654 C   0  0  0  0  0  0  0  0  0  0  0  0
  -23.8376  -10.7459   22.1853 C   0  0  0  0  0  0  0  0  0  0  0  0
  -24.1210  -12.9880   21.0019 C   0  0  0  0  0  0  0  0  0  0  0  0
  -17.5876  -29.8533   24.7449 C   0  0  0  0  0  0  0  0  0  0  0  0
  -23.8652  -28.1492   23.3809 C   0  0  0  0  0  0  0  0  0  0  0  0
  -18.5294  -29.0416   24.0842 C   0  0  0  0  0  0  0  0  0  0  0  0
  -24.2786  -27.7733   22.0949 C   0  0  0  0  0  0  0  0  0  0  0  0
  -22.3858   -8.8141   23.5791 C   0  0  0  0  0  0  0  0  0  0  0  0
  -24.8272  -25.5579   22.9321 C   0  0  0  0  0  0  0  0  0  0  0  0
  -21.8132   -6.5525   23.8614 C   0  0  0  0  0  0  0  0  0  0  0  0
  -22.0905   -3.8953   23.0583 C   0  0  0  0  0  0  0  0  0  0  0  0
  -20.6986   -5.8354   23.4266 C   0  0  0  0  0  0  0  0  0  0  0  0
  -31.6039  -19.2485   20.1245 C   0  0  0  0  0  0  0  0  0  0  0  0
  -24.5880  -11.7437   21.4660 C   0  0  0  0  0  0  0  0  0  0  0  0
  -30.4170  -19.7679   20.5927 C   0  0  0  0  0  0  0  0  0  0  0  0
  -25.2103  -13.5563   20.3880 C   0  0  0  0  0  0  0  0  0  0  0  0
  -30.3738  -17.3108   20.4910 C   0  0  0  0  0  0  0  0  0  0  0  0
  -26.5614  -24.1561   22.2264 C   0  0  0  0  0  0  0  0  0  1  0  0
  -22.8189  -13.5774   21.1155 C   0  0  0  0  0  0  0  0  0  0  0  0
  -30.1503  -21.2108   20.7626 C   0  0  0  0  0  0  0  0  0  0  0  0
  -27.1184  -22.9669   21.9714 C   0  0  0  0  0  0  0  0  0  0  0  0
  -28.5044  -22.9344   21.4479 C   0  0  0  0  0  0  0  0  0  0  0  0
  -21.4894  -29.7320   21.9831 C   0  0  0  0  0  0  0  0  0  0  0  0
  -23.9126  -31.1706   20.3765 C   0  0  0  0  0  0  0  0  0  0  0  0
  -27.1327  -31.0275   19.2555 C   0  0  0  0  0  0  0  0  0  0  0  0
  -30.6333  -14.8141   20.2776 C   0  0  0  0  0  0  0  0  0  0  0  0
  -17.0779  -31.1348   24.1344 C   0  0  0  0  0  0  0  0  0  0  0  0
  -23.3755  -29.5466   23.6457 C   0  0  0  0  0  0  0  0  0  0  0  0
  -24.2199  -28.7289   20.9321 C   0  0  0  0  0  0  0  0  0  0  0  0
  -17.9641  -31.6696   23.0124 C   0  0  0  0  0  0  0  0  0  0  0  0
  -29.6972  -11.5718   19.1427 C   0  0  0  0  0  0  0  0  0  0  0  0
  -18.3412  -30.5483   22.0495 C   0  0  0  0  0  0  0  0  0  0  0  0
  -28.2461  -11.4298   19.6077 C   0  0  0  0  0  0  0  0  0  0  0  0
  -30.5465  -12.3335   20.1587 C   0  0  0  0  0  0  0  0  0  0  0  0
  -28.5566  -13.4959   21.0296 C   0  0  0  0  0  0  0  0  0  0  0  0
  -19.1434  -29.4540   22.7640 C   0  0  1  0  0  0  0  0  0  0  0  0
  -22.8421  -30.2396   22.3956 C   0  0  1  0  0  0  0  0  0  0  0  0
  -27.6472  -12.7920   20.0092 C   0  0  2  0  0  0  0  0  0  0  0  0
  -28.8202  -32.3373   17.9386 C   0  0  0  0  0  0  0  0  0  0  0  0
  -22.4876  -30.4018   17.7904 C   0  0  0  0  0  0  0  0  0  0  0  0
  -24.6181  -30.8661   16.5602 C   0  0  0  0  0  0  0  0  0  0  0  0
  -23.4683  -32.7023   17.7968 C   0  0  0  0  0  0  0  0  0  0  0  0
  -28.9819  -31.1845   21.5609 C   0  0  0  0  0  0  0  0  0  0  0  0
  -24.6609  -30.8905   19.0957 C   0  0  1  0  0  0  0  0  0  0  0  0
  -28.2683  -32.0327   19.3226 C   0  0  2  0  0  0  0  0  0  0  0  0
  -23.8081  -31.1963   17.8321 C   0  0  0  0  0  0  0  0  0  0  0  0
  -25.8738  -11.5332   21.1720 N   0  0  0  0  0  0  0  0  0  0  0  0
  -26.2240  -12.6530   20.5164 N   0  0  0  0  0  0  0  0  0  0  0  0
  -23.7279  -30.0818   21.2404 N   0  0  0  0  0  0  0  0  0  0  0  0
  -29.9195  -13.6154   20.4881 N   0  0  0  0  0  0  0  0  0  0  0  0
  -25.3904  -14.7357   19.7562 N   0  0  0  0  0  0  0  0  0  0  0  0
  -21.8150  -12.8573   21.7773 N   0  0  0  0  0  0  0  0  0  0  0  0
  -29.9236  -15.9714   20.5964 N   0  0  0  0  0  0  0  0  0  0  0  0
  -28.9492  -21.5806   21.2289 N   0  0  0  0  0  0  0  0  0  0  0  0
  -20.5152  -29.8746   22.9526 N   0  0  0  0  0  0  0  0  0  0  0  0
  -25.9045  -31.6490   19.1753 N   0  0  0  0  0  0  0  0  0  0  0  0
  -31.1233  -22.0636   20.4432 N   0  3  0  0  0  0  0  0  0  0  0  0
  -29.3782  -31.5049   20.1654 N   0  3  0  0  0  0  0  0  0  0  0  0
  -22.5492  -14.7021   20.6299 O   0  0  0  0  0  0  0  0  0  0  0  0
  -29.2083  -23.9046   21.2198 O   0  0  0  0  0  0  0  0  0  0  0  0
  -21.3402  -29.2481   20.8671 O   0  0  0  0  0  0  0  0  0  0  0  0
  -23.5130  -32.3150   20.6055 O   0  0  0  0  0  0  0  0  0  0  0  0
  -27.3171  -29.8124   19.2689 O   0  0  0  0  0  0  0  0  0  0  0  0
  -31.7793  -14.8153   19.8208 O   0  0  0  0  0  0  0  0  0  0  0  0
  -26.4637  -21.7716   22.1724 O   0  0  0  0  0  0  0  0  0  0  0  0
  -21.6774   -7.8719   24.2595 O   0  0  0  0  0  0  0  0  0  0  0  0
  -25.2909  -24.2981   22.7094 O   0  0  0  0  0  0  0  0  0  1  0  0
  -22.2241   -2.6199   22.6713 F   0  0  0  0  0  0  0  0  0  0  0  0
  -19.4922   -6.4178   23.3914 F   0  0  0  0  0  0  0  0  0  0  0  0
  -32.6579  -19.9853   19.7667 F   0  0  0  0  0  0  0  0  0  0  0  0
  -29.2792  -18.5417   20.9589 S   0  0  0  0  0  0  0  0  0  0  0  0
  1  2  1  0  0  0  0
  1  5  2  0  0  0  0
  2  6  2  0  0  0  0
  3  8  2  0  0  0  0
  3 16  1  0  0  0  0
  4  9  1  0  0  0  0
  4 16  2  0  0  0  0
  5 18  1  0  0  0  0
  6 20  1  0  0  0  0
  7 10  2  0  0  0  0
  7 19  1  0  0  0  0
  8 22  1  0  0  0  0
  9 22  2  0  0  0  0
 10 23  1  0  0  0  0
 11 12  2  0  0  0  0
 11 24  1  0  0  0  0
 12 25  1  0  0  0  0
 13 21  1  0  0  0  0
 13 23  2  0  0  0  0
 14 25  2  0  0  0  0
 14 26  1  0  0  0  0
 15 27  1  0  0  0  0
 15 31  2  0  0  0  0
 16 28  1  0  0  0  0
 17 28  1  0  0  0  0
 17 30  2  0  0  0  0
 17 33  1  0  0  0  0
 18 20  2  0  0  0  0
 18 41  1  0  0  0  0
 19 21  2  0  0  0  0
 19 42  1  0  0  0  0
 20 50  1  0  0  0  0
 21 43  1  0  0  0  0
 22 80  1  0  0  0  0
 23 81  1  0  0  0  0
 24 26  2  0  0  0  0
 24 80  1  0  0  0  0
 25 82  1  0  0  0  0
 26 83  1  0  0  0  0
 27 29  2  0  0  0  0
 27 84  1  0  0  0  0
 28 61  2  0  0  0  0
 29 34  1  0  0  0  0
 29 85  1  0  0  0  0
 30 62  1  0  0  0  0
 30 65  1  0  0  0  0
 31 67  1  0  0  0  0
 31 85  1  0  0  0  0
 32 35  2  0  0  0  0
 32 81  1  0  0  0  0
 33 66  1  0  0  0  0
 33 73  2  0  0  0  0
 34 68  1  0  0  0  0
 34 71  2  0  0  0  0
 35 36  1  0  0  0  0
 35 79  1  0  0  0  0
 36 68  1  0  0  0  0
 36 74  2  0  0  0  0
 37 51  1  0  0  0  0
 37 69  1  0  0  0  0
 37 75  2  0  0  0  0
 38 58  1  0  0  0  0
 38 63  1  0  0  0  0
 38 76  2  0  0  0  0
 39 59  1  0  0  0  0
 39 70  1  0  0  0  0
 39 77  2  0  0  0  0
 40 64  1  0  0  0  0
 40 67  1  0  0  0  0
 40 78  2  0  0  0  0
 41 44  1  0  0  0  0
 42 51  1  0  0  0  0
 43 63  1  0  0  0  0
 44 46  1  0  0  0  0
 45 47  1  0  0  0  0
 45 48  1  0  0  0  0
 46 50  1  0  0  0  0
 47 52  1  0  0  0  0
 48 64  1  0  0  0  0
 49 52  1  0  0  0  0
 49 64  1  0  0  0  0
 50 69  1  0  0  0  0
 51 63  1  0  0  0  0
 52 62  1  0  0  0  0
 53 59  1  0  0  0  0
 54 60  1  0  0  0  0
 55 60  1  0  0  0  0
 56 60  1  0  0  0  0
 57 72  1  0  0  0  0
 58 60  1  0  0  0  0
 58 70  1  0  0  0  0
 59 72  1  0  0  0  0
 61 62  1  0  0  0  0
M  CHG  2  71   1  72   1
M  ISO  4  32 101  40 100  67 100  81 101
M  END
> <Batch ID>
0179

> <Smiles>
CNC(C)C(=O)NC(C(=O)N1Cc2cc([101O:1][101CH2:1]C(=O)C(=O)NC(=N)c3sc([100NH:0][100C:0](=O)N4CCCC(n5nc(-c6ccc(Oc7ccc(F)cc7F)cc6)c(C(N)=O)c5N)C4)cc3F)ccc2CC1C(=O)NC1CCCc2ccccc21)C(C)(C)C

> <Shape>
0.275

> <Color>
0.156

> <Negative vol penalty>
0.000

$$$$

  -OEChem-04052304473D

 84 92  0     1  0  0  0  0  0999 V2000
  -21.5248  -33.6980   15.8531 C   0  0  0  0  0  0  0  0  0  0  0  0
  -21.7519  -32.3440   16.0780 C   0  0  0  0  0  0  0  0  0  0  0  0
  -23.3859   -9.7183   21.8858 C   0  0  0  0  0  0  0  0  0  0  0  0
  -23.9389  -11.0550   23.8210 C   0  0  0  0  0  0  0  0  0  0  0  0
  -22.1958  -34.6524   16.6165 C   0  0  0  0  0  0  0  0  0  0  0  0
  -22.6511  -31.9437   17.0657 C   0  0  0  0  0  0  0  0  0  0  0  0
  -22.2294  -26.9871   20.6379 C   0  0  0  0  0  0  0  0  0  0  0  0
  -22.7165   -8.8092   22.7050 C   0  0  0  0  0  0  0  0  0  0  0  0
  -23.2694  -10.1459   24.6402 C   0  0  0  0  0  0  0  0  0  0  0  0
  -22.8150  -25.7242   20.5627 C   0  0  0  0  0  0  0  0  0  0  0  0
  -19.7246   -8.5969   24.2659 C   0  0  0  0  0  0  0  0  0  0  0  0
  -18.4731   -8.1459   23.8465 C   0  0  0  0  0  0  0  0  0  0  0  0
  -24.5487  -26.4446   22.0775 C   0  0  0  0  0  0  0  0  0  0  0  0
  -19.2985   -5.8754   23.8248 C   0  0  0  0  0  0  0  0  0  0  0  0
  -31.2713  -18.0987   19.4088 C   0  0  0  0  0  0  0  0  0  0  0  0
  -23.9972  -10.8412   22.4438 C   0  0  0  0  0  0  0  0  0  0  0  0
  -24.1474  -12.9167   20.9683 C   0  0  0  0  0  0  0  0  0  0  0  0
  -23.0963  -34.2635   17.6207 C   0  0  0  0  0  0  0  0  0  0  0  0
  -22.8060  -27.9933   21.4263 C   0  0  0  0  0  0  0  0  0  0  0  0
  -23.3357  -32.8938   17.8424 C   0  0  0  0  0  0  0  0  0  0  0  0
  -23.9669  -27.7187   22.1631 C   0  0  0  0  0  0  0  0  0  0  0  0
  -22.6582   -9.0230   24.0821 C   0  0  0  0  0  0  0  0  0  0  0  0
  -23.9765  -25.4536   21.2803 C   0  0  0  0  0  0  0  0  0  0  0  0
  -20.7632   -7.6871   24.4646 C   0  0  0  0  0  0  0  0  0  0  0  0
  -18.2600   -6.7852   23.6260 C   0  0  0  0  0  0  0  0  0  0  0  0
  -20.5501   -6.3264   24.2441 C   0  0  0  0  0  0  0  0  0  0  0  0
  -24.6893  -11.7803   21.5982 C   0  0  0  0  0  0  0  0  0  0  0  0
  -25.2046  -13.4681   20.2865 C   0  0  0  0  0  0  0  0  0  0  0  0
  -30.1095  -17.5370   19.8955 C   0  0  0  0  0  0  0  0  0  0  0  0
  -30.0870  -19.9312   19.6309 C   0  0  0  0  0  0  0  0  0  0  0  0
  -25.8314  -24.1355   20.7395 C   0  0  0  0  0  0  0  0  0  1  0  0
  -22.8083  -13.4282   20.9971 C   0  0  0  0  0  0  0  0  0  0  0  0
  -29.7328  -21.3725   19.5953 C   0  0  0  0  0  0  0  0  0  0  0  0
  -26.4923  -22.9772   20.6264 C   0  0  0  0  0  0  0  0  0  0  0  0
  -27.8922  -22.9921   20.1007 C   0  0  0  0  0  0  0  0  0  0  0  0
  -24.0423  -30.8640   20.8480 C   0  0  0  0  0  0  0  0  0  0  0  0
  -24.2013  -31.0175   24.0843 C   0  0  0  0  0  0  0  0  0  0  0  0
  -24.3539  -29.3531   27.0597 C   0  0  0  0  0  0  0  0  0  0  0  0
  -30.5346  -15.0572   20.0233 C   0  0  0  0  0  0  0  0  0  0  0  0
  -23.8336  -35.3321   18.3882 C   0  0  0  0  0  0  0  0  0  0  0  0
  -22.1471  -29.3423   21.5177 C   0  0  0  0  0  0  0  0  0  0  0  0
  -24.6141  -28.7582   23.0400 C   0  0  0  0  0  0  0  0  0  0  0  0
  -24.4887  -34.8202   19.6685 C   0  0  0  0  0  0  0  0  0  0  0  0
  -29.8264  -11.6364   19.3353 C   0  0  0  0  0  0  0  0  0  0  0  0
  -25.2398  -33.5198   19.4007 C   0  0  0  0  0  0  0  0  0  0  0  0
  -28.3822  -11.4623   19.8109 C   0  0  0  0  0  0  0  0  0  0  0  0
  -30.6117  -12.5831   20.2414 C   0  0  0  0  0  0  0  0  0  0  0  0
  -28.5397  -13.7176   20.9406 C   0  0  0  0  0  0  0  0  0  0  0  0
  -24.2850  -32.4198   18.9215 C   0  0  1  0  0  0  0  0  0  0  0  0
  -23.1064  -30.4480   21.9474 C   0  0  1  0  0  0  0  0  0  0  0  0
  -27.6906  -12.8234   20.0223 C   0  0  2  0  0  0  0  0  0  0  0  0
  -24.5138  -29.7492   29.5325 C   0  0  0  0  0  0  0  0  0  0  0  0
  -27.1605  -31.6969   23.7817 C   0  0  0  0  0  0  0  0  0  0  0  0
  -27.4631  -31.1466   26.2053 C   0  0  0  0  0  0  0  0  0  0  0  0
  -25.9600  -33.0200   25.5317 C   0  0  0  0  0  0  0  0  0  0  0  0
  -21.7697  -28.0005   27.5607 C   0  0  0  0  0  0  0  0  0  0  0  0
  -25.2272  -30.6350   25.1236 C   0  0  1  0  0  0  0  0  0  0  0  0
  -23.5792  -29.5291   28.3532 C   0  0  2  0  0  0  0  0  0  0  0  0
  -26.4419  -31.6054   25.1426 C   0  0  0  0  0  0  0  0  0  0  0  0
  -31.2601  -19.4714   19.2560 N   0  0  0  0  0  0  0  0  0  0  0  0
  -25.9896  -11.6181   21.3394 N   0  0  0  0  0  0  0  0  0  0  0  0
  -30.5933  -22.2458   19.1820 N   0  0  0  0  0  0  0  0  0  0  0  0
  -26.2736  -12.6598   20.5392 N   0  0  0  0  0  0  0  0  0  0  0  0
  -23.9356  -30.0638   23.0915 N   0  0  0  0  0  0  0  0  0  0  0  0
  -29.8982  -13.8531   20.3921 N   0  0  0  0  0  0  0  0  0  0  0  0
  -25.3146  -14.5607   19.5012 N   0  0  0  0  0  0  0  0  0  0  0  0
  -21.8458  -12.7389   21.7473 N   0  0  0  0  0  0  0  0  0  0  0  0
  -29.7468  -16.1972   20.1801 N   0  0  0  0  0  0  0  0  0  0  0  0
  -28.4529  -21.7123   20.0392 N   0  0  0  0  0  0  0  0  0  0  0  0
  -23.5478  -31.8686   20.0383 N   0  0  0  0  0  0  0  0  0  0  0  0
  -24.5111  -30.5491   26.3917 N   0  0  0  0  0  0  0  0  0  0  0  0
  -22.7507  -28.3214   28.6292 N   0  3  0  0  0  0  0  0  0  0  0  0
  -22.4714  -14.4566   20.3627 O   0  0  0  0  0  0  0  0  0  0  0  0
  -28.4515  -24.0323   19.7668 O   0  0  0  0  0  0  0  0  0  0  0  0
  -25.1330  -30.3153   20.7431 O   0  0  0  0  0  0  0  0  0  0  0  0
  -23.6506  -32.1191   24.1549 O   0  0  0  0  0  0  0  0  0  0  0  0
  -24.7805  -28.2642   26.6816 O   0  0  0  0  0  0  0  0  0  0  0  0
  -31.6834  -15.0729   19.5740 O   0  0  0  0  0  0  0  0  0  0  0  0
  -25.9346  -21.7646   20.9752 O   0  0  0  0  0  0  0  0  0  0  0  0
  -22.0049   -8.1363   24.8818 O   0  0  0  0  0  0  0  0  0  0  0  0
  -24.5506  -24.2219   21.2082 O   0  0  0  0  0  0  0  0  0  1  0  0
  -17.0577   -6.3521   23.2247 F   0  0  0  0  0  0  0  0  0  0  0  0
  -21.5436   -5.4474   24.4345 F   0  0  0  0  0  0  0  0  0  0  0  0
  -28.9499  -18.7684   20.1787 S   0  0  0  0  0  0  0  0  0  0  0  0
  1  2  1  0  0  0  0
  1  5  2  0  0  0  0
  2  6  2  0  0  0  0
  3  8  2  0  0  0  0
  3 16  1  0  0  0  0
  4  9  1  0  0  0  0
  4 16  2  0  0  0  0
  5 18  1  0  0  0  0
  6 20  1  0  0  0  0
  7 10  2  0  0  0  0
  7 19  1  0  0  0  0
  8 22  1  0  0  0  0
  9 22  2  0  0  0  0
 10 23  1  0  0  0  0
 11 12  2  0  0  0  0
 11 24  1  0  0  0  0
 12 25  1  0  0  0  0
 13 21  1  0  0  0  0
 13 23  2  0  0  0  0
 14 25  2  0  0  0  0
 14 26  1  0  0  0  0
 15 29  2  0  0  0  0
 15 60  1  0  0  0  0
 16 27  1  0  0  0  0
 17 27  1  0  0  0  0
 17 28  2  0  0  0  0
 17 32  1  0  0  0  0
 18 20  2  0  0  0  0
 18 40  1  0  0  0  0
 19 21  2  0  0  0  0
 19 41  1  0  0  0  0
 20 49  1  0  0  0  0
 21 42  1  0  0  0  0
 22 80  1  0  0  0  0
 23 81  1  0  0  0  0
 24 26  2  0  0  0  0
 24 80  1  0  0  0  0
 25 82  1  0  0  0  0
 26 83  1  0  0  0  0
 27 61  2  0  0  0  0
 28 63  1  0  0  0  0
 28 66  1  0  0  0  0
 29 68  1  0  0  0  0
 29 84  1  0  0  0  0
 30 33  1  0  0  0  0
 30 60  2  0  0  0  0
 30 84  1  0  0  0  0
 31 34  2  0  0  0  0
 31 81  1  0  0  0  0
 32 67  1  0  0  0  0
 32 73  2  0  0  0  0
 33 62  2  0  0  0  0
 33 69  1  0  0  0  0
 34 35  1  0  0  0  0
 34 79  1  0  0  0  0
 35 69  1  0  0  0  0
 35 74  2  0  0  0  0
 36 50  1  0  0  0  0
 36 70  1  0  0  0  0
 36 75  2  0  0  0  0
 37 57  1  0  0  0  0
 37 64  1  0  0  0  0
 37 76  2  0  0  0  0
 38 58  1  0  0  0  0
 38 71  1  0  0  0  0
 38 77  2  0  0  0  0
 39 65  1  0  0  0  0
 39 68  1  0  0  0  0
 39 78  2  0  0  0  0
 40 43  1  0  0  0  0
 41 50  1  0  0  0  0
 42 64  1  0  0  0  0
 43 45  1  0  0  0  0
 44 46  1  0  0  0  0
 44 47  1  0  0  0  0
 45 49  1  0  0  0  0
 46 51  1  0  0  0  0
 47 65  1  0  0  0  0
 48 51  1  0  0  0  0
 48 65  1  0  0  0  0
 49 70  1  0  0  0  0
 50 64  1  0  0  0  0
 51 63  1  0  0  0  0
 52 58  1  0  0  0  0
 53 59  1  0  0  0  0
 54 59  1  0  0  0  0
 55 59  1  0  0  0  0
 56 72  1  0  0  0  0
 57 59  1  0  0  0  0
 57 71  1  0  0  0  0
 58 72  1  0  0  0  0
 61 63  1  0  0  0  0
M  CHG  1  72   1
M  ISO  4  31 101  39 100  68 100  81 101
M  END
> <Batch ID>
0179

> <Smiles>
CNC(C)C(=O)NC(C(=O)N1Cc2cc([101O:1][101CH2:1]C(=O)C(=O)NC(=N)c3ncc([100NH:0][100C:0](=O)N4CCCC(n5nc(-c6ccc(Oc7ccc(F)cc7F)cc6)c(C(N)=O)c5N)C4)s3)ccc2CC1C(=O)NC1CCCc2ccccc21)C(C)(C)C

> <Shape>
0.258

> <Color>
0.135

> <Negative vol penalty>
0.000

$$$$

  -OEChem-04052304473D

 82 90  0     1  0  0  0  0  0999 V2000
  -25.8088  -37.8280   26.4412 C   0  0  0  0  0  0  0  0  0  0  0  0
  -26.3917  -36.7062   27.0221 C   0  0  0  0  0  0  0  0  0  0  0  0
  -23.4812   -9.7016   19.9194 C   0  0  0  0  0  0  0  0  0  0  0  0
  -23.8500   -9.9636   22.2926 C   0  0  0  0  0  0  0  0  0  0  0  0
  -24.9307  -37.6793   25.3685 C   0  0  0  0  0  0  0  0  0  0  0  0
  -26.0958  -35.4350   26.5313 C   0  0  0  0  0  0  0  0  0  0  0  0
  -29.0659  -28.9852   25.5853 C   0  0  0  0  0  0  0  0  0  0  0  0
  -22.8479   -8.4809   20.1525 C   0  0  0  0  0  0  0  0  0  0  0  0
  -23.2166   -8.7428   22.5258 C   0  0  0  0  0  0  0  0  0  0  0  0
  -28.8299  -27.6395   25.8632 C   0  0  0  0  0  0  0  0  0  0  0  0
  -20.0505   -7.5733   22.6931 C   0  0  0  0  0  0  0  0  0  0  0  0
  -19.1225   -7.5145   23.7328 C   0  0  0  0  0  0  0  0  0  0  0  0
  -30.6575  -19.8626   22.8774 C   0  0  0  0  0  0  0  0  0  0  0  0
  -30.8274  -18.5614   22.3223 C   0  0  0  0  0  0  0  0  0  0  0  0
  -27.3601  -27.5094   23.9548 C   0  0  0  0  0  0  0  0  0  0  0  0
  -20.4468   -5.8103   24.8186 C   0  0  0  0  0  0  0  0  0  0  0  0
  -23.9824  -10.4429   20.9894 C   0  0  0  0  0  0  0  0  0  0  0  0
  -24.0387  -12.9771   20.7019 C   0  0  0  0  0  0  0  0  0  0  0  0
  -24.6314  -36.4063   24.8581 C   0  0  0  0  0  0  0  0  0  0  0  0
  -28.4412  -29.6070   24.4946 C   0  0  0  0  0  0  0  0  0  0  0  0
  -25.2118  -35.2691   25.4516 C   0  0  0  0  0  0  0  0  0  0  0  0
  -27.5918  -28.8624   23.6637 C   0  0  0  0  0  0  0  0  0  0  0  0
  -22.7156   -8.0015   21.4557 C   0  0  0  0  0  0  0  0  0  0  0  0
  -27.9747  -26.9022   25.0496 C   0  0  0  0  0  0  0  0  0  0  0  0
  -21.1766   -6.7505   22.7161 C   0  0  0  0  0  0  0  0  0  0  0  0
  -19.3206   -6.6331   24.7956 C   0  0  0  0  0  0  0  0  0  0  0  0
  -21.3748   -5.8690   23.7788 C   0  0  0  0  0  0  0  0  0  0  0  0
  -24.6372  -11.7037   20.7492 C   0  0  0  0  0  0  0  0  0  0  0  0
  -25.0793  -13.8363   20.4462 C   0  0  0  0  0  0  0  0  0  0  0  0
  -29.3842  -20.0542   23.3669 C   0  0  0  0  0  0  0  0  0  0  0  0
  -29.6773  -17.8078   22.4089 C   0  0  0  0  0  0  0  0  0  0  0  0
  -28.5641  -24.6591   24.7463 C   0  0  0  0  0  0  0  0  0  1  0  0
  -22.6650  -13.3499   20.8737 C   0  0  0  0  0  0  0  0  0  0  0  0
  -28.4271  -23.3421   24.9420 C   0  0  0  0  0  0  0  0  0  0  0  0
  -29.3825  -22.4033   24.2681 C   0  0  0  0  0  0  0  0  0  0  0  0
  -26.3989  -32.0189   24.1554 C   0  0  0  0  0  0  0  0  0  0  0  0
  -26.9461  -31.5263   20.9962 C   0  0  0  0  0  0  0  0  0  0  0  0
  -27.9156  -29.3833   18.5235 C   0  0  0  0  0  0  0  0  0  0  0  0
  -30.2814  -15.5957   21.3658 C   0  0  0  0  0  0  0  0  0  0  0  0
  -23.6396  -36.2922   23.7276 C   0  0  0  0  0  0  0  0  0  0  0  0
  -28.7271  -31.0525   24.1926 C   0  0  0  0  0  0  0  0  0  0  0  0
  -26.9124  -29.4778   22.4686 C   0  0  0  0  0  0  0  0  0  0  0  0
  -23.6692  -34.9369   23.0257 C   0  0  0  0  0  0  0  0  0  0  0  0
  -29.8617  -12.9020   19.0757 C   0  0  0  0  0  0  0  0  0  0  0  0
  -23.6827  -33.8059   24.0492 C   0  0  0  0  0  0  0  0  0  0  0  0
  -28.4158  -12.4548   19.3030 C   0  0  0  0  0  0  0  0  0  0  0  0
  -30.5347  -13.3293   20.3789 C   0  0  0  0  0  0  0  0  0  0  0  0
  -28.3557  -13.8908   21.3819 C   0  0  0  0  0  0  0  0  0  0  0  0
  -24.9350  -33.8752   24.9315 C   0  0  1  0  0  0  0  0  0  0  0  0
  -27.6358  -31.7157   23.3580 C   0  0  1  0  0  0  0  0  0  0  0  0
  -27.6157  -13.5125   20.0884 C   0  0  2  0  0  0  0  0  0  0  0  0
  -28.2247  -29.2558   16.0364 C   0  0  0  0  0  0  0  0  0  0  0  0
  -23.9239  -31.3142   20.6338 C   0  0  0  0  0  0  0  0  0  0  0  0
  -24.3356  -30.2673   18.3972 C   0  0  0  0  0  0  0  0  0  0  0  0
  -25.1019  -32.5994   18.8408 C   0  0  0  0  0  0  0  0  0  0  0  0
  -30.8074  -28.8156   18.7954 C   0  0  0  0  0  0  0  0  0  0  0  0
  -26.3204  -30.6671   19.9241 C   0  0  1  0  0  0  0  0  0  0  0  0
  -28.8906  -29.5491   17.3718 C   0  0  2  0  0  0  0  0  0  0  0  0
  -24.9316  -31.2006   19.4725 C   0  0  0  0  0  0  0  0  0  0  0  0
  -25.9557  -11.7456   20.5402 N   0  0  0  0  0  0  0  0  0  0  0  0
  -26.1944  -13.0557   20.3590 N   0  0  0  0  0  0  0  0  0  0  0  0
  -27.2189  -30.8959   22.2185 N   0  0  0  0  0  0  0  0  0  0  0  0
  -29.7222  -14.3355   21.0660 N   0  0  0  0  0  0  0  0  0  0  0  0
  -25.1402  -15.1757   20.2896 N   0  0  0  0  0  0  0  0  0  0  0  0
  -21.7260  -12.3414   21.1302 N   0  0  0  0  0  0  0  0  0  0  0  0
  -28.7919  -21.1777   23.9923 N   0  0  0  0  0  0  0  0  0  0  0  0
  -29.4045  -16.4818   21.9907 N   0  0  0  0  0  0  0  0  0  0  0  0
  -26.0851  -33.3632   24.2176 N   0  0  0  0  0  0  0  0  0  0  0  0
  -27.3032  -30.5748   18.8498 N   0  0  0  0  0  0  0  0  0  0  0  0
  -30.0464  -28.6225   17.5342 N   0  3  0  0  0  0  0  0  0  0  0  0
  -22.2789  -14.5402   20.7857 O   0  0  0  0  0  0  0  0  0  0  0  0
  -30.5338  -22.7460   24.0211 O   0  0  0  0  0  0  0  0  0  0  0  0
  -25.7745  -31.1011   24.6744 O   0  0  0  0  0  0  0  0  0  0  0  0
  -27.1904  -32.7112   20.7556 O   0  0  0  0  0  0  0  0  0  0  0  0
  -27.7143  -28.3039   19.0757 O   0  0  0  0  0  0  0  0  0  0  0  0
  -31.4438  -15.8782   21.0641 O   0  0  0  0  0  0  0  0  0  0  0  0
  -27.4380  -22.8098   25.7439 O   0  0  0  0  0  0  0  0  0  0  0  0
  -22.0974   -6.8105   21.6835 O   0  0  0  0  0  0  0  0  0  0  0  0
  -27.7421  -25.5887   25.3190 O   0  0  0  0  0  0  0  0  0  1  0  0
  -18.4302   -6.5779   25.7947 F   0  0  0  0  0  0  0  0  0  0  0  0
  -22.4553   -5.0769   23.8070 F   0  0  0  0  0  0  0  0  0  0  0  0
  -28.3999  -18.6688   23.1567 S   0  0  0  0  0  0  0  0  0  0  0  0
  1  2  1  0  0  0  0
  1  5  2  0  0  0  0
  2  6  2  0  0  0  0
  3  8  2  0  0  0  0
  3 17  1  0  0  0  0
  4  9  1  0  0  0  0
  4 17  2  0  0  0  0
  5 19  1  0  0  0  0
  6 21  1  0  0  0  0
  7 10  2  0  0  0  0
  7 20  1  0  0  0  0
  8 23  1  0  0  0  0
  9 23  2  0  0  0  0
 10 24  1  0  0  0  0
 11 12  2  0  0  0  0
 11 25  1  0  0  0  0
 12 26  1  0  0  0  0
 13 14  1  0  0  0  0
 13 30  2  0  0  0  0
 14 31  2  0  0  0  0
 15 22  1  0  0  0  0
 15 24  2  0  0  0  0
 16 26  2  0  0  0  0
 16 27  1  0  0  0  0
 17 28  1  0  0  0  0
 18 28  1  0  0  0  0
 18 29  2  0  0  0  0
 18 33  1  0  0  0  0
 19 21  2  0  0  0  0
 19 40  1  0  0  0  0
 20 22  2  0  0  0  0
 20 41  1  0  0  0  0
 21 49  1  0  0  0  0
 22 42  1  0  0  0  0
 23 78  1  0  0  0  0
 24 79  1  0  0  0  0
 25 27  2  0  0  0  0
 25 78  1  0  0  0  0
 26 80  1  0  0  0  0
 27 81  1  0  0  0  0
 28 60  2  0  0  0  0
 29 61  1  0  0  0  0
 29 64  1  0  0  0  0
 30 66  1  0  0  0  0
 30 82  1  0  0  0  0
 31 67  1  0  0  0  0
 31 82  1  0  0  0  0
 32 34  2  0  0  0  0
 32 79  1  0  0  0  0
 33 65  1  0  0  0  0
 33 71  2  0  0  0  0
 34 35  1  0  0  0  0
 34 77  1  0  0  0  0
 35 66  1  0  0  0  0
 35 72  2  0  0  0  0
 36 50  1  0  0  0  0
 36 68  1  0  0  0  0
 36 73  2  0  0  0  0
 37 57  1  0  0  0  0
 37 62  1  0  0  0  0
 37 74  2  0  0  0  0
 38 58  1  0  0  0  0
 38 69  1  0  0  0  0
 38 75  2  0  0  0  0
 39 63  1  0  0  0  0
 39 67  1  0  0  0  0
 39 76  2  0  0  0  0
 40 43  1  0  0  0  0
 41 50  1  0  0  0  0
 42 62  1  0  0  0  0
 43 45  1  0  0  0  0
 44 46  1  0  0  0  0
 44 47  1  0  0  0  0
 45 49  1  0  0  0  0
 46 51  1  0  0  0  0
 47 63  1  0  0  0  0
 48 51  1  0  0  0  0
 48 63  1  0  0  0  0
 49 68  1  0  0  0  0
 50 62  1  0  0  0  0
 51 61  1  0  0  0  0
 52 58  1  0  0  0  0
 53 59  1  0  0  0  0
 54 59  1  0  0  0  0
 55 59  1  0  0  0  0
 56 70  1  0  0  0  0
 57 59  1  0  0  0  0
 57 69  1  0  0  0  0
 58 70  1  0  0  0  0
 60 61  1  0  0  0  0
M  CHG  1  70   1
M  ISO  4  32 101  39 100  67 100  79 101
M  END
> <Batch ID>
0179

> <Smiles>
CNC(C)C(=O)NC(C(=O)N1Cc2cc([101O:1][101CH2:1]C(=O)C(=O)Nc3ccc([100NH:0][100C:0](=O)N4CCCC(n5nc(-c6ccc(Oc7ccc(F)cc7F)cc6)c(C(N)=O)c5N)C4)s3)ccc2CC1C(=O)NC1CCCc2ccccc21)C(C)(C)C

> <Shape>
0.279

> <Color>
0.164

> <Negative vol penalty>
0.000

$$$$

  -OEChem-04052304473D

 84 92  0     1  0  0  0  0  0999 V2000
  -16.9422  -29.1540   24.4583 C   0  0  0  0  0  0  0  0  0  0  0  0
  -17.3348  -28.0669   23.6840 C   0  0  0  0  0  0  0  0  0  0  0  0
  -27.3239  -17.9101   19.8368 C   0  0  0  0  0  0  0  0  0  0  0  0
  -28.5738  -17.8854   21.9041 C   0  0  0  0  0  0  0  0  0  0  0  0
  -17.5988  -30.3767   24.3248 C   0  0  0  0  0  0  0  0  0  0  0  0
  -18.3836  -28.2021   22.7751 C   0  0  0  0  0  0  0  0  0  0  0  0
  -22.5208  -23.9458   21.2677 C   0  0  0  0  0  0  0  0  0  0  0  0
  -27.1139  -16.5356   19.9473 C   0  0  0  0  0  0  0  0  0  0  0  0
  -28.3639  -16.5109   22.0147 C   0  0  0  0  0  0  0  0  0  0  0  0
  -22.6125  -23.0674   20.1889 C   0  0  0  0  0  0  0  0  0  0  0  0
  -25.0820  -14.4570   21.6746 C   0  0  0  0  0  0  0  0  0  0  0  0
  -23.7964  -13.9756   21.4273 C   0  0  0  0  0  0  0  0  0  0  0  0
  -24.0668  -24.6221   19.0544 C   0  0  0  0  0  0  0  0  0  0  0  0
  -24.6532  -12.6131   19.6254 C   0  0  0  0  0  0  0  0  0  0  0  0
  -28.0539  -18.5850   20.8152 C   0  0  0  0  0  0  0  0  0  0  0  0
  -27.4546  -21.0334   21.2077 C   0  0  0  0  0  0  0  0  0  0  0  0
  -18.6625  -30.5244   23.4207 C   0  0  0  0  0  0  0  0  0  0  0  0
  -23.1938  -25.1758   21.2432 C   0  0  0  0  0  0  0  0  0  0  0  0
  -19.0541  -29.4283   22.6285 C   0  0  0  0  0  0  0  0  0  0  0  0
  -23.9841  -25.5132   20.1352 C   0  0  0  0  0  0  0  0  0  0  0  0
  -27.6339  -15.8360   21.0362 C   0  0  0  0  0  0  0  0  0  0  0  0
  -23.3833  -23.4068   19.0808 C   0  0  0  0  0  0  0  0  0  0  0  0
  -26.1532  -14.0165   20.8972 C   0  0  0  0  0  0  0  0  0  0  0  0
  -23.5820  -13.0537   20.4027 C   0  0  0  0  0  0  0  0  0  0  0  0
  -25.9388  -13.0946   19.8727 C   0  0  0  0  0  0  0  0  0  0  0  0
  -28.2715  -20.0048   20.7013 C   0  0  0  0  0  0  0  0  0  0  0  0
  -28.8151  -24.5660   14.3652 C   0  0  0  0  0  0  0  0  0  0  0  0
  -28.0921  -22.1921   20.8371 C   0  0  0  0  0  0  0  0  0  0  0  0
  -28.3350  -25.1445   13.2090 C   0  0  0  0  0  0  0  0  0  0  0  0
  -26.6696  -24.2835   14.7215 C   0  0  0  0  0  0  0  0  0  0  0  0
  -26.2291  -20.9490   21.9471 C   0  0  0  0  0  0  0  0  0  0  0  0
  -30.2550  -24.4517   14.7123 C   0  0  0  0  0  0  0  0  0  0  0  0
  -22.2989  -28.2245   21.3341 C   0  0  0  0  0  0  0  0  0  0  0  0
  -25.4953  -28.7532   21.4943 C   0  0  0  0  0  0  0  0  0  0  0  0
  -28.6534  -27.6296   20.8536 C   0  0  0  0  0  0  0  0  0  0  0  0
  -25.1693  -23.3005   16.4884 C   0  0  0  0  0  0  0  0  0  0  0  0
  -31.8202  -23.5848   16.4218 C   0  0  0  0  0  0  0  0  0  0  0  0
  -19.3108  -31.8786   23.2775 C   0  0  0  0  0  0  0  0  0  0  0  0
  -23.1061  -26.1005   22.4263 C   0  0  0  0  0  0  0  0  0  0  0  0
  -24.7425  -26.8128   20.0683 C   0  0  0  0  0  0  0  0  0  0  0  0
  -20.6580  -31.8362   22.5608 C   0  0  0  0  0  0  0  0  0  0  0  0
  -32.4582  -23.9250   19.8822 C   0  0  0  0  0  0  0  0  0  0  0  0
  -20.5668  -30.9779   21.3031 C   0  0  0  0  0  0  0  0  0  0  0  0
  -31.3732  -23.0647   20.5357 C   0  0  0  0  0  0  0  0  0  0  0  0
  -32.9820  -23.2946   18.5925 C   0  0  0  0  0  0  0  0  0  0  0  0
  -30.8710  -22.0714   18.2673 C   0  0  0  0  0  0  0  0  0  0  0  0
  -20.2036  -29.5288   21.6493 C   0  0  1  0  0  0  0  0  0  0  0  0
  -23.4196  -27.5516   22.0749 C   0  0  1  0  0  0  0  0  0  0  0  0
  -30.2616  -22.6975   19.5321 C   0  0  1  0  0  0  0  0  0  0  0  0
  -31.1626  -27.5975   20.8752 C   0  0  0  0  0  0  0  0  0  0  0  0
  -23.0268  -22.2422   15.6828 C   0  0  0  0  0  0  0  0  0  0  0  0
  -25.1782  -30.6284   19.1083 C   0  0  0  0  0  0  0  0  0  0  0  0
  -27.6568  -30.5107   18.7752 C   0  0  0  0  0  0  0  0  0  0  0  0
  -26.7276  -31.4572   20.8878 C   0  0  0  0  0  0  0  0  0  0  0  0
  -28.7284  -26.1912   23.4390 C   0  0  0  0  0  0  0  0  0  0  0  0
  -26.5959  -28.9651   20.4830 C   0  0  1  0  0  0  0  0  0  0  0  0
  -29.8985  -27.5754   21.7204 C   0  0  2  0  0  0  0  0  0  0  0  0
  -23.6729  -23.1293   16.7366 C   0  0  1  0  0  0  0  0  0  1  0  0
  -26.5239  -30.3666   19.8137 C   0  0  0  0  0  0  0  0  0  0  0  0
  -29.3459  -20.4692   20.0578 N   0  0  0  0  0  0  0  0  0  0  0  0
  -27.8616  -24.0721   15.2339 N   0  0  0  0  0  0  0  0  0  0  0  0
  -29.2085  -21.8023   20.1573 N   0  0  0  0  0  0  0  0  0  0  0  0
  -24.6200  -27.6861   21.2472 N   0  0  0  0  0  0  0  0  0  0  0  0
  -31.8691  -22.9860   17.6927 N   0  0  0  0  0  0  0  0  0  0  0  0
  -27.8011  -23.4962   21.0294 N   0  0  0  0  0  0  0  0  0  0  0  0
  -29.0391  -25.7040   12.1945 N   0  0  0  0  0  0  0  0  0  0  0  0
  -25.7134  -19.6798   22.2430 N   0  0  0  0  0  0  0  0  0  0  0  0
  -25.4144  -23.9389   15.2771 N   0  0  0  0  0  0  0  0  0  0  0  0
  -30.5334  -23.8316   15.9307 N   0  0  0  0  0  0  0  0  0  0  0  0
  -21.3624  -28.8242   22.1544 N   0  0  0  0  0  0  0  0  0  0  0  0
  -27.8489  -28.7002   21.1817 N   0  0  0  0  0  0  0  0  0  0  0  0
  -29.9040  -26.3319   22.5418 N   0  3  0  0  0  0  0  0  0  0  0  0
  -25.6013  -21.9690   22.3198 O   0  0  0  0  0  0  0  0  0  0  0  0
  -31.0963  -24.8596   13.9163 O   0  0  0  0  0  0  0  0  0  0  0  0
  -22.2856  -28.2026   20.1089 O   0  0  0  0  0  0  0  0  0  0  0  0
  -25.4194  -29.5023   22.4714 O   0  0  0  0  0  0  0  0  0  0  0  0
  -28.4199  -26.8067   19.9710 O   0  0  0  0  0  0  0  0  0  0  0  0
  -25.9985  -22.9140   17.3071 O   0  0  0  0  0  0  0  0  0  0  0  0
  -32.8342  -23.9071   15.7946 O   0  0  0  0  0  0  0  0  0  0  0  0
  -27.4291  -14.4948   21.1445 O   0  0  0  0  0  0  0  0  0  0  0  0
  -23.4740  -22.5515   18.0262 O   0  0  0  0  0  0  0  0  0  1  0  0
  -22.3477  -12.5903   20.1664 F   0  0  0  0  0  0  0  0  0  0  0  0
  -26.9641  -12.6668   19.1233 F   0  0  0  0  0  0  0  0  0  0  0  0
  -26.6215  -25.0710   13.1975 S   0  0  0  0  0  0  0  0  0  0  0  0
  1  2  1  0  0  0  0
  1  5  2  0  0  0  0
  2  6  2  0  0  0  0
  3  8  2  0  0  0  0
  3 15  1  0  0  0  0
  4  9  1  0  0  0  0
  4 15  2  0  0  0  0
  5 17  1  0  0  0  0
  6 19  1  0  0  0  0
  7 10  2  0  0  0  0
  7 18  1  0  0  0  0
  8 21  1  0  0  0  0
  9 21  2  0  0  0  0
 10 22  1  0  0  0  0
 11 12  2  0  0  0  0
 11 23  1  0  0  0  0
 12 24  1  0  0  0  0
 13 20  1  0  0  0  0
 13 22  2  0  0  0  0
 14 24  2  0  0  0  0
 14 25  1  0  0  0  0
 15 26  1  0  0  0  0
 16 26  1  0  0  0  0
 16 28  2  0  0  0  0
 16 31  1  0  0  0  0
 17 19  2  0  0  0  0
 17 38  1  0  0  0  0
 18 20  2  0  0  0  0
 18 39  1  0  0  0  0
 19 47  1  0  0  0  0
 20 40  1  0  0  0  0
 21 80  1  0  0  0  0
 22 81  1  0  0  0  0
 23 25  2  0  0  0  0
 23 80  1  0  0  0  0
 24 82  1  0  0  0  0
 25 83  1  0  0  0  0
 26 60  2  0  0  0  0
 27 29  2  0  0  0  0
 27 32  1  0  0  0  0
 27 61  1  0  0  0  0
 28 62  1  0  0  0  0
 28 65  1  0  0  0  0
 29 66  1  0  0  0  0
 29 84  1  0  0  0  0
 30 61  2  0  0  0  0
 30 68  1  0  0  0  0
 30 84  1  0  0  0  0
 31 67  1  0  0  0  0
 31 73  2  0  0  0  0
 32 69  1  0  0  0  0
 32 74  2  0  0  0  0
 33 48  1  0  0  0  0
 33 70  1  0  0  0  0
 33 75  2  0  0  0  0
 34 56  1  0  0  0  0
 34 63  1  0  0  0  0
 34 76  2  0  0  0  0
 35 57  1  0  0  0  0
 35 71  1  0  0  0  0
 35 77  2  0  0  0  0
 36 58  1  0  0  0  0
 36 68  1  0  0  0  0
 36 78  2  0  0  0  0
 37 64  1  0  0  0  0
 37 69  1  0  0  0  0
 37 79  2  0  0  0  0
 38 41  1  0  0  0  0
 39 48  1  0  0  0  0
 40 63  1  0  0  0  0
 41 43  1  0  0  0  0
 42 44  1  0  0  0  0
 42 45  1  0  0  0  0
 43 47  1  0  0  0  0
 44 49  1  0  0  0  0
 45 64  1  0  0  0  0
 46 49  1  0  0  0  0
 46 64  1  0  0  0  0
 47 70  1  0  0  0  0
 48 63  1  0  0  0  0
 49 62  1  0  0  0  0
 50 57  1  0  0  0  0
 51 58  1  0  0  0  0
 52 59  1  0  0  0  0
 53 59  1  0  0  0  0
 54 59  1  0  0  0  0
 55 72  1  0  0  0  0
 56 59  1  0  0  0  0
 56 71  1  0  0  0  0
 57 72  1  0  0  0  0
 58 81  1  0  0  0  0
 60 62  1  0  0  0  0
M  CHG  1  72   1
M  ISO  4  37 100  58 101  69 100  81 101
M  END
> <Batch ID>
0179

> <Smiles>
CNC(C)C(=O)NC(C(=O)N1Cc2cc([101O:1][101CH:1](C)C(=O)Nc3nc(C(=O)[100NH:0][100C:0](=O)N4CCCC(n5nc(-c6ccc(Oc7ccc(F)cc7F)cc6)c(C(N)=O)c5N)C4)c(N)s3)ccc2CC1C(=O)NC1CCCc2ccccc21)C(C)(C)C

> <Shape>
0.215

> <Color>
0.073

> <Negative vol penalty>
0.000

$$$$

  -OEChem-04052304473D

 86 94  0     1  0  0  0  0  0999 V2000
  -22.3377  -10.5926   21.6474 C   0  0  0  0  0  0  0  0  0  0  0  0
  -22.0334  -11.7437   22.3669 C   0  0  0  0  0  0  0  0  0  0  0  0
  -24.6490  -28.7512   20.2053 C   0  0  0  0  0  0  0  0  0  0  0  0
  -24.5153  -27.6814   22.3675 C   0  0  0  0  0  0  0  0  0  0  0  0
  -23.4827  -10.5508   20.8529 C   0  0  0  0  0  0  0  0  0  0  0  0
  -22.8746  -12.8534   22.2933 C   0  0  0  0  0  0  0  0  0  0  0  0
  -22.6992  -20.0128   22.4626 C   0  0  0  0  0  0  0  0  0  0  0  0
  -23.3264  -29.1753   20.3334 C   0  0  0  0  0  0  0  0  0  0  0  0
  -23.1926  -28.1056   22.4955 C   0  0  0  0  0  0  0  0  0  0  0  0
  -23.2911  -21.0894   23.1217 C   0  0  0  0  0  0  0  0  0  0  0  0
  -20.1540  -27.1704   21.3453 C   0  0  0  0  0  0  0  0  0  0  0  0
  -19.2177  -26.2436   21.8034 C   0  0  0  0  0  0  0  0  0  0  0  0
  -25.1995  -20.9304   21.6546 C   0  0  0  0  0  0  0  0  0  0  0  0
  -18.7297  -27.6698   23.6915 C   0  0  0  0  0  0  0  0  0  0  0  0
  -30.0386  -18.5008   23.1626 C   0  0  0  0  0  0  0  0  0  0  0  0
  -25.2434  -28.0041   21.2224 C   0  0  0  0  0  0  0  0  0  0  0  0
  -27.7668  -28.2527   21.5024 C   0  0  0  0  0  0  0  0  0  0  0  0
  -24.3332  -11.6639   20.7619 C   0  0  0  0  0  0  0  0  0  0  0  0
  -23.3589  -19.3789   21.3999 C   0  0  0  0  0  0  0  0  0  0  0  0
  -24.0327  -12.8260   21.4979 C   0  0  0  0  0  0  0  0  0  0  0  0
  -24.6127  -19.8476   20.9821 C   0  0  0  0  0  0  0  0  0  0  0  0
  -22.5982  -28.8525   21.4785 C   0  0  0  0  0  0  0  0  0  0  0  0
  -24.5427  -21.5465   22.7196 C   0  0  0  0  0  0  0  0  0  0  0  0
  -20.3783  -28.3469   22.0603 C   0  0  0  0  0  0  0  0  0  0  0  0
  -18.5055  -26.4933   22.9764 C   0  0  0  0  0  0  0  0  0  0  0  0
  -19.6661  -28.5966   23.2334 C   0  0  0  0  0  0  0  0  0  0  0  0
  -29.6510  -18.6222   24.4815 C   0  0  0  0  0  0  0  0  0  0  0  0
  -26.6095  -27.5652   21.0905 C   0  0  0  0  0  0  0  0  0  0  0  0
  -28.9779  -19.7836   24.8015 C   0  0  0  0  0  0  0  0  0  0  0  0
  -28.8026  -27.4201   21.1554 C   0  0  0  0  0  0  0  0  0  0  0  0
  -29.1292  -20.5218   22.6569 C   0  0  0  0  0  0  0  0  0  0  0  0
  -27.8942  -29.5298   22.1416 C   0  0  0  0  0  0  0  0  0  0  0  0
  -24.4571  -16.4429   20.8730 C   0  0  0  0  0  0  0  0  0  0  0  0
  -26.5692  -21.2650   25.7964 C   0  0  0  0  0  0  0  0  0  0  0  0
  -25.0456  -17.6158   17.9064 C   0  0  0  0  0  0  0  0  0  0  0  0
  -25.6240  -20.3362   15.9288 C   0  0  0  0  0  0  0  0  0  0  0  0
  -29.1949  -21.5134   20.3420 C   0  0  0  0  0  0  0  0  0  0  0  0
  -25.5847  -11.5550   19.9272 C   0  0  0  0  0  0  0  0  0  0  0  0
  -22.6951  -18.2359   20.6820 C   0  0  0  0  0  0  0  0  0  0  0  0
  -25.3535  -19.2147   19.8336 C   0  0  0  0  0  0  0  0  0  0  0  0
  -26.2243  -12.9041   19.6096 C   0  0  0  0  0  0  0  0  0  0  0  0
  -29.9897  -24.0470   17.9700 C   0  0  0  0  0  0  0  0  0  0  0  0
  -26.3050  -13.7657   20.8658 C   0  0  0  0  0  0  0  0  0  0  0  0
  -29.3235  -25.3006   18.5416 C   0  0  0  0  0  0  0  0  0  0  0  0
  -29.1477  -22.7959   18.2141 C   0  0  0  0  0  0  0  0  0  0  0  0
  -28.0874  -23.8293   20.1831 C   0  0  0  0  0  0  0  0  0  0  0  0
  -24.9073  -14.0588   21.4245 C   0  0  1  0  0  0  0  0  0  0  0  0
  -23.6842  -17.3376   19.9457 C   0  0  1  0  0  0  0  0  0  0  0  0
  -28.9290  -25.1054   20.0187 C   0  0  2  0  0  0  0  0  0  0  0  0
  -27.5581  -20.9461   28.0747 C   0  0  0  0  0  0  0  0  0  0  0  0
  -26.1069  -20.9760   13.5507 C   0  0  0  0  0  0  0  0  0  0  0  0
  -24.1083  -24.1131   24.9127 C   0  0  0  0  0  0  0  0  0  0  0  0
  -27.9255  -16.6636   18.2376 C   0  0  0  0  0  0  0  0  0  0  0  0
  -28.5595  -18.1342   16.3131 C   0  0  0  0  0  0  0  0  0  0  0  0
  -26.9478  -16.2611   15.9712 C   0  0  0  0  0  0  0  0  0  0  0  0
  -23.1538  -21.9553   15.7408 C   0  0  0  0  0  0  0  0  0  0  0  0
  -26.0856  -22.6949   25.5765 C   0  0  0  0  0  0  0  0  0  0  0  0
  -27.8581  -21.1095   26.5941 C   0  0  1  0  0  0  0  0  0  0  0  0
  -26.2079  -18.3160   17.2448 C   0  0  1  0  0  0  0  0  0  0  0  0
  -25.0266  -20.7603   14.5992 C   0  0  2  0  0  0  0  0  0  0  0  0
  -24.8056  -22.7699   24.7420 C   0  0  2  0  0  0  0  0  0  1  0  0
  -27.3973  -17.3546   16.9646 C   0  0  0  0  0  0  0  0  0  0  0  0
  -29.7933  -19.4347   22.2203 N   0  0  0  0  0  0  0  0  0  0  0  0
  -26.8837  -26.3867   20.5249 N   0  0  0  0  0  0  0  0  0  0  0  0
  -28.6991  -20.7581   23.9110 N   0  0  0  0  0  0  0  0  0  0  0  0
  -28.2252  -26.3272   20.5789 N   0  0  0  0  0  0  0  0  0  0  0  0
  -24.6658  -18.0962   19.1677 N   0  0  0  0  0  0  0  0  0  0  0  0
  -28.8157  -22.6742   19.6353 N   0  0  0  0  0  0  0  0  0  0  0  0
  -30.1418  -27.5235   21.2902 N   0  0  0  0  0  0  0  0  0  0  0  0
  -26.7283  -30.2535   22.4268 N   0  0  0  0  0  0  0  0  0  0  0  0
  -28.5716  -19.9461   26.1146 N   0  0  0  0  0  0  0  0  0  0  0  0
  -28.8545  -21.5246   21.6942 N   0  0  0  0  0  0  0  0  0  0  0  0
  -24.2595  -15.0939   20.6478 N   0  0  0  0  0  0  0  0  0  0  0  0
  -25.6698  -18.9638   16.0536 N   0  0  0  0  0  0  0  0  0  0  0  0
  -24.2635  -22.0308   14.7559 N   0  3  0  0  0  0  0  0  0  0  0  0
  -29.0098  -30.0221   22.4359 O   0  0  0  0  0  0  0  0  0  0  0  0
  -25.1805  -16.9396   21.7284 O   0  0  0  0  0  0  0  0  0  0  0  0
  -25.9467  -20.2913   25.3720 O   0  0  0  0  0  0  0  0  0  0  0  0
  -24.4905  -16.6817   17.3225 O   0  0  0  0  0  0  0  0  0  0  0  0
  -26.0148  -21.1419   16.7707 O   0  0  0  0  0  0  0  0  0  0  0  0
  -29.8028  -20.5899   19.7945 O   0  0  0  0  0  0  0  0  0  0  0  0
  -21.3077  -29.2664   21.6038 O   0  0  0  0  0  0  0  0  0  0  0  0
  -25.1230  -22.5967   23.3616 O   0  0  0  0  0  0  0  0  0  1  0  0
  -17.6053  -25.6038   23.4154 F   0  0  0  0  0  0  0  0  0  0  0  0
  -19.8764  -29.7256   23.9240 F   0  0  0  0  0  0  0  0  0  0  0  0
  -29.9175  -17.6688   25.3804 F   0  0  0  0  0  0  0  0  0  0  0  0
  1  2  1  0  0  0  0
  1  5  2  0  0  0  0
  2  6  2  0  0  0  0
  3  8  2  0  0  0  0
  3 16  1  0  0  0  0
  4  9  1  0  0  0  0
  4 16  2  0  0  0  0
  5 18  1  0  0  0  0
  6 20  1  0  0  0  0
  7 10  2  0  0  0  0
  7 19  1  0  0  0  0
  8 22  1  0  0  0  0
  9 22  2  0  0  0  0
 10 23  1  0  0  0  0
 11 12  2  0  0  0  0
 11 24  1  0  0  0  0
 12 25  1  0  0  0  0
 13 21  1  0  0  0  0
 13 23  2  0  0  0  0
 14 25  2  0  0  0  0
 14 26  1  0  0  0  0
 15 27  1  0  0  0  0
 15 63  2  0  0  0  0
 16 28  1  0  0  0  0
 17 28  1  0  0  0  0
 17 30  2  0  0  0  0
 17 32  1  0  0  0  0
 18 20  2  0  0  0  0
 18 38  1  0  0  0  0
 19 21  2  0  0  0  0
 19 39  1  0  0  0  0
 20 47  1  0  0  0  0
 21 40  1  0  0  0  0
 22 82  1  0  0  0  0
 23 83  1  0  0  0  0
 24 26  2  0  0  0  0
 24 82  1  0  0  0  0
 25 84  1  0  0  0  0
 26 85  1  0  0  0  0
 27 29  2  0  0  0  0
 27 86  1  0  0  0  0
 28 64  2  0  0  0  0
 29 65  1  0  0  0  0
 29 71  1  0  0  0  0
 30 66  1  0  0  0  0
 30 69  1  0  0  0  0
 31 63  1  0  0  0  0
 31 65  2  0  0  0  0
 31 72  1  0  0  0  0
 32 70  1  0  0  0  0
 32 76  2  0  0  0  0
 33 48  1  0  0  0  0
 33 73  1  0  0  0  0
 33 77  2  0  0  0  0
 34 57  1  0  0  0  0
 34 58  1  0  0  0  0
 34 78  2  0  0  0  0
 35 59  1  0  0  0  0
 35 67  1  0  0  0  0
 35 79  2  0  0  0  0
 36 60  1  0  0  0  0
 36 74  1  0  0  0  0
 36 80  2  0  0  0  0
 37 68  1  0  0  0  0
 37 72  1  0  0  0  0
 37 81  2  0  0  0  0
 38 41  1  0  0  0  0
 39 48  1  0  0  0  0
 40 67  1  0  0  0  0
 41 43  1  0  0  0  0
 42 44  1  0  0  0  0
 42 45  1  0  0  0  0
 43 47  1  0  0  0  0
 44 49  1  0  0  0  0
 45 68  1  0  0  0  0
 46 49  1  0  0  0  0
 46 68  1  0  0  0  0
 47 73  1  0  0  0  0
 48 67  1  0  0  0  0
 49 66  1  0  0  0  0
 50 58  1  0  0  0  0
 51 60  1  0  0  0  0
 52 61  1  0  0  0  0
 53 62  1  0  0  0  0
 54 62  1  0  0  0  0
 55 62  1  0  0  0  0
 56 75  1  0  0  0  0
 57 61  1  0  0  0  0
 58 71  1  0  0  0  0
 59 62  1  0  0  0  0
 59 74  1  0  0  0  0
 60 75  1  0  0  0  0
 61 83  1  0  0  0  0
 64 66  1  0  0  0  0
M  CHG  1  75   1
M  ISO  4  37 100  61 101  72 100  83 101
M  END
> <Batch ID>
0179

> <Smiles>
CNC(C)C(=O)NC(C(=O)N1Cc2cc([101O:1][101CH:1](C)CC(=O)C(C)Nc3nc([100NH:0][100C:0](=O)N4CCCC(n5nc(-c6ccc(Oc7ccc(F)cc7F)cc6)c(C(N)=O)c5N)C4)ncc3F)ccc2CC1C(=O)NC1CCCc2ccccc21)C(C)(C)C

> <Shape>
0.218

> <Color>
0.056

> <Negative vol penalty>
0.000

$$$$

  -OEChem-04052304473D

 86 94  0     1  0  0  0  0  0999 V2000
  -16.8527  -29.6509   24.2313 C   0  0  0  0  0  0  0  0  0  0  0  0
  -18.0190  -29.9737   24.9175 C   0  0  0  0  0  0  0  0  0  0  0  0
  -25.8160  -19.5999   19.5998 C   0  0  0  0  0  0  0  0  0  0  0  0
  -26.6979  -18.8212   21.7100 C   0  0  0  0  0  0  0  0  0  0  0  0
  -16.9095  -28.8144   23.1174 C   0  0  0  0  0  0  0  0  0  0  0  0
  -19.2428  -29.4592   24.4907 C   0  0  0  0  0  0  0  0  0  0  0  0
  -24.6919  -32.2441   24.7298 C   0  0  0  0  0  0  0  0  0  0  0  0
  -25.0150  -18.4612   19.5143 C   0  0  0  0  0  0  0  0  0  0  0  0
  -25.8969  -17.6825   21.6246 C   0  0  0  0  0  0  0  0  0  0  0  0
  -25.7518  -32.1555   25.6312 C   0  0  0  0  0  0  0  0  0  0  0  0
  -25.9455  -14.7186   19.9986 C   0  0  0  0  0  0  0  0  0  0  0  0
  -26.5326  -13.4893   20.2982 C   0  0  0  0  0  0  0  0  0  0  0  0
  -26.8367  -30.5549   24.1888 C   0  0  0  0  0  0  0  0  0  0  0  0
  -24.9406  -13.1647   22.0863 C   0  0  0  0  0  0  0  0  0  0  0  0
  -34.3932  -26.4162   22.1763 C   0  0  0  0  0  0  0  0  0  0  0  0
  -26.6575  -19.7799   20.6976 C   0  0  0  0  0  0  0  0  0  0  0  0
  -27.1521  -22.1876   21.3803 C   0  0  0  0  0  0  0  0  0  0  0  0
  -18.1358  -28.2972   22.6709 C   0  0  0  0  0  0  0  0  0  0  0  0
  -24.6913  -31.4793   23.5544 C   0  0  0  0  0  0  0  0  0  0  0  0
  -19.3159  -28.6139   23.3705 C   0  0  0  0  0  0  0  0  0  0  0  0
  -25.7768  -30.6376   23.2729 C   0  0  0  0  0  0  0  0  0  0  0  0
  -33.5090  -25.6150   22.8847 C   0  0  0  0  0  0  0  0  0  0  0  0
  -32.9003  -26.1330   24.0237 C   0  0  0  0  0  0  0  0  0  0  0  0
  -33.1841  -27.4330   24.4314 C   0  0  0  0  0  0  0  0  0  0  0  0
  -25.0554  -17.5025   20.5267 C   0  0  0  0  0  0  0  0  0  0  0  0
  -26.8231  -31.3087   25.3622 C   0  0  0  0  0  0  0  0  0  0  0  0
  -24.8560  -15.1710   20.7429 C   0  0  0  0  0  0  0  0  0  0  0  0
  -26.0302  -12.7123   21.3420 C   0  0  0  0  0  0  0  0  0  0  0  0
  -24.3536  -14.3941   21.7867 C   0  0  0  0  0  0  0  0  0  0  0  0
  -27.4856  -20.9557   20.7861 C   0  0  0  0  0  0  0  0  0  0  0  0
  -28.2683  -22.9679   21.2027 C   0  0  0  0  0  0  0  0  0  0  0  0
  -34.0766  -28.1882   23.6840 C   0  0  0  0  0  0  0  0  0  0  0  0
  -25.9415  -22.5905   22.0344 C   0  0  0  0  0  0  0  0  0  0  0  0
  -31.2262  -29.5269   26.7922 C   0  0  0  0  0  0  0  0  0  0  0  0
  -29.9818  -30.3738   26.9747 C   0  0  0  0  0  0  0  0  0  0  0  0
  -22.8206  -29.2040   22.3598 C   0  0  0  0  0  0  0  0  0  0  0  0
  -24.7335  -29.5379   19.7614 C   0  0  0  0  0  0  0  0  0  0  0  0
  -27.7517  -30.4973   18.4898 C   0  0  0  0  0  0  0  0  0  0  0  0
  -33.7913  -23.6659   21.3138 C   0  0  0  0  0  0  0  0  0  0  0  0
  -18.1412  -27.3590   21.4901 C   0  0  0  0  0  0  0  0  0  0  0  0
  -23.5530  -31.6063   22.5794 C   0  0  0  0  0  0  0  0  0  0  0  0
  -25.8338  -29.8107   22.0154 C   0  0  0  0  0  0  0  0  0  0  0  0
  -19.5253  -27.1572   20.8788 C   0  0  0  0  0  0  0  0  0  0  0  0
  -32.3992  -22.2130   18.3764 C   0  0  0  0  0  0  0  0  0  0  0  0
  -20.5586  -26.8988   21.9707 C   0  0  0  0  0  0  0  0  0  0  0  0
  -30.9693  -21.8577   18.7903 C   0  0  0  0  0  0  0  0  0  0  0  0
  -33.3907  -21.9956   19.5180 C   0  0  0  0  0  0  0  0  0  0  0  0
  -31.6113  -22.3063   21.1932 C   0  0  0  0  0  0  0  0  0  0  0  0
  -20.6655  -28.0955   22.9235 C   0  0  1  0  0  0  0  0  0  0  0  0
  -23.4139  -30.3952   21.6622 C   0  0  1  0  0  0  0  0  0  0  0  0
  -30.5670  -22.5708   20.0962 C   0  0  2  0  0  0  0  0  0  0  0  0
  -29.0341  -30.6157   16.3360 C   0  0  0  0  0  0  0  0  0  0  0  0
  -25.2206  -26.5285   19.8889 C   0  0  0  0  0  0  0  0  0  0  0  0
  -27.1872  -26.8530   18.3739 C   0  0  0  0  0  0  0  0  0  0  0  0
  -24.8949  -27.4357   17.5813 C   0  0  0  0  0  0  0  0  0  0  0  0
  -27.9982  -33.4415   18.6636 C   0  0  0  0  0  0  0  0  0  0  0  0
  -31.3364  -28.6842   25.5478 C   0  0  0  0  0  0  0  0  0  0  0  0
  -28.9234  -30.3322   25.9017 C   0  0  0  0  0  0  0  0  0  1  0  0
  -26.0251  -28.9093   19.2968 C   0  0  1  0  0  0  0  0  0  0  0  0
  -28.1127  -31.3572   17.2920 C   0  0  2  0  0  0  0  0  0  0  0  0
  -25.8302  -27.4456   18.8100 C   0  0  0  0  0  0  0  0  0  0  0  0
  -28.7173  -20.9491   20.2695 N   0  0  0  0  0  0  0  0  0  0  0  0
  -29.1675  -22.1865   20.5385 N   0  0  0  0  0  0  0  0  0  0  0  0
  -34.6485  -27.6646   22.5912 N   0  3  0  0  0  0  0  0  0  0  0  0
  -24.6941  -29.9648   21.0963 N   0  0  0  0  0  0  0  0  0  0  0  0
  -32.9467  -22.7038   20.7206 N   0  0  0  0  0  0  0  0  0  0  0  0
  -31.9943  -25.3372   24.7652 N   0  0  0  0  0  0  0  0  0  0  0  0
  -28.5586  -24.2393   21.5513 N   0  0  0  0  0  0  0  0  0  0  0  0
  -34.4156  -29.5051   24.0270 N   0  0  0  0  0  0  0  0  0  0  0  0
  -24.8936  -21.6647   22.1298 N   0  0  0  0  0  0  0  0  0  0  0  0
  -33.2493  -24.2974   22.4327 N   0  0  0  0  0  0  0  0  0  0  0  0
  -32.5877  -27.9673   25.5635 N   0  0  0  0  0  0  0  0  0  0  0  0
  -21.4402  -29.1568   22.3169 N   0  0  0  0  0  0  0  0  0  0  0  0
  -26.5757  -29.8067   18.2869 N   0  0  0  0  0  0  0  0  0  0  0  0
  -28.8003  -32.6023   17.7366 N   0  3  0  0  0  0  0  0  0  0  0  0
  -25.7873  -23.7429   22.5053 O   0  0  0  0  0  0  0  0  0  0  0  0
  -32.0710  -29.5809   27.6771 O   0  0  0  0  0  0  0  0  0  0  0  0
  -29.9054  -31.0523   27.9909 O   0  0  0  0  0  0  0  0  0  0  0  0
  -23.5604  -28.3873   22.8959 O   0  0  0  0  0  0  0  0  0  0  0  0
  -23.7968  -29.6526   18.9671 O   0  0  0  0  0  0  0  0  0  0  0  0
  -28.4457  -30.4409   19.5026 O   0  0  0  0  0  0  0  0  0  0  0  0
  -34.9019  -23.9309   20.8464 O   0  0  0  0  0  0  0  0  0  0  0  0
  -24.2738  -16.3913   20.4438 O   0  0  0  0  0  0  0  0  0  0  0  0
  -27.8586  -31.2198   26.2406 O   0  0  0  0  0  0  0  0  0  1  0  0
  -26.5931  -11.5312   21.6286 F   0  0  0  0  0  0  0  0  0  0  0  0
  -23.3063  -14.8229   22.5045 F   0  0  0  0  0  0  0  0  0  0  0  0
  1  2  1  0  0  0  0
  1  5  2  0  0  0  0
  2  6  2  0  0  0  0
  3  8  2  0  0  0  0
  3 16  1  0  0  0  0
  4  9  1  0  0  0  0
  4 16  2  0  0  0  0
  5 18  1  0  0  0  0
  6 20  1  0  0  0  0
  7 10  2  0  0  0  0
  7 19  1  0  0  0  0
  8 25  1  0  0  0  0
  9 25  2  0  0  0  0
 10 26  1  0  0  0  0
 11 12  2  0  0  0  0
 11 27  1  0  0  0  0
 12 28  1  0  0  0  0
 13 21  1  0  0  0  0
 13 26  2  0  0  0  0
 14 28  2  0  0  0  0
 14 29  1  0  0  0  0
 15 22  2  0  0  0  0
 15 64  1  0  0  0  0
 16 30  1  0  0  0  0
 17 30  1  0  0  0  0
 17 31  2  0  0  0  0
 17 33  1  0  0  0  0
 18 20  2  0  0  0  0
 18 40  1  0  0  0  0
 19 21  2  0  0  0  0
 19 41  1  0  0  0  0
 20 49  1  0  0  0  0
 21 42  1  0  0  0  0
 22 23  1  0  0  0  0
 22 71  1  0  0  0  0
 23 24  2  0  0  0  0
 23 67  1  0  0  0  0
 24 32  1  0  0  0  0
 24 72  1  0  0  0  0
 25 83  1  0  0  0  0
 26 84  1  0  0  0  0
 27 29  2  0  0  0  0
 27 83  1  0  0  0  0
 28 85  1  0  0  0  0
 29 86  1  0  0  0  0
 30 62  2  0  0  0  0
 31 63  1  0  0  0  0
 31 68  1  0  0  0  0
 32 64  2  0  0  0  0
 32 69  1  0  0  0  0
 33 70  1  0  0  0  0
 33 76  2  0  0  0  0
 34 35  1  0  0  0  0
 34 57  1  0  0  0  0
 34 77  2  0  0  0  0
 35 58  1  0  0  0  0
 35 78  2  0  0  0  0
 36 50  1  0  0  0  0
 36 73  1  0  0  0  0
 36 79  2  0  0  0  0
 37 59  1  0  0  0  0
 37 65  1  0  0  0  0
 37 80  2  0  0  0  0
 38 60  1  0  0  0  0
 38 74  1  0  0  0  0
 38 81  2  0  0  0  0
 39 66  1  0  0  0  0
 39 71  1  0  0  0  0
 39 82  2  0  0  0  0
 40 43  1  0  0  0  0
 41 50  1  0  0  0  0
 42 65  1  0  0  0  0
 43 45  1  0  0  0  0
 44 46  1  0  0  0  0
 44 47  1  0  0  0  0
 45 49  1  0  0  0  0
 46 51  1  0  0  0  0
 47 66  1  0  0  0  0
 48 51  1  0  0  0  0
 48 66  1  0  0  0  0
 49 73  1  0  0  0  0
 50 65  1  0  0  0  0
 51 63  1  0  0  0  0
 52 60  1  0  0  0  0
 53 61  1  0  0  0  0
 54 61  1  0  0  0  0
 55 61  1  0  0  0  0
 56 75  1  0  0  0  0
 57 72  1  0  0  0  0
 58 84  1  0  0  0  0
 59 61  1  0  0  0  0
 59 74  1  0  0  0  0
 60 75  1  0  0  0  0
 62 63  1  0  0  0  0
M  CHG  2  64   1  75   1
M  ISO  4  39 100  58 101  71 100  84 101
M  END
> <Batch ID>
0179

> <Smiles>
CNC(C)C(=O)NC(C(=O)N1Cc2cc([101O:1][101CH2:1]C(=O)C(=O)CNc3c(N)ncc([100NH:0][100C:0](=O)N4CCCC(n5nc(-c6ccc(Oc7ccc(F)cc7F)cc6)c(C(N)=O)c5N)C4)c3N)ccc2CC1C(=O)NC1CCCc2ccccc21)C(C)(C)C

> <Shape>
0.241

> <Color>
0.071

> <Negative vol penalty>
0.000

$$$$

  -OEChem-04052304473D

 84 92  0     1  0  0  0  0  0999 V2000
  -35.0342  -34.4482   19.9092 C   0  0  0  0  0  0  0  0  0  0  0  0
  -34.2381  -33.6148   19.1300 C   0  0  0  0  0  0  0  0  0  0  0  0
  -24.6256   -8.8355   21.5614 C   0  0  0  0  0  0  0  0  0  0  0  0
  -23.7912  -10.5032   23.0974 C   0  0  0  0  0  0  0  0  0  0  0  0
  -34.8287  -34.5184   21.2864 C   0  0  0  0  0  0  0  0  0  0  0  0
  -33.2367  -32.8504   19.7277 C   0  0  0  0  0  0  0  0  0  0  0  0
  -26.7089  -30.2018   18.4282 C   0  0  0  0  0  0  0  0  0  0  0  0
  -24.1904   -7.8265   22.4204 C   0  0  0  0  0  0  0  0  0  0  0  0
  -23.3558   -9.4942   23.9565 C   0  0  0  0  0  0  0  0  0  0  0  0
  -26.0086  -28.9968   18.4645 C   0  0  0  0  0  0  0  0  0  0  0  0
  -21.2738   -6.3017   23.1963 C   0  0  0  0  0  0  0  0  0  0  0  0
  -20.5984   -5.2184   22.6342 C   0  0  0  0  0  0  0  0  0  0  0  0
  -25.6926  -29.2590   20.8416 C   0  0  0  0  0  0  0  0  0  0  0  0
  -22.2979   -3.7218   23.4763 C   0  0  0  0  0  0  0  0  0  0  0  0
  -26.1669  -19.2273   18.7133 C   0  0  0  0  0  0  0  0  0  0  0  0
  -24.4261  -10.1739   21.8998 C   0  0  0  0  0  0  0  0  0  0  0  0
  -24.1485  -11.8160   19.9674 C   0  0  0  0  0  0  0  0  0  0  0  0
  -33.8179  -33.7618   21.9001 C   0  0  0  0  0  0  0  0  0  0  0  0
  -26.9160  -30.9403   19.6021 C   0  0  0  0  0  0  0  0  0  0  0  0
  -33.0184  -32.9096   21.1146 C   0  0  0  0  0  0  0  0  0  0  0  0
  -26.3936  -30.4743   20.8171 C   0  0  0  0  0  0  0  0  0  0  0  0
  -23.5554   -8.1558   23.6180 C   0  0  0  0  0  0  0  0  0  0  0  0
  -25.5029  -28.5237   19.6717 C   0  0  0  0  0  0  0  0  0  0  0  0
  -22.4614   -6.0951   23.8983 C   0  0  0  0  0  0  0  0  0  0  0  0
  -21.1104   -3.9285   22.7743 C   0  0  0  0  0  0  0  0  0  0  0  0
  -22.9733   -4.8052   24.0384 C   0  0  0  0  0  0  0  0  0  0  0  0
  -24.8760  -11.2167   21.0131 C   0  0  0  0  0  0  0  0  0  0  0  0
  -25.0126  -12.7408   19.4341 C   0  0  0  0  0  0  0  0  0  0  0  0
  -27.3575  -18.6692   19.0847 C   0  0  0  0  0  0  0  0  0  0  0  0
  -27.7719  -20.6878   18.2757 C   0  0  0  0  0  0  0  0  0  0  0  0
  -25.2484  -23.8416   18.3738 C   0  0  0  0  0  0  0  0  0  0  0  0
  -22.8112  -11.5597   19.5185 C   0  0  0  0  0  0  0  0  0  0  0  0
  -25.0896  -22.5395   18.6687 C   0  0  0  0  0  0  0  0  0  0  0  0
  -24.9172  -24.9681   19.2958 C   0  0  0  0  0  0  0  0  0  0  0  0
  -29.4734  -31.8754   21.2420 C   0  0  0  0  0  0  0  0  0  0  0  0
  -27.2749  -33.4913   22.9964 C   0  0  0  0  0  0  0  0  0  0  0  0
  -24.0371  -33.7711   24.0382 C   0  0  0  0  0  0  0  0  0  0  0  0
  -28.7687  -16.8080   20.0284 C   0  0  0  0  0  0  0  0  0  0  0  0
  -33.6645  -33.8352   23.3986 C   0  0  0  0  0  0  0  0  0  0  0  0
  -27.6504  -32.2516   19.5417 C   0  0  0  0  0  0  0  0  0  0  0  0
  -26.5712  -31.2395   22.1021 C   0  0  0  0  0  0  0  0  0  0  0  0
  -32.3366  -33.2762   23.9031 C   0  0  0  0  0  0  0  0  0  0  0  0
  -29.9620  -13.4586   20.2150 C   0  0  0  0  0  0  0  0  0  0  0  0
  -32.0373  -31.9339   23.2433 C   0  0  0  0  0  0  0  0  0  0  0  0
  -28.6854  -12.6261   20.3532 C   0  0  0  0  0  0  0  0  0  0  0  0
  -29.8598  -14.7832   20.9691 C   0  0  0  0  0  0  0  0  0  0  0  0
  -27.4035  -14.7618   20.7802 C   0  0  0  0  0  0  0  0  0  0  0  0
  -31.9057  -32.0837   21.7228 C   0  0  1  0  0  0  0  0  0  0  0  0
  -28.2463  -32.6651   20.8838 C   0  0  1  0  0  0  0  0  0  0  0  0
  -27.4344  -13.4471   19.9838 C   0  0  2  0  0  0  0  0  0  0  0  0
  -22.5517  -35.1701   25.4989 C   0  0  0  0  0  0  0  0  0  0  0  0
  -28.4425  -32.1423   25.4717 C   0  0  0  0  0  0  0  0  0  0  0  0
  -26.3780  -32.8070   26.7223 C   0  0  0  0  0  0  0  0  0  0  0  0
  -27.8761  -34.5598   25.7705 C   0  0  0  0  0  0  0  0  0  0  0  0
  -22.3351  -34.5610   21.7495 C   0  0  0  0  0  0  0  0  0  0  0  0
  -25.4343  -21.4535   17.6825 C   0  0  0  0  0  0  0  0  0  0  0  0
  -25.1790  -26.3559   18.7489 C   0  0  0  0  0  0  0  0  0  1  0  0
  -26.4397  -33.1786   24.2145 C   0  0  1  0  0  0  0  0  0  0  0  0
  -23.0964  -34.9612   24.0945 C   0  0  2  0  0  0  0  0  0  0  0  0
  -27.2822  -33.1563   25.5210 C   0  0  0  0  0  0  0  0  0  0  0  0
  -26.1075  -11.7184   21.1381 N   0  0  0  0  0  0  0  0  0  0  0  0
  -26.4531  -20.4761   18.2167 N   0  0  0  0  0  0  0  0  0  0  0  0
  -26.1606  -12.6428   20.1640 N   0  0  0  0  0  0  0  0  0  0  0  0
  -28.3332  -19.5947   18.8024 N   0  3  0  0  0  0  0  0  0  0  0  0
  -27.3019  -32.5130   21.9925 N   0  0  0  0  0  0  0  0  0  0  0  0
  -28.6531  -15.5081   20.5648 N   0  0  0  0  0  0  0  0  0  0  0  0
  -24.8949  -13.6201   18.4165 N   0  0  0  0  0  0  0  0  0  0  0  0
  -28.4354  -21.8059   17.8776 N   0  0  0  0  0  0  0  0  0  0  0  0
  -22.0619  -10.5761   20.1783 N   0  0  0  0  0  0  0  0  0  0  0  0
  -27.5571  -17.3851   19.6495 N   0  0  0  0  0  0  0  0  0  0  0  0
  -30.6151  -32.6415   21.3797 N   0  0  0  0  0  0  0  0  0  0  0  0
  -25.3503  -34.1490   24.2225 N   0  0  0  0  0  0  0  0  0  0  0  0
  -21.9458  -34.7561   23.1698 N   0  3  0  0  0  0  0  0  0  0  0  0
  -22.3017  -12.1730   18.5501 O   0  0  0  0  0  0  0  0  0  0  0  0
  -24.4644  -24.7814   20.4213 O   0  0  0  0  0  0  0  0  0  0  0  0
  -29.3901  -30.6611   21.3845 O   0  0  0  0  0  0  0  0  0  0  0  0
  -27.8754  -34.5671   22.9348 O   0  0  0  0  0  0  0  0  0  0  0  0
  -23.6458  -32.6208   23.8532 O   0  0  0  0  0  0  0  0  0  0  0  0
  -29.8645  -17.3572   19.8885 O   0  0  0  0  0  0  0  0  0  0  0  0
  -24.5794  -22.0662   19.8603 O   0  0  0  0  0  0  0  0  0  0  0  0
  -23.1304   -7.1715   24.4564 O   0  0  0  0  0  0  0  0  0  0  0  0
  -24.8196  -27.3475   19.7101 O   0  0  0  0  0  0  0  0  0  1  0  0
  -20.4608   -2.8882   22.2358 F   0  0  0  0  0  0  0  0  0  0  0  0
  -24.1131   -4.6003   24.7127 F   0  0  0  0  0  0  0  0  0  0  0  0
  1  2  1  0  0  0  0
  1  5  2  0  0  0  0
  2  6  2  0  0  0  0
  3  8  2  0  0  0  0
  3 16  1  0  0  0  0
  4  9  1  0  0  0  0
  4 16  2  0  0  0  0
  5 18  1  0  0  0  0
  6 20  1  0  0  0  0
  7 10  2  0  0  0  0
  7 19  1  0  0  0  0
  8 22  1  0  0  0  0
  9 22  2  0  0  0  0
 10 23  1  0  0  0  0
 11 12  2  0  0  0  0
 11 24  1  0  0  0  0
 12 25  1  0  0  0  0
 13 21  1  0  0  0  0
 13 23  2  0  0  0  0
 14 25  2  0  0  0  0
 14 26  1  0  0  0  0
 15 29  2  0  0  0  0
 15 62  1  0  0  0  0
 16 27  1  0  0  0  0
 17 27  1  0  0  0  0
 17 28  2  0  0  0  0
 17 32  1  0  0  0  0
 18 20  2  0  0  0  0
 18 39  1  0  0  0  0
 19 21  2  0  0  0  0
 19 40  1  0  0  0  0
 20 48  1  0  0  0  0
 21 41  1  0  0  0  0
 22 81  1  0  0  0  0
 23 82  1  0  0  0  0
 24 26  2  0  0  0  0
 24 81  1  0  0  0  0
 25 83  1  0  0  0  0
 26 84  1  0  0  0  0
 27 61  2  0  0  0  0
 28 63  1  0  0  0  0
 28 67  1  0  0  0  0
 29 64  1  0  0  0  0
 29 70  1  0  0  0  0
 30 62  1  0  0  0  0
 30 64  2  0  0  0  0
 30 68  1  0  0  0  0
 31 33  2  0  0  0  0
 31 34  1  0  0  0  0
 32 69  1  0  0  0  0
 32 74  2  0  0  0  0
 33 56  1  0  0  0  0
 33 80  1  0  0  0  0
 34 57  1  0  0  0  0
 34 75  2  0  0  0  0
 35 49  1  0  0  0  0
 35 71  1  0  0  0  0
 35 76  2  0  0  0  0
 36 58  1  0  0  0  0
 36 65  1  0  0  0  0
 36 77  2  0  0  0  0
 37 59  1  0  0  0  0
 37 72  1  0  0  0  0
 37 78  2  0  0  0  0
 38 66  1  0  0  0  0
 38 70  1  0  0  0  0
 38 79  2  0  0  0  0
 39 42  1  0  0  0  0
 40 49  1  0  0  0  0
 41 65  1  0  0  0  0
 42 44  1  0  0  0  0
 43 45  1  0  0  0  0
 43 46  1  0  0  0  0
 44 48  1  0  0  0  0
 45 50  1  0  0  0  0
 46 66  1  0  0  0  0
 47 50  1  0  0  0  0
 47 66  1  0  0  0  0
 48 71  1  0  0  0  0
 49 65  1  0  0  0  0
 50 63  1  0  0  0  0
 51 59  1  0  0  0  0
 52 60  1  0  0  0  0
 53 60  1  0  0  0  0
 54 60  1  0  0  0  0
 55 73  1  0  0  0  0
 56 62  1  0  0  0  0
 57 82  1  0  0  0  0
 58 60  1  0  0  0  0
 58 72  1  0  0  0  0
 59 73  1  0  0  0  0
 61 63  1  0  0  0  0
M  CHG  2  64   1  73   1
M  ISO  4  38 100  57 101  70 100  82 101
M  END
> <Batch ID>
0179

> <Smiles>
CNC(C)C(=O)NC(C(=O)N1Cc2cc([101O:1][101CH2:1]C(=O)CC(=O)Cn3cc([100NH:0][100C:0](=O)N4CCCC(n5nc(-c6ccc(Oc7ccc(F)cc7F)cc6)c(C(N)=O)c5N)C4)nc3N)ccc2CC1C(=O)NC1CCCc2ccccc21)C(C)(C)C

> <Shape>
0.228

> <Color>
0.091

> <Negative vol penalty>
0.000

$$$$

  -OEChem-04052304473D

 88 96  0     1  0  0  0  0  0999 V2000
  -21.5228  -28.1631   16.1554 C   0  0  0  0  0  0  0  0  0  0  0  0
  -21.7900  -27.1219   17.0385 C   0  0  0  0  0  0  0  0  0  0  0  0
  -23.1491   -9.8762   19.8291 C   0  0  0  0  0  0  0  0  0  0  0  0
  -23.8996   -9.7845   22.1238 C   0  0  0  0  0  0  0  0  0  0  0  0
  -22.1738  -29.3869   16.3049 C   0  0  0  0  0  0  0  0  0  0  0  0
  -22.7094  -27.3036   18.0711 C   0  0  0  0  0  0  0  0  0  0  0  0
  -22.4611  -24.8809   23.6902 C   0  0  0  0  0  0  0  0  0  0  0  0
  -22.4496   -8.6831   20.0102 C   0  0  0  0  0  0  0  0  0  0  0  0
  -23.2000   -8.5914   22.3049 C   0  0  0  0  0  0  0  0  0  0  0  0
  -23.0814  -23.7704   24.2611 C   0  0  0  0  0  0  0  0  0  0  0  0
  -20.0029   -7.6376   22.8431 C   0  0  0  0  0  0  0  0  0  0  0  0
  -19.2437   -7.5033   24.0054 C   0  0  0  0  0  0  0  0  0  0  0  0
  -24.8083  -25.2002   25.1513 C   0  0  0  0  0  0  0  0  0  0  0  0
  -20.5565   -5.5770   24.6404 C   0  0  0  0  0  0  0  0  0  0  0  0
  -23.8742  -10.4268   20.8859 C   0  0  0  0  0  0  0  0  0  0  0  0
  -24.1183  -12.9660   20.9084 C   0  0  0  0  0  0  0  0  0  0  0  0
  -23.0945  -29.5868   17.3456 C   0  0  0  0  0  0  0  0  0  0  0  0
  -23.0167  -26.1601   23.8366 C   0  0  0  0  0  0  0  0  0  0  0  0
  -23.3744  -28.5308   18.2338 C   0  0  0  0  0  0  0  0  0  0  0  0
  -24.1918  -26.3256   24.5834 C   0  0  0  0  0  0  0  0  0  0  0  0
  -22.4750   -8.0407   21.2481 C   0  0  0  0  0  0  0  0  0  0  0  0
  -24.2567  -23.9296   24.9894 C   0  0  0  0  0  0  0  0  0  0  0  0
  -21.0389   -6.7415   22.5793 C   0  0  0  0  0  0  0  0  0  0  0  0
  -19.5205   -6.4731   24.9041 C   0  0  0  0  0  0  0  0  0  0  0  0
  -21.3157   -5.7113   23.4780 C   0  0  0  0  0  0  0  0  0  0  0  0
  -24.5975  -11.6590   20.6993 C   0  0  0  0  0  0  0  0  0  0  0  0
  -30.4085  -19.2054   23.4331 C   0  0  0  0  0  0  0  0  0  0  0  0
  -31.5266  -18.9217   22.6771 C   0  0  0  0  0  0  0  0  0  0  0  0
  -25.1820  -13.7761   20.5938 C   0  0  0  0  0  0  0  0  0  0  0  0
  -30.3593  -17.1201   22.2283 C   0  0  0  0  0  0  0  0  0  0  0  0
  -22.8273  -13.4084   21.3479 C   0  0  0  0  0  0  0  0  0  0  0  0
  -30.0898  -20.3757   24.2909 C   0  0  0  0  0  0  0  0  0  0  0  0
  -24.1662  -28.3485   21.8383 C   0  0  0  0  0  0  0  0  0  0  0  0
  -26.8809  -21.5075   25.6215 C   0  0  0  0  0  0  0  0  0  0  0  0
  -24.3515  -30.1467   24.5318 C   0  0  0  0  0  0  0  0  0  0  0  0
  -24.5791  -30.2515   27.9353 C   0  0  0  0  0  0  0  0  0  0  0  0
  -30.6029  -15.0198   20.8587 C   0  0  0  0  0  0  0  0  0  0  0  0
  -23.8086  -30.9119   17.4385 C   0  0  0  0  0  0  0  0  0  0  0  0
  -22.3209  -27.3513   23.2371 C   0  0  0  0  0  0  0  0  0  0  0  0
  -24.8177  -27.6803   24.7871 C   0  0  0  0  0  0  0  0  0  0  0  0
  -24.4900  -31.1436   18.7847 C   0  0  0  0  0  0  0  0  0  0  0  0
  -29.5917  -12.7009   18.3533 C   0  0  0  0  0  0  0  0  0  0  0  0
  -25.2748  -29.9053   19.2059 C   0  0  0  0  0  0  0  0  0  0  0  0
  -28.1628  -12.3306   18.7575 C   0  0  0  0  0  0  0  0  0  0  0  0
  -30.4927  -12.8973   19.5711 C   0  0  0  0  0  0  0  0  0  0  0  0
  -28.5540  -13.4696   20.9793 C   0  0  0  0  0  0  0  0  0  0  0  0
  -24.3468  -28.6972   19.3814 C   0  0  1  0  0  0  0  0  0  0  0  0
  -23.2528  -28.5388   23.0161 C   0  0  1  0  0  0  0  0  0  0  0  0
  -27.5930  -13.3251   19.7880 C   0  0  2  0  0  0  0  0  0  0  0  0
  -24.7511  -31.8654   29.8493 C   0  0  0  0  0  0  0  0  0  0  0  0
  -27.2874  -30.6308   23.8565 C   0  0  0  0  0  0  0  0  0  0  0  0
  -27.6283  -31.4103   26.2111 C   0  0  0  0  0  0  0  0  0  0  0  0
  -26.0668  -32.6418   24.7052 C   0  0  0  0  0  0  0  0  0  0  0  0
  -33.7990  -19.4546   21.7952 C   0  0  0  0  0  0  0  0  0  0  0  0
  -22.0387  -29.2994   29.1181 C   0  0  0  0  0  0  0  0  0  0  0  0
  -26.2836  -22.8998   25.6872 C   0  0  0  0  0  0  0  0  0  1  0  0
  -28.3920  -21.4191   25.7691 C   0  0  1  0  0  0  0  0  0  0  0  0
  -25.3976  -30.3726   25.5966 C   0  0  1  0  0  0  0  0  0  0  0  0
  -23.8119  -31.0524   28.9720 C   0  0  2  0  0  0  0  0  0  0  0  0
  -28.7792  -21.2049   27.2177 C   0  0  0  0  0  0  0  0  0  0  0  0
  -26.5845  -31.2380   25.0871 C   0  0  0  0  0  0  0  0  0  0  0  0
  -25.8667  -11.6354   20.2838 N   0  0  0  0  0  0  0  0  0  0  0  0
  -31.5003  -17.7262   21.9858 N   0  0  0  0  0  0  0  0  0  0  0  0
  -26.1940  -12.9376   20.2292 N   0  0  0  0  0  0  0  0  0  0  0  0
  -24.1033  -28.8134   24.1761 N   0  0  0  0  0  0  0  0  0  0  0  0
  -29.8910  -13.8553   20.5012 N   0  0  0  0  0  0  0  0  0  0  0  0
  -25.3409  -15.1167   20.5962 N   0  0  0  0  0  0  0  0  0  0  0  0
  -21.8501  -12.4436   21.6281 N   0  0  0  0  0  0  0  0  0  0  0  0
  -32.6048  -19.7370   22.5885 N   0  0  0  0  0  0  0  0  0  0  0  0
  -29.9171  -15.8721   21.7235 N   0  0  0  0  0  0  0  0  0  0  0  0
  -28.8545  -20.3486   24.9256 N   0  0  0  0  0  0  0  0  0  0  0  0
  -23.6360  -28.7844   20.6390 N   0  0  0  0  0  0  0  0  0  0  0  0
  -24.6962  -30.9369   26.7446 N   0  0  0  0  0  0  0  0  0  0  0  0
  -23.0204  -30.1426   29.8476 N   0  3  0  0  0  0  0  0  0  0  0  0
  -22.5433  -14.6239   21.4721 O   0  0  0  0  0  0  0  0  0  0  0  0
  -30.9009  -21.2938   24.3790 O   0  0  0  0  0  0  0  0  0  0  0  0
  -25.2708  -27.8450   22.0055 O   0  0  0  0  0  0  0  0  0  0  0  0
  -26.1765  -20.5059   25.4925 O   0  0  0  0  0  0  0  0  0  0  0  0
  -23.7707  -31.1170   24.0391 O   0  0  0  0  0  0  0  0  0  0  0  0
  -25.0325  -29.1316   28.1606 O   0  0  0  0  0  0  0  0  0  0  0  0
  -31.7263  -15.2577   20.4078 O   0  0  0  0  0  0  0  0  0  0  0  0
  -21.7923   -6.8766   21.4252 O   0  0  0  0  0  0  0  0  0  0  0  0
  -24.8645  -22.8473   25.5471 O   0  0  0  0  0  0  0  0  0  1  0  0
  -18.7923   -6.3452   26.0211 F   0  0  0  0  0  0  0  0  0  0  0  0
  -22.3105   -4.8481   23.2306 F   0  0  0  0  0  0  0  0  0  0  0  0
  -28.2643  -20.0372   27.6778 F   0  0  0  0  0  0  0  0  0  0  0  0
  -30.1284  -21.1057   27.3209 F   0  0  0  0  0  0  0  0  0  0  0  0
  -29.2709  -17.9313   23.2782 S   0  0  0  0  0  0  0  0  0  0  0  0
  1  2  1  0  0  0  0
  1  5  2  0  0  0  0
  2  6  2  0  0  0  0
  3  8  2  0  0  0  0
  3 15  1  0  0  0  0
  4  9  1  0  0  0  0
  4 15  2  0  0  0  0
  5 17  1  0  0  0  0
  6 19  1  0  0  0  0
  7 10  2  0  0  0  0
  7 18  1  0  0  0  0
  8 21  1  0  0  0  0
  9 21  2  0  0  0  0
 10 22  1  0  0  0  0
 11 12  2  0  0  0  0
 11 23  1  0  0  0  0
 12 24  1  0  0  0  0
 13 20  1  0  0  0  0
 13 22  2  0  0  0  0
 14 24  2  0  0  0  0
 14 25  1  0  0  0  0
 15 26  1  0  0  0  0
 16 26  1  0  0  0  0
 16 29  2  0  0  0  0
 16 31  1  0  0  0  0
 17 19  2  0  0  0  0
 17 38  1  0  0  0  0
 18 20  2  0  0  0  0
 18 39  1  0  0  0  0
 19 47  1  0  0  0  0
 20 40  1  0  0  0  0
 21 82  1  0  0  0  0
 22 83  1  0  0  0  0
 23 25  2  0  0  0  0
 23 82  1  0  0  0  0
 24 84  1  0  0  0  0
 25 85  1  0  0  0  0
 26 62  2  0  0  0  0
 27 28  2  0  0  0  0
 27 32  1  0  0  0  0
 27 88  1  0  0  0  0
 28 63  1  0  0  0  0
 28 69  1  0  0  0  0
 29 64  1  0  0  0  0
 29 67  1  0  0  0  0
 30 63  2  0  0  0  0
 30 70  1  0  0  0  0
 30 88  1  0  0  0  0
 31 68  1  0  0  0  0
 31 75  2  0  0  0  0
 32 71  1  0  0  0  0
 32 76  2  0  0  0  0
 33 48  1  0  0  0  0
 33 72  1  0  0  0  0
 33 77  2  0  0  0  0
 34 56  1  0  0  0  0
 34 57  1  0  0  0  0
 34 78  2  0  0  0  0
 35 58  1  0  0  0  0
 35 65  1  0  0  0  0
 35 79  2  0  0  0  0
 36 59  1  0  0  0  0
 36 73  1  0  0  0  0
 36 80  2  0  0  0  0
 37 66  1  0  0  0  0
 37 70  1  0  0  0  0
 37 81  2  0  0  0  0
 38 41  1  0  0  0  0
 39 48  1  0  0  0  0
 40 65  1  0  0  0  0
 41 43  1  0  0  0  0
 42 44  1  0  0  0  0
 42 45  1  0  0  0  0
 43 47  1  0  0  0  0
 44 49  1  0  0  0  0
 45 66  1  0  0  0  0
 46 49  1  0  0  0  0
 46 66  1  0  0  0  0
 47 72  1  0  0  0  0
 48 65  1  0  0  0  0
 49 64  1  0  0  0  0
 50 59  1  0  0  0  0
 51 61  1  0  0  0  0
 52 61  1  0  0  0  0
 53 61  1  0  0  0  0
 54 69  1  0  0  0  0
 55 74  1  0  0  0  0
 56 83  1  0  0  0  0
 57 60  1  0  0  0  0
 57 71  1  0  0  0  0
 58 61  1  0  0  0  0
 58 73  1  0  0  0  0
 59 74  1  0  0  0  0
 60 86  1  0  0  0  0
 60 87  1  0  0  0  0
 62 64  1  0  0  0  0
M  CHG  1  74   1
M  ISO  4  37 100  56 101  70 100  83 101
M  END
> <Batch ID>
0179

> <Smiles>
CNc1nc([100NH:0][100C:0](=O)N2CCCC(n3nc(-c4ccc(Oc5ccc(F)cc5F)cc4)c(C(N)=O)c3N)C2)sc1C(=O)NC(C(=O)[101CH2:1][101O:1]c1ccc2c(c1)CN(C(=O)C(NC(=O)C(C)NC)C(C)(C)C)C(C(=O)NC1CCCc3ccccc31)C2)C(F)F

> <Shape>
0.258

> <Color>
0.195

> <Negative vol penalty>
0.000

$$$$

  -OEChem-04052304473D

 82 90  0     1  0  0  0  0  0999 V2000
  -16.4906  -29.9188   23.2169 C   0  0  0  0  0  0  0  0  0  0  0  0
  -17.5162  -30.7799   23.5936 C   0  0  0  0  0  0  0  0  0  0  0  0
  -29.6951  -20.0067   18.4888 C   0  0  0  0  0  0  0  0  0  0  0  0
  -31.5177  -20.2704   20.0527 C   0  0  0  0  0  0  0  0  0  0  0  0
  -16.7810  -28.5995   22.8720 C   0  0  0  0  0  0  0  0  0  0  0  0
  -18.8329  -30.3219   23.6265 C   0  0  0  0  0  0  0  0  0  0  0  0
  -25.5517  -32.5626   22.5528 C   0  0  0  0  0  0  0  0  0  0  0  0
  -29.8435  -18.6212   18.5495 C   0  0  0  0  0  0  0  0  0  0  0  0
  -31.6661  -18.8848   20.1134 C   0  0  0  0  0  0  0  0  0  0  0  0
  -26.7932  -32.5873   23.1869 C   0  0  0  0  0  0  0  0  0  0  0  0
  -29.5062  -15.0016   18.5699 C   0  0  0  0  0  0  0  0  0  0  0  0
  -28.3507  -14.2306   18.6958 C   0  0  0  0  0  0  0  0  0  0  0  0
  -27.1857  -30.3103   22.4939 C   0  0  0  0  0  0  0  0  0  0  0  0
  -27.8361  -15.3420   20.7784 C   0  0  0  0  0  0  0  0  0  0  0  0
  -30.5323  -20.8314   19.2404 C   0  0  0  0  0  0  0  0  0  0  0  0
  -29.5629  -23.0673   19.9945 C   0  0  0  0  0  0  0  0  0  0  0  0
  -18.1030  -28.1277   22.8913 C   0  0  0  0  0  0  0  0  0  0  0  0
  -25.1126  -31.4060   21.8927 C   0  0  0  0  0  0  0  0  0  0  0  0
  -19.1411  -28.9947   23.2827 C   0  0  0  0  0  0  0  0  0  0  0  0
  -25.9394  -30.2743   21.8500 C   0  0  0  0  0  0  0  0  0  0  0  0
  -30.8289  -18.0602   19.3618 C   0  0  0  0  0  0  0  0  0  0  0  0
  -27.6091  -31.4601   23.1600 C   0  0  0  0  0  0  0  0  0  0  0  0
  -29.8267  -15.9428   19.5483 C   0  0  0  0  0  0  0  0  0  0  0  0
  -27.5156  -14.4007   19.8000 C   0  0  0  0  0  0  0  0  0  0  0  0
  -28.9916  -16.1130   20.6525 C   0  0  0  0  0  0  0  0  0  0  0  0
  -30.3799  -22.2628   19.1777 C   0  0  0  0  0  0  0  0  0  0  0  0
  -32.5349  -31.6669   21.4381 C   0  0  0  0  0  0  0  0  0  0  0  0
  -33.0382  -32.0867   20.2246 C   0  0  0  0  0  0  0  0  0  0  0  0
  -29.7719  -24.3453   19.5367 C   0  0  0  0  0  0  0  0  0  0  0  0
  -32.7899  -29.9578   19.7599 C   0  0  0  0  0  0  0  0  0  0  0  0
  -29.9064  -31.8865   23.0537 C   0  0  0  0  0  0  0  0  0  1  0  0
  -28.6929  -22.6929   21.0709 C   0  0  0  0  0  0  0  0  0  0  0  0
  -32.2485  -32.4215   22.6765 C   0  0  0  0  0  0  0  0  0  0  0  0
  -31.1439  -31.9462   23.5597 C   0  0  0  0  0  0  0  0  0  0  0  0
  -22.6656  -29.4095   22.2538 C   0  0  0  0  0  0  0  0  0  0  0  0
  -23.8163  -28.1208   19.5084 C   0  0  0  0  0  0  0  0  0  0  0  0
  -26.4758  -27.6448   17.4234 C   0  0  0  0  0  0  0  0  0  0  0  0
  -33.1679  -28.4065   17.8113 C   0  0  0  0  0  0  0  0  0  0  0  0
  -18.3623  -26.6804   22.5558 C   0  0  0  0  0  0  0  0  0  0  0  0
  -23.7822  -31.4043   21.1908 C   0  0  0  0  0  0  0  0  0  0  0  0
  -25.5230  -29.0144   21.1376 C   0  0  0  0  0  0  0  0  0  0  0  0
  -19.8281  -26.3779   22.2553 C   0  0  0  0  0  0  0  0  0  0  0  0
  -32.1418  -26.0107   15.3856 C   0  0  0  0  0  0  0  0  0  0  0  0
  -20.7311  -27.0155   23.3066 C   0  0  0  0  0  0  0  0  0  0  0  0
  -31.5247  -24.8882   16.2231 C   0  0  0  0  0  0  0  0  0  0  0  0
  -33.3518  -26.6354   16.0780 C   0  0  0  0  0  0  0  0  0  0  0  0
  -32.4956  -25.9705   18.2903 C   0  0  0  0  0  0  0  0  0  0  0  0
  -20.5849  -28.5420   23.3068 C   0  0  1  0  0  0  0  0  0  0  0  0
  -23.2157  -30.0025   20.9875 C   0  0  1  0  0  0  0  0  0  0  0  0
  -31.2344  -25.3541   17.6633 C   0  0  2  0  0  0  0  0  0  0  0  0
  -27.1179  -26.5170   15.2755 C   0  0  0  0  0  0  0  0  0  0  0  0
  -23.8622  -25.4265   20.9396 C   0  0  0  0  0  0  0  0  0  0  0  0
  -25.3608  -24.5678   19.1271 C   0  0  0  0  0  0  0  0  0  0  0  0
  -23.0533  -25.3379   18.5747 C   0  0  0  0  0  0  0  0  0  0  0  0
  -27.1997  -30.2182   16.1535 C   0  0  0  0  0  0  0  0  0  0  0  0
  -24.8203  -27.0451   19.1709 C   0  0  1  0  0  0  0  0  0  0  0  0
  -26.6177  -27.8004   15.9200 C   0  0  2  0  0  0  0  0  0  0  0  0
  -24.2815  -25.6173   19.4682 C   0  0  0  0  0  0  0  0  0  0  0  0
  -31.0573  -22.9704   18.2697 N   0  0  0  0  0  0  0  0  0  0  0  0
  -33.1854  -31.1080   19.2612 N   0  0  0  0  0  0  0  0  0  0  0  0
  -30.6663  -24.2329   18.5132 N   0  0  0  0  0  0  0  0  0  0  0  0
  -24.2107  -29.0601   20.4717 N   0  0  0  0  0  0  0  0  0  0  0  0
  -33.0006  -27.0568   17.4360 N   0  0  0  0  0  0  0  0  0  0  0  0
  -33.3785  -33.3691   19.9514 N   0  0  0  0  0  0  0  0  0  0  0  0
  -29.2761  -25.5429   19.9138 N   0  0  0  0  0  0  0  0  0  0  0  0
  -28.5962  -21.3367   21.4110 N   0  0  0  0  0  0  0  0  0  0  0  0
  -32.7699  -28.6957   19.1162 N   0  0  0  0  0  0  0  0  0  0  0  0
  -21.3156  -29.1199   22.1993 N   0  0  0  0  0  0  0  0  0  0  0  0
  -25.1996  -27.2628   17.7791 N   0  0  0  0  0  0  0  0  0  0  0  0
  -27.5800  -28.8927   15.6008 N   0  3  0  0  0  0  0  0  0  0  0  0
  -28.0086  -23.5342   21.7013 O   0  0  0  0  0  0  0  0  0  0  0  0
  -32.9387  -33.3980   22.9504 O   0  0  0  0  0  0  0  0  0  0  0  0
  -23.4112  -29.2268   23.2090 O   0  0  0  0  0  0  0  0  0  0  0  0
  -22.7252  -28.1316   18.9330 O   0  0  0  0  0  0  0  0  0  0  0  0
  -27.4053  -27.8387   18.2037 O   0  0  0  0  0  0  0  0  0  0  0  0
  -33.6046  -29.2498   17.0238 O   0  0  0  0  0  0  0  0  0  0  0  0
  -31.4294  -31.6191   24.8681 O   0  0  0  0  0  0  0  0  0  0  0  0
  -30.9738  -16.7081   19.4214 O   0  0  0  0  0  0  0  0  0  0  0  0
  -28.8210  -31.4813   23.7786 O   0  0  0  0  0  0  0  0  0  1  0  0
  -26.4052  -13.6613   19.9200 F   0  0  0  0  0  0  0  0  0  0  0  0
  -29.2936  -17.0165   21.5950 F   0  0  0  0  0  0  0  0  0  0  0  0
  -32.2283  -29.9805   21.3813 S   0  0  0  0  0  0  0  0  0  0  0  0
  1  2  1  0  0  0  0
  1  5  2  0  0  0  0
  2  6  2  0  0  0  0
  3  8  2  0  0  0  0
  3 15  1  0  0  0  0
  4  9  1  0  0  0  0
  4 15  2  0  0  0  0
  5 17  1  0  0  0  0
  6 19  1  0  0  0  0
  7 10  2  0  0  0  0
  7 18  1  0  0  0  0
  8 21  1  0  0  0  0
  9 21  2  0  0  0  0
 10 22  1  0  0  0  0
 11 12  2  0  0  0  0
 11 23  1  0  0  0  0
 12 24  1  0  0  0  0
 13 20  1  0  0  0  0
 13 22  2  0  0  0  0
 14 24  2  0  0  0  0
 14 25  1  0  0  0  0
 15 26  1  0  0  0  0
 16 26  1  0  0  0  0
 16 29  2  0  0  0  0
 16 32  1  0  0  0  0
 17 19  2  0  0  0  0
 17 39  1  0  0  0  0
 18 20  2  0  0  0  0
 18 40  1  0  0  0  0
 19 48  1  0  0  0  0
 20 41  1  0  0  0  0
 21 78  1  0  0  0  0
 22 79  1  0  0  0  0
 23 25  2  0  0  0  0
 23 78  1  0  0  0  0
 24 80  1  0  0  0  0
 25 81  1  0  0  0  0
 26 59  2  0  0  0  0
 27 28  2  0  0  0  0
 27 33  1  0  0  0  0
 27 82  1  0  0  0  0
 28 60  1  0  0  0  0
 28 64  1  0  0  0  0
 29 61  1  0  0  0  0
 29 65  1  0  0  0  0
 30 60  2  0  0  0  0
 30 67  1  0  0  0  0
 30 82  1  0  0  0  0
 31 34  2  0  0  0  0
 31 79  1  0  0  0  0
 32 66  1  0  0  0  0
 32 71  2  0  0  0  0
 33 34  1  0  0  0  0
 33 72  2  0  0  0  0
 34 77  1  0  0  0  0
 35 49  1  0  0  0  0
 35 68  1  0  0  0  0
 35 73  2  0  0  0  0
 36 56  1  0  0  0  0
 36 62  1  0  0  0  0
 36 74  2  0  0  0  0
 37 57  1  0  0  0  0
 37 69  1  0  0  0  0
 37 75  2  0  0  0  0
 38 63  1  0  0  0  0
 38 67  1  0  0  0  0
 38 76  2  0  0  0  0
 39 42  1  0  0  0  0
 40 49  1  0  0  0  0
 41 62  1  0  0  0  0
 42 44  1  0  0  0  0
 43 45  1  0  0  0  0
 43 46  1  0  0  0  0
 44 48  1  0  0  0  0
 45 50  1  0  0  0  0
 46 63  1  0  0  0  0
 47 50  1  0  0  0  0
 47 63  1  0  0  0  0
 48 68  1  0  0  0  0
 49 62  1  0  0  0  0
 50 61  1  0  0  0  0
 51 57  1  0  0  0  0
 52 58  1  0  0  0  0
 53 58  1  0  0  0  0
 54 58  1  0  0  0  0
 55 70  1  0  0  0  0
 56 58  1  0  0  0  0
 56 69  1  0  0  0  0
 57 70  1  0  0  0  0
 59 61  1  0  0  0  0
M  CHG  1  70   1
M  ISO  4  31 101  38 100  67 100  79 101
M  END
> <Batch ID>
0179

> <Smiles>
CNC(C)C(=O)NC(C(=O)N1Cc2cc([101O:1][101CH2:1]C(=O)C(=O)c3sc([100NH:0][100C:0](=O)N4CCCC(n5nc(-c6ccc(Oc7ccc(F)cc7F)cc6)c(C(N)=O)c5N)C4)nc3N)ccc2CC1C(=O)NC1CCCc2ccccc21)C(C)(C)C

> <Shape>
0.263

> <Color>
0.091

> <Negative vol penalty>
0.000

$$$$

  -OEChem-04052304473D

 83 91  0     1  0  0  0  0  0999 V2000
  -18.1773  -24.3429   21.7425 C   0  0  0  0  0  0  0  0  0  0  0  0
  -19.4983  -24.3716   21.3069 C   0  0  0  0  0  0  0  0  0  0  0  0
  -22.8490  -10.3993   21.8026 C   0  0  0  0  0  0  0  0  0  0  0  0
  -23.6323  -11.5949   23.7504 C   0  0  0  0  0  0  0  0  0  0  0  0
  -17.6779  -25.3871   22.5197 C   0  0  0  0  0  0  0  0  0  0  0  0
  -20.3203  -25.4452   21.6474 C   0  0  0  0  0  0  0  0  0  0  0  0
  -24.9132  -23.9645   23.1830 C   0  0  0  0  0  0  0  0  0  0  0  0
  -22.0255   -9.6181   22.6133 C   0  0  0  0  0  0  0  0  0  0  0  0
  -22.8088  -10.8138   24.5611 C   0  0  0  0  0  0  0  0  0  0  0  0
  -25.8241  -23.5893   22.1965 C   0  0  0  0  0  0  0  0  0  0  0  0
  -19.0429   -9.9345   24.1743 C   0  0  0  0  0  0  0  0  0  0  0  0
  -17.7309   -9.7213   23.7515 C   0  0  0  0  0  0  0  0  0  0  0  0
  -26.8761  -25.7545   22.3528 C   0  0  0  0  0  0  0  0  0  0  0  0
  -18.1325   -7.3393   23.7067 C   0  0  0  0  0  0  0  0  0  0  0  0
  -23.6525  -11.3877   22.3712 C   0  0  0  0  0  0  0  0  0  0  0  0
  -24.1768  -13.4164   20.9161 C   0  0  0  0  0  0  0  0  0  0  0  0
  -18.4971  -26.4694   22.8780 C   0  0  0  0  0  0  0  0  0  0  0  0
  -24.9702  -25.2436   23.7551 C   0  0  0  0  0  0  0  0  0  0  0  0
  -19.8311  -26.5055   22.4291 C   0  0  0  0  0  0  0  0  0  0  0  0
  -25.9664  -26.1426   23.3482 C   0  0  0  0  0  0  0  0  0  0  0  0
  -22.0054   -9.8253   23.9925 C   0  0  0  0  0  0  0  0  0  0  0  0
  -26.8040  -24.4853   21.7792 C   0  0  0  0  0  0  0  0  0  0  0  0
  -19.8998   -8.8501   24.3633 C   0  0  0  0  0  0  0  0  0  0  0  0
  -17.2757   -8.4237   23.5177 C   0  0  0  0  0  0  0  0  0  0  0  0
  -19.4445   -7.5525   24.1295 C   0  0  0  0  0  0  0  0  0  0  0  0
  -24.5038  -12.1946   21.5343 C   0  0  0  0  0  0  0  0  0  0  0  0
  -31.1707  -19.2697   19.6146 C   0  0  0  0  0  0  0  0  0  0  0  0
  -32.2345  -18.4845   19.2222 C   0  0  0  0  0  0  0  0  0  0  0  0
  -25.3168  -13.7744   20.2389 C   0  0  0  0  0  0  0  0  0  0  0  0
  -30.8657  -16.8925   19.8562 C   0  0  0  0  0  0  0  0  0  0  0  0
  -22.9521  -14.1611   20.9510 C   0  0  0  0  0  0  0  0  0  0  0  0
  -31.0016  -20.7452   19.6092 C   0  0  0  0  0  0  0  0  0  0  0  0
  -22.9979  -27.7330   23.8842 C   0  0  0  0  0  0  0  0  0  0  0  0
  -25.2652  -28.9305   25.8710 C   0  0  0  0  0  0  0  0  0  0  0  0
  -29.4344  -22.5632   20.1874 C   0  0  0  0  0  0  0  0  0  0  0  0
  -28.5233  -28.9243   26.8869 C   0  0  0  0  0  0  0  0  0  0  0  0
  -30.8465  -14.3768   19.9873 C   0  0  0  0  0  0  0  0  0  0  0  0
  -17.8991  -27.5980   23.6801 C   0  0  0  0  0  0  0  0  0  0  0  0
  -23.9970  -25.6236   24.8371 C   0  0  0  0  0  0  0  0  0  0  0  0
  -26.0830  -27.5204   23.9453 C   0  0  0  0  0  0  0  0  0  0  0  0
  -18.9426  -28.5163   24.3112 C   0  0  0  0  0  0  0  0  0  0  0  0
  -29.5326  -11.1471   19.2662 C   0  0  0  0  0  0  0  0  0  0  0  0
  -20.0147  -28.8865   23.2912 C   0  0  0  0  0  0  0  0  0  0  0  0
  -28.0803  -11.2322   19.7411 C   0  0  0  0  0  0  0  0  0  0  0  0
  -30.4751  -11.9274   20.1809 C   0  0  0  0  0  0  0  0  0  0  0  0
  -28.6415  -13.4106   20.8929 C   0  0  0  0  0  0  0  0  0  0  0  0
  -20.7610  -27.6408   22.7985 C   0  0  1  0  0  0  0  0  0  0  0  0
  -23.8264  -27.1324   24.9844 C   0  0  1  0  0  0  0  0  0  0  0  0
  -27.6458  -12.6937   19.9664 C   0  0  2  0  0  0  0  0  0  0  0  0
  -30.0843  -30.0389   28.5051 C   0  0  0  0  0  0  0  0  0  0  0  0
  -25.3408  -31.4062   24.0890 C   0  0  0  0  0  0  0  0  0  0  0  0
  -27.5161  -32.0266   25.1621 C   0  0  0  0  0  0  0  0  0  0  0  0
  -25.4429  -31.8829   26.5419 C   0  0  0  0  0  0  0  0  0  0  0  0
  -29.1203  -26.3670   28.2518 C   0  0  0  0  0  0  0  0  0  0  0  0
  -28.0331  -22.7382   20.7340 C   0  0  0  0  0  0  0  0  0  1  0  0
  -26.5155  -29.7573   25.6913 C   0  0  1  0  0  0  0  0  0  0  0  0
  -29.1471  -28.8645   28.2696 C   0  0  2  0  0  0  0  0  0  0  0  0
  -26.2007  -31.2430   25.3583 C   0  0  0  0  0  0  0  0  0  0  0  0
  -25.7536  -11.8027   21.2729 N   0  0  0  0  0  0  0  0  0  0  0  0
  -32.0615  -17.1211   19.3604 N   0  0  0  0  0  0  0  0  0  0  0  0
  -26.2220  -12.7837   20.4829 N   0  0  0  0  0  0  0  0  0  0  0  0
  -25.1043  -27.8473   24.9955 N   0  0  0  0  0  0  0  0  0  0  0  0
  -30.0027  -13.3039   20.3447 N   0  0  0  0  0  0  0  0  0  0  0  0
  -33.3943  -18.9777   18.7256 N   0  0  0  0  0  0  0  0  0  0  0  0
  -25.6233  -14.8368   19.4644 N   0  0  0  0  0  0  0  0  0  0  0  0
  -21.8801  -13.6497   21.6950 N   0  0  0  0  0  0  0  0  0  0  0  0
  -30.2775  -15.6387   20.1560 N   0  0  0  0  0  0  0  0  0  0  0  0
  -29.7774  -21.2142   20.0826 N   0  0  0  0  0  0  0  0  0  0  0  0
  -21.7246  -27.2052   23.7866 N   0  0  0  0  0  0  0  0  0  0  0  0
  -27.3057  -29.5712   26.9035 N   0  0  0  0  0  0  0  0  0  0  0  0
  -29.9238  -27.6033   28.4333 N   0  3  0  0  0  0  0  0  0  0  0  0
  -22.8072  -15.2396   20.3270 O   0  0  0  0  0  0  0  0  0  0  0  0
  -31.9298  -21.4520   19.2260 O   0  0  0  0  0  0  0  0  0  0  0  0
  -23.4779  -28.6113   23.1771 O   0  0  0  0  0  0  0  0  0  0  0  0
  -24.4645  -29.2304   26.7601 O   0  0  0  0  0  0  0  0  0  0  0  0
  -30.1518  -23.5117   19.8819 O   0  0  0  0  0  0  0  0  0  0  0  0
  -29.0639  -28.4483   25.8911 O   0  0  0  0  0  0  0  0  0  0  0  0
  -31.9797  -14.1891   19.5373 O   0  0  0  0  0  0  0  0  0  0  0  0
  -21.2018   -9.0634   24.7839 O   0  0  0  0  0  0  0  0  0  0  0  0
  -27.6939  -24.1218   20.8160 O   0  0  0  0  0  0  0  0  0  1  0  0
  -16.0153   -8.2189   23.1131 F   0  0  0  0  0  0  0  0  0  0  0  0
  -20.2627   -6.5067   24.3104 F   0  0  0  0  0  0  0  0  0  0  0  0
  -29.8960  -18.2710   20.1794 S   0  0  0  0  0  0  0  0  0  0  0  0
  1  2  1  0  0  0  0
  1  5  2  0  0  0  0
  2  6  2  0  0  0  0
  3  8  2  0  0  0  0
  3 15  1  0  0  0  0
  4  9  1  0  0  0  0
  4 15  2  0  0  0  0
  5 17  1  0  0  0  0
  6 19  1  0  0  0  0
  7 10  2  0  0  0  0
  7 18  1  0  0  0  0
  8 21  1  0  0  0  0
  9 21  2  0  0  0  0
 10 22  1  0  0  0  0
 11 12  2  0  0  0  0
 11 23  1  0  0  0  0
 12 24  1  0  0  0  0
 13 20  1  0  0  0  0
 13 22  2  0  0  0  0
 14 24  2  0  0  0  0
 14 25  1  0  0  0  0
 15 26  1  0  0  0  0
 16 26  1  0  0  0  0
 16 29  2  0  0  0  0
 16 31  1  0  0  0  0
 17 19  2  0  0  0  0
 17 38  1  0  0  0  0
 18 20  2  0  0  0  0
 18 39  1  0  0  0  0
 19 47  1  0  0  0  0
 20 40  1  0  0  0  0
 21 79  1  0  0  0  0
 22 80  1  0  0  0  0
 23 25  2  0  0  0  0
 23 79  1  0  0  0  0
 24 81  1  0  0  0  0
 25 82  1  0  0  0  0
 26 59  2  0  0  0  0
 27 28  2  0  0  0  0
 27 32  1  0  0  0  0
 27 83  1  0  0  0  0
 28 60  1  0  0  0  0
 28 64  1  0  0  0  0
 29 61  1  0  0  0  0
 29 65  1  0  0  0  0
 30 60  2  0  0  0  0
 30 67  1  0  0  0  0
 30 83  1  0  0  0  0
 31 66  1  0  0  0  0
 31 72  2  0  0  0  0
 32 68  1  0  0  0  0
 32 73  2  0  0  0  0
 33 48  1  0  0  0  0
 33 69  1  0  0  0  0
 33 74  2  0  0  0  0
 34 56  1  0  0  0  0
 34 62  1  0  0  0  0
 34 75  2  0  0  0  0
 35 55  1  0  0  0  0
 35 68  1  0  0  0  0
 35 76  2  0  0  0  0
 36 57  1  0  0  0  0
 36 70  1  0  0  0  0
 36 77  2  0  0  0  0
 37 63  1  0  0  0  0
 37 67  1  0  0  0  0
 37 78  2  0  0  0  0
 38 41  1  0  0  0  0
 39 48  1  0  0  0  0
 40 62  1  0  0  0  0
 41 43  1  0  0  0  0
 42 44  1  0  0  0  0
 42 45  1  0  0  0  0
 43 47  1  0  0  0  0
 44 49  1  0  0  0  0
 45 63  1  0  0  0  0
 46 49  1  0  0  0  0
 46 63  1  0  0  0  0
 47 69  1  0  0  0  0
 48 62  1  0  0  0  0
 49 61  1  0  0  0  0
 50 57  1  0  0  0  0
 51 58  1  0  0  0  0
 52 58  1  0  0  0  0
 53 58  1  0  0  0  0
 54 71  1  0  0  0  0
 55 80  1  0  0  0  0
 56 58  1  0  0  0  0
 56 70  1  0  0  0  0
 57 71  1  0  0  0  0
 59 61  1  0  0  0  0
M  CHG  1  71   1
M  ISO  4  37 100  55 101  67 100  80 101
M  END
> <Batch ID>
0179

> <Smiles>
CNC(C)C(=O)NC(C(=O)N1Cc2cc([101O:1][101CH2:1]C(=O)NC(=O)c3sc([100NH:0][100C:0](=O)N4CCCC(n5nc(-c6ccc(Oc7ccc(F)cc7F)cc6)c(C(N)=O)c5N)C4)nc3N)ccc2CC1C(=O)NC1CCCc2ccccc21)C(C)(C)C

> <Shape>
0.239

> <Color>
0.128

> <Negative vol penalty>
0.000

$$$$

  -OEChem-04052304473D

 91 99  0     1  0  0  0  0  0999 V2000
  -22.7485  -34.8681   15.4282 C   0  0  0  0  0  0  0  0  0  0  0  0
  -23.3638  -33.6223   15.4964 C   0  0  0  0  0  0  0  0  0  0  0  0
  -23.4581  -10.2483   20.6566 C   0  0  0  0  0  0  0  0  0  0  0  0
  -23.7924  -10.9105   18.3573 C   0  0  0  0  0  0  0  0  0  0  0  0
  -22.9198  -35.7866   16.4630 C   0  0  0  0  0  0  0  0  0  0  0  0
  -24.1519  -33.2946   16.5992 C   0  0  0  0  0  0  0  0  0  0  0  0
  -24.7493  -27.7768   19.1881 C   0  0  0  0  0  0  0  0  0  0  0  0
  -22.1088  -10.0129   20.3926 C   0  0  0  0  0  0  0  0  0  0  0  0
  -22.4432  -10.6751   18.0932 C   0  0  0  0  0  0  0  0  0  0  0  0
  -25.7210  -26.7844   19.0676 C   0  0  0  0  0  0  0  0  0  0  0  0
  -19.2854  -11.8368   20.0381 C   0  0  0  0  0  0  0  0  0  0  0  0
  -18.3526  -12.3161   20.9577 C   0  0  0  0  0  0  0  0  0  0  0  0
  -28.8495  -16.9586   16.3549 C   0  0  0  0  0  0  0  0  0  0  0  0
  -26.8198  -27.6288   21.0421 C   0  0  0  0  0  0  0  0  0  0  0  0
  -29.1988  -18.6842   18.0094 C   0  0  0  0  0  0  0  0  0  0  0  0
  -17.5646  -10.0632   21.3326 C   0  0  0  0  0  0  0  0  0  0  0  0
  -24.2999  -10.6972   19.6389 C   0  0  0  0  0  0  0  0  0  0  0  0
  -28.8477  -17.9240   15.3482 C   0  0  0  0  0  0  0  0  0  0  0  0
  -26.7548  -10.0227   19.8007 C   0  0  0  0  0  0  0  0  0  0  0  0
  -23.7025  -35.4664   17.5835 C   0  0  0  0  0  0  0  0  0  0  0  0
  -24.8117  -28.7110   20.2321 C   0  0  0  0  0  0  0  0  0  0  0  0
  -24.3350  -34.2102   17.6494 C   0  0  0  0  0  0  0  0  0  0  0  0
  -25.8462  -28.6305   21.1752 C   0  0  0  0  0  0  0  0  0  0  0  0
  -29.0215  -19.2696   15.6721 C   0  0  0  0  0  0  0  0  0  0  0  0
  -29.0250  -17.3387   17.6855 C   0  0  0  0  0  0  0  0  0  0  0  0
  -29.1970  -19.6497   17.0026 C   0  0  0  0  0  0  0  0  0  0  0  0
  -21.6014  -10.2262   19.1109 C   0  0  0  0  0  0  0  0  0  0  0  0
  -26.7581  -26.7120   19.9930 C   0  0  0  0  0  0  0  0  0  0  0  0
  -19.3578  -10.4707   19.7656 C   0  0  0  0  0  0  0  0  0  0  0  0
  -17.4922  -11.4294   21.6050 C   0  0  0  0  0  0  0  0  0  0  0  0
  -18.4974   -9.5839   20.4129 C   0  0  0  0  0  0  0  0  0  0  0  0
  -25.6936  -10.9411   19.9111 C   0  0  0  0  0  0  0  0  0  0  0  0
  -27.8680  -10.7385   20.1679 C   0  0  0  0  0  0  0  0  0  0  0  0
  -28.6627  -17.4964   13.9678 C   0  0  0  0  0  0  0  0  0  0  0  0
  -29.7096  -23.0230   18.5783 C   0  0  0  0  0  0  0  0  0  0  0  0
  -26.7359   -8.6456   19.4018 C   0  0  0  0  0  0  0  0  0  0  0  0
  -29.9010  -23.8027   19.6580 C   0  0  0  0  0  0  0  0  0  0  0  0
  -29.5593  -21.5348   18.6274 C   0  0  0  0  0  0  0  0  0  0  0  0
  -25.1180  -31.8704   20.3998 C   0  0  0  0  0  0  0  0  0  0  0  0
  -24.6342  -31.3586   23.5662 C   0  0  0  0  0  0  0  0  0  0  0  0
  -24.7889  -29.2061   26.2100 C   0  0  0  0  0  0  0  0  0  0  0  0
  -29.1874  -16.5657   20.0777 C   0  0  0  0  0  0  0  0  0  0  0  0
  -23.8970  -36.5097   18.6552 C   0  0  0  0  0  0  0  0  0  0  0  0
  -23.7408  -29.7590   20.3637 C   0  0  0  0  0  0  0  0  0  0  0  0
  -25.9471  -29.5969   22.3260 C   0  0  0  0  0  0  0  0  0  0  0  0
  -24.4430  -35.9442   19.9638 C   0  0  0  0  0  0  0  0  0  0  0  0
  -29.2136  -14.4202   22.9190 C   0  0  0  0  0  0  0  0  0  0  0  0
  -25.6150  -35.0064   19.6922 C   0  0  0  0  0  0  0  0  0  0  0  0
  -28.4156  -13.1983   22.4580 C   0  0  0  0  0  0  0  0  0  0  0  0
  -28.6434  -15.7179   22.3493 C   0  0  0  0  0  0  0  0  0  0  0  0
  -27.6782  -14.5129   20.4295 C   0  0  0  0  0  0  0  0  0  0  0  0
  -25.1773  -33.8086   18.8407 C   0  0  1  0  0  0  0  0  0  0  0  0
  -24.1897  -30.9741   21.1696 C   0  0  1  0  0  0  0  0  0  0  0  0
  -28.2538  -13.1763   20.9254 C   0  0  2  0  0  0  0  0  0  0  0  0
  -24.3631  -29.0862   28.6801 C   0  0  0  0  0  0  0  0  0  0  0  0
  -27.2089  -32.9122   24.0830 C   0  0  0  0  0  0  0  0  0  0  0  0
  -27.2355  -31.9615   26.3990 C   0  0  0  0  0  0  0  0  0  0  0  0
  -25.3468  -33.4205   25.6732 C   0  0  0  0  0  0  0  0  0  0  0  0
  -22.7475  -27.0900   25.8728 C   0  0  0  0  0  0  0  0  0  0  0  0
  -30.0575  -25.2988   19.5434 C   0  0  0  0  0  0  0  0  0  0  0  0
  -29.0147  -26.0566   20.3592 C   0  0  0  0  0  0  0  0  0  1  0  0
  -25.5247  -31.0730   24.7513 C   0  0  1  0  0  0  0  0  0  0  0  0
  -23.7806  -28.8664   27.2927 C   0  0  2  0  0  0  0  0  0  0  0  0
  -29.0205  -20.3049   14.5905 C   0  0  0  0  0  0  0  0  0  0  0  0
  -26.3284  -32.3247   25.2039 C   0  0  0  0  0  0  0  0  0  0  0  0
  -26.0965  -12.1482   20.3168 N   0  0  0  0  0  0  0  0  0  0  0  0
  -29.4647  -16.6744   13.3616 N   0  0  0  0  0  0  0  0  0  0  0  0
  -27.4233  -11.9932   20.4647 N   0  0  0  0  0  0  0  0  0  0  0  0
  -24.8796  -30.6075   22.4081 N   0  0  0  0  0  0  0  0  0  0  0  0
  -28.5225  -15.6252   20.8927 N   0  0  0  0  0  0  0  0  0  0  0  0
  -29.1742  -10.4107   20.2626 N   0  0  0  0  0  0  0  0  0  0  0  0
  -25.5069   -8.0667   19.0571 N   0  0  0  0  0  0  0  0  0  0  0  0
  -29.3749  -21.0106   17.3541 N   0  0  0  0  0  0  0  0  0  0  0  0
  -29.0261  -16.3579   18.7082 N   0  0  0  0  0  0  0  0  0  0  0  0
  -24.4745  -32.8399   19.6544 N   0  0  0  0  0  0  0  0  0  0  0  0
  -24.6613  -30.5115   25.7847 N   0  0  0  0  0  0  0  0  0  0  0  0
  -23.3599  -27.4412   27.1800 N   0  3  0  0  0  0  0  0  0  0  0  0
  -27.7757   -7.9447   19.3683 O   0  0  0  0  0  0  0  0  0  0  0  0
  -29.6030  -20.9229   19.6874 O   0  0  0  0  0  0  0  0  0  0  0  0
  -26.3285  -31.6963   20.4775 O   0  0  0  0  0  0  0  0  0  0  0  0
  -23.7488  -32.2116   23.6667 O   0  0  0  0  0  0  0  0  0  0  0  0
  -25.6103  -28.3957   25.7867 O   0  0  0  0  0  0  0  0  0  0  0  0
  -29.8734  -17.4712   20.5587 O   0  0  0  0  0  0  0  0  0  0  0  0
  -30.0011  -23.3367   20.9524 O   0  0  0  0  0  0  0  0  0  0  0  0
  -20.2849   -9.9963   18.8529 O   0  0  0  0  0  0  0  0  0  0  0  0
  -27.7083  -25.7447   19.8772 O   0  0  0  0  0  0  0  0  0  1  0  0
  -16.5976  -11.8896   22.4893 F   0  0  0  0  0  0  0  0  0  0  0  0
  -18.5630   -8.2703   20.1562 F   0  0  0  0  0  0  0  0  0  0  0  0
  -28.8396  -19.7848   13.3429 F   0  0  0  0  0  0  0  0  0  0  0  0
  -28.0390  -21.2400   14.7376 F   0  0  0  0  0  0  0  0  0  0  0  0
  -30.1909  -21.0006   14.5364 F   0  0  0  0  0  0  0  0  0  0  0  0
  1  2  1  0  0  0  0
  1  5  2  0  0  0  0
  2  6  2  0  0  0  0
  3  8  2  0  0  0  0
  3 17  1  0  0  0  0
  4  9  1  0  0  0  0
  4 17  2  0  0  0  0
  5 20  1  0  0  0  0
  6 22  1  0  0  0  0
  7 10  2  0  0  0  0
  7 21  1  0  0  0  0
  8 27  1  0  0  0  0
  9 27  2  0  0  0  0
 10 28  1  0  0  0  0
 11 12  2  0  0  0  0
 11 29  1  0  0  0  0
 12 30  1  0  0  0  0
 13 18  2  0  0  0  0
 13 25  1  0  0  0  0
 14 23  1  0  0  0  0
 14 28  2  0  0  0  0
 15 25  2  0  0  0  0
 15 26  1  0  0  0  0
 16 30  2  0  0  0  0
 16 31  1  0  0  0  0
 17 32  1  0  0  0  0
 18 24  1  0  0  0  0
 18 34  1  0  0  0  0
 19 32  1  0  0  0  0
 19 33  2  0  0  0  0
 19 36  1  0  0  0  0
 20 22  2  0  0  0  0
 20 43  1  0  0  0  0
 21 23  2  0  0  0  0
 21 44  1  0  0  0  0
 22 52  1  0  0  0  0
 23 45  1  0  0  0  0
 24 26  2  0  0  0  0
 24 64  1  0  0  0  0
 25 74  1  0  0  0  0
 26 73  1  0  0  0  0
 27 85  1  0  0  0  0
 28 86  1  0  0  0  0
 29 31  2  0  0  0  0
 29 85  1  0  0  0  0
 30 87  1  0  0  0  0
 31 88  1  0  0  0  0
 32 66  2  0  0  0  0
 33 68  1  0  0  0  0
 33 71  1  0  0  0  0
 34 67  2  0  0  0  0
 35 37  2  0  0  0  0
 35 38  1  0  0  0  0
 36 72  1  0  0  0  0
 36 78  2  0  0  0  0
 37 60  1  0  0  0  0
 37 84  1  0  0  0  0
 38 73  1  0  0  0  0
 38 79  2  0  0  0  0
 39 53  1  0  0  0  0
 39 75  1  0  0  0  0
 39 80  2  0  0  0  0
 40 62  1  0  0  0  0
 40 69  1  0  0  0  0
 40 81  2  0  0  0  0
 41 63  1  0  0  0  0
 41 76  1  0  0  0  0
 41 82  2  0  0  0  0
 42 70  1  0  0  0  0
 42 74  1  0  0  0  0
 42 83  2  0  0  0  0
 43 46  1  0  0  0  0
 44 53  1  0  0  0  0
 45 69  1  0  0  0  0
 46 48  1  0  0  0  0
 47 49  1  0  0  0  0
 47 50  1  0  0  0  0
 48 52  1  0  0  0  0
 49 54  1  0  0  0  0
 50 70  1  0  0  0  0
 51 54  1  0  0  0  0
 51 70  1  0  0  0  0
 52 75  1  0  0  0  0
 53 69  1  0  0  0  0
 54 68  1  0  0  0  0
 55 63  1  0  0  0  0
 56 65  1  0  0  0  0
 57 65  1  0  0  0  0
 58 65  1  0  0  0  0
 59 77  1  0  0  0  0
 60 61  1  0  0  0  0
 61 86  1  0  0  0  0
 62 65  1  0  0  0  0
 62 76  1  0  0  0  0
 63 77  1  0  0  0  0
 64 89  1  0  0  0  0
 64 90  1  0  0  0  0
 64 91  1  0  0  0  0
 66 68  1  0  0  0  0
M  CHG  1  77   1
M  ISO  4  42 100  61 101  74 100  86 101
M  END
> <Batch ID>
0179

> <Smiles>
CNC(C)C(=O)NC(C(=O)N1Cc2cc([101O:1][101CH2:1]CC(=O)CC(=O)Nc3cc([100NH:0][100C:0](=O)N4CCCC(n5nc(-c6ccc(Oc7ccc(F)cc7F)cc6)c(C(N)=O)c5N)C4)cc(C=N)c3C(F)(F)F)ccc2CC1C(=O)NC1CCCc2ccccc21)C(C)(C)C

> <Shape>
0.224

> <Color>
0.089

> <Negative vol penalty>
0.000

$$$$

  -OEChem-04052304473D

 83 91  0     1  0  0  0  0  0999 V2000
  -26.9354  -37.9250   18.7584 C   0  0  0  0  0  0  0  0  0  0  0  0
  -27.5139  -36.6653   18.6411 C   0  0  0  0  0  0  0  0  0  0  0  0
  -23.3873   -9.4724   22.9473 C   0  0  0  0  0  0  0  0  0  0  0  0
  -23.4814   -9.8689   20.5659 C   0  0  0  0  0  0  0  0  0  0  0  0
  -26.0639  -38.1953   19.8126 C   0  0  0  0  0  0  0  0  0  0  0  0
  -27.2221  -35.6753   19.5787 C   0  0  0  0  0  0  0  0  0  0  0  0
  -26.7338  -29.6581   18.5486 C   0  0  0  0  0  0  0  0  0  0  0  0
  -22.6305   -8.3219   22.7258 C   0  0  0  0  0  0  0  0  0  0  0  0
  -22.7246   -8.7184   20.3444 C   0  0  0  0  0  0  0  0  0  0  0  0
  -27.6235  -28.6002   18.7301 C   0  0  0  0  0  0  0  0  0  0  0  0
  -23.1777   -5.1277   21.7610 C   0  0  0  0  0  0  0  0  0  0  0  0
  -23.5261   -3.9766   22.4676 C   0  0  0  0  0  0  0  0  0  0  0  0
  -26.6187  -28.1306   20.8723 C   0  0  0  0  0  0  0  0  0  0  0  0
  -21.3299   -3.9294   23.4734 C   0  0  0  0  0  0  0  0  0  0  0  0
  -23.8128  -10.2460   21.8673 C   0  0  0  0  0  0  0  0  0  0  0  0
  -25.9969  -11.5296   22.1665 C   0  0  0  0  0  0  0  0  0  0  0  0
  -25.7538  -37.2051   20.7582 C   0  0  0  0  0  0  0  0  0  0  0  0
  -25.7854  -29.9676   19.5340 C   0  0  0  0  0  0  0  0  0  0  0  0
  -26.3467  -35.9329   20.6474 C   0  0  0  0  0  0  0  0  0  0  0  0
  -25.7164  -29.1914   20.6997 C   0  0  0  0  0  0  0  0  0  0  0  0
  -22.2991   -7.9448   21.4244 C   0  0  0  0  0  0  0  0  0  0  0  0
  -27.5680  -27.8381   19.8933 C   0  0  0  0  0  0  0  0  0  0  0  0
  -21.9054   -5.6797   21.9107 C   0  0  0  0  0  0  0  0  0  0  0  0
  -22.6022   -3.3775   23.3237 C   0  0  0  0  0  0  0  0  0  0  0  0
  -20.9815   -5.0805   22.7668 C   0  0  0  0  0  0  0  0  0  0  0  0
  -24.5941  -11.4349   22.0955 C   0  0  0  0  0  0  0  0  0  0  0  0
  -28.7110  -18.3361   19.7679 C   0  0  0  0  0  0  0  0  0  0  0  0
  -27.5367  -18.7607   20.3534 C   0  0  0  0  0  0  0  0  0  0  0  0
  -26.2399  -12.8616   22.3970 C   0  0  0  0  0  0  0  0  0  0  0  0
  -28.5076  -20.7120   20.1090 C   0  0  0  0  0  0  0  0  0  0  0  0
  -27.9180  -25.5511   20.2367 C   0  0  0  0  0  0  0  0  0  1  0  0
  -26.9914  -10.5051   22.0356 C   0  0  0  0  0  0  0  0  0  0  0  0
  -28.6776  -24.4644   20.4207 C   0  0  0  0  0  0  0  0  0  0  0  0
  -28.0119  -23.1315   20.5891 C   0  0  0  0  0  0  0  0  0  0  0  0
  -25.2032  -32.4948   21.3719 C   0  0  0  0  0  0  0  0  0  0  0  0
  -22.5937  -30.7744   22.2395 C   0  0  0  0  0  0  0  0  0  0  0  0
  -21.1082  -27.7167   22.5402 C   0  0  0  0  0  0  0  0  0  0  0  0
  -25.2771  -18.2428   21.3396 C   0  0  0  0  0  0  0  0  0  0  0  0
  -24.8431  -37.5586   21.9073 C   0  0  0  0  0  0  0  0  0  0  0  0
  -24.8152  -31.0952   19.3112 C   0  0  0  0  0  0  0  0  0  0  0  0
  -24.7035  -29.4698   21.7791 C   0  0  0  0  0  0  0  0  0  0  0  0
  -24.2941  -36.3408   22.6462 C   0  0  0  0  0  0  0  0  0  0  0  0
  -23.0816  -16.6215   23.6261 C   0  0  0  0  0  0  0  0  0  0  0  0
  -25.4107  -35.3417   22.9322 C   0  0  0  0  0  0  0  0  0  0  0  0
  -23.3948  -15.1354   23.4375 C   0  0  0  0  0  0  0  0  0  0  0  0
  -23.1536  -17.3881   22.3067 C   0  0  0  0  0  0  0  0  0  0  0  0
  -24.7184  -15.7323   21.3691 C   0  0  0  0  0  0  0  0  0  0  0  0
  -26.0356  -34.8253   21.6305 C   0  0  1  0  0  0  0  0  0  0  0  0
  -24.2285  -31.6437   20.6082 C   0  0  1  0  0  0  0  0  0  0  0  0
  -24.7219  -14.9307   22.6809 C   0  0  2  0  0  0  0  0  0  0  0  0
  -29.1660  -16.9752   19.4170 C   0  0  0  0  0  0  0  0  0  0  0  0
  -18.9860  -26.6254   23.3168 C   0  0  0  0  0  0  0  0  0  0  0  0
  -23.4625  -31.1541   25.1397 C   0  0  0  0  0  0  0  0  0  0  0  0
  -21.9044  -29.3006   25.7761 C   0  0  0  0  0  0  0  0  0  0  0  0
  -21.0035  -31.3874   24.7483 C   0  0  0  0  0  0  0  0  0  0  0  0
  -20.5436  -26.6311   19.8455 C   0  0  0  0  0  0  0  0  0  0  0  0
  -22.2933  -29.7550   23.3117 C   0  0  1  0  0  0  0  0  0  0  0  0
  -19.7324  -27.2207   22.1330 C   0  0  2  0  0  0  0  0  0  0  0  0
  -22.1864  -30.3950   24.7246 C   0  0  0  0  0  0  0  0  0  0  0  0
  -23.9885  -12.6129   22.2672 N   0  0  0  0  0  0  0  0  0  0  0  0
  -27.4184  -20.1227   20.5502 N   0  0  0  0  0  0  0  0  0  0  0  0
  -25.0156  -13.4604   22.4485 N   0  0  0  0  0  0  0  0  0  0  0  0
  -23.7808  -30.5868   21.5175 N   0  0  0  0  0  0  0  0  0  0  0  0
  -24.4400  -17.1498   21.6483 N   0  0  0  0  0  0  0  0  0  0  0  0
  -27.3792  -13.5674   22.5588 N   0  0  0  0  0  0  0  0  0  0  0  0
  -26.5686   -9.1897   21.8006 N   0  0  0  0  0  0  0  0  0  0  0  0
  -26.4884  -17.8914   20.7447 N   0  0  0  0  0  0  0  0  0  0  0  0
  -28.8057  -22.0960   20.1153 N   0  0  0  0  0  0  0  0  0  0  0  0
  -25.1804  -33.8307   21.0191 N   0  0  0  0  0  0  0  0  0  0  0  0
  -21.0893  -29.0525   22.8812 N   0  0  0  0  0  0  0  0  0  0  0  0
  -19.8501  -26.1752   21.0776 N   0  3  0  0  0  0  0  0  0  0  0  0
  -28.2179  -10.7462   22.1408 O   0  0  0  0  0  0  0  0  0  0  0  0
  -26.8978  -23.0430   21.0938 O   0  0  0  0  0  0  0  0  0  0  0  0
  -25.9216  -31.9781   22.2196 O   0  0  0  0  0  0  0  0  0  0  0  0
  -21.8006  -31.6989   22.0448 O   0  0  0  0  0  0  0  0  0  0  0  0
  -22.0997  -26.9906   22.5579 O   0  0  0  0  0  0  0  0  0  0  0  0
  -24.9558  -19.4029   21.6096 O   0  0  0  0  0  0  0  0  0  0  0  0
  -30.0560  -24.5206   20.4606 O   0  0  0  0  0  0  0  0  0  0  0  0
  -21.5608   -6.8221   21.2079 O   0  0  0  0  0  0  0  0  0  0  0  0
  -28.4356  -26.8053   20.0733 O   0  0  0  0  0  0  0  0  0  1  0  0
  -22.9363   -2.2712   24.0010 F   0  0  0  0  0  0  0  0  0  0  0  0
  -19.7574   -5.6055   22.9138 F   0  0  0  0  0  0  0  0  0  0  0  0
  -29.7145  -19.6888   19.4445 S   0  0  0  0  0  0  0  0  0  0  0  0
  1  2  1  0  0  0  0
  1  5  2  0  0  0  0
  2  6  2  0  0  0  0
  3  8  2  0  0  0  0
  3 15  1  0  0  0  0
  4  9  1  0  0  0  0
  4 15  2  0  0  0  0
  5 17  1  0  0  0  0
  6 19  1  0  0  0  0
  7 10  2  0  0  0  0
  7 18  1  0  0  0  0
  8 21  1  0  0  0  0
  9 21  2  0  0  0  0
 10 22  1  0  0  0  0
 11 12  2  0  0  0  0
 11 23  1  0  0  0  0
 12 24  1  0  0  0  0
 13 20  1  0  0  0  0
 13 22  2  0  0  0  0
 14 24  2  0  0  0  0
 14 25  1  0  0  0  0
 15 26  1  0  0  0  0
 16 26  1  0  0  0  0
 16 29  2  0  0  0  0
 16 32  1  0  0  0  0
 17 19  2  0  0  0  0
 17 39  1  0  0  0  0
 18 20  2  0  0  0  0
 18 40  1  0  0  0  0
 19 48  1  0  0  0  0
 20 41  1  0  0  0  0
 21 79  1  0  0  0  0
 22 80  1  0  0  0  0
 23 25  2  0  0  0  0
 23 79  1  0  0  0  0
 24 81  1  0  0  0  0
 25 82  1  0  0  0  0
 26 60  2  0  0  0  0
 27 28  2  0  0  0  0
 27 51  1  0  0  0  0
 27 83  1  0  0  0  0
 28 61  1  0  0  0  0
 28 67  1  0  0  0  0
 29 62  1  0  0  0  0
 29 65  1  0  0  0  0
 30 61  2  0  0  0  0
 30 68  1  0  0  0  0
 30 83  1  0  0  0  0
 31 33  2  0  0  0  0
 31 80  1  0  0  0  0
 32 66  1  0  0  0  0
 32 72  2  0  0  0  0
 33 34  1  0  0  0  0
 33 78  1  0  0  0  0
 34 68  1  0  0  0  0
 34 73  2  0  0  0  0
 35 49  1  0  0  0  0
 35 69  1  0  0  0  0
 35 74  2  0  0  0  0
 36 57  1  0  0  0  0
 36 63  1  0  0  0  0
 36 75  2  0  0  0  0
 37 58  1  0  0  0  0
 37 70  1  0  0  0  0
 37 76  2  0  0  0  0
 38 64  1  0  0  0  0
 38 67  1  0  0  0  0
 38 77  2  0  0  0  0
 39 42  1  0  0  0  0
 40 49  1  0  0  0  0
 41 63  1  0  0  0  0
 42 44  1  0  0  0  0
 43 45  1  0  0  0  0
 43 46  1  0  0  0  0
 44 48  1  0  0  0  0
 45 50  1  0  0  0  0
 46 64  1  0  0  0  0
 47 50  1  0  0  0  0
 47 64  1  0  0  0  0
 48 69  1  0  0  0  0
 49 63  1  0  0  0  0
 50 62  1  0  0  0  0
 52 58  1  0  0  0  0
 53 59  1  0  0  0  0
 54 59  1  0  0  0  0
 55 59  1  0  0  0  0
 56 71  1  0  0  0  0
 57 59  1  0  0  0  0
 57 70  1  0  0  0  0
 58 71  1  0  0  0  0
 60 62  1  0  0  0  0
M  CHG  1  71   1
M  ISO  4  31 101  38 100  67 100  80 101
M  END
> <Batch ID>
0179

> <Smiles>
CNC(C)C(=O)NC(C(=O)N1Cc2cc([101O:1][101CH2:1]C(=O)C(=O)Nc3nc([100NH:0][100C:0](=O)N4CCCC(n5nc(-c6ccc(Oc7ccc(F)cc7F)cc6)c(C(N)=O)c5N)C4)c(C)s3)ccc2CC1C(=O)NC1CCCc2ccccc21)C(C)(C)C

> <Shape>
0.273

> <Color>
0.089

> <Negative vol penalty>
0.000

$$$$

  -OEChem-04052304473D

 86 94  0     1  0  0  0  0  0999 V2000
  -28.2111  -23.8649   17.4279 C   0  0  0  0  0  0  0  0  0  0  0  0
  -27.0003  -24.1502   18.0508 C   0  0  0  0  0  0  0  0  0  0  0  0
  -28.0409  -14.9061   21.2225 C   0  0  0  0  0  0  0  0  0  0  0  0
  -27.0267  -16.8169   22.2982 C   0  0  0  0  0  0  0  0  0  0  0  0
  -29.3990  -24.3773   17.9478 C   0  0  0  0  0  0  0  0  0  0  0  0
  -26.9769  -24.9471   19.1948 C   0  0  0  0  0  0  0  0  0  0  0  0
  -23.3052  -28.4322   19.0598 C   0  0  0  0  0  0  0  0  0  0  0  0
  -29.3046  -15.4562   21.4366 C   0  0  0  0  0  0  0  0  0  0  0  0
  -28.2904  -17.3671   22.5124 C   0  0  0  0  0  0  0  0  0  0  0  0
  -22.0090  -28.0027   19.3412 C   0  0  0  0  0  0  0  0  0  0  0  0
  -31.2281  -19.4456   23.0222 C   0  0  0  0  0  0  0  0  0  0  0  0
  -31.4011  -20.8010   22.7420 C   0  0  0  0  0  0  0  0  0  0  0  0
  -22.2227  -28.8504   21.5895 C   0  0  0  0  0  0  0  0  0  0  0  0
  -30.7867  -20.4034   20.4395 C   0  0  0  0  0  0  0  0  0  0  0  0
  -26.9019  -15.5864   21.6532 C   0  0  0  0  0  0  0  0  0  0  0  0
  -24.8862  -14.1588   22.2909 C   0  0  0  0  0  0  0  0  0  0  0  0
  -29.3891  -25.1888   19.0932 C   0  0  0  0  0  0  0  0  0  0  0  0
  -24.0751  -29.0653   20.0461 C   0  0  0  0  0  0  0  0  0  0  0  0
  -28.1659  -25.4697   19.7314 C   0  0  0  0  0  0  0  0  0  0  0  0
  -23.5275  -29.2892   21.3173 C   0  0  0  0  0  0  0  0  0  0  0  0
  -29.4294  -16.6867   22.0816 C   0  0  0  0  0  0  0  0  0  0  0  0
  -21.4686  -28.2092   20.6070 C   0  0  0  0  0  0  0  0  0  0  0  0
  -30.8345  -18.5690   22.0110 C   0  0  0  0  0  0  0  0  0  0  0  0
  -31.1803  -21.2799   21.4507 C   0  0  0  0  0  0  0  0  0  0  0  0
  -30.6137  -19.0480   20.7197 C   0  0  0  0  0  0  0  0  0  0  0  0
  -25.5961  -15.0189   21.4318 C   0  0  0  0  0  0  0  0  0  0  0  0
  -18.3019  -20.6677   19.7382 C   0  0  0  0  0  0  0  0  0  0  0  0
  -17.7879  -20.1483   18.5685 C   0  0  0  0  0  0  0  0  0  0  0  0
  -23.7091  -13.9075   21.6293 C   0  0  0  0  0  0  0  0  0  0  0  0
  -19.5402  -18.8443   18.7663 C   0  0  0  0  0  0  0  0  0  0  0  0
  -25.2576  -13.6339   23.5724 C   0  0  0  0  0  0  0  0  0  0  0  0
  -17.7326  -21.7820   20.5233 C   0  0  0  0  0  0  0  0  0  0  0  0
  -19.1599  -25.1268   21.4873 C   0  0  0  0  0  0  0  0  0  0  0  0
  -18.1041  -24.0511   21.4415 C   0  0  0  0  0  0  0  0  0  0  0  0
  -26.8163  -28.4102   21.5160 C   0  0  0  0  0  0  0  0  0  0  0  0
  -26.3832  -31.3583   22.7980 C   0  0  0  0  0  0  0  0  0  0  0  0
  -24.2217  -33.8581   23.6501 C   0  0  0  0  0  0  0  0  0  0  0  0
  -20.6114  -16.9381   17.5153 C   0  0  0  0  0  0  0  0  0  0  0  0
  -30.7034  -25.6808   19.6457 C   0  0  0  0  0  0  0  0  0  0  0  0
  -25.4621  -29.5466   19.7186 C   0  0  0  0  0  0  0  0  0  0  0  0
  -24.3053  -29.9822   22.4051 C   0  0  0  0  0  0  0  0  0  0  0  0
  -30.5540  -26.8252   20.6449 C   0  0  0  0  0  0  0  0  0  0  0  0
  -21.8828  -13.6263   17.2112 C   0  0  0  0  0  0  0  0  0  0  0  0
  -29.4544  -26.5120   21.6547 C   0  0  0  0  0  0  0  0  0  0  0  0
  -22.9104  -13.5273   18.3410 C   0  0  0  0  0  0  0  0  0  0  0  0
  -21.8724  -15.0148   16.5742 C   0  0  0  0  0  0  0  0  0  0  0  0
  -22.7354  -16.0299   18.6463 C   0  0  0  0  0  0  0  0  0  0  0  0
  -28.0969  -26.3507   20.9599 C   0  0  1  0  0  0  0  0  0  0  0  0
  -26.3414  -29.7199   20.9532 C   0  0  1  0  0  0  0  0  0  0  0  0
  -22.7374  -14.6691   19.3618 C   0  0  2  0  0  0  0  0  0  0  0  0
  -24.1580  -36.1289   24.7163 C   0  0  0  0  0  0  0  0  0  0  0  0
  -26.7125  -30.0744   25.5463 C   0  0  0  0  0  0  0  0  0  0  0  0
  -25.7148  -32.1383   26.5529 C   0  0  0  0  0  0  0  0  0  0  0  0
  -27.8567  -32.2825   25.2825 C   0  0  0  0  0  0  0  0  0  0  0  0
  -23.1519  -35.1103   21.1912 C   0  0  0  0  0  0  0  0  0  0  0  0
  -18.8036  -26.3856   22.2483 C   0  0  0  0  0  0  0  0  0  0  0  0
  -19.9258  -27.4127   22.2323 C   0  0  0  0  0  0  0  0  0  1  0  0
  -25.6953  -31.8985   24.0284 C   0  0  1  0  0  0  0  0  0  0  0  0
  -24.2699  -35.3564   23.4111 C   0  0  2  0  0  0  0  0  0  0  0  0
  -26.4806  -31.5836   25.3328 C   0  0  0  0  0  0  0  0  0  0  0  0
  -24.9260  -15.2954   20.3100 N   0  0  0  0  0  0  0  0  0  0  0  0
  -18.4969  -19.1030   18.0095 N   0  0  0  0  0  0  0  0  0  0  0  0
  -23.7827  -14.6050   20.4596 N   0  0  0  0  0  0  0  0  0  0  0  0
  -25.6594  -30.4287   22.0379 N   0  0  0  0  0  0  0  0  0  0  0  0
  -21.7005  -16.0452   17.6006 N   0  0  0  0  0  0  0  0  0  0  0  0
  -16.6614  -20.6024   17.9678 N   0  0  0  0  0  0  0  0  0  0  0  0
  -22.6286  -13.1602   21.9398 N   0  0  0  0  0  0  0  0  0  0  0  0
  -26.5027  -13.9933   24.1063 N   0  0  0  0  0  0  0  0  0  0  0  0
  -20.5324  -17.8530   18.5647 N   0  0  0  0  0  0  0  0  0  0  0  0
  -18.4861  -22.8741   20.7098 N   0  0  0  0  0  0  0  0  0  0  0  0
  -27.5439  -27.6453   20.6244 N   0  0  0  0  0  0  0  0  0  0  0  0
  -25.4846  -33.3217   23.7866 N   0  0  0  0  0  0  0  0  0  0  0  0
  -16.4987  -21.6363   21.0052 N   0  3  0  0  0  0  0  0  0  0  0  0
  -23.1514  -35.7750   22.5197 N   0  3  0  0  0  0  0  0  0  0  0  0
  -24.5145  -12.8559   24.2174 O   0  0  0  0  0  0  0  0  0  0  0  0
  -20.2202  -24.9184   20.9165 O   0  0  0  0  0  0  0  0  0  0  0  0
  -17.0246  -24.1880   21.9867 O   0  0  0  0  0  0  0  0  0  0  0  0
  -26.5440  -28.1160   22.6741 O   0  0  0  0  0  0  0  0  0  0  0  0
  -27.5180  -31.7522   22.5176 O   0  0  0  0  0  0  0  0  0  0  0  0
  -23.1688  -33.2272   23.7133 O   0  0  0  0  0  0  0  0  0  0  0  0
  -19.7926  -16.8768   16.5946 O   0  0  0  0  0  0  0  0  0  0  0  0
  -30.6624  -17.2238   22.2909 O   0  0  0  0  0  0  0  0  0  0  0  0
  -20.2039  -27.7904   20.8845 O   0  0  0  0  0  0  0  0  0  1  0  0
  -31.3450  -22.5818   21.1821 F   0  0  0  0  0  0  0  0  0  0  0  0
  -30.2343  -18.2110   19.7444 F   0  0  0  0  0  0  0  0  0  0  0  0
  -19.7297  -19.8192   20.1659 S   0  0  0  0  0  0  0  0  0  0  0  0
  1  2  1  0  0  0  0
  1  5  2  0  0  0  0
  2  6  2  0  0  0  0
  3  8  2  0  0  0  0
  3 15  1  0  0  0  0
  4  9  1  0  0  0  0
  4 15  2  0  0  0  0
  5 17  1  0  0  0  0
  6 19  1  0  0  0  0
  7 10  2  0  0  0  0
  7 18  1  0  0  0  0
  8 21  1  0  0  0  0
  9 21  2  0  0  0  0
 10 22  1  0  0  0  0
 11 12  2  0  0  0  0
 11 23  1  0  0  0  0
 12 24  1  0  0  0  0
 13 20  1  0  0  0  0
 13 22  2  0  0  0  0
 14 24  2  0  0  0  0
 14 25  1  0  0  0  0
 15 26  1  0  0  0  0
 16 26  1  0  0  0  0
 16 29  2  0  0  0  0
 16 31  1  0  0  0  0
 17 19  2  0  0  0  0
 17 39  1  0  0  0  0
 18 20  2  0  0  0  0
 18 40  1  0  0  0  0
 19 48  1  0  0  0  0
 20 41  1  0  0  0  0
 21 82  1  0  0  0  0
 22 83  1  0  0  0  0
 23 25  2  0  0  0  0
 23 82  1  0  0  0  0
 24 84  1  0  0  0  0
 25 85  1  0  0  0  0
 26 61  2  0  0  0  0
 27 28  2  0  0  0  0
 27 32  1  0  0  0  0
 27 86  1  0  0  0  0
 28 62  1  0  0  0  0
 28 66  1  0  0  0  0
 29 63  1  0  0  0  0
 29 67  1  0  0  0  0
 30 62  2  0  0  0  0
 30 69  1  0  0  0  0
 30 86  1  0  0  0  0
 31 68  1  0  0  0  0
 31 75  2  0  0  0  0
 32 70  1  0  0  0  0
 32 73  2  0  0  0  0
 33 34  1  0  0  0  0
 33 56  1  0  0  0  0
 33 76  2  0  0  0  0
 34 70  1  0  0  0  0
 34 77  2  0  0  0  0
 35 49  1  0  0  0  0
 35 71  1  0  0  0  0
 35 78  2  0  0  0  0
 36 58  1  0  0  0  0
 36 64  1  0  0  0  0
 36 79  2  0  0  0  0
 37 59  1  0  0  0  0
 37 72  1  0  0  0  0
 37 80  2  0  0  0  0
 38 65  1  0  0  0  0
 38 69  1  0  0  0  0
 38 81  2  0  0  0  0
 39 42  1  0  0  0  0
 40 49  1  0  0  0  0
 41 64  1  0  0  0  0
 42 44  1  0  0  0  0
 43 45  1  0  0  0  0
 43 46  1  0  0  0  0
 44 48  1  0  0  0  0
 45 50  1  0  0  0  0
 46 65  1  0  0  0  0
 47 50  1  0  0  0  0
 47 65  1  0  0  0  0
 48 71  1  0  0  0  0
 49 64  1  0  0  0  0
 50 63  1  0  0  0  0
 51 59  1  0  0  0  0
 52 60  1  0  0  0  0
 53 60  1  0  0  0  0
 54 60  1  0  0  0  0
 55 74  1  0  0  0  0
 56 57  1  0  0  0  0
 57 83  1  0  0  0  0
 58 60  1  0  0  0  0
 58 72  1  0  0  0  0
 59 74  1  0  0  0  0
 61 63  1  0  0  0  0
M  CHG  2  73   1  74   1
M  ISO  4  38 100  57 101  69 100  83 101
M  END
> <Batch ID>
0179

> <Smiles>
CNC(C)C(=O)NC(C(=O)N1Cc2cc([101O:1][101CH2:1]CC(=O)C(=O)NC(=N)c3sc([100NH:0][100C:0](=O)N4CCCC(n5nc(-c6ccc(Oc7ccc(F)cc7F)cc6)c(C(N)=O)c5N)C4)nc3N)ccc2CC1C(=O)NC1CCCc2ccccc21)C(C)(C)C

> <Shape>
0.262

> <Color>
0.071

> <Negative vol penalty>
0.000

$$$$

  -OEChem-04052304473D

 85 93  0     1  0  0  0  0  0999 V2000
  -27.5559  -34.8767   23.8350 C   0  0  0  0  0  0  0  0  0  0  0  0
  -28.3494  -33.8750   23.2851 C   0  0  0  0  0  0  0  0  0  0  0  0
  -24.6381   -8.9085   21.3903 C   0  0  0  0  0  0  0  0  0  0  0  0
  -22.9389  -10.6252   21.4416 C   0  0  0  0  0  0  0  0  0  0  0  0
  -26.3170  -34.5576   24.3893 C   0  0  0  0  0  0  0  0  0  0  0  0
  -27.9048  -32.5533   23.2902 C   0  0  0  0  0  0  0  0  0  0  0  0
  -28.9196  -28.3111   18.9914 C   0  0  0  0  0  0  0  0  0  0  0  0
  -24.3797  -19.8685   20.2882 C   0  0  0  0  0  0  0  0  0  0  0  0
  -23.9248   -8.1741   22.3376 C   0  0  0  0  0  0  0  0  0  0  0  0
  -22.2256   -9.8908   22.3889 C   0  0  0  0  0  0  0  0  0  0  0  0
  -29.8467  -27.2741   18.8973 C   0  0  0  0  0  0  0  0  0  0  0  0
  -22.3713   -5.6773   24.4748 C   0  0  0  0  0  0  0  0  0  0  0  0
  -22.2240   -4.3075   24.2568 C   0  0  0  0  0  0  0  0  0  0  0  0
  -24.8760  -18.5705   20.3329 C   0  0  0  0  0  0  0  0  0  0  0  0
  -28.2058  -25.7360   19.7697 C   0  0  0  0  0  0  0  0  0  0  0  0
  -21.0826   -4.7614   22.1763 C   0  0  0  0  0  0  0  0  0  0  0  0
  -24.1452  -10.1341   20.9423 C   0  0  0  0  0  0  0  0  0  0  0  0
  -24.7629  -10.8178   18.5635 C   0  0  0  0  0  0  0  0  0  0  0  0
  -25.8528  -33.2328   24.3926 C   0  0  0  0  0  0  0  0  0  0  0  0
  -27.6299  -28.0701   19.4864 C   0  0  0  0  0  0  0  0  0  0  0  0
  -26.6592  -32.2160   23.8463 C   0  0  0  0  0  0  0  0  0  0  0  0
  -27.2633  -26.7712   19.8666 C   0  0  0  0  0  0  0  0  0  0  0  0
  -25.2612  -20.9437   20.2687 C   0  0  0  0  0  0  0  0  0  0  0  0
  -22.7185   -8.6652   22.8369 C   0  0  0  0  0  0  0  0  0  0  0  0
  -29.4908  -25.9869   19.2892 C   0  0  0  0  0  0  0  0  0  0  0  0
  -21.8743   -6.5892   23.5436 C   0  0  0  0  0  0  0  0  0  0  0  0
  -21.5796   -3.8495   23.1076 C   0  0  0  0  0  0  0  0  0  0  0  0
  -21.2299   -6.1312   22.3944 C   0  0  0  0  0  0  0  0  0  0  0  0
  -24.8819  -10.8934   19.9641 C   0  0  0  0  0  0  0  0  0  0  0  0
  -26.2511  -18.4024   20.3565 C   0  0  0  0  0  0  0  0  0  0  0  0
  -26.6191  -20.6693   20.2954 C   0  0  0  0  0  0  0  0  0  0  0  0
  -25.6720  -11.7328   18.0917 C   0  0  0  0  0  0  0  0  0  0  0  0
  -23.9069   -9.9940   17.7607 C   0  0  0  0  0  0  0  0  0  0  0  0
  -29.5466  -23.0377   20.3058 C   0  0  0  0  0  0  0  0  0  0  0  0
  -28.9049  -21.6784   20.2970 C   0  0  0  0  0  0  0  0  0  0  0  0
  -25.9563  -29.1034   21.9834 C   0  0  0  0  0  0  0  0  0  0  0  0
  -23.5627  -27.4226   20.5804 C   0  0  0  0  0  0  0  0  0  0  0  0
  -22.6423  -24.8924   18.4834 C   0  0  0  0  0  0  0  0  0  0  0  0
  -28.0818  -16.6735   20.4341 C   0  0  0  0  0  0  0  0  0  0  0  0
  -24.5276  -32.9295   25.0457 C   0  0  0  0  0  0  0  0  0  0  0  0
  -26.6330  -29.1942   19.5565 C   0  0  0  0  0  0  0  0  0  0  0  0
  -25.8850  -26.4560   20.3857 C   0  0  0  0  0  0  0  0  0  0  0  0
  -23.9652  -31.5597   24.6749 C   0  0  0  0  0  0  0  0  0  0  0  0
  -29.8309  -13.8125   19.2374 C   0  0  0  0  0  0  0  0  0  0  0  0
  -25.0484  -30.4910   24.7820 C   0  0  0  0  0  0  0  0  0  0  0  0
  -28.7482  -12.7340   19.1547 C   0  0  0  0  0  0  0  0  0  0  0  0
  -29.6282  -14.7284   20.4432 C   0  0  0  0  0  0  0  0  0  0  0  0
  -27.2109  -14.2536   20.4640 C   0  0  0  0  0  0  0  0  0  0  0  0
  -26.2008  -30.7742   23.8108 C   0  0  1  0  0  0  0  0  0  0  0  0
  -25.5113  -28.9366   20.5580 C   0  0  1  0  0  0  0  0  0  0  0  0
  -27.3358  -13.3465   19.2290 C   0  0  2  0  0  0  0  0  0  0  0  0
  -30.8999  -22.8503   18.1881 C   0  0  0  0  0  0  0  0  0  0  0  0
  -20.6142  -23.7340   17.5654 C   0  0  0  0  0  0  0  0  0  0  0  0
  -23.1858  -25.9785   23.2417 C   0  0  0  0  0  0  0  0  0  0  0  0
  -21.8584  -24.2363   22.0287 C   0  0  0  0  0  0  0  0  0  0  0  0
  -21.0592  -26.5988   22.0810 C   0  0  0  0  0  0  0  0  0  0  0  0
  -23.3430  -25.6198   15.7016 C   0  0  0  0  0  0  0  0  0  0  0  0
  -29.8786  -23.6629   18.9658 C   0  0  2  0  0  0  0  0  0  1  0  0
  -23.0646  -25.9999   20.6627 C   0  0  1  0  0  0  0  0  0  0  0  0
  -21.6350  -24.8404   17.3489 C   0  0  2  0  0  0  0  0  0  0  0  0
  -22.3187  -25.7094   21.9956 C   0  0  0  0  0  0  0  0  0  0  0  0
  -25.7948  -11.7860   20.3566 N   0  0  0  0  0  0  0  0  0  0  0  0
  -27.1387  -19.4220   20.3388 N   0  0  0  0  0  0  0  0  0  0  0  0
  -26.2577  -12.2795   19.1954 N   0  0  0  0  0  0  0  0  0  0  0  0
  -24.9478  -27.5900   20.4414 N   0  0  0  0  0  0  0  0  0  0  0  0
  -28.2695  -15.2752   20.4451 N   0  0  0  0  0  0  0  0  0  0  0  0
  -24.7606  -22.2584   20.2251 N   0  0  0  0  0  0  0  0  0  0  0  0
  -26.0195  -12.1151   16.8445 N   0  0  0  0  0  0  0  0  0  0  0  0
  -23.0333   -9.1089   18.4070 N   0  0  0  0  0  0  0  0  0  0  0  0
  -27.5287  -21.7523   20.2759 N   0  0  0  0  0  0  0  0  0  0  0  0
  -26.7470  -17.0759   20.4039 N   0  0  0  0  0  0  0  0  0  0  0  0
  -25.8321  -30.3929   22.4643 N   0  0  0  0  0  0  0  0  0  0  0  0
  -22.2588  -25.7797   19.4667 N   0  0  0  0  0  0  0  0  0  0  0  0
  -22.3273  -24.5941   16.0524 N   0  3  0  0  0  0  0  0  0  0  0  0
  -23.9282  -10.0296   16.5069 O   0  0  0  0  0  0  0  0  0  0  0  0
  -29.7436  -23.5527   21.3974 O   0  0  0  0  0  0  0  0  0  0  0  0
  -29.6575  -20.7190   20.3355 O   0  0  0  0  0  0  0  0  0  0  0  0
  -26.3794  -28.1337   22.6017 O   0  0  0  0  0  0  0  0  0  0  0  0
  -22.7520  -28.3510   20.6302 O   0  0  0  0  0  0  0  0  0  0  0  0
  -23.6650  -24.2109   18.4979 O   0  0  0  0  0  0  0  0  0  0  0  0
  -29.0354  -17.4563   20.4228 O   0  0  0  0  0  0  0  0  0  0  0  0
  -22.0220   -7.9488   23.7611 O   0  0  0  0  0  0  0  0  0  0  0  0
  -30.3940  -24.9730   19.1990 O   0  0  0  0  0  0  0  0  0  1  0  0
  -21.4395   -2.5341   22.8976 F   0  0  0  0  0  0  0  0  0  0  0  0
  -20.7514   -7.0024   21.4956 F   0  0  0  0  0  0  0  0  0  0  0  0
  1  2  1  0  0  0  0
  1  5  2  0  0  0  0
  2  6  2  0  0  0  0
  3  9  2  0  0  0  0
  3 17  1  0  0  0  0
  4 10  1  0  0  0  0
  4 17  2  0  0  0  0
  5 19  1  0  0  0  0
  6 21  1  0  0  0  0
  7 11  2  0  0  0  0
  7 20  1  0  0  0  0
  8 14  2  0  0  0  0
  8 23  1  0  0  0  0
  9 24  1  0  0  0  0
 10 24  2  0  0  0  0
 11 25  1  0  0  0  0
 12 13  2  0  0  0  0
 12 26  1  0  0  0  0
 13 27  1  0  0  0  0
 14 30  1  0  0  0  0
 15 22  1  0  0  0  0
 15 25  2  0  0  0  0
 16 27  2  0  0  0  0
 16 28  1  0  0  0  0
 17 29  1  0  0  0  0
 18 29  1  0  0  0  0
 18 32  2  0  0  0  0
 18 33  1  0  0  0  0
 19 21  2  0  0  0  0
 19 40  1  0  0  0  0
 20 22  2  0  0  0  0
 20 41  1  0  0  0  0
 21 49  1  0  0  0  0
 22 42  1  0  0  0  0
 23 31  2  0  0  0  0
 23 67  1  0  0  0  0
 24 82  1  0  0  0  0
 25 83  1  0  0  0  0
 26 28  2  0  0  0  0
 26 82  1  0  0  0  0
 27 84  1  0  0  0  0
 28 85  1  0  0  0  0
 29 62  2  0  0  0  0
 30 63  2  0  0  0  0
 30 71  1  0  0  0  0
 31 63  1  0  0  0  0
 31 70  1  0  0  0  0
 32 64  1  0  0  0  0
 32 68  1  0  0  0  0
 33 69  1  0  0  0  0
 33 75  2  0  0  0  0
 34 35  1  0  0  0  0
 34 58  1  0  0  0  0
 34 76  2  0  0  0  0
 35 70  1  0  0  0  0
 35 77  2  0  0  0  0
 36 50  1  0  0  0  0
 36 72  1  0  0  0  0
 36 78  2  0  0  0  0
 37 59  1  0  0  0  0
 37 65  1  0  0  0  0
 37 79  2  0  0  0  0
 38 60  1  0  0  0  0
 38 73  1  0  0  0  0
 38 80  2  0  0  0  0
 39 66  1  0  0  0  0
 39 71  1  0  0  0  0
 39 81  2  0  0  0  0
 40 43  1  0  0  0  0
 41 50  1  0  0  0  0
 42 65  1  0  0  0  0
 43 45  1  0  0  0  0
 44 46  1  0  0  0  0
 44 47  1  0  0  0  0
 45 49  1  0  0  0  0
 46 51  1  0  0  0  0
 47 66  1  0  0  0  0
 48 51  1  0  0  0  0
 48 66  1  0  0  0  0
 49 72  1  0  0  0  0
 50 65  1  0  0  0  0
 51 64  1  0  0  0  0
 52 58  1  0  0  0  0
 53 60  1  0  0  0  0
 54 61  1  0  0  0  0
 55 61  1  0  0  0  0
 56 61  1  0  0  0  0
 57 74  1  0  0  0  0
 58 83  1  0  0  0  0
 59 61  1  0  0  0  0
 59 73  1  0  0  0  0
 60 74  1  0  0  0  0
 62 64  1  0  0  0  0
M  CHG  1  74   1
M  ISO  4  39 100  58 101  71 100  83 101
M  END
> <Batch ID>
0179

> <Smiles>
CNC(C)C(=O)NC(C(=O)N1Cc2cc([101O:1][101CH:1](C)C(=O)C(=O)Nc3nc([100NH:0][100C:0](=O)N4CCCC(n5nc(-c6ccc(Oc7ccc(F)cc7F)cc6)c(C(N)=O)c5N)C4)ccc3N)ccc2CC1C(=O)NC1CCCc2ccccc21)C(C)(C)C

> <Shape>
0.300

> <Color>
0.090

> <Negative vol penalty>
0.000

$$$$

  -OEChem-04052304473D

 86 94  0     1  0  0  0  0  0999 V2000
  -43.0663  -24.4874   13.6452 C   0  0  0  0  0  0  0  0  0  0  0  0
  -43.1078  -23.9884   14.9432 C   0  0  0  0  0  0  0  0  0  0  0  0
  -23.0758   -9.8646   19.9427 C   0  0  0  0  0  0  0  0  0  0  0  0
  -23.8351   -9.8757   22.2362 C   0  0  0  0  0  0  0  0  0  0  0  0
  -42.4496  -25.7114   13.3896 C   0  0  0  0  0  0  0  0  0  0  0  0
  -42.5335  -24.7138   15.9865 C   0  0  0  0  0  0  0  0  0  0  0  0
  -37.0566  -22.5870   21.1350 C   0  0  0  0  0  0  0  0  0  0  0  0
  -22.3326   -8.7113   20.1943 C   0  0  0  0  0  0  0  0  0  0  0  0
  -23.0919   -8.7225   22.4879 C   0  0  0  0  0  0  0  0  0  0  0  0
  -35.9820  -22.3799   22.0001 C   0  0  0  0  0  0  0  0  0  0  0  0
  -19.8641   -7.9236   23.0910 C   0  0  0  0  0  0  0  0  0  0  0  0
  -19.1070   -7.8850   24.2617 C   0  0  0  0  0  0  0  0  0  0  0  0
  -35.5430  -24.7576   22.0412 C   0  0  0  0  0  0  0  0  0  0  0  0
  -20.3494   -5.9495   25.0016 C   0  0  0  0  0  0  0  0  0  0  0  0
  -23.8271  -10.4467   20.9636 C   0  0  0  0  0  0  0  0  0  0  0  0
  -24.1673  -12.9719   20.8396 C   0  0  0  0  0  0  0  0  0  0  0  0
  -41.8589  -26.4475   14.4288 C   0  0  0  0  0  0  0  0  0  0  0  0
  -37.3694  -23.8802   20.7071 C   0  0  0  0  0  0  0  0  0  0  0  0
  -41.9095  -25.9494   15.7447 C   0  0  0  0  0  0  0  0  0  0  0  0
  -36.6106  -24.9699   21.1649 C   0  0  0  0  0  0  0  0  0  0  0  0
  -22.3406   -8.1403   21.4669 C   0  0  0  0  0  0  0  0  0  0  0  0
  -35.2272  -23.4626   22.4523 C   0  0  0  0  0  0  0  0  0  0  0  0
  -20.8639   -6.9750   22.8754 C   0  0  0  0  0  0  0  0  0  0  0  0
  -19.3496   -6.8980   25.2171 C   0  0  0  0  0  0  0  0  0  0  0  0
  -21.1066   -5.9881   23.8307 C   0  0  0  0  0  0  0  0  0  0  0  0
  -24.5955  -11.6377   20.7042 C   0  0  0  0  0  0  0  0  0  0  0  0
  -30.7030  -19.1017   22.9794 C   0  0  0  0  0  0  0  0  0  0  0  0
  -31.8054  -18.7325   22.2374 C   0  0  0  0  0  0  0  0  0  0  0  0
  -25.2591  -13.7215   20.4754 C   0  0  0  0  0  0  0  0  0  0  0  0
  -30.5684  -16.9537   21.8975 C   0  0  0  0  0  0  0  0  0  0  0  0
  -32.9451  -23.0370   22.7413 C   0  0  0  0  0  0  0  0  0  1  0  0
  -22.8964  -13.4876   21.2574 C   0  0  0  0  0  0  0  0  0  0  0  0
  -31.8439  -22.8201   23.4695 C   0  0  0  0  0  0  0  0  0  0  0  0
  -30.5538  -22.6298   22.7468 C   0  0  0  0  0  0  0  0  0  0  0  0
  -39.5979  -26.0654   18.6250 C   0  0  0  0  0  0  0  0  0  0  0  0
  -36.7433  -27.1424   18.3057 C   0  0  0  0  0  0  0  0  0  0  0  0
  -33.4134  -27.7547   17.8883 C   0  0  0  0  0  0  0  0  0  0  0  0
  -30.7246  -14.7708   20.6497 C   0  0  0  0  0  0  0  0  0  0  0  0
  -41.2453  -27.7881   14.1110 C   0  0  0  0  0  0  0  0  0  0  0  0
  -38.5561  -24.1567   19.8244 C   0  0  0  0  0  0  0  0  0  0  0  0
  -37.0051  -26.3470   20.7056 C   0  0  0  0  0  0  0  0  0  0  0  0
  -40.3315  -28.3165   15.2138 C   0  0  0  0  0  0  0  0  0  0  0  0
  -29.6122  -12.3526   18.2849 C   0  0  0  0  0  0  0  0  0  0  0  0
  -40.9996  -28.1686   16.5771 C   0  0  0  0  0  0  0  0  0  0  0  0
  -28.1727  -12.0608   18.7146 C   0  0  0  0  0  0  0  0  0  0  0  0
  -30.5269  -12.5838   19.4864 C   0  0  0  0  0  0  0  0  0  0  0  0
  -28.6192  -13.3092   20.8662 C   0  0  0  0  0  0  0  0  0  0  0  0
  -41.2759  -26.6950   16.8992 C   0  0  1  0  0  0  0  0  0  0  0  0
  -38.3172  -25.3127   18.8366 C   0  0  1  0  0  0  0  0  0  0  0  0
  -27.6468  -13.1336   19.6884 C   0  0  2  0  0  0  0  0  0  0  0  0
  -29.5283  -20.1035   24.9815 C   0  0  0  0  0  0  0  0  0  0  0  0
  -31.8274  -29.2909   16.6959 C   0  0  0  0  0  0  0  0  0  0  0  0
  -37.3734  -29.3477   20.3166 C   0  0  0  0  0  0  0  0  0  0  0  0
  -35.1926  -30.4207   19.7160 C   0  0  0  0  0  0  0  0  0  0  0  0
  -36.9659  -30.1487   17.9827 C   0  0  0  0  0  0  0  0  0  0  0  0
  -28.6054  -21.1199   22.3128 C   0  0  0  0  0  0  0  0  0  0  0  0
  -32.1827  -25.5147   16.3961 C   0  0  0  0  0  0  0  0  0  0  0  0
  -30.4371  -20.3578   23.7807 C   0  0  2  0  0  0  0  0  0  0  0  0
  -35.6972  -28.1154   18.7876 C   0  0  1  0  0  0  0  0  0  0  0  0
  -32.5772  -27.9690   16.6396 C   0  0  2  0  0  0  0  0  0  0  0  0
  -36.3081  -29.4813   19.2101 C   0  0  0  0  0  0  0  0  0  0  0  0
  -25.8605  -11.5420   20.2863 N   0  0  0  0  0  0  0  0  0  0  0  0
  -31.7302  -17.5009   21.6166 N   0  0  0  0  0  0  0  0  0  0  0  0
  -26.2366  -12.8256   20.1560 N   0  0  0  0  0  0  0  0  0  0  0  0
  -37.3378  -26.3225   19.2726 N   0  0  0  0  0  0  0  0  0  0  0  0
  -29.9671  -13.6157   20.3621 N   0  0  0  0  0  0  0  0  0  0  0  0
  -32.9128  -19.5006   22.1032 N   0  0  0  0  0  0  0  0  0  0  0  0
  -25.4687  -15.0530   20.4003 N   0  0  0  0  0  0  0  0  0  0  0  0
  -21.8850  -12.5783   21.5959 N   0  0  0  0  0  0  0  0  0  0  0  0
  -30.0765  -15.6967   21.4666 N   0  0  0  0  0  0  0  0  0  0  0  0
  -40.0605  -26.0338   17.3232 N   0  0  0  0  0  0  0  0  0  0  0  0
  -34.7048  -28.2086   17.7223 N   0  0  0  0  0  0  0  0  0  0  0  0
  -29.8920  -21.4158   22.9401 N   0  0  0  0  0  0  0  0  0  0  0  0
  -31.5819  -26.8703   16.4878 N   0  3  0  0  0  0  0  0  0  0  0  0
  -22.6594  -14.7181   21.3128 O   0  0  0  0  0  0  0  0  0  0  0  0
  -30.1249  -23.5474   22.0441 O   0  0  0  0  0  0  0  0  0  0  0  0
  -40.1276  -26.6347   19.5720 O   0  0  0  0  0  0  0  0  0  0  0  0
  -37.0316  -27.1119   17.1060 O   0  0  0  0  0  0  0  0  0  0  0  0
  -32.9648  -27.2397   18.9101 O   0  0  0  0  0  0  0  0  0  0  0  0
  -31.8537  -14.9395   20.1821 O   0  0  0  0  0  0  0  0  0  0  0  0
  -31.8349  -22.8205   24.8464 O   0  0  0  0  0  0  0  0  0  0  0  0
  -21.6153   -7.0151   21.7129 O   0  0  0  0  0  0  0  0  0  0  0  0
  -34.1766  -23.2528   23.2931 O   0  0  0  0  0  0  0  0  0  1  0  0
  -18.6234   -6.8621   26.3420 F   0  0  0  0  0  0  0  0  0  0  0  0
  -22.0666   -5.0749   23.6298 F   0  0  0  0  0  0  0  0  0  0  0  0
  -29.5172  -17.8650   22.9022 S   0  0  0  0  0  0  0  0  0  0  0  0
  1  2  1  0  0  0  0
  1  5  2  0  0  0  0
  2  6  2  0  0  0  0
  3  8  2  0  0  0  0
  3 15  1  0  0  0  0
  4  9  1  0  0  0  0
  4 15  2  0  0  0  0
  5 17  1  0  0  0  0
  6 19  1  0  0  0  0
  7 10  2  0  0  0  0
  7 18  1  0  0  0  0
  8 21  1  0  0  0  0
  9 21  2  0  0  0  0
 10 22  1  0  0  0  0
 11 12  2  0  0  0  0
 11 23  1  0  0  0  0
 12 24  1  0  0  0  0
 13 20  1  0  0  0  0
 13 22  2  0  0  0  0
 14 24  2  0  0  0  0
 14 25  1  0  0  0  0
 15 26  1  0  0  0  0
 16 26  1  0  0  0  0
 16 29  2  0  0  0  0
 16 32  1  0  0  0  0
 17 19  2  0  0  0  0
 17 39  1  0  0  0  0
 18 20  2  0  0  0  0
 18 40  1  0  0  0  0
 19 48  1  0  0  0  0
 20 41  1  0  0  0  0
 21 82  1  0  0  0  0
 22 83  1  0  0  0  0
 23 25  2  0  0  0  0
 23 82  1  0  0  0  0
 24 84  1  0  0  0  0
 25 85  1  0  0  0  0
 26 62  2  0  0  0  0
 27 28  2  0  0  0  0
 27 58  1  0  0  0  0
 27 86  1  0  0  0  0
 28 63  1  0  0  0  0
 28 67  1  0  0  0  0
 29 64  1  0  0  0  0
 29 68  1  0  0  0  0
 30 63  2  0  0  0  0
 30 70  1  0  0  0  0
 30 86  1  0  0  0  0
 31 33  2  0  0  0  0
 31 83  1  0  0  0  0
 32 69  1  0  0  0  0
 32 75  2  0  0  0  0
 33 34  1  0  0  0  0
 33 81  1  0  0  0  0
 34 73  1  0  0  0  0
 34 76  2  0  0  0  0
 35 49  1  0  0  0  0
 35 71  1  0  0  0  0
 35 77  2  0  0  0  0
 36 59  1  0  0  0  0
 36 65  1  0  0  0  0
 36 78  2  0  0  0  0
 37 60  1  0  0  0  0
 37 72  1  0  0  0  0
 37 79  2  0  0  0  0
 38 66  1  0  0  0  0
 38 70  1  0  0  0  0
 38 80  2  0  0  0  0
 39 42  1  0  0  0  0
 40 49  1  0  0  0  0
 41 65  1  0  0  0  0
 42 44  1  0  0  0  0
 43 45  1  0  0  0  0
 43 46  1  0  0  0  0
 44 48  1  0  0  0  0
 45 50  1  0  0  0  0
 46 66  1  0  0  0  0
 47 50  1  0  0  0  0
 47 66  1  0  0  0  0
 48 71  1  0  0  0  0
 49 65  1  0  0  0  0
 50 64  1  0  0  0  0
 51 58  1  0  0  0  0
 52 60  1  0  0  0  0
 53 61  1  0  0  0  0
 54 61  1  0  0  0  0
 55 61  1  0  0  0  0
 56 73  1  0  0  0  0
 57 74  1  0  0  0  0
 58 73  1  0  0  0  0
 59 61  1  0  0  0  0
 59 72  1  0  0  0  0
 60 74  1  0  0  0  0
 62 64  1  0  0  0  0
M  CHG  1  74   1
M  ISO  4  31 101  38 100  70 100  83 101
M  END
> <Batch ID>
0179

> <Smiles>
CNC(C)C(=O)NC(C(=O)N1Cc2cc([101O:1][101CH2:1]C(=O)C(=O)N(C)C(C)c3sc([100NH:0][100C:0](=O)N4CCCC(n5nc(-c6ccc(Oc7ccc(F)cc7F)cc6)c(C(N)=O)c5N)C4)nc3N)ccc2CC1C(=O)NC1CCCc2ccccc21)C(C)(C)C

> <Shape>
0.176

> <Color>
0.180

> <Negative vol penalty>
0.000

$$$$

  -OEChem-04052304473D

 83 91  0     1  0  0  0  0  0999 V2000
  -21.5095  -31.2854   14.5877 C   0  0  0  0  0  0  0  0  0  0  0  0
  -22.7353  -30.8401   15.0720 C   0  0  0  0  0  0  0  0  0  0  0  0
  -26.8368  -11.5830   21.0741 C   0  0  0  0  0  0  0  0  0  0  0  0
  -26.4673  -12.3960   18.8292 C   0  0  0  0  0  0  0  0  0  0  0  0
  -20.8142  -32.2847   15.2673 C   0  0  0  0  0  0  0  0  0  0  0  0
  -23.2670  -31.3946   16.2357 C   0  0  0  0  0  0  0  0  0  0  0  0
  -25.1171  -27.8897   19.3882 C   0  0  0  0  0  0  0  0  0  0  0  0
  -25.7214  -10.7537   20.9573 C   0  0  0  0  0  0  0  0  0  0  0  0
  -25.3519  -11.5666   18.7124 C   0  0  0  0  0  0  0  0  0  0  0  0
  -26.3669  -27.3535   19.0813 C   0  0  0  0  0  0  0  0  0  0  0  0
  -24.7314   -8.2996   18.1110 C   0  0  0  0  0  0  0  0  0  0  0  0
  -24.5886   -7.5704   16.9306 C   0  0  0  0  0  0  0  0  0  0  0  0
  -27.3872  -28.8187   20.7034 C   0  0  0  0  0  0  0  0  0  0  0  0
  -22.4775   -8.6667   16.5085 C   0  0  0  0  0  0  0  0  0  0  0  0
  -28.3363  -20.3075   16.7166 C   0  0  0  0  0  0  0  0  0  0  0  0
  -27.2097  -12.4043   20.0100 C   0  0  0  0  0  0  0  0  0  0  0  0
  -29.6930  -12.9483   19.7974 C   0  0  0  0  0  0  0  0  0  0  0  0
  -21.3330  -32.8449   16.4453 C   0  0  0  0  0  0  0  0  0  0  0  0
  -24.9942  -28.9039   20.3488 C   0  0  0  0  0  0  0  0  0  0  0  0
  -22.5786  -32.4032   16.9310 C   0  0  0  0  0  0  0  0  0  0  0  0
  -26.1344  -29.3644   21.0225 C   0  0  0  0  0  0  0  0  0  0  0  0
  -24.9789  -10.7455   19.7765 C   0  0  0  0  0  0  0  0  0  0  0  0
  -27.5026  -27.8200   19.7369 C   0  0  0  0  0  0  0  0  0  0  0  0
  -23.7471   -9.2123   18.4903 C   0  0  0  0  0  0  0  0  0  0  0  0
  -23.4617   -7.7539   16.1293 C   0  0  0  0  0  0  0  0  0  0  0  0
  -22.6202   -9.3959   17.6890 C   0  0  0  0  0  0  0  0  0  0  0  0
  -28.3615  -13.2616   20.1303 C   0  0  0  0  0  0  0  0  0  0  0  0
  -28.6052  -20.6078   18.0356 C   0  0  0  0  0  0  0  0  0  0  0  0
  -30.3985  -14.0889   20.0935 C   0  0  0  0  0  0  0  0  0  0  0  0
  -28.8041  -22.6223   17.1916 C   0  0  0  0  0  0  0  0  0  0  0  0
  -30.2429  -11.7346   19.2679 C   0  0  0  0  0  0  0  0  0  0  0  0
  -29.4637  -26.3260   17.4118 C   0  0  0  0  0  0  0  0  0  0  0  0
  -29.1748  -27.4108   18.1536 C   0  0  0  0  0  0  0  0  0  1  0  0
  -29.3304  -24.9473   17.9906 C   0  0  0  0  0  0  0  0  0  0  0  0
  -23.9922  -31.9202   20.3106 C   0  0  0  0  0  0  0  0  0  0  0  0
  -24.4057  -31.6892   23.5196 C   0  0  0  0  0  0  0  0  0  0  0  0
  -25.9612  -30.1471   26.1367 C   0  0  0  0  0  0  0  0  0  0  0  0
  -28.8788  -19.8583   20.4251 C   0  0  0  0  0  0  0  0  0  0  0  0
  -20.5675  -33.9559   17.1192 C   0  0  0  0  0  0  0  0  0  0  0  0
  -23.6355  -29.4531   20.6876 C   0  0  0  0  0  0  0  0  0  0  0  0
  -26.0536  -30.4374   22.0764 C   0  0  0  0  0  0  0  0  0  0  0  0
  -21.0223  -34.2278   18.5508 C   0  0  0  0  0  0  0  0  0  0  0  0
  -30.3259  -17.8854   23.0118 C   0  0  0  0  0  0  0  0  0  0  0  0
  -22.5445  -34.2952   18.6236 C   0  0  0  0  0  0  0  0  0  0  0  0
  -30.1129  -16.4474   22.5332 C   0  0  0  0  0  0  0  0  0  0  0  0
  -29.1448  -18.7843   22.6501 C   0  0  0  0  0  0  0  0  0  0  0  0
  -28.5495  -17.3286   20.7538 C   0  0  0  0  0  0  0  0  0  0  0  0
  -23.1764  -32.9626   18.2037 C   0  0  1  0  0  0  0  0  0  0  0  0
  -23.6921  -30.8430   21.3141 C   0  0  1  0  0  0  0  0  0  0  0  0
  -29.7415  -16.4003   21.0380 C   0  0  2  0  0  0  0  0  0  0  0  0
  -29.2946  -28.8211   17.6542 C   0  0  0  0  0  0  0  0  0  0  0  0
  -26.1252  -30.2018   28.6402 C   0  0  0  0  0  0  0  0  0  0  0  0
  -26.1528  -34.1848   23.3482 C   0  0  0  0  0  0  0  0  0  0  0  0
  -27.0317  -33.6413   25.6286 C   0  0  0  0  0  0  0  0  0  0  0  0
  -24.6056  -34.1274   25.3122 C   0  0  0  0  0  0  0  0  0  0  0  0
  -24.9564  -27.3739   26.3790 C   0  0  0  0  0  0  0  0  0  0  0  0
  -25.5512  -31.9389   24.4706 C   0  0  1  0  0  0  0  0  0  0  0  0
  -25.4220  -29.5865   27.4404 C   0  0  2  0  0  0  0  0  0  0  0  0
  -25.8374  -33.4542   24.6687 C   0  0  0  0  0  0  0  0  0  0  0  0
  -28.2266  -14.5040   20.6019 N   0  0  0  0  0  0  0  0  0  0  0  0
  -28.8741  -21.9346   18.3098 N   0  0  0  0  0  0  0  0  0  0  0  0
  -29.4824  -14.9813   20.5676 N   0  0  0  0  0  0  0  0  0  0  0  0
  -24.7036  -30.9472   22.3678 N   0  0  0  0  0  0  0  0  0  0  0  0
  -28.8534  -18.6914   21.2179 N   0  0  0  0  0  0  0  0  0  0  0  0
  -31.7068  -14.4056   19.9921 N   0  0  0  0  0  0  0  0  0  0  0  0
  -29.3771  -10.6603   19.0221 N   0  0  0  0  0  0  0  0  0  0  0  0
  -28.6182  -19.6420   19.0723 N   0  0  0  0  0  0  0  0  0  0  0  0
  -29.0098  -24.0125   17.0154 N   0  0  0  0  0  0  0  0  0  0  0  0
  -23.0785  -31.9965   19.2767 N   0  0  0  0  0  0  0  0  0  0  0  0
  -25.2228  -31.2270   25.7010 N   0  0  0  0  0  0  0  0  0  0  0  0
  -25.6157  -28.1096   27.4885 N   0  3  0  0  0  0  0  0  0  0  0  0
  -31.4683  -11.6012   19.0355 O   0  0  0  0  0  0  0  0  0  0  0  0
  -29.4968  -24.7505   19.1892 O   0  0  0  0  0  0  0  0  0  0  0  0
  -24.9789  -32.6307   20.4637 O   0  0  0  0  0  0  0  0  0  0  0  0
  -23.2863  -32.1299   23.7922 O   0  0  0  0  0  0  0  0  0  0  0  0
  -26.9417  -29.6766   25.5642 O   0  0  0  0  0  0  0  0  0  0  0  0
  -29.1412  -20.9638   20.9057 O   0  0  0  0  0  0  0  0  0  0  0  0
  -29.8984  -26.4469   16.1053 O   0  0  0  0  0  0  0  0  0  0  0  0
  -23.8906   -9.9361   19.6621 O   0  0  0  0  0  0  0  0  0  0  0  0
  -28.7238  -27.2987   19.4388 O   0  0  0  0  0  0  0  0  0  1  0  0
  -23.3256   -7.0547   14.9950 F   0  0  0  0  0  0  0  0  0  0  0  0
  -21.6719  -10.2722   18.0476 F   0  0  0  0  0  0  0  0  0  0  0  0
  -28.4189  -21.7371   15.7728 S   0  0  0  0  0  0  0  0  0  0  0  0
  1  2  1  0  0  0  0
  1  5  2  0  0  0  0
  2  6  2  0  0  0  0
  3  8  2  0  0  0  0
  3 16  1  0  0  0  0
  4  9  1  0  0  0  0
  4 16  2  0  0  0  0
  5 18  1  0  0  0  0
  6 20  1  0  0  0  0
  7 10  2  0  0  0  0
  7 19  1  0  0  0  0
  8 22  1  0  0  0  0
  9 22  2  0  0  0  0
 10 23  1  0  0  0  0
 11 12  2  0  0  0  0
 11 24  1  0  0  0  0
 12 25  1  0  0  0  0
 13 21  1  0  0  0  0
 13 23  2  0  0  0  0
 14 25  2  0  0  0  0
 14 26  1  0  0  0  0
 15 28  2  0  0  0  0
 15 83  1  0  0  0  0
 16 27  1  0  0  0  0
 17 27  1  0  0  0  0
 17 29  2  0  0  0  0
 17 31  1  0  0  0  0
 18 20  2  0  0  0  0
 18 39  1  0  0  0  0
 19 21  2  0  0  0  0
 19 40  1  0  0  0  0
 20 48  1  0  0  0  0
 21 41  1  0  0  0  0
 22 79  1  0  0  0  0
 23 80  1  0  0  0  0
 24 26  2  0  0  0  0
 24 79  1  0  0  0  0
 25 81  1  0  0  0  0
 26 82  1  0  0  0  0
 27 60  2  0  0  0  0
 28 61  1  0  0  0  0
 28 67  1  0  0  0  0
 29 62  1  0  0  0  0
 29 65  1  0  0  0  0
 30 61  2  0  0  0  0
 30 68  1  0  0  0  0
 30 83  1  0  0  0  0
 31 66  1  0  0  0  0
 31 72  2  0  0  0  0
 32 33  2  0  0  0  0
 32 34  1  0  0  0  0
 32 78  1  0  0  0  0
 33 51  1  0  0  0  0
 33 80  1  0  0  0  0
 34 68  1  0  0  0  0
 34 73  2  0  0  0  0
 35 49  1  0  0  0  0
 35 69  1  0  0  0  0
 35 74  2  0  0  0  0
 36 57  1  0  0  0  0
 36 63  1  0  0  0  0
 36 75  2  0  0  0  0
 37 58  1  0  0  0  0
 37 70  1  0  0  0  0
 37 76  2  0  0  0  0
 38 64  1  0  0  0  0
 38 67  1  0  0  0  0
 38 77  2  0  0  0  0
 39 42  1  0  0  0  0
 40 49  1  0  0  0  0
 41 63  1  0  0  0  0
 42 44  1  0  0  0  0
 43 45  1  0  0  0  0
 43 46  1  0  0  0  0
 44 48  1  0  0  0  0
 45 50  1  0  0  0  0
 46 64  1  0  0  0  0
 47 50  1  0  0  0  0
 47 64  1  0  0  0  0
 48 69  1  0  0  0  0
 49 63  1  0  0  0  0
 50 62  1  0  0  0  0
 52 58  1  0  0  0  0
 53 59  1  0  0  0  0
 54 59  1  0  0  0  0
 55 59  1  0  0  0  0
 56 71  1  0  0  0  0
 57 59  1  0  0  0  0
 57 70  1  0  0  0  0
 58 71  1  0  0  0  0
 60 62  1  0  0  0  0
M  CHG  1  71   1
M  ISO  4  33 101  38 100  67 100  80 101
M  END
> <Batch ID>
0179

> <Smiles>
CNC(C)C(=O)NC(C(=O)N1Cc2cc([101O:1][101CH:1](C)C(=O)C(=O)Nc3nc([100NH:0][100C:0](=O)N4CCCC(n5nc(-c6ccc(Oc7ccc(F)cc7F)cc6)c(C(N)=O)c5N)C4)cs3)ccc2CC1C(=O)NC1CCCc2ccccc21)C(C)(C)C

> <Shape>
0.280

> <Color>
0.096

> <Negative vol penalty>
0.000

$$$$

  -OEChem-04052304473D

 83 91  0     1  0  0  0  0  0999 V2000
  -25.7238  -37.9210   26.8328 C   0  0  0  0  0  0  0  0  0  0  0  0
  -25.0635  -36.7865   27.2935 C   0  0  0  0  0  0  0  0  0  0  0  0
  -24.4638   -9.2336   21.5624 C   0  0  0  0  0  0  0  0  0  0  0  0
  -22.6247  -10.2779   20.3945 C   0  0  0  0  0  0  0  0  0  0  0  0
  -25.9994  -38.0620   25.4734 C   0  0  0  0  0  0  0  0  0  0  0  0
  -24.6773  -35.7928   26.3947 C   0  0  0  0  0  0  0  0  0  0  0  0
  -23.8164  -28.6950   25.9507 C   0  0  0  0  0  0  0  0  0  0  0  0
  -23.7067   -8.0723   21.7163 C   0  0  0  0  0  0  0  0  0  0  0  0
  -21.8675   -9.1165   20.5484 C   0  0  0  0  0  0  0  0  0  0  0  0
  -22.8643  -27.7467   25.5791 C   0  0  0  0  0  0  0  0  0  0  0  0
  -21.2198   -6.9682   23.7215 C   0  0  0  0  0  0  0  0  0  0  0  0
  -21.2227   -6.3548   24.9742 C   0  0  0  0  0  0  0  0  0  0  0  0
  -23.4636  -28.0613   23.2637 C   0  0  0  0  0  0  0  0  0  0  0  0
  -22.1309   -4.3449   23.9880 C   0  0  0  0  0  0  0  0  0  0  0  0
  -23.9228  -10.3364   20.9016 C   0  0  0  0  0  0  0  0  0  0  0  0
  -25.5637  -11.8562   19.6747 C   0  0  0  0  0  0  0  0  0  0  0  0
  -25.6249  -37.0651   24.5588 C   0  0  0  0  0  0  0  0  0  0  0  0
  -24.5929  -29.3426   24.9791 C   0  0  0  0  0  0  0  0  0  0  0  0
  -24.9469  -35.9212   25.0216 C   0  0  0  0  0  0  0  0  0  0  0  0
  -24.4266  -29.0156   23.6258 C   0  0  0  0  0  0  0  0  0  0  0  0
  -22.4085   -8.0137   21.2093 C   0  0  0  0  0  0  0  0  0  0  0  0
  -22.6858  -27.4318   24.2352 C   0  0  0  0  0  0  0  0  0  0  0  0
  -21.6723   -6.2699   22.6020 C   0  0  0  0  0  0  0  0  0  0  0  0
  -21.6783   -5.0432   25.1075 C   0  0  0  0  0  0  0  0  0  0  0  0
  -22.1279   -4.9583   22.7352 C   0  0  0  0  0  0  0  0  0  0  0  0
  -24.7042  -11.5365   20.7428 C   0  0  0  0  0  0  0  0  0  0  0  0
  -22.1653  -18.6311   22.0215 C   0  0  0  0  0  0  0  0  0  0  0  0
  -26.0629  -13.0951   19.9946 C   0  0  0  0  0  0  0  0  0  0  0  0
  -21.1947  -18.5313   21.0468 C   0  0  0  0  0  0  0  0  0  0  0  0
  -21.3987  -20.6841   22.1081 C   0  0  0  0  0  0  0  0  0  0  0  0
  -22.1470  -25.1996   23.7905 C   0  0  0  0  0  0  0  0  0  1  0  0
  -25.8823  -11.1008   18.4984 C   0  0  0  0  0  0  0  0  0  0  0  0
  -21.3176  -24.2087   23.4415 C   0  0  0  0  0  0  0  0  0  0  0  0
  -21.8437  -22.8057   23.3854 C   0  0  0  0  0  0  0  0  0  0  0  0
  -24.9567  -32.3583   24.0425 C   0  0  0  0  0  0  0  0  0  0  0  0
  -27.3016  -31.0918   22.1932 C   0  0  0  0  0  0  0  0  0  0  0  0
  -28.5810  -28.3531   20.6092 C   0  0  0  0  0  0  0  0  0  0  0  0
  -24.0101  -17.5753   23.3737 C   0  0  0  0  0  0  0  0  0  0  0  0
  -25.9023  -37.2838   23.0925 C   0  0  0  0  0  0  0  0  0  0  0  0
  -25.6342  -30.3438   25.3985 C   0  0  0  0  0  0  0  0  0  0  0  0
  -25.2491  -29.6676   22.5455 C   0  0  0  0  0  0  0  0  0  0  0  0
  -25.7925  -36.0120   22.2555 C   0  0  0  0  0  0  0  0  0  0  0  0
  -27.1013  -15.8533   23.7693 C   0  0  0  0  0  0  0  0  0  0  0  0
  -24.5217  -35.2469   22.6111 C   0  0  0  0  0  0  0  0  0  0  0  0
  -26.9178  -14.5829   22.9359 C   0  0  0  0  0  0  0  0  0  0  0  0
  -25.8088  -16.2606   24.4744 C   0  0  0  0  0  0  0  0  0  0  0  0
  -24.4533  -15.1158   22.7652 C   0  0  0  0  0  0  0  0  0  0  0  0
  -24.5339  -34.8100   24.0810 C   0  0  1  0  0  0  0  0  0  0  0  0
  -26.0113  -31.3158   24.2847 C   0  0  1  0  0  0  0  0  0  0  0  0
  -25.7114  -14.7026   21.9842 C   0  0  2  0  0  0  0  0  0  0  0  0
  -30.4888  -27.6366   19.1449 C   0  0  0  0  0  0  0  0  0  0  0  0
  -25.9624  -32.4277   19.7990 C   0  0  0  0  0  0  0  0  0  0  0  0
  -27.3069  -30.9364   18.3034 C   0  0  0  0  0  0  0  0  0  0  0  0
  -28.4598  -32.5603   19.8057 C   0  0  0  0  0  0  0  0  0  0  0  0
  -29.5551  -26.4191   22.6265 C   0  0  0  0  0  0  0  0  0  0  0  0
  -27.3687  -30.5089   20.8023 C   0  0  1  0  0  0  0  0  0  0  0  0
  -29.9840  -27.7744   20.5728 C   0  0  2  0  0  0  0  0  0  0  0  0
  -27.2575  -31.5973   19.6976 C   0  0  0  0  0  0  0  0  0  0  0  0
  -24.6578  -12.4950   21.6719 N   0  0  0  0  0  0  0  0  0  0  0  0
  -22.2840  -19.8649   22.6309 N   0  0  0  0  0  0  0  0  0  0  0  0
  -25.4945  -13.4290   21.1886 N   0  0  0  0  0  0  0  0  0  0  0  0
  -26.2499  -30.6445   23.0054 N   0  0  0  0  0  0  0  0  0  0  0  0
  -24.7110  -16.3583   23.5100 N   0  0  0  0  0  0  0  0  0  0  0  0
  -26.9283  -13.9205   19.3683 N   0  0  0  0  0  0  0  0  0  0  0  0
  -25.2805   -9.8468   18.3263 N   0  0  0  0  0  0  0  0  0  0  0  0
  -23.0090  -17.5585   22.4031 N   0  0  0  0  0  0  0  0  0  0  0  0
  -21.1754  -22.0427   22.4376 N   0  0  0  0  0  0  0  0  0  0  0  0
  -25.3864  -33.6539   24.2575 N   0  0  0  0  0  0  0  0  0  0  0  0
  -28.5978  -29.7249   20.7472 N   0  0  0  0  0  0  0  0  0  0  0  0
  -30.0056  -26.4278   21.2109 N   0  3  0  0  0  0  0  0  0  0  0  0
  -26.6897  -11.5181   17.6339 O   0  0  0  0  0  0  0  0  0  0  0  0
  -22.7576  -22.4456   24.1195 O   0  0  0  0  0  0  0  0  0  0  0  0
  -23.8364  -32.0129   23.6855 O   0  0  0  0  0  0  0  0  0  0  0  0
  -28.1551  -31.9085   22.5485 O   0  0  0  0  0  0  0  0  0  0  0  0
  -27.5713  -27.6581   20.5202 O   0  0  0  0  0  0  0  0  0  0  0  0
  -24.2962  -18.5680   24.0480 O   0  0  0  0  0  0  0  0  0  0  0  0
  -19.9907  -24.4261   23.1308 O   0  0  0  0  0  0  0  0  0  0  0  0
  -21.6695   -6.8806   21.3591 O   0  0  0  0  0  0  0  0  0  0  0  0
  -21.7568  -26.5070   23.8696 O   0  0  0  0  0  0  0  0  0  1  0  0
  -21.6824   -4.4548   26.3108 F   0  0  0  0  0  0  0  0  0  0  0  0
  -22.5650   -4.2829   21.6635 F   0  0  0  0  0  0  0  0  0  0  0  0
  -20.9166  -17.4337   20.3382 F   0  0  0  0  0  0  0  0  0  0  0  0
  -20.3905  -20.0368   20.8795 S   0  0  0  0  0  0  0  0  0  0  0  0
  1  2  1  0  0  0  0
  1  5  2  0  0  0  0
  2  6  2  0  0  0  0
  3  8  2  0  0  0  0
  3 15  1  0  0  0  0
  4  9  1  0  0  0  0
  4 15  2  0  0  0  0
  5 17  1  0  0  0  0
  6 19  1  0  0  0  0
  7 10  2  0  0  0  0
  7 18  1  0  0  0  0
  8 21  1  0  0  0  0
  9 21  2  0  0  0  0
 10 22  1  0  0  0  0
 11 12  2  0  0  0  0
 11 23  1  0  0  0  0
 12 24  1  0  0  0  0
 13 20  1  0  0  0  0
 13 22  2  0  0  0  0
 14 24  2  0  0  0  0
 14 25  1  0  0  0  0
 15 26  1  0  0  0  0
 16 26  1  0  0  0  0
 16 28  2  0  0  0  0
 16 32  1  0  0  0  0
 17 19  2  0  0  0  0
 17 39  1  0  0  0  0
 18 20  2  0  0  0  0
 18 40  1  0  0  0  0
 19 48  1  0  0  0  0
 20 41  1  0  0  0  0
 21 78  1  0  0  0  0
 22 79  1  0  0  0  0
 23 25  2  0  0  0  0
 23 78  1  0  0  0  0
 24 80  1  0  0  0  0
 25 81  1  0  0  0  0
 26 59  2  0  0  0  0
 27 29  2  0  0  0  0
 27 60  1  0  0  0  0
 27 66  1  0  0  0  0
 28 61  1  0  0  0  0
 28 64  1  0  0  0  0
 29 82  1  0  0  0  0
 29 83  1  0  0  0  0
 30 60  2  0  0  0  0
 30 67  1  0  0  0  0
 30 83  1  0  0  0  0
 31 33  2  0  0  0  0
 31 79  1  0  0  0  0
 32 65  1  0  0  0  0
 32 71  2  0  0  0  0
 33 34  1  0  0  0  0
 33 77  1  0  0  0  0
 34 67  1  0  0  0  0
 34 72  2  0  0  0  0
 35 49  1  0  0  0  0
 35 68  1  0  0  0  0
 35 73  2  0  0  0  0
 36 56  1  0  0  0  0
 36 62  1  0  0  0  0
 36 74  2  0  0  0  0
 37 57  1  0  0  0  0
 37 69  1  0  0  0  0
 37 75  2  0  0  0  0
 38 63  1  0  0  0  0
 38 66  1  0  0  0  0
 38 76  2  0  0  0  0
 39 42  1  0  0  0  0
 40 49  1  0  0  0  0
 41 62  1  0  0  0  0
 42 44  1  0  0  0  0
 43 45  1  0  0  0  0
 43 46  1  0  0  0  0
 44 48  1  0  0  0  0
 45 50  1  0  0  0  0
 46 63  1  0  0  0  0
 47 50  1  0  0  0  0
 47 63  1  0  0  0  0
 48 68  1  0  0  0  0
 49 62  1  0  0  0  0
 50 61  1  0  0  0  0
 51 57  1  0  0  0  0
 52 58  1  0  0  0  0
 53 58  1  0  0  0  0
 54 58  1  0  0  0  0
 55 70  1  0  0  0  0
 56 58  1  0  0  0  0
 56 69  1  0  0  0  0
 57 70  1  0  0  0  0
 59 61  1  0  0  0  0
M  CHG  1  70   1
M  ISO  4  31 101  38 100  66 100  79 101
M  END
> <Batch ID>
0179

> <Smiles>
CNC(C)C(=O)NC(C(=O)N1Cc2cc([101O:1][101CH2:1]C(=O)C(=O)Nc3nc([100NH:0][100C:0](=O)N4CCCC(n5nc(-c6ccc(Oc7ccc(F)cc7F)cc6)c(C(N)=O)c5N)C4)c(F)s3)ccc2CC1C(=O)NC1CCCc2ccccc21)C(C)(C)C

> <Shape>
0.251

> <Color>
0.110

> <Negative vol penalty>
0.000

$$$$

  -OEChem-04052304473D

 86 94  0     1  0  0  0  0  0999 V2000
  -24.5899  -16.9691   24.8331 C   0  0  0  0  0  0  0  0  0  0  0  0
  -25.6120  -17.9033   24.9666 C   0  0  0  0  0  0  0  0  0  0  0  0
  -26.1972  -12.2338   20.0717 C   0  0  0  0  0  0  0  0  0  0  0  0
  -24.5886  -13.9723   20.5482 C   0  0  0  0  0  0  0  0  0  0  0  0
  -23.6883  -17.0705   23.7745 C   0  0  0  0  0  0  0  0  0  0  0  0
  -25.7338  -18.9391   24.0410 C   0  0  0  0  0  0  0  0  0  0  0  0
  -27.7667  -25.7916   23.5658 C   0  0  0  0  0  0  0  0  0  0  0  0
  -25.4669  -11.3426   20.8577 C   0  0  0  0  0  0  0  0  0  0  0  0
  -23.8581  -13.0810   21.3341 C   0  0  0  0  0  0  0  0  0  0  0  0
  -28.6108  -26.6156   22.8226 C   0  0  0  0  0  0  0  0  0  0  0  0
  -23.8323   -8.5106   22.4461 C   0  0  0  0  0  0  0  0  0  0  0  0
  -23.6114   -7.2299   21.9395 C   0  0  0  0  0  0  0  0  0  0  0  0
  -26.9478  -26.7369   21.0794 C   0  0  0  0  0  0  0  0  0  0  0  0
  -22.4528   -8.1797   20.0440 C   0  0  0  0  0  0  0  0  0  0  0  0
  -25.7581  -13.5488   19.9170 C   0  0  0  0  0  0  0  0  0  0  0  0
  -26.3616  -14.7086   17.7265 C   0  0  0  0  0  0  0  0  0  0  0  0
  -23.7932  -18.1136   22.8408 C   0  0  0  0  0  0  0  0  0  0  0  0
  -26.5090  -25.4246   23.0656 C   0  0  0  0  0  0  0  0  0  0  0  0
  -24.8335  -19.0538   22.9681 C   0  0  0  0  0  0  0  0  0  0  0  0
  -26.0885  -25.9103   21.8193 C   0  0  0  0  0  0  0  0  0  0  0  0
  -24.2973  -11.7661   21.4889 C   0  0  0  0  0  0  0  0  0  0  0  0
  -28.2026  -27.0861   21.5780 C   0  0  0  0  0  0  0  0  0  0  0  0
  -23.3634   -9.6258   21.7518 C   0  0  0  0  0  0  0  0  0  0  0  0
  -22.9216   -7.0645   20.7384 C   0  0  0  0  0  0  0  0  0  0  0  0
  -22.6737   -9.4603   20.5507 C   0  0  0  0  0  0  0  0  0  0  0  0
  -26.5125  -14.4701   19.1057 C   0  0  0  0  0  0  0  0  0  0  0  0
  -28.3995  -24.2926   18.3789 C   0  0  0  0  0  0  0  0  0  0  0  0
  -27.3062  -15.6630   17.4378 C   0  0  0  0  0  0  0  0  0  0  0  0
  -27.1000  -24.0631   17.9782 C   0  0  0  0  0  0  0  0  0  0  0  0
  -28.2933  -22.1463   18.8174 C   0  0  0  0  0  0  0  0  0  0  0  0
  -25.4490  -14.1202   16.7902 C   0  0  0  0  0  0  0  0  0  0  0  0
  -25.1212  -22.6737   22.2848 C   0  0  0  0  0  0  0  0  0  0  0  0
  -22.5120  -24.5560   21.8712 C   0  0  0  0  0  0  0  0  0  0  0  0
  -21.2527  -27.6644   21.2394 C   0  0  0  0  0  0  0  0  0  0  0  0
  -30.3364  -25.8637   18.7032 C   0  0  0  0  0  0  0  0  0  0  0  0
  -29.7900  -20.3419   19.7397 C   0  0  0  0  0  0  0  0  0  0  0  0
  -22.8236  -18.1548   21.6863 C   0  0  0  0  0  0  0  0  0  0  0  0
  -25.5994  -24.5568   23.8914 C   0  0  0  0  0  0  0  0  0  0  0  0
  -24.7398  -25.5621   21.2465 C   0  0  0  0  0  0  0  0  0  0  0  0
  -22.7957  -19.4982   20.9619 C   0  0  0  0  0  0  0  0  0  0  0  0
  -31.4755  -17.2084   19.6083 C   0  0  0  0  0  0  0  0  0  0  0  0
  -24.2146  -19.9874   20.6897 C   0  0  0  0  0  0  0  0  0  0  0  0
  -30.3540  -16.2049   19.3304 C   0  0  0  0  0  0  0  0  0  0  0  0
  -31.0146  -18.3316   20.5357 C   0  0  0  0  0  0  0  0  0  0  0  0
  -28.6744  -18.0261   19.8292 C   0  0  0  0  0  0  0  0  0  0  0  0
  -24.9834  -20.2059   21.9984 C   0  0  1  0  0  0  0  0  0  0  0  0
  -24.5496  -23.8284   23.0578 C   0  0  1  0  0  0  0  0  0  0  0  0
  -29.0722  -16.9116   18.8478 C   0  0  2  0  0  0  0  0  0  0  0  0
  -19.0823  -28.8837   20.9233 C   0  0  0  0  0  0  0  0  0  0  0  0
  -22.2600  -23.3761   19.0686 C   0  0  0  0  0  0  0  0  0  0  0  0
  -20.7224  -25.2646   18.4874 C   0  0  0  0  0  0  0  0  0  0  0  0
  -20.0913  -23.6522   20.2831 C   0  0  0  0  0  0  0  0  0  0  0  0
  -32.6777  -27.9014   19.9257 C   0  0  0  0  0  0  0  0  0  0  0  0
  -21.7684  -29.4227   23.5634 C   0  0  0  0  0  0  0  0  0  0  0  0
  -30.4297  -27.7082   21.0224 C   0  0  0  0  0  0  0  0  0  1  0  0
  -21.9276  -25.3349   20.7175 C   0  0  1  0  0  0  0  0  0  0  0  0
  -20.1538  -28.4629   21.9170 C   0  0  2  0  0  0  0  0  0  0  0  0
  -30.6654  -27.3322   18.4756 C   0  0  1  0  0  0  0  0  0  0  0  0
  -21.2766  -24.4121   19.6488 C   0  0  0  0  0  0  0  0  0  0  0  0
  -31.1706  -28.0603   19.7303 C   0  0  2  0  0  0  0  0  0  0  0  0
  -27.4772  -15.2129   19.6549 N   0  0  0  0  0  0  0  0  0  0  0  0
  -29.0853  -23.1947   18.8608 N   0  0  0  0  0  0  0  0  0  0  0  0
  -27.9410  -15.9275   18.6156 N   0  0  0  0  0  0  0  0  0  0  0  0
  -23.8889  -24.7055   22.0891 N   0  0  0  0  0  0  0  0  0  0  0  0
  -29.7984  -18.9576   20.0126 N   0  0  0  0  0  0  0  0  0  0  0  0
  -27.6474  -16.2933   16.2938 N   0  0  0  0  0  0  0  0  0  0  0  0
  -26.2078  -24.9492   17.4710 N   0  0  0  0  0  0  0  0  0  0  0  0
  -24.5449  -13.1553   17.2546 N   0  0  0  0  0  0  0  0  0  0  0  0
  -29.0386  -25.5533   18.3211 N   0  0  0  0  0  0  0  0  0  0  0  0
  -28.5892  -20.8189   19.2151 N   0  0  0  0  0  0  0  0  0  0  0  0
  -24.5786  -21.4481   22.6211 N   0  0  0  0  0  0  0  0  0  0  0  0
  -21.0126  -26.3081   21.3039 N   0  0  0  0  0  0  0  0  0  0  0  0
  -20.7184  -29.6898   22.5471 N   0  3  0  0  0  0  0  0  0  0  0  0
  -25.4468  -14.4287   15.5743 O   0  0  0  0  0  0  0  0  0  0  0  0
  -25.9890  -22.8795   21.4445 O   0  0  0  0  0  0  0  0  0  0  0  0
  -21.7726  -23.8469   22.5583 O   0  0  0  0  0  0  0  0  0  0  0  0
  -22.2249  -28.1913   20.7029 O   0  0  0  0  0  0  0  0  0  0  0  0
  -31.1823  -25.1034   19.1661 O   0  0  0  0  0  0  0  0  0  0  0  0
  -30.7843  -21.0469   19.9299 O   0  0  0  0  0  0  0  0  0  0  0  0
  -23.5842  -10.8966   22.2557 O   0  0  0  0  0  0  0  0  0  0  0  0
  -29.0248  -27.8899   20.8503 O   0  0  0  0  0  0  0  0  0  1  0  0
  -22.7109   -5.8347   20.2512 F   0  0  0  0  0  0  0  0  0  0  0  0
  -22.2218  -10.5280   19.8786 F   0  0  0  0  0  0  0  0  0  0  0  0
  -31.6379  -27.4333   17.5183 F   0  0  0  0  0  0  0  0  0  0  0  0
  -30.9486  -29.3987   19.5100 F   0  0  0  0  0  0  0  0  0  0  0  0
  -26.7108  -22.4087   18.2078 S   0  0  0  0  0  0  0  0  0  0  0  0
  1  2  1  0  0  0  0
  1  5  2  0  0  0  0
  2  6  2  0  0  0  0
  3  8  2  0  0  0  0
  3 15  1  0  0  0  0
  4  9  1  0  0  0  0
  4 15  2  0  0  0  0
  5 17  1  0  0  0  0
  6 19  1  0  0  0  0
  7 10  2  0  0  0  0
  7 18  1  0  0  0  0
  8 21  1  0  0  0  0
  9 21  2  0  0  0  0
 10 22  1  0  0  0  0
 11 12  2  0  0  0  0
 11 23  1  0  0  0  0
 12 24  1  0  0  0  0
 13 20  1  0  0  0  0
 13 22  2  0  0  0  0
 14 24  2  0  0  0  0
 14 25  1  0  0  0  0
 15 26  1  0  0  0  0
 16 26  1  0  0  0  0
 16 28  2  0  0  0  0
 16 31  1  0  0  0  0
 17 19  2  0  0  0  0
 17 37  1  0  0  0  0
 18 20  2  0  0  0  0
 18 38  1  0  0  0  0
 19 46  1  0  0  0  0
 20 39  1  0  0  0  0
 21 80  1  0  0  0  0
 22 81  1  0  0  0  0
 23 25  2  0  0  0  0
 23 80  1  0  0  0  0
 24 82  1  0  0  0  0
 25 83  1  0  0  0  0
 26 61  2  0  0  0  0
 27 29  2  0  0  0  0
 27 62  1  0  0  0  0
 27 69  1  0  0  0  0
 28 63  1  0  0  0  0
 28 66  1  0  0  0  0
 29 67  1  0  0  0  0
 29 86  1  0  0  0  0
 30 62  2  0  0  0  0
 30 70  1  0  0  0  0
 30 86  1  0  0  0  0
 31 68  1  0  0  0  0
 31 74  2  0  0  0  0
 32 47  1  0  0  0  0
 32 71  1  0  0  0  0
 32 75  2  0  0  0  0
 33 56  1  0  0  0  0
 33 64  1  0  0  0  0
 33 76  2  0  0  0  0
 34 57  1  0  0  0  0
 34 72  1  0  0  0  0
 34 77  2  0  0  0  0
 35 58  1  0  0  0  0
 35 69  1  0  0  0  0
 35 78  2  0  0  0  0
 36 65  1  0  0  0  0
 36 70  1  0  0  0  0
 36 79  2  0  0  0  0
 37 40  1  0  0  0  0
 38 47  1  0  0  0  0
 39 64  1  0  0  0  0
 40 42  1  0  0  0  0
 41 43  1  0  0  0  0
 41 44  1  0  0  0  0
 42 46  1  0  0  0  0
 43 48  1  0  0  0  0
 44 65  1  0  0  0  0
 45 48  1  0  0  0  0
 45 65  1  0  0  0  0
 46 71  1  0  0  0  0
 47 64  1  0  0  0  0
 48 63  1  0  0  0  0
 49 57  1  0  0  0  0
 50 59  1  0  0  0  0
 51 59  1  0  0  0  0
 52 59  1  0  0  0  0
 53 60  1  0  0  0  0
 54 73  1  0  0  0  0
 55 60  1  0  0  0  0
 55 81  1  0  0  0  0
 56 59  1  0  0  0  0
 56 72  1  0  0  0  0
 57 73  1  0  0  0  0
 58 60  1  0  0  0  0
 58 84  1  0  0  0  0
 60 85  1  0  0  0  0
 61 63  1  0  0  0  0
M  CHG  1  73   1
M  ISO  4  36 100  55 101  70 100  81 101
M  END
> <Batch ID>
0179

> <Smiles>
CNC(C)C(=O)NC(C(=O)N1Cc2cc([101O:1][101CH2:1]C(C)(F)C(F)C(=O)Nc3nc([100NH:0][100C:0](=O)N4CCCC(n5nc(-c6ccc(Oc7ccc(F)cc7F)cc6)c(C(N)=O)c5N)C4)sc3N)ccc2CC1C(=O)NC1CCCc2ccccc21)C(C)(C)C

> <Shape>
0.200

> <Color>
0.069

> <Negative vol penalty>
0.000

$$$$

  -OEChem-04052304473D

 88 96  0     1  0  0  0  0  0999 V2000
  -26.5683  -18.0015   25.9960 C   0  0  0  0  0  0  0  0  0  0  0  0
  -27.0090  -19.2830   26.3108 C   0  0  0  0  0  0  0  0  0  0  0  0
  -26.4212  -12.8115   21.6633 C   0  0  0  0  0  0  0  0  0  0  0  0
  -26.2031  -13.4220   19.3359 C   0  0  0  0  0  0  0  0  0  0  0  0
  -25.9116  -17.7685   24.7884 C   0  0  0  0  0  0  0  0  0  0  0  0
  -26.7943  -20.3320   25.4175 C   0  0  0  0  0  0  0  0  0  0  0  0
  -25.5019  -27.3767   25.2861 C   0  0  0  0  0  0  0  0  0  0  0  0
  -25.1672  -12.2023   21.6210 C   0  0  0  0  0  0  0  0  0  0  0  0
  -24.9491  -12.8127   19.2936 C   0  0  0  0  0  0  0  0  0  0  0  0
  -25.9843  -28.5496   24.7069 C   0  0  0  0  0  0  0  0  0  0  0  0
  -22.1796  -10.1717   22.0288 C   0  0  0  0  0  0  0  0  0  0  0  0
  -22.0491   -8.9146   22.6189 C   0  0  0  0  0  0  0  0  0  0  0  0
  -29.5459  -23.0611   18.3225 C   0  0  0  0  0  0  0  0  0  0  0  0
  -24.7683  -28.0446   22.6857 C   0  0  0  0  0  0  0  0  0  0  0  0
  -23.7166   -8.0328   21.1091 C   0  0  0  0  0  0  0  0  0  0  0  0
  -29.7773  -24.3765   17.9855 C   0  0  0  0  0  0  0  0  0  0  0  0
  -30.7102  -24.0260   19.9908 C   0  0  0  0  0  0  0  0  0  0  0  0
  -26.9392  -13.4214   20.5207 C   0  0  0  0  0  0  0  0  0  0  0  0
  -29.4796  -13.4545   20.2904 C   0  0  0  0  0  0  0  0  0  0  0  0
  -25.6801  -18.8170   23.8842 C   0  0  0  0  0  0  0  0  0  0  0  0
  -24.6564  -26.5220   24.5642 C   0  0  0  0  0  0  0  0  0  0  0  0
  -26.1350  -20.1124   24.1960 C   0  0  0  0  0  0  0  0  0  0  0  0
  -24.2745  -26.8627   23.2588 C   0  0  0  0  0  0  0  0  0  0  0  0
  -30.1362  -22.8393   19.5911 C   0  0  0  0  0  0  0  0  0  0  0  0
  -24.4311  -12.2028   20.4362 C   0  0  0  0  0  0  0  0  0  0  0  0
  -25.6198  -28.8823   23.4055 C   0  0  0  0  0  0  0  0  0  0  0  0
  -23.0785  -10.3594   20.9788 C   0  0  0  0  0  0  0  0  0  0  0  0
  -22.8176   -7.8451   22.1591 C   0  0  0  0  0  0  0  0  0  0  0  0
  -23.8470   -9.2900   20.5190 C   0  0  0  0  0  0  0  0  0  0  0  0
  -28.2343  -14.0514   20.5639 C   0  0  0  0  0  0  0  0  0  0  0  0
  -30.3917  -14.4656   20.4693 C   0  0  0  0  0  0  0  0  0  0  0  0
  -28.6993  -28.3910   21.3443 C   0  0  0  0  0  0  0  0  0  0  0  0
  -29.7845  -12.1065   19.9088 C   0  0  0  0  0  0  0  0  0  0  0  0
  -27.9200  -29.4861   21.4238 C   0  0  0  0  0  0  0  0  0  0  0  0
  -29.0930  -27.7293   20.0642 C   0  0  0  0  0  0  0  0  0  0  0  0
  -24.8385  -23.5128   23.5565 C   0  0  0  0  0  0  0  0  0  0  0  0
  -21.7666  -24.0385   22.6566 C   0  0  0  0  0  0  0  0  0  0  0  0
  -19.3464  -26.2811   21.7846 C   0  0  0  0  0  0  0  0  0  0  0  0
  -29.5862  -20.4045   19.9830 C   0  0  0  0  0  0  0  0  0  0  0  0
  -25.0078  -18.5072   22.5701 C   0  0  0  0  0  0  0  0  0  0  0  0
  -24.1232  -25.2739   25.2127 C   0  0  0  0  0  0  0  0  0  0  0  0
  -23.3531  -25.9892   22.4486 C   0  0  0  0  0  0  0  0  0  0  0  0
  -24.4877  -19.7459   21.8452 C   0  0  0  0  0  0  0  0  0  0  0  0
  -30.2579  -18.4480   23.2149 C   0  0  0  0  0  0  0  0  0  0  0  0
  -25.5466  -20.8437   21.8371 C   0  0  0  0  0  0  0  0  0  0  0  0
  -30.6052  -17.0857   22.6190 C   0  0  0  0  0  0  0  0  0  0  0  0
  -30.4806  -19.5848   22.2255 C   0  0  0  0  0  0  0  0  0  0  0  0
  -29.2148  -18.0538   20.7058 C   0  0  0  0  0  0  0  0  0  0  0  0
  -25.8988  -21.2811   23.2640 C   0  0  1  0  0  0  0  0  0  0  0  0
  -23.6807  -24.2187   24.2037 C   0  0  1  0  0  0  0  0  0  0  0  0
  -30.1941  -16.9518   21.1393 C   0  0  2  0  0  0  0  0  0  0  0  0
  -16.9455  -26.4082   21.0657 C   0  0  0  0  0  0  0  0  0  0  0  0
  -32.4732  -26.5130   19.1036 C   0  0  0  0  0  0  0  0  0  0  0  0
  -22.5561  -23.0998   19.8628 C   0  0  0  0  0  0  0  0  0  0  0  0
  -20.4445  -24.1287   18.9962 C   0  0  0  0  0  0  0  0  0  0  0  0
  -20.3343  -22.2678   20.6538 C   0  0  0  0  0  0  0  0  0  0  0  0
  -18.6014  -27.8910   24.1536 C   0  0  0  0  0  0  0  0  0  0  0  0
  -27.5055  -30.1563   22.7148 C   0  0  1  0  0  0  0  0  0  1  0  0
  -21.0917  -24.5582   21.4103 C   0  0  1  0  0  0  0  0  0  0  0  0
  -17.9079  -26.4396   22.2428 C   0  0  2  0  0  0  0  0  0  0  0  0
  -30.9478  -26.3960   19.0447 C   0  0  1  0  0  0  0  0  0  0  0  0
  -27.8642  -31.6261   22.8924 C   0  0  0  0  0  0  0  0  0  0  0  0
  -21.1256  -23.5294   20.2451 C   0  0  0  0  0  0  0  0  0  0  0  0
  -28.3419  -15.3417   20.8918 N   0  0  0  0  0  0  0  0  0  0  0  0
  -30.4855  -24.9534   19.0071 N   0  0  0  0  0  0  0  0  0  0  0  0
  -29.6657  -15.5639   20.8255 N   0  0  0  0  0  0  0  0  0  0  0  0
  -22.8632  -24.7764   23.1244 N   0  0  0  0  0  0  0  0  0  0  0  0
  -29.7744  -19.3879   20.9512 N   0  0  0  0  0  0  0  0  0  0  0  0
  -31.7360  -14.5135   20.3552 N   0  0  0  0  0  0  0  0  0  0  0  0
  -28.7279  -11.1962   19.7698 N   0  0  0  0  0  0  0  0  0  0  0  0
  -30.1499  -21.6335   20.3359 N   0  0  0  0  0  0  0  0  0  0  0  0
  -30.3321  -27.1141   20.1602 N   0  0  0  0  0  0  0  0  0  0  0  0
  -24.8716  -22.1519   23.7938 N   0  0  0  0  0  0  0  0  0  0  0  0
  -19.7487  -24.9625   21.8117 N   0  0  0  0  0  0  0  0  0  0  0  0
  -17.7321  -27.7346   22.9591 N   0  3  0  0  0  0  0  0  0  0  0  0
  -30.9606  -11.7165   19.7132 O   0  0  0  0  0  0  0  0  0  0  0  0
  -28.3855  -27.7450   19.0628 O   0  0  0  0  0  0  0  0  0  0  0  0
  -25.6415  -24.1551   22.8899 O   0  0  0  0  0  0  0  0  0  0  0  0
  -21.3323  -23.0195   23.1993 O   0  0  0  0  0  0  0  0  0  0  0  0
  -20.0424  -27.2314   21.4340 O   0  0  0  0  0  0  0  0  0  0  0  0
  -28.9861  -20.1908   18.9275 O   0  0  0  0  0  0  0  0  0  0  0  0
  -27.3818  -30.1180   20.3158 O   0  0  0  0  0  0  0  0  0  0  0  0
  -23.2075  -11.6082   20.3945 O   0  0  0  0  0  0  0  0  0  0  0  0
  -26.0898  -30.0262   22.8377 O   0  0  0  0  0  0  0  0  0  1  0  0
  -22.6933   -6.6384   22.7269 F   0  0  0  0  0  0  0  0  0  0  0  0
  -24.7131   -9.4644   19.5114 F   0  0  0  0  0  0  0  0  0  0  0  0
  -27.4072  -32.0555   24.0978 F   0  0  0  0  0  0  0  0  0  0  0  0
  -27.2441  -32.3830   21.9536 F   0  0  0  0  0  0  0  0  0  0  0  0
  1  2  1  0  0  0  0
  1  5  2  0  0  0  0
  2  6  2  0  0  0  0
  3  8  2  0  0  0  0
  3 18  1  0  0  0  0
  4  9  1  0  0  0  0
  4 18  2  0  0  0  0
  5 20  1  0  0  0  0
  6 22  1  0  0  0  0
  7 10  2  0  0  0  0
  7 21  1  0  0  0  0
  8 25  1  0  0  0  0
  9 25  2  0  0  0  0
 10 26  1  0  0  0  0
 11 12  2  0  0  0  0
 11 27  1  0  0  0  0
 12 28  1  0  0  0  0
 13 16  2  0  0  0  0
 13 24  1  0  0  0  0
 14 23  1  0  0  0  0
 14 26  2  0  0  0  0
 15 28  2  0  0  0  0
 15 29  1  0  0  0  0
 16 65  1  0  0  0  0
 17 24  2  0  0  0  0
 17 65  1  0  0  0  0
 18 30  1  0  0  0  0
 19 30  1  0  0  0  0
 19 31  2  0  0  0  0
 19 33  1  0  0  0  0
 20 22  2  0  0  0  0
 20 40  1  0  0  0  0
 21 23  2  0  0  0  0
 21 41  1  0  0  0  0
 22 49  1  0  0  0  0
 23 42  1  0  0  0  0
 24 71  1  0  0  0  0
 25 83  1  0  0  0  0
 26 84  1  0  0  0  0
 27 29  2  0  0  0  0
 27 83  1  0  0  0  0
 28 85  1  0  0  0  0
 29 86  1  0  0  0  0
 30 64  2  0  0  0  0
 31 66  1  0  0  0  0
 31 69  1  0  0  0  0
 32 34  2  0  0  0  0
 32 35  1  0  0  0  0
 33 70  1  0  0  0  0
 33 76  2  0  0  0  0
 34 58  1  0  0  0  0
 34 82  1  0  0  0  0
 35 72  1  0  0  0  0
 35 77  2  0  0  0  0
 36 50  1  0  0  0  0
 36 73  1  0  0  0  0
 36 78  2  0  0  0  0
 37 59  1  0  0  0  0
 37 67  1  0  0  0  0
 37 79  2  0  0  0  0
 38 60  1  0  0  0  0
 38 74  1  0  0  0  0
 38 80  2  0  0  0  0
 39 68  1  0  0  0  0
 39 71  1  0  0  0  0
 39 81  2  0  0  0  0
 40 43  1  0  0  0  0
 41 50  1  0  0  0  0
 42 67  1  0  0  0  0
 43 45  1  0  0  0  0
 44 46  1  0  0  0  0
 44 47  1  0  0  0  0
 45 49  1  0  0  0  0
 46 51  1  0  0  0  0
 47 68  1  0  0  0  0
 48 51  1  0  0  0  0
 48 68  1  0  0  0  0
 49 73  1  0  0  0  0
 50 67  1  0  0  0  0
 51 66  1  0  0  0  0
 52 60  1  0  0  0  0
 53 61  1  0  0  0  0
 54 63  1  0  0  0  0
 55 63  1  0  0  0  0
 56 63  1  0  0  0  0
 57 75  1  0  0  0  0
 58 62  1  0  0  0  0
 58 84  1  0  0  0  0
 59 63  1  0  0  0  0
 59 74  1  0  0  0  0
 60 75  1  0  0  0  0
 61 65  1  0  0  0  0
 61 72  1  0  0  0  0
 62 87  1  0  0  0  0
 62 88  1  0  0  0  0
 64 66  1  0  0  0  0
M  CHG  1  75   1
M  ISO  4  39 100  58 101  71 100  84 101
M  END
> <Batch ID>
0179

> <Smiles>
CNC(C)C(=O)NC(C(=O)N1Cc2cc([101O:1][101CH:1](C(=O)CC(=O)NC(C)n3ccc([100NH:0][100C:0](=O)N4CCCC(n5nc(-c6ccc(Oc7ccc(F)cc7F)cc6)c(C(N)=O)c5N)C4)c3)C(F)F)ccc2CC1C(=O)NC1CCCc2ccccc21)C(C)(C)C

> <Shape>
0.286

> <Color>
0.054

> <Negative vol penalty>
0.000

$$$$

  -OEChem-04052304473D

 85 93  0     1  0  0  0  0  0999 V2000
  -19.7789   -7.7999   19.8504 C   0  0  0  0  0  0  0  0  0  0  0  0
  -20.1226   -8.9022   20.6264 C   0  0  0  0  0  0  0  0  0  0  0  0
  -24.3761  -29.1230   22.3813 C   0  0  0  0  0  0  0  0  0  0  0  0
  -25.0732  -30.8748   20.8705 C   0  0  0  0  0  0  0  0  0  0  0  0
  -20.7718   -7.0754   19.1921 C   0  0  0  0  0  0  0  0  0  0  0  0
  -21.4596   -9.2800   20.7454 C   0  0  0  0  0  0  0  0  0  0  0  0
  -22.1170  -14.2774   20.2570 C   0  0  0  0  0  0  0  0  0  0  0  0
  -23.8920  -30.0824   23.2704 C   0  0  0  0  0  0  0  0  0  0  0  0
  -24.5890  -31.8343   21.7596 C   0  0  0  0  0  0  0  0  0  0  0  0
  -21.8020  -15.0717   21.3586 C   0  0  0  0  0  0  0  0  0  0  0  0
  -23.8616  -34.7573   23.7936 C   0  0  0  0  0  0  0  0  0  0  0  0
  -24.6669  -35.8663   24.0524 C   0  0  0  0  0  0  0  0  0  0  0  0
  -24.1418  -15.1934   21.9326 C   0  0  0  0  0  0  0  0  0  0  0  0
  -26.4015  -34.4104   24.8943 C   0  0  0  0  0  0  0  0  0  0  0  0
  -24.9668  -29.5192   21.1813 C   0  0  0  0  0  0  0  0  0  0  0  0
  -24.7620  -27.9064   19.2154 C   0  0  0  0  0  0  0  0  0  0  0  0
  -22.1206   -7.4503   19.2953 C   0  0  0  0  0  0  0  0  0  0  0  0
  -23.4481  -13.9255   19.9907 C   0  0  0  0  0  0  0  0  0  0  0  0
  -22.4716   -8.5591   20.0890 C   0  0  0  0  0  0  0  0  0  0  0  0
  -24.4714  -14.3966   20.8255 C   0  0  0  0  0  0  0  0  0  0  0  0
  -23.9984  -31.4381   22.9596 C   0  0  0  0  0  0  0  0  0  0  0  0
  -22.8141  -15.5275   22.1983 C   0  0  0  0  0  0  0  0  0  0  0  0
  -24.3262  -33.4747   24.0852 C   0  0  0  0  0  0  0  0  0  0  0  0
  -25.9369  -35.6929   24.6027 C   0  0  0  0  0  0  0  0  0  0  0  0
  -25.5961  -33.3013   24.6355 C   0  0  0  0  0  0  0  0  0  0  0  0
  -25.3267  -20.1173   20.5349 C   0  0  0  0  0  0  0  0  0  0  0  0
  -26.3446  -20.8847   19.8984 C   0  0  0  0  0  0  0  0  0  0  0  0
  -25.4677  -28.5285   20.2627 C   0  0  0  0  0  0  0  0  0  0  0  0
  -27.5578  -20.7689   20.5404 C   0  0  0  0  0  0  0  0  0  0  0  0
  -25.6749  -27.0530   18.6456 C   0  0  0  0  0  0  0  0  0  0  0  0
  -25.8009  -19.4439   21.6393 C   0  0  0  0  0  0  0  0  0  0  0  0
  -23.4028  -28.0842   18.7951 C   0  0  0  0  0  0  0  0  0  0  0  0
  -28.8641  -21.3950   20.2113 C   0  0  0  0  0  0  0  0  0  0  0  0
  -25.0553  -11.1878   19.8299 C   0  0  0  0  0  0  0  0  0  0  0  0
  -27.4634  -13.1117   18.8191 C   0  0  0  0  0  0  0  0  0  0  0  0
  -28.8448  -16.2316   18.7509 C   0  0  0  0  0  0  0  0  0  0  0  0
  -23.8104  -18.1894   22.5355 C   0  0  0  0  0  0  0  0  0  0  0  0
  -30.0303  -23.5696   20.0249 C   0  0  0  0  0  0  0  0  0  0  0  0
  -23.1632   -6.6081   18.6036 C   0  0  0  0  0  0  0  0  0  0  0  0
  -23.7740  -13.0901   18.7831 C   0  0  0  0  0  0  0  0  0  0  0  0
  -25.9182  -14.0639   20.5716 C   0  0  0  0  0  0  0  0  0  0  0  0
  -24.5190   -7.2984   18.4785 C   0  0  0  0  0  0  0  0  0  0  0  0
  -30.6178  -26.7543   18.6073 C   0  0  0  0  0  0  0  0  0  0  0  0
  -24.9168   -7.9379   19.8050 C   0  0  0  0  0  0  0  0  0  0  0  0
  -29.2790  -27.4776   18.7769 C   0  0  0  0  0  0  0  0  0  0  0  0
  -30.9389  -25.8660   19.8084 C   0  0  0  0  0  0  0  0  0  0  0  0
  -28.5489  -25.6422   20.3525 C   0  0  0  0  0  0  0  0  0  0  0  0
  -23.9084   -9.0150   20.2226 C   0  0  1  0  0  0  0  0  0  0  0  0
  -25.1122  -12.3669   18.9003 C   0  0  1  0  0  0  0  0  0  0  0  0
  -28.1470  -26.4950   19.1382 C   0  0  1  0  0  0  0  0  0  0  0  0
  -30.8351  -17.4861   17.8777 C   0  0  0  0  0  0  0  0  0  0  0  0
  -22.9770  -18.0049   24.9085 C   0  0  0  0  0  0  0  0  0  0  0  0
  -29.1949  -11.8867   21.0126 C   0  0  0  0  0  0  0  0  0  0  0  0
  -30.7911  -13.7933   20.7208 C   0  0  0  0  0  0  0  0  0  0  0  0
  -30.3640  -12.2258   18.8279 C   0  0  0  0  0  0  0  0  0  0  0  0
  -27.1457  -18.0212   17.1171 C   0  0  0  0  0  0  0  0  0  0  0  0
  -28.5728  -13.8807   19.4950 C   0  0  1  0  0  0  0  0  0  0  0  0
  -29.3995  -17.0629   17.6082 C   0  0  2  0  0  0  0  0  0  0  0  0
  -23.4929  -17.2473   23.6940 C   0  0  1  0  0  0  0  0  0  1  0  0
  -29.7033  -12.9515   20.0202 C   0  0  0  0  0  0  0  0  0  0  0  0
  -26.7314  -28.1061   20.3552 N   0  0  0  0  0  0  0  0  0  0  0  0
  -26.8270  -27.2094   19.3587 N   0  0  0  0  0  0  0  0  0  0  0  0
  -26.1855  -13.2389   19.3819 N   0  0  0  0  0  0  0  0  0  0  0  0
  -29.8221  -24.9588   20.0789 N   0  0  0  0  0  0  0  0  0  0  0  0
  -25.5966  -26.1914   17.6093 N   0  0  0  0  0  0  0  0  0  0  0  0
  -22.6029  -29.0012   19.4905 N   0  0  0  0  0  0  0  0  0  0  0  0
  -25.1450  -18.5813   22.5496 N   0  0  0  0  0  0  0  0  0  0  0  0
  -28.8921  -22.7891   20.2561 N   0  0  0  0  0  0  0  0  0  0  0  0
  -24.1263  -10.2308   19.4685 N   0  0  0  0  0  0  0  0  0  0  0  0
  -29.0208  -14.8816   18.5327 N   0  0  0  0  0  0  0  0  0  0  0  0
  -28.5765  -18.2900   17.4133 N   0  3  0  0  0  0  0  0  0  0  0  0
  -22.9074  -27.4367   17.8418 O   0  0  0  0  0  0  0  0  0  0  0  0
  -29.8274  -20.6744   19.9649 O   0  0  0  0  0  0  0  0  0  0  0  0
  -25.8001  -11.1485   20.8022 O   0  0  0  0  0  0  0  0  0  0  0  0
  -27.7198  -12.4292   17.8241 O   0  0  0  0  0  0  0  0  0  0  0  0
  -28.3123  -16.7302   19.7401 O   0  0  0  0  0  0  0  0  0  0  0  0
  -22.9501  -18.5069   21.7193 O   0  0  0  0  0  0  0  0  0  0  0  0
  -31.1261  -23.0673   19.7562 O   0  0  0  0  0  0  0  0  0  0  0  0
  -23.5258  -32.3746   23.8269 O   0  0  0  0  0  0  0  0  0  0  0  0
  -22.5093  -16.3024   23.2746 O   0  0  0  0  0  0  0  0  0  1  0  0
  -26.7107  -36.7579   24.8498 F   0  0  0  0  0  0  0  0  0  0  0  0
  -26.0483  -32.0716   24.9166 F   0  0  0  0  0  0  0  0  0  0  0  0
  -24.0608  -20.0548   20.1143 F   0  0  0  0  0  0  0  0  0  0  0  0
  -27.4668  -19.7382   21.9049 S   0  0  0  0  0  0  0  0  0  0  0  0
  -26.0445  -21.8254   18.5001 Cl  0  0  0  0  0  0  0  0  0  0  0  0
  1  2  1  0  0  0  0
  1  5  2  0  0  0  0
  2  6  2  0  0  0  0
  3  8  2  0  0  0  0
  3 15  1  0  0  0  0
  4  9  1  0  0  0  0
  4 15  2  0  0  0  0
  5 17  1  0  0  0  0
  6 19  1  0  0  0  0
  7 10  2  0  0  0  0
  7 18  1  0  0  0  0
  8 21  1  0  0  0  0
  9 21  2  0  0  0  0
 10 22  1  0  0  0  0
 11 12  2  0  0  0  0
 11 23  1  0  0  0  0
 12 24  1  0  0  0  0
 13 20  1  0  0  0  0
 13 22  2  0  0  0  0
 14 24  2  0  0  0  0
 14 25  1  0  0  0  0
 15 28  1  0  0  0  0
 16 28  1  0  0  0  0
 16 30  2  0  0  0  0
 16 32  1  0  0  0  0
 17 19  2  0  0  0  0
 17 39  1  0  0  0  0
 18 20  2  0  0  0  0
 18 40  1  0  0  0  0
 19 48  1  0  0  0  0
 20 41  1  0  0  0  0
 21 79  1  0  0  0  0
 22 80  1  0  0  0  0
 23 25  2  0  0  0  0
 23 79  1  0  0  0  0
 24 81  1  0  0  0  0
 25 82  1  0  0  0  0
 26 27  1  0  0  0  0
 26 31  2  0  0  0  0
 26 83  1  0  0  0  0
 27 29  2  0  0  0  0
 27 85  1  0  0  0  0
 28 61  2  0  0  0  0
 29 33  1  0  0  0  0
 29 84  1  0  0  0  0
 30 62  1  0  0  0  0
 30 65  1  0  0  0  0
 31 67  1  0  0  0  0
 31 84  1  0  0  0  0
 32 66  1  0  0  0  0
 32 72  2  0  0  0  0
 33 68  1  0  0  0  0
 33 73  2  0  0  0  0
 34 49  1  0  0  0  0
 34 69  1  0  0  0  0
 34 74  2  0  0  0  0
 35 57  1  0  0  0  0
 35 63  1  0  0  0  0
 35 75  2  0  0  0  0
 36 58  1  0  0  0  0
 36 70  1  0  0  0  0
 36 76  2  0  0  0  0
 37 59  1  0  0  0  0
 37 67  1  0  0  0  0
 37 77  2  0  0  0  0
 38 64  1  0  0  0  0
 38 68  1  0  0  0  0
 38 78  2  0  0  0  0
 39 42  1  0  0  0  0
 40 49  1  0  0  0  0
 41 63  1  0  0  0  0
 42 44  1  0  0  0  0
 43 45  1  0  0  0  0
 43 46  1  0  0  0  0
 44 48  1  0  0  0  0
 45 50  1  0  0  0  0
 46 64  1  0  0  0  0
 47 50  1  0  0  0  0
 47 64  1  0  0  0  0
 48 69  1  0  0  0  0
 49 63  1  0  0  0  0
 50 62  1  0  0  0  0
 51 58  1  0  0  0  0
 52 59  1  0  0  0  0
 53 60  1  0  0  0  0
 54 60  1  0  0  0  0
 55 60  1  0  0  0  0
 56 71  1  0  0  0  0
 57 60  1  0  0  0  0
 57 70  1  0  0  0  0
 58 71  1  0  0  0  0
 59 80  1  0  0  0  0
 61 62  1  0  0  0  0
M  CHG  1  71   1
M  ISO  4  38 100  59 101  68 100  80 101
M  END
> <Batch ID>
0179

> <Smiles>
CNC(C)C(=O)NC(C(=O)N1Cc2cc([101O:1][101CH:1](C)C(=O)Nc3sc(C(=O)[100NH:0][100C:0](=O)N4CCCC(n5nc(-c6ccc(Oc7ccc(F)cc7F)cc6)c(C(N)=O)c5N)C4)c(Cl)c3F)ccc2CC1C(=O)NC1CCCc2ccccc21)C(C)(C)C

> <Shape>
0.305

> <Color>
0.064

> <Negative vol penalty>
0.000

$$$$

  -OEChem-04052304473D

 86 94  0     1  0  0  0  0  0999 V2000
  -27.9107  -37.4263   22.7739 C   0  0  0  0  0  0  0  0  0  0  0  0
  -28.3578  -36.1107   22.7056 C   0  0  0  0  0  0  0  0  0  0  0  0
  -24.4818   -8.5330   21.4243 C   0  0  0  0  0  0  0  0  0  0  0  0
  -23.3797  -10.2484   22.7204 C   0  0  0  0  0  0  0  0  0  0  0  0
  -26.5767  -37.6931   23.0790 C   0  0  0  0  0  0  0  0  0  0  0  0
  -27.4712  -35.0610   22.9435 C   0  0  0  0  0  0  0  0  0  0  0  0
  -27.4692  -29.5614   20.2489 C   0  0  0  0  0  0  0  0  0  0  0  0
  -24.0820   -7.5734   22.3544 C   0  0  0  0  0  0  0  0  0  0  0  0
  -22.9799   -9.2888   23.6505 C   0  0  0  0  0  0  0  0  0  0  0  0
  -27.9646  -28.3209   20.6485 C   0  0  0  0  0  0  0  0  0  0  0  0
  -23.0447   -4.6175   24.1987 C   0  0  0  0  0  0  0  0  0  0  0  0
  -22.5229   -3.4194   23.7109 C   0  0  0  0  0  0  0  0  0  0  0  0
  -25.7774  -27.7183   21.4683 C   0  0  0  0  0  0  0  0  0  0  0  0
  -20.7537   -4.6393   22.6070 C   0  0  0  0  0  0  0  0  0  0  0  0
  -24.1307   -9.8705   21.6074 C   0  0  0  0  0  0  0  0  0  0  0  0
  -23.8424  -11.2788   19.4999 C   0  0  0  0  0  0  0  0  0  0  0  0
  -25.6711  -36.6459   23.3112 C   0  0  0  0  0  0  0  0  0  0  0  0
  -26.1245  -29.8944   20.4663 C   0  0  0  0  0  0  0  0  0  0  0  0
  -26.1241  -35.3140   23.2533 C   0  0  0  0  0  0  0  0  0  0  0  0
  -25.2668  -28.9627   21.0682 C   0  0  0  0  0  0  0  0  0  0  0  0
  -26.1447  -19.6829   22.3639 C   0  0  0  0  0  0  0  0  0  0  0  0
  -26.2184  -18.2751   22.5709 C   0  0  0  0  0  0  0  0  0  0  0  0
  -23.3311   -7.9513   23.4674 C   0  0  0  0  0  0  0  0  0  0  0  0
  -27.1193  -27.4003   21.2609 C   0  0  0  0  0  0  0  0  0  0  0  0
  -22.4209   -5.8265   23.8907 C   0  0  0  0  0  0  0  0  0  0  0  0
  -21.3775   -3.4303   22.9151 C   0  0  0  0  0  0  0  0  0  0  0  0
  -21.2754   -5.8374   23.0948 C   0  0  0  0  0  0  0  0  0  0  0  0
  -24.5438  -10.8623   20.6473 C   0  0  0  0  0  0  0  0  0  0  0  0
  -24.6517  -12.2308   18.9295 C   0  0  0  0  0  0  0  0  0  0  0  0
  -27.1591  -20.1404   21.5520 C   0  0  0  0  0  0  0  0  0  0  0  0
  -27.2864  -17.7101   21.9090 C   0  0  0  0  0  0  0  0  0  0  0  0
  -22.5729  -10.8441   18.9949 C   0  0  0  0  0  0  0  0  0  0  0  0
  -28.5308  -23.2868   19.9845 C   0  0  0  0  0  0  0  0  0  0  0  0
  -28.6506  -24.1462   21.0160 C   0  0  0  0  0  0  0  0  0  0  0  0
  -28.5173  -21.8132   20.2619 C   0  0  0  0  0  0  0  0  0  0  0  0
  -24.6101  -32.1327   22.1397 C   0  0  0  0  0  0  0  0  0  0  0  0
  -21.9882  -30.8946   20.6854 C   0  0  0  0  0  0  0  0  0  0  0  0
  -20.5150  -28.2258   19.1512 C   0  0  0  0  0  0  0  0  0  0  0  0
  -28.8368  -15.8827   21.1326 C   0  0  0  0  0  0  0  0  0  0  0  0
  -24.2495  -36.9848   23.6841 C   0  0  0  0  0  0  0  0  0  0  0  0
  -25.5993  -31.2263   20.0052 C   0  0  0  0  0  0  0  0  0  0  0  0
  -23.8103  -29.2636   21.3059 C   0  0  0  0  0  0  0  0  0  0  0  0
  -23.2882  -35.8061   23.5541 C   0  0  0  0  0  0  0  0  0  0  0  0
  -29.2572  -13.4830   18.5361 C   0  0  0  0  0  0  0  0  0  0  0  0
  -23.8887  -34.5551   24.1875 C   0  0  0  0  0  0  0  0  0  0  0  0
  -28.0293  -12.5802   18.6745 C   0  0  0  0  0  0  0  0  0  0  0  0
  -29.7786  -13.9438   19.8961 C   0  0  0  0  0  0  0  0  0  0  0  0
  -27.5474  -13.6690   20.9037 C   0  0  0  0  0  0  0  0  0  0  0  0
  -25.1870  -34.1476   23.4806 C   0  0  1  0  0  0  0  0  0  0  0  0
  -24.3344  -31.6571   20.7413 C   0  0  1  0  0  0  0  0  0  0  0  0
  -26.9471  -13.2321   19.5574 C   0  0  2  0  0  0  0  0  0  0  0  0
  -25.0991  -20.5567   22.9529 C   0  0  0  0  0  0  0  0  0  0  0  0
  -25.2562  -17.5064   23.3996 C   0  0  0  0  0  0  0  0  0  0  0  0
  -28.4283  -23.6435   18.5325 C   0  0  0  0  0  0  0  0  0  0  0  0
  -18.3520  -27.5026   18.1043 C   0  0  0  0  0  0  0  0  0  0  0  0
  -20.7566  -30.5722   23.4584 C   0  0  0  0  0  0  0  0  0  0  0  0
  -19.0705  -29.0186   22.4525 C   0  0  0  0  0  0  0  0  0  0  0  0
  -19.1759  -31.3959   21.7042 C   0  0  0  0  0  0  0  0  0  0  0  0
  -21.8041  -27.7686   16.5267 C   0  0  0  0  0  0  0  0  0  0  0  0
  -28.6793  -25.6429   20.8947 C   0  0  0  0  0  0  0  0  0  1  0  0
  -21.0052  -29.7954   21.0087 C   0  0  1  0  0  0  0  0  0  0  0  0
  -19.7218  -28.1170   17.8615 C   0  0  2  0  0  0  0  0  0  0  0  0
  -20.0299  -30.1903   22.1534 C   0  0  0  0  0  0  0  0  0  0  0  0
  -25.7090  -11.4975   20.7982 N   0  0  0  0  0  0  0  0  0  0  0  0
  -25.7461  -12.3228   19.7382 N   0  0  0  0  0  0  0  0  0  0  0  0
  -23.3458  -30.5818   20.8431 N   0  0  0  0  0  0  0  0  0  0  0  0
  -28.6995  -14.5550   20.6752 N   0  0  0  0  0  0  0  0  0  0  0  0
  -24.5268  -12.9898   17.8201 N   0  0  0  0  0  0  0  0  0  0  0  0
  -21.8738   -9.8580   19.7043 N   0  0  0  0  0  0  0  0  0  0  0  0
  -27.4690  -21.4420   21.0906 N   0  0  0  0  0  0  0  0  0  0  0  0
  -27.7337  -16.3677   21.8343 N   0  0  0  0  0  0  0  0  0  0  0  0
  -24.8938  -33.4821   22.2294 N   0  0  0  0  0  0  0  0  0  0  0  0
  -20.3459  -29.4550   19.7527 N   0  0  0  0  0  0  0  0  0  0  0  0
  -20.4495  -27.2684   16.8759 N   0  3  0  0  0  0  0  0  0  0  0  0
  -22.0808  -11.3043   17.9368 O   0  0  0  0  0  0  0  0  0  0  0  0
  -29.3562  -21.0969   19.7265 O   0  0  0  0  0  0  0  0  0  0  0  0
  -24.5671  -31.3348   23.0687 O   0  0  0  0  0  0  0  0  0  0  0  0
  -21.5672  -31.9882   20.3001 O   0  0  0  0  0  0  0  0  0  0  0  0
  -21.2117  -27.3105   19.5839 O   0  0  0  0  0  0  0  0  0  0  0  0
  -29.8467  -16.5500   20.8943 O   0  0  0  0  0  0  0  0  0  0  0  0
  -28.8170  -23.6761   22.3106 O   0  0  0  0  0  0  0  0  0  0  0  0
  -22.9406   -7.0152   24.3751 O   0  0  0  0  0  0  0  0  0  0  0  0
  -27.6004  -26.1891   21.6524 O   0  0  0  0  0  0  0  0  0  1  0  0
  -20.8774   -2.2798   22.4455 F   0  0  0  0  0  0  0  0  0  0  0  0
  -20.6725   -6.9959   22.7946 F   0  0  0  0  0  0  0  0  0  0  0  0
  -28.1946  -18.8751   21.0429 S   0  0  0  0  0  0  0  0  0  0  0  0
  1  2  1  0  0  0  0
  1  5  2  0  0  0  0
  2  6  2  0  0  0  0
  3  8  2  0  0  0  0
  3 15  1  0  0  0  0
  4  9  1  0  0  0  0
  4 15  2  0  0  0  0
  5 17  1  0  0  0  0
  6 19  1  0  0  0  0
  7 10  2  0  0  0  0
  7 18  1  0  0  0  0
  8 23  1  0  0  0  0
  9 23  2  0  0  0  0
 10 24  1  0  0  0  0
 11 12  2  0  0  0  0
 11 25  1  0  0  0  0
 12 26  1  0  0  0  0
 13 20  1  0  0  0  0
 13 24  2  0  0  0  0
 14 26  2  0  0  0  0
 14 27  1  0  0  0  0
 15 28  1  0  0  0  0
 16 28  1  0  0  0  0
 16 29  2  0  0  0  0
 16 32  1  0  0  0  0
 17 19  2  0  0  0  0
 17 40  1  0  0  0  0
 18 20  2  0  0  0  0
 18 41  1  0  0  0  0
 19 49  1  0  0  0  0
 20 42  1  0  0  0  0
 21 22  1  0  0  0  0
 21 30  2  0  0  0  0
 21 52  1  0  0  0  0
 22 31  2  0  0  0  0
 22 53  1  0  0  0  0
 23 82  1  0  0  0  0
 24 83  1  0  0  0  0
 25 27  2  0  0  0  0
 25 82  1  0  0  0  0
 26 84  1  0  0  0  0
 27 85  1  0  0  0  0
 28 64  2  0  0  0  0
 29 65  1  0  0  0  0
 29 68  1  0  0  0  0
 30 70  1  0  0  0  0
 30 86  1  0  0  0  0
 31 71  1  0  0  0  0
 31 86  1  0  0  0  0
 32 69  1  0  0  0  0
 32 75  2  0  0  0  0
 33 34  2  0  0  0  0
 33 35  1  0  0  0  0
 33 54  1  0  0  0  0
 34 60  1  0  0  0  0
 34 81  1  0  0  0  0
 35 70  1  0  0  0  0
 35 76  2  0  0  0  0
 36 50  1  0  0  0  0
 36 72  1  0  0  0  0
 36 77  2  0  0  0  0
 37 61  1  0  0  0  0
 37 66  1  0  0  0  0
 37 78  2  0  0  0  0
 38 62  1  0  0  0  0
 38 73  1  0  0  0  0
 38 79  2  0  0  0  0
 39 67  1  0  0  0  0
 39 71  1  0  0  0  0
 39 80  2  0  0  0  0
 40 43  1  0  0  0  0
 41 50  1  0  0  0  0
 42 66  1  0  0  0  0
 43 45  1  0  0  0  0
 44 46  1  0  0  0  0
 44 47  1  0  0  0  0
 45 49  1  0  0  0  0
 46 51  1  0  0  0  0
 47 67  1  0  0  0  0
 48 51  1  0  0  0  0
 48 67  1  0  0  0  0
 49 72  1  0  0  0  0
 50 66  1  0  0  0  0
 51 65  1  0  0  0  0
 55 62  1  0  0  0  0
 56 63  1  0  0  0  0
 57 63  1  0  0  0  0
 58 63  1  0  0  0  0
 59 74  1  0  0  0  0
 60 83  1  0  0  0  0
 61 63  1  0  0  0  0
 61 73  1  0  0  0  0
 62 74  1  0  0  0  0
 64 65  1  0  0  0  0
M  CHG  1  74   1
M  ISO  4  39 100  60 101  71 100  83 101
M  END
> <Batch ID>
0179

> <Smiles>
CNC(C)C(=O)NC(C(=O)N1Cc2cc([101O:1][101CH2:1]C(=O)C(C)C(=O)Nc3sc([100NH:0][100C:0](=O)N4CCCC(n5nc(-c6ccc(Oc7ccc(F)cc7F)cc6)c(C(N)=O)c5N)C4)c(C)c3C)ccc2CC1C(=O)NC1CCCc2ccccc21)C(C)(C)C

> <Shape>
0.311

> <Color>
0.080

> <Negative vol penalty>
0.000

$$$$

  -OEChem-04052304473D

 87 95  0     1  0  0  0  0  0999 V2000
  -30.4298  -12.3661   19.3700 C   0  0  0  0  0  0  0  0  0  0  0  0
  -30.0976  -13.7045   19.1860 C   0  0  0  0  0  0  0  0  0  0  0  0
  -30.8328  -23.9133   19.7194 C   0  0  0  0  0  0  0  0  0  0  0  0
  -28.7659  -22.6981   19.4216 C   0  0  0  0  0  0  0  0  0  0  0  0
  -29.4365  -11.4392   19.6831 C   0  0  0  0  0  0  0  0  0  0  0  0
  -28.7716  -14.1165   19.3139 C   0  0  0  0  0  0  0  0  0  0  0  0
  -24.8469  -19.7222   21.4328 C   0  0  0  0  0  0  0  0  0  0  0  0
  -31.4649  -22.7385   20.1266 C   0  0  0  0  0  0  0  0  0  0  0  0
  -29.3980  -21.5233   19.8288 C   0  0  0  0  0  0  0  0  0  0  0  0
  -23.8210  -20.5511   20.9809 C   0  0  0  0  0  0  0  0  0  0  0  0
  -30.3477  -20.0844   22.7372 C   0  0  0  0  0  0  0  0  0  0  0  0
  -29.6761  -19.2695   23.6484 C   0  0  0  0  0  0  0  0  0  0  0  0
  -22.2012  -18.8751   21.6025 C   0  0  0  0  0  0  0  0  0  0  0  0
  -19.6848  -27.6353   21.7349 C   0  0  0  0  0  0  0  0  0  0  0  0
  -29.7023  -17.4591   22.0487 C   0  0  0  0  0  0  0  0  0  0  0  0
  -29.4833  -23.8931   19.3669 C   0  0  0  0  0  0  0  0  0  0  0  0
  -28.7252  -25.6053   17.6344 C   0  0  0  0  0  0  0  0  0  0  0  0
  -28.0991  -11.8417   19.8244 C   0  0  0  0  0  0  0  0  0  0  0  0
  -24.5580  -18.4569   21.9638 C   0  0  0  0  0  0  0  0  0  0  0  0
  -27.7593  -13.1938   19.6279 C   0  0  0  0  0  0  0  0  0  0  0  0
  -23.2251  -18.0331   22.0628 C   0  0  0  0  0  0  0  0  0  0  0  0
  -20.9663  -28.2338   21.9068 C   0  0  0  0  0  0  0  0  0  0  0  0
  -30.7475  -21.5435   20.1813 C   0  0  0  0  0  0  0  0  0  0  0  0
  -22.4981  -20.1264   21.0631 C   0  0  0  0  0  0  0  0  0  0  0  0
  -30.6966  -19.5867   21.4817 C   0  0  0  0  0  0  0  0  0  0  0  0
  -29.3534  -17.9568   23.3042 C   0  0  0  0  0  0  0  0  0  0  0  0
  -30.3739  -18.2741   21.1375 C   0  0  0  0  0  0  0  0  0  0  0  0
  -28.8296  -25.1065   18.9467 C   0  0  0  0  0  0  0  0  0  0  0  0
  -19.7638  -26.4181   21.0949 C   0  0  0  0  0  0  0  0  0  0  0  0
  -28.0175  -26.7749   17.7670 C   0  0  0  0  0  0  0  0  0  0  0  0
  -21.9762  -27.4510   21.3917 C   0  0  0  0  0  0  0  0  0  0  0  0
  -20.9316  -21.8043   21.5119 C   0  0  0  0  0  0  0  0  0  1  0  0
  -29.2234  -25.0600   16.4055 C   0  0  0  0  0  0  0  0  0  0  0  0
  -19.9403  -22.6422   21.1868 C   0  0  0  0  0  0  0  0  0  0  0  0
  -19.3950  -23.5597   22.2339 C   0  0  0  0  0  0  0  0  0  0  0  0
  -25.2829  -15.4682   21.1602 C   0  0  0  0  0  0  0  0  0  0  0  0
  -23.8176  -14.7705   23.9689 C   0  0  0  0  0  0  0  0  0  0  0  0
  -21.5830  -15.6921   26.3780 C   0  0  0  0  0  0  0  0  0  0  0  0
  -24.0981  -28.7367   21.8284 C   0  0  0  0  0  0  0  0  0  0  0  0
  -27.0532  -10.7953   20.1172 C   0  0  0  0  0  0  0  0  0  0  0  0
  -25.6740  -17.5856   22.4715 C   0  0  0  0  0  0  0  0  0  0  0  0
  -22.8604  -16.6920   22.6434 C   0  0  0  0  0  0  0  0  0  0  0  0
  -25.7286  -11.3775   20.6037 C   0  0  0  0  0  0  0  0  0  0  0  0
  -27.1586  -30.2983   20.8946 C   0  0  0  0  0  0  0  0  0  0  0  0
  -25.3054  -12.5495   19.7238 C   0  0  0  0  0  0  0  0  0  0  0  0
  -27.9224  -29.1913   20.1643 C   0  0  0  0  0  0  0  0  0  0  0  0
  -26.3537  -29.7505   22.0718 C   0  0  0  0  0  0  0  0  0  0  0  0
  -26.2184  -27.5296   21.0142 C   0  0  0  0  0  0  0  0  0  0  0  0
  -26.3358  -13.6837   19.7826 C   0  0  1  0  0  0  0  0  0  0  0  0
  -25.3027  -16.1068   22.5202 C   0  0  1  0  0  0  0  0  0  0  0  0
  -26.9925  -28.0234   19.7810 C   0  0  2  0  0  0  0  0  0  0  0  0
  -20.5707  -14.8990   28.5329 C   0  0  0  0  0  0  0  0  0  0  0  0
  -22.0515  -12.8234   22.4199 C   0  0  0  0  0  0  0  0  0  0  0  0
  -20.4906  -12.7909   24.3771 C   0  0  0  0  0  0  0  0  0  0  0  0
  -22.8352  -11.9809   24.6403 C   0  0  0  0  0  0  0  0  0  0  0  0
  -22.6503  -18.0152   27.8689 C   0  0  0  0  0  0  0  0  0  0  0  0
  -18.6439  -25.4752   20.7273 C   0  0  1  0  0  0  0  0  0  0  0  0
  -22.4010  -14.4586   24.3871 C   0  0  1  0  0  0  0  0  0  0  0  0
  -21.6853  -15.7115   27.8925 C   0  0  2  0  0  0  0  0  0  0  0  0
  -18.2692  -24.5057   21.8496 C   0  0  0  0  0  0  0  0  0  0  0  0
  -21.9512  -13.0380   23.9433 C   0  0  0  0  0  0  0  0  0  0  0  0
  -28.2359  -25.8948   19.8467 N   0  0  0  0  0  0  0  0  0  0  0  0
  -27.7516  -26.9009   19.0987 N   0  0  0  0  0  0  0  0  0  0  0  0
  -23.9875  -15.8738   23.1204 N   0  0  0  0  0  0  0  0  0  0  0  0
  -25.4927  -28.6503   21.6326 N   0  0  0  0  0  0  0  0  0  0  0  0
  -21.1605  -29.4323   22.5068 N   0  0  0  0  0  0  0  0  0  0  0  0
  -27.6029  -27.6976   16.8731 N   0  0  0  0  0  0  0  0  0  0  0  0
  -29.9293  -23.8501   16.4490 N   0  0  0  0  0  0  0  0  0  0  0  0
  -23.3787  -27.6460   21.3410 N   0  0  0  0  0  0  0  0  0  0  0  0
  -26.1897  -14.4363   21.0101 N   0  0  0  0  0  0  0  0  0  0  0  0
  -22.3423  -14.6812   25.8277 N   0  0  0  0  0  0  0  0  0  0  0  0
  -21.5985  -17.1101   28.3996 N   0  3  0  0  0  0  0  0  0  0  0  0
  -29.0618  -25.6373   15.3036 O   0  0  0  0  0  0  0  0  0  0  0  0
  -19.8517  -23.5684   23.3773 O   0  0  0  0  0  0  0  0  0  0  0  0
  -24.5019  -15.8801   20.3106 O   0  0  0  0  0  0  0  0  0  0  0  0
  -24.7402  -14.0658   24.3856 O   0  0  0  0  0  0  0  0  0  0  0  0
  -20.8951  -16.4912   25.7466 O   0  0  0  0  0  0  0  0  0  0  0  0
  -23.5775  -29.7192   22.3628 O   0  0  0  0  0  0  0  0  0  0  0  0
  -19.4021  -22.7009   19.9201 O   0  0  0  0  0  0  0  0  0  0  0  0
  -31.3641  -20.3968   20.5784 O   0  0  0  0  0  0  0  0  0  0  0  0
  -21.4949  -20.9333   20.6221 O   0  0  0  0  0  0  0  0  0  1  0  0
  -28.7098  -17.1739   24.1800 F   0  0  0  0  0  0  0  0  0  0  0  0
  -30.7075  -17.7900   19.9332 F   0  0  0  0  0  0  0  0  0  0  0  0
  -17.5047  -26.1590   20.3950 F   0  0  0  0  0  0  0  0  0  0  0  0
  -17.1655  -23.8077   21.4571 F   0  0  0  0  0  0  0  0  0  0  0  0
  -17.8710  -25.2284   22.9354 F   0  0  0  0  0  0  0  0  0  0  0  0
  -21.3781  -26.0012   20.7042 S   0  0  0  0  0  0  0  0  0  0  0  0
  1  2  1  0  0  0  0
  1  5  2  0  0  0  0
  2  6  2  0  0  0  0
  3  8  2  0  0  0  0
  3 16  1  0  0  0  0
  4  9  1  0  0  0  0
  4 16  2  0  0  0  0
  5 18  1  0  0  0  0
  6 20  1  0  0  0  0
  7 10  2  0  0  0  0
  7 19  1  0  0  0  0
  8 23  1  0  0  0  0
  9 23  2  0  0  0  0
 10 24  1  0  0  0  0
 11 12  2  0  0  0  0
 11 25  1  0  0  0  0
 12 26  1  0  0  0  0
 13 21  1  0  0  0  0
 13 24  2  0  0  0  0
 14 22  1  0  0  0  0
 14 29  2  0  0  0  0
 15 26  2  0  0  0  0
 15 27  1  0  0  0  0
 16 28  1  0  0  0  0
 17 28  1  0  0  0  0
 17 30  2  0  0  0  0
 17 33  1  0  0  0  0
 18 20  2  0  0  0  0
 18 40  1  0  0  0  0
 19 21  2  0  0  0  0
 19 41  1  0  0  0  0
 20 49  1  0  0  0  0
 21 42  1  0  0  0  0
 22 31  2  0  0  0  0
 22 66  1  0  0  0  0
 23 80  1  0  0  0  0
 24 81  1  0  0  0  0
 25 27  2  0  0  0  0
 25 80  1  0  0  0  0
 26 82  1  0  0  0  0
 27 83  1  0  0  0  0
 28 62  2  0  0  0  0
 29 57  1  0  0  0  0
 29 87  1  0  0  0  0
 30 63  1  0  0  0  0
 30 67  1  0  0  0  0
 31 69  1  0  0  0  0
 31 87  1  0  0  0  0
 32 34  2  0  0  0  0
 32 81  1  0  0  0  0
 33 68  1  0  0  0  0
 33 73  2  0  0  0  0
 34 35  1  0  0  0  0
 34 79  1  0  0  0  0
 35 60  1  0  0  0  0
 35 74  2  0  0  0  0
 36 50  1  0  0  0  0
 36 70  1  0  0  0  0
 36 75  2  0  0  0  0
 37 58  1  0  0  0  0
 37 64  1  0  0  0  0
 37 76  2  0  0  0  0
 38 59  1  0  0  0  0
 38 71  1  0  0  0  0
 38 77  2  0  0  0  0
 39 65  1  0  0  0  0
 39 69  1  0  0  0  0
 39 78  2  0  0  0  0
 40 43  1  0  0  0  0
 41 50  1  0  0  0  0
 42 64  1  0  0  0  0
 43 45  1  0  0  0  0
 44 46  1  0  0  0  0
 44 47  1  0  0  0  0
 45 49  1  0  0  0  0
 46 51  1  0  0  0  0
 47 65  1  0  0  0  0
 48 51  1  0  0  0  0
 48 65  1  0  0  0  0
 49 70  1  0  0  0  0
 50 64  1  0  0  0  0
 51 63  1  0  0  0  0
 52 59  1  0  0  0  0
 53 61  1  0  0  0  0
 54 61  1  0  0  0  0
 55 61  1  0  0  0  0
 56 72  1  0  0  0  0
 57 60  1  0  0  0  0
 57 84  1  0  0  0  0
 58 61  1  0  0  0  0
 58 71  1  0  0  0  0
 59 72  1  0  0  0  0
 60 85  1  0  0  0  0
 60 86  1  0  0  0  0
 62 63  1  0  0  0  0
M  CHG  1  72   1
M  ISO  4  32 101  39 100  69 100  81 101
M  END
> <Batch ID>
0179

> <Smiles>
CNC(C)C(=O)NC(C(=O)N1Cc2cc([101O:1][101CH2:1]C(=O)C(=O)C(F)(F)C(F)c3cc(N)c([100NH:0][100C:0](=O)N4CCCC(n5nc(-c6ccc(Oc7ccc(F)cc7F)cc6)c(C(N)=O)c5N)C4)s3)ccc2CC1C(=O)NC1CCCc2ccccc21)C(C)(C)C

> <Shape>
0.218

> <Color>
0.062

> <Negative vol penalty>
0.000

$$$$

  -OEChem-04052304473D

 88 96  0     1  0  0  0  0  0999 V2000
  -25.8832  -33.8976   14.6935 C   0  0  0  0  0  0  0  0  0  0  0  0
  -26.4722  -32.7934   15.3010 C   0  0  0  0  0  0  0  0  0  0  0  0
  -24.4466   -8.2163   19.9355 C   0  0  0  0  0  0  0  0  0  0  0  0
  -22.8601  -10.0352   20.0434 C   0  0  0  0  0  0  0  0  0  0  0  0
  -25.4618  -34.9766   15.4695 C   0  0  0  0  0  0  0  0  0  0  0  0
  -26.6412  -32.7679   16.6849 C   0  0  0  0  0  0  0  0  0  0  0  0
  -25.3076  -28.3281   18.7234 C   0  0  0  0  0  0  0  0  0  0  0  0
  -23.5457   -7.3905   20.6079 C   0  0  0  0  0  0  0  0  0  0  0  0
  -21.9591   -9.2094   20.7158 C   0  0  0  0  0  0  0  0  0  0  0  0
  -26.2118  -27.2740   18.6008 C   0  0  0  0  0  0  0  0  0  0  0  0
  -22.5165   -6.8974   23.7895 C   0  0  0  0  0  0  0  0  0  0  0  0
  -23.0121   -6.1086   24.8276 C   0  0  0  0  0  0  0  0  0  0  0  0
  -26.9642  -27.6648   20.8593 C   0  0  0  0  0  0  0  0  0  0  0  0
  -27.5313  -18.6805   21.3286 C   0  0  0  0  0  0  0  0  0  0  0  0
  -22.3014   -4.1192   23.6553 C   0  0  0  0  0  0  0  0  0  0  0  0
  -25.4389  -18.0305   20.8099 C   0  0  0  0  0  0  0  0  0  0  0  0
  -24.1038   -9.5386   19.6533 C   0  0  0  0  0  0  0  0  0  0  0  0
  -25.1467  -10.5731   17.5677 C   0  0  0  0  0  0  0  0  0  0  0  0
  -25.6168  -34.9601   16.8646 C   0  0  0  0  0  0  0  0  0  0  0  0
  -25.2324  -29.0667   19.9131 C   0  0  0  0  0  0  0  0  0  0  0  0
  -26.2226  -33.8482   17.4802 C   0  0  0  0  0  0  0  0  0  0  0  0
  -26.0564  -28.7261   20.9953 C   0  0  0  0  0  0  0  0  0  0  0  0
  -26.7255  -17.5689   20.9793 C   0  0  0  0  0  0  0  0  0  0  0  0
  -22.3019   -7.8871   20.9980 C   0  0  0  0  0  0  0  0  0  0  0  0
  -27.0423  -26.9440   19.6679 C   0  0  0  0  0  0  0  0  0  0  0  0
  -21.9133   -6.2971   22.6842 C   0  0  0  0  0  0  0  0  0  0  0  0
  -22.9045   -4.7195   24.7605 C   0  0  0  0  0  0  0  0  0  0  0  0
  -21.8058   -4.9080   22.6171 C   0  0  0  0  0  0  0  0  0  0  0  0
  -25.0343  -10.3922   18.9592 C   0  0  0  0  0  0  0  0  0  0  0  0
  -26.7125  -19.7877   21.3621 C   0  0  0  0  0  0  0  0  0  0  0  0
  -26.1710  -11.4763   17.4205 C   0  0  0  0  0  0  0  0  0  0  0  0
  -24.3928   -9.9780   16.5033 C   0  0  0  0  0  0  0  0  0  0  0  0
  -27.0944  -21.1879   21.6795 C   0  0  0  0  0  0  0  0  0  0  0  0
  -25.7226  -32.1070   20.7006 C   0  0  0  0  0  0  0  0  0  0  0  0
  -28.5658  -23.7511   20.4289 C   0  0  0  0  0  0  0  0  0  0  0  0
  -24.5999  -31.1350   23.5846 C   0  0  0  0  0  0  0  0  0  0  0  0
  -24.0874  -28.5733   25.7804 C   0  0  0  0  0  0  0  0  0  0  0  0
  -28.4248  -15.7091   20.9855 C   0  0  0  0  0  0  0  0  0  0  0  0
  -25.1888  -36.1700   17.6569 C   0  0  0  0  0  0  0  0  0  0  0  0
  -24.2330  -30.1838   20.0386 C   0  0  0  0  0  0  0  0  0  0  0  0
  -26.0004  -29.4748   22.3010 C   0  0  0  0  0  0  0  0  0  0  0  0
  -25.0633  -35.9040   19.1548 C   0  0  0  0  0  0  0  0  0  0  0  0
  -30.1885  -12.9637   19.5609 C   0  0  0  0  0  0  0  0  0  0  0  0
  -26.2809  -35.1398   19.6652 C   0  0  0  0  0  0  0  0  0  0  0  0
  -29.0770  -12.0119   19.1129 C   0  0  0  0  0  0  0  0  0  0  0  0
  -29.8381  -13.6684   20.8703 C   0  0  0  0  0  0  0  0  0  0  0  0
  -27.4288  -13.4038   20.4294 C   0  0  0  0  0  0  0  0  0  0  0  0
  -26.4006  -33.7726   18.9811 C   0  0  1  0  0  0  0  0  0  0  0  0
  -24.6019  -31.1971   21.1176 C   0  0  1  0  0  0  0  0  0  0  0  0
  -27.7080  -12.7194   19.0813 C   0  0  2  0  0  0  0  0  0  0  0  0
  -23.1839  -28.0940   28.0720 C   0  0  0  0  0  0  0  0  0  0  0  0
  -27.1288  -32.3084   24.8244 C   0  0  0  0  0  0  0  0  0  0  0  0
  -26.6392  -30.9928   26.8975 C   0  0  0  0  0  0  0  0  0  0  0  0
  -25.0346  -32.7382   26.1221 C   0  0  0  0  0  0  0  0  0  0  0  0
  -24.2756  -20.2313   20.9674 C   0  0  0  0  0  0  0  0  0  0  0  0
  -22.0058  -26.7635   24.7078 C   0  0  0  0  0  0  0  0  0  0  0  0
  -28.2532  -25.2016   20.7419 C   0  0  0  0  0  0  0  0  0  1  0  0
  -28.9185  -22.8686   21.6173 C   0  0  2  0  0  0  0  0  0  0  0  0
  -25.2215  -30.5683   24.8381 C   0  0  1  0  0  0  0  0  0  0  0  0
  -22.8670  -28.1663   26.5864 C   0  0  2  0  0  0  0  0  0  0  0  0
  -26.0087  -31.6389   25.6454 C   0  0  0  0  0  0  0  0  0  0  0  0
  -30.4144  -22.8418   21.8397 C   0  0  0  0  0  0  0  0  0  0  0  0
  -25.9167  -11.1218   19.6470 N   0  0  0  0  0  0  0  0  0  0  0  0
  -25.4428  -19.3806   21.0455 N   0  0  0  0  0  0  0  0  0  0  0  0
  -26.5935  -11.7698   18.6837 N   0  0  0  0  0  0  0  0  0  0  0  0
  -25.0113  -30.5629   22.3724 N   0  0  0  0  0  0  0  0  0  0  0  0
  -28.5306  -14.3196   20.7645 N   0  0  0  0  0  0  0  0  0  0  0  0
  -26.7424  -12.0401   16.3352 N   0  0  0  0  0  0  0  0  0  0  0  0
  -23.3760   -9.0707   16.8308 N   0  0  0  0  0  0  0  0  0  0  0  0
  -27.1380  -16.2221   20.8253 N   0  0  0  0  0  0  0  0  0  0  0  0
  -28.3928  -21.5555   21.3504 N   0  0  0  0  0  0  0  0  0  0  0  0
  -25.4596  -32.8356   19.5563 N   0  0  0  0  0  0  0  0  0  0  0  0
  -24.1370  -29.9369   25.5821 N   0  0  0  0  0  0  0  0  0  0  0  0
  -22.3767  -26.8301   26.1448 N   0  3  0  0  0  0  0  0  0  0  0  0
  -24.6250  -10.2304   15.2967 O   0  0  0  0  0  0  0  0  0  0  0  0
  -26.2748  -21.9254   22.2205 O   0  0  0  0  0  0  0  0  0  0  0  0
  -26.7493  -32.1462   21.3685 O   0  0  0  0  0  0  0  0  0  0  0  0
  -28.5635  -23.3227   19.2746 O   0  0  0  0  0  0  0  0  0  0  0  0
  -23.7742  -32.0467   23.6779 O   0  0  0  0  0  0  0  0  0  0  0  0
  -24.9159  -27.7630   25.3711 O   0  0  0  0  0  0  0  0  0  0  0  0
  -29.4085  -16.3981   21.2673 O   0  0  0  0  0  0  0  0  0  0  0  0
  -21.4225   -7.0816   21.6540 O   0  0  0  0  0  0  0  0  0  0  0  0
  -27.9263  -25.9160   19.5507 O   0  0  0  0  0  0  0  0  0  1  0  0
  -23.3819   -3.9621   25.7568 F   0  0  0  0  0  0  0  0  0  0  0  0
  -21.2283   -4.3256   21.5573 F   0  0  0  0  0  0  0  0  0  0  0  0
  -30.7388  -22.0327   22.8723 F   0  0  0  0  0  0  0  0  0  0  0  0
  -30.9057  -24.0706   22.1079 F   0  0  0  0  0  0  0  0  0  0  0  0
  -31.0552  -22.3722   20.7454 F   0  0  0  0  0  0  0  0  0  0  0  0
  1  2  1  0  0  0  0
  1  5  2  0  0  0  0
  2  6  2  0  0  0  0
  3  8  2  0  0  0  0
  3 17  1  0  0  0  0
  4  9  1  0  0  0  0
  4 17  2  0  0  0  0
  5 19  1  0  0  0  0
  6 21  1  0  0  0  0
  7 10  2  0  0  0  0
  7 20  1  0  0  0  0
  8 24  1  0  0  0  0
  9 24  2  0  0  0  0
 10 25  1  0  0  0  0
 11 12  2  0  0  0  0
 11 26  1  0  0  0  0
 12 27  1  0  0  0  0
 13 22  1  0  0  0  0
 13 25  2  0  0  0  0
 14 23  1  0  0  0  0
 14 30  2  0  0  0  0
 15 27  2  0  0  0  0
 15 28  1  0  0  0  0
 16 23  2  0  0  0  0
 16 64  1  0  0  0  0
 17 29  1  0  0  0  0
 18 29  1  0  0  0  0
 18 31  2  0  0  0  0
 18 32  1  0  0  0  0
 19 21  2  0  0  0  0
 19 39  1  0  0  0  0
 20 22  2  0  0  0  0
 20 40  1  0  0  0  0
 21 48  1  0  0  0  0
 22 41  1  0  0  0  0
 23 70  1  0  0  0  0
 24 82  1  0  0  0  0
 25 83  1  0  0  0  0
 26 28  2  0  0  0  0
 26 82  1  0  0  0  0
 27 84  1  0  0  0  0
 28 85  1  0  0  0  0
 29 63  2  0  0  0  0
 30 33  1  0  0  0  0
 30 64  1  0  0  0  0
 31 65  1  0  0  0  0
 31 68  1  0  0  0  0
 32 69  1  0  0  0  0
 32 75  2  0  0  0  0
 33 71  1  0  0  0  0
 33 76  2  0  0  0  0
 34 49  1  0  0  0  0
 34 72  1  0  0  0  0
 34 77  2  0  0  0  0
 35 57  1  0  0  0  0
 35 58  1  0  0  0  0
 35 78  2  0  0  0  0
 36 59  1  0  0  0  0
 36 66  1  0  0  0  0
 36 79  2  0  0  0  0
 37 60  1  0  0  0  0
 37 73  1  0  0  0  0
 37 80  2  0  0  0  0
 38 67  1  0  0  0  0
 38 70  1  0  0  0  0
 38 81  2  0  0  0  0
 39 42  1  0  0  0  0
 40 49  1  0  0  0  0
 41 66  1  0  0  0  0
 42 44  1  0  0  0  0
 43 45  1  0  0  0  0
 43 46  1  0  0  0  0
 44 48  1  0  0  0  0
 45 50  1  0  0  0  0
 46 67  1  0  0  0  0
 47 50  1  0  0  0  0
 47 67  1  0  0  0  0
 48 72  1  0  0  0  0
 49 66  1  0  0  0  0
 50 65  1  0  0  0  0
 51 60  1  0  0  0  0
 52 61  1  0  0  0  0
 53 61  1  0  0  0  0
 54 61  1  0  0  0  0
 55 64  1  0  0  0  0
 56 74  1  0  0  0  0
 57 83  1  0  0  0  0
 58 62  1  0  0  0  0
 58 71  1  0  0  0  0
 59 61  1  0  0  0  0
 59 73  1  0  0  0  0
 60 74  1  0  0  0  0
 62 86  1  0  0  0  0
 62 87  1  0  0  0  0
 62 88  1  0  0  0  0
 63 65  1  0  0  0  0
M  CHG  1  74   1
M  ISO  4  38 100  57 101  70 100  83 101
M  END
> <Batch ID>
0179

> <Smiles>
CNC(C)C(=O)NC(C(=O)N1Cc2cc([101O:1][101CH2:1]C(=O)C(NC(=O)c3cc([100NH:0][100C:0](=O)N4CCCC(n5nc(-c6ccc(Oc7ccc(F)cc7F)cc6)c(C(N)=O)c5N)C4)cn3C)C(F)(F)F)ccc2CC1C(=O)NC1CCCc2ccccc21)C(C)(C)C

> <Shape>
0.255

> <Color>
0.135

> <Negative vol penalty>
0.000

$$$$

  -OEChem-04052304473D

 87 95  0     1  0  0  0  0  0999 V2000
  -24.2857  -34.7495   14.3780 C   0  0  0  0  0  0  0  0  0  0  0  0
  -24.4534  -33.3948   14.6466 C   0  0  0  0  0  0  0  0  0  0  0  0
  -23.1874   -9.7966   21.1533 C   0  0  0  0  0  0  0  0  0  0  0  0
  -23.9275  -10.5483   23.3268 C   0  0  0  0  0  0  0  0  0  0  0  0
  -25.0138  -35.6968   15.0965 C   0  0  0  0  0  0  0  0  0  0  0  0
  -25.3503  -32.9867   15.6333 C   0  0  0  0  0  0  0  0  0  0  0  0
  -24.7614  -28.1812   19.3837 C   0  0  0  0  0  0  0  0  0  0  0  0
  -22.5033   -8.7388   21.7520 C   0  0  0  0  0  0  0  0  0  0  0  0
  -23.2433   -9.4905   23.9256 C   0  0  0  0  0  0  0  0  0  0  0  0
  -25.2862  -26.8901   19.3436 C   0  0  0  0  0  0  0  0  0  0  0  0
  -23.2472   -5.7054   23.0442 C   0  0  0  0  0  0  0  0  0  0  0  0
  -23.3756   -4.4421   22.4671 C   0  0  0  0  0  0  0  0  0  0  0  0
  -27.0780  -27.5796   20.8041 C   0  0  0  0  0  0  0  0  0  0  0  0
  -20.9886   -4.3662   22.1019 C   0  0  0  0  0  0  0  0  0  0  0  0
  -23.8996  -10.7014   21.9407 C   0  0  0  0  0  0  0  0  0  0  0  0
  -24.1089  -13.0816   21.0471 C   0  0  0  0  0  0  0  0  0  0  0  0
  -25.9129  -35.3006   16.0991 C   0  0  0  0  0  0  0  0  0  0  0  0
  -25.3981  -29.1855   20.1269 C   0  0  0  0  0  0  0  0  0  0  0  0
  -26.0921  -33.9296   16.3650 C   0  0  0  0  0  0  0  0  0  0  0  0
  -26.5578  -28.8819   20.8541 C   0  0  0  0  0  0  0  0  0  0  0  0
  -22.5312   -8.5857   23.1382 C   0  0  0  0  0  0  0  0  0  0  0  0
  -26.4462  -26.5899   20.0515 C   0  0  0  0  0  0  0  0  0  0  0  0
  -21.9894   -6.2991   23.1503 C   0  0  0  0  0  0  0  0  0  0  0  0
  -22.2464   -3.7725   21.9959 C   0  0  0  0  0  0  0  0  0  0  0  0
  -20.8601   -5.6295   22.6791 C   0  0  0  0  0  0  0  0  0  0  0  0
  -24.6069  -11.7940   21.3227 C   0  0  0  0  0  0  0  0  0  0  0  0
  -30.3007  -19.9022   21.1541 C   0  0  0  0  0  0  0  0  0  0  0  0
  -31.4263  -19.3816   20.5507 C   0  0  0  0  0  0  0  0  0  0  0  0
  -25.1630  -13.7394   20.4617 C   0  0  0  0  0  0  0  0  0  0  0  0
  -30.2859  -17.5225   20.7811 C   0  0  0  0  0  0  0  0  0  0  0  0
  -22.8097  -13.6337   21.2981 C   0  0  0  0  0  0  0  0  0  0  0  0
  -29.9617  -21.2982   21.5329 C   0  0  0  0  0  0  0  0  0  0  0  0
  -26.7563  -31.9731   19.4283 C   0  0  0  0  0  0  0  0  0  0  0  0
  -27.3544  -22.7093   23.7687 C   0  0  0  0  0  0  0  0  0  0  0  0
  -27.5423  -23.3855   21.3337 C   0  0  0  0  0  0  0  0  0  0  0  0
  -26.9795  -32.2301   22.6542 C   0  0  0  0  0  0  0  0  0  0  0  0
  -27.1070  -30.6634   25.6835 C   0  0  0  0  0  0  0  0  0  0  0  0
  -30.5651  -15.0737   20.2597 C   0  0  0  0  0  0  0  0  0  0  0  0
  -26.7126  -36.3590   16.8167 C   0  0  0  0  0  0  0  0  0  0  0  0
  -24.8044  -30.5665   20.1815 C   0  0  0  0  0  0  0  0  0  0  0  0
  -27.2681  -29.9192   21.6835 C   0  0  0  0  0  0  0  0  0  0  0  0
  -27.3657  -35.8610   18.1035 C   0  0  0  0  0  0  0  0  0  0  0  0
  -29.5982  -11.9937   18.7577 C   0  0  0  0  0  0  0  0  0  0  0  0
  -28.0505  -34.5182   17.8696 C   0  0  0  0  0  0  0  0  0  0  0  0
  -28.1725  -11.7731   19.2685 C   0  0  0  0  0  0  0  0  0  0  0  0
  -30.4903  -12.6285   19.8230 C   0  0  0  0  0  0  0  0  0  0  0  0
  -28.5369  -13.6413   20.9310 C   0  0  0  0  0  0  0  0  0  0  0  0
  -27.0371  -33.4487   17.4447 C   0  0  1  0  0  0  0  0  0  0  0  0
  -25.8217  -31.6397   20.5565 C   0  0  1  0  0  0  0  0  0  0  0  0
  -27.5840  -13.0635   19.8718 C   0  0  2  0  0  0  0  0  0  0  0  0
  -27.3675  -23.8518   24.7524 C   0  0  0  0  0  0  0  0  0  0  0  0
  -27.3289  -31.1363   28.1380 C   0  0  0  0  0  0  0  0  0  0  0  0
  -29.9614  -32.7583   22.2805 C   0  0  0  0  0  0  0  0  0  0  0  0
  -30.2808  -32.2779   24.7168 C   0  0  0  0  0  0  0  0  0  0  0  0
  -28.8549  -34.1959   24.0020 C   0  0  0  0  0  0  0  0  0  0  0  0
  -24.4718  -29.4523   26.2731 C   0  0  0  0  0  0  0  0  0  0  0  0
  -27.6756  -24.8862   21.1659 C   0  0  0  0  0  0  0  0  0  1  0  0
  -28.2425  -22.7791   22.5366 C   0  0  2  0  0  0  0  0  0  0  0  0
  -28.0047  -31.8355   23.6897 C   0  0  1  0  0  0  0  0  0  0  0  0
  -26.3643  -30.9201   26.9823 C   0  0  2  0  0  0  0  0  0  0  0  0
  -29.2634  -32.7476   23.6552 C   0  0  0  0  0  0  0  0  0  0  0  0
  -25.8784  -11.6408   20.9433 N   0  0  0  0  0  0  0  0  0  0  0  0
  -31.4198  -18.0171   20.3364 N   0  0  0  0  0  0  0  0  0  0  0  0
  -26.1882  -12.8407   20.4233 N   0  0  0  0  0  0  0  0  0  0  0  0
  -26.6522  -31.2564   21.7000 N   0  0  0  0  0  0  0  0  0  0  0  0
  -29.8709  -13.8483   20.3458 N   0  0  0  0  0  0  0  0  0  0  0  0
  -32.4938  -20.1259   20.1742 N   0  0  0  0  0  0  0  0  0  0  0  0
  -25.3036  -14.9930   19.9810 N   0  0  0  0  0  0  0  0  0  0  0  0
  -21.8444  -12.8204   21.9072 N   0  0  0  0  0  0  0  0  0  0  0  0
  -29.8634  -16.1702   20.7597 N   0  0  0  0  0  0  0  0  0  0  0  0
  -28.7228  -21.4861   22.1359 N   0  0  0  0  0  0  0  0  0  0  0  0
  -26.2949  -32.9716   18.5918 N   0  0  0  0  0  0  0  0  0  0  0  0
  -27.3079  -31.8270   24.9715 N   0  0  0  0  0  0  0  0  0  0  0  0
  -25.4855  -29.7630   27.3138 N   0  3  0  0  0  0  0  0  0  0  0  0
  -22.5086  -14.8082   20.9763 O   0  0  0  0  0  0  0  0  0  0  0  0
  -30.7598  -22.1980   21.2842 O   0  0  0  0  0  0  0  0  0  0  0  0
  -27.8182  -31.3703   19.3253 O   0  0  0  0  0  0  0  0  0  0  0  0
  -26.5991  -21.7493   23.9418 O   0  0  0  0  0  0  0  0  0  0  0  0
  -26.8755  -22.7018   20.5565 O   0  0  0  0  0  0  0  0  0  0  0  0
  -26.4821  -33.3581   22.6950 O   0  0  0  0  0  0  0  0  0  0  0  0
  -27.4757  -29.5433   25.3371 O   0  0  0  0  0  0  0  0  0  0  0  0
  -31.6874  -15.1495   19.7532 O   0  0  0  0  0  0  0  0  0  0  0  0
  -21.8636   -7.5537   23.7228 O   0  0  0  0  0  0  0  0  0  0  0  0
  -26.9610  -25.3307   20.0135 O   0  0  0  0  0  0  0  0  0  1  0  0
  -22.3701   -2.5600   21.4403 F   0  0  0  0  0  0  0  0  0  0  0  0
  -19.6493   -6.1953   22.7772 F   0  0  0  0  0  0  0  0  0  0  0  0
  -29.1814  -18.6415   21.4687 S   0  0  0  0  0  0  0  0  0  0  0  0
  1  2  1  0  0  0  0
  1  5  2  0  0  0  0
  2  6  2  0  0  0  0
  3  8  2  0  0  0  0
  3 15  1  0  0  0  0
  4  9  1  0  0  0  0
  4 15  2  0  0  0  0
  5 17  1  0  0  0  0
  6 19  1  0  0  0  0
  7 10  2  0  0  0  0
  7 18  1  0  0  0  0
  8 21  1  0  0  0  0
  9 21  2  0  0  0  0
 10 22  1  0  0  0  0
 11 12  2  0  0  0  0
 11 23  1  0  0  0  0
 12 24  1  0  0  0  0
 13 20  1  0  0  0  0
 13 22  2  0  0  0  0
 14 24  2  0  0  0  0
 14 25  1  0  0  0  0
 15 26  1  0  0  0  0
 16 26  1  0  0  0  0
 16 29  2  0  0  0  0
 16 31  1  0  0  0  0
 17 19  2  0  0  0  0
 17 39  1  0  0  0  0
 18 20  2  0  0  0  0
 18 40  1  0  0  0  0
 19 48  1  0  0  0  0
 20 41  1  0  0  0  0
 21 83  1  0  0  0  0
 22 84  1  0  0  0  0
 23 25  2  0  0  0  0
 23 83  1  0  0  0  0
 24 85  1  0  0  0  0
 25 86  1  0  0  0  0
 26 62  2  0  0  0  0
 27 28  2  0  0  0  0
 27 32  1  0  0  0  0
 27 87  1  0  0  0  0
 28 63  1  0  0  0  0
 28 67  1  0  0  0  0
 29 64  1  0  0  0  0
 29 68  1  0  0  0  0
 30 63  2  0  0  0  0
 30 70  1  0  0  0  0
 30 87  1  0  0  0  0
 31 69  1  0  0  0  0
 31 75  2  0  0  0  0
 32 71  1  0  0  0  0
 32 76  2  0  0  0  0
 33 49  1  0  0  0  0
 33 72  1  0  0  0  0
 33 77  2  0  0  0  0
 34 51  1  0  0  0  0
 34 58  1  0  0  0  0
 34 78  2  0  0  0  0
 35 57  1  0  0  0  0
 35 58  1  0  0  0  0
 35 79  2  0  0  0  0
 36 59  1  0  0  0  0
 36 65  1  0  0  0  0
 36 80  2  0  0  0  0
 37 60  1  0  0  0  0
 37 73  1  0  0  0  0
 37 81  2  0  0  0  0
 38 66  1  0  0  0  0
 38 70  1  0  0  0  0
 38 82  2  0  0  0  0
 39 42  1  0  0  0  0
 40 49  1  0  0  0  0
 41 65  1  0  0  0  0
 42 44  1  0  0  0  0
 43 45  1  0  0  0  0
 43 46  1  0  0  0  0
 44 48  1  0  0  0  0
 45 50  1  0  0  0  0
 46 66  1  0  0  0  0
 47 50  1  0  0  0  0
 47 66  1  0  0  0  0
 48 72  1  0  0  0  0
 49 65  1  0  0  0  0
 50 64  1  0  0  0  0
 52 60  1  0  0  0  0
 53 61  1  0  0  0  0
 54 61  1  0  0  0  0
 55 61  1  0  0  0  0
 56 74  1  0  0  0  0
 57 84  1  0  0  0  0
 58 71  1  0  0  0  0
 59 61  1  0  0  0  0
 59 73  1  0  0  0  0
 60 74  1  0  0  0  0
 62 64  1  0  0  0  0
M  CHG  1  74   1
M  ISO  4  38 100  57 101  70 100  84 101
M  END
> <Batch ID>
0179

> <Smiles>
CNC(C)C(=O)NC(C(=O)N1Cc2cc([101O:1][101CH2:1]C(=O)C(NC(=O)c3sc([100NH:0][100C:0](=O)N4CCCC(n5nc(-c6ccc(Oc7ccc(F)cc7F)cc6)c(C(N)=O)c5N)C4)nc3N)C(C)=O)ccc2CC1C(=O)NC1CCCc2ccccc21)C(C)(C)C

> <Shape>
0.294

> <Color>
0.162

> <Negative vol penalty>
0.000

$$$$

  -OEChem-04052304473D

 86 94  0     1  0  0  0  0  0999 V2000
  -31.1570  -16.3999   16.6456 C   0  0  0  0  0  0  0  0  0  0  0  0
  -30.7911  -17.1013   17.7900 C   0  0  0  0  0  0  0  0  0  0  0  0
  -23.0016   -9.8884   19.9823 C   0  0  0  0  0  0  0  0  0  0  0  0
  -23.7272   -9.9433   22.2861 C   0  0  0  0  0  0  0  0  0  0  0  0
  -32.2281  -16.8428   15.8706 C   0  0  0  0  0  0  0  0  0  0  0  0
  -31.4967  -18.2455   18.1606 C   0  0  0  0  0  0  0  0  0  0  0  0
  -28.4479  -22.0483   19.5348 C   0  0  0  0  0  0  0  0  0  0  0  0
  -22.2367   -8.7532   20.2503 C   0  0  0  0  0  0  0  0  0  0  0  0
  -22.9623   -8.8081   22.5541 C   0  0  0  0  0  0  0  0  0  0  0  0
  -27.8900  -21.9877   20.8111 C   0  0  0  0  0  0  0  0  0  0  0  0
  -23.2112   -5.4689   22.0864 C   0  0  0  0  0  0  0  0  0  0  0  0
  -23.8003   -4.4535   22.8397 C   0  0  0  0  0  0  0  0  0  0  0  0
  -29.5632  -23.5314   21.6091 C   0  0  0  0  0  0  0  0  0  0  0  0
  -22.0765   -4.6961   24.5150 C   0  0  0  0  0  0  0  0  0  0  0  0
  -23.7469  -10.4835   21.0003 C   0  0  0  0  0  0  0  0  0  0  0  0
  -24.1286  -12.9994   20.8210 C   0  0  0  0  0  0  0  0  0  0  0  0
  -32.9411  -17.9985   16.2266 C   0  0  0  0  0  0  0  0  0  0  0  0
  -29.5761  -22.8437   19.2882 C   0  0  0  0  0  0  0  0  0  0  0  0
  -32.5791  -18.7035   17.3903 C   0  0  0  0  0  0  0  0  0  0  0  0
  -30.1319  -23.6023   20.3283 C   0  0  0  0  0  0  0  0  0  0  0  0
  -22.2170   -8.2130   21.5362 C   0  0  0  0  0  0  0  0  0  0  0  0
  -28.4494  -22.7270   21.8492 C   0  0  0  0  0  0  0  0  0  0  0  0
  -22.0547   -6.0980   22.5474 C   0  0  0  0  0  0  0  0  0  0  0  0
  -23.2330   -4.0671   24.0539 C   0  0  0  0  0  0  0  0  0  0  0  0
  -21.4874   -5.7116   23.7617 C   0  0  0  0  0  0  0  0  0  0  0  0
  -24.5376  -11.6558   20.7240 C   0  0  0  0  0  0  0  0  0  0  0  0
  -30.7280  -19.0772   22.9130 C   0  0  0  0  0  0  0  0  0  0  0  0
  -31.8351  -18.6737   22.1963 C   0  0  0  0  0  0  0  0  0  0  0  0
  -25.2373  -13.7231   20.4554 C   0  0  0  0  0  0  0  0  0  0  0  0
  -30.5754  -16.9066   21.8795 C   0  0  0  0  0  0  0  0  0  0  0  0
  -22.8600  -13.5445   21.2071 C   0  0  0  0  0  0  0  0  0  0  0  0
  -30.4670  -20.3291   23.6691 C   0  0  0  0  0  0  0  0  0  0  0  0
  -32.5513  -22.2789   18.3225 C   0  0  0  0  0  0  0  0  0  0  0  0
  -32.7405  -25.5170   18.2893 C   0  0  0  0  0  0  0  0  0  0  0  0
  -34.1616  -19.1149   21.3495 C   0  0  0  0  0  0  0  0  0  0  0  0
  -31.5657  -28.4999   19.4592 C   0  0  0  0  0  0  0  0  0  0  0  0
  -30.7155  -14.6920   20.6869 C   0  0  0  0  0  0  0  0  0  0  0  0
  -34.1214  -18.4117   15.3836 C   0  0  0  0  0  0  0  0  0  0  0  0
  -30.1498  -22.9190   17.8998 C   0  0  0  0  0  0  0  0  0  0  0  0
  -31.3309  -24.4875   20.1110 C   0  0  0  0  0  0  0  0  0  0  0  0
  -34.5805  -19.8449   15.6392 C   0  0  0  0  0  0  0  0  0  0  0  0
  -29.6001  -12.2348   18.3643 C   0  0  0  0  0  0  0  0  0  0  0  0
  -34.6731  -20.1166   17.1373 C   0  0  0  0  0  0  0  0  0  0  0  0
  -28.1499  -11.9756   18.7791 C   0  0  0  0  0  0  0  0  0  0  0  0
  -30.5005  -12.4809   19.5735 C   0  0  0  0  0  0  0  0  0  0  0  0
  -28.5844  -13.2687   20.9066 C   0  0  0  0  0  0  0  0  0  0  0  0
  -33.3044  -19.9632   17.8115 C   0  0  1  0  0  0  0  0  0  0  0  0
  -31.6093  -23.3625   17.8796 C   0  0  1  0  0  0  0  0  0  0  0  0
  -27.6267  -13.0796   19.7188 C   0  0  2  0  0  0  0  0  0  0  0  0
  -35.1881  -20.2166   21.4342 C   0  0  0  0  0  0  0  0  0  0  0  0
  -31.9446  -30.9740   19.2779 C   0  0  0  0  0  0  0  0  0  0  0  0
  -28.3729  -24.0872   24.9901 C   0  0  0  0  0  0  0  0  0  0  0  0
  -35.2119  -25.2659   20.0611 C   0  0  0  0  0  0  0  0  0  0  0  0
  -34.9765  -27.6963   20.6143 C   0  0  0  0  0  0  0  0  0  0  0  0
  -35.3916  -26.9898   18.2582 C   0  0  0  0  0  0  0  0  0  0  0  0
  -28.8362  -28.9584   18.4110 C   0  0  0  0  0  0  0  0  0  0  0  0
  -28.8172  -21.5794   25.0369 C   0  0  0  0  0  0  0  0  0  0  0  0
  -33.1231  -26.5759   19.2949 C   0  0  1  0  0  0  0  0  0  0  0  0
  -31.1721  -29.7787   18.7420 C   0  0  2  0  0  0  0  0  0  0  0  0
  -28.7934  -22.8556   24.1989 C   0  0  1  0  0  0  0  0  0  1  0  0
  -34.6544  -26.6139   19.5620 C   0  0  0  0  0  0  0  0  0  0  0  0
  -25.8070  -11.5306   20.3277 N   0  0  0  0  0  0  0  0  0  0  0  0
  -31.7496  -17.4292   21.6033 N   0  0  0  0  0  0  0  0  0  0  0  0
  -26.2052  -12.8048   20.1723 N   0  0  0  0  0  0  0  0  0  0  0  0
  -31.8595  -24.5226   18.7374 N   0  0  0  0  0  0  0  0  0  0  0  0
  -29.9442  -13.5421   20.4157 N   0  0  0  0  0  0  0  0  0  0  0  0
  -25.4689  -15.0490   20.3516 N   0  0  0  0  0  0  0  0  0  0  0  0
  -21.8295  -12.6593   21.5520 N   0  0  0  0  0  0  0  0  0  0  0  0
  -32.9807  -19.4294   22.0547 N   0  0  0  0  0  0  0  0  0  0  0  0
  -30.0701  -15.6473   21.4715 N   0  0  0  0  0  0  0  0  0  0  0  0
  -29.2270  -20.4206   24.2889 N   0  0  0  0  0  0  0  0  0  0  0  0
  -32.4837  -21.1284   17.5602 N   0  0  0  0  0  0  0  0  0  0  0  0
  -32.5724  -27.8312   18.7955 N   0  0  0  0  0  0  0  0  0  0  0  0
  -29.7160  -30.0434   18.9167 N   0  3  0  0  0  0  0  0  0  0  0  0
  -22.6415  -14.7795   21.2293 O   0  0  0  0  0  0  0  0  0  0  0  0
  -31.3263  -21.2063   23.6923 O   0  0  0  0  0  0  0  0  0  0  0  0
  -33.2862  -22.4728   19.2838 O   0  0  0  0  0  0  0  0  0  0  0  0
  -33.2006  -25.5742   17.1462 O   0  0  0  0  0  0  0  0  0  0  0  0
  -34.3923  -18.0887   20.7183 O   0  0  0  0  0  0  0  0  0  0  0  0
  -31.0359  -28.1331   20.5058 O   0  0  0  0  0  0  0  0  0  0  0  0
  -31.8538  -14.8320   20.2325 O   0  0  0  0  0  0  0  0  0  0  0  0
  -21.4706   -7.1054   21.7981 O   0  0  0  0  0  0  0  0  0  0  0  0
  -27.9072  -22.6692   23.0960 O   0  0  0  0  0  0  0  0  0  1  0  0
  -23.7980   -3.0909   24.7764 F   0  0  0  0  0  0  0  0  0  0  0  0
  -20.3758   -6.3115   24.2092 F   0  0  0  0  0  0  0  0  0  0  0  0
  -29.5242  -17.8574   22.8470 S   0  0  0  0  0  0  0  0  0  0  0  0
  1  2  1  0  0  0  0
  1  5  2  0  0  0  0
  2  6  2  0  0  0  0
  3  8  2  0  0  0  0
  3 15  1  0  0  0  0
  4  9  1  0  0  0  0
  4 15  2  0  0  0  0
  5 17  1  0  0  0  0
  6 19  1  0  0  0  0
  7 10  2  0  0  0  0
  7 18  1  0  0  0  0
  8 21  1  0  0  0  0
  9 21  2  0  0  0  0
 10 22  1  0  0  0  0
 11 12  2  0  0  0  0
 11 23  1  0  0  0  0
 12 24  1  0  0  0  0
 13 20  1  0  0  0  0
 13 22  2  0  0  0  0
 14 24  2  0  0  0  0
 14 25  1  0  0  0  0
 15 26  1  0  0  0  0
 16 26  1  0  0  0  0
 16 29  2  0  0  0  0
 16 31  1  0  0  0  0
 17 19  2  0  0  0  0
 17 38  1  0  0  0  0
 18 20  2  0  0  0  0
 18 39  1  0  0  0  0
 19 47  1  0  0  0  0
 20 40  1  0  0  0  0
 21 82  1  0  0  0  0
 22 83  1  0  0  0  0
 23 25  2  0  0  0  0
 23 82  1  0  0  0  0
 24 84  1  0  0  0  0
 25 85  1  0  0  0  0
 26 62  2  0  0  0  0
 27 28  2  0  0  0  0
 27 32  1  0  0  0  0
 27 86  1  0  0  0  0
 28 63  1  0  0  0  0
 28 69  1  0  0  0  0
 29 64  1  0  0  0  0
 29 67  1  0  0  0  0
 30 63  2  0  0  0  0
 30 70  1  0  0  0  0
 30 86  1  0  0  0  0
 31 68  1  0  0  0  0
 31 75  2  0  0  0  0
 32 71  1  0  0  0  0
 32 76  2  0  0  0  0
 33 48  1  0  0  0  0
 33 72  1  0  0  0  0
 33 77  2  0  0  0  0
 34 58  1  0  0  0  0
 34 65  1  0  0  0  0
 34 78  2  0  0  0  0
 35 50  1  0  0  0  0
 35 69  1  0  0  0  0
 35 79  2  0  0  0  0
 36 59  1  0  0  0  0
 36 73  1  0  0  0  0
 36 80  2  0  0  0  0
 37 66  1  0  0  0  0
 37 70  1  0  0  0  0
 37 81  2  0  0  0  0
 38 41  1  0  0  0  0
 39 48  1  0  0  0  0
 40 65  1  0  0  0  0
 41 43  1  0  0  0  0
 42 44  1  0  0  0  0
 42 45  1  0  0  0  0
 43 47  1  0  0  0  0
 44 49  1  0  0  0  0
 45 66  1  0  0  0  0
 46 49  1  0  0  0  0
 46 66  1  0  0  0  0
 47 72  1  0  0  0  0
 48 65  1  0  0  0  0
 49 64  1  0  0  0  0
 51 59  1  0  0  0  0
 52 60  1  0  0  0  0
 53 61  1  0  0  0  0
 54 61  1  0  0  0  0
 55 61  1  0  0  0  0
 56 74  1  0  0  0  0
 57 60  1  0  0  0  0
 57 71  1  0  0  0  0
 58 61  1  0  0  0  0
 58 73  1  0  0  0  0
 59 74  1  0  0  0  0
 60 83  1  0  0  0  0
 62 64  1  0  0  0  0
M  CHG  1  74   1
M  ISO  4  37 100  60 101  70 100  83 101
M  END
> <Batch ID>
0179

> <Smiles>
CNC(C)C(=O)NC(C(=O)N1Cc2cc([101O:1][101CH:1](C)CNC(=O)c3sc([100NH:0][100C:0](=O)N4CCCC(n5nc(-c6ccc(Oc7ccc(F)cc7F)cc6)c(C(N)=O)c5N)C4)nc3NC(C)=O)ccc2CC1C(=O)NC1CCCc2ccccc21)C(C)(C)C

> <Shape>
0.240

> <Color>
0.186

> <Negative vol penalty>
0.000

$$$$

  -OEChem-04052304473D

 85 93  0     1  0  0  0  0  0999 V2000
  -31.4946  -33.2630   26.1991 C   0  0  0  0  0  0  0  0  0  0  0  0
  -31.3825  -31.8763   26.2037 C   0  0  0  0  0  0  0  0  0  0  0  0
  -23.0047   -9.8902   19.9767 C   0  0  0  0  0  0  0  0  0  0  0  0
  -23.7299   -9.9378   22.2808 C   0  0  0  0  0  0  0  0  0  0  0  0
  -31.0674  -33.9921   25.0901 C   0  0  0  0  0  0  0  0  0  0  0  0
  -30.8421  -31.2180   25.0996 C   0  0  0  0  0  0  0  0  0  0  0  0
  -33.5249  -27.1346   23.7679 C   0  0  0  0  0  0  0  0  0  0  0  0
  -22.2402   -8.7538   20.2408 C   0  0  0  0  0  0  0  0  0  0  0  0
  -22.9654   -8.8014   22.5449 C   0  0  0  0  0  0  0  0  0  0  0  0
  -33.3506  -25.9813   24.5318 C   0  0  0  0  0  0  0  0  0  0  0  0
  -23.2156   -5.4639   22.0662 C   0  0  0  0  0  0  0  0  0  0  0  0
  -23.8050   -4.4462   22.8162 C   0  0  0  0  0  0  0  0  0  0  0  0
  -31.8658  -25.0979   22.8483 C   0  0  0  0  0  0  0  0  0  0  0  0
  -22.0807   -4.6827   24.4920 C   0  0  0  0  0  0  0  0  0  0  0  0
  -31.9067  -18.7590   22.3405 C   0  0  0  0  0  0  0  0  0  0  0  0
  -23.7496  -10.4822   20.9967 C   0  0  0  0  0  0  0  0  0  0  0  0
  -24.1305  -12.9988   20.8258 C   0  0  0  0  0  0  0  0  0  0  0  0
  -30.5305  -33.3416   23.9680 C   0  0  0  0  0  0  0  0  0  0  0  0
  -32.8613  -27.2831   22.5416 C   0  0  0  0  0  0  0  0  0  0  0  0
  -30.4062  -31.9392   23.9751 C   0  0  0  0  0  0  0  0  0  0  0  0
  -32.0354  -26.2529   22.0696 C   0  0  0  0  0  0  0  0  0  0  0  0
  -22.2205   -8.2094   21.5249 C   0  0  0  0  0  0  0  0  0  0  0  0
  -32.5187  -24.9640   24.0733 C   0  0  0  0  0  0  0  0  0  0  0  0
  -22.0588   -6.0910   22.5291 C   0  0  0  0  0  0  0  0  0  0  0  0
  -23.2375   -4.0556   24.0291 C   0  0  0  0  0  0  0  0  0  0  0  0
  -21.4914   -5.7004   23.7420 C   0  0  0  0  0  0  0  0  0  0  0  0
  -31.8104  -17.4866   21.7064 C   0  0  0  0  0  0  0  0  0  0  0  0
  -24.5400  -11.6557   20.7244 C   0  0  0  0  0  0  0  0  0  0  0  0
  -25.2389  -13.7241   20.4628 C   0  0  0  0  0  0  0  0  0  0  0  0
  -30.7531  -19.0883   23.0175 C   0  0  0  0  0  0  0  0  0  0  0  0
  -30.5868  -16.8919   21.9232 C   0  0  0  0  0  0  0  0  0  0  0  0
  -22.8616  -13.5422   21.2134 C   0  0  0  0  0  0  0  0  0  0  0  0
  -30.4887  -22.3693   24.8763 C   0  0  0  0  0  0  0  0  0  0  0  0
  -31.0819  -23.5291   25.2341 C   0  0  0  0  0  0  0  0  0  1  0  0
  -31.2109  -21.3529   24.0214 C   0  0  0  0  0  0  0  0  0  0  0  0
  -30.7127  -29.3207   21.3861 C   0  0  0  0  0  0  0  0  0  0  0  0
  -31.2441  -27.7081   18.6221 C   0  0  0  0  0  0  0  0  0  0  0  0
  -32.2768  -24.8353   17.0966 C   0  0  0  0  0  0  0  0  0  0  0  0
  -30.7167  -14.6943   20.6984 C   0  0  0  0  0  0  0  0  0  0  0  0
  -30.0387  -34.1757   22.8117 C   0  0  0  0  0  0  0  0  0  0  0  0
  -33.0808  -28.5217   21.7169 C   0  0  0  0  0  0  0  0  0  0  0  0
  -31.3162  -26.3546   20.7501 C   0  0  0  0  0  0  0  0  0  0  0  0
  -29.8234  -33.3742   21.5305 C   0  0  0  0  0  0  0  0  0  0  0  0
  -29.6026  -12.2443   18.3675 C   0  0  0  0  0  0  0  0  0  0  0  0
  -29.0598  -32.0875   21.8278 C   0  0  0  0  0  0  0  0  0  0  0  0
  -28.1525  -11.9832   18.7812 C   0  0  0  0  0  0  0  0  0  0  0  0
  -30.5028  -12.4867   19.5777 C   0  0  0  0  0  0  0  0  0  0  0  0
  -28.5861  -13.2695   20.9130 C   0  0  0  0  0  0  0  0  0  0  0  0
  -29.8483  -31.1870   22.7863 C   0  0  1  0  0  0  0  0  0  0  0  0
  -31.9522  -28.7872   20.7254 C   0  0  1  0  0  0  0  0  0  0  0  0
  -27.6287  -13.0839   19.7245 C   0  0  2  0  0  0  0  0  0  0  0  0
  -30.7026  -24.3782   27.5655 C   0  0  0  0  0  0  0  0  0  0  0  0
  -32.5624  -23.8029   14.8273 C   0  0  0  0  0  0  0  0  0  0  0  0
  -28.2299  -27.2682   18.4456 C   0  0  0  0  0  0  0  0  0  0  0  0
  -28.6607  -25.4798   16.7473 C   0  0  0  0  0  0  0  0  0  0  0  0
  -29.3304  -27.8354   16.2727 C   0  0  0  0  0  0  0  0  0  0  0  0
  -35.1934  -24.5137   17.4822 C   0  0  0  0  0  0  0  0  0  0  0  0
  -30.4355  -24.5990   26.0842 C   0  0  0  0  0  0  0  0  0  0  0  0
  -30.6439  -26.4899   17.9628 C   0  0  1  0  0  0  0  0  0  0  0  0
  -33.2303  -24.5956   15.9400 C   0  0  2  0  0  0  0  0  0  0  0  0
  -29.2281  -26.7669   17.3829 C   0  0  0  0  0  0  0  0  0  0  0  0
  -25.8095  -11.5323   20.3279 N   0  0  0  0  0  0  0  0  0  0  0  0
  -26.2072  -12.8071   20.1768 N   0  0  0  0  0  0  0  0  0  0  0  0
  -31.5581  -27.5879   19.9833 N   0  0  0  0  0  0  0  0  0  0  0  0
  -29.9459  -13.5449   20.4233 N   0  0  0  0  0  0  0  0  0  0  0  0
  -25.4701  -15.0504   20.3634 N   0  0  0  0  0  0  0  0  0  0  0  0
  -21.8314  -12.6555   21.5552 N   0  0  0  0  0  0  0  0  0  0  0  0
  -30.4191  -20.2376   23.7738 N   0  0  0  0  0  0  0  0  0  0  0  0
  -30.0709  -15.6467   21.4860 N   0  0  0  0  0  0  0  0  0  0  0  0
  -30.9076  -30.5005   22.0786 N   0  0  0  0  0  0  0  0  0  0  0  0
  -31.6172  -26.0399   16.9736 N   0  0  0  0  0  0  0  0  0  0  0  0
  -34.4270  -23.8381   16.4037 N   0  3  0  0  0  0  0  0  0  0  0  0
  -22.6427  -14.7770   21.2397 O   0  0  0  0  0  0  0  0  0  0  0  0
  -32.3536  -21.5413   23.6204 O   0  0  0  0  0  0  0  0  0  0  0  0
  -29.6572  -28.7082   21.2745 O   0  0  0  0  0  0  0  0  0  0  0  0
  -31.4342  -28.7264   17.9524 O   0  0  0  0  0  0  0  0  0  0  0  0
  -32.1288  -24.0323   18.0153 O   0  0  0  0  0  0  0  0  0  0  0  0
  -31.8551  -14.8361   20.2446 O   0  0  0  0  0  0  0  0  0  0  0  0
  -29.2071  -22.0235   25.2687 O   0  0  0  0  0  0  0  0  0  0  0  0
  -21.4744   -7.1007   21.7830 O   0  0  0  0  0  0  0  0  0  0  0  0
  -32.3463  -23.8376   24.8172 O   0  0  0  0  0  0  0  0  0  1  0  0
  -23.8028   -3.0772   24.7485 F   0  0  0  0  0  0  0  0  0  0  0  0
  -20.3795   -6.2984   24.1913 F   0  0  0  0  0  0  0  0  0  0  0  0
  -32.7928  -16.9402   20.9873 F   0  0  0  0  0  0  0  0  0  0  0  0
  -29.5606  -17.8663   22.8874 S   0  0  0  0  0  0  0  0  0  0  0  0
  1  2  1  0  0  0  0
  1  5  2  0  0  0  0
  2  6  2  0  0  0  0
  3  8  2  0  0  0  0
  3 16  1  0  0  0  0
  4  9  1  0  0  0  0
  4 16  2  0  0  0  0
  5 18  1  0  0  0  0
  6 20  1  0  0  0  0
  7 10  2  0  0  0  0
  7 19  1  0  0  0  0
  8 22  1  0  0  0  0
  9 22  2  0  0  0  0
 10 23  1  0  0  0  0
 11 12  2  0  0  0  0
 11 24  1  0  0  0  0
 12 25  1  0  0  0  0
 13 21  1  0  0  0  0
 13 23  2  0  0  0  0
 14 25  2  0  0  0  0
 14 26  1  0  0  0  0
 15 27  1  0  0  0  0
 15 30  2  0  0  0  0
 16 28  1  0  0  0  0
 17 28  1  0  0  0  0
 17 29  2  0  0  0  0
 17 32  1  0  0  0  0
 18 20  2  0  0  0  0
 18 40  1  0  0  0  0
 19 21  2  0  0  0  0
 19 41  1  0  0  0  0
 20 49  1  0  0  0  0
 21 42  1  0  0  0  0
 22 80  1  0  0  0  0
 23 81  1  0  0  0  0
 24 26  2  0  0  0  0
 24 80  1  0  0  0  0
 25 82  1  0  0  0  0
 26 83  1  0  0  0  0
 27 31  2  0  0  0  0
 27 84  1  0  0  0  0
 28 62  2  0  0  0  0
 29 63  1  0  0  0  0
 29 66  1  0  0  0  0
 30 68  1  0  0  0  0
 30 85  1  0  0  0  0
 31 69  1  0  0  0  0
 31 85  1  0  0  0  0
 32 67  1  0  0  0  0
 32 73  2  0  0  0  0
 33 34  2  0  0  0  0
 33 35  1  0  0  0  0
 33 79  1  0  0  0  0
 34 58  1  0  0  0  0
 34 81  1  0  0  0  0
 35 68  1  0  0  0  0
 35 74  2  0  0  0  0
 36 50  1  0  0  0  0
 36 70  1  0  0  0  0
 36 75  2  0  0  0  0
 37 59  1  0  0  0  0
 37 64  1  0  0  0  0
 37 76  2  0  0  0  0
 38 60  1  0  0  0  0
 38 71  1  0  0  0  0
 38 77  2  0  0  0  0
 39 65  1  0  0  0  0
 39 69  1  0  0  0  0
 39 78  2  0  0  0  0
 40 43  1  0  0  0  0
 41 50  1  0  0  0  0
 42 64  1  0  0  0  0
 43 45  1  0  0  0  0
 44 46  1  0  0  0  0
 44 47  1  0  0  0  0
 45 49  1  0  0  0  0
 46 51  1  0  0  0  0
 47 65  1  0  0  0  0
 48 51  1  0  0  0  0
 48 65  1  0  0  0  0
 49 70  1  0  0  0  0
 50 64  1  0  0  0  0
 51 63  1  0  0  0  0
 52 58  1  0  0  0  0
 53 60  1  0  0  0  0
 54 61  1  0  0  0  0
 55 61  1  0  0  0  0
 56 61  1  0  0  0  0
 57 72  1  0  0  0  0
 59 61  1  0  0  0  0
 59 71  1  0  0  0  0
 60 72  1  0  0  0  0
 62 63  1  0  0  0  0
M  CHG  1  72   1
M  ISO  4  34 101  39 100  69 100  81 101
M  END
> <Batch ID>
0179

> <Smiles>
CC[101CH:1](C(=O)C(=O)Nc1cc(F)c([100NH:0][100C:0](=O)N2CCCC(n3nc(-c4ccc(Oc5ccc(F)cc5F)cc4)c(C(N)=O)c3N)C2)s1)[101O:1]c1ccc2c(c1)CN(C(=O)C(NC(=O)C(C)NC)C(C)(C)C)C(C(=O)NC1CCCc3ccccc31)C2

> <Shape>
0.216

> <Color>
0.190

> <Negative vol penalty>
0.000

$$$$

  -OEChem-04052304473D

 84 92  0     1  0  0  0  0  0999 V2000
  -25.8792  -35.4991   22.9875 C   0  0  0  0  0  0  0  0  0  0  0  0
  -26.4344  -34.2304   22.8548 C   0  0  0  0  0  0  0  0  0  0  0  0
  -22.7772  -10.7037   21.8544 C   0  0  0  0  0  0  0  0  0  0  0  0
  -24.9416  -10.8737   22.9143 C   0  0  0  0  0  0  0  0  0  0  0  0
  -24.5536  -35.6394   23.3961 C   0  0  0  0  0  0  0  0  0  0  0  0
  -25.6646  -33.1012   23.1318 C   0  0  0  0  0  0  0  0  0  0  0  0
  -26.1989  -29.4796   19.6327 C   0  0  0  0  0  0  0  0  0  0  0  0
  -22.8660   -9.3124   21.8961 C   0  0  0  0  0  0  0  0  0  0  0  0
  -25.0304   -9.4823   22.9560 C   0  0  0  0  0  0  0  0  0  0  0  0
  -27.3526  -28.6994   19.6949 C   0  0  0  0  0  0  0  0  0  0  0  0
  -22.4401   -6.8566   24.1810 C   0  0  0  0  0  0  0  0  0  0  0  0
  -21.3157   -6.1476   24.6036 C   0  0  0  0  0  0  0  0  0  0  0  0
  -26.1019  -26.9475   20.7839 C   0  0  0  0  0  0  0  0  0  0  0  0
  -21.2363   -5.0052   22.4763 C   0  0  0  0  0  0  0  0  0  0  0  0
  -23.8150  -11.4844   22.3634 C   0  0  0  0  0  0  0  0  0  0  0  0
  -23.1769  -13.7690   23.3023 C   0  0  0  0  0  0  0  0  0  0  0  0
  -23.7642  -34.5111   23.6689 C   0  0  0  0  0  0  0  0  0  0  0  0
  -24.9884  -29.0032   20.1563 C   0  0  0  0  0  0  0  0  0  0  0  0
  -24.3276  -33.2266   23.5457 C   0  0  0  0  0  0  0  0  0  0  0  0
  -24.9337  -27.7226   20.7248 C   0  0  0  0  0  0  0  0  0  0  0  0
  -23.9926   -8.7016   22.4469 C   0  0  0  0  0  0  0  0  0  0  0  0
  -27.3049  -27.4343   20.2732 C   0  0  0  0  0  0  0  0  0  0  0  0
  -22.9626   -6.6399   22.9059 C   0  0  0  0  0  0  0  0  0  0  0  0
  -20.7138   -5.2219   23.7513 C   0  0  0  0  0  0  0  0  0  0  0  0
  -22.3607   -5.7142   22.0536 C   0  0  0  0  0  0  0  0  0  0  0  0
  -23.7241  -12.9218   22.3201 C   0  0  0  0  0  0  0  0  0  0  0  0
  -29.3578  -18.9039   20.6938 C   0  0  0  0  0  0  0  0  0  0  0  0
  -23.3299  -15.0336   22.7888 C   0  0  0  0  0  0  0  0  0  0  0  0
  -29.3060  -18.9572   22.0709 C   0  0  0  0  0  0  0  0  0  0  0  0
  -29.3550  -21.0832   20.9395 C   0  0  0  0  0  0  0  0  0  0  0  0
  -22.5833  -13.4420   24.5658 C   0  0  0  0  0  0  0  0  0  0  0  0
  -29.4498  -24.6133   19.6404 C   0  0  0  0  0  0  0  0  0  0  0  0
  -29.4127  -23.1197   19.4931 C   0  0  0  0  0  0  0  0  0  0  0  0
  -23.0212  -29.9419   22.4699 C   0  0  0  0  0  0  0  0  0  0  0  0
  -21.1613  -27.5416   21.3290 C   0  0  0  0  0  0  0  0  0  0  0  0
  -20.9616  -24.5887   19.6299 C   0  0  0  0  0  0  0  0  0  0  0  0
  -27.1502  -17.3908   18.8265 C   0  0  0  0  0  0  0  0  0  0  0  0
  -22.3504  -34.7141   24.1533 C   0  0  0  0  0  0  0  0  0  0  0  0
  -23.7467  -29.8464   20.0574 C   0  0  0  0  0  0  0  0  0  0  0  0
  -23.6543  -27.1568   21.2830 C   0  0  0  0  0  0  0  0  0  0  0  0
  -21.4900  -33.4562   24.0659 C   0  0  0  0  0  0  0  0  0  0  0  0
  -23.5954  -17.3783   18.6267 C   0  0  0  0  0  0  0  0  0  0  0  0
  -22.2448  -32.2534   24.6231 C   0  0  0  0  0  0  0  0  0  0  0  0
  -23.1759  -16.3112   19.6392 C   0  0  0  0  0  0  0  0  0  0  0  0
  -24.8853  -16.9951   17.9046 C   0  0  0  0  0  0  0  0  0  0  0  0
  -25.5963  -15.5945   19.8038 C   0  0  0  0  0  0  0  0  0  0  0  0
  -23.5171  -31.9768   23.8130 C   0  0  1  0  0  0  0  0  0  0  0  0
  -22.6841  -29.4680   21.0845 C   0  0  1  0  0  0  0  0  0  0  0  0
  -24.3308  -15.9624   20.5973 C   0  0  2  0  0  0  0  0  0  0  0  0
  -19.3110  -22.8487   18.8913 C   0  0  0  0  0  0  0  0  0  0  0  0
  -21.0457  -26.4470   24.1747 C   0  0  0  0  0  0  0  0  0  0  0  0
  -20.2270  -24.2768   23.2322 C   0  0  0  0  0  0  0  0  0  0  0  0
  -18.8775  -26.3531   22.9320 C   0  0  0  0  0  0  0  0  0  0  0  0
  -21.5695  -25.0584   16.7718 C   0  0  0  0  0  0  0  0  0  0  0  0
  -29.3849  -17.6786   19.8671 C   0  0  0  0  0  0  0  0  0  0  0  0
  -28.2566  -25.2549   20.2991 C   0  0  0  0  0  0  0  0  0  1  0  0
  -21.0203  -26.0673   21.6210 C   0  0  1  0  0  0  0  0  0  0  0  0
  -20.0405  -24.1287   18.5143 C   0  0  2  0  0  0  0  0  0  0  0  0
  -20.3173  -25.7972   22.9813 C   0  0  0  0  0  0  0  0  0  0  0  0
  -24.1899  -13.5918   21.2626 N   0  0  0  0  0  0  0  0  0  0  0  0
  -29.3855  -20.1220   20.0433 N   0  0  0  0  0  0  0  0  0  0  0  0
  -23.9356  -14.8733   21.5774 N   0  0  0  0  0  0  0  0  0  0  0  0
  -22.4687  -28.0221   21.1684 N   0  0  0  0  0  0  0  0  0  0  0  0
  -25.9408  -16.6778   18.8696 N   0  0  0  0  0  0  0  0  0  0  0  0
  -23.0040  -16.2561   23.2599 N   0  0  0  0  0  0  0  0  0  0  0  0
  -29.2694  -17.9236   22.9468 N   0  0  0  0  0  0  0  0  0  0  0  0
  -22.5059  -12.0931   24.9385 N   0  0  0  0  0  0  0  0  0  0  0  0
  -29.3666  -22.4792   20.7126 N   0  0  0  0  0  0  0  0  0  0  0  0
  -23.1904  -31.3096   22.5711 N   0  0  0  0  0  0  0  0  0  0  0  0
  -20.3376  -25.4866   20.4699 N   0  0  0  0  0  0  0  0  0  0  0  0
  -28.0946  -17.0317   19.7805 N   0  0  0  0  0  0  0  0  0  0  0  0
  -20.8202  -23.8762   17.2697 N   0  3  0  0  0  0  0  0  0  0  0  0
  -22.1201  -14.3187   25.3340 O   0  0  0  0  0  0  0  0  0  0  0  0
  -30.4271  -25.2006   19.2016 O   0  0  0  0  0  0  0  0  0  0  0  0
  -29.4532  -22.6816   18.3553 O   0  0  0  0  0  0  0  0  0  0  0  0
  -23.1190  -29.1272   23.3801 O   0  0  0  0  0  0  0  0  0  0  0  0
  -20.1484  -28.2399   21.2392 O   0  0  0  0  0  0  0  0  0  0  0  0
  -22.1177  -24.1884   19.7467 O   0  0  0  0  0  0  0  0  0  0  0  0
  -27.3701  -18.2851   18.0025 O   0  0  0  0  0  0  0  0  0  0  0  0
  -24.0795   -7.3439   22.4881 O   0  0  0  0  0  0  0  0  0  0  0  0
  -28.4297  -26.6709   20.3358 O   0  0  0  0  0  0  0  0  0  1  0  0
  -19.6349   -4.5401   24.1579 F   0  0  0  0  0  0  0  0  0  0  0  0
  -22.8589   -5.5008   20.8280 F   0  0  0  0  0  0  0  0  0  0  0  0
  -29.2930  -20.5938   22.5832 S   0  0  0  0  0  0  0  0  0  0  0  0
  1  2  1  0  0  0  0
  1  5  2  0  0  0  0
  2  6  2  0  0  0  0
  3  8  2  0  0  0  0
  3 15  1  0  0  0  0
  4  9  1  0  0  0  0
  4 15  2  0  0  0  0
  5 17  1  0  0  0  0
  6 19  1  0  0  0  0
  7 10  2  0  0  0  0
  7 18  1  0  0  0  0
  8 21  1  0  0  0  0
  9 21  2  0  0  0  0
 10 22  1  0  0  0  0
 11 12  2  0  0  0  0
 11 23  1  0  0  0  0
 12 24  1  0  0  0  0
 13 20  1  0  0  0  0
 13 22  2  0  0  0  0
 14 24  2  0  0  0  0
 14 25  1  0  0  0  0
 15 26  1  0  0  0  0
 16 26  1  0  0  0  0
 16 28  2  0  0  0  0
 16 31  1  0  0  0  0
 17 19  2  0  0  0  0
 17 38  1  0  0  0  0
 18 20  2  0  0  0  0
 18 39  1  0  0  0  0
 19 47  1  0  0  0  0
 20 40  1  0  0  0  0
 21 80  1  0  0  0  0
 22 81  1  0  0  0  0
 23 25  2  0  0  0  0
 23 80  1  0  0  0  0
 24 82  1  0  0  0  0
 25 83  1  0  0  0  0
 26 60  2  0  0  0  0
 27 29  2  0  0  0  0
 27 55  1  0  0  0  0
 27 61  1  0  0  0  0
 28 62  1  0  0  0  0
 28 65  1  0  0  0  0
 29 66  1  0  0  0  0
 29 84  1  0  0  0  0
 30 61  2  0  0  0  0
 30 68  1  0  0  0  0
 30 84  1  0  0  0  0
 31 67  1  0  0  0  0
 31 73  2  0  0  0  0
 32 33  1  0  0  0  0
 32 56  1  0  0  0  0
 32 74  2  0  0  0  0
 33 68  1  0  0  0  0
 33 75  2  0  0  0  0
 34 48  1  0  0  0  0
 34 69  1  0  0  0  0
 34 76  2  0  0  0  0
 35 57  1  0  0  0  0
 35 63  1  0  0  0  0
 35 77  2  0  0  0  0
 36 58  1  0  0  0  0
 36 70  1  0  0  0  0
 36 78  2  0  0  0  0
 37 64  1  0  0  0  0
 37 71  1  0  0  0  0
 37 79  2  0  0  0  0
 38 41  1  0  0  0  0
 39 48  1  0  0  0  0
 40 63  1  0  0  0  0
 41 43  1  0  0  0  0
 42 44  1  0  0  0  0
 42 45  1  0  0  0  0
 43 47  1  0  0  0  0
 44 49  1  0  0  0  0
 45 64  1  0  0  0  0
 46 49  1  0  0  0  0
 46 64  1  0  0  0  0
 47 69  1  0  0  0  0
 48 63  1  0  0  0  0
 49 62  1  0  0  0  0
 50 58  1  0  0  0  0
 51 59  1  0  0  0  0
 52 59  1  0  0  0  0
 53 59  1  0  0  0  0
 54 72  1  0  0  0  0
 55 71  1  0  0  0  0
 56 81  1  0  0  0  0
 57 59  1  0  0  0  0
 57 70  1  0  0  0  0
 58 72  1  0  0  0  0
 60 62  1  0  0  0  0
M  CHG  1  72   1
M  ISO  4  37 100  56 101  71 100  81 101
M  END
> <Batch ID>
0179

> <Smiles>
CNC(C)C(=O)NC(C(=O)N1Cc2cc([101O:1][101CH2:1]C(=O)C(=O)Nc3nc(C[100NH:0][100C:0](=O)N4CCCC(n5nc(-c6ccc(Oc7ccc(F)cc7F)cc6)c(C(N)=O)c5N)C4)c(N)s3)ccc2CC1C(=O)NC1CCCc2ccccc21)C(C)(C)C

> <Shape>
0.294

> <Color>
0.103

> <Negative vol penalty>
0.000

$$$$

  -OEChem-04052304473D

 95103  0     1  0  0  0  0  0999 V2000
  -16.8539  -31.2811   20.1841 C   0  0  0  0  0  0  0  0  0  0  0  0
  -18.1268  -31.8417   20.2116 C   0  0  0  0  0  0  0  0  0  0  0  0
  -24.4601   -8.6057   20.8266 C   0  0  0  0  0  0  0  0  0  0  0  0
  -22.6592  -10.2154   20.7767 C   0  0  0  0  0  0  0  0  0  0  0  0
  -16.4968  -30.3184   21.1273 C   0  0  0  0  0  0  0  0  0  0  0  0
  -19.0432  -31.4406   21.1831 C   0  0  0  0  0  0  0  0  0  0  0  0
  -25.4009  -28.6011   19.3368 C   0  0  0  0  0  0  0  0  0  0  0  0
  -23.5483   -7.5949   21.1306 C   0  0  0  0  0  0  0  0  0  0  0  0
  -21.7473   -9.2046   21.0807 C   0  0  0  0  0  0  0  0  0  0  0  0
  -26.7217  -28.2448   19.0636 C   0  0  0  0  0  0  0  0  0  0  0  0
  -21.7405   -4.6544   22.2747 C   0  0  0  0  0  0  0  0  0  0  0  0
  -22.0802   -3.7549   23.2851 C   0  0  0  0  0  0  0  0  0  0  0  0
  -27.1376  -27.9342   21.4255 C   0  0  0  0  0  0  0  0  0  0  0  0
  -27.1662  -18.7167   18.7565 C   0  0  0  0  0  0  0  0  0  0  0  0
  -22.2188   -5.5794   24.8628 C   0  0  0  0  0  0  0  0  0  0  0  0
  -24.0156   -9.9160   20.6497 C   0  0  0  0  0  0  0  0  0  0  0  0
  -25.3668  -11.3797   19.0561 C   0  0  0  0  0  0  0  0  0  0  0  0
  -17.4125  -29.8983   22.1049 C   0  0  0  0  0  0  0  0  0  0  0  0
  -24.9386  -28.6105   20.6557 C   0  0  0  0  0  0  0  0  0  0  0  0
  -18.6976  -30.4724   22.1411 C   0  0  0  0  0  0  0  0  0  0  0  0
  -25.8121  -28.2782   21.7042 C   0  0  0  0  0  0  0  0  0  0  0  0
  -27.4741  -19.8814   18.0622 C   0  0  0  0  0  0  0  0  0  0  0  0
  -28.2850  -20.8433   18.6544 C   0  0  0  0  0  0  0  0  0  0  0  0
  -22.1919   -7.8943   21.2577 C   0  0  0  0  0  0  0  0  0  0  0  0
  -27.5879  -27.9124   20.1055 C   0  0  0  0  0  0  0  0  0  0  0  0
  -21.6400   -6.0165   22.5582 C   0  0  0  0  0  0  0  0  0  0  0  0
  -22.3193   -4.2173   24.5791 C   0  0  0  0  0  0  0  0  0  0  0  0
  -21.8791   -6.4789   23.8523 C   0  0  0  0  0  0  0  0  0  0  0  0
  -24.9571  -10.9606   20.3361 C   0  0  0  0  0  0  0  0  0  0  0  0
  -27.6900  -18.5631   20.0300 C   0  0  0  0  0  0  0  0  0  0  0  0
  -28.7584  -20.5946   19.9325 C   0  0  0  0  0  0  0  0  0  0  0  0
  -26.2636  -12.3918   19.2969 C   0  0  0  0  0  0  0  0  0  0  0  0
  -24.9720  -10.8973   17.7650 C   0  0  0  0  0  0  0  0  0  0  0  0
  -30.5429  -25.8437   19.9910 C   0  0  0  0  0  0  0  0  0  0  0  0
  -31.3063  -24.8303   20.7924 C   0  0  0  0  0  0  0  0  0  0  0  0
  -22.0587  -29.1928   22.9888 C   0  0  0  0  0  0  0  0  0  0  0  0
  -28.2358  -23.7622   16.3803 C   0  0  0  0  0  0  0  0  0  0  0  0
  -23.5450  -26.7111   24.0099 C   0  0  0  0  0  0  0  0  0  0  0  0
  -30.1603  -21.5054   21.8171 C   0  0  0  0  0  0  0  0  0  0  0  0
  -25.2091  -23.7845   24.5601 C   0  0  0  0  0  0  0  0  0  0  0  0
  -27.7832  -17.0098   22.0112 C   0  0  0  0  0  0  0  0  0  0  0  0
  -16.9651  -28.8893   23.1327 C   0  0  0  0  0  0  0  0  0  0  0  0
  -23.5410  -29.0473   21.0017 C   0  0  0  0  0  0  0  0  0  0  0  0
  -25.2807  -28.3355   23.1103 C   0  0  0  0  0  0  0  0  0  0  0  0
  -18.1192  -28.2465   23.8977 C   0  0  0  0  0  0  0  0  0  0  0  0
  -28.4525  -13.8974   23.6055 C   0  0  0  0  0  0  0  0  0  0  0  0
  -19.1110  -29.3093   24.3597 C   0  0  0  0  0  0  0  0  0  0  0  0
  -27.6365  -12.8904   22.7917 C   0  0  0  0  0  0  0  0  0  0  0  0
  -27.7255  -15.2334   23.7478 C   0  0  0  0  0  0  0  0  0  0  0  0
  -26.4638  -14.8283   21.6710 C   0  0  0  0  0  0  0  0  0  0  0  0
  -19.7278  -30.0453   23.1641 C   0  0  1  0  0  0  0  0  0  0  0  0
  -22.9471  -28.2795   22.1963 C   0  0  1  0  0  0  0  0  0  0  0  0
  -27.1837  -13.4887   21.4454 C   0  0  2  0  0  0  0  0  0  0  0  0
  -26.9219  -20.0711   16.6873 C   0  0  0  0  0  0  0  0  0  0  0  0
  -27.3301  -24.7405   15.6775 C   0  0  0  0  0  0  0  0  0  0  0  0
  -27.1620  -23.8830   18.6335 C   0  0  0  0  0  0  0  0  0  0  0  0
  -31.0514  -23.0714   23.5660 C   0  0  0  0  0  0  0  0  0  0  0  0
  -25.2665  -21.8127   26.1112 C   0  0  0  0  0  0  0  0  0  0  0  0
  -24.9054  -28.4263   26.1339 C   0  0  0  0  0  0  0  0  0  0  0  0
  -25.7668  -26.3213   27.1806 C   0  0  0  0  0  0  0  0  0  0  0  0
  -23.3094  -26.7236   27.0326 C   0  0  0  0  0  0  0  0  0  0  0  0
  -24.6194  -21.8916   22.3627 C   0  0  0  0  0  0  0  0  0  0  0  0
  -29.5023  -26.6457   20.7284 C   0  0  0  0  0  0  0  0  0  1  0  0
  -27.6204  -22.9624   17.5171 C   0  0  2  0  0  0  0  0  0  0  0  0
  -24.6017  -26.1606   24.9338 C   0  0  1  0  0  0  0  0  0  0  0  0
  -31.0280  -22.7342   22.0832 C   0  0  2  0  0  0  0  0  0  0  0  0
  -24.7095  -22.3733   24.8119 C   0  0  2  0  0  0  0  0  0  0  0  0
  -24.6515  -26.9140   26.2930 C   0  0  0  0  0  0  0  0  0  0  0  0
  -25.5454  -11.6500   21.3173 N   0  0  0  0  0  0  0  0  0  0  0  0
  -28.4810  -19.4753   20.6381 N   0  0  0  0  0  0  0  0  0  0  0  0
  -26.3340  -12.5124   20.6536 N   0  0  0  0  0  0  0  0  0  0  0  0
  -23.9293  -27.7559   23.1606 N   0  0  0  0  0  0  0  0  0  0  0  0
  -27.3307  -15.7415   22.4322 N   0  0  0  0  0  0  0  0  0  0  0  0
  -26.9910  -13.1813   18.4784 N   0  0  0  0  0  0  0  0  0  0  0  0
  -24.0406   -9.8521   17.6983 N   0  0  0  0  0  0  0  0  0  0  0  0
  -28.6084  -22.0303   17.9666 N   0  0  0  0  0  0  0  0  0  0  0  0
  -29.5850  -21.5631   20.5505 N   0  0  0  0  0  0  0  0  0  0  0  0
  -27.3707  -17.3730   20.7296 N   0  0  0  0  0  0  0  0  0  0  0  0
  -30.5069  -23.8369   21.3093 N   0  0  0  0  0  0  0  0  0  0  0  0
  -20.7513  -29.2320   22.5433 N   0  0  0  0  0  0  0  0  0  0  0  0
  -24.3357  -24.7310   25.0524 N   0  0  0  0  0  0  0  0  0  0  0  0
  -25.1187  -21.4723   23.6976 N   0  3  0  0  0  0  0  0  0  0  0  0
  -25.4439  -11.3678   16.7022 O   0  0  0  0  0  0  0  0  0  0  0  0
  -30.8312  -25.9621   18.8095 O   0  0  0  0  0  0  0  0  0  0  0  0
  -32.5165  -24.9668   20.8778 O   0  0  0  0  0  0  0  0  0  0  0  0
  -22.5237  -29.8156   23.9362 O   0  0  0  0  0  0  0  0  0  0  0  0
  -29.4219  -23.6597   16.0663 O   0  0  0  0  0  0  0  0  0  0  0  0
  -22.4074  -26.2336   24.0423 O   0  0  0  0  0  0  0  0  0  0  0  0
  -30.0560  -20.5975   22.6371 O   0  0  0  0  0  0  0  0  0  0  0  0
  -26.2701  -24.0232   23.9874 O   0  0  0  0  0  0  0  0  0  0  0  0
  -28.5075  -17.7098   22.7235 O   0  0  0  0  0  0  0  0  0  0  0  0
  -21.3018   -6.9082   21.5542 O   0  0  0  0  0  0  0  0  0  0  0  0
  -28.8749  -27.5611   19.8314 O   0  0  0  0  0  0  0  0  0  1  0  0
  -22.6441   -3.3532   25.5497 F   0  0  0  0  0  0  0  0  0  0  0  0
  -21.7829   -7.7862   24.1310 F   0  0  0  0  0  0  0  0  0  0  0  0
  1  2  1  0  0  0  0
  1  5  2  0  0  0  0
  2  6  2  0  0  0  0
  3  8  2  0  0  0  0
  3 16  1  0  0  0  0
  4  9  1  0  0  0  0
  4 16  2  0  0  0  0
  5 18  1  0  0  0  0
  6 20  1  0  0  0  0
  7 10  2  0  0  0  0
  7 19  1  0  0  0  0
  8 24  1  0  0  0  0
  9 24  2  0  0  0  0
 10 25  1  0  0  0  0
 11 12  2  0  0  0  0
 11 26  1  0  0  0  0
 12 27  1  0  0  0  0
 13 21  1  0  0  0  0
 13 25  2  0  0  0  0
 14 22  2  0  0  0  0
 14 30  1  0  0  0  0
 15 27  2  0  0  0  0
 15 28  1  0  0  0  0
 16 29  1  0  0  0  0
 17 29  1  0  0  0  0
 17 32  2  0  0  0  0
 17 33  1  0  0  0  0
 18 20  2  0  0  0  0
 18 42  1  0  0  0  0
 19 21  2  0  0  0  0
 19 43  1  0  0  0  0
 20 51  1  0  0  0  0
 21 44  1  0  0  0  0
 22 23  1  0  0  0  0
 22 54  1  0  0  0  0
 23 31  2  0  0  0  0
 23 76  1  0  0  0  0
 24 92  1  0  0  0  0
 25 93  1  0  0  0  0
 26 28  2  0  0  0  0
 26 92  1  0  0  0  0
 27 94  1  0  0  0  0
 28 95  1  0  0  0  0
 29 69  2  0  0  0  0
 30 70  2  0  0  0  0
 30 78  1  0  0  0  0
 31 70  1  0  0  0  0
 31 77  1  0  0  0  0
 32 71  1  0  0  0  0
 32 74  1  0  0  0  0
 33 75  1  0  0  0  0
 33 83  2  0  0  0  0
 34 35  1  0  0  0  0
 34 63  1  0  0  0  0
 34 84  2  0  0  0  0
 35 79  1  0  0  0  0
 35 85  2  0  0  0  0
 36 52  1  0  0  0  0
 36 80  1  0  0  0  0
 36 86  2  0  0  0  0
 37 55  1  0  0  0  0
 37 64  1  0  0  0  0
 37 87  2  0  0  0  0
 38 65  1  0  0  0  0
 38 72  1  0  0  0  0
 38 88  2  0  0  0  0
 39 66  1  0  0  0  0
 39 77  1  0  0  0  0
 39 89  2  0  0  0  0
 40 67  1  0  0  0  0
 40 81  1  0  0  0  0
 40 90  2  0  0  0  0
 41 73  1  0  0  0  0
 41 78  1  0  0  0  0
 41 91  2  0  0  0  0
 42 45  1  0  0  0  0
 43 52  1  0  0  0  0
 44 72  1  0  0  0  0
 45 47  1  0  0  0  0
 46 48  1  0  0  0  0
 46 49  1  0  0  0  0
 47 51  1  0  0  0  0
 48 53  1  0  0  0  0
 49 73  1  0  0  0  0
 50 53  1  0  0  0  0
 50 73  1  0  0  0  0
 51 80  1  0  0  0  0
 52 72  1  0  0  0  0
 53 71  1  0  0  0  0
 56 64  1  0  0  0  0
 57 66  1  0  0  0  0
 58 67  1  0  0  0  0
 59 68  1  0  0  0  0
 60 68  1  0  0  0  0
 61 68  1  0  0  0  0
 62 82  1  0  0  0  0
 63 93  1  0  0  0  0
 64 76  1  0  0  0  0
 65 68  1  0  0  0  0
 65 81  1  0  0  0  0
 66 79  1  0  0  0  0
 67 82  1  0  0  0  0
 69 71  1  0  0  0  0
M  CHG  1  82   1
M  ISO  4  41 100  63 101  78 100  93 101
M  END
> <Batch ID>
0179

> <Smiles>
CNC(C)C(=O)NC(C(=O)N1Cc2cc([101O:1][101CH2:1]C(=O)C(=O)NC(C)C(=O)Nc3nc([100NH:0][100C:0](=O)N4CCCC(n5nc(-c6ccc(Oc7ccc(F)cc7F)cc6)c(C(N)=O)c5N)C4)cc(C)c3NC(C)C(C)=O)ccc2CC1C(=O)NC1CCCc2ccccc21)C(C)(C)C

> <Shape>
0.261

> <Color>
0.121

> <Negative vol penalty>
0.000

$$$$

  -OEChem-04052304473D

 85 93  0     1  0  0  0  0  0999 V2000
  -20.4857  -22.1907   23.4448 C   0  0  0  0  0  0  0  0  0  0  0  0
  -21.7677  -22.4672   22.9807 C   0  0  0  0  0  0  0  0  0  0  0  0
  -20.7135  -27.4796   22.9770 C   0  0  0  0  0  0  0  0  0  0  0  0
  -19.5237  -29.1807   21.7410 C   0  0  0  0  0  0  0  0  0  0  0  0
  -20.1871  -20.9274   23.9535 C   0  0  0  0  0  0  0  0  0  0  0  0
  -22.7522  -21.4808   23.0262 C   0  0  0  0  0  0  0  0  0  0  0  0
  -25.4353  -21.2149   18.7395 C   0  0  0  0  0  0  0  0  0  0  0  0
  -19.5023  -26.8692   23.3029 C   0  0  0  0  0  0  0  0  0  0  0  0
  -18.3125  -28.5703   22.0668 C   0  0  0  0  0  0  0  0  0  0  0  0
  -26.4219  -22.1806   18.5450 C   0  0  0  0  0  0  0  0  0  0  0  0
  -16.7456  -24.6595   24.1587 C   0  0  0  0  0  0  0  0  0  0  0  0
  -16.6648  -23.2724   24.0364 C   0  0  0  0  0  0  0  0  0  0  0  0
  -28.1000  -20.6010   19.2580 C   0  0  0  0  0  0  0  0  0  0  0  0
  -17.1715  -23.4506   21.6808 C   0  0  0  0  0  0  0  0  0  0  0  0
  -20.7242  -28.6354   22.1961 C   0  0  0  0  0  0  0  0  0  0  0  0
  -22.7800  -29.0116   20.7334 C   0  0  0  0  0  0  0  0  0  0  0  0
  -21.1659  -19.9220   23.9963 C   0  0  0  0  0  0  0  0  0  0  0  0
  -25.7729  -19.9363   19.2059 C   0  0  0  0  0  0  0  0  0  0  0  0
  -22.4668  -20.2033   23.5372 C   0  0  0  0  0  0  0  0  0  0  0  0
  -27.1161  -19.6201   19.4552 C   0  0  0  0  0  0  0  0  0  0  0  0
  -31.6931  -29.7750   22.2791 C   0  0  0  0  0  0  0  0  0  0  0  0
  -31.9455  -28.6161   21.4896 C   0  0  0  0  0  0  0  0  0  0  0  0
  -18.3018  -27.4146   22.8478 C   0  0  0  0  0  0  0  0  0  0  0  0
  -27.7542  -21.8746   18.8070 C   0  0  0  0  0  0  0  0  0  0  0  0
  -17.0392  -25.4422   23.0421 C   0  0  0  0  0  0  0  0  0  0  0  0
  -16.8778  -22.6679   22.7974 C   0  0  0  0  0  0  0  0  0  0  0  0
  -17.2522  -24.8378   21.8031 C   0  0  0  0  0  0  0  0  0  0  0  0
  -21.9749  -29.2666   21.8597 C   0  0  0  0  0  0  0  0  0  0  0  0
  -30.3472  -29.9662   22.5020 C   0  0  0  0  0  0  0  0  0  0  0  0
  -23.8484  -29.8629   20.8751 C   0  0  0  0  0  0  0  0  0  0  0  0
  -30.7827  -27.9654   21.1394 C   0  0  0  0  0  0  0  0  0  0  0  0
  -29.6693  -31.0325   23.2604 C   0  0  0  0  0  0  0  0  0  0  0  0
  -28.6356  -23.9754   19.3364 C   0  0  0  0  0  0  0  0  0  1  0  0
  -22.5799  -28.0877   19.6554 C   0  0  0  0  0  0  0  0  0  0  0  0
  -29.5284  -24.9670   19.2305 C   0  0  0  0  0  0  0  0  0  0  0  0
  -29.3480  -26.2004   20.0639 C   0  0  0  0  0  0  0  0  0  0  0  0
  -25.0561  -18.2295   21.7899 C   0  0  0  0  0  0  0  0  0  0  0  0
  -26.6796  -15.8989   20.2232 C   0  0  0  0  0  0  0  0  0  0  0  0
  -29.0231  -15.0710   17.8846 C   0  0  0  0  0  0  0  0  0  0  0  0
  -27.8147  -32.1033   24.1002 C   0  0  0  0  0  0  0  0  0  0  0  0
  -20.8087  -18.5863   24.5988 C   0  0  0  0  0  0  0  0  0  0  0  0
  -24.7000  -18.8975   19.3851 C   0  0  0  0  0  0  0  0  0  0  0  0
  -27.5332  -18.2558   19.9380 C   0  0  0  0  0  0  0  0  0  0  0  0
  -21.8077  -17.4812   24.2658 C   0  0  0  0  0  0  0  0  0  0  0  0
  -24.5966  -33.7296   24.0380 C   0  0  0  0  0  0  0  0  0  0  0  0
  -23.2366  -17.9728   24.4743 C   0  0  0  0  0  0  0  0  0  0  0  0
  -23.6877  -32.6764   23.4045 C   0  0  0  0  0  0  0  0  0  0  0  0
  -25.6715  -33.0895   24.9112 C   0  0  0  0  0  0  0  0  0  0  0  0
  -25.5892  -31.0094   23.5638 C   0  0  0  0  0  0  0  0  0  0  0  0
  -23.5552  -19.1519   23.5471 C   0  0  1  0  0  0  0  0  0  0  0  0
  -25.0979  -17.7885   20.3542 C   0  0  1  0  0  0  0  0  0  0  0  0
  -24.5111  -31.6171   22.6502 C   0  0  1  0  0  0  0  0  0  0  0  0
  -32.7560  -30.6711   22.8001 C   0  0  0  0  0  0  0  0  0  0  0  0
  -33.3010  -28.1615   21.0903 C   0  0  0  0  0  0  0  0  0  0  0  0
  -30.1612  -13.0867   16.8528 C   0  0  0  0  0  0  0  0  0  0  0  0
  -28.3932  -15.5823   22.7279 C   0  0  0  0  0  0  0  0  0  0  0  0
  -30.0560  -14.3197   21.3462 C   0  0  0  0  0  0  0  0  0  0  0  0
  -27.7424  -13.4314   21.6305 C   0  0  0  0  0  0  0  0  0  0  0  0
  -27.9979  -15.7382   15.1896 C   0  0  0  0  0  0  0  0  0  0  0  0
  -28.1213  -15.4553   20.1635 C   0  0  1  0  0  0  0  0  0  0  0  0
  -29.0008  -14.0642   16.7487 C   0  0  2  0  0  0  0  0  0  0  0  0
  -28.5705  -14.7236   21.4598 C   0  0  0  0  0  0  0  0  0  0  0  0
  -22.4881  -30.2064   22.6582 N   0  0  0  0  0  0  0  0  0  0  0  0
  -28.3822  -31.0731   23.3750 N   0  0  0  0  0  0  0  0  0  0  0  0
  -23.6272  -30.5492   22.0328 N   0  0  0  0  0  0  0  0  0  0  0  0
  -26.4467  -17.2763   20.1039 N   0  0  0  0  0  0  0  0  0  0  0  0
  -26.4100  -32.0657   24.1707 N   0  0  0  0  0  0  0  0  0  0  0  0
  -24.9462  -30.0839   20.1212 N   0  0  0  0  0  0  0  0  0  0  0  0
  -21.4285  -27.2886   19.6653 N   0  0  0  0  0  0  0  0  0  0  0  0
  -30.5636  -26.7941   20.3750 N   0  0  0  0  0  0  0  0  0  0  0  0
  -23.8177  -18.6819   22.2037 N   0  0  0  0  0  0  0  0  0  0  0  0
  -28.2526  -14.6561   18.9501 N   0  0  0  0  0  0  0  0  0  0  0  0
  -29.0912  -14.7628   15.4354 N   0  3  0  0  0  0  0  0  0  0  0  0
  -23.4060  -27.9625   18.7198 O   0  0  0  0  0  0  0  0  0  0  0  0
  -28.2294  -26.5799   20.3937 O   0  0  0  0  0  0  0  0  0  0  0  0
  -26.0718  -18.1630   22.4722 O   0  0  0  0  0  0  0  0  0  0  0  0
  -25.7921  -15.0536   20.3632 O   0  0  0  0  0  0  0  0  0  0  0  0
  -29.6633  -16.1190   17.8334 O   0  0  0  0  0  0  0  0  0  0  0  0
  -28.4645  -32.9925   24.6553 O   0  0  0  0  0  0  0  0  0  0  0  0
  -30.6150  -24.9000   18.3822 O   0  0  0  0  0  0  0  0  0  0  0  0
  -17.1198  -26.8191   23.1653 O   0  0  0  0  0  0  0  0  0  0  0  0
  -28.7191  -22.8155   18.6185 O   0  0  0  0  0  0  0  0  0  1  0  0
  -16.8017  -21.3357   22.6804 F   0  0  0  0  0  0  0  0  0  0  0  0
  -17.5359  -25.5844   20.7271 F   0  0  0  0  0  0  0  0  0  0  0  0
  -29.3943  -28.7515   21.7613 S   0  0  0  0  0  0  0  0  0  0  0  0
  1  2  1  0  0  0  0
  1  5  2  0  0  0  0
  2  6  2  0  0  0  0
  3  8  2  0  0  0  0
  3 15  1  0  0  0  0
  4  9  1  0  0  0  0
  4 15  2  0  0  0  0
  5 17  1  0  0  0  0
  6 19  1  0  0  0  0
  7 10  2  0  0  0  0
  7 18  1  0  0  0  0
  8 23  1  0  0  0  0
  9 23  2  0  0  0  0
 10 24  1  0  0  0  0
 11 12  2  0  0  0  0
 11 25  1  0  0  0  0
 12 26  1  0  0  0  0
 13 20  1  0  0  0  0
 13 24  2  0  0  0  0
 14 26  2  0  0  0  0
 14 27  1  0  0  0  0
 15 28  1  0  0  0  0
 16 28  1  0  0  0  0
 16 30  2  0  0  0  0
 16 34  1  0  0  0  0
 17 19  2  0  0  0  0
 17 41  1  0  0  0  0
 18 20  2  0  0  0  0
 18 42  1  0  0  0  0
 19 50  1  0  0  0  0
 20 43  1  0  0  0  0
 21 22  1  0  0  0  0
 21 29  2  0  0  0  0
 21 53  1  0  0  0  0
 22 31  2  0  0  0  0
 22 54  1  0  0  0  0
 23 81  1  0  0  0  0
 24 82  1  0  0  0  0
 25 27  2  0  0  0  0
 25 81  1  0  0  0  0
 26 83  1  0  0  0  0
 27 84  1  0  0  0  0
 28 63  2  0  0  0  0
 29 32  1  0  0  0  0
 29 85  1  0  0  0  0
 30 65  1  0  0  0  0
 30 68  1  0  0  0  0
 31 70  1  0  0  0  0
 31 85  1  0  0  0  0
 32 64  2  0  0  0  0
 33 35  2  0  0  0  0
 33 82  1  0  0  0  0
 34 69  1  0  0  0  0
 34 74  2  0  0  0  0
 35 36  1  0  0  0  0
 35 80  1  0  0  0  0
 36 70  1  0  0  0  0
 36 75  2  0  0  0  0
 37 51  1  0  0  0  0
 37 71  1  0  0  0  0
 37 76  2  0  0  0  0
 38 60  1  0  0  0  0
 38 66  1  0  0  0  0
 38 77  2  0  0  0  0
 39 61  1  0  0  0  0
 39 72  1  0  0  0  0
 39 78  2  0  0  0  0
 40 64  1  0  0  0  0
 40 67  1  0  0  0  0
 40 79  2  0  0  0  0
 41 44  1  0  0  0  0
 42 51  1  0  0  0  0
 43 66  1  0  0  0  0
 44 46  1  0  0  0  0
 45 47  1  0  0  0  0
 45 48  1  0  0  0  0
 46 50  1  0  0  0  0
 47 52  1  0  0  0  0
 48 67  1  0  0  0  0
 49 52  1  0  0  0  0
 49 67  1  0  0  0  0
 50 71  1  0  0  0  0
 51 66  1  0  0  0  0
 52 65  1  0  0  0  0
 55 61  1  0  0  0  0
 56 62  1  0  0  0  0
 57 62  1  0  0  0  0
 58 62  1  0  0  0  0
 59 73  1  0  0  0  0
 60 62  1  0  0  0  0
 60 72  1  0  0  0  0
 61 73  1  0  0  0  0
 63 65  1  0  0  0  0
M  CHG  1  73   1
M  ISO  4  33 101  40 100  64 100  82 101
M  END
> <Batch ID>
0179

> <Smiles>
CNC(C)C(=O)NC(C(=O)N1Cc2cc([101O:1][101CH2:1]C(=O)C(=O)Nc3sc(C=[100N:0][100C:0](=O)N4CCCC(n5nc(-c6ccc(Oc7ccc(F)cc7F)cc6)c(C(N)=O)c5N)C4)c(C)c3C)ccc2CC1C(=O)NC1CCCc2ccccc21)C(C)(C)C

> <Shape>
0.230

> <Color>
0.063

> <Negative vol penalty>
0.000

$$$$

  -OEChem-04052304473D

 83 91  0     1  0  0  0  0  0999 V2000
  -25.6130  -38.0331   26.3469 C   0  0  0  0  0  0  0  0  0  0  0  0
  -26.1468  -36.9107   26.9719 C   0  0  0  0  0  0  0  0  0  0  0  0
  -23.6030   -9.7017   19.8891 C   0  0  0  0  0  0  0  0  0  0  0  0
  -23.8036   -9.9718   22.2816 C   0  0  0  0  0  0  0  0  0  0  0  0
  -24.7935  -37.8835   25.2289 C   0  0  0  0  0  0  0  0  0  0  0  0
  -25.8605  -35.6378   26.4798 C   0  0  0  0  0  0  0  0  0  0  0  0
  -28.7861  -29.1372   25.7728 C   0  0  0  0  0  0  0  0  0  0  0  0
  -22.9865   -8.4653   20.0803 C   0  0  0  0  0  0  0  0  0  0  0  0
  -23.1870   -8.7353   22.4728 C   0  0  0  0  0  0  0  0  0  0  0  0
  -28.5160  -27.7983   26.0523 C   0  0  0  0  0  0  0  0  0  0  0  0
  -20.0474   -7.4857   22.4269 C   0  0  0  0  0  0  0  0  0  0  0  0
  -19.0530   -7.4029   23.4015 C   0  0  0  0  0  0  0  0  0  0  0  0
  -27.1522  -27.6652   24.0669 C   0  0  0  0  0  0  0  0  0  0  0  0
  -20.3435   -5.7323   24.5765 C   0  0  0  0  0  0  0  0  0  0  0  0
  -24.0116  -10.4550   20.9897 C   0  0  0  0  0  0  0  0  0  0  0  0
  -24.0231  -12.9899   20.7035 C   0  0  0  0  0  0  0  0  0  0  0  0
  -24.5048  -36.6086   24.7171 C   0  0  0  0  0  0  0  0  0  0  0  0
  -28.2316  -29.7542   24.6422 C   0  0  0  0  0  0  0  0  0  0  0  0
  -25.0352  -35.4709   25.3547 C   0  0  0  0  0  0  0  0  0  0  0  0
  -27.4189  -29.0114   23.7739 C   0  0  0  0  0  0  0  0  0  0  0  0
  -22.7785   -7.9820   21.3721 C   0  0  0  0  0  0  0  0  0  0  0  0
  -27.6966  -27.0629   25.2009 C   0  0  0  0  0  0  0  0  0  0  0  0
  -21.1899   -6.6917   22.5271 C   0  0  0  0  0  0  0  0  0  0  0  0
  -19.2010   -6.5263   24.4763 C   0  0  0  0  0  0  0  0  0  0  0  0
  -21.3380   -5.8150   23.6018 C   0  0  0  0  0  0  0  0  0  0  0  0
  -24.6491  -11.7321   20.7928 C   0  0  0  0  0  0  0  0  0  0  0  0
  -30.5267  -18.7693   22.7865 C   0  0  0  0  0  0  0  0  0  0  0  0
  -25.0565  -13.8753   20.5178 C   0  0  0  0  0  0  0  0  0  0  0  0
  -29.4090  -17.9613   22.7824 C   0  0  0  0  0  0  0  0  0  0  0  0
  -29.0993  -20.1766   23.6763 C   0  0  0  0  0  0  0  0  0  0  0  0
  -28.2698  -24.8085   24.9561 C   0  0  0  0  0  0  0  0  0  1  0  0
  -22.6319  -13.3277   20.7816 C   0  0  0  0  0  0  0  0  0  0  0  0
  -28.1035  -23.4959   25.1587 C   0  0  0  0  0  0  0  0  0  0  0  0
  -29.0812  -22.5362   24.5495 C   0  0  0  0  0  0  0  0  0  0  0  0
  -26.2457  -32.1895   24.1630 C   0  0  0  0  0  0  0  0  0  0  0  0
  -26.9597  -31.6514   21.0448 C   0  0  0  0  0  0  0  0  0  0  0  0
  -28.0339  -29.4657   18.6540 C   0  0  0  0  0  0  0  0  0  0  0  0
  -30.1382  -15.7658   21.7853 C   0  0  0  0  0  0  0  0  0  0  0  0
  -23.5755  -36.4944   23.5347 C   0  0  0  0  0  0  0  0  0  0  0  0
  -28.5543  -31.1919   24.3402 C   0  0  0  0  0  0  0  0  0  0  0  0
  -26.8155  -29.6214   22.5361 C   0  0  0  0  0  0  0  0  0  0  0  0
  -23.6246  -35.1305   22.8508 C   0  0  0  0  0  0  0  0  0  0  0  0
  -29.9428  -13.0633   19.4754 C   0  0  0  0  0  0  0  0  0  0  0  0
  -23.5654  -34.0119   23.8862 C   0  0  0  0  0  0  0  0  0  0  0  0
  -28.4966  -12.5796   19.6048 C   0  0  0  0  0  0  0  0  0  0  0  0
  -30.5150  -13.5070   20.8205 C   0  0  0  0  0  0  0  0  0  0  0  0
  -28.2596  -14.0125   21.6731 C   0  0  0  0  0  0  0  0  0  0  0  0
  -24.7678  -34.0747   24.8357 C   0  0  1  0  0  0  0  0  0  0  0  0
  -27.5204  -31.8598   23.4389 C   0  0  1  0  0  0  0  0  0  0  0  0
  -27.6187  -13.6162   20.3330 C   0  0  2  0  0  0  0  0  0  0  0  0
  -28.4783  -29.3042   16.1895 C   0  0  0  0  0  0  0  0  0  0  0  0
  -23.9595  -31.4761   20.5178 C   0  0  0  0  0  0  0  0  0  0  0  0
  -24.4794  -30.3968   18.3193 C   0  0  0  0  0  0  0  0  0  0  0  0
  -25.2531  -32.7234   18.7785 C   0  0  0  0  0  0  0  0  0  0  0  0
  -30.8979  -28.8621   19.0923 C   0  0  0  0  0  0  0  0  0  0  0  0
  -26.3822  -30.7880   19.9494 C   0  0  1  0  0  0  0  0  0  0  0  0
  -29.0734  -29.6044   17.5564 C   0  0  2  0  0  0  0  0  0  0  0  0
  -25.0282  -31.3348   19.4155 C   0  0  0  0  0  0  0  0  0  0  0  0
  -25.9773  -11.8076   20.6735 N   0  0  0  0  0  0  0  0  0  0  0  0
  -30.3509  -20.0401   23.2983 N   0  0  0  0  0  0  0  0  0  0  0  0
  -26.1943  -13.1233   20.5072 N   0  0  0  0  0  0  0  0  0  0  0  0
  -27.1555  -31.0321   22.2874 N   0  0  0  0  0  0  0  0  0  0  0  0
  -29.6326  -14.4919   21.4499 N   0  0  0  0  0  0  0  0  0  0  0  0
  -25.0939  -15.2160   20.3641 N   0  0  0  0  0  0  0  0  0  0  0  0
  -21.7036  -12.2956   20.9751 N   0  0  0  0  0  0  0  0  0  0  0  0
  -29.1987  -16.6290   22.3483 N   0  0  0  0  0  0  0  0  0  0  0  0
  -28.4893  -21.3155   24.2553 N   0  0  0  0  0  0  0  0  0  0  0  0
  -25.9483  -33.5386   24.1926 N   0  0  0  0  0  0  0  0  0  0  0  0
  -27.4215  -30.6693   18.9324 N   0  0  0  0  0  0  0  0  0  0  0  0
  -30.2052  -28.6642   17.7931 N   0  3  0  0  0  0  0  0  0  0  0  0
  -22.2226  -14.5078   20.6662 O   0  0  0  0  0  0  0  0  0  0  0  0
  -30.2491  -22.8602   24.3629 O   0  0  0  0  0  0  0  0  0  0  0  0
  -25.5806  -31.2865   24.6569 O   0  0  0  0  0  0  0  0  0  0  0  0
  -27.2339  -32.8299   20.8048 O   0  0  0  0  0  0  0  0  0  0  0  0
  -27.7870  -28.3959   19.2064 O   0  0  0  0  0  0  0  0  0  0  0  0
  -31.3108  -16.0778   21.5626 O   0  0  0  0  0  0  0  0  0  0  0  0
  -27.0641  -22.9869   25.9105 O   0  0  0  0  0  0  0  0  0  0  0  0
  -22.1767   -6.7756   21.5591 O   0  0  0  0  0  0  0  0  0  0  0  0
  -27.4307  -25.7561   25.4718 O   0  0  0  0  0  0  0  0  0  1  0  0
  -18.2467   -6.4480   25.4129 F   0  0  0  0  0  0  0  0  0  0  0  0
  -22.4339   -5.0506   23.7041 F   0  0  0  0  0  0  0  0  0  0  0  0
  -31.7118  -18.3544   22.3255 F   0  0  0  0  0  0  0  0  0  0  0  0
  -28.0786  -18.8164   23.4459 S   0  0  0  0  0  0  0  0  0  0  0  0
  1  2  1  0  0  0  0
  1  5  2  0  0  0  0
  2  6  2  0  0  0  0
  3  8  2  0  0  0  0
  3 15  1  0  0  0  0
  4  9  1  0  0  0  0
  4 15  2  0  0  0  0
  5 17  1  0  0  0  0
  6 19  1  0  0  0  0
  7 10  2  0  0  0  0
  7 18  1  0  0  0  0
  8 21  1  0  0  0  0
  9 21  2  0  0  0  0
 10 22  1  0  0  0  0
 11 12  2  0  0  0  0
 11 23  1  0  0  0  0
 12 24  1  0  0  0  0
 13 20  1  0  0  0  0
 13 22  2  0  0  0  0
 14 24  2  0  0  0  0
 14 25  1  0  0  0  0
 15 26  1  0  0  0  0
 16 26  1  0  0  0  0
 16 28  2  0  0  0  0
 16 32  1  0  0  0  0
 17 19  2  0  0  0  0
 17 39  1  0  0  0  0
 18 20  2  0  0  0  0
 18 40  1  0  0  0  0
 19 48  1  0  0  0  0
 20 41  1  0  0  0  0
 21 78  1  0  0  0  0
 22 79  1  0  0  0  0
 23 25  2  0  0  0  0
 23 78  1  0  0  0  0
 24 80  1  0  0  0  0
 25 81  1  0  0  0  0
 26 59  2  0  0  0  0
 27 29  2  0  0  0  0
 27 60  1  0  0  0  0
 27 82  1  0  0  0  0
 28 61  1  0  0  0  0
 28 64  1  0  0  0  0
 29 66  1  0  0  0  0
 29 83  1  0  0  0  0
 30 60  2  0  0  0  0
 30 67  1  0  0  0  0
 30 83  1  0  0  0  0
 31 33  2  0  0  0  0
 31 79  1  0  0  0  0
 32 65  1  0  0  0  0
 32 71  2  0  0  0  0
 33 34  1  0  0  0  0
 33 77  1  0  0  0  0
 34 67  1  0  0  0  0
 34 72  2  0  0  0  0
 35 49  1  0  0  0  0
 35 68  1  0  0  0  0
 35 73  2  0  0  0  0
 36 56  1  0  0  0  0
 36 62  1  0  0  0  0
 36 74  2  0  0  0  0
 37 57  1  0  0  0  0
 37 69  1  0  0  0  0
 37 75  2  0  0  0  0
 38 63  1  0  0  0  0
 38 66  1  0  0  0  0
 38 76  2  0  0  0  0
 39 42  1  0  0  0  0
 40 49  1  0  0  0  0
 41 62  1  0  0  0  0
 42 44  1  0  0  0  0
 43 45  1  0  0  0  0
 43 46  1  0  0  0  0
 44 48  1  0  0  0  0
 45 50  1  0  0  0  0
 46 63  1  0  0  0  0
 47 50  1  0  0  0  0
 47 63  1  0  0  0  0
 48 68  1  0  0  0  0
 49 62  1  0  0  0  0
 50 61  1  0  0  0  0
 51 57  1  0  0  0  0
 52 58  1  0  0  0  0
 53 58  1  0  0  0  0
 54 58  1  0  0  0  0
 55 70  1  0  0  0  0
 56 58  1  0  0  0  0
 56 69  1  0  0  0  0
 57 70  1  0  0  0  0
 59 61  1  0  0  0  0
M  CHG  1  70   1
M  ISO  4  31 101  38 100  66 100  79 101
M  END
> <Batch ID>
0179

> <Smiles>
CNC(C)C(=O)NC(C(=O)N1Cc2cc([101O:1][101CH2:1]C(=O)C(=O)Nc3nc(F)c([100NH:0][100C:0](=O)N4CCCC(n5nc(-c6ccc(Oc7ccc(F)cc7F)cc6)c(C(N)=O)c5N)C4)s3)ccc2CC1C(=O)NC1CCCc2ccccc21)C(C)(C)C

> <Shape>
0.271

> <Color>
0.153

> <Negative vol penalty>
0.000

$$$$

  -OEChem-04052304473D

 86 94  0     1  0  0  0  0  0999 V2000
  -29.2535  -23.3607   14.5521 C   0  0  0  0  0  0  0  0  0  0  0  0
  -28.6607  -23.2465   15.8055 C   0  0  0  0  0  0  0  0  0  0  0  0
  -24.5713   -9.5061   20.6516 C   0  0  0  0  0  0  0  0  0  0  0  0
  -25.1724  -10.2031   22.8854 C   0  0  0  0  0  0  0  0  0  0  0  0
  -30.0802  -24.4472   14.2696 C   0  0  0  0  0  0  0  0  0  0  0  0
  -28.8953  -24.2184   16.7776 C   0  0  0  0  0  0  0  0  0  0  0  0
  -24.6642  -25.6264   19.1777 C   0  0  0  0  0  0  0  0  0  0  0  0
  -24.3774   -8.2032   21.1103 C   0  0  0  0  0  0  0  0  0  0  0  0
  -24.9785   -8.9002   23.3442 C   0  0  0  0  0  0  0  0  0  0  0  0
  -24.1757  -24.7693   20.1628 C   0  0  0  0  0  0  0  0  0  0  0  0
  -23.3748   -4.7705   21.7632 C   0  0  0  0  0  0  0  0  0  0  0  0
  -22.2312   -4.0959   21.3358 C   0  0  0  0  0  0  0  0  0  0  0  0
  -25.1638  -26.1682   21.8615 C   0  0  0  0  0  0  0  0  0  0  0  0
  -27.1908  -19.7745   21.8930 C   0  0  0  0  0  0  0  0  0  0  0  0
  -20.8484   -5.8007   22.3452 C   0  0  0  0  0  0  0  0  0  0  0  0
  -24.9689  -10.5061   21.5391 C   0  0  0  0  0  0  0  0  0  0  0  0
  -24.2129  -12.8825   21.0019 C   0  0  0  0  0  0  0  0  0  0  0  0
  -30.3173  -25.4379   15.2356 C   0  0  0  0  0  0  0  0  0  0  0  0
  -25.4167  -26.7569   19.5271 C   0  0  0  0  0  0  0  0  0  0  0  0
  -29.7271  -25.3185   16.5082 C   0  0  0  0  0  0  0  0  0  0  0  0
  -25.6586  -27.0395   20.8791 C   0  0  0  0  0  0  0  0  0  0  0  0
  -28.0580  -21.9982   21.5977 C   0  0  0  0  0  0  0  0  0  0  0  0
  -27.0822  -21.1450   22.1006 C   0  0  0  0  0  0  0  0  0  0  0  0
  -24.5810   -7.9002   22.4566 C   0  0  0  0  0  0  0  0  0  0  0  0
  -24.4279  -25.0385   21.5048 C   0  0  0  0  0  0  0  0  0  0  0  0
  -23.2552   -5.9601   22.4817 C   0  0  0  0  0  0  0  0  0  0  0  0
  -20.9680   -4.6110   21.6267 C   0  0  0  0  0  0  0  0  0  0  0  0
  -21.9921   -6.4752   22.7726 C   0  0  0  0  0  0  0  0  0  0  0  0
  -25.1699  -11.8520   21.0657 C   0  0  0  0  0  0  0  0  0  0  0  0
  -28.2858  -19.3111   21.1815 C   0  0  0  0  0  0  0  0  0  0  0  0
  -29.1143  -21.4353   20.8997 C   0  0  0  0  0  0  0  0  0  0  0  0
  -24.8972  -13.9549   20.4840 C   0  0  0  0  0  0  0  0  0  0  0  0
  -22.8292  -12.8714   21.3772 C   0  0  0  0  0  0  0  0  0  0  0  0
  -23.9444  -21.7915   24.0739 C   0  0  0  0  0  0  0  0  0  0  0  0
  -24.9476  -20.9169   23.3789 C   0  0  0  0  0  0  0  0  0  0  0  0
  -28.3843  -27.7411   18.9538 C   0  0  0  0  0  0  0  0  0  0  0  0
  -27.3623  -30.4358   20.4424 C   0  0  0  0  0  0  0  0  0  0  0  0
  -25.1743  -31.8903   22.6206 C   0  0  0  0  0  0  0  0  0  0  0  0
  -29.3954  -17.2311   20.2933 C   0  0  0  0  0  0  0  0  0  0  0  0
  -31.2562  -26.5694   14.8996 C   0  0  0  0  0  0  0  0  0  0  0  0
  -25.9139  -27.6861   18.4539 C   0  0  0  0  0  0  0  0  0  0  0  0
  -26.4439  -28.2511   21.3078 C   0  0  0  0  0  0  0  0  0  0  0  0
  -31.1542  -27.7512   15.8604 C   0  0  0  0  0  0  0  0  0  0  0  0
  -29.4957  -14.2263   18.3859 C   0  0  0  0  0  0  0  0  0  0  0  0
  -31.1485  -27.2649   17.3062 C   0  0  0  0  0  0  0  0  0  0  0  0
  -28.3005  -13.4255   18.9078 C   0  0  0  0  0  0  0  0  0  0  0  0
  -30.1832  -15.0113   19.5017 C   0  0  0  0  0  0  0  0  0  0  0  0
  -28.0999  -15.0713   20.8152 C   0  0  0  0  0  0  0  0  0  0  0  0
  -29.9375  -26.3651   17.5808 C   0  0  1  0  0  0  0  0  0  0  0  0
  -27.1058  -28.5284   18.8979 C   0  0  1  0  0  0  0  0  0  0  0  0
  -27.3358  -14.3152   19.7161 C   0  0  2  0  0  0  0  0  0  0  0  0
  -27.9627  -23.4743   21.8084 C   0  0  0  0  0  0  0  0  0  0  0  0
  -24.6103  -34.1019   23.6636 C   0  0  0  0  0  0  0  0  0  0  0  0
  -29.7615  -30.1651   22.3080 C   0  0  0  0  0  0  0  0  0  0  0  0
  -28.6472  -31.7812   23.8621 C   0  0  0  0  0  0  0  0  0  0  0  0
  -29.2805  -32.5024   21.5596 C   0  0  0  0  0  0  0  0  0  0  0  0
  -22.4629  -31.8893   21.4345 C   0  0  0  0  0  0  0  0  0  0  0  0
  -22.7685  -22.2561   23.2429 C   0  0  0  0  0  0  0  0  0  0  0  0
  -23.2035  -23.0694   22.0332 C   0  0  0  0  0  0  0  0  0  1  0  0
  -27.3319  -30.9219   21.8714 C   0  0  1  0  0  0  0  0  0  0  0  0
  -24.3316  -33.1483   22.5122 C   0  0  2  0  0  0  0  0  0  0  0  0
  -28.7421  -31.3187   22.3924 C   0  0  0  0  0  0  0  0  0  0  0  0
  -26.3706  -12.2352   20.6236 N   0  0  0  0  0  0  0  0  0  0  0  0
  -29.2538  -20.1091   20.6777 N   0  0  0  0  0  0  0  0  0  0  0  0
  -26.1727  -13.5185   20.2769 N   0  0  0  0  0  0  0  0  0  0  0  0
  -26.9141  -29.1259   20.2210 N   0  0  0  0  0  0  0  0  0  0  0  0
  -29.2085  -15.8345   20.2209 N   0  0  0  0  0  0  0  0  0  0  0  0
  -30.1129  -22.2989   20.3837 N   0  0  0  0  0  0  0  0  0  0  0  0
  -24.5263  -15.2192   20.1901 N   0  0  0  0  0  0  0  0  0  0  0  0
  -22.2862  -11.6865   21.8923 N   0  0  0  0  0  0  0  0  0  0  0  0
  -25.9753  -21.6480   22.8232 N   0  0  0  0  0  0  0  0  0  0  0  0
  -28.3877  -17.9131   20.9746 N   0  0  0  0  0  0  0  0  0  0  0  0
  -28.7426  -27.1638   17.7506 N   0  0  0  0  0  0  0  0  0  0  0  0
  -26.3531  -32.0029   21.9141 N   0  0  0  0  0  0  0  0  0  0  0  0
  -22.8818  -32.8035   22.5280 N   0  3  0  0  0  0  0  0  0  0  0  0
  -22.0920  -13.8775   21.2440 O   0  0  0  0  0  0  0  0  0  0  0  0
  -24.1472  -22.0494   25.2507 O   0  0  0  0  0  0  0  0  0  0  0  0
  -24.7440  -19.7149   23.4177 O   0  0  0  0  0  0  0  0  0  0  0  0
  -29.0009  -27.6643   20.0100 O   0  0  0  0  0  0  0  0  0  0  0  0
  -27.7620  -31.1931   19.5545 O   0  0  0  0  0  0  0  0  0  0  0  0
  -24.8238  -30.9076   23.2702 O   0  0  0  0  0  0  0  0  0  0  0  0
  -30.3629  -17.7847   19.7648 O   0  0  0  0  0  0  0  0  0  0  0  0
  -24.3916   -6.6290   22.9046 O   0  0  0  0  0  0  0  0  0  0  0  0
  -23.9528  -24.2032   22.4683 O   0  0  0  0  0  0  0  0  0  1  0  0
  -19.8699   -3.9639   21.2149 F   0  0  0  0  0  0  0  0  0  0  0  0
  -21.8709   -7.6183   23.4614 F   0  0  0  0  0  0  0  0  0  0  0  0
  1  2  1  0  0  0  0
  1  5  2  0  0  0  0
  2  6  2  0  0  0  0
  3  8  2  0  0  0  0
  3 16  1  0  0  0  0
  4  9  1  0  0  0  0
  4 16  2  0  0  0  0
  5 18  1  0  0  0  0
  6 20  1  0  0  0  0
  7 10  2  0  0  0  0
  7 19  1  0  0  0  0
  8 24  1  0  0  0  0
  9 24  2  0  0  0  0
 10 25  1  0  0  0  0
 11 12  2  0  0  0  0
 11 26  1  0  0  0  0
 12 27  1  0  0  0  0
 13 21  1  0  0  0  0
 13 25  2  0  0  0  0
 14 23  1  0  0  0  0
 14 30  2  0  0  0  0
 15 27  2  0  0  0  0
 15 28  1  0  0  0  0
 16 29  1  0  0  0  0
 17 29  1  0  0  0  0
 17 32  2  0  0  0  0
 17 33  1  0  0  0  0
 18 20  2  0  0  0  0
 18 40  1  0  0  0  0
 19 21  2  0  0  0  0
 19 41  1  0  0  0  0
 20 49  1  0  0  0  0
 21 42  1  0  0  0  0
 22 23  2  0  0  0  0
 22 31  1  0  0  0  0
 22 52  1  0  0  0  0
 23 71  1  0  0  0  0
 24 83  1  0  0  0  0
 25 84  1  0  0  0  0
 26 28  2  0  0  0  0
 26 83  1  0  0  0  0
 27 85  1  0  0  0  0
 28 86  1  0  0  0  0
 29 63  2  0  0  0  0
 30 64  1  0  0  0  0
 30 72  1  0  0  0  0
 31 64  2  0  0  0  0
 31 68  1  0  0  0  0
 32 65  1  0  0  0  0
 32 69  1  0  0  0  0
 33 70  1  0  0  0  0
 33 76  2  0  0  0  0
 34 35  1  0  0  0  0
 34 58  1  0  0  0  0
 34 77  2  0  0  0  0
 35 71  1  0  0  0  0
 35 78  2  0  0  0  0
 36 50  1  0  0  0  0
 36 73  1  0  0  0  0
 36 79  2  0  0  0  0
 37 60  1  0  0  0  0
 37 66  1  0  0  0  0
 37 80  2  0  0  0  0
 38 61  1  0  0  0  0
 38 74  1  0  0  0  0
 38 81  2  0  0  0  0
 39 67  1  0  0  0  0
 39 72  1  0  0  0  0
 39 82  2  0  0  0  0
 40 43  1  0  0  0  0
 41 50  1  0  0  0  0
 42 66  1  0  0  0  0
 43 45  1  0  0  0  0
 44 46  1  0  0  0  0
 44 47  1  0  0  0  0
 45 49  1  0  0  0  0
 46 51  1  0  0  0  0
 47 67  1  0  0  0  0
 48 51  1  0  0  0  0
 48 67  1  0  0  0  0
 49 73  1  0  0  0  0
 50 66  1  0  0  0  0
 51 65  1  0  0  0  0
 53 61  1  0  0  0  0
 54 62  1  0  0  0  0
 55 62  1  0  0  0  0
 56 62  1  0  0  0  0
 57 75  1  0  0  0  0
 58 59  1  0  0  0  0
 59 84  1  0  0  0  0
 60 62  1  0  0  0  0
 60 74  1  0  0  0  0
 61 75  1  0  0  0  0
 63 65  1  0  0  0  0
M  CHG  1  75   1
M  ISO  4  39 100  59 101  72 100  84 101
M  END
> <Batch ID>
0179

> <Smiles>
CNC(C)C(=O)NC(C(=O)N1Cc2cc([101O:1][101CH2:1]CC(=O)C(=O)Nc3cc([100NH:0][100C:0](=O)N4CCCC(n5nc(-c6ccc(Oc7ccc(F)cc7F)cc6)c(C(N)=O)c5N)C4)nc(N)c3C)ccc2CC1C(=O)NC1CCCc2ccccc21)C(C)(C)C

> <Shape>
0.261

> <Color>
0.108

> <Negative vol penalty>
0.000

$$$$

  -OEChem-04052304473D

 85 93  0     1  0  0  0  0  0999 V2000
  -27.8716  -10.7617   21.3843 C   0  0  0  0  0  0  0  0  0  0  0  0
  -28.5311  -11.9509   21.0906 C   0  0  0  0  0  0  0  0  0  0  0  0
  -19.7512  -28.3656   23.3973 C   0  0  0  0  0  0  0  0  0  0  0  0
  -21.1324  -26.7258   22.2835 C   0  0  0  0  0  0  0  0  0  0  0  0
  -26.4932  -10.6659   21.1980 C   0  0  0  0  0  0  0  0  0  0  0  0
  -27.8127  -13.0447   20.6092 C   0  0  0  0  0  0  0  0  0  0  0  0
  -28.9056  -18.9604   21.7566 C   0  0  0  0  0  0  0  0  0  0  0  0
  -18.6572  -27.9653   22.6302 C   0  0  0  0  0  0  0  0  0  0  0  0
  -20.0383  -26.3255   21.5163 C   0  0  0  0  0  0  0  0  0  0  0  0
  -29.5661  -19.9503   21.0302 C   0  0  0  0  0  0  0  0  0  0  0  0
  -15.4132  -27.1289   21.2190 C   0  0  0  0  0  0  0  0  0  0  0  0
  -14.1946  -26.9467   21.8728 C   0  0  0  0  0  0  0  0  0  0  0  0
  -27.4524  -20.7006   20.1422 C   0  0  0  0  0  0  0  0  0  0  0  0
  -15.1978  -25.2499   23.2698 C   0  0  0  0  0  0  0  0  0  0  0  0
  -31.3208  -29.7686   20.6345 C   0  0  0  0  0  0  0  0  0  0  0  0
  -20.9888  -27.7459   23.2239 C   0  0  0  0  0  0  0  0  0  0  0  0
  -22.5163  -27.6451   25.2646 C   0  0  0  0  0  0  0  0  0  0  0  0
  -25.7560  -11.7623   20.7233 C   0  0  0  0  0  0  0  0  0  0  0  0
  -27.5123  -18.8260   21.6726 C   0  0  0  0  0  0  0  0  0  0  0  0
  -26.4233  -12.9632   20.4151 C   0  0  0  0  0  0  0  0  0  0  0  0
  -26.7763  -19.7098   20.8705 C   0  0  0  0  0  0  0  0  0  0  0  0
  -30.3166  -27.6329   20.3396 C   0  0  0  0  0  0  0  0  0  0  0  0
  -18.8008  -26.9453   21.6897 C   0  0  0  0  0  0  0  0  0  0  0  0
  -28.8398  -20.8187   20.2206 C   0  0  0  0  0  0  0  0  0  0  0  0
  -16.5241  -26.3716   21.5906 C   0  0  0  0  0  0  0  0  0  0  0  0
  -14.0869  -26.0072   22.8982 C   0  0  0  0  0  0  0  0  0  0  0  0
  -16.4164  -25.4321   22.6160 C   0  0  0  0  0  0  0  0  0  0  0  0
  -29.1473  -28.1396   20.8958 C   0  0  0  0  0  0  0  0  0  0  0  0
  -31.4285  -28.4564   20.2029 C   0  0  0  0  0  0  0  0  0  0  0  0
  -22.1194  -28.1594   24.0157 C   0  0  0  0  0  0  0  0  0  0  0  0
  -29.1417  -29.4660   21.2966 C   0  0  0  0  0  0  0  0  0  0  0  0
  -23.6383  -28.3664   25.5921 C   0  0  0  0  0  0  0  0  0  0  0  0
  -29.1523  -23.0891   19.7535 C   0  0  0  0  0  0  0  0  0  1  0  0
  -21.9238  -26.6080   26.0577 C   0  0  0  0  0  0  0  0  0  0  0  0
  -29.7197  -24.1189   19.1138 C   0  0  0  0  0  0  0  0  0  0  0  0
  -29.2884  -25.5139   19.4546 C   0  0  0  0  0  0  0  0  0  0  0  0
  -25.5345  -16.5389   20.6921 C   0  0  0  0  0  0  0  0  0  0  0  0
  -23.2634  -18.5499   21.8414 C   0  0  0  0  0  0  0  0  0  0  0  0
  -22.3619  -21.7385   22.6580 C   0  0  0  0  0  0  0  0  0  0  0  0
  -27.7206  -31.2689   22.3339 C   0  0  0  0  0  0  0  0  0  0  0  0
  -24.2748  -11.5961   20.4931 C   0  0  0  0  0  0  0  0  0  0  0  0
  -26.8121  -17.7700   22.4832 C   0  0  0  0  0  0  0  0  0  0  0  0
  -25.2768  -19.6204   20.7616 C   0  0  0  0  0  0  0  0  0  0  0  0
  -23.5308  -12.9196   20.3345 C   0  0  0  0  0  0  0  0  0  0  0  0
  -25.6729  -32.6461   24.9006 C   0  0  0  0  0  0  0  0  0  0  0  0
  -24.2793  -13.8414   19.3769 C   0  0  0  0  0  0  0  0  0  0  0  0
  -24.5688  -31.6022   25.0828 C   0  0  0  0  0  0  0  0  0  0  0  0
  -26.0878  -32.7832   23.4367 C   0  0  0  0  0  0  0  0  0  0  0  0
  -25.3530  -30.4810   22.9580 C   0  0  0  0  0  0  0  0  0  0  0  0
  -25.6750  -14.1796   19.9146 C   0  0  1  0  0  0  0  0  0  0  0  0
  -25.4433  -17.3963   21.9227 C   0  0  1  0  0  0  0  0  0  0  0  0
  -24.9472  -30.2609   24.4244 C   0  0  2  0  0  0  0  0  0  0  0  0
  -20.4286  -23.0750   23.5374 C   0  0  0  0  0  0  0  0  0  0  0  0
  -21.9010  -18.3670   19.1173 C   0  0  0  0  0  0  0  0  0  0  0  0
  -20.5694  -20.3983   19.7247 C   0  0  0  0  0  0  0  0  0  0  0  0
  -20.3400  -18.3104   21.0704 C   0  0  0  0  0  0  0  0  0  0  0  0
  -23.8972  -22.6145   25.0317 C   0  0  0  0  0  0  0  0  0  0  0  0
  -22.4520  -19.6861   21.2673 C   0  0  1  0  0  0  0  0  0  0  0  0
  -21.6938  -22.3109   23.8951 C   0  0  2  0  0  0  0  0  0  0  0  0
  -21.3441  -19.1912   20.2952 C   0  0  0  0  0  0  0  0  0  0  0  0
  -30.2020  -30.2965   21.1798 N   0  0  0  0  0  0  0  0  0  0  0  0
  -22.9238  -29.1324   23.5796 N   0  0  0  0  0  0  0  0  0  0  0  0
  -23.8374  -29.2353   24.5599 N   0  0  0  0  0  0  0  0  0  0  0  0
  -24.6386  -18.5673   21.5687 N   0  0  0  0  0  0  0  0  0  0  0  0
  -26.4362  -31.4738   22.8810 N   0  0  0  0  0  0  0  0  0  0  0  0
  -24.4642  -28.3358   26.6596 N   0  0  0  0  0  0  0  0  0  0  0  0
  -20.7739  -25.9702   25.5725 N   0  0  0  0  0  0  0  0  0  0  0  0
  -30.3466  -26.2798   19.9242 N   0  0  0  0  0  0  0  0  0  0  0  0
  -27.9482  -29.9753   21.8656 N   0  0  0  0  0  0  0  0  0  0  0  0
  -25.5868  -15.1831   20.9537 N   0  0  0  0  0  0  0  0  0  0  0  0
  -21.9509  -20.4465   22.4071 N   0  0  0  0  0  0  0  0  0  0  0  0
  -22.6205  -23.2403   24.6011 N   0  3  0  0  0  0  0  0  0  0  0  0
  -22.3904  -26.2685   27.1715 O   0  0  0  0  0  0  0  0  0  0  0  0
  -28.1227  -25.8660   19.3100 O   0  0  0  0  0  0  0  0  0  0  0  0
  -25.5542  -17.0683   19.5871 O   0  0  0  0  0  0  0  0  0  0  0  0
  -22.6991  -17.6828   22.5132 O   0  0  0  0  0  0  0  0  0  0  0  0
  -23.1651  -22.3753   21.9797 O   0  0  0  0  0  0  0  0  0  0  0  0
  -28.5662  -32.1668   22.3093 O   0  0  0  0  0  0  0  0  0  0  0  0
  -30.6918  -23.9486   18.1490 O   0  0  0  0  0  0  0  0  0  0  0  0
  -17.7334  -26.5542   20.9411 O   0  0  0  0  0  0  0  0  0  0  0  0
  -29.4820  -21.7854   19.5101 O   0  0  0  0  0  0  0  0  0  1  0  0
  -12.9170  -25.8334   23.5269 F   0  0  0  0  0  0  0  0  0  0  0  0
  -17.4804  -24.7025   22.9782 F   0  0  0  0  0  0  0  0  0  0  0  0
  -28.0616  -27.3668   21.0404 F   0  0  0  0  0  0  0  0  0  0  0  0
  -32.9115  -27.9050   19.5256 Cl  0  0  0  0  0  0  0  0  0  0  0  0
  1  2  1  0  0  0  0
  1  5  2  0  0  0  0
  2  6  2  0  0  0  0
  3  8  2  0  0  0  0
  3 16  1  0  0  0  0
  4  9  1  0  0  0  0
  4 16  2  0  0  0  0
  5 18  1  0  0  0  0
  6 20  1  0  0  0  0
  7 10  2  0  0  0  0
  7 19  1  0  0  0  0
  8 23  1  0  0  0  0
  9 23  2  0  0  0  0
 10 24  1  0  0  0  0
 11 12  2  0  0  0  0
 11 25  1  0  0  0  0
 12 26  1  0  0  0  0
 13 21  1  0  0  0  0
 13 24  2  0  0  0  0
 14 26  2  0  0  0  0
 14 27  1  0  0  0  0
 15 29  2  0  0  0  0
 15 61  1  0  0  0  0
 16 30  1  0  0  0  0
 17 30  1  0  0  0  0
 17 32  2  0  0  0  0
 17 34  1  0  0  0  0
 18 20  2  0  0  0  0
 18 41  1  0  0  0  0
 19 21  2  0  0  0  0
 19 42  1  0  0  0  0
 20 50  1  0  0  0  0
 21 43  1  0  0  0  0
 22 28  2  0  0  0  0
 22 29  1  0  0  0  0
 22 68  1  0  0  0  0
 23 80  1  0  0  0  0
 24 81  1  0  0  0  0
 25 27  2  0  0  0  0
 25 80  1  0  0  0  0
 26 82  1  0  0  0  0
 27 83  1  0  0  0  0
 28 31  1  0  0  0  0
 28 84  1  0  0  0  0
 29 85  1  0  0  0  0
 30 62  2  0  0  0  0
 31 61  2  0  0  0  0
 31 69  1  0  0  0  0
 32 63  1  0  0  0  0
 32 66  1  0  0  0  0
 33 35  2  0  0  0  0
 33 81  1  0  0  0  0
 34 67  1  0  0  0  0
 34 73  2  0  0  0  0
 35 36  1  0  0  0  0
 35 79  1  0  0  0  0
 36 68  1  0  0  0  0
 36 74  2  0  0  0  0
 37 51  1  0  0  0  0
 37 70  1  0  0  0  0
 37 75  2  0  0  0  0
 38 58  1  0  0  0  0
 38 64  1  0  0  0  0
 38 76  2  0  0  0  0
 39 59  1  0  0  0  0
 39 71  1  0  0  0  0
 39 77  2  0  0  0  0
 40 65  1  0  0  0  0
 40 69  1  0  0  0  0
 40 78  2  0  0  0  0
 41 44  1  0  0  0  0
 42 51  1  0  0  0  0
 43 64  1  0  0  0  0
 44 46  1  0  0  0  0
 45 47  1  0  0  0  0
 45 48  1  0  0  0  0
 46 50  1  0  0  0  0
 47 52  1  0  0  0  0
 48 65  1  0  0  0  0
 49 52  1  0  0  0  0
 49 65  1  0  0  0  0
 50 70  1  0  0  0  0
 51 64  1  0  0  0  0
 52 63  1  0  0  0  0
 53 59  1  0  0  0  0
 54 60  1  0  0  0  0
 55 60  1  0  0  0  0
 56 60  1  0  0  0  0
 57 72  1  0  0  0  0
 58 60  1  0  0  0  0
 58 71  1  0  0  0  0
 59 72  1  0  0  0  0
 62 63  1  0  0  0  0
M  CHG  1  72   1
M  ISO  4  33 101  40 100  69 100  81 101
M  END
> <Batch ID>
0179

> <Smiles>
CNC(C)C(=O)NC(C(=O)N1Cc2cc([101O:1][101CH2:1]C(=O)C(=O)Nc3c(Cl)cnc([100NH:0][100C:0](=O)N4CCCC(n5nc(-c6ccc(Oc7ccc(F)cc7F)cc6)c(C(N)=O)c5N)C4)c3F)ccc2CC1C(=O)NC1CCCc2ccccc21)C(C)(C)C

> <Shape>
0.244

> <Color>
0.061

> <Negative vol penalty>
0.000

$$$$

  -OEChem-04052304473D

 84 92  0     1  0  0  0  0  0999 V2000
  -16.6138  -29.9316   23.4597 C   0  0  0  0  0  0  0  0  0  0  0  0
  -17.6874  -30.6311   24.0015 C   0  0  0  0  0  0  0  0  0  0  0  0
  -26.3635  -14.1146   23.2249 C   0  0  0  0  0  0  0  0  0  0  0  0
  -26.7250  -15.3258   21.1659 C   0  0  0  0  0  0  0  0  0  0  0  0
  -16.8291  -28.7097   22.8237 C   0  0  0  0  0  0  0  0  0  0  0  0
  -18.9769  -30.1084   23.9085 C   0  0  0  0  0  0  0  0  0  0  0  0
  -25.8040  -32.1746   23.2472 C   0  0  0  0  0  0  0  0  0  0  0  0
  -25.2641  -13.4730   22.6545 C   0  0  0  0  0  0  0  0  0  0  0  0
  -25.6257  -14.6841   20.5955 C   0  0  0  0  0  0  0  0  0  0  0  0
  -27.0480  -31.9910   23.8492 C   0  0  0  0  0  0  0  0  0  0  0  0
  -24.7066  -10.9086   20.5224 C   0  0  0  0  0  0  0  0  0  0  0  0
  -24.5876   -9.5322   20.7148 C   0  0  0  0  0  0  0  0  0  0  0  0
  -29.9325  -24.5020   22.9381 C   0  0  0  0  0  0  0  0  0  0  0  0
  -27.3105  -29.9096   22.6583 C   0  0  0  0  0  0  0  0  0  0  0  0
  -22.4621   -9.8696   21.8128 C   0  0  0  0  0  0  0  0  0  0  0  0
  -27.0939  -15.0410   22.4806 C   0  0  0  0  0  0  0  0  0  0  0  0
  -30.2222  -25.3124   21.8026 C   0  0  0  0  0  0  0  0  0  0  0  0
  -29.5694  -15.2738   23.0512 C   0  0  0  0  0  0  0  0  0  0  0  0
  -18.1230  -28.1764   22.7144 C   0  0  0  0  0  0  0  0  0  0  0  0
  -25.2982  -31.2201   22.3530 C   0  0  0  0  0  0  0  0  0  0  0  0
  -19.2094  -28.8776   23.2717 C   0  0  0  0  0  0  0  0  0  0  0  0
  -26.0609  -30.0847   22.0443 C   0  0  0  0  0  0  0  0  0  0  0  0
  -24.8953  -13.7577   21.3398 C   0  0  0  0  0  0  0  0  0  0  0  0
  -27.8002  -30.8569   23.5571 C   0  0  0  0  0  0  0  0  0  0  0  0
  -23.7034  -11.7655   20.9752 C   0  0  0  0  0  0  0  0  0  0  0  0
  -23.4653   -9.0127   21.3600 C   0  0  0  0  0  0  0  0  0  0  0  0
  -22.5812  -11.2460   21.6204 C   0  0  0  0  0  0  0  0  0  0  0  0
  -28.2292  -15.7046   23.0695 C   0  0  0  0  0  0  0  0  0  0  0  0
  -30.2518  -16.2454   23.7416 C   0  0  0  0  0  0  0  0  0  0  0  0
  -29.6449  -23.2017   22.5859 C   0  0  0  0  0  0  0  0  0  0  0  0
  -30.1453  -24.6005   20.6257 C   0  0  0  0  0  0  0  0  0  0  0  0
  -30.5712  -26.7549   21.8619 C   0  0  0  0  0  0  0  0  0  0  0  0
  -30.1458  -14.1003   22.4627 C   0  0  0  0  0  0  0  0  0  0  0  0
  -22.7464  -29.3256   22.3009 C   0  0  0  0  0  0  0  0  0  0  0  0
  -23.8104  -28.6258   19.3176 C   0  0  0  0  0  0  0  0  0  0  0  0
  -26.4291  -28.4892   17.1334 C   0  0  0  0  0  0  0  0  0  0  0  0
  -30.1923  -28.8354   23.1379 C   0  0  0  0  0  0  0  0  0  0  0  0
  -29.1851  -22.0341   24.7704 C   0  0  0  0  0  0  0  0  0  0  0  0
  -18.3002  -26.8294   22.0595 C   0  0  0  0  0  0  0  0  0  0  0  0
  -23.9664  -31.4460   21.6915 C   0  0  0  0  0  0  0  0  0  0  0  0
  -25.5719  -29.0402   21.0756 C   0  0  0  0  0  0  0  0  0  0  0  0
  -19.7455  -26.5250   21.6739 C   0  0  0  0  0  0  0  0  0  0  0  0
  -29.6574  -19.4887   27.2147 C   0  0  0  0  0  0  0  0  0  0  0  0
  -20.6875  -26.8622   22.8253 C   0  0  0  0  0  0  0  0  0  0  0  0
  -29.4728  -18.1901   26.4262 C   0  0  0  0  0  0  0  0  0  0  0  0
  -28.7092  -20.5849   26.7321 C   0  0  0  0  0  0  0  0  0  0  0  0
  -28.5664  -19.5522   24.5000 C   0  0  0  0  0  0  0  0  0  0  0  0
  -20.6261  -28.3553   23.1692 C   0  0  1  0  0  0  0  0  0  0  0  0
  -23.3221  -30.1573   21.1899 C   0  0  1  0  0  0  0  0  0  0  0  0
  -29.5449  -18.4383   24.9067 C   0  0  2  0  0  0  0  0  0  0  0  0
  -26.9971  -27.8390   14.7772 C   0  0  0  0  0  0  0  0  0  0  0  0
  -30.3170  -29.3019   25.6012 C   0  0  0  0  0  0  0  0  0  0  0  0
  -23.7141  -25.6807   20.1096 C   0  0  0  0  0  0  0  0  0  0  0  0
  -25.1540  -25.1720   18.1256 C   0  0  0  0  0  0  0  0  0  0  0  0
  -22.8899  -26.1671   17.7990 C   0  0  0  0  0  0  0  0  0  0  0  0
  -27.2879  -31.2397   16.4584 C   0  0  0  0  0  0  0  0  0  0  0  0
  -24.7516  -27.6015   18.7311 C   0  0  1  0  0  0  0  0  0  0  0  0
  -26.5719  -28.9700   15.7006 C   0  0  2  0  0  0  0  0  0  0  0  0
  -29.4347  -29.3290   24.3632 C   0  0  1  0  0  0  0  0  0  1  0  0
  -24.1361  -26.1739   18.7111 C   0  0  0  0  0  0  0  0  0  0  0  0
  -28.0678  -16.8598   23.7202 N   0  0  0  0  0  0  0  0  0  0  0  0
  -29.3154  -17.1632   24.1172 N   0  0  0  0  0  0  0  0  0  0  0  0
  -24.2609  -29.3032   20.4595 N   0  0  0  0  0  0  0  0  0  0  0  0
  -28.8358  -20.7675   25.2845 N   0  0  0  0  0  0  0  0  0  0  0  0
  -31.5555  -16.3957   24.0581 N   0  0  0  0  0  0  0  0  0  0  0  0
  -30.3616  -25.0678   19.3689 N   0  0  0  0  0  0  0  0  0  0  0  0
  -29.3014  -13.2068   21.7897 N   0  0  0  0  0  0  0  0  0  0  0  0
  -29.3079  -22.0790   23.3820 N   0  0  0  0  0  0  0  0  0  0  0  0
  -30.0124  -27.4680   22.9211 N   0  0  0  0  0  0  0  0  0  0  0  0
  -21.3821  -29.1272   22.2064 N   0  0  0  0  0  0  0  0  0  0  0  0
  -25.1355  -28.1052   17.4168 N   0  0  0  0  0  0  0  0  0  0  0  0
  -27.5916  -30.0536   15.6171 N   0  3  0  0  0  0  0  0  0  0  0  0
  -31.2892  -27.2327   20.9878 O   0  0  0  0  0  0  0  0  0  0  0  0
  -31.3707  -13.8432   22.5457 O   0  0  0  0  0  0  0  0  0  0  0  0
  -23.4854  -28.8944   23.1782 O   0  0  0  0  0  0  0  0  0  0  0  0
  -22.7187  -28.8229   18.7780 O   0  0  0  0  0  0  0  0  0  0  0  0
  -27.3717  -28.4540   17.9213 O   0  0  0  0  0  0  0  0  0  0  0  0
  -30.8611  -29.5850   22.4302 O   0  0  0  0  0  0  0  0  0  0  0  0
  -29.3888  -23.0008   25.5093 O   0  0  0  0  0  0  0  0  0  0  0  0
  -23.8227  -13.1316   20.7827 O   0  0  0  0  0  0  0  0  0  0  0  0
  -29.0145  -30.6750   24.1438 O   0  0  0  0  0  0  0  0  0  1  0  0
  -23.3504   -7.6908   21.5434 F   0  0  0  0  0  0  0  0  0  0  0  0
  -21.6136  -12.0641   22.0566 F   0  0  0  0  0  0  0  0  0  0  0  0
  -29.7249  -22.9621   20.8922 S   0  0  0  0  0  0  0  0  0  0  0  0
  1  2  1  0  0  0  0
  1  5  2  0  0  0  0
  2  6  2  0  0  0  0
  3  8  2  0  0  0  0
  3 16  1  0  0  0  0
  4  9  1  0  0  0  0
  4 16  2  0  0  0  0
  5 19  1  0  0  0  0
  6 21  1  0  0  0  0
  7 10  2  0  0  0  0
  7 20  1  0  0  0  0
  8 23  1  0  0  0  0
  9 23  2  0  0  0  0
 10 24  1  0  0  0  0
 11 12  2  0  0  0  0
 11 25  1  0  0  0  0
 12 26  1  0  0  0  0
 13 17  1  0  0  0  0
 13 30  2  0  0  0  0
 14 22  1  0  0  0  0
 14 24  2  0  0  0  0
 15 26  2  0  0  0  0
 15 27  1  0  0  0  0
 16 28  1  0  0  0  0
 17 31  2  0  0  0  0
 17 32  1  0  0  0  0
 18 28  1  0  0  0  0
 18 29  2  0  0  0  0
 18 33  1  0  0  0  0
 19 21  2  0  0  0  0
 19 39  1  0  0  0  0
 20 22  2  0  0  0  0
 20 40  1  0  0  0  0
 21 48  1  0  0  0  0
 22 41  1  0  0  0  0
 23 80  1  0  0  0  0
 24 81  1  0  0  0  0
 25 27  2  0  0  0  0
 25 80  1  0  0  0  0
 26 82  1  0  0  0  0
 27 83  1  0  0  0  0
 28 61  2  0  0  0  0
 29 62  1  0  0  0  0
 29 65  1  0  0  0  0
 30 68  1  0  0  0  0
 30 84  1  0  0  0  0
 31 66  1  0  0  0  0
 31 84  1  0  0  0  0
 32 69  1  0  0  0  0
 32 73  2  0  0  0  0
 33 67  1  0  0  0  0
 33 74  2  0  0  0  0
 34 49  1  0  0  0  0
 34 70  1  0  0  0  0
 34 75  2  0  0  0  0
 35 57  1  0  0  0  0
 35 63  1  0  0  0  0
 35 76  2  0  0  0  0
 36 58  1  0  0  0  0
 36 71  1  0  0  0  0
 36 77  2  0  0  0  0
 37 59  1  0  0  0  0
 37 69  1  0  0  0  0
 37 78  2  0  0  0  0
 38 64  1  0  0  0  0
 38 68  1  0  0  0  0
 38 79  2  0  0  0  0
 39 42  1  0  0  0  0
 40 49  1  0  0  0  0
 41 63  1  0  0  0  0
 42 44  1  0  0  0  0
 43 45  1  0  0  0  0
 43 46  1  0  0  0  0
 44 48  1  0  0  0  0
 45 50  1  0  0  0  0
 46 64  1  0  0  0  0
 47 50  1  0  0  0  0
 47 64  1  0  0  0  0
 48 70  1  0  0  0  0
 49 63  1  0  0  0  0
 50 62  1  0  0  0  0
 51 58  1  0  0  0  0
 52 59  1  0  0  0  0
 53 60  1  0  0  0  0
 54 60  1  0  0  0  0
 55 60  1  0  0  0  0
 56 72  1  0  0  0  0
 57 60  1  0  0  0  0
 57 71  1  0  0  0  0
 58 72  1  0  0  0  0
 59 81  1  0  0  0  0
 61 62  1  0  0  0  0
M  CHG  1  72   1
M  ISO  4  38 100  59 101  68 100  81 101
M  END
> <Batch ID>
0179

> <Smiles>
CNC(C)C(=O)NC(C(=O)N1Cc2cc([101O:1][101CH:1](C)C(=O)NC(=O)c3cc([100NH:0][100C:0](=O)N4CCCC(n5nc(-c6ccc(Oc7ccc(F)cc7F)cc6)c(C(N)=O)c5N)C4)sc3N)ccc2CC1C(=O)NC1CCCc2ccccc21)C(C)(C)C

> <Shape>
0.270

> <Color>
0.107

> <Negative vol penalty>
0.000

$$$$

  -OEChem-04052304473D

 84 92  0     1  0  0  0  0  0999 V2000
  -29.4330  -37.0397   22.1099 C   0  0  0  0  0  0  0  0  0  0  0  0
  -29.6561  -35.7758   21.5730 C   0  0  0  0  0  0  0  0  0  0  0  0
  -24.6751   -8.7719   21.7579 C   0  0  0  0  0  0  0  0  0  0  0  0
  -22.9872  -10.1518   20.7168 C   0  0  0  0  0  0  0  0  0  0  0  0
  -28.5484  -37.1966   23.1762 C   0  0  0  0  0  0  0  0  0  0  0  0
  -28.9956  -34.6679   22.1028 C   0  0  0  0  0  0  0  0  0  0  0  0
  -27.0134  -29.7503   19.0377 C   0  0  0  0  0  0  0  0  0  0  0  0
  -23.6821   -8.0821   22.4535 C   0  0  0  0  0  0  0  0  0  0  0  0
  -21.9942   -9.4619   21.4123 C   0  0  0  0  0  0  0  0  0  0  0  0
  -27.5529  -28.4776   18.8567 C   0  0  0  0  0  0  0  0  0  0  0  0
  -21.4352   -5.6371   21.8161 C   0  0  0  0  0  0  0  0  0  0  0  0
  -21.5201   -4.2455   21.8571 C   0  0  0  0  0  0  0  0  0  0  0  0
  -26.2092  -27.6549   20.6835 C   0  0  0  0  0  0  0  0  0  0  0  0
  -21.6498   -4.3244   24.2684 C   0  0  0  0  0  0  0  0  0  0  0  0
  -24.6709  -20.4030   18.4085 C   0  0  0  0  0  0  0  0  0  0  0  0
  -24.5063  -18.0395   18.8226 C   0  0  0  0  0  0  0  0  0  0  0  0
  -24.3276   -9.8068   20.8896 C   0  0  0  0  0  0  0  0  0  0  0  0
  -25.8779  -10.2060   18.9034 C   0  0  0  0  0  0  0  0  0  0  0  0
  -27.8694  -36.0914   23.7130 C   0  0  0  0  0  0  0  0  0  0  0  0
  -26.0743  -29.9878   20.0517 C   0  0  0  0  0  0  0  0  0  0  0  0
  -28.1022  -34.8100   23.1781 C   0  0  0  0  0  0  0  0  0  0  0  0
  -25.6575  -28.9311   20.8736 C   0  0  0  0  0  0  0  0  0  0  0  0
  -22.3417   -8.4270   22.2806 C   0  0  0  0  0  0  0  0  0  0  0  0
  -27.1530  -27.4303   19.6816 C   0  0  0  0  0  0  0  0  0  0  0  0
  -21.4577   -6.3724   23.0013 C   0  0  0  0  0  0  0  0  0  0  0  0
  -21.6274   -3.5891   23.0832 C   0  0  0  0  0  0  0  0  0  0  0  0
  -21.5650   -5.7161   24.2274 C   0  0  0  0  0  0  0  0  0  0  0  0
  -23.9708  -19.2074   18.2910 C   0  0  0  0  0  0  0  0  0  0  0  0
  -25.3529  -10.5201   20.1713 C   0  0  0  0  0  0  0  0  0  0  0  0
  -25.8927  -20.3776   19.0614 C   0  0  0  0  0  0  0  0  0  0  0  0
  -25.7356  -18.1199   19.4568 C   0  0  0  0  0  0  0  0  0  0  0  0
  -26.8173  -11.1803   18.6697 C   0  0  0  0  0  0  0  0  0  0  0  0
  -26.8229  -25.1621   19.2154 C   0  0  0  0  0  0  0  0  0  1  0  0
  -25.5459   -9.1297   18.0162 C   0  0  0  0  0  0  0  0  0  0  0  0
  -27.2301  -23.9014   19.0244 C   0  0  0  0  0  0  0  0  0  0  0  0
  -26.2112  -22.8481   18.7071 C   0  0  0  0  0  0  0  0  0  0  0  0
  -25.9871  -31.8281   22.6420 C   0  0  0  0  0  0  0  0  0  0  0  0
  -22.9232  -30.7760   22.8097 C   0  0  0  0  0  0  0  0  0  0  0  0
  -20.6360  -28.3753   22.0021 C   0  0  0  0  0  0  0  0  0  0  0  0
  -27.4843  -16.7715   20.6694 C   0  0  0  0  0  0  0  0  0  0  0  0
  -26.9588  -36.3037   24.8964 C   0  0  0  0  0  0  0  0  0  0  0  0
  -25.4820  -31.3605   20.2166 C   0  0  0  0  0  0  0  0  0  0  0  0
  -24.6371  -29.1292   21.9636 C   0  0  0  0  0  0  0  0  0  0  0  0
  -26.0144  -35.1327   25.1560 C   0  0  0  0  0  0  0  0  0  0  0  0
  -29.8280  -14.1083   20.9712 C   0  0  0  0  0  0  0  0  0  0  0  0
  -26.7740  -33.8112   25.0976 C   0  0  0  0  0  0  0  0  0  0  0  0
  -28.9955  -12.8578   20.6789 C   0  0  0  0  0  0  0  0  0  0  0  0
  -29.0292  -15.1523   21.7494 C   0  0  0  0  0  0  0  0  0  0  0  0
  -26.9084  -14.2717   20.8572 C   0  0  0  0  0  0  0  0  0  0  0  0
  -27.3858  -33.5874   23.7093 C   0  0  1  0  0  0  0  0  0  0  0  0
  -24.9160  -31.6033   21.6124 C   0  0  1  0  0  0  0  0  0  0  0  0
  -27.6502  -13.2181   20.0187 C   0  0  2  0  0  0  0  0  0  0  0  0
  -18.2197  -27.7728   22.3120 C   0  0  0  0  0  0  0  0  0  0  0  0
  -23.5090  -29.9113   25.6766 C   0  0  0  0  0  0  0  0  0  0  0  0
  -21.4403  -28.5031   25.6008 C   0  0  0  0  0  0  0  0  0  0  0  0
  -21.2718  -30.9788   25.3455 C   0  0  0  0  0  0  0  0  0  0  0  0
  -20.1237  -28.4492   19.0882 C   0  0  0  0  0  0  0  0  0  0  0  0
  -22.2304  -29.6003   23.4553 C   0  0  1  0  0  0  0  0  0  0  0  0
  -19.2361  -28.4720   21.4228 C   0  0  2  0  0  0  0  0  0  0  0  0
  -22.1336  -29.7448   25.0004 C   0  0  0  0  0  0  0  0  0  0  0  0
  -25.9125  -11.6088   20.7057 N   0  0  0  0  0  0  0  0  0  0  0  0
  -26.4451  -19.2629   19.5905 N   0  0  0  0  0  0  0  0  0  0  0  0
  -26.7989  -11.9872   19.7691 N   0  0  0  0  0  0  0  0  0  0  0  0
  -24.0919  -30.4909   22.0895 N   0  0  0  0  0  0  0  0  0  0  0  0
  -27.7699  -15.4468   21.0622 N   0  0  0  0  0  0  0  0  0  0  0  0
  -27.6491  -11.4169   17.6331 N   0  0  0  0  0  0  0  0  0  0  0  0
  -24.5576   -8.2182   18.4120 N   0  0  0  0  0  0  0  0  0  0  0  0
  -26.5975  -21.6001   19.1763 N   0  0  0  0  0  0  0  0  0  0  0  0
  -26.2732  -16.9246   19.9953 N   0  0  0  0  0  0  0  0  0  0  0  0
  -26.3715  -33.1487   22.7748 N   0  0  0  0  0  0  0  0  0  0  0  0
  -20.9410  -29.4682   22.7856 N   0  0  0  0  0  0  0  0  0  0  0  0
  -19.1900  -27.8436   20.0722 N   0  3  0  0  0  0  0  0  0  0  0  0
  -26.1206   -8.9713   16.9125 O   0  0  0  0  0  0  0  0  0  0  0  0
  -25.1823  -23.1289   18.1019 O   0  0  0  0  0  0  0  0  0  0  0  0
  -26.4307  -30.8742   23.2704 O   0  0  0  0  0  0  0  0  0  0  0  0
  -22.4412  -31.9046   22.9338 O   0  0  0  0  0  0  0  0  0  0  0  0
  -21.3826  -27.4236   21.7847 O   0  0  0  0  0  0  0  0  0  0  0  0
  -28.2697  -17.6971   20.8890 O   0  0  0  0  0  0  0  0  0  0  0  0
  -28.5565  -23.5293   19.1067 O   0  0  0  0  0  0  0  0  0  0  0  0
  -21.3725   -7.7540   22.9590 O   0  0  0  0  0  0  0  0  0  0  0  0
  -27.6784  -26.1871   19.5075 O   0  0  0  0  0  0  0  0  0  1  0  0
  -21.7073   -2.2526   23.1225 F   0  0  0  0  0  0  0  0  0  0  0  0
  -21.5859   -6.4170   25.3693 F   0  0  0  0  0  0  0  0  0  0  0  0
  -22.7855  -19.1810   17.6680 F   0  0  0  0  0  0  0  0  0  0  0  0
  1  2  1  0  0  0  0
  1  5  2  0  0  0  0
  2  6  2  0  0  0  0
  3  8  2  0  0  0  0
  3 17  1  0  0  0  0
  4  9  1  0  0  0  0
  4 17  2  0  0  0  0
  5 19  1  0  0  0  0
  6 21  1  0  0  0  0
  7 10  2  0  0  0  0
  7 20  1  0  0  0  0
  8 23  1  0  0  0  0
  9 23  2  0  0  0  0
 10 24  1  0  0  0  0
 11 12  2  0  0  0  0
 11 25  1  0  0  0  0
 12 26  1  0  0  0  0
 13 22  1  0  0  0  0
 13 24  2  0  0  0  0
 14 26  2  0  0  0  0
 14 27  1  0  0  0  0
 15 28  2  0  0  0  0
 15 30  1  0  0  0  0
 16 28  1  0  0  0  0
 16 31  2  0  0  0  0
 17 29  1  0  0  0  0
 18 29  1  0  0  0  0
 18 32  2  0  0  0  0
 18 34  1  0  0  0  0
 19 21  2  0  0  0  0
 19 41  1  0  0  0  0
 20 22  2  0  0  0  0
 20 42  1  0  0  0  0
 21 50  1  0  0  0  0
 22 43  1  0  0  0  0
 23 80  1  0  0  0  0
 24 81  1  0  0  0  0
 25 27  2  0  0  0  0
 25 80  1  0  0  0  0
 26 82  1  0  0  0  0
 27 83  1  0  0  0  0
 28 84  1  0  0  0  0
 29 61  2  0  0  0  0
 30 62  2  0  0  0  0
 30 68  1  0  0  0  0
 31 62  1  0  0  0  0
 31 69  1  0  0  0  0
 32 63  1  0  0  0  0
 32 66  1  0  0  0  0
 33 35  2  0  0  0  0
 33 81  1  0  0  0  0
 34 67  1  0  0  0  0
 34 73  2  0  0  0  0
 35 36  1  0  0  0  0
 35 79  1  0  0  0  0
 36 68  1  0  0  0  0
 36 74  2  0  0  0  0
 37 51  1  0  0  0  0
 37 70  1  0  0  0  0
 37 75  2  0  0  0  0
 38 58  1  0  0  0  0
 38 64  1  0  0  0  0
 38 76  2  0  0  0  0
 39 59  1  0  0  0  0
 39 71  1  0  0  0  0
 39 77  2  0  0  0  0
 40 65  1  0  0  0  0
 40 69  1  0  0  0  0
 40 78  2  0  0  0  0
 41 44  1  0  0  0  0
 42 51  1  0  0  0  0
 43 64  1  0  0  0  0
 44 46  1  0  0  0  0
 45 47  1  0  0  0  0
 45 48  1  0  0  0  0
 46 50  1  0  0  0  0
 47 52  1  0  0  0  0
 48 65  1  0  0  0  0
 49 52  1  0  0  0  0
 49 65  1  0  0  0  0
 50 70  1  0  0  0  0
 51 64  1  0  0  0  0
 52 63  1  0  0  0  0
 53 59  1  0  0  0  0
 54 60  1  0  0  0  0
 55 60  1  0  0  0  0
 56 60  1  0  0  0  0
 57 72  1  0  0  0  0
 58 60  1  0  0  0  0
 58 71  1  0  0  0  0
 59 72  1  0  0  0  0
 61 63  1  0  0  0  0
M  CHG  1  72   1
M  ISO  4  33 101  40 100  69 100  81 101
M  END
> <Batch ID>
0179

> <Smiles>
CNC(C)C(=O)NC(C(=O)N1Cc2cc([101O:1][101CH2:1]C(=O)C(=O)Nc3cc(F)cc([100NH:0][100C:0](=O)N4CCCC(n5nc(-c6ccc(Oc7ccc(F)cc7F)cc6)c(C(N)=O)c5N)C4)n3)ccc2CC1C(=O)NC1CCCc2ccccc21)C(C)(C)C

> <Shape>
0.292

> <Color>
0.097

> <Negative vol penalty>
0.000

$$$$

  -OEChem-04052304473D

 87 95  0     1  0  0  0  0  0999 V2000
  -22.3150  -16.6221   16.3563 C   0  0  0  0  0  0  0  0  0  0  0  0
  -23.3668  -17.5127   16.5457 C   0  0  0  0  0  0  0  0  0  0  0  0
  -22.8212   -9.6271   19.9665 C   0  0  0  0  0  0  0  0  0  0  0  0
  -23.9805   -9.8496   22.0745 C   0  0  0  0  0  0  0  0  0  0  0  0
  -21.0853  -17.0862   15.8913 C   0  0  0  0  0  0  0  0  0  0  0  0
  -23.1899  -18.8679   16.2692 C   0  0  0  0  0  0  0  0  0  0  0  0
  -25.1018  -21.8543   19.8845 C   0  0  0  0  0  0  0  0  0  0  0  0
  -22.0803   -8.5656   20.4860 C   0  0  0  0  0  0  0  0  0  0  0  0
  -23.2395   -8.7881   22.5940 C   0  0  0  0  0  0  0  0  0  0  0  0
  -26.4831  -22.0432   19.8898 C   0  0  0  0  0  0  0  0  0  0  0  0
  -21.3991   -6.3706   24.5908 C   0  0  0  0  0  0  0  0  0  0  0  0
  -20.8646   -6.5170   25.8708 C   0  0  0  0  0  0  0  0  0  0  0  0
  -26.1898  -24.1751   18.8000 C   0  0  0  0  0  0  0  0  0  0  0  0
  -19.6025   -8.4371   25.1241 C   0  0  0  0  0  0  0  0  0  0  0  0
  -23.7714  -10.2691   20.7608 C   0  0  0  0  0  0  0  0  0  0  0  0
  -24.0419  -12.5849   19.7256 C   0  0  0  0  0  0  0  0  0  0  0  0
  -20.8902  -18.4493   15.6180 C   0  0  0  0  0  0  0  0  0  0  0  0
  -24.2534  -22.8211   19.3261 C   0  0  0  0  0  0  0  0  0  0  0  0
  -21.9568  -19.3505   15.7987 C   0  0  0  0  0  0  0  0  0  0  0  0
  -24.7979  -23.9973   18.7911 C   0  0  0  0  0  0  0  0  0  0  0  0
  -22.2895   -8.1461   21.7997 C   0  0  0  0  0  0  0  0  0  0  0  0
  -27.0275  -23.2024   19.3449 C   0  0  0  0  0  0  0  0  0  0  0  0
  -21.0355   -7.2576   23.5774 C   0  0  0  0  0  0  0  0  0  0  0  0
  -19.9662   -7.5502   26.1374 C   0  0  0  0  0  0  0  0  0  0  0  0
  -20.1371   -8.2907   23.8441 C   0  0  0  0  0  0  0  0  0  0  0  0
  -24.5374  -11.3654   20.2246 C   0  0  0  0  0  0  0  0  0  0  0  0
  -30.8766  -19.3946   20.3519 C   0  0  0  0  0  0  0  0  0  0  0  0
  -25.1627  -13.2790   19.3403 C   0  0  0  0  0  0  0  0  0  0  0  0
  -29.6111  -19.8660   20.6322 C   0  0  0  0  0  0  0  0  0  0  0  0
  -29.8294  -17.4718   20.4805 C   0  0  0  0  0  0  0  0  0  0  0  0
  -22.6894  -13.0489   19.6200 C   0  0  0  0  0  0  0  0  0  0  0  0
  -22.1874  -22.8666   16.9108 C   0  0  0  0  0  0  0  0  0  0  0  0
  -28.6900  -23.3184   21.8246 C   0  0  0  0  0  0  0  0  0  0  0  0
  -21.5282  -25.8346   18.0416 C   0  0  0  0  0  0  0  0  0  0  0  0
  -22.5734  -28.5590   19.8114 C   0  0  0  0  0  0  0  0  0  0  0  0
  -30.3701  -15.0210   20.2632 C   0  0  0  0  0  0  0  0  0  0  0  0
  -19.5574  -18.8968   15.0721 C   0  0  0  0  0  0  0  0  0  0  0  0
  -22.7637  -22.6145   19.3522 C   0  0  0  0  0  0  0  0  0  0  0  0
  -23.9290  -25.0750   18.1978 C   0  0  0  0  0  0  0  0  0  0  0  0
  -19.3388  -20.4050   15.1594 C   0  0  0  0  0  0  0  0  0  0  0  0
  -29.9711  -11.7699   18.8672 C   0  0  0  0  0  0  0  0  0  0  0  0
  -20.5733  -21.1528   14.6659 C   0  0  0  0  0  0  0  0  0  0  0  0
  -28.4811  -11.4752   19.0548 C   0  0  0  0  0  0  0  0  0  0  0  0
  -30.5474  -12.5518   20.0462 C   0  0  0  0  0  0  0  0  0  0  0  0
  -28.3308  -13.4857   20.5787 C   0  0  0  0  0  0  0  0  0  0  0  0
  -21.7963  -20.8317   15.5335 C   0  0  1  0  0  0  0  0  0  0  0  0
  -22.0286  -23.4314   18.2941 C   0  0  1  0  0  0  0  0  0  0  0  0
  -27.6907  -12.7561   19.3864 C   0  0  2  0  0  0  0  0  0  0  0  0
  -32.0879  -20.2152   20.1408 C   0  0  0  0  0  0  0  0  0  0  0  0
  -30.7942  -24.9027   18.9214 C   0  0  0  0  0  0  0  0  0  0  0  0
  -22.4335  -30.7946   20.9426 C   0  0  0  0  0  0  0  0  0  0  0  0
  -30.6185  -21.9120   22.6263 C   0  0  0  0  0  0  0  0  0  0  0  0
  -28.2759  -21.1212   22.9935 C   0  0  0  0  0  0  0  0  0  0  0  0
  -28.3068  -25.4434   20.5809 C   0  0  0  0  0  0  0  0  0  0  0  0
  -22.0452  -26.8865   15.2245 C   0  0  0  0  0  0  0  0  0  0  0  0
  -22.2263  -29.1884   16.1924 C   0  0  0  0  0  0  0  0  0  0  0  0
  -20.0851  -27.9227   16.3815 C   0  0  0  0  0  0  0  0  0  0  0  0
  -21.6295  -27.3492   22.3421 C   0  0  0  0  0  0  0  0  0  0  0  0
  -30.4529  -24.1919   20.2276 C   0  0  0  0  0  0  0  0  0  0  0  0
  -22.0678  -27.2209   17.7845 C   0  0  1  0  0  0  0  0  0  0  0  0
  -21.8982  -29.3718   20.9014 C   0  0  2  0  0  0  0  0  0  0  0  0
  -29.2061  -21.8852   22.0408 C   0  0  0  0  0  0  0  0  0  0  0  0
  -28.9371  -24.0487   20.4822 C   0  0  1  0  0  0  0  0  0  1  0  0
  -21.6229  -27.7836   16.4051 C   0  0  0  0  0  0  0  0  0  0  0  0
  -25.8693  -11.2861   20.1630 N   0  0  0  0  0  0  0  0  0  0  0  0
  -31.0038  -18.0220   20.2649 N   0  0  0  0  0  0  0  0  0  0  0  0
  -26.2202  -12.4646   19.6206 N   0  0  0  0  0  0  0  0  0  0  0  0
  -22.4790  -24.8237   18.2411 N   0  0  0  0  0  0  0  0  0  0  0  0
  -29.7502  -13.7540   20.2991 N   0  0  0  0  0  0  0  0  0  0  0  0
  -25.3370  -14.5003   18.7923 N   0  0  0  0  0  0  0  0  0  0  0  0
  -22.1406  -13.7588   20.6966 N   0  0  0  0  0  0  0  0  0  0  0  0
  -29.2024  -21.1791   20.7752 N   0  0  0  0  0  0  0  0  0  0  0  0
  -29.5059  -16.0923   20.4863 N   0  0  0  0  0  0  0  0  0  0  0  0
  -21.7391  -21.5662   16.7792 N   0  0  0  0  0  0  0  0  0  0  0  0
  -21.6578  -28.0361   18.9228 N   0  0  0  0  0  0  0  0  0  0  0  0
  -22.1284  -28.7443   22.2333 N   0  3  0  0  0  0  0  0  0  0  0  0
  -21.9830  -12.8259   18.6077 O   0  0  0  0  0  0  0  0  0  0  0  0
  -22.6789  -23.5599   16.0279 O   0  0  0  0  0  0  0  0  0  0  0  0
  -28.0789  -23.9027   22.7274 O   0  0  0  0  0  0  0  0  0  0  0  0
  -20.3079  -25.6566   18.0716 O   0  0  0  0  0  0  0  0  0  0  0  0
  -23.7915  -28.4065   19.7519 O   0  0  0  0  0  0  0  0  0  0  0  0
  -31.5736  -15.1480   20.0232 O   0  0  0  0  0  0  0  0  0  0  0  0
  -21.5665   -7.1104   22.3070 O   0  0  0  0  0  0  0  0  0  0  0  0
  -28.3755  -23.3889   19.3483 O   0  0  0  0  0  0  0  0  0  1  0  0
  -19.4517   -7.6897   27.3662 F   0  0  0  0  0  0  0  0  0  0  0  0
  -19.7831   -9.1452   22.8743 F   0  0  0  0  0  0  0  0  0  0  0  0
  -28.5282  -18.5459   20.7936 S   0  0  0  0  0  0  0  0  0  0  0  0
  1  2  1  0  0  0  0
  1  5  2  0  0  0  0
  2  6  2  0  0  0  0
  3  8  2  0  0  0  0
  3 15  1  0  0  0  0
  4  9  1  0  0  0  0
  4 15  2  0  0  0  0
  5 17  1  0  0  0  0
  6 19  1  0  0  0  0
  7 10  2  0  0  0  0
  7 18  1  0  0  0  0
  8 21  1  0  0  0  0
  9 21  2  0  0  0  0
 10 22  1  0  0  0  0
 11 12  2  0  0  0  0
 11 23  1  0  0  0  0
 12 24  1  0  0  0  0
 13 20  1  0  0  0  0
 13 22  2  0  0  0  0
 14 24  2  0  0  0  0
 14 25  1  0  0  0  0
 15 26  1  0  0  0  0
 16 26  1  0  0  0  0
 16 28  2  0  0  0  0
 16 31  1  0  0  0  0
 17 19  2  0  0  0  0
 17 37  1  0  0  0  0
 18 20  2  0  0  0  0
 18 38  1  0  0  0  0
 19 46  1  0  0  0  0
 20 39  1  0  0  0  0
 21 83  1  0  0  0  0
 22 84  1  0  0  0  0
 23 25  2  0  0  0  0
 23 83  1  0  0  0  0
 24 85  1  0  0  0  0
 25 86  1  0  0  0  0
 26 65  2  0  0  0  0
 27 29  2  0  0  0  0
 27 49  1  0  0  0  0
 27 66  1  0  0  0  0
 28 67  1  0  0  0  0
 28 70  1  0  0  0  0
 29 72  1  0  0  0  0
 29 87  1  0  0  0  0
 30 66  2  0  0  0  0
 30 73  1  0  0  0  0
 30 87  1  0  0  0  0
 31 71  1  0  0  0  0
 31 77  2  0  0  0  0
 32 47  1  0  0  0  0
 32 74  1  0  0  0  0
 32 78  2  0  0  0  0
 33 62  1  0  0  0  0
 33 63  1  0  0  0  0
 33 79  2  0  0  0  0
 34 60  1  0  0  0  0
 34 68  1  0  0  0  0
 34 80  2  0  0  0  0
 35 61  1  0  0  0  0
 35 75  1  0  0  0  0
 35 81  2  0  0  0  0
 36 69  1  0  0  0  0
 36 73  1  0  0  0  0
 36 82  2  0  0  0  0
 37 40  1  0  0  0  0
 38 47  1  0  0  0  0
 39 68  1  0  0  0  0
 40 42  1  0  0  0  0
 41 43  1  0  0  0  0
 41 44  1  0  0  0  0
 42 46  1  0  0  0  0
 43 48  1  0  0  0  0
 44 69  1  0  0  0  0
 45 48  1  0  0  0  0
 45 69  1  0  0  0  0
 46 74  1  0  0  0  0
 47 68  1  0  0  0  0
 48 67  1  0  0  0  0
 50 59  1  0  0  0  0
 51 61  1  0  0  0  0
 52 62  1  0  0  0  0
 53 62  1  0  0  0  0
 54 63  1  0  0  0  0
 55 64  1  0  0  0  0
 56 64  1  0  0  0  0
 57 64  1  0  0  0  0
 58 76  1  0  0  0  0
 59 63  1  0  0  0  0
 60 64  1  0  0  0  0
 60 75  1  0  0  0  0
 61 76  1  0  0  0  0
 62 72  1  0  0  0  0
 63 84  1  0  0  0  0
 65 67  1  0  0  0  0
M  CHG  1  76   1
M  ISO  4  36 100  63 101  73 100  84 101
M  END
> <Batch ID>
0179

> <Smiles>
CC[101C:1](C)(C(=O)C(C)(C)Nc1sc([100NH:0][100C:0](=O)N2CCCC(n3nc(-c4ccc(Oc5ccc(F)cc5F)cc4)c(C(N)=O)c3N)C2)nc1C)[101O:1]c1ccc2c(c1)CN(C(=O)C(NC(=O)C(C)NC)C(C)(C)C)C(C(=O)NC1CCCc3ccccc31)C2

> <Shape>
0.221

> <Color>
0.110

> <Negative vol penalty>
0.000

$$$$

  -OEChem-04052304473D

 84 92  0     1  0  0  0  0  0999 V2000
  -25.1132  -36.9304   22.2112 C   0  0  0  0  0  0  0  0  0  0  0  0
  -25.8757  -35.8915   21.6871 C   0  0  0  0  0  0  0  0  0  0  0  0
  -23.2260  -10.8776   21.8137 C   0  0  0  0  0  0  0  0  0  0  0  0
  -22.6633  -13.0815   20.9991 C   0  0  0  0  0  0  0  0  0  0  0  0
  -24.2876  -36.7015   23.3112 C   0  0  0  0  0  0  0  0  0  0  0  0
  -25.8138  -34.6232   22.2634 C   0  0  0  0  0  0  0  0  0  0  0  0
  -26.2209  -29.2410   19.3700 C   0  0  0  0  0  0  0  0  0  0  0  0
  -22.1466  -10.9280   22.6956 C   0  0  0  0  0  0  0  0  0  0  0  0
  -21.5838  -13.1318   21.8810 C   0  0  0  0  0  0  0  0  0  0  0  0
  -27.2789  -28.3514   19.1883 C   0  0  0  0  0  0  0  0  0  0  0  0
  -18.4410  -11.9000   22.0413 C   0  0  0  0  0  0  0  0  0  0  0  0
  -17.2221  -12.3629   21.5456 C   0  0  0  0  0  0  0  0  0  0  0  0
  -26.5181  -27.0685   21.0842 C   0  0  0  0  0  0  0  0  0  0  0  0
  -30.5224  -18.2975   20.0888 C   0  0  0  0  0  0  0  0  0  0  0  0
  -17.2442  -14.1555   23.1653 C   0  0  0  0  0  0  0  0  0  0  0  0
  -28.4269  -18.4873   18.9800 C   0  0  0  0  0  0  0  0  0  0  0  0
  -23.4844  -11.9544   20.9655 C   0  0  0  0  0  0  0  0  0  0  0  0
  -24.5973  -11.4148   18.7343 C   0  0  0  0  0  0  0  0  0  0  0  0
  -24.2082  -35.4274   23.8952 C   0  0  0  0  0  0  0  0  0  0  0  0
  -25.3083  -29.0568   20.4186 C   0  0  0  0  0  0  0  0  0  0  0  0
  -24.9874  -34.3774   23.3730 C   0  0  0  0  0  0  0  0  0  0  0  0
  -25.4479  -27.9557   21.2756 C   0  0  0  0  0  0  0  0  0  0  0  0
  -29.4273  -17.6792   19.4957 C   0  0  0  0  0  0  0  0  0  0  0  0
  -21.3254  -12.0550   22.7293 C   0  0  0  0  0  0  0  0  0  0  0  0
  -27.4294  -27.2666   20.0472 C   0  0  0  0  0  0  0  0  0  0  0  0
  -19.0614  -12.5647   23.0991 C   0  0  0  0  0  0  0  0  0  0  0  0
  -16.6238  -13.4906   22.1076 C   0  0  0  0  0  0  0  0  0  0  0  0
  -30.5827  -19.6854   20.1472 C   0  0  0  0  0  0  0  0  0  0  0  0
  -18.4631  -13.6925   23.6610 C   0  0  0  0  0  0  0  0  0  0  0  0
  -24.5997  -11.9033   20.0546 C   0  0  0  0  0  0  0  0  0  0  0  0
  -29.5306  -20.4037   19.6022 C   0  0  0  0  0  0  0  0  0  0  0  0
  -25.8898  -11.5862   18.3024 C   0  0  0  0  0  0  0  0  0  0  0  0
  -28.1640  -25.0847   19.6345 C   0  0  0  0  0  0  0  0  0  1  0  0
  -23.5227  -10.8563   17.9668 C   0  0  0  0  0  0  0  0  0  0  0  0
  -29.0987  -24.1449   19.4481 C   0  0  0  0  0  0  0  0  0  0  0  0
  -28.6684  -22.7316   19.1923 C   0  0  0  0  0  0  0  0  0  0  0  0
  -24.4629  -30.7411   22.9783 C   0  0  0  0  0  0  0  0  0  0  0  0
  -22.2308  -28.4087   23.2938 C   0  0  0  0  0  0  0  0  0  0  0  0
  -21.2784  -25.2004   22.6252 C   0  0  0  0  0  0  0  0  0  0  0  0
  -30.2620  -15.3357   19.8928 C   0  0  0  0  0  0  0  0  0  0  0  0
  -23.3375  -35.2397   25.1123 C   0  0  0  0  0  0  0  0  0  0  0  0
  -24.1569  -30.0103   20.5849 C   0  0  0  0  0  0  0  0  0  0  0  0
  -24.4835  -27.7020   22.4043 C   0  0  0  0  0  0  0  0  0  0  0  0
  -23.0445  -33.7761   25.4317 C   0  0  0  0  0  0  0  0  0  0  0  0
  -30.3885  -11.7777   19.9330 C   0  0  0  0  0  0  0  0  0  0  0  0
  -24.3240  -32.9484   25.3639 C   0  0  0  0  0  0  0  0  0  0  0  0
  -28.9186  -11.3616   19.8424 C   0  0  0  0  0  0  0  0  0  0  0  0
  -30.5708  -13.0354   20.7807 C   0  0  0  0  0  0  0  0  0  0  0  0
  -28.2677  -13.7616   20.2933 C   0  0  0  0  0  0  0  0  0  0  0  0
  -24.9285  -32.9817   23.9550 C   0  0  1  0  0  0  0  0  0  0  0  0
  -23.5845  -30.0150   21.9991 C   0  0  1  0  0  0  0  0  0  0  0  0
  -28.0267  -12.5367   19.3960 C   0  0  2  0  0  0  0  0  0  0  0  0
  -19.4191  -23.5689   23.0475 C   0  0  0  0  0  0  0  0  0  0  0  0
  -23.2333  -28.0086   26.1477 C   0  0  0  0  0  0  0  0  0  0  0  0
  -22.0410  -25.8074   26.1838 C   0  0  0  0  0  0  0  0  0  0  0  0
  -20.7469  -27.9202   25.8934 C   0  0  0  0  0  0  0  0  0  0  0  0
  -20.7030  -24.9301   19.7347 C   0  0  0  0  0  0  0  0  0  0  0  0
  -22.1747  -27.0694   23.9882 C   0  0  1  0  0  0  0  0  0  0  0  0
  -19.9740  -24.6247   22.1041 C   0  0  2  0  0  0  0  0  0  0  0  0
  -22.0685  -27.2070   25.5333 C   0  0  0  0  0  0  0  0  0  0  0  0
  -28.4504  -19.8384   19.0182 N   0  0  0  0  0  0  0  0  0  0  0  0
  -25.7987  -12.3511   20.4365 N   0  0  0  0  0  0  0  0  0  0  0  0
  -26.5617  -12.1447   19.3496 N   0  0  0  0  0  0  0  0  0  0  0  0
  -23.3778  -28.6660   22.5297 N   0  0  0  0  0  0  0  0  0  0  0  0
  -29.6978  -14.1072   20.2967 N   0  0  0  0  0  0  0  0  0  0  0  0
  -26.5057  -11.3119   17.1329 N   0  0  0  0  0  0  0  0  0  0  0  0
  -22.2587  -10.7532   18.5634 N   0  0  0  0  0  0  0  0  0  0  0  0
  -29.3378  -16.2671   19.4206 N   0  0  0  0  0  0  0  0  0  0  0  0
  -29.5984  -21.8164   19.6661 N   0  0  0  0  0  0  0  0  0  0  0  0
  -24.2017  -32.0948   23.0721 N   0  0  0  0  0  0  0  0  0  0  0  0
  -21.0707  -26.3381   23.3761 N   0  0  0  0  0  0  0  0  0  0  0  0
  -20.1814  -23.9986   20.7678 N   0  3  0  0  0  0  0  0  0  0  0  0
  -23.6827  -10.4452   16.7925 O   0  0  0  0  0  0  0  0  0  0  0  0
  -27.6079  -22.4885   18.6265 O   0  0  0  0  0  0  0  0  0  0  0  0
  -25.3135  -30.1190   23.6037 O   0  0  0  0  0  0  0  0  0  0  0  0
  -21.2882  -29.1945   23.4188 O   0  0  0  0  0  0  0  0  0  0  0  0
  -22.3719  -24.6897   22.3927 O   0  0  0  0  0  0  0  0  0  0  0  0
  -31.4786  -15.5363   19.9352 O   0  0  0  0  0  0  0  0  0  0  0  0
  -30.4497  -24.4251   19.4805 O   0  0  0  0  0  0  0  0  0  0  0  0
  -20.2718  -12.1044   23.5896 O   0  0  0  0  0  0  0  0  0  0  0  0
  -28.4616  -26.3972   19.8724 O   0  0  0  0  0  0  0  0  0  1  0  0
  -15.4541  -13.9360   21.6304 F   0  0  0  0  0  0  0  0  0  0  0  0
  -31.6299  -20.2945   20.7178 F   0  0  0  0  0  0  0  0  0  0  0  0
  -19.0549  -14.3360   24.6766 F   0  0  0  0  0  0  0  0  0  0  0  0
  1  2  1  0  0  0  0
  1  5  2  0  0  0  0
  2  6  2  0  0  0  0
  3  8  2  0  0  0  0
  3 17  1  0  0  0  0
  4  9  1  0  0  0  0
  4 17  2  0  0  0  0
  5 19  1  0  0  0  0
  6 21  1  0  0  0  0
  7 10  2  0  0  0  0
  7 20  1  0  0  0  0
  8 24  1  0  0  0  0
  9 24  2  0  0  0  0
 10 25  1  0  0  0  0
 11 12  2  0  0  0  0
 11 26  1  0  0  0  0
 12 27  1  0  0  0  0
 13 22  1  0  0  0  0
 13 25  2  0  0  0  0
 14 23  2  0  0  0  0
 14 28  1  0  0  0  0
 15 27  2  0  0  0  0
 15 29  1  0  0  0  0
 16 23  1  0  0  0  0
 16 61  2  0  0  0  0
 17 30  1  0  0  0  0
 18 30  1  0  0  0  0
 18 32  2  0  0  0  0
 18 34  1  0  0  0  0
 19 21  2  0  0  0  0
 19 41  1  0  0  0  0
 20 22  2  0  0  0  0
 20 42  1  0  0  0  0
 21 50  1  0  0  0  0
 22 43  1  0  0  0  0
 23 68  1  0  0  0  0
 24 80  1  0  0  0  0
 25 81  1  0  0  0  0
 26 29  2  0  0  0  0
 26 80  1  0  0  0  0
 27 82  1  0  0  0  0
 28 31  2  0  0  0  0
 28 83  1  0  0  0  0
 29 84  1  0  0  0  0
 30 62  2  0  0  0  0
 31 61  1  0  0  0  0
 31 69  1  0  0  0  0
 32 63  1  0  0  0  0
 32 66  1  0  0  0  0
 33 35  2  0  0  0  0
 33 81  1  0  0  0  0
 34 67  1  0  0  0  0
 34 73  2  0  0  0  0
 35 36  1  0  0  0  0
 35 79  1  0  0  0  0
 36 69  1  0  0  0  0
 36 74  2  0  0  0  0
 37 51  1  0  0  0  0
 37 70  1  0  0  0  0
 37 75  2  0  0  0  0
 38 58  1  0  0  0  0
 38 64  1  0  0  0  0
 38 76  2  0  0  0  0
 39 59  1  0  0  0  0
 39 71  1  0  0  0  0
 39 77  2  0  0  0  0
 40 65  1  0  0  0  0
 40 68  1  0  0  0  0
 40 78  2  0  0  0  0
 41 44  1  0  0  0  0
 42 51  1  0  0  0  0
 43 64  1  0  0  0  0
 44 46  1  0  0  0  0
 45 47  1  0  0  0  0
 45 48  1  0  0  0  0
 46 50  1  0  0  0  0
 47 52  1  0  0  0  0
 48 65  1  0  0  0  0
 49 52  1  0  0  0  0
 49 65  1  0  0  0  0
 50 70  1  0  0  0  0
 51 64  1  0  0  0  0
 52 63  1  0  0  0  0
 53 59  1  0  0  0  0
 54 60  1  0  0  0  0
 55 60  1  0  0  0  0
 56 60  1  0  0  0  0
 57 72  1  0  0  0  0
 58 60  1  0  0  0  0
 58 71  1  0  0  0  0
 59 72  1  0  0  0  0
 62 63  1  0  0  0  0
M  CHG  1  72   1
M  ISO  4  33 101  40 100  68 100  81 101
M  END
> <Batch ID>
0179

> <Smiles>
CNC(C)C(=O)NC(C(=O)N1Cc2cc([101O:1][101CH2:1]C(=O)C(=O)Nc3ncc([100NH:0][100C:0](=O)N4CCCC(n5nc(-c6ccc(Oc7ccc(F)cc7F)cc6)c(C(N)=O)c5N)C4)cc3F)ccc2CC1C(=O)NC1CCCc2ccccc21)C(C)(C)C

> <Shape>
0.287

> <Color>
0.075

> <Negative vol penalty>
0.000

$$$$

  -OEChem-04052304473D

 89 98  0     1  0  0  0  0  0999 V2000
  -27.5696  -33.5583   27.4731 C   0  0  0  0  0  0  0  0  0  0  0  0
  -27.3041  -32.2735   27.0104 C   0  0  0  0  0  0  0  0  0  0  0  0
  -28.9015  -18.4670   28.6488 C   0  0  0  0  0  0  0  0  0  0  0  0
  -23.0784   -9.8613   19.9397 C   0  0  0  0  0  0  0  0  0  0  0  0
  -23.8364   -9.8716   22.2337 C   0  0  0  0  0  0  0  0  0  0  0  0
  -27.6754  -34.6153   26.5701 C   0  0  0  0  0  0  0  0  0  0  0  0
  -27.1430  -32.0452   25.6442 C   0  0  0  0  0  0  0  0  0  0  0  0
  -29.6363  -27.9340   24.0546 C   0  0  0  0  0  0  0  0  0  0  0  0
  -22.3363   -8.7071   20.1900 C   0  0  0  0  0  0  0  0  0  0  0  0
  -23.0943   -8.7173   22.4840 C   0  0  0  0  0  0  0  0  0  0  0  0
  -29.0568  -26.6946   24.3228 C   0  0  0  0  0  0  0  0  0  0  0  0
  -19.8670   -7.9145   23.0846 C   0  0  0  0  0  0  0  0  0  0  0  0
  -19.1092   -7.8742   24.2549 C   0  0  0  0  0  0  0  0  0  0  0  0
  -27.9433  -18.9176   27.7095 C   0  0  0  0  0  0  0  0  0  0  0  0
  -28.2170  -26.6051   22.0631 C   0  0  0  0  0  0  0  0  0  0  0  0
  -20.3533   -5.9395   24.9940 C   0  0  0  0  0  0  0  0  0  0  0  0
  -31.7992  -18.7345   22.2514 C   0  0  0  0  0  0  0  0  0  0  0  0
  -29.8441  -19.4645   28.7413 C   0  0  0  0  0  0  0  0  0  0  0  0
  -23.8285  -10.4436   20.9615 C   0  0  0  0  0  0  0  0  0  0  0  0
  -24.1660  -12.9692   20.8397 C   0  0  0  0  0  0  0  0  0  0  0  0
  -27.5252  -34.3981   25.1914 C   0  0  0  0  0  0  0  0  0  0  0  0
  -29.5010  -28.5243   22.7898 C   0  0  0  0  0  0  0  0  0  0  0  0
  -27.2456  -33.1005   24.7220 C   0  0  0  0  0  0  0  0  0  0  0  0
  -28.7979  -27.8509   21.7807 C   0  0  0  0  0  0  0  0  0  0  0  0
  -22.3442   -8.1351   21.4622 C   0  0  0  0  0  0  0  0  0  0  0  0
  -28.3446  -26.0313   23.3278 C   0  0  0  0  0  0  0  0  0  0  0  0
  -20.8680   -6.9672   22.8689 C   0  0  0  0  0  0  0  0  0  0  0  0
  -19.3524   -6.8867   25.2096 C   0  0  0  0  0  0  0  0  0  0  0  0
  -21.1111   -5.9798   23.8236 C   0  0  0  0  0  0  0  0  0  0  0  0
  -24.5957  -11.6355   20.7034 C   0  0  0  0  0  0  0  0  0  0  0  0
  -30.6977  -19.0998   22.9966 C   0  0  0  0  0  0  0  0  0  0  0  0
  -28.3686  -20.1583   27.2952 C   0  0  0  0  0  0  0  0  0  0  0  0
  -25.2572  -13.7202   20.4767 C   0  0  0  0  0  0  0  0  0  0  0  0
  -30.5622  -16.9571   21.9043 C   0  0  0  0  0  0  0  0  0  0  0  0
  -22.8943  -13.4832   21.2571 C   0  0  0  0  0  0  0  0  0  0  0  0
  -30.4424  -20.3307   23.7883 C   0  0  0  0  0  0  0  0  0  0  0  0
  -28.1916  -31.2055   21.6943 C   0  0  0  0  0  0  0  0  0  0  0  0
  -28.1819  -22.5278   24.2528 C   0  0  0  0  0  0  0  0  0  0  0  0
  -29.5265  -30.2534   18.8953 C   0  0  0  0  0  0  0  0  0  0  0  0
  -30.7139  -27.6949   16.9742 C   0  0  0  0  0  0  0  0  0  0  0  0
  -30.7215  -14.7753   20.6550 C   0  0  0  0  0  0  0  0  0  0  0  0
  -27.6013  -35.5802   24.2577 C   0  0  0  0  0  0  0  0  0  0  0  0
  -30.1547  -29.8494   22.5086 C   0  0  0  0  0  0  0  0  0  0  0  0
  -28.6408  -28.4324   20.4003 C   0  0  0  0  0  0  0  0  0  0  0  0
  -27.7890  -35.1892   22.7941 C   0  0  0  0  0  0  0  0  0  0  0  0
  -29.6131  -12.3578   18.2877 C   0  0  0  0  0  0  0  0  0  0  0  0
  -26.8261  -34.0692   22.4130 C   0  0  0  0  0  0  0  0  0  0  0  0
  -28.1736  -12.0641   18.7163 C   0  0  0  0  0  0  0  0  0  0  0  0
  -30.5268  -12.5891   19.4899 C   0  0  0  0  0  0  0  0  0  0  0  0
  -28.6176  -13.3113   20.8691 C   0  0  0  0  0  0  0  0  0  0  0  0
  -27.0891  -32.8085   23.2454 C   0  0  1  0  0  0  0  0  0  0  0  0
  -29.5173  -30.5939   21.3394 C   0  0  1  0  0  0  0  0  0  0  0  0
  -27.6460  -13.1355   19.6906 C   0  0  2  0  0  0  0  0  0  0  0  0
  -31.7050  -27.2215   14.7179 C   0  0  0  0  0  0  0  0  0  0  0  0
  -26.7675  -30.5441   17.6251 C   0  0  0  0  0  0  0  0  0  0  0  0
  -27.5912  -29.1839   15.6913 C   0  0  0  0  0  0  0  0  0  0  0  0
  -28.6580  -31.3770   16.2155 C   0  0  0  0  0  0  0  0  0  0  0  0
  -33.2167  -26.6552   18.1632 C   0  0  0  0  0  0  0  0  0  0  0  0
  -27.8136  -21.1667   26.3195 C   0  0  0  0  0  0  0  0  0  0  0  0
  -28.4250  -23.9944   24.5528 C   0  0  0  0  0  0  0  0  0  1  0  0
  -28.8111  -21.5338   25.2192 C   0  0  1  0  0  0  0  0  0  0  0  0
  -29.0793  -29.3996   17.7335 C   0  0  1  0  0  0  0  0  0  0  0  0
  -31.9958  -27.5465   16.1748 C   0  0  2  0  0  0  0  0  0  0  0  0
  -28.0251  -30.1158   16.8428 C   0  0  0  0  0  0  0  0  0  0  0  0
  -31.7235  -17.5060   21.6246 N   0  0  0  0  0  0  0  0  0  0  0  0
  -25.8611  -11.5415   20.2862 N   0  0  0  0  0  0  0  0  0  0  0  0
  -26.2359  -12.8257   20.1571 N   0  0  0  0  0  0  0  0  0  0  0  0
  -29.2929  -29.7332   20.1762 N   0  0  0  0  0  0  0  0  0  0  0  0
  -29.9654  -13.6196   20.3660 N   0  0  0  0  0  0  0  0  0  0  0  0
  -25.4654  -15.0520   20.4027 N   0  0  0  0  0  0  0  0  0  0  0  0
  -21.8837  -12.5725   21.5943 N   0  0  0  0  0  0  0  0  0  0  0  0
  -30.0719  -15.6999   21.4721 N   0  0  0  0  0  0  0  0  0  0  0  0
  -29.2150  -20.3957   24.4341 N   0  0  0  0  0  0  0  0  0  0  0  0
  -28.2490  -32.1038   22.7427 N   0  0  0  0  0  0  0  0  0  0  0  0
  -30.2925  -29.0068   17.0248 N   0  0  0  0  0  0  0  0  0  0  0  0
  -32.8361  -26.4538   16.7414 N   0  3  0  0  0  0  0  0  0  0  0  0
  -22.6559  -14.7134   21.3132 O   0  0  0  0  0  0  0  0  0  0  0  0
  -31.2953  -21.2140   23.8158 O   0  0  0  0  0  0  0  0  0  0  0  0
  -27.1909  -30.8871   21.0626 O   0  0  0  0  0  0  0  0  0  0  0  0
  -27.4853  -22.1677   23.3036 O   0  0  0  0  0  0  0  0  0  0  0  0
  -30.0697  -31.3387   18.6745 O   0  0  0  0  0  0  0  0  0  0  0  0
  -30.1414  -26.7418   17.4980 O   0  0  0  0  0  0  0  0  0  0  0  0
  -31.8507  -14.9456   20.1881 O   0  0  0  0  0  0  0  0  0  0  0  0
  -29.5265  -20.4990   27.9195 O   0  0  0  0  0  0  0  0  0  0  0  0
  -21.6200   -7.0090   21.7069 O   0  0  0  0  0  0  0  0  0  0  0  0
  -27.7774  -24.8217   23.5871 O   0  0  0  0  0  0  0  0  0  1  0  0
  -18.6256   -6.8491   26.3341 F   0  0  0  0  0  0  0  0  0  0  0  0
  -22.0722   -5.0678   23.6225 F   0  0  0  0  0  0  0  0  0  0  0  0
  -29.5121  -17.8632   22.9148 S   0  0  0  0  0  0  0  0  0  0  0  0
  1  2  1  0  0  0  0
  1  6  2  0  0  0  0
  2  7  2  0  0  0  0
  3 14  1  0  0  0  0
  3 18  2  0  0  0  0
  4  9  2  0  0  0  0
  4 19  1  0  0  0  0
  5 10  1  0  0  0  0
  5 19  2  0  0  0  0
  6 21  1  0  0  0  0
  7 23  1  0  0  0  0
  8 11  2  0  0  0  0
  8 22  1  0  0  0  0
  9 25  1  0  0  0  0
 10 25  2  0  0  0  0
 11 26  1  0  0  0  0
 12 13  2  0  0  0  0
 12 27  1  0  0  0  0
 13 28  1  0  0  0  0
 14 32  2  0  0  0  0
 15 24  1  0  0  0  0
 15 26  2  0  0  0  0
 16 28  2  0  0  0  0
 16 29  1  0  0  0  0
 17 31  2  0  0  0  0
 17 65  1  0  0  0  0
 18 84  1  0  0  0  0
 19 30  1  0  0  0  0
 20 30  1  0  0  0  0
 20 33  2  0  0  0  0
 20 35  1  0  0  0  0
 21 23  2  0  0  0  0
 21 42  1  0  0  0  0
 22 24  2  0  0  0  0
 22 43  1  0  0  0  0
 23 51  1  0  0  0  0
 24 44  1  0  0  0  0
 25 85  1  0  0  0  0
 26 86  1  0  0  0  0
 27 29  2  0  0  0  0
 27 85  1  0  0  0  0
 28 87  1  0  0  0  0
 29 88  1  0  0  0  0
 30 66  2  0  0  0  0
 31 36  1  0  0  0  0
 31 89  1  0  0  0  0
 32 59  1  0  0  0  0
 32 84  1  0  0  0  0
 33 67  1  0  0  0  0
 33 70  1  0  0  0  0
 34 65  2  0  0  0  0
 34 72  1  0  0  0  0
 34 89  1  0  0  0  0
 35 71  1  0  0  0  0
 35 77  2  0  0  0  0
 36 73  1  0  0  0  0
 36 78  2  0  0  0  0
 37 52  1  0  0  0  0
 37 74  1  0  0  0  0
 37 79  2  0  0  0  0
 38 60  1  0  0  0  0
 38 61  1  0  0  0  0
 38 80  2  0  0  0  0
 39 62  1  0  0  0  0
 39 68  1  0  0  0  0
 39 81  2  0  0  0  0
 40 63  1  0  0  0  0
 40 75  1  0  0  0  0
 40 82  2  0  0  0  0
 41 69  1  0  0  0  0
 41 72  1  0  0  0  0
 41 83  2  0  0  0  0
 42 45  1  0  0  0  0
 43 52  1  0  0  0  0
 44 68  1  0  0  0  0
 45 47  1  0  0  0  0
 46 48  1  0  0  0  0
 46 49  1  0  0  0  0
 47 51  1  0  0  0  0
 48 53  1  0  0  0  0
 49 69  1  0  0  0  0
 50 53  1  0  0  0  0
 50 69  1  0  0  0  0
 51 74  1  0  0  0  0
 52 68  1  0  0  0  0
 53 67  1  0  0  0  0
 54 63  1  0  0  0  0
 55 64  1  0  0  0  0
 56 64  1  0  0  0  0
 57 64  1  0  0  0  0
 58 76  1  0  0  0  0
 59 61  1  0  0  0  0
 60 86  1  0  0  0  0
 61 73  1  0  0  0  0
 62 64  1  0  0  0  0
 62 75  1  0  0  0  0
 63 76  1  0  0  0  0
 66 67  1  0  0  0  0
M  CHG  1  76   1
M  ISO  4  41 100  60 101  72 100  86 101
M  END
> <Batch ID>
0179

> <Smiles>
CNC(C)C(=O)NC(C(=O)N1Cc2cc([101O:1][101CH2:1]C(=O)C(Cc3ccco3)NC(=O)c3cnc([100NH:0][100C:0](=O)N4CCCC(n5nc(-c6ccc(Oc7ccc(F)cc7F)cc6)c(C(N)=O)c5N)C4)s3)ccc2CC1C(=O)NC1CCCc2ccccc21)C(C)(C)C

> <Shape>
0.241

> <Color>
0.177

> <Negative vol penalty>
0.000

$$$$

  -OEChem-04052304473D

 89 97  0     1  0  0  0  0  0999 V2000
  -15.4104  -26.7636   23.1964 C   0  0  0  0  0  0  0  0  0  0  0  0
  -16.3570  -26.0874   22.4334 C   0  0  0  0  0  0  0  0  0  0  0  0
  -29.9692  -20.3200   20.5246 C   0  0  0  0  0  0  0  0  0  0  0  0
  -27.6322  -20.5217   21.1033 C   0  0  0  0  0  0  0  0  0  0  0  0
  -15.7083  -28.0205   23.7210 C   0  0  0  0  0  0  0  0  0  0  0  0
  -17.6018  -26.6683   22.1937 C   0  0  0  0  0  0  0  0  0  0  0  0
  -21.4214  -23.4008   22.8091 C   0  0  0  0  0  0  0  0  0  0  0  0
  -29.8844  -21.4923   19.7734 C   0  0  0  0  0  0  0  0  0  0  0  0
  -27.5474  -21.6940   20.3522 C   0  0  0  0  0  0  0  0  0  0  0  0
  -21.6547  -22.4924   21.7775 C   0  0  0  0  0  0  0  0  0  0  0  0
  -29.8517  -24.8237   20.3507 C   0  0  0  0  0  0  0  0  0  0  0  0
  -30.8710  -25.7642   20.4995 C   0  0  0  0  0  0  0  0  0  0  0  0
  -23.4581  -23.8781   20.9733 C   0  0  0  0  0  0  0  0  0  0  0  0
  -31.3934  -25.5699   18.1487 C   0  0  0  0  0  0  0  0  0  0  0  0
  -23.8603  -13.2088   19.1036 C   0  0  0  0  0  0  0  0  0  0  0  0
  -28.8431  -19.8347   21.1895 C   0  0  0  0  0  0  0  0  0  0  0  0
  -29.2577  -18.5094   23.3294 C   0  0  0  0  0  0  0  0  0  0  0  0
  -16.9609  -28.6129   23.4957 C   0  0  0  0  0  0  0  0  0  0  0  0
  -22.1989  -24.5621   22.9243 C   0  0  0  0  0  0  0  0  0  0  0  0
  -17.9163  -27.9349   22.7147 C   0  0  0  0  0  0  0  0  0  0  0  0
  -23.2343  -24.7983   22.0087 C   0  0  0  0  0  0  0  0  0  0  0  0
  -28.6735  -22.1793   19.6872 C   0  0  0  0  0  0  0  0  0  0  0  0
  -22.6713  -22.7324   20.8577 C   0  0  0  0  0  0  0  0  0  0  0  0
  -29.6033  -24.2563   19.1009 C   0  0  0  0  0  0  0  0  0  0  0  0
  -31.6419  -26.1373   19.3986 C   0  0  0  0  0  0  0  0  0  0  0  0
  -30.3741  -24.6295   17.9999 C   0  0  0  0  0  0  0  0  0  0  0  0
  -28.9299  -18.6235   21.9651 C   0  0  0  0  0  0  0  0  0  0  0  0
  -24.3348  -14.0330   20.1001 C   0  0  0  0  0  0  0  0  0  0  0  0
  -23.1063  -15.0349   17.9520 C   0  0  0  0  0  0  0  0  0  0  0  0
  -23.5802  -15.8592   18.9488 C   0  0  0  0  0  0  0  0  0  0  0  0
  -29.2035  -17.1608   23.5839 C   0  0  0  0  0  0  0  0  0  0  0  0
  -23.2316  -20.5643   20.1825 C   0  0  0  0  0  0  0  0  0  1  0  0
  -29.5822  -19.5311   24.2815 C   0  0  0  0  0  0  0  0  0  0  0  0
  -23.4781  -19.6131   19.2736 C   0  0  0  0  0  0  0  0  0  0  0  0
  -23.8325  -18.2335   19.7421 C   0  0  0  0  0  0  0  0  0  0  0  0
  -21.6013  -27.6820   22.8124 C   0  0  0  0  0  0  0  0  0  0  0  0
  -24.7271  -27.9152   23.6474 C   0  0  0  0  0  0  0  0  0  0  0  0
  -26.2412  -12.6837   20.8833 C   0  0  0  0  0  0  0  0  0  0  0  0
  -21.9287  -14.9164   15.7332 C   0  0  0  0  0  0  0  0  0  0  0  0
  -27.8268  -26.4883   23.6973 C   0  0  0  0  0  0  0  0  0  0  0  0
  -17.2199  -29.9939   24.0438 C   0  0  0  0  0  0  0  0  0  0  0  0
  -21.9520  -25.5186   24.0585 C   0  0  0  0  0  0  0  0  0  0  0  0
  -24.1106  -26.0199   22.1004 C   0  0  0  0  0  0  0  0  0  0  0  0
  -18.6976  -30.3767   24.0571 C   0  0  0  0  0  0  0  0  0  0  0  0
  -29.7692  -12.9168   21.4656 C   0  0  0  0  0  0  0  0  0  0  0  0
  -19.3510  -30.0295   22.7232 C   0  0  0  0  0  0  0  0  0  0  0  0
  -29.9879  -14.4012   21.7556 C   0  0  0  0  0  0  0  0  0  0  0  0
  -28.6715  -12.7065   20.4274 C   0  0  0  0  0  0  0  0  0  0  0  0
  -27.5862  -14.8349   21.0709 C   0  0  0  0  0  0  0  0  0  0  0  0
  -19.2867  -28.5213   22.4533 C   0  0  1  0  0  0  0  0  0  0  0  0
  -22.4702  -26.9256   23.7770 C   0  0  1  0  0  0  0  0  0  0  0  0
  -28.6659  -15.0904   22.1374 C   0  0  2  0  0  0  0  0  0  0  0  0
  -21.3238  -15.8766   14.7399 C   0  0  0  0  0  0  0  0  0  0  0  0
  -30.1903  -26.9362   24.4119 C   0  0  0  0  0  0  0  0  0  0  0  0
  -25.1030  -29.7547   21.2423 C   0  0  0  0  0  0  0  0  0  0  0  0
  -27.5731  -29.3995   21.4448 C   0  0  0  0  0  0  0  0  0  0  0  0
  -26.3130  -30.4780   23.3081 C   0  0  0  0  0  0  0  0  0  0  0  0
  -27.8199  -24.1925   25.5651 C   0  0  0  0  0  0  0  0  0  0  0  0
  -26.0318  -27.9999   22.8928 C   0  0  1  0  0  0  0  0  0  0  0  0
  -28.8493  -26.3392   24.8094 C   0  0  2  0  0  0  0  0  0  0  0  0
  -25.0156  -13.4603   21.2940 C   0  0  0  0  0  0  0  0  0  0  0  0
  -26.2376  -29.3859   22.2188 C   0  0  0  0  0  0  0  0  0  0  0  0
  -23.2376  -13.6949   18.0117 N   0  0  0  0  0  0  0  0  0  0  0  0
  -28.6857  -17.4416   21.3928 N   0  0  0  0  0  0  0  0  0  0  0  0
  -24.2033  -15.3731   20.0406 N   0  0  0  0  0  0  0  0  0  0  0  0
  -28.8602  -16.5720   22.4025 N   0  0  0  0  0  0  0  0  0  0  0  0
  -23.8258  -26.9285   23.2233 N   0  0  0  0  0  0  0  0  0  0  0  0
  -27.4393  -13.3952   20.8156 N   0  0  0  0  0  0  0  0  0  0  0  0
  -29.4165  -16.4329   24.7007 N   0  0  0  0  0  0  0  0  0  0  0  0
  -29.5919  -20.8653   23.8526 N   0  0  0  0  0  0  0  0  0  0  0  0
  -23.4187  -17.2617   18.8415 N   0  0  0  0  0  0  0  0  0  0  0  0
  -22.4687  -15.5879   16.8333 N   0  0  0  0  0  0  0  0  0  0  0  0
  -20.2915  -27.8258   23.2286 N   0  0  0  0  0  0  0  0  0  0  0  0
  -27.0774  -27.6365   23.8431 N   0  0  0  0  0  0  0  0  0  0  0  0
  -29.0539  -24.8994   25.1354 N   0  3  0  0  0  0  0  0  0  0  0  0
  -29.8714  -19.2672   25.4733 O   0  0  0  0  0  0  0  0  0  0  0  0
  -24.4186  -18.0605   20.8054 O   0  0  0  0  0  0  0  0  0  0  0  0
  -22.0838  -28.1051   21.7684 O   0  0  0  0  0  0  0  0  0  0  0  0
  -24.5184  -28.6910   24.5835 O   0  0  0  0  0  0  0  0  0  0  0  0
  -26.1356  -11.4802   20.6333 O   0  0  0  0  0  0  0  0  0  0  0  0
  -21.9070  -13.7067   15.5306 O   0  0  0  0  0  0  0  0  0  0  0  0
  -27.7075  -25.6700   22.7880 O   0  0  0  0  0  0  0  0  0  0  0  0
  -23.4177  -19.8508   17.9155 O   0  0  0  0  0  0  0  0  0  0  0  0
  -28.5904  -23.3234   18.9546 O   0  0  0  0  0  0  0  0  0  0  0  0
  -22.9007  -21.8477   19.8494 O   0  0  0  0  0  0  0  0  0  1  0  0
  -32.6197  -27.0416   19.5413 F   0  0  0  0  0  0  0  0  0  0  0  0
  -30.1394  -24.0887   16.7964 F   0  0  0  0  0  0  0  0  0  0  0  0
  -25.3947  -14.4210   22.1998 F   0  0  0  0  0  0  0  0  0  0  0  0
  -24.1993  -12.6285   22.0214 F   0  0  0  0  0  0  0  0  0  0  0  0
  1  2  1  0  0  0  0
  1  5  2  0  0  0  0
  2  6  2  0  0  0  0
  3  8  2  0  0  0  0
  3 16  1  0  0  0  0
  4  9  1  0  0  0  0
  4 16  2  0  0  0  0
  5 18  1  0  0  0  0
  6 20  1  0  0  0  0
  7 10  2  0  0  0  0
  7 19  1  0  0  0  0
  8 22  1  0  0  0  0
  9 22  2  0  0  0  0
 10 23  1  0  0  0  0
 11 12  2  0  0  0  0
 11 24  1  0  0  0  0
 12 25  1  0  0  0  0
 13 21  1  0  0  0  0
 13 23  2  0  0  0  0
 14 25  2  0  0  0  0
 14 26  1  0  0  0  0
 15 28  1  0  0  0  0
 15 63  2  0  0  0  0
 16 27  1  0  0  0  0
 17 27  1  0  0  0  0
 17 31  2  0  0  0  0
 17 33  1  0  0  0  0
 18 20  2  0  0  0  0
 18 41  1  0  0  0  0
 19 21  2  0  0  0  0
 19 42  1  0  0  0  0
 20 50  1  0  0  0  0
 21 43  1  0  0  0  0
 22 84  1  0  0  0  0
 23 85  1  0  0  0  0
 24 26  2  0  0  0  0
 24 84  1  0  0  0  0
 25 86  1  0  0  0  0
 26 87  1  0  0  0  0
 27 64  2  0  0  0  0
 28 61  1  0  0  0  0
 28 65  2  0  0  0  0
 29 30  2  0  0  0  0
 29 63  1  0  0  0  0
 29 72  1  0  0  0  0
 30 65  1  0  0  0  0
 30 71  1  0  0  0  0
 31 66  1  0  0  0  0
 31 69  1  0  0  0  0
 32 34  2  0  0  0  0
 32 85  1  0  0  0  0
 33 70  1  0  0  0  0
 33 76  2  0  0  0  0
 34 35  1  0  0  0  0
 34 83  1  0  0  0  0
 35 71  1  0  0  0  0
 35 77  2  0  0  0  0
 36 51  1  0  0  0  0
 36 73  1  0  0  0  0
 36 78  2  0  0  0  0
 37 59  1  0  0  0  0
 37 67  1  0  0  0  0
 37 79  2  0  0  0  0
 38 61  1  0  0  0  0
 38 68  1  0  0  0  0
 38 80  2  0  0  0  0
 39 53  1  0  0  0  0
 39 72  1  0  0  0  0
 39 81  2  0  0  0  0
 40 60  1  0  0  0  0
 40 74  1  0  0  0  0
 40 82  2  0  0  0  0
 41 44  1  0  0  0  0
 42 51  1  0  0  0  0
 43 67  1  0  0  0  0
 44 46  1  0  0  0  0
 45 47  1  0  0  0  0
 45 48  1  0  0  0  0
 46 50  1  0  0  0  0
 47 52  1  0  0  0  0
 48 68  1  0  0  0  0
 49 52  1  0  0  0  0
 49 68  1  0  0  0  0
 50 73  1  0  0  0  0
 51 67  1  0  0  0  0
 52 66  1  0  0  0  0
 54 60  1  0  0  0  0
 55 62  1  0  0  0  0
 56 62  1  0  0  0  0
 57 62  1  0  0  0  0
 58 75  1  0  0  0  0
 59 62  1  0  0  0  0
 59 74  1  0  0  0  0
 60 75  1  0  0  0  0
 61 88  1  0  0  0  0
 61 89  1  0  0  0  0
 64 66  1  0  0  0  0
M  CHG  1  75   1
M  ISO  4  32 101  38 100  61 100  85 101
M  END
> <Batch ID>
0179

> <Smiles>
CNC(C)C(=O)NC(C(=O)N1Cc2cc([101O:1][101CH2:1]C(=O)C(=O)Nc3nc([100C:0](F)(F)[100C:0](=O)N4CCCC(n5nc(-c6ccc(Oc7ccc(F)cc7F)cc6)c(C(N)=O)c5N)C4)cnc3NC(C)=O)ccc2CC1C(=O)NC1CCCc2ccccc21)C(C)(C)C

> <Shape>
0.231

> <Color>
0.049

> <Negative vol penalty>
0.000

$$$$
