
  -OEChem-04052304503D

 84 92  0     1  0  0  0  0  0999 V2000
  -30.0835  -34.4002   24.8602 C   0  0  0  0  0  0  0  0  0  0  0  0
  -30.1933  -33.3766   23.9244 C   0  0  0  0  0  0  0  0  0  0  0  0
  -24.6574   -8.8022   21.4235 C   0  0  0  0  0  0  0  0  0  0  0  0
  -23.0670  -10.6207   21.3958 C   0  0  0  0  0  0  0  0  0  0  0  0
  -29.1408  -34.3095   25.8834 C   0  0  0  0  0  0  0  0  0  0  0  0
  -29.3612  -32.2611   24.0120 C   0  0  0  0  0  0  0  0  0  0  0  0
  -27.0489  -29.0186   19.3596 C   0  0  0  0  0  0  0  0  0  0  0  0
  -23.8966   -8.1515   22.3947 C   0  0  0  0  0  0  0  0  0  0  0  0
  -22.3061   -9.9700   22.3671 C   0  0  0  0  0  0  0  0  0  0  0  0
  -27.4414  -27.8202   18.7650 C   0  0  0  0  0  0  0  0  0  0  0  0
  -21.0797   -6.2850   22.5149 C   0  0  0  0  0  0  0  0  0  0  0  0
  -20.8462   -4.9200   22.3484 C   0  0  0  0  0  0  0  0  0  0  0  0
  -25.8626  -26.6260   20.1435 C   0  0  0  0  0  0  0  0  0  0  0  0
  -21.9485   -4.4748   24.4518 C   0  0  0  0  0  0  0  0  0  0  0  0
  -24.2427  -10.0368   20.9241 C   0  0  0  0  0  0  0  0  0  0  0  0
  -24.9104  -10.5855   18.5239 C   0  0  0  0  0  0  0  0  0  0  0  0
  -28.2901  -33.1968   25.9779 C   0  0  0  0  0  0  0  0  0  0  0  0
  -26.0663  -29.0284   20.3600 C   0  0  0  0  0  0  0  0  0  0  0  0
  -28.4071  -32.1548   25.0383 C   0  0  0  0  0  0  0  0  0  0  0  0
  -25.4576  -27.8261   20.7474 C   0  0  0  0  0  0  0  0  0  0  0  0
  -22.7210   -8.7353   22.8665 C   0  0  0  0  0  0  0  0  0  0  0  0
  -26.8504  -26.6233   19.1589 C   0  0  0  0  0  0  0  0  0  0  0  0
  -21.7477   -6.7450   23.6498 C   0  0  0  0  0  0  0  0  0  0  0  0
  -21.2806   -4.0149   23.3169 C   0  0  0  0  0  0  0  0  0  0  0  0
  -22.1821   -5.8399   24.6182 C   0  0  0  0  0  0  0  0  0  0  0  0
  -25.0285  -10.7097   19.9212 C   0  0  0  0  0  0  0  0  0  0  0  0
  -25.4514  -20.0803   19.8622 C   0  0  0  0  0  0  0  0  0  0  0  0
  -26.8101  -20.3171   19.8658 C   0  0  0  0  0  0  0  0  0  0  0  0
  -25.8759  -11.4234   18.0218 C   0  0  0  0  0  0  0  0  0  0  0  0
  -26.8561  -18.1301   20.0238 C   0  0  0  0  0  0  0  0  0  0  0  0
  -24.0085   -9.7843   17.7491 C   0  0  0  0  0  0  0  0  0  0  0  0
  -28.9722  -23.3873   19.6309 C   0  0  0  0  0  0  0  0  0  0  0  0
  -28.7309  -21.9121   19.7714 C   0  0  0  0  0  0  0  0  0  0  0  0
  -25.9938  -29.8689   23.4247 C   0  0  0  0  0  0  0  0  0  0  0  0
  -22.8208  -29.2725   23.1105 C   0  0  0  0  0  0  0  0  0  0  0  0
  -20.3306  -27.6439   21.4392 C   0  0  0  0  0  0  0  0  0  0  0  0
  -28.5765  -16.2967   20.1814 C   0  0  0  0  0  0  0  0  0  0  0  0
  -27.3187  -33.1214   27.1292 C   0  0  0  0  0  0  0  0  0  0  0  0
  -25.6350  -30.3326   20.9727 C   0  0  0  0  0  0  0  0  0  0  0  0
  -24.3836  -27.7850   21.8026 C   0  0  0  0  0  0  0  0  0  0  0  0
  -26.2201  -32.0800   26.9321 C   0  0  0  0  0  0  0  0  0  0  0  0
  -30.1506  -13.2880   19.1102 C   0  0  0  0  0  0  0  0  0  0  0  0
  -26.8145  -30.7631   26.4428 C   0  0  0  0  0  0  0  0  0  0  0  0
  -29.0039  -12.2756   19.0635 C   0  0  0  0  0  0  0  0  0  0  0  0
  -30.0001  -14.2621   20.2773 C   0  0  0  0  0  0  0  0  0  0  0  0
  -27.5581  -13.9379   20.3019 C   0  0  0  0  0  0  0  0  0  0  0  0
  -27.5055  -30.9403   25.0853 C   0  0  1  0  0  0  0  0  0  0  0  0
  -24.9909  -30.1639   22.3453 C   0  0  1  0  0  0  0  0  0  0  0  0
  -27.6316  -12.9762   19.1046 C   0  0  2  0  0  0  0  0  0  0  0  0
  -24.3175  -21.0233   19.7777 C   0  0  0  0  0  0  0  0  0  0  0  0
  -17.8416  -27.3241   21.4370 C   0  0  0  0  0  0  0  0  0  0  0  0
  -23.0605  -27.4089   25.5145 C   0  0  0  0  0  0  0  0  0  0  0  0
  -20.8481  -26.4222   24.8821 C   0  0  0  0  0  0  0  0  0  0  0  0
  -21.0053  -28.8338   25.4999 C   0  0  0  0  0  0  0  0  0  0  0  0
  -20.0708  -28.7780   18.7180 C   0  0  0  0  0  0  0  0  0  0  0  0
  -29.0552  -23.9227   18.2183 C   0  0  0  0  0  0  0  0  0  0  0  0
  -28.5798  -25.3644   18.1196 C   0  0  0  0  0  0  0  0  0  1  0  0
  -21.9389  -28.0593   23.2818 C   0  0  1  0  0  0  0  0  0  0  0  0
  -19.0051  -28.1312   20.8824 C   0  0  2  0  0  0  0  0  0  0  0  0
  -21.7348  -27.6813   24.7760 C   0  0  0  0  0  0  0  0  0  0  0  0
  -25.9931  -11.5595   20.2836 N   0  0  0  0  0  0  0  0  0  0  0  0
  -27.6171  -19.2000   19.9588 N   0  0  0  0  0  0  0  0  0  0  0  0
  -26.4900  -11.9768   19.1067 N   0  0  0  0  0  0  0  0  0  0  0  0
  -24.0007  -29.0857   22.3764 N   0  0  0  0  0  0  0  0  0  0  0  0
  -28.6777  -14.8910   20.2490 N   0  0  0  0  0  0  0  0  0  0  0  0
  -26.2512  -11.7334   16.7627 N   0  0  0  0  0  0  0  0  0  0  0  0
  -23.0795   -8.9811   18.4245 N   0  0  0  0  0  0  0  0  0  0  0  0
  -27.3873  -21.6055   19.7807 N   0  0  0  0  0  0  0  0  0  0  0  0
  -27.2691  -16.7786   20.1269 N   0  0  0  0  0  0  0  0  0  0  0  0
  -26.5248  -30.9959   24.0225 N   0  0  0  0  0  0  0  0  0  0  0  0
  -20.7021  -28.3491   22.5644 N   0  0  0  0  0  0  0  0  0  0  0  0
  -18.9928  -28.0138   19.3968 N   0  3  0  0  0  0  0  0  0  0  0  0
  -24.0368   -9.7683   16.4951 O   0  0  0  0  0  0  0  0  0  0  0  0
  -29.0709  -24.0386   20.6598 O   0  0  0  0  0  0  0  0  0  0  0  0
  -29.7196  -21.2001   19.8302 O   0  0  0  0  0  0  0  0  0  0  0  0
  -26.2646  -28.7050   23.6961 O   0  0  0  0  0  0  0  0  0  0  0  0
  -22.4720  -30.3481   23.6035 O   0  0  0  0  0  0  0  0  0  0  0  0
  -20.9704  -26.7267   20.9294 O   0  0  0  0  0  0  0  0  0  0  0  0
  -29.5765  -17.0183   20.1450 O   0  0  0  0  0  0  0  0  0  0  0  0
  -21.9781   -8.1006   23.8140 O   0  0  0  0  0  0  0  0  0  0  0  0
  -27.2322  -25.4522   18.5806 O   0  0  0  0  0  0  0  0  0  1  0  0
  -21.0549   -2.7042   23.1576 F   0  0  0  0  0  0  0  0  0  0  0  0
  -22.8233   -6.2760   25.7112 F   0  0  0  0  0  0  0  0  0  0  0  0
  -25.1610  -18.3940   19.9776 S   0  0  0  0  0  0  0  0  0  0  0  0
  1  2  1  0  0  0  0
  1  5  2  0  0  0  0
  2  6  2  0  0  0  0
  3  8  2  0  0  0  0
  3 15  1  0  0  0  0
  4  9  1  0  0  0  0
  4 15  2  0  0  0  0
  5 17  1  0  0  0  0
  6 19  1  0  0  0  0
  7 10  2  0  0  0  0
  7 18  1  0  0  0  0
  8 21  1  0  0  0  0
  9 21  2  0  0  0  0
 10 22  1  0  0  0  0
 11 12  2  0  0  0  0
 11 23  1  0  0  0  0
 12 24  1  0  0  0  0
 13 20  1  0  0  0  0
 13 22  2  0  0  0  0
 14 24  2  0  0  0  0
 14 25  1  0  0  0  0
 15 26  1  0  0  0  0
 16 26  1  0  0  0  0
 16 29  2  0  0  0  0
 16 31  1  0  0  0  0
 17 19  2  0  0  0  0
 17 38  1  0  0  0  0
 18 20  2  0  0  0  0
 18 39  1  0  0  0  0
 19 47  1  0  0  0  0
 20 40  1  0  0  0  0
 21 80  1  0  0  0  0
 22 81  1  0  0  0  0
 23 25  2  0  0  0  0
 23 80  1  0  0  0  0
 24 82  1  0  0  0  0
 25 83  1  0  0  0  0
 26 61  2  0  0  0  0
 27 28  2  0  0  0  0
 27 50  1  0  0  0  0
 27 84  1  0  0  0  0
 28 62  1  0  0  0  0
 28 68  1  0  0  0  0
 29 63  1  0  0  0  0
 29 66  1  0  0  0  0
 30 62  2  0  0  0  0
 30 69  1  0  0  0  0
 30 84  1  0  0  0  0
 31 67  1  0  0  0  0
 31 73  2  0  0  0  0
 32 33  1  0  0  0  0
 32 56  1  0  0  0  0
 32 74  2  0  0  0  0
 33 68  1  0  0  0  0
 33 75  2  0  0  0  0
 34 48  1  0  0  0  0
 34 70  1  0  0  0  0
 34 76  2  0  0  0  0
 35 58  1  0  0  0  0
 35 64  1  0  0  0  0
 35 77  2  0  0  0  0
 36 59  1  0  0  0  0
 36 71  1  0  0  0  0
 36 78  2  0  0  0  0
 37 65  1  0  0  0  0
 37 69  1  0  0  0  0
 37 79  2  0  0  0  0
 38 41  1  0  0  0  0
 39 48  1  0  0  0  0
 40 64  1  0  0  0  0
 41 43  1  0  0  0  0
 42 44  1  0  0  0  0
 42 45  1  0  0  0  0
 43 47  1  0  0  0  0
 44 49  1  0  0  0  0
 45 65  1  0  0  0  0
 46 49  1  0  0  0  0
 46 65  1  0  0  0  0
 47 70  1  0  0  0  0
 48 64  1  0  0  0  0
 49 63  1  0  0  0  0
 51 59  1  0  0  0  0
 52 60  1  0  0  0  0
 53 60  1  0  0  0  0
 54 60  1  0  0  0  0
 55 72  1  0  0  0  0
 56 57  1  0  0  0  0
 57 81  1  0  0  0  0
 58 60  1  0  0  0  0
 58 71  1  0  0  0  0
 59 72  1  0  0  0  0
 61 63  1  0  0  0  0
M  CHG  1  72   1
M  ISO  4  37 100  57 101  69 100  81 101
M  END
> <Batch ID>
0180

> <Smiles>
CNC(C)C(=O)NC(C(=O)N1Cc2cc([101O:1][101CH2:1]CC(=O)C(=O)Nc3nc([100NH:0][100C:0](=O)N4CCCC(n5nc(-c6ccc(Oc7ccc(F)cc7F)cc6)c(C(N)=O)c5N)C4)sc3C)ccc2CC1C(=O)NC1CCCc2ccccc21)C(C)(C)C

> <Shape>
0.322

> <Color>
0.092

> <Negative vol penalty>
0.000

$$$$

  -OEChem-04052304503D

 85 93  0     1  0  0  0  0  0999 V2000
  -27.1331  -33.0809   23.8333 C   0  0  0  0  0  0  0  0  0  0  0  0
  -27.3434  -31.9359   23.0716 C   0  0  0  0  0  0  0  0  0  0  0  0
  -23.3179  -16.0471   22.3870 C   0  0  0  0  0  0  0  0  0  0  0  0
  -22.4915  -15.7864   20.1318 C   0  0  0  0  0  0  0  0  0  0  0  0
  -26.0999  -33.1143   24.7689 C   0  0  0  0  0  0  0  0  0  0  0  0
  -26.5212  -30.8233   23.2458 C   0  0  0  0  0  0  0  0  0  0  0  0
  -24.6975  -26.8814   18.9282 C   0  0  0  0  0  0  0  0  0  0  0  0
  -22.3788  -17.0530   22.6149 C   0  0  0  0  0  0  0  0  0  0  0  0
  -21.5523  -16.7923   20.3596 C   0  0  0  0  0  0  0  0  0  0  0  0
  -25.1595  -25.6204   18.5538 C   0  0  0  0  0  0  0  0  0  0  0  0
  -22.0185  -20.3344   21.8892 C   0  0  0  0  0  0  0  0  0  0  0  0
  -22.4544  -21.4938   22.5306 C   0  0  0  0  0  0  0  0  0  0  0  0
  -23.4740  -24.5969   19.9433 C   0  0  0  0  0  0  0  0  0  0  0  0
  -20.8745  -21.1003   24.3156 C   0  0  0  0  0  0  0  0  0  0  0  0
  -27.8254  -18.3610   22.3535 C   0  0  0  0  0  0  0  0  0  0  0  0
  -23.3743  -15.4139   21.1454 C   0  0  0  0  0  0  0  0  0  0  0  0
  -24.1818  -12.9941   21.1283 C   0  0  0  0  0  0  0  0  0  0  0  0
  -25.2585  -32.0049   24.9478 C   0  0  0  0  0  0  0  0  0  0  0  0
  -23.6254  -27.0099   19.8230 C   0  0  0  0  0  0  0  0  0  0  0  0
  -25.4766  -30.8414   24.1855 C   0  0  0  0  0  0  0  0  0  0  0  0
  -22.9986  -25.8606   20.3255 C   0  0  0  0  0  0  0  0  0  0  0  0
  -28.0867  -18.5273   21.0112 C   0  0  0  0  0  0  0  0  0  0  0  0
  -21.4960  -17.4255   21.6012 C   0  0  0  0  0  0  0  0  0  0  0  0
  -24.5497  -24.4779   19.0636 C   0  0  0  0  0  0  0  0  0  0  0  0
  -21.0105  -19.5580   22.4610 C   0  0  0  0  0  0  0  0  0  0  0  0
  -21.8824  -21.8767   23.7438 C   0  0  0  0  0  0  0  0  0  0  0  0
  -20.4385  -19.9409   23.6742 C   0  0  0  0  0  0  0  0  0  0  0  0
  -29.1141  -17.6527   20.5536 C   0  0  0  0  0  0  0  0  0  0  0  0
  -24.3445  -14.3752   20.9092 C   0  0  0  0  0  0  0  0  0  0  0  0
  -25.3820  -12.4429   20.7513 C   0  0  0  0  0  0  0  0  0  0  0  0
  -29.5993  -16.8513   21.5637 C   0  0  0  0  0  0  0  0  0  0  0  0
  -25.4556  -22.4122   19.6824 C   0  0  0  0  0  0  0  0  0  1  0  0
  -23.0471  -12.2739   21.6278 C   0  0  0  0  0  0  0  0  0  0  0  0
  -25.9198  -21.1806   19.4390 C   0  0  0  0  0  0  0  0  0  0  0  0
  -26.3973  -20.3430   20.5873 C   0  0  0  0  0  0  0  0  0  0  0  0
  -23.2550  -28.2829   22.7119 C   0  0  0  0  0  0  0  0  0  0  0  0
  -20.1334  -27.5635   22.2015 C   0  0  0  0  0  0  0  0  0  0  0  0
  -18.2585  -24.8139   20.8079 C   0  0  0  0  0  0  0  0  0  0  0  0
  -30.8897  -15.0716   20.3963 C   0  0  0  0  0  0  0  0  0  0  0  0
  -24.1846  -32.0713   26.0046 C   0  0  0  0  0  0  0  0  0  0  0  0
  -23.1217  -28.3771   20.1961 C   0  0  0  0  0  0  0  0  0  0  0  0
  -21.8311  -25.9443   21.2733 C   0  0  0  0  0  0  0  0  0  0  0  0
  -23.1229  -30.9836   25.8632 C   0  0  0  0  0  0  0  0  0  0  0  0
  -29.0838  -13.1528   17.8142 C   0  0  0  0  0  0  0  0  0  0  0  0
  -23.7775  -29.6260   25.6283 C   0  0  0  0  0  0  0  0  0  0  0  0
  -27.6390  -13.1915   18.3095 C   0  0  0  0  0  0  0  0  0  0  0  0
  -29.8645  -14.3904   18.2465 C   0  0  0  0  0  0  0  0  0  0  0  0
  -28.3869  -14.6762   20.2126 C   0  0  0  0  0  0  0  0  0  0  0  0
  -24.5903  -29.6230   24.3280 C   0  0  1  0  0  0  0  0  0  0  0  0
  -22.3540  -28.3919   21.5144 C   0  0  1  0  0  0  0  0  0  0  0  0
  -27.5861  -13.4224   19.8296 C   0  0  1  0  0  0  0  0  0  0  0  0
  -32.6463  -16.8237   22.5706 C   0  0  0  0  0  0  0  0  0  0  0  0
  -16.0014  -24.7675   19.7123 C   0  0  0  0  0  0  0  0  0  0  0  0
  -19.1129  -26.8785   24.9942 C   0  0  0  0  0  0  0  0  0  0  0  0
  -17.4801  -25.3034   23.9354 C   0  0  0  0  0  0  0  0  0  0  0  0
  -17.3654  -27.7431   23.4279 C   0  0  0  0  0  0  0  0  0  0  0  0
  -19.3395  -23.5296   18.3705 C   0  0  0  0  0  0  0  0  0  0  0  0
  -31.5596  -15.7736   22.6828 C   0  0  0  0  0  0  0  0  0  0  0  0
  -19.2551  -26.3649   22.4680 C   0  0  1  0  0  0  0  0  0  0  0  0
  -17.5054  -24.8030   19.4900 C   0  0  2  0  0  0  0  0  0  0  0  0
  -18.3313  -26.5697   23.7016 C   0  0  0  0  0  0  0  0  0  0  0  0
  -25.5530  -14.6824   20.4303 N   0  0  0  0  0  0  0  0  0  0  0  0
  -26.1605  -13.4867   20.3454 N   0  0  0  0  0  0  0  0  0  0  0  0
  -21.3792  -27.3037   21.6130 N   0  0  0  0  0  0  0  0  0  0  0  0
  -29.7602  -14.6127   19.6892 N   0  0  0  0  0  0  0  0  0  0  0  0
  -25.8369  -11.1720   20.7307 N   0  0  0  0  0  0  0  0  0  0  0  0
  -21.8946  -12.9953   21.9676 N   0  0  0  0  0  0  0  0  0  0  0  0
  -27.4011  -19.4651   20.2019 N   0  0  0  0  0  0  0  0  0  0  0  0
  -23.7130  -29.4982   23.1838 N   0  0  0  0  0  0  0  0  0  0  0  0
  -18.5408  -26.0978   21.2243 N   0  0  0  0  0  0  0  0  0  0  0  0
  -30.6262  -15.8364   21.5533 N   0  0  0  0  0  0  0  0  0  0  0  0
  -17.8896  -23.6100   18.6837 N   0  3  0  0  0  0  0  0  0  0  0  0
  -23.0608  -11.0294   21.7841 O   0  0  0  0  0  0  0  0  0  0  0  0
  -25.9126  -20.4730   21.7063 O   0  0  0  0  0  0  0  0  0  0  0  0
  -23.5142  -27.1781   23.1744 O   0  0  0  0  0  0  0  0  0  0  0  0
  -19.7261  -28.6895   22.4978 O   0  0  0  0  0  0  0  0  0  0  0  0
  -18.5626  -23.7864   21.4099 O   0  0  0  0  0  0  0  0  0  0  0  0
  -32.0406  -14.7942   20.0383 O   0  0  0  0  0  0  0  0  0  0  0  0
  -25.9760  -20.6464   18.1677 O   0  0  0  0  0  0  0  0  0  0  0  0
  -20.5793  -18.4068   21.8233 O   0  0  0  0  0  0  0  0  0  0  0  0
  -24.9991  -23.2459   18.7004 O   0  0  0  0  0  0  0  0  0  1  0  0
  -22.3023  -22.9893   24.3604 F   0  0  0  0  0  0  0  0  0  0  0  0
  -19.4707  -19.1984   24.2289 F   0  0  0  0  0  0  0  0  0  0  0  0
  -29.5566  -17.6145   19.2944 F   0  0  0  0  0  0  0  0  0  0  0  0
  -28.8167  -17.1544   23.0563 S   0  0  0  0  0  0  0  0  0  0  0  0
  1  2  1  0  0  0  0
  1  5  2  0  0  0  0
  2  6  2  0  0  0  0
  3  8  2  0  0  0  0
  3 16  1  0  0  0  0
  4  9  1  0  0  0  0
  4 16  2  0  0  0  0
  5 18  1  0  0  0  0
  6 20  1  0  0  0  0
  7 10  2  0  0  0  0
  7 19  1  0  0  0  0
  8 23  1  0  0  0  0
  9 23  2  0  0  0  0
 10 24  1  0  0  0  0
 11 12  2  0  0  0  0
 11 25  1  0  0  0  0
 12 26  1  0  0  0  0
 13 21  1  0  0  0  0
 13 24  2  0  0  0  0
 14 26  2  0  0  0  0
 14 27  1  0  0  0  0
 15 22  2  0  0  0  0
 15 85  1  0  0  0  0
 16 29  1  0  0  0  0
 17 29  1  0  0  0  0
 17 30  2  0  0  0  0
 17 33  1  0  0  0  0
 18 20  2  0  0  0  0
 18 40  1  0  0  0  0
 19 21  2  0  0  0  0
 19 41  1  0  0  0  0
 20 49  1  0  0  0  0
 21 42  1  0  0  0  0
 22 28  1  0  0  0  0
 22 68  1  0  0  0  0
 23 80  1  0  0  0  0
 24 81  1  0  0  0  0
 25 27  2  0  0  0  0
 25 80  1  0  0  0  0
 26 82  1  0  0  0  0
 27 83  1  0  0  0  0
 28 31  2  0  0  0  0
 28 84  1  0  0  0  0
 29 62  2  0  0  0  0
 30 63  1  0  0  0  0
 30 66  1  0  0  0  0
 31 71  1  0  0  0  0
 31 85  1  0  0  0  0
 32 34  2  0  0  0  0
 32 81  1  0  0  0  0
 33 67  1  0  0  0  0
 33 73  2  0  0  0  0
 34 35  1  0  0  0  0
 34 79  1  0  0  0  0
 35 68  1  0  0  0  0
 35 74  2  0  0  0  0
 36 50  1  0  0  0  0
 36 69  1  0  0  0  0
 36 75  2  0  0  0  0
 37 59  1  0  0  0  0
 37 64  1  0  0  0  0
 37 76  2  0  0  0  0
 38 60  1  0  0  0  0
 38 70  1  0  0  0  0
 38 77  2  0  0  0  0
 39 65  1  0  0  0  0
 39 71  1  0  0  0  0
 39 78  2  0  0  0  0
 40 43  1  0  0  0  0
 41 50  1  0  0  0  0
 42 64  1  0  0  0  0
 43 45  1  0  0  0  0
 44 46  1  0  0  0  0
 44 47  1  0  0  0  0
 45 49  1  0  0  0  0
 46 51  1  0  0  0  0
 47 65  1  0  0  0  0
 48 51  1  0  0  0  0
 48 65  1  0  0  0  0
 49 69  1  0  0  0  0
 50 64  1  0  0  0  0
 51 63  1  0  0  0  0
 52 58  1  0  0  0  0
 53 60  1  0  0  0  0
 54 61  1  0  0  0  0
 55 61  1  0  0  0  0
 56 61  1  0  0  0  0
 57 72  1  0  0  0  0
 58 71  1  0  0  0  0
 59 61  1  0  0  0  0
 59 70  1  0  0  0  0
 60 72  1  0  0  0  0
 62 63  1  0  0  0  0
M  CHG  1  72   1
M  ISO  4  32 101  39 100  71 100  81 101
M  END
> <Batch ID>
0180

> <Smiles>
CC[100N:0](c1scc(NC(=O)C(=O)[101CH2:1][101O:1]c2ccc3c(c2)CN(C(=O)C(NC(=O)C(C)NC)C(C)(C)C)C(C(=O)NC2CCCc4ccccc42)C3)c1F)[100C:0](=O)N1CCCC(n2nc(-c3ccc(Oc4ccc(F)cc4F)cc3)c(C(N)=O)c2N)C1

> <Shape>
0.253

> <Color>
0.077

> <Negative vol penalty>
0.000

$$$$

  -OEChem-04052304503D

 86 94  0     1  0  0  0  0  0999 V2000
  -30.9134  -23.7085   25.3367 C   0  0  0  0  0  0  0  0  0  0  0  0
  -30.5311  -24.0920   24.0552 C   0  0  0  0  0  0  0  0  0  0  0  0
  -24.1878  -13.4371   21.5783 C   0  0  0  0  0  0  0  0  0  0  0  0
  -26.3990  -13.4819   20.6059 C   0  0  0  0  0  0  0  0  0  0  0  0
  -29.9453  -23.4949   26.3170 C   0  0  0  0  0  0  0  0  0  0  0  0
  -29.1804  -24.2609   23.7529 C   0  0  0  0  0  0  0  0  0  0  0  0
  -28.2963  -28.4835   21.1009 C   0  0  0  0  0  0  0  0  0  0  0  0
  -23.9350  -12.2191   20.9473 C   0  0  0  0  0  0  0  0  0  0  0  0
  -26.1463  -12.2638   19.9750 C   0  0  0  0  0  0  0  0  0  0  0  0
  -28.5899  -28.4528   19.7383 C   0  0  0  0  0  0  0  0  0  0  0  0
  -22.8387   -8.9205   19.8830 C   0  0  0  0  0  0  0  0  0  0  0  0
  -22.2348   -7.9133   20.6356 C   0  0  0  0  0  0  0  0  0  0  0  0
  -26.2544  -28.0985   19.2493 C   0  0  0  0  0  0  0  0  0  0  0  0
  -24.0936   -7.9517   22.1785 C   0  0  0  0  0  0  0  0  0  0  0  0
  -30.2318  -21.2769   19.8452 C   0  0  0  0  0  0  0  0  0  0  0  0
  -25.4198  -14.0686   21.4075 C   0  0  0  0  0  0  0  0  0  0  0  0
  -26.2392  -15.5237   23.3359 C   0  0  0  0  0  0  0  0  0  0  0  0
  -28.5826  -23.6707   26.0293 C   0  0  0  0  0  0  0  0  0  0  0  0
  -26.9789  -28.3107   21.5492 C   0  0  0  0  0  0  0  0  0  0  0  0
  -28.1931  -24.0481   24.7300 C   0  0  0  0  0  0  0  0  0  0  0  0
  -25.9464  -28.1300   20.6179 C   0  0  0  0  0  0  0  0  0  0  0  0
  -24.9142  -11.6324   20.1457 C   0  0  0  0  0  0  0  0  0  0  0  0
  -27.5693  -28.2574   18.8124 C   0  0  0  0  0  0  0  0  0  0  0  0
  -24.0701   -9.4433   20.2780 C   0  0  0  0  0  0  0  0  0  0  0  0
  -22.8622   -7.4290   21.7834 C   0  0  0  0  0  0  0  0  0  0  0  0
  -24.6976   -8.9589   21.4258 C   0  0  0  0  0  0  0  0  0  0  0  0
  -31.3774  -21.9443   19.4262 C   0  0  0  0  0  0  0  0  0  0  0  0
  -31.2624  -23.0801   18.6324 C   0  0  0  0  0  0  0  0  0  0  0  0
  -25.6813  -15.3271   22.0585 C   0  0  0  0  0  0  0  0  0  0  0  0
  -29.0047  -21.7818   19.4464 C   0  0  0  0  0  0  0  0  0  0  0  0
  -29.9891  -23.5041   18.2878 C   0  0  0  0  0  0  0  0  0  0  0  0
  -26.2789  -16.8882   23.4870 C   0  0  0  0  0  0  0  0  0  0  0  0
  -26.6821  -14.5590   24.2998 C   0  0  0  0  0  0  0  0  0  0  0  0
  -25.4925  -26.1748   23.3746 C   0  0  0  0  0  0  0  0  0  0  0  0
  -22.9889  -28.2104   23.0419 C   0  0  0  0  0  0  0  0  0  0  0  0
  -28.7135  -25.2641   17.0144 C   0  0  0  0  0  0  0  0  0  0  0  0
  -21.4701  -30.6605   21.2152 C   0  0  0  0  0  0  0  0  0  0  0  0
  -26.5163  -21.4206   19.6003 C   0  0  0  0  0  0  0  0  0  0  0  0
  -27.5697  -23.3822   27.1088 C   0  0  0  0  0  0  0  0  0  0  0  0
  -26.6749  -28.3732   23.0210 C   0  0  0  0  0  0  0  0  0  0  0  0
  -24.5126  -27.9598   21.0466 C   0  0  0  0  0  0  0  0  0  0  0  0
  -26.1832  -23.9464   26.8096 C   0  0  0  0  0  0  0  0  0  0  0  0
  -24.0286  -20.8777   22.0890 C   0  0  0  0  0  0  0  0  0  0  0  0
  -25.7743  -23.6254   25.3755 C   0  0  0  0  0  0  0  0  0  0  0  0
  -24.2248  -19.4123   22.4843 C   0  0  0  0  0  0  0  0  0  0  0  0
  -24.2622  -21.0985   20.5956 C   0  0  0  0  0  0  0  0  0  0  0  0
  -25.7418  -19.1320   20.4824 C   0  0  0  0  0  0  0  0  0  0  0  0
  -26.7393  -24.2656   24.3703 C   0  0  1  0  0  0  0  0  0  0  0  0
  -25.3716  -27.6724   23.3922 C   0  0  1  0  0  0  0  0  0  0  0  0
  -25.5807  -18.8718   21.9891 C   0  0  2  0  0  0  0  0  0  0  0  0
  -27.9788  -26.6878   15.0737 C   0  0  0  0  0  0  0  0  0  0  0  0
  -19.4153  -32.1006   21.1749 C   0  0  0  0  0  0  0  0  0  0  0  0
  -29.8880  -28.9016   16.4438 C   0  0  0  0  0  0  0  0  0  0  0  0
  -21.3414  -25.8285   22.0817 C   0  0  0  0  0  0  0  0  0  0  0  0
  -19.6588  -27.4463   21.1762 C   0  0  0  0  0  0  0  0  0  0  0  0
  -20.1308  -27.3802   23.6248 C   0  0  0  0  0  0  0  0  0  0  0  0
  -23.0674  -33.1460   21.3881 C   0  0  0  0  0  0  0  0  0  0  0  0
  -21.8552  -28.3586   22.0561 C   0  0  1  0  0  0  0  0  0  0  0  0
  -29.0232  -26.5162   16.1798 C   0  0  1  0  0  0  0  0  0  0  0  0
  -20.8647  -31.9918   21.6223 C   0  0  2  0  0  0  0  0  0  0  0  0
  -29.1432  -27.7474   17.1040 C   0  0  2  0  0  0  0  0  0  1  0  0
  -20.7737  -27.2546   22.2264 C   0  0  0  0  0  0  0  0  0  0  0  0
  -25.3874  -16.4750   21.4420 N   0  0  0  0  0  0  0  0  0  0  0  0
  -28.8533  -22.8821   18.6758 N   0  0  0  0  0  0  0  0  0  0  0  0
  -25.7621  -17.4059   22.3359 N   0  0  0  0  0  0  0  0  0  0  0  0
  -24.2670  -28.0221   22.4969 N   0  0  0  0  0  0  0  0  0  0  0  0
  -25.5675  -20.5653   20.1996 N   0  0  0  0  0  0  0  0  0  0  0  0
  -26.7050  -17.6838   24.4910 N   0  0  0  0  0  0  0  0  0  0  0  0
  -26.5698  -13.1983   23.9834 N   0  0  0  0  0  0  0  0  0  0  0  0
  -29.8787  -24.6605   17.4796 N   0  0  0  0  0  0  0  0  0  0  0  0
  -27.8433  -21.0946   19.8786 N   0  0  0  0  0  0  0  0  0  0  0  0
  -26.4583  -25.6783   24.2292 N   0  0  0  0  0  0  0  0  0  0  0  0
  -21.3513  -29.7184   22.2150 N   0  0  0  0  0  0  0  0  0  0  0  0
  -21.6301  -33.1165   21.0138 N   0  3  0  0  0  0  0  0  0  0  0  0
  -27.1481  -14.8934   25.4154 O   0  0  0  0  0  0  0  0  0  0  0  0
  -24.7625  -25.5183   22.6413 O   0  0  0  0  0  0  0  0  0  0  0  0
  -22.7504  -28.2671   24.2508 O   0  0  0  0  0  0  0  0  0  0  0  0
  -27.5595  -24.9003   17.2221 O   0  0  0  0  0  0  0  0  0  0  0  0
  -21.9925  -30.4739   20.1185 O   0  0  0  0  0  0  0  0  0  0  0  0
  -26.1761  -22.3881   18.9147 O   0  0  0  0  0  0  0  0  0  0  0  0
  -24.6680  -10.4437   19.5301 O   0  0  0  0  0  0  0  0  0  0  0  0
  -27.8532  -28.2263   17.4819 O   0  0  0  0  0  0  0  0  0  1  0  0
  -22.2815   -6.4629   22.5069 F   0  0  0  0  0  0  0  0  0  0  0  0
  -25.8801   -9.4580   21.8109 F   0  0  0  0  0  0  0  0  0  0  0  0
  -32.5869  -21.4947   19.7851 F   0  0  0  0  0  0  0  0  0  0  0  0
  -32.3572  -23.7328   18.2214 F   0  0  0  0  0  0  0  0  0  0  0  0
  1  2  1  0  0  0  0
  1  5  2  0  0  0  0
  2  6  2  0  0  0  0
  3  8  2  0  0  0  0
  3 16  1  0  0  0  0
  4  9  1  0  0  0  0
  4 16  2  0  0  0  0
  5 18  1  0  0  0  0
  6 20  1  0  0  0  0
  7 10  2  0  0  0  0
  7 19  1  0  0  0  0
  8 22  1  0  0  0  0
  9 22  2  0  0  0  0
 10 23  1  0  0  0  0
 11 12  2  0  0  0  0
 11 24  1  0  0  0  0
 12 25  1  0  0  0  0
 13 21  1  0  0  0  0
 13 23  2  0  0  0  0
 14 25  2  0  0  0  0
 14 26  1  0  0  0  0
 15 27  2  0  0  0  0
 15 30  1  0  0  0  0
 16 29  1  0  0  0  0
 17 29  1  0  0  0  0
 17 32  2  0  0  0  0
 17 33  1  0  0  0  0
 18 20  2  0  0  0  0
 18 39  1  0  0  0  0
 19 21  2  0  0  0  0
 19 40  1  0  0  0  0
 20 48  1  0  0  0  0
 21 41  1  0  0  0  0
 22 81  1  0  0  0  0
 23 82  1  0  0  0  0
 24 26  2  0  0  0  0
 24 81  1  0  0  0  0
 25 83  1  0  0  0  0
 26 84  1  0  0  0  0
 27 28  1  0  0  0  0
 27 85  1  0  0  0  0
 28 31  2  0  0  0  0
 28 86  1  0  0  0  0
 29 63  2  0  0  0  0
 30 64  2  0  0  0  0
 30 71  1  0  0  0  0
 31 64  1  0  0  0  0
 31 70  1  0  0  0  0
 32 65  1  0  0  0  0
 32 68  1  0  0  0  0
 33 69  1  0  0  0  0
 33 75  2  0  0  0  0
 34 49  1  0  0  0  0
 34 72  1  0  0  0  0
 34 76  2  0  0  0  0
 35 58  1  0  0  0  0
 35 66  1  0  0  0  0
 35 77  2  0  0  0  0
 36 59  1  0  0  0  0
 36 70  1  0  0  0  0
 36 78  2  0  0  0  0
 37 60  1  0  0  0  0
 37 73  1  0  0  0  0
 37 79  2  0  0  0  0
 38 67  1  0  0  0  0
 38 71  1  0  0  0  0
 38 80  2  0  0  0  0
 39 42  1  0  0  0  0
 40 49  1  0  0  0  0
 41 66  1  0  0  0  0
 42 44  1  0  0  0  0
 43 45  1  0  0  0  0
 43 46  1  0  0  0  0
 44 48  1  0  0  0  0
 45 50  1  0  0  0  0
 46 67  1  0  0  0  0
 47 50  1  0  0  0  0
 47 67  1  0  0  0  0
 48 72  1  0  0  0  0
 49 66  1  0  0  0  0
 50 65  1  0  0  0  0
 51 59  1  0  0  0  0
 52 60  1  0  0  0  0
 53 61  1  0  0  0  0
 54 62  1  0  0  0  0
 55 62  1  0  0  0  0
 56 62  1  0  0  0  0
 57 74  1  0  0  0  0
 58 62  1  0  0  0  0
 58 73  1  0  0  0  0
 59 61  1  0  0  0  0
 60 74  1  0  0  0  0
 61 82  1  0  0  0  0
 63 65  1  0  0  0  0
M  CHG  1  74   1
M  ISO  4  38 100  61 101  71 100  82 101
M  END
> <Batch ID>
0180

> <Smiles>
CNC(C)C(=O)NC(C(=O)N1Cc2cc([101O:1][101CH:1](C)C(C)C(=O)Nc3nc([100NH:0][100C:0](=O)N4CCCC(n5nc(-c6ccc(Oc7ccc(F)cc7F)cc6)c(C(N)=O)c5N)C4)cc(F)c3F)ccc2CC1C(=O)NC1CCCc2ccccc21)C(C)(C)C

> <Shape>
0.194

> <Color>
0.068

> <Negative vol penalty>
0.000

$$$$

  -OEChem-04052304503D

 84 92  0     1  0  0  0  0  0999 V2000
  -19.2601  -29.4751   19.8939 C   0  0  0  0  0  0  0  0  0  0  0  0
  -19.9334  -28.7991   18.8814 C   0  0  0  0  0  0  0  0  0  0  0  0
  -23.2685   -9.8218   19.8949 C   0  0  0  0  0  0  0  0  0  0  0  0
  -23.6966   -9.9351   22.2700 C   0  0  0  0  0  0  0  0  0  0  0  0
  -19.9241  -29.7966   21.0770 C   0  0  0  0  0  0  0  0  0  0  0  0
  -21.2714  -28.4451   19.0511 C   0  0  0  0  0  0  0  0  0  0  0  0
  -22.2285  -23.6989   17.5670 C   0  0  0  0  0  0  0  0  0  0  0  0
  -22.5193   -8.6608   20.0853 C   0  0  0  0  0  0  0  0  0  0  0  0
  -22.9473   -8.7741   22.4604 C   0  0  0  0  0  0  0  0  0  0  0  0
  -22.3498  -23.4725   16.1967 C   0  0  0  0  0  0  0  0  0  0  0  0
  -20.7929   -5.4655   19.9027 C   0  0  0  0  0  0  0  0  0  0  0  0
  -21.0080   -4.4020   19.0262 C   0  0  0  0  0  0  0  0  0  0  0  0
  -24.7524  -23.4966   16.4116 C   0  0  0  0  0  0  0  0  0  0  0  0
  -23.3226   -4.3049   19.7120 C   0  0  0  0  0  0  0  0  0  0  0  0
  -25.9196  -18.3993   15.8991 C   0  0  0  0  0  0  0  0  0  0  0  0
  -23.8573  -10.4590   20.9872 C   0  0  0  0  0  0  0  0  0  0  0  0
  -24.1637  -12.9854   20.8124 C   0  0  0  0  0  0  0  0  0  0  0  0
  -21.2682  -29.4378   21.2652 C   0  0  0  0  0  0  0  0  0  0  0  0
  -23.3702  -23.8369   18.3695 C   0  0  0  0  0  0  0  0  0  0  0  0
  -21.9544  -28.7632   20.2373 C   0  0  0  0  0  0  0  0  0  0  0  0
  -24.6429  -23.7222   17.7923 C   0  0  0  0  0  0  0  0  0  0  0  0
  -22.3587   -8.1369   21.3680 C   0  0  0  0  0  0  0  0  0  0  0  0
  -23.6119  -23.3742   15.6183 C   0  0  0  0  0  0  0  0  0  0  0  0
  -21.8427   -5.9488   20.6839 C   0  0  0  0  0  0  0  0  0  0  0  0
  -22.2728   -3.8217   18.9308 C   0  0  0  0  0  0  0  0  0  0  0  0
  -23.1075   -5.3685   20.5885 C   0  0  0  0  0  0  0  0  0  0  0  0
  -26.7600  -17.3847   16.4416 C   0  0  0  0  0  0  0  0  0  0  0  0
  -24.6318  -11.6580   20.7912 C   0  0  0  0  0  0  0  0  0  0  0  0
  -28.0951  -17.7074   16.3361 C   0  0  0  0  0  0  0  0  0  0  0  0
  -25.2815  -13.7476   20.5755 C   0  0  0  0  0  0  0  0  0  0  0  0
  -26.6444  -19.4591   15.3996 C   0  0  0  0  0  0  0  0  0  0  0  0
  -22.8370  -13.4850   21.0273 C   0  0  0  0  0  0  0  0  0  0  0  0
  -29.2801  -16.9269   16.7758 C   0  0  0  0  0  0  0  0  0  0  0  0
  -24.5733  -26.1573   20.1783 C   0  0  0  0  0  0  0  0  0  0  0  0
  -26.7242  -23.8716   20.9976 C   0  0  0  0  0  0  0  0  0  0  0  0
  -28.3134  -20.9634   20.1828 C   0  0  0  0  0  0  0  0  0  0  0  0
  -24.9181  -21.0720   14.5293 C   0  0  0  0  0  0  0  0  0  0  0  0
  -29.9736  -14.7937   17.8208 C   0  0  0  0  0  0  0  0  0  0  0  0
  -21.9572  -29.8487   22.5423 C   0  0  0  0  0  0  0  0  0  0  0  0
  -23.2222  -24.0542   19.8505 C   0  0  0  0  0  0  0  0  0  0  0  0
  -25.8998  -23.8427   18.6133 C   0  0  0  0  0  0  0  0  0  0  0  0
  -23.2678  -29.1071   22.7930 C   0  0  0  0  0  0  0  0  0  0  0  0
  -30.1822  -12.4718   20.4783 C   0  0  0  0  0  0  0  0  0  0  0  0
  -24.1180  -29.0825   21.5268 C   0  0  0  0  0  0  0  0  0  0  0  0
  -28.7182  -12.1660   20.8064 C   0  0  0  0  0  0  0  0  0  0  0  0
  -30.4032  -12.6427   18.9760 C   0  0  0  0  0  0  0  0  0  0  0  0
  -28.0543  -13.3009   18.6488 C   0  0  0  0  0  0  0  0  0  0  0  0
  -23.3989  -28.3403   20.3938 C   0  0  1  0  0  0  0  0  0  0  0  0
  -24.4535  -24.6917   20.4868 C   0  0  1  0  0  0  0  0  0  0  0  0
  -27.7668  -13.1896   20.1548 C   0  0  1  0  0  0  0  0  0  0  0  0
  -30.0466  -19.3605   21.0336 C   0  0  0  0  0  0  0  0  0  0  0  0
  -24.8485  -22.3001   12.3279 C   0  0  0  0  0  0  0  0  0  0  0  0
  -28.9229  -25.8361   20.2125 C   0  0  0  0  0  0  0  0  0  0  0  0
  -30.5276  -23.9148   20.1685 C   0  0  0  0  0  0  0  0  0  0  0  0
  -29.3834  -24.5335   22.2971 C   0  0  0  0  0  0  0  0  0  0  0  0
  -26.3740  -18.7294   20.2656 C   0  0  0  0  0  0  0  0  0  0  0  0
  -28.0580  -23.4158   20.4570 C   0  0  1  0  0  0  0  0  0  0  0  0
  -28.5642  -19.6954   20.9788 C   0  0  2  0  0  0  0  0  0  0  0  0
  -24.8856  -22.4351   13.8430 C   0  0  1  0  0  0  0  0  0  1  0  0
  -29.1995  -24.4247   20.7677 C   0  0  0  0  0  0  0  0  0  0  0  0
  -25.9447  -11.5779   20.5589 N   0  0  0  0  0  0  0  0  0  0  0  0
  -26.3111  -12.8647   20.4319 N   0  0  0  0  0  0  0  0  0  0  0  0
  -25.7029  -24.0612   20.0559 N   0  0  0  0  0  0  0  0  0  0  0  0
  -29.4709  -13.6348   18.4377 N   0  0  0  0  0  0  0  0  0  0  0  0
  -25.4743  -15.0802   20.4779 N   0  0  0  0  0  0  0  0  0  0  0  0
  -21.8054  -12.5643   21.2564 N   0  0  0  0  0  0  0  0  0  0  0  0
  -26.2227  -20.6602   14.7813 N   0  0  0  0  0  0  0  0  0  0  0  0
  -29.0031  -15.6992   17.3779 N   0  0  0  0  0  0  0  0  0  0  0  0
  -23.4894  -26.9093   20.5898 N   0  0  0  0  0  0  0  0  0  0  0  0
  -28.2805  -22.0777   20.9942 N   0  0  0  0  0  0  0  0  0  0  0  0
  -27.8451  -18.5454   20.3613 N   0  3  0  0  0  0  0  0  0  0  0  0
  -22.5713  -14.7106   21.0001 O   0  0  0  0  0  0  0  0  0  0  0  0
  -30.4037  -17.3712   16.5567 O   0  0  0  0  0  0  0  0  0  0  0  0
  -25.5756  -26.5753   19.6105 O   0  0  0  0  0  0  0  0  0  0  0  0
  -26.5913  -24.0459   22.2115 O   0  0  0  0  0  0  0  0  0  0  0  0
  -28.1654  -20.9656   18.9627 O   0  0  0  0  0  0  0  0  0  0  0  0
  -23.8822  -20.4761   14.8104 O   0  0  0  0  0  0  0  0  0  0  0  0
  -31.1823  -15.0209   17.7081 O   0  0  0  0  0  0  0  0  0  0  0  0
  -21.6274   -7.0042   21.5542 O   0  0  0  0  0  0  0  0  0  0  0  0
  -23.7332  -23.1539   14.2809 O   0  0  0  0  0  0  0  0  0  1  0  0
  -22.4788   -2.7994   18.0902 F   0  0  0  0  0  0  0  0  0  0  0  0
  -24.1196   -5.8276   21.3372 F   0  0  0  0  0  0  0  0  0  0  0  0
  -26.3016  -16.2562   16.9867 F   0  0  0  0  0  0  0  0  0  0  0  0
  -28.3310  -19.2283   15.5854 S   0  0  0  0  0  0  0  0  0  0  0  0
  1  2  1  0  0  0  0
  1  5  2  0  0  0  0
  2  6  2  0  0  0  0
  3  8  2  0  0  0  0
  3 16  1  0  0  0  0
  4  9  1  0  0  0  0
  4 16  2  0  0  0  0
  5 18  1  0  0  0  0
  6 20  1  0  0  0  0
  7 10  2  0  0  0  0
  7 19  1  0  0  0  0
  8 22  1  0  0  0  0
  9 22  2  0  0  0  0
 10 23  1  0  0  0  0
 11 12  2  0  0  0  0
 11 24  1  0  0  0  0
 12 25  1  0  0  0  0
 13 21  1  0  0  0  0
 13 23  2  0  0  0  0
 14 25  2  0  0  0  0
 14 26  1  0  0  0  0
 15 27  1  0  0  0  0
 15 31  2  0  0  0  0
 16 28  1  0  0  0  0
 17 28  1  0  0  0  0
 17 30  2  0  0  0  0
 17 32  1  0  0  0  0
 18 20  2  0  0  0  0
 18 39  1  0  0  0  0
 19 21  2  0  0  0  0
 19 40  1  0  0  0  0
 20 48  1  0  0  0  0
 21 41  1  0  0  0  0
 22 79  1  0  0  0  0
 23 80  1  0  0  0  0
 24 26  2  0  0  0  0
 24 79  1  0  0  0  0
 25 81  1  0  0  0  0
 26 82  1  0  0  0  0
 27 29  2  0  0  0  0
 27 83  1  0  0  0  0
 28 61  2  0  0  0  0
 29 33  1  0  0  0  0
 29 84  1  0  0  0  0
 30 62  1  0  0  0  0
 30 65  1  0  0  0  0
 31 67  1  0  0  0  0
 31 84  1  0  0  0  0
 32 66  1  0  0  0  0
 32 72  2  0  0  0  0
 33 68  1  0  0  0  0
 33 73  2  0  0  0  0
 34 49  1  0  0  0  0
 34 69  1  0  0  0  0
 34 74  2  0  0  0  0
 35 57  1  0  0  0  0
 35 63  1  0  0  0  0
 35 75  2  0  0  0  0
 36 58  1  0  0  0  0
 36 70  1  0  0  0  0
 36 76  2  0  0  0  0
 37 59  1  0  0  0  0
 37 67  1  0  0  0  0
 37 77  2  0  0  0  0
 38 64  1  0  0  0  0
 38 68  1  0  0  0  0
 38 78  2  0  0  0  0
 39 42  1  0  0  0  0
 40 49  1  0  0  0  0
 41 63  1  0  0  0  0
 42 44  1  0  0  0  0
 43 45  1  0  0  0  0
 43 46  1  0  0  0  0
 44 48  1  0  0  0  0
 45 50  1  0  0  0  0
 46 64  1  0  0  0  0
 47 50  1  0  0  0  0
 47 64  1  0  0  0  0
 48 69  1  0  0  0  0
 49 63  1  0  0  0  0
 50 62  1  0  0  0  0
 51 58  1  0  0  0  0
 52 59  1  0  0  0  0
 53 60  1  0  0  0  0
 54 60  1  0  0  0  0
 55 60  1  0  0  0  0
 56 71  1  0  0  0  0
 57 60  1  0  0  0  0
 57 70  1  0  0  0  0
 58 71  1  0  0  0  0
 59 80  1  0  0  0  0
 61 62  1  0  0  0  0
M  CHG  1  71   1
M  ISO  4  38 100  59 101  68 100  80 101
M  END
> <Batch ID>
0180

> <Smiles>
CNC(C)C(=O)NC(C(=O)N1Cc2cc([101O:1][101CH:1](C)C(=O)Nc3cc(F)c(C(=O)[100NH:0][100C:0](=O)N4CCCC(n5nc(-c6ccc(Oc7ccc(F)cc7F)cc6)c(C(N)=O)c5N)C4)s3)ccc2CC1C(=O)NC1CCCc2ccccc21)C(C)(C)C

> <Shape>
0.218

> <Color>
0.171

> <Negative vol penalty>
0.000

$$$$

  -OEChem-04052304503D

 87 95  0     1  0  0  0  0  0999 V2000
  -16.9289  -31.3543   23.6877 C   0  0  0  0  0  0  0  0  0  0  0  0
  -18.1869  -31.9291   23.8380 C   0  0  0  0  0  0  0  0  0  0  0  0
  -27.0520  -13.2616   20.2766 C   0  0  0  0  0  0  0  0  0  0  0  0
  -24.7319  -13.7562   19.8186 C   0  0  0  0  0  0  0  0  0  0  0  0
  -16.8108  -29.9784   23.4960 C   0  0  0  0  0  0  0  0  0  0  0  0
  -19.3275  -31.1280   23.7979 C   0  0  0  0  0  0  0  0  0  0  0  0
  -26.1908  -31.2853   21.7516 C   0  0  0  0  0  0  0  0  0  0  0  0
  -26.6638  -12.2137   21.1114 C   0  0  0  0  0  0  0  0  0  0  0  0
  -24.3437  -12.7083   20.6534 C   0  0  0  0  0  0  0  0  0  0  0  0
  -27.4684  -31.0273   22.2465 C   0  0  0  0  0  0  0  0  0  0  0  0
  -22.7486   -9.9349   22.3802 C   0  0  0  0  0  0  0  0  0  0  0  0
  -21.7462   -9.0788   21.9243 C   0  0  0  0  0  0  0  0  0  0  0  0
  -27.1476  -28.6729   21.8306 C   0  0  0  0  0  0  0  0  0  0  0  0
  -31.5156  -26.3942   19.3542 C   0  0  0  0  0  0  0  0  0  0  0  0
  -23.1184   -8.4822   20.0275 C   0  0  0  0  0  0  0  0  0  0  0  0
  -26.0860  -14.0329   19.6302 C   0  0  0  0  0  0  0  0  0  0  0  0
  -26.7452  -15.0509   17.3860 C   0  0  0  0  0  0  0  0  0  0  0  0
  -17.9512  -29.1613   23.4438 C   0  0  0  0  0  0  0  0  0  0  0  0
  -25.3764  -30.2360   21.3019 C   0  0  0  0  0  0  0  0  0  0  0  0
  -19.2245  -29.7396   23.6066 C   0  0  0  0  0  0  0  0  0  0  0  0
  -25.8610  -28.9204   21.3281 C   0  0  0  0  0  0  0  0  0  0  0  0
  -31.3201  -25.0677   18.8722 C   0  0  0  0  0  0  0  0  0  0  0  0
  -25.3097  -11.9370   21.2998 C   0  0  0  0  0  0  0  0  0  0  0  0
  -27.9459  -29.7207   22.2887 C   0  0  0  0  0  0  0  0  0  0  0  0
  -23.9359  -10.0647   21.6597 C   0  0  0  0  0  0  0  0  0  0  0  0
  -21.9311   -8.3525   20.7480 C   0  0  0  0  0  0  0  0  0  0  0  0
  -24.1209   -9.3384   20.4834 C   0  0  0  0  0  0  0  0  0  0  0  0
  -26.4864  -15.1158   18.7682 C   0  0  0  0  0  0  0  0  0  0  0  0
  -30.8720  -24.2189   19.8603 C   0  0  0  0  0  0  0  0  0  0  0  0
  -27.0865  -16.3355   17.0399 C   0  0  0  0  0  0  0  0  0  0  0  0
  -31.2092  -26.5088   20.6924 C   0  0  0  0  0  0  0  0  0  0  0  0
  -30.5638  -22.8424   19.7801 C   0  0  0  0  0  0  0  0  0  0  0  0
  -29.6188  -22.1646   20.5131 C   0  0  0  0  0  0  0  0  0  0  0  0
  -26.6826  -13.9297   16.4945 C   0  0  0  0  0  0  0  0  0  0  0  0
  -29.4065  -20.7181   20.3055 C   0  0  0  0  0  0  0  0  0  0  0  0
  -22.5608  -29.0484   22.1769 C   0  0  0  0  0  0  0  0  0  0  0  0
  -22.9481  -27.2174   19.5274 C   0  0  0  0  0  0  0  0  0  0  0  0
  -31.6431  -28.9271   21.2501 C   0  0  0  0  0  0  0  0  0  0  0  0
  -25.0802  -25.8090   17.2652 C   0  0  0  0  0  0  0  0  0  0  0  0
  -17.7708  -27.6727   23.2819 C   0  0  0  0  0  0  0  0  0  0  0  0
  -24.0109  -30.5338   20.7461 C   0  0  0  0  0  0  0  0  0  0  0  0
  -25.0341  -27.7608   20.8384 C   0  0  0  0  0  0  0  0  0  0  0  0
  -19.0500  -26.9447   22.8770 C   0  0  0  0  0  0  0  0  0  0  0  0
  -26.3520  -20.8809   18.2869 C   0  0  0  0  0  0  0  0  0  0  0  0
  -20.2228  -27.4088   23.7349 C   0  0  0  0  0  0  0  0  0  0  0  0
  -26.0444  -19.3977   18.0994 C   0  0  0  0  0  0  0  0  0  0  0  0
  -26.9806  -21.1667   19.6498 C   0  0  0  0  0  0  0  0  0  0  0  0
  -27.8862  -18.8620   19.7429 C   0  0  0  0  0  0  0  0  0  0  0  0
  -20.4868  -28.9073   23.5441 C   0  0  1  0  0  0  0  0  0  0  0  0
  -23.0718  -29.3324   20.7927 C   0  0  1  0  0  0  0  0  0  0  0  0
  -27.2964  -18.5451   18.3598 C   0  0  1  0  0  0  0  0  0  0  0  0
  -32.6356  -30.9226   22.3822 C   0  0  0  0  0  0  0  0  0  0  0  0
  -25.1050  -24.3344   15.2349 C   0  0  0  0  0  0  0  0  0  0  0  0
  -22.4729  -24.7774   21.2968 C   0  0  0  0  0  0  0  0  0  0  0  0
  -23.4321  -23.3551   19.4733 C   0  0  0  0  0  0  0  0  0  0  0  0
  -21.3576  -24.6775   19.0605 C   0  0  0  0  0  0  0  0  0  0  0  0
  -26.2802  -27.9354   15.5926 C   0  0  0  0  0  0  0  0  0  0  0  0
  -30.1745  -30.4879   22.6059 C   0  0  0  0  0  0  0  0  0  1  0  0
  -23.5768  -25.8759   19.2375 C   0  0  1  0  0  0  0  0  0  0  0  0
  -31.5573  -29.8440   22.4782 C   0  0  1  0  0  0  0  0  0  0  0  0
  -25.0537  -25.7650   15.7480 C   0  0  2  0  0  0  0  0  0  0  0  0
  -31.5753  -24.6690   17.4657 C   0  0  0  0  0  0  0  0  0  0  0  0
  -22.7249  -24.6929   19.7781 C   0  0  0  0  0  0  0  0  0  0  0  0
  -26.6495  -16.3444   19.2663 N   0  0  0  0  0  0  0  0  0  0  0  0
  -27.0145  -17.0633   18.1911 N   0  0  0  0  0  0  0  0  0  0  0  0
  -28.1408  -20.2983   19.9002 N   0  0  0  0  0  0  0  0  0  0  0  0
  -23.7031  -28.1025   20.3099 N   0  0  0  0  0  0  0  0  0  0  0  0
  -27.4383  -16.9022   15.8663 N   0  0  0  0  0  0  0  0  0  0  0  0
  -26.3145  -12.6817   17.0154 N   0  0  0  0  0  0  0  0  0  0  0  0
  -31.2591  -27.6253   21.5608 N   0  0  0  0  0  0  0  0  0  0  0  0
  -21.1877  -29.1426   22.3000 N   0  0  0  0  0  0  0  0  0  0  0  0
  -23.8085  -25.8363   17.7976 N   0  0  0  0  0  0  0  0  0  0  0  0
  -26.2183  -26.5073   15.1879 N   0  3  0  0  0  0  0  0  0  0  0  0
  -26.9613  -14.0282   15.2754 O   0  0  0  0  0  0  0  0  0  0  0  0
  -30.3631  -19.9680   20.5086 O   0  0  0  0  0  0  0  0  0  0  0  0
  -23.3535  -28.7634   23.0669 O   0  0  0  0  0  0  0  0  0  0  0  0
  -21.8313  -27.4733   19.0702 O   0  0  0  0  0  0  0  0  0  0  0  0
  -32.0196  -29.3449   20.1589 O   0  0  0  0  0  0  0  0  0  0  0  0
  -26.1244  -25.8146   17.9133 O   0  0  0  0  0  0  0  0  0  0  0  0
  -24.9305  -10.9144   22.1141 O   0  0  0  0  0  0  0  0  0  0  0  0
  -29.1924  -29.4661   22.7719 O   0  0  0  0  0  0  0  0  0  1  0  0
  -20.9690   -7.5292   20.3111 F   0  0  0  0  0  0  0  0  0  0  0  0
  -25.2598   -9.4580   19.7875 F   0  0  0  0  0  0  0  0  0  0  0  0
  -32.0165  -25.6921   16.6703 F   0  0  0  0  0  0  0  0  0  0  0  0
  -32.5211  -23.6887   17.3305 F   0  0  0  0  0  0  0  0  0  0  0  0
  -30.4609  -24.1820   16.8397 F   0  0  0  0  0  0  0  0  0  0  0  0
  -30.6887  -25.0212   21.3620 S   0  0  0  0  0  0  0  0  0  0  0  0
  1  2  1  0  0  0  0
  1  5  2  0  0  0  0
  2  6  2  0  0  0  0
  3  8  2  0  0  0  0
  3 16  1  0  0  0  0
  4  9  1  0  0  0  0
  4 16  2  0  0  0  0
  5 18  1  0  0  0  0
  6 20  1  0  0  0  0
  7 10  2  0  0  0  0
  7 19  1  0  0  0  0
  8 23  1  0  0  0  0
  9 23  2  0  0  0  0
 10 24  1  0  0  0  0
 11 12  2  0  0  0  0
 11 25  1  0  0  0  0
 12 26  1  0  0  0  0
 13 21  1  0  0  0  0
 13 24  2  0  0  0  0
 14 22  1  0  0  0  0
 14 31  2  0  0  0  0
 15 26  2  0  0  0  0
 15 27  1  0  0  0  0
 16 28  1  0  0  0  0
 17 28  1  0  0  0  0
 17 30  2  0  0  0  0
 17 34  1  0  0  0  0
 18 20  2  0  0  0  0
 18 40  1  0  0  0  0
 19 21  2  0  0  0  0
 19 41  1  0  0  0  0
 20 49  1  0  0  0  0
 21 42  1  0  0  0  0
 22 29  2  0  0  0  0
 22 62  1  0  0  0  0
 23 80  1  0  0  0  0
 24 81  1  0  0  0  0
 25 27  2  0  0  0  0
 25 80  1  0  0  0  0
 26 82  1  0  0  0  0
 27 83  1  0  0  0  0
 28 64  2  0  0  0  0
 29 32  1  0  0  0  0
 29 87  1  0  0  0  0
 30 65  1  0  0  0  0
 30 68  1  0  0  0  0
 31 70  1  0  0  0  0
 31 87  1  0  0  0  0
 32 33  2  0  0  0  0
 33 35  1  0  0  0  0
 34 69  1  0  0  0  0
 34 74  2  0  0  0  0
 35 66  1  0  0  0  0
 35 75  2  0  0  0  0
 36 50  1  0  0  0  0
 36 71  1  0  0  0  0
 36 76  2  0  0  0  0
 37 59  1  0  0  0  0
 37 67  1  0  0  0  0
 37 77  2  0  0  0  0
 38 60  1  0  0  0  0
 38 70  1  0  0  0  0
 38 78  2  0  0  0  0
 39 61  1  0  0  0  0
 39 72  1  0  0  0  0
 39 79  2  0  0  0  0
 40 43  1  0  0  0  0
 41 50  1  0  0  0  0
 42 67  1  0  0  0  0
 43 45  1  0  0  0  0
 44 46  1  0  0  0  0
 44 47  1  0  0  0  0
 45 49  1  0  0  0  0
 46 51  1  0  0  0  0
 47 66  1  0  0  0  0
 48 51  1  0  0  0  0
 48 66  1  0  0  0  0
 49 71  1  0  0  0  0
 50 67  1  0  0  0  0
 51 65  1  0  0  0  0
 52 60  1  0  0  0  0
 53 61  1  0  0  0  0
 54 63  1  0  0  0  0
 55 63  1  0  0  0  0
 56 63  1  0  0  0  0
 57 73  1  0  0  0  0
 58 60  1  0  0  0  0
 58 81  1  0  0  0  0
 59 63  1  0  0  0  0
 59 72  1  0  0  0  0
 61 73  1  0  0  0  0
 62 84  1  0  0  0  0
 62 85  1  0  0  0  0
 62 86  1  0  0  0  0
 64 65  1  0  0  0  0
M  CHG  1  73   1
M  ISO  4  33 100  35 100  58 101  81 101
M  END
> <Batch ID>
0180

> <Smiles>
CNC(C)C(=O)NC(C(=O)N1Cc2cc([101O:1][101CH2:1]C(C)C(=O)Nc3cc(C(F)(F)F)c(C=[100CH:0][100C:0](=O)N4CCCC(n5nc(-c6ccc(Oc7ccc(F)cc7F)cc6)c(C(N)=O)c5N)C4)s3)ccc2CC1C(=O)NC1CCCc2ccccc21)C(C)(C)C

> <Shape>
0.275

> <Color>
0.093

> <Negative vol penalty>
0.000

$$$$

  -OEChem-04052304503D

 83 91  0     1  0  0  0  0  0999 V2000
  -30.3916  -35.4260   26.4377 C   0  0  0  0  0  0  0  0  0  0  0  0
  -30.7212  -34.1197   26.7846 C   0  0  0  0  0  0  0  0  0  0  0  0
  -22.9427  -10.0640   19.9265 C   0  0  0  0  0  0  0  0  0  0  0  0
  -23.7387   -9.8976   22.2015 C   0  0  0  0  0  0  0  0  0  0  0  0
  -29.4458  -35.6640   25.4413 C   0  0  0  0  0  0  0  0  0  0  0  0
  -30.1043  -33.0505   26.1359 C   0  0  0  0  0  0  0  0  0  0  0  0
  -32.6155  -27.6383   24.7546 C   0  0  0  0  0  0  0  0  0  0  0  0
  -22.1384   -8.9420   20.1258 C   0  0  0  0  0  0  0  0  0  0  0  0
  -22.9343   -8.7756   22.4009 C   0  0  0  0  0  0  0  0  0  0  0  0
  -32.5634  -26.3932   25.3797 C   0  0  0  0  0  0  0  0  0  0  0  0
  -23.0261   -5.4797   21.6529 C   0  0  0  0  0  0  0  0  0  0  0  0
  -23.5936   -4.3823   22.3002 C   0  0  0  0  0  0  0  0  0  0  0  0
  -30.7726  -25.7340   23.9040 C   0  0  0  0  0  0  0  0  0  0  0  0
  -21.9326   -4.5534   24.0464 C   0  0  0  0  0  0  0  0  0  0  0  0
  -32.1088  -17.1594   21.9716 C   0  0  0  0  0  0  0  0  0  0  0  0
  -23.7429  -10.5418   20.9643 C   0  0  0  0  0  0  0  0  0  0  0  0
  -24.2263  -13.0465   20.9793 C   0  0  0  0  0  0  0  0  0  0  0  0
  -28.8241  -34.5972   24.7734 C   0  0  0  0  0  0  0  0  0  0  0  0
  -31.7377  -27.9451   23.7049 C   0  0  0  0  0  0  0  0  0  0  0  0
  -29.1483  -33.2744   25.1306 C   0  0  0  0  0  0  0  0  0  0  0  0
  -30.8174  -26.9828   23.2655 C   0  0  0  0  0  0  0  0  0  0  0  0
  -22.1341   -8.2978   21.3630 C   0  0  0  0  0  0  0  0  0  0  0  0
  -31.6399  -25.4419   24.9564 C   0  0  0  0  0  0  0  0  0  0  0  0
  -21.9119   -6.1141   22.2022 C   0  0  0  0  0  0  0  0  0  0  0  0
  -23.0468   -3.9191   23.4970 C   0  0  0  0  0  0  0  0  0  0  0  0
  -21.3652   -5.6509   23.3990 C   0  0  0  0  0  0  0  0  0  0  0  0
  -24.5744  -11.7004   20.7589 C   0  0  0  0  0  0  0  0  0  0  0  0
  -25.3535  -13.7531   20.6376 C   0  0  0  0  0  0  0  0  0  0  0  0
  -30.8743  -16.5748   22.1625 C   0  0  0  0  0  0  0  0  0  0  0  0
  -31.2568  -18.6322   23.3555 C   0  0  0  0  0  0  0  0  0  0  0  0
  -31.8096  -23.1142   24.8025 C   0  0  0  0  0  0  0  0  0  1  0  0
  -22.9942  -13.6080   21.4510 C   0  0  0  0  0  0  0  0  0  0  0  0
  -31.7817  -21.8703   25.2951 C   0  0  0  0  0  0  0  0  0  0  0  0
  -32.0724  -20.7312   24.3703 C   0  0  0  0  0  0  0  0  0  0  0  0
  -29.4533  -30.1081   23.2507 C   0  0  0  0  0  0  0  0  0  0  0  0
  -29.4262  -28.8786   20.2491 C   0  0  0  0  0  0  0  0  0  0  0  0
  -30.0970  -26.2381   18.1936 C   0  0  0  0  0  0  0  0  0  0  0  0
  -30.8725  -14.4788   20.7649 C   0  0  0  0  0  0  0  0  0  0  0  0
  -27.7732  -34.9038   23.7360 C   0  0  0  0  0  0  0  0  0  0  0  0
  -31.8247  -29.2831   23.0234 C   0  0  0  0  0  0  0  0  0  0  0  0
  -29.8667  -27.2553   22.1295 C   0  0  0  0  0  0  0  0  0  0  0  0
  -27.4403  -33.7162   22.8367 C   0  0  0  0  0  0  0  0  0  0  0  0
  -29.5841  -12.2704   18.2871 C   0  0  0  0  0  0  0  0  0  0  0  0
  -27.2399  -32.4547   23.6706 C   0  0  0  0  0  0  0  0  0  0  0  0
  -28.1373  -12.0360   18.7274 C   0  0  0  0  0  0  0  0  0  0  0  0
  -30.5300  -12.3786   19.4817 C   0  0  0  0  0  0  0  0  0  0  0  0
  -28.6901  -13.1288   20.9380 C   0  0  0  0  0  0  0  0  0  0  0  0
  -28.5191  -32.0882   24.4327 C   0  0  1  0  0  0  0  0  0  0  0  0
  -30.5365  -29.6725   22.3049 C   0  0  1  0  0  0  0  0  0  0  0  0
  -27.6901  -13.0779   19.7714 C   0  0  2  0  0  0  0  0  0  0  0  0
  -29.9327  -25.5170   15.7956 C   0  0  0  0  0  0  0  0  0  0  0  0
  -26.4237  -28.4521   20.5855 C   0  0  0  0  0  0  0  0  0  0  0  0
  -26.4932  -26.9067   18.6170 C   0  0  0  0  0  0  0  0  0  0  0  0
  -27.1105  -29.3074   18.3380 C   0  0  0  0  0  0  0  0  0  0  0  0
  -29.7645  -19.9305   24.9244 C   0  0  0  0  0  0  0  0  0  0  0  0
  -33.0271  -25.8816   17.9791 C   0  0  0  0  0  0  0  0  0  0  0  0
  -28.6887  -27.7558   19.5603 C   0  0  1  0  0  0  0  0  0  0  0  0
  -30.8127  -26.1583   16.8573 C   0  0  2  0  0  0  0  0  0  0  0  0
  -27.1955  -28.1007   19.2979 C   0  0  0  0  0  0  0  0  0  0  0  0
  -32.3298  -18.3395   22.6546 N   0  0  0  0  0  0  0  0  0  0  0  0
  -25.8249  -11.5578   20.3115 N   0  0  0  0  0  0  0  0  0  0  0  0
  -26.2723  -12.8235   20.2480 N   0  0  0  0  0  0  0  0  0  0  0  0
  -29.9863  -28.5804   21.4993 N   0  0  0  0  0  0  0  0  0  0  0  0
  -30.0451  -13.3874   20.4262 N   0  0  0  0  0  0  0  0  0  0  0  0
  -25.6383  -15.0727   20.6352 N   0  0  0  0  0  0  0  0  0  0  0  0
  -21.9377  -12.7393   21.7563 N   0  0  0  0  0  0  0  0  0  0  0  0
  -30.2923  -15.3905   21.6463 N   0  0  0  0  0  0  0  0  0  0  0  0
  -29.4730  -31.4580   23.5454 N   0  0  0  0  0  0  0  0  0  0  0  0
  -29.4508  -27.4454   18.3556 N   0  0  0  0  0  0  0  0  0  0  0  0
  -31.0466  -19.7791   24.2192 N   0  0  0  0  0  0  0  0  0  0  0  0
  -32.0592  -25.3514   16.9846 N   0  3  0  0  0  0  0  0  0  0  0  0
  -22.8296  -14.8447   21.5817 O   0  0  0  0  0  0  0  0  0  0  0  0
  -33.1742  -20.6865   23.8211 O   0  0  0  0  0  0  0  0  0  0  0  0
  -28.6575  -29.2810   23.6801 O   0  0  0  0  0  0  0  0  0  0  0  0
  -29.5086  -29.9775   19.6948 O   0  0  0  0  0  0  0  0  0  0  0  0
  -30.1068  -25.3198   19.0104 O   0  0  0  0  0  0  0  0  0  0  0  0
  -32.0017  -14.6104   20.2858 O   0  0  0  0  0  0  0  0  0  0  0  0
  -31.5526  -21.5915   26.6254 O   0  0  0  0  0  0  0  0  0  0  0  0
  -21.3492   -7.2031   21.5579 O   0  0  0  0  0  0  0  0  0  0  0  0
  -31.5865  -24.2260   25.5652 O   0  0  0  0  0  0  0  0  0  1  0  0
  -23.5910   -2.8642   24.1178 F   0  0  0  0  0  0  0  0  0  0  0  0
  -20.2941   -6.2555   23.9310 F   0  0  0  0  0  0  0  0  0  0  0  0
  -29.9450  -17.5318   23.2405 S   0  0  0  0  0  0  0  0  0  0  0  0
  1  2  1  0  0  0  0
  1  5  2  0  0  0  0
  2  6  2  0  0  0  0
  3  8  2  0  0  0  0
  3 16  1  0  0  0  0
  4  9  1  0  0  0  0
  4 16  2  0  0  0  0
  5 18  1  0  0  0  0
  6 20  1  0  0  0  0
  7 10  2  0  0  0  0
  7 19  1  0  0  0  0
  8 22  1  0  0  0  0
  9 22  2  0  0  0  0
 10 23  1  0  0  0  0
 11 12  2  0  0  0  0
 11 24  1  0  0  0  0
 12 25  1  0  0  0  0
 13 21  1  0  0  0  0
 13 23  2  0  0  0  0
 14 25  2  0  0  0  0
 14 26  1  0  0  0  0
 15 29  2  0  0  0  0
 15 60  1  0  0  0  0
 16 27  1  0  0  0  0
 17 27  1  0  0  0  0
 17 28  2  0  0  0  0
 17 32  1  0  0  0  0
 18 20  2  0  0  0  0
 18 39  1  0  0  0  0
 19 21  2  0  0  0  0
 19 40  1  0  0  0  0
 20 48  1  0  0  0  0
 21 41  1  0  0  0  0
 22 79  1  0  0  0  0
 23 80  1  0  0  0  0
 24 26  2  0  0  0  0
 24 79  1  0  0  0  0
 25 81  1  0  0  0  0
 26 82  1  0  0  0  0
 27 61  2  0  0  0  0
 28 62  1  0  0  0  0
 28 65  1  0  0  0  0
 29 67  1  0  0  0  0
 29 83  1  0  0  0  0
 30 60  2  0  0  0  0
 30 70  1  0  0  0  0
 30 83  1  0  0  0  0
 31 33  2  0  0  0  0
 31 80  1  0  0  0  0
 32 66  1  0  0  0  0
 32 72  2  0  0  0  0
 33 34  1  0  0  0  0
 33 78  1  0  0  0  0
 34 70  1  0  0  0  0
 34 73  2  0  0  0  0
 35 49  1  0  0  0  0
 35 68  1  0  0  0  0
 35 74  2  0  0  0  0
 36 57  1  0  0  0  0
 36 63  1  0  0  0  0
 36 75  2  0  0  0  0
 37 58  1  0  0  0  0
 37 69  1  0  0  0  0
 37 76  2  0  0  0  0
 38 64  1  0  0  0  0
 38 67  1  0  0  0  0
 38 77  2  0  0  0  0
 39 42  1  0  0  0  0
 40 49  1  0  0  0  0
 41 63  1  0  0  0  0
 42 44  1  0  0  0  0
 43 45  1  0  0  0  0
 43 46  1  0  0  0  0
 44 48  1  0  0  0  0
 45 50  1  0  0  0  0
 46 64  1  0  0  0  0
 47 50  1  0  0  0  0
 47 64  1  0  0  0  0
 48 68  1  0  0  0  0
 49 63  1  0  0  0  0
 50 62  1  0  0  0  0
 51 58  1  0  0  0  0
 52 59  1  0  0  0  0
 53 59  1  0  0  0  0
 54 59  1  0  0  0  0
 55 70  1  0  0  0  0
 56 71  1  0  0  0  0
 57 59  1  0  0  0  0
 57 69  1  0  0  0  0
 58 71  1  0  0  0  0
 61 62  1  0  0  0  0
M  CHG  1  71   1
M  ISO  4  31 101  38 100  67 100  80 101
M  END
> <Batch ID>
0180

> <Smiles>
CNC(C)C(=O)NC(C(=O)N1Cc2cc([101O:1][101CH2:1]C(=O)C(=O)N(C)c3ncc([100NH:0][100C:0](=O)N4CCCC(n5nc(-c6ccc(Oc7ccc(F)cc7F)cc6)c(C(N)=O)c5N)C4)s3)ccc2CC1C(=O)NC1CCCc2ccccc21)C(C)(C)C

> <Shape>
0.262

> <Color>
0.196

> <Negative vol penalty>
0.000

$$$$

  -OEChem-04052304503D

 86 94  0     1  0  0  0  0  0999 V2000
  -25.9479  -35.1551   23.3623 C   0  0  0  0  0  0  0  0  0  0  0  0
  -26.5058  -33.9402   22.9772 C   0  0  0  0  0  0  0  0  0  0  0  0
  -24.4327  -13.5265   22.0431 C   0  0  0  0  0  0  0  0  0  0  0  0
  -26.3914  -13.5202   20.6288 C   0  0  0  0  0  0  0  0  0  0  0  0
  -24.7428  -35.1764   24.0631 C   0  0  0  0  0  0  0  0  0  0  0  0
  -25.8594  -32.7459   23.2937 C   0  0  0  0  0  0  0  0  0  0  0  0
  -25.7318  -29.5141   19.3970 C   0  0  0  0  0  0  0  0  0  0  0  0
  -23.9017  -12.4636   21.3125 C   0  0  0  0  0  0  0  0  0  0  0  0
  -25.8604  -12.4572   19.8982 C   0  0  0  0  0  0  0  0  0  0  0  0
  -26.8983  -28.8016   19.1222 C   0  0  0  0  0  0  0  0  0  0  0  0
  -22.1925   -9.5159   20.0456 C   0  0  0  0  0  0  0  0  0  0  0  0
  -21.6246   -8.4594   20.7575 C   0  0  0  0  0  0  0  0  0  0  0  0
  -25.9879  -26.8822   20.2651 C   0  0  0  0  0  0  0  0  0  0  0  0
  -23.7430   -8.0545   21.8464 C   0  0  0  0  0  0  0  0  0  0  0  0
  -25.6775  -14.0549   21.7012 C   0  0  0  0  0  0  0  0  0  0  0  0
  -27.0492  -15.0751   23.5947 C   0  0  0  0  0  0  0  0  0  0  0  0
  -24.0764  -33.9822   24.3800 C   0  0  0  0  0  0  0  0  0  0  0  0
  -24.6873  -28.9185   20.1185 C   0  0  0  0  0  0  0  0  0  0  0  0
  -24.6450  -32.7512   24.0006 C   0  0  0  0  0  0  0  0  0  0  0  0
  -24.8082  -27.5884   20.5455 C   0  0  0  0  0  0  0  0  0  0  0  0
  -24.6155  -11.9289   20.2401 C   0  0  0  0  0  0  0  0  0  0  0  0
  -27.0276  -27.4864   19.5588 C   0  0  0  0  0  0  0  0  0  0  0  0
  -23.5356   -9.8418   20.2340 C   0  0  0  0  0  0  0  0  0  0  0  0
  -22.3998   -7.7287   21.6579 C   0  0  0  0  0  0  0  0  0  0  0  0
  -24.3109   -9.1110   21.1344 C   0  0  0  0  0  0  0  0  0  0  0  0
  -26.2264  -15.1533   22.4551 C   0  0  0  0  0  0  0  0  0  0  0  0
  -30.8511  -22.7844   18.4736 C   0  0  0  0  0  0  0  0  0  0  0  0
  -27.2966  -16.3838   23.9300 C   0  0  0  0  0  0  0  0  0  0  0  0
  -31.4710  -21.6057   18.1150 C   0  0  0  0  0  0  0  0  0  0  0  0
  -29.4607  -21.3787   19.4225 C   0  0  0  0  0  0  0  0  0  0  0  0
  -27.5456  -13.9225   24.2881 C   0  0  0  0  0  0  0  0  0  0  0  0
  -31.3460  -24.1291   18.1054 C   0  0  0  0  0  0  0  0  0  0  0  0
  -30.6038  -25.3552   18.5413 C   0  0  0  0  0  0  0  0  0  0  0  0
  -23.2533  -29.5127   22.8924 C   0  0  0  0  0  0  0  0  0  0  0  0
  -21.2754  -27.1261   21.9362 C   0  0  0  0  0  0  0  0  0  0  0  0
  -33.1757  -20.0807   17.0697 C   0  0  0  0  0  0  0  0  0  0  0  0
  -20.8102  -24.3427   20.0171 C   0  0  0  0  0  0  0  0  0  0  0  0
  -27.3437  -21.4646   20.7854 C   0  0  0  0  0  0  0  0  0  0  0  0
  -22.8000  -34.0534   25.1803 C   0  0  0  0  0  0  0  0  0  0  0  0
  -23.4247  -29.6919   20.3836 C   0  0  0  0  0  0  0  0  0  0  0  0
  -23.7076  -26.8966   21.3062 C   0  0  0  0  0  0  0  0  0  0  0  0
  -21.9888  -32.7606   25.1494 C   0  0  0  0  0  0  0  0  0  0  0  0
  -25.3545  -20.7524   23.6512 C   0  0  0  0  0  0  0  0  0  0  0  0
  -22.8928  -31.5571   25.3969 C   0  0  0  0  0  0  0  0  0  0  0  0
  -25.4322  -19.2292   23.7770 C   0  0  0  0  0  0  0  0  0  0  0  0
  -25.3118  -21.1995   22.1911 C   0  0  0  0  0  0  0  0  0  0  0  0
  -26.4683  -19.1460   21.4734 C   0  0  0  0  0  0  0  0  0  0  0  0
  -23.9613  -31.4356   24.3038 C   0  0  1  0  0  0  0  0  0  0  0  0
  -22.6330  -29.1543   21.5717 C   0  0  1  0  0  0  0  0  0  0  0  0
  -26.5790  -18.6511   22.9248 C   0  0  2  0  0  0  0  0  0  0  0  0
  -34.4368  -20.2125   16.2532 C   0  0  0  0  0  0  0  0  0  0  0  0
  -19.1017  -22.5861   19.4758 C   0  0  0  0  0  0  0  0  0  0  0  0
  -21.8388  -25.7591   24.6053 C   0  0  0  0  0  0  0  0  0  0  0  0
  -20.9109  -23.6442   23.6387 C   0  0  0  0  0  0  0  0  0  0  0  0
  -19.4527  -25.6557   23.8634 C   0  0  0  0  0  0  0  0  0  0  0  0
  -20.7466  -25.1192   17.1619 C   0  0  0  0  0  0  0  0  0  0  0  0
  -29.5798  -25.8901   17.5666 C   0  0  0  0  0  0  0  0  0  0  0  0
  -28.8687  -27.1252   18.0973 C   0  0  0  0  0  0  0  0  0  1  0  0
  -21.2576  -25.6248   22.0933 C   0  0  1  0  0  0  0  0  0  0  0  0
  -19.6808  -23.9376   19.0872 C   0  0  2  0  0  0  0  0  0  0  0  0
  -20.8867  -25.1843   23.5375 C   0  0  0  0  0  0  0  0  0  0  0  0
  -25.9681  -16.4121   22.0910 N   0  0  0  0  0  0  0  0  0  0  0  0
  -29.6980  -22.6562   19.2230 N   0  0  0  0  0  0  0  0  0  0  0  0
  -26.6325  -17.1370   23.0070 N   0  0  0  0  0  0  0  0  0  0  0  0
  -22.4952  -27.6967   21.5461 N   0  0  0  0  0  0  0  0  0  0  0  0
  -26.4302  -20.6166   21.4466 N   0  0  0  0  0  0  0  0  0  0  0  0
  -28.0152  -16.9523   24.9214 N   0  0  0  0  0  0  0  0  0  0  0  0
  -27.1951  -12.6526   23.8097 N   0  0  0  0  0  0  0  0  0  0  0  0
  -32.6013  -21.3369   17.3964 N   0  0  0  0  0  0  0  0  0  0  0  0
  -28.3840  -20.7987   20.1383 N   0  0  0  0  0  0  0  0  0  0  0  0
  -23.3903  -30.8720   23.0993 N   0  0  0  0  0  0  0  0  0  0  0  0
  -20.3569  -25.1173   21.0639 N   0  0  0  0  0  0  0  0  0  0  0  0
  -20.1716  -23.8522   17.6826 N   0  3  0  0  0  0  0  0  0  0  0  0
  -28.2648  -14.0160   25.3116 O   0  0  0  0  0  0  0  0  0  0  0  0
  -32.3665  -24.3137   17.4588 O   0  0  0  0  0  0  0  0  0  0  0  0
  -30.9025  -25.8383   19.6225 O   0  0  0  0  0  0  0  0  0  0  0  0
  -23.5819  -28.6219   23.6672 O   0  0  0  0  0  0  0  0  0  0  0  0
  -20.2430  -27.7682   22.1448 O   0  0  0  0  0  0  0  0  0  0  0  0
  -32.7426  -18.9765   17.3827 O   0  0  0  0  0  0  0  0  0  0  0  0
  -21.9772  -24.0027   19.8353 O   0  0  0  0  0  0  0  0  0  0  0  0
  -27.2280  -22.6925   20.8155 O   0  0  0  0  0  0  0  0  0  0  0  0
  -24.0978  -10.8915   19.5271 O   0  0  0  0  0  0  0  0  0  0  0  0
  -28.1654  -26.7889   19.2926 O   0  0  0  0  0  0  0  0  0  1  0  0
  -21.8540   -6.7150   22.3426 F   0  0  0  0  0  0  0  0  0  0  0  0
  -25.6015   -9.4201   21.3206 F   0  0  0  0  0  0  0  0  0  0  0  0
  -30.5838  -20.2766   18.7376 S   0  0  0  0  0  0  0  0  0  0  0  0
  1  2  1  0  0  0  0
  1  5  2  0  0  0  0
  2  6  2  0  0  0  0
  3  8  2  0  0  0  0
  3 15  1  0  0  0  0
  4  9  1  0  0  0  0
  4 15  2  0  0  0  0
  5 17  1  0  0  0  0
  6 19  1  0  0  0  0
  7 10  2  0  0  0  0
  7 18  1  0  0  0  0
  8 21  1  0  0  0  0
  9 21  2  0  0  0  0
 10 22  1  0  0  0  0
 11 12  2  0  0  0  0
 11 23  1  0  0  0  0
 12 24  1  0  0  0  0
 13 20  1  0  0  0  0
 13 22  2  0  0  0  0
 14 24  2  0  0  0  0
 14 25  1  0  0  0  0
 15 26  1  0  0  0  0
 16 26  1  0  0  0  0
 16 28  2  0  0  0  0
 16 31  1  0  0  0  0
 17 19  2  0  0  0  0
 17 39  1  0  0  0  0
 18 20  2  0  0  0  0
 18 40  1  0  0  0  0
 19 48  1  0  0  0  0
 20 41  1  0  0  0  0
 21 82  1  0  0  0  0
 22 83  1  0  0  0  0
 23 25  2  0  0  0  0
 23 82  1  0  0  0  0
 24 84  1  0  0  0  0
 25 85  1  0  0  0  0
 26 62  2  0  0  0  0
 27 29  2  0  0  0  0
 27 32  1  0  0  0  0
 27 63  1  0  0  0  0
 28 64  1  0  0  0  0
 28 67  1  0  0  0  0
 29 69  1  0  0  0  0
 29 86  1  0  0  0  0
 30 63  2  0  0  0  0
 30 70  1  0  0  0  0
 30 86  1  0  0  0  0
 31 68  1  0  0  0  0
 31 74  2  0  0  0  0
 32 33  1  0  0  0  0
 32 75  2  0  0  0  0
 33 57  1  0  0  0  0
 33 76  2  0  0  0  0
 34 49  1  0  0  0  0
 34 71  1  0  0  0  0
 34 77  2  0  0  0  0
 35 59  1  0  0  0  0
 35 65  1  0  0  0  0
 35 78  2  0  0  0  0
 36 51  1  0  0  0  0
 36 69  1  0  0  0  0
 36 79  2  0  0  0  0
 37 60  1  0  0  0  0
 37 72  1  0  0  0  0
 37 80  2  0  0  0  0
 38 66  1  0  0  0  0
 38 70  1  0  0  0  0
 38 81  2  0  0  0  0
 39 42  1  0  0  0  0
 40 49  1  0  0  0  0
 41 65  1  0  0  0  0
 42 44  1  0  0  0  0
 43 45  1  0  0  0  0
 43 46  1  0  0  0  0
 44 48  1  0  0  0  0
 45 50  1  0  0  0  0
 46 66  1  0  0  0  0
 47 50  1  0  0  0  0
 47 66  1  0  0  0  0
 48 71  1  0  0  0  0
 49 65  1  0  0  0  0
 50 64  1  0  0  0  0
 52 60  1  0  0  0  0
 53 61  1  0  0  0  0
 54 61  1  0  0  0  0
 55 61  1  0  0  0  0
 56 73  1  0  0  0  0
 57 58  1  0  0  0  0
 58 83  1  0  0  0  0
 59 61  1  0  0  0  0
 59 72  1  0  0  0  0
 60 73  1  0  0  0  0
 62 64  1  0  0  0  0
M  CHG  1  73   1
M  ISO  4  38 100  58 101  70 100  83 101
M  END
> <Batch ID>
0180

> <Smiles>
CNC(C)C(=O)NC(C(=O)N1Cc2cc([101O:1][101CH2:1]CC(=O)C(=O)c3nc([100NH:0][100C:0](=O)N4CCCC(n5nc(-c6ccc(Oc7ccc(F)cc7F)cc6)c(C(N)=O)c5N)C4)sc3NC(C)=O)ccc2CC1C(=O)NC1CCCc2ccccc21)C(C)(C)C

> <Shape>
0.258

> <Color>
0.093

> <Negative vol penalty>
0.000

$$$$

  -OEChem-04052304503D

 85 93  0     1  0  0  0  0  0999 V2000
  -40.5841  -24.6764   15.3042 C   0  0  0  0  0  0  0  0  0  0  0  0
  -40.5806  -23.3632   15.7632 C   0  0  0  0  0  0  0  0  0  0  0  0
  -31.3899  -13.2678   26.4562 C   0  0  0  0  0  0  0  0  0  0  0  0
  -23.2740   -9.7718   19.8761 C   0  0  0  0  0  0  0  0  0  0  0  0
  -23.6570   -9.8897   22.2586 C   0  0  0  0  0  0  0  0  0  0  0  0
  -39.6612  -25.5922   15.8077 C   0  0  0  0  0  0  0  0  0  0  0  0
  -39.6547  -22.9652   16.7270 C   0  0  0  0  0  0  0  0  0  0  0  0
  -36.9550  -17.4884   17.1984 C   0  0  0  0  0  0  0  0  0  0  0  0
  -22.5380   -8.6002   20.0523 C   0  0  0  0  0  0  0  0  0  0  0  0
  -22.9209   -8.7180   22.4349 C   0  0  0  0  0  0  0  0  0  0  0  0
  -37.2254  -16.3746   17.9922 C   0  0  0  0  0  0  0  0  0  0  0  0
  -20.8387   -5.9548   23.5517 C   0  0  0  0  0  0  0  0  0  0  0  0
  -19.9068   -5.9233   24.5890 C   0  0  0  0  0  0  0  0  0  0  0  0
  -32.7257  -13.6440   26.3690 C   0  0  0  0  0  0  0  0  0  0  0  0
  -30.6734  -12.9940   25.2965 C   0  0  0  0  0  0  0  0  0  0  0  0
  -35.5791  -17.1210   19.5897 C   0  0  0  0  0  0  0  0  0  0  0  0
  -18.7323   -7.7835   23.5904 C   0  0  0  0  0  0  0  0  0  0  0  0
  -23.8336  -10.4166   20.9792 C   0  0  0  0  0  0  0  0  0  0  0  0
  -24.1072  -12.9473   20.8110 C   0  0  0  0  0  0  0  0  0  0  0  0
  -38.7173  -25.2028   16.7710 C   0  0  0  0  0  0  0  0  0  0  0  0
  -36.0008  -18.4342   17.6003 C   0  0  0  0  0  0  0  0  0  0  0  0
  -38.7192  -23.8770   17.2448 C   0  0  0  0  0  0  0  0  0  0  0  0
  -35.2967  -18.2446   18.7979 C   0  0  0  0  0  0  0  0  0  0  0  0
  -22.3614   -8.0733   21.3317 C   0  0  0  0  0  0  0  0  0  0  0  0
  -36.5395  -16.1923   19.1894 C   0  0  0  0  0  0  0  0  0  0  0  0
  -20.7175   -6.9007   22.5337 C   0  0  0  0  0  0  0  0  0  0  0  0
  -18.8536   -6.8376   24.6084 C   0  0  0  0  0  0  0  0  0  0  0  0
  -19.6642   -7.8150   22.5530 C   0  0  0  0  0  0  0  0  0  0  0  0
  -24.5945  -11.6266   20.7978 C   0  0  0  0  0  0  0  0  0  0  0  0
  -33.2939  -13.7310   25.1083 C   0  0  0  0  0  0  0  0  0  0  0  0
  -31.3335  -13.1103   24.0838 C   0  0  0  0  0  0  0  0  0  0  0  0
  -25.2182  -13.7254   20.5948 C   0  0  0  0  0  0  0  0  0  0  0  0
  -22.7699  -13.4278   21.0018 C   0  0  0  0  0  0  0  0  0  0  0  0
  -34.7072  -14.1237   24.9382 C   0  0  0  0  0  0  0  0  0  0  0  0
  -36.0750  -21.5298   18.3181 C   0  0  0  0  0  0  0  0  0  0  0  0
  -36.9447  -13.9610   22.0955 C   0  0  0  0  0  0  0  0  0  0  0  0
  -32.8550  -21.1711   18.4781 C   0  0  0  0  0  0  0  0  0  0  0  0
  -30.1914  -19.0888   18.9426 C   0  0  0  0  0  0  0  0  0  0  0  0
  -31.0493  -12.8821   21.5911 C   0  0  0  0  0  0  0  0  0  0  0  0
  -37.7702  -26.2402   17.3202 C   0  0  0  0  0  0  0  0  0  0  0  0
  -35.7017  -19.6163   16.7197 C   0  0  0  0  0  0  0  0  0  0  0  0
  -34.2483  -19.2202   19.2643 C   0  0  0  0  0  0  0  0  0  0  0  0
  -36.5790  -25.6437   18.0655 C   0  0  0  0  0  0  0  0  0  0  0  0
  -29.5076  -13.6200   18.4677 C   0  0  0  0  0  0  0  0  0  0  0  0
  -37.0422  -24.5537   19.0269 C   0  0  0  0  0  0  0  0  0  0  0  0
  -28.0274  -13.3186   18.7138 C   0  0  0  0  0  0  0  0  0  0  0  0
  -30.4165  -12.6351   19.2008 C   0  0  0  0  0  0  0  0  0  0  0  0
  -28.6726  -12.1977   20.8851 C   0  0  0  0  0  0  0  0  0  0  0  0
  -37.7144  -23.4009   18.2714 C   0  0  1  0  0  0  0  0  0  0  0  0
  -35.0774  -20.7836   17.4781 C   0  0  1  0  0  0  0  0  0  0  0  0
  -27.7186  -13.2030   20.2194 C   0  0  2  0  0  0  0  0  0  0  0  0
  -37.6647  -12.9418   24.2752 C   0  0  0  0  0  0  0  0  0  0  0  0
  -27.6844  -19.0922   19.0546 C   0  0  0  0  0  0  0  0  0  0  0  0
  -32.9839  -22.3883   21.2731 C   0  0  0  0  0  0  0  0  0  0  0  0
  -30.6783  -21.5050   21.6883 C   0  0  0  0  0  0  0  0  0  0  0  0
  -31.0639  -23.1782   19.8788 C   0  0  0  0  0  0  0  0  0  0  0  0
  -29.9701  -17.2494   16.6347 C   0  0  0  0  0  0  0  0  0  0  0  0
  -36.6268  -15.2577   21.3745 C   0  0  0  0  0  0  0  0  0  1  0  0
  -36.7780  -13.9706   23.6020 C   0  0  2  0  0  0  0  0  0  0  0  0
  -31.8729  -20.8036   19.5641 C   0  0  1  0  0  0  0  0  0  0  0  0
  -28.9019  -18.9131   18.1610 C   0  0  2  0  0  0  0  0  0  0  0  0
  -31.6708  -21.9512   20.5935 C   0  0  0  0  0  0  0  0  0  0  0  0
  -25.9124  -11.5653   20.5895 N   0  0  0  0  0  0  0  0  0  0  0  0
  -32.6299  -13.4730   23.9594 N   0  0  0  0  0  0  0  0  0  0  0  0
  -26.2627  -12.8572   20.4698 N   0  0  0  0  0  0  0  0  0  0  0  0
  -33.9961  -20.3634   18.3716 N   0  0  0  0  0  0  0  0  0  0  0  0
  -30.0685  -12.5815   20.6224 N   0  0  0  0  0  0  0  0  0  0  0  0
  -25.3938  -15.0606   20.5013 N   0  0  0  0  0  0  0  0  0  0  0  0
  -21.7474  -12.4924   21.2116 N   0  0  0  0  0  0  0  0  0  0  0  0
  -30.5938  -12.8302   22.9081 N   0  0  0  0  0  0  0  0  0  0  0  0
  -35.3849  -13.6408   23.8861 N   0  0  0  0  0  0  0  0  0  0  0  0
  -36.7180  -22.5546   17.6505 N   0  0  0  0  0  0  0  0  0  0  0  0
  -30.6504  -20.3878   18.8852 N   0  0  0  0  0  0  0  0  0  0  0  0
  -35.2455  -14.9410   25.8435 N   0  3  0  0  0  0  0  0  0  0  0  0
  -28.8445  -17.5526   17.5556 N   0  3  0  0  0  0  0  0  0  0  0  0
  -22.4873  -14.6495   20.9702 O   0  0  0  0  0  0  0  0  0  0  0  0
  -36.2474  -21.2011   19.4860 O   0  0  0  0  0  0  0  0  0  0  0  0
  -37.3171  -12.9598   21.4833 O   0  0  0  0  0  0  0  0  0  0  0  0
  -32.6150  -22.1349   17.7465 O   0  0  0  0  0  0  0  0  0  0  0  0
  -30.7349  -18.1669   19.5469 O   0  0  0  0  0  0  0  0  0  0  0  0
  -32.2008  -13.1914   21.2745 O   0  0  0  0  0  0  0  0  0  0  0  0
  -21.6430   -6.9301   21.5040 O   0  0  0  0  0  0  0  0  0  0  0  0
  -36.8019  -15.1063   19.9664 O   0  0  0  0  0  0  0  0  0  1  0  0
  -17.9579   -6.8063   25.6038 F   0  0  0  0  0  0  0  0  0  0  0  0
  -19.5419   -8.7253   21.5772 F   0  0  0  0  0  0  0  0  0  0  0  0
  1  2  1  0  0  0  0
  1  6  2  0  0  0  0
  2  7  2  0  0  0  0
  3 14  2  0  0  0  0
  3 15  1  0  0  0  0
  4  9  2  0  0  0  0
  4 18  1  0  0  0  0
  5 10  1  0  0  0  0
  5 18  2  0  0  0  0
  6 20  1  0  0  0  0
  7 22  1  0  0  0  0
  8 11  2  0  0  0  0
  8 21  1  0  0  0  0
  9 24  1  0  0  0  0
 10 24  2  0  0  0  0
 11 25  1  0  0  0  0
 12 13  2  0  0  0  0
 12 26  1  0  0  0  0
 13 27  1  0  0  0  0
 14 30  1  0  0  0  0
 15 31  2  0  0  0  0
 16 23  1  0  0  0  0
 16 25  2  0  0  0  0
 17 27  2  0  0  0  0
 17 28  1  0  0  0  0
 18 29  1  0  0  0  0
 19 29  1  0  0  0  0
 19 32  2  0  0  0  0
 19 33  1  0  0  0  0
 20 22  2  0  0  0  0
 20 40  1  0  0  0  0
 21 23  2  0  0  0  0
 21 41  1  0  0  0  0
 22 49  1  0  0  0  0
 23 42  1  0  0  0  0
 24 82  1  0  0  0  0
 25 83  1  0  0  0  0
 26 28  2  0  0  0  0
 26 82  1  0  0  0  0
 27 84  1  0  0  0  0
 28 85  1  0  0  0  0
 29 63  2  0  0  0  0
 30 34  1  0  0  0  0
 30 64  2  0  0  0  0
 31 64  1  0  0  0  0
 31 70  1  0  0  0  0
 32 65  1  0  0  0  0
 32 68  1  0  0  0  0
 33 69  1  0  0  0  0
 33 76  2  0  0  0  0
 34 71  1  0  0  0  0
 34 74  2  0  0  0  0
 35 50  1  0  0  0  0
 35 72  1  0  0  0  0
 35 77  2  0  0  0  0
 36 58  1  0  0  0  0
 36 59  1  0  0  0  0
 36 78  2  0  0  0  0
 37 60  1  0  0  0  0
 37 66  1  0  0  0  0
 37 79  2  0  0  0  0
 38 61  1  0  0  0  0
 38 73  1  0  0  0  0
 38 80  2  0  0  0  0
 39 67  1  0  0  0  0
 39 70  1  0  0  0  0
 39 81  2  0  0  0  0
 40 43  1  0  0  0  0
 41 50  1  0  0  0  0
 42 66  1  0  0  0  0
 43 45  1  0  0  0  0
 44 46  1  0  0  0  0
 44 47  1  0  0  0  0
 45 49  1  0  0  0  0
 46 51  1  0  0  0  0
 47 67  1  0  0  0  0
 48 51  1  0  0  0  0
 48 67  1  0  0  0  0
 49 72  1  0  0  0  0
 50 66  1  0  0  0  0
 51 65  1  0  0  0  0
 52 59  1  0  0  0  0
 53 61  1  0  0  0  0
 54 62  1  0  0  0  0
 55 62  1  0  0  0  0
 56 62  1  0  0  0  0
 57 75  1  0  0  0  0
 58 83  1  0  0  0  0
 59 71  1  0  0  0  0
 60 62  1  0  0  0  0
 60 73  1  0  0  0  0
 61 75  1  0  0  0  0
 63 65  1  0  0  0  0
M  CHG  2  74   1  75   1
M  ISO  4  39 100  58 101  70 100  83 101
M  END
> <Batch ID>
0180

> <Smiles>
CNC(C)C(=O)NC(C(=O)N1Cc2cc([101O:1][101CH2:1]C(=O)C(C)NC(=N)c3cccc([100NH:0][100C:0](=O)N4CCCC(n5nc(-c6ccc(Oc7ccc(F)cc7F)cc6)c(C(N)=O)c5N)C4)n3)ccc2CC1C(=O)NC1CCCc2ccccc21)C(C)(C)C

> <Shape>
0.156

> <Color>
0.176

> <Negative vol penalty>
0.000

$$$$

  -OEChem-04052304503D

 85 93  0     1  0  0  0  0  0999 V2000
  -18.9146   -8.3598   20.6837 C   0  0  0  0  0  0  0  0  0  0  0  0
  -18.7124   -9.7017   20.9899 C   0  0  0  0  0  0  0  0  0  0  0  0
  -21.7100  -30.9915   20.3170 C   0  0  0  0  0  0  0  0  0  0  0  0
  -21.6893  -29.0457   21.7489 C   0  0  0  0  0  0  0  0  0  0  0  0
  -20.0703   -7.7130   21.1195 C   0  0  0  0  0  0  0  0  0  0  0  0
  -19.6653  -10.3974   21.7331 C   0  0  0  0  0  0  0  0  0  0  0  0
  -22.5061  -16.9348   22.4460 C   0  0  0  0  0  0  0  0  0  0  0  0
  -20.3178  -31.0516   20.3784 C   0  0  0  0  0  0  0  0  0  0  0  0
  -20.2971  -29.1057   21.8104 C   0  0  0  0  0  0  0  0  0  0  0  0
  -22.7691  -17.8942   23.4228 C   0  0  0  0  0  0  0  0  0  0  0  0
  -17.9532  -30.8971   23.4589 C   0  0  0  0  0  0  0  0  0  0  0  0
  -17.3538  -30.7386   24.7083 C   0  0  0  0  0  0  0  0  0  0  0  0
  -24.7645  -16.6950   24.0547 C   0  0  0  0  0  0  0  0  0  0  0  0
  -16.1605  -28.8036   23.8904 C   0  0  0  0  0  0  0  0  0  0  0  0
  -22.3958  -29.9886   21.0022 C   0  0  0  0  0  0  0  0  0  0  0  0
  -24.7512  -30.5521   21.8035 C   0  0  0  0  0  0  0  0  0  0  0  0
  -21.0424   -8.4037   21.8602 C   0  0  0  0  0  0  0  0  0  0  0  0
  -23.3659  -15.8406   22.2732 C   0  0  0  0  0  0  0  0  0  0  0  0
  -20.8344   -9.7589   22.1804 C   0  0  0  0  0  0  0  0  0  0  0  0
  -24.5115  -15.7244   23.0733 C   0  0  0  0  0  0  0  0  0  0  0  0
  -19.6114  -30.1087   21.1251 C   0  0  0  0  0  0  0  0  0  0  0  0
  -23.8969  -17.7728   24.2293 C   0  0  0  0  0  0  0  0  0  0  0  0
  -17.6563  -30.0089   22.4251 C   0  0  0  0  0  0  0  0  0  0  0  0
  -16.4574  -29.6919   24.9241 C   0  0  0  0  0  0  0  0  0  0  0  0
  -16.7600  -28.9621   22.6409 C   0  0  0  0  0  0  0  0  0  0  0  0
  -23.8339  -29.9257   20.9387 C   0  0  0  0  0  0  0  0  0  0  0  0
  -28.1342  -21.5911   21.1066 C   0  0  0  0  0  0  0  0  0  0  0  0
  -28.9378  -21.6479   19.9872 C   0  0  0  0  0  0  0  0  0  0  0  0
  -25.9836  -30.1836   21.3220 C   0  0  0  0  0  0  0  0  0  0  0  0
  -27.9025  -23.5664   19.7475 C   0  0  0  0  0  0  0  0  0  0  0  0
  -24.5108  -31.3918   22.9405 C   0  0  0  0  0  0  0  0  0  0  0  0
  -28.0077  -20.5487   22.1568 C   0  0  0  0  0  0  0  0  0  0  0  0
  -23.0616  -12.6868   22.5269 C   0  0  0  0  0  0  0  0  0  0  0  0
  -26.0863  -12.6920   21.3550 C   0  0  0  0  0  0  0  0  0  0  0  0
  -26.7937  -19.9538   24.2209 C   0  0  0  0  0  0  0  0  0  0  0  0
  -29.0242  -14.3748   20.9257 C   0  0  0  0  0  0  0  0  0  0  0  0
  -27.8881  -25.5017   18.1348 C   0  0  0  0  0  0  0  0  0  0  0  0
  -22.2533   -7.6496   22.3499 C   0  0  0  0  0  0  0  0  0  0  0  0
  -23.0825  -14.8286   21.1972 C   0  0  0  0  0  0  0  0  0  0  0  0
  -25.4770  -14.5794   22.9144 C   0  0  0  0  0  0  0  0  0  0  0  0
  -23.3901   -8.5573   22.8124 C   0  0  0  0  0  0  0  0  0  0  0  0
  -28.1993  -28.9397   17.2628 C   0  0  0  0  0  0  0  0  0  0  0  0
  -22.8554   -9.6652   23.7143 C   0  0  0  0  0  0  0  0  0  0  0  0
  -27.2030  -29.6404   18.1894 C   0  0  0  0  0  0  0  0  0  0  0  0
  -27.6788  -27.5825   16.7927 C   0  0  0  0  0  0  0  0  0  0  0  0
  -26.2549  -27.3767   18.7925 C   0  0  0  0  0  0  0  0  0  0  0  0
  -21.8566  -10.5541   22.9633 C   0  0  1  0  0  0  0  0  0  0  0  0
  -23.7503  -13.4811   21.4534 C   0  0  1  0  0  0  0  0  0  0  0  0
  -26.7630  -28.7189   19.3439 C   0  0  2  0  0  0  0  0  0  0  0  0
  -31.3262  -14.1054   19.9636 C   0  0  0  0  0  0  0  0  0  0  0  0
  -23.2643  -20.9240   25.3803 C   0  0  0  0  0  0  0  0  0  0  0  0
  -26.8826  -10.9737   23.7474 C   0  0  0  0  0  0  0  0  0  0  0  0
  -29.2749  -11.5306   23.2627 C   0  0  0  0  0  0  0  0  0  0  0  0
  -27.9197  -10.2863   21.5780 C   0  0  0  0  0  0  0  0  0  0  0  0
  -28.6116  -16.5969   19.0149 C   0  0  0  0  0  0  0  0  0  0  0  0
  -25.7359  -20.5109   25.1558 C   0  0  0  0  0  0  0  0  0  0  0  0
  -27.4678  -12.7441   21.9615 C   0  0  1  0  0  0  0  0  0  0  0  0
  -29.9024  -14.5724   19.7034 C   0  0  2  0  0  0  0  0  0  0  0  0
  -24.3380  -20.0525   24.7434 C   0  0  1  0  0  0  0  0  0  1  0  0
  -27.8672  -11.4043   22.6420 C   0  0  0  0  0  0  0  0  0  0  0  0
  -24.4324  -29.2135   19.9803 N   0  0  0  0  0  0  0  0  0  0  0  0
  -28.8060  -22.7796   19.2064 N   0  0  0  0  0  0  0  0  0  0  0  0
  -25.7391  -29.3901   20.2400 N   0  0  0  0  0  0  0  0  0  0  0  0
  -25.1530  -13.6123   21.8527 N   0  0  0  0  0  0  0  0  0  0  0  0
  -27.2850  -26.7624   17.9403 N   0  0  0  0  0  0  0  0  0  0  0  0
  -29.8162  -20.6774   19.6384 N   0  0  0  0  0  0  0  0  0  0  0  0
  -27.2418  -30.4643   21.7228 N   0  0  0  0  0  0  0  0  0  0  0  0
  -23.1842  -31.6695   23.2974 N   0  0  0  0  0  0  0  0  0  0  0  0
  -27.4582  -24.8269   19.2770 N   0  0  0  0  0  0  0  0  0  0  0  0
  -27.0825  -20.8164   23.1640 N   0  0  0  0  0  0  0  0  0  0  0  0
  -22.5552  -11.4762   22.0938 N   0  0  0  0  0  0  0  0  0  0  0  0
  -28.3676  -13.1627   20.8922 N   0  0  0  0  0  0  0  0  0  0  0  0
  -29.9425  -16.0124   19.3217 N   0  3  0  0  0  0  0  0  0  0  0  0
  -25.4448  -31.8948   23.6099 O   0  0  0  0  0  0  0  0  0  0  0  0
  -28.6833  -19.5270   22.0696 O   0  0  0  0  0  0  0  0  0  0  0  0
  -22.9960  -13.1380   23.6643 O   0  0  0  0  0  0  0  0  0  0  0  0
  -25.8463  -11.8699   20.4672 O   0  0  0  0  0  0  0  0  0  0  0  0
  -27.3061  -18.8531   24.4103 O   0  0  0  0  0  0  0  0  0  0  0  0
  -28.9328  -15.2103   21.8224 O   0  0  0  0  0  0  0  0  0  0  0  0
  -28.7443  -25.0656   17.3611 O   0  0  0  0  0  0  0  0  0  0  0  0
  -18.2529  -30.1671   21.1855 O   0  0  0  0  0  0  0  0  0  0  0  0
  -24.1557  -18.7075   25.1839 O   0  0  0  0  0  0  0  0  0  1  0  0
  -15.8830  -29.5389   26.1244 F   0  0  0  0  0  0  0  0  0  0  0  0
  -16.4717  -28.1049   21.6520 F   0  0  0  0  0  0  0  0  0  0  0  0
  -27.1718  -23.0078   21.1963 S   0  0  0  0  0  0  0  0  0  0  0  0
  1  2  1  0  0  0  0
  1  5  2  0  0  0  0
  2  6  2  0  0  0  0
  3  8  2  0  0  0  0
  3 15  1  0  0  0  0
  4  9  1  0  0  0  0
  4 15  2  0  0  0  0
  5 17  1  0  0  0  0
  6 19  1  0  0  0  0
  7 10  2  0  0  0  0
  7 18  1  0  0  0  0
  8 21  1  0  0  0  0
  9 21  2  0  0  0  0
 10 22  1  0  0  0  0
 11 12  2  0  0  0  0
 11 23  1  0  0  0  0
 12 24  1  0  0  0  0
 13 20  1  0  0  0  0
 13 22  2  0  0  0  0
 14 24  2  0  0  0  0
 14 25  1  0  0  0  0
 15 26  1  0  0  0  0
 16 26  1  0  0  0  0
 16 29  2  0  0  0  0
 16 31  1  0  0  0  0
 17 19  2  0  0  0  0
 17 38  1  0  0  0  0
 18 20  2  0  0  0  0
 18 39  1  0  0  0  0
 19 47  1  0  0  0  0
 20 40  1  0  0  0  0
 21 81  1  0  0  0  0
 22 82  1  0  0  0  0
 23 25  2  0  0  0  0
 23 81  1  0  0  0  0
 24 83  1  0  0  0  0
 25 84  1  0  0  0  0
 26 61  2  0  0  0  0
 27 28  2  0  0  0  0
 27 32  1  0  0  0  0
 27 85  1  0  0  0  0
 28 62  1  0  0  0  0
 28 66  1  0  0  0  0
 29 63  1  0  0  0  0
 29 67  1  0  0  0  0
 30 62  2  0  0  0  0
 30 69  1  0  0  0  0
 30 85  1  0  0  0  0
 31 68  1  0  0  0  0
 31 74  2  0  0  0  0
 32 70  1  0  0  0  0
 32 75  2  0  0  0  0
 33 48  1  0  0  0  0
 33 71  1  0  0  0  0
 33 76  2  0  0  0  0
 34 57  1  0  0  0  0
 34 64  1  0  0  0  0
 34 77  2  0  0  0  0
 35 56  1  0  0  0  0
 35 70  1  0  0  0  0
 35 78  2  0  0  0  0
 36 58  1  0  0  0  0
 36 72  1  0  0  0  0
 36 79  2  0  0  0  0
 37 65  1  0  0  0  0
 37 69  1  0  0  0  0
 37 80  2  0  0  0  0
 38 41  1  0  0  0  0
 39 48  1  0  0  0  0
 40 64  1  0  0  0  0
 41 43  1  0  0  0  0
 42 44  1  0  0  0  0
 42 45  1  0  0  0  0
 43 47  1  0  0  0  0
 44 49  1  0  0  0  0
 45 65  1  0  0  0  0
 46 49  1  0  0  0  0
 46 65  1  0  0  0  0
 47 71  1  0  0  0  0
 48 64  1  0  0  0  0
 49 63  1  0  0  0  0
 50 58  1  0  0  0  0
 51 59  1  0  0  0  0
 52 60  1  0  0  0  0
 53 60  1  0  0  0  0
 54 60  1  0  0  0  0
 55 73  1  0  0  0  0
 56 59  1  0  0  0  0
 57 60  1  0  0  0  0
 57 72  1  0  0  0  0
 58 73  1  0  0  0  0
 59 82  1  0  0  0  0
 61 63  1  0  0  0  0
M  CHG  1  73   1
M  ISO  4  37 100  59 101  69 100  82 101
M  END
> <Batch ID>
0180

> <Smiles>
CNC(C)C(=O)NC(C(=O)N1Cc2cc([101O:1][101CH:1](C)CC(=O)NC(=O)c3sc([100NH:0][100C:0](=O)N4CCCC(n5nc(-c6ccc(Oc7ccc(F)cc7F)cc6)c(C(N)=O)c5N)C4)nc3N)ccc2CC1C(=O)NC1CCCc2ccccc21)C(C)(C)C

> <Shape>
0.237

> <Color>
0.071

> <Negative vol penalty>
0.000

$$$$

  -OEChem-04052304503D

 85 93  0     1  0  0  0  0  0999 V2000
  -17.9028  -32.9229   24.1787 C   0  0  0  0  0  0  0  0  0  0  0  0
  -19.0333  -33.1740   23.4077 C   0  0  0  0  0  0  0  0  0  0  0  0
  -26.5271  -12.2624   20.3912 C   0  0  0  0  0  0  0  0  0  0  0  0
  -24.9064  -13.8397   19.5412 C   0  0  0  0  0  0  0  0  0  0  0  0
  -17.8396  -31.7753   24.9679 C   0  0  0  0  0  0  0  0  0  0  0  0
  -20.1016  -32.2781   23.4264 C   0  0  0  0  0  0  0  0  0  0  0  0
  -25.2511  -29.6417   19.2015 C   0  0  0  0  0  0  0  0  0  0  0  0
  -25.5110  -11.5775   21.0577 C   0  0  0  0  0  0  0  0  0  0  0  0
  -23.8903  -13.1549   20.2076 C   0  0  0  0  0  0  0  0  0  0  0  0
  -26.6322  -29.4532   19.1764 C   0  0  0  0  0  0  0  0  0  0  0  0
  -23.2933   -9.2037   22.6893 C   0  0  0  0  0  0  0  0  0  0  0  0
  -23.2861   -7.8115   22.6047 C   0  0  0  0  0  0  0  0  0  0  0  0
  -26.4318  -22.9969   17.9071 C   0  0  0  0  0  0  0  0  0  0  0  0
  -26.9025  -21.7526   18.3114 C   0  0  0  0  0  0  0  0  0  0  0  0
  -26.3789  -27.4634   20.5165 C   0  0  0  0  0  0  0  0  0  0  0  0
  -23.0776   -7.9585   20.2022 C   0  0  0  0  0  0  0  0  0  0  0  0
  -26.2248  -13.3936   19.6330 C   0  0  0  0  0  0  0  0  0  0  0  0
  -27.7374  -13.8725   17.6355 C   0  0  0  0  0  0  0  0  0  0  0  0
  -18.9037  -30.8599   24.9888 C   0  0  0  0  0  0  0  0  0  0  0  0
  -24.4231  -28.7471   19.8947 C   0  0  0  0  0  0  0  0  0  0  0  0
  -20.0531  -31.1178   24.2176 C   0  0  0  0  0  0  0  0  0  0  0  0
  -24.9873  -27.6415   20.5468 C   0  0  0  0  0  0  0  0  0  0  0  0
  -24.1926  -12.0237   20.9658 C   0  0  0  0  0  0  0  0  0  0  0  0
  -27.1966  -28.3655   19.8363 C   0  0  0  0  0  0  0  0  0  0  0  0
  -23.1927   -9.9734   21.5303 C   0  0  0  0  0  0  0  0  0  0  0  0
  -23.1782   -7.1889   21.3612 C   0  0  0  0  0  0  0  0  0  0  0  0
  -27.2151  -24.1284   18.1057 C   0  0  0  0  0  0  0  0  0  0  0  0
  -23.0849   -9.3508   20.2868 C   0  0  0  0  0  0  0  0  0  0  0  0
  -27.2741  -14.1018   18.9449 C   0  0  0  0  0  0  0  0  0  0  0  0
  -28.1532  -21.6938   18.9048 C   0  0  0  0  0  0  0  0  0  0  0  0
  -28.4517  -23.9633   18.7084 C   0  0  0  0  0  0  0  0  0  0  0  0
  -28.7337  -14.8008   17.4563 C   0  0  0  0  0  0  0  0  0  0  0  0
  -27.3057  -12.9068   16.6676 C   0  0  0  0  0  0  0  0  0  0  0  0
  -22.4311  -28.9852   22.3603 C   0  0  0  0  0  0  0  0  0  0  0  0
  -21.7477  -25.9054   21.6050 C   0  0  0  0  0  0  0  0  0  0  0  0
  -30.5097  -25.1903   19.4840 C   0  0  0  0  0  0  0  0  0  0  0  0
  -22.7480  -22.9924   20.1351 C   0  0  0  0  0  0  0  0  0  0  0  0
  -29.8418  -20.1279   19.9260 C   0  0  0  0  0  0  0  0  0  0  0  0
  -18.8091  -29.6573   25.8940 C   0  0  0  0  0  0  0  0  0  0  0  0
  -22.9326  -28.9497   19.8898 C   0  0  0  0  0  0  0  0  0  0  0  0
  -24.1403  -26.6408   21.2882 C   0  0  0  0  0  0  0  0  0  0  0  0
  -19.8287  -28.5687   25.5690 C   0  0  0  0  0  0  0  0  0  0  0  0
  -32.0062  -17.3009   19.9005 C   0  0  0  0  0  0  0  0  0  0  0  0
  -21.2137  -29.1765   25.3708 C   0  0  0  0  0  0  0  0  0  0  0  0
  -31.0817  -16.1398   19.5274 C   0  0  0  0  0  0  0  0  0  0  0  0
  -31.3047  -18.3185   20.7983 C   0  0  0  0  0  0  0  0  0  0  0  0
  -29.1025  -17.6644   19.9087 C   0  0  0  0  0  0  0  0  0  0  0  0
  -21.2222  -30.1573   24.1921 C   0  0  1  0  0  0  0  0  0  0  0  0
  -22.2324  -28.2624   21.0581 C   0  0  1  0  0  0  0  0  0  0  0  0
  -29.7446  -16.6466   18.9520 C   0  0  2  0  0  0  0  0  0  0  0  0
  -22.5813  -20.6398   19.2779 C   0  0  0  0  0  0  0  0  0  0  0  0
  -28.8118  -28.3465   22.1925 C   0  0  0  0  0  0  0  0  0  0  0  0
  -22.3530  -25.1902   24.5088 C   0  0  0  0  0  0  0  0  0  0  0  0
  -22.5123  -22.7909   23.8117 C   0  0  0  0  0  0  0  0  0  0  0  0
  -20.3623  -24.0264   23.5409 C   0  0  0  0  0  0  0  0  0  0  0  0
  -21.7241  -23.8980   17.5101 C   0  0  0  0  0  0  0  0  0  0  0  0
  -31.0211  -26.6257   19.4769 C   0  0  0  0  0  0  0  0  0  0  0  0
  -30.6443  -27.4215   20.7295 C   0  0  0  0  0  0  0  0  0  0  0  0
  -22.2994  -24.5586   22.0059 C   0  0  1  0  0  0  0  0  0  0  0  0
  -22.0429  -22.0578   19.1687 C   0  0  2  0  0  0  0  0  0  0  0  0
  -29.1299  -27.5339   20.9439 C   0  0  2  0  0  0  0  0  0  1  0  0
  -21.8982  -24.1613   23.4546 C   0  0  0  0  0  0  0  0  0  0  0  0
  -27.9228  -15.0976   19.5544 N   0  0  0  0  0  0  0  0  0  0  0  0
  -28.9428  -22.7709   19.1145 N   0  0  0  0  0  0  0  0  0  0  0  0
  -28.8040  -15.5022   18.6239 N   0  0  0  0  0  0  0  0  0  0  0  0
  -22.6888  -26.8858   21.2598 N   0  0  0  0  0  0  0  0  0  0  0  0
  -30.0481  -18.7567   20.1871 N   0  0  0  0  0  0  0  0  0  0  0  0
  -29.5477  -15.0774   16.4155 N   0  0  0  0  0  0  0  0  0  0  0  0
  -26.2700  -12.0290   17.0156 N   0  0  0  0  0  0  0  0  0  0  0  0
  -29.2445  -25.1186   18.9078 N   0  0  0  0  0  0  0  0  0  0  0  0
  -28.6240  -20.4213   19.3133 N   0  0  0  0  0  0  0  0  0  0  0  0
  -21.2598  -29.4383   22.9367 N   0  0  0  0  0  0  0  0  0  0  0  0
  -21.8579  -23.6159   20.9838 N   0  0  0  0  0  0  0  0  0  0  0  0
  -22.2307  -22.5251   17.7661 N   0  3  0  0  0  0  0  0  0  0  0  0
  -27.8343  -12.8138   15.5338 O   0  0  0  0  0  0  0  0  0  0  0  0
  -23.5632  -29.1203   22.8097 O   0  0  0  0  0  0  0  0  0  0  0  0
  -20.5265  -26.0790   21.5914 O   0  0  0  0  0  0  0  0  0  0  0  0
  -31.1778  -24.2627   19.9288 O   0  0  0  0  0  0  0  0  0  0  0  0
  -23.9668  -23.1505   20.1393 O   0  0  0  0  0  0  0  0  0  0  0  0
  -30.6950  -20.9761   20.1993 O   0  0  0  0  0  0  0  0  0  0  0  0
  -23.2009  -11.3555   21.6158 O   0  0  0  0  0  0  0  0  0  0  0  0
  -28.5445  -28.1795   19.8139 O   0  0  0  0  0  0  0  0  0  1  0  0
  -23.1728   -5.8519   21.2800 F   0  0  0  0  0  0  0  0  0  0  0  0
  -26.7744  -25.3333   17.7214 F   0  0  0  0  0  0  0  0  0  0  0  0
  -22.9891  -10.0849   19.1697 F   0  0  0  0  0  0  0  0  0  0  0  0
  1  2  1  0  0  0  0
  1  5  2  0  0  0  0
  2  6  2  0  0  0  0
  3  8  2  0  0  0  0
  3 17  1  0  0  0  0
  4  9  1  0  0  0  0
  4 17  2  0  0  0  0
  5 19  1  0  0  0  0
  6 21  1  0  0  0  0
  7 10  2  0  0  0  0
  7 20  1  0  0  0  0
  8 23  1  0  0  0  0
  9 23  2  0  0  0  0
 10 24  1  0  0  0  0
 11 12  2  0  0  0  0
 11 25  1  0  0  0  0
 12 26  1  0  0  0  0
 13 14  2  0  0  0  0
 13 27  1  0  0  0  0
 14 30  1  0  0  0  0
 15 22  1  0  0  0  0
 15 24  2  0  0  0  0
 16 26  2  0  0  0  0
 16 28  1  0  0  0  0
 17 29  1  0  0  0  0
 18 29  1  0  0  0  0
 18 32  2  0  0  0  0
 18 33  1  0  0  0  0
 19 21  2  0  0  0  0
 19 39  1  0  0  0  0
 20 22  2  0  0  0  0
 20 40  1  0  0  0  0
 21 48  1  0  0  0  0
 22 41  1  0  0  0  0
 23 81  1  0  0  0  0
 24 82  1  0  0  0  0
 25 28  2  0  0  0  0
 25 81  1  0  0  0  0
 26 83  1  0  0  0  0
 27 31  2  0  0  0  0
 27 84  1  0  0  0  0
 28 85  1  0  0  0  0
 29 63  2  0  0  0  0
 30 64  2  0  0  0  0
 30 71  1  0  0  0  0
 31 64  1  0  0  0  0
 31 70  1  0  0  0  0
 32 65  1  0  0  0  0
 32 68  1  0  0  0  0
 33 69  1  0  0  0  0
 33 75  2  0  0  0  0
 34 49  1  0  0  0  0
 34 72  1  0  0  0  0
 34 76  2  0  0  0  0
 35 59  1  0  0  0  0
 35 66  1  0  0  0  0
 35 77  2  0  0  0  0
 36 57  1  0  0  0  0
 36 70  1  0  0  0  0
 36 78  2  0  0  0  0
 37 60  1  0  0  0  0
 37 73  1  0  0  0  0
 37 79  2  0  0  0  0
 38 67  1  0  0  0  0
 38 71  1  0  0  0  0
 38 80  2  0  0  0  0
 39 42  1  0  0  0  0
 40 49  1  0  0  0  0
 41 66  1  0  0  0  0
 42 44  1  0  0  0  0
 43 45  1  0  0  0  0
 43 46  1  0  0  0  0
 44 48  1  0  0  0  0
 45 50  1  0  0  0  0
 46 67  1  0  0  0  0
 47 50  1  0  0  0  0
 47 67  1  0  0  0  0
 48 72  1  0  0  0  0
 49 66  1  0  0  0  0
 50 65  1  0  0  0  0
 51 60  1  0  0  0  0
 52 61  1  0  0  0  0
 53 62  1  0  0  0  0
 54 62  1  0  0  0  0
 55 62  1  0  0  0  0
 56 74  1  0  0  0  0
 57 58  1  0  0  0  0
 58 61  1  0  0  0  0
 59 62  1  0  0  0  0
 59 73  1  0  0  0  0
 60 74  1  0  0  0  0
 61 82  1  0  0  0  0
 63 65  1  0  0  0  0
M  CHG  1  74   1
M  ISO  4  38 100  61 101  71 100  82 101
M  END
> <Batch ID>
0180

> <Smiles>
CNC(C)C(=O)NC(C(=O)N1Cc2cc([101O:1][101CH:1](C)CCC(=O)Nc3nc([100NH:0][100C:0](=O)N4CCCC(n5nc(-c6ccc(Oc7ccc(F)cc7F)cc6)c(C(N)=O)c5N)C4)ccc3F)ccc2CC1C(=O)NC1CCCc2ccccc21)C(C)(C)C

> <Shape>
0.257

> <Color>
0.098

> <Negative vol penalty>
0.000

$$$$

  -OEChem-04052304503D

 86 94  0     1  0  0  0  0  0999 V2000
  -21.7717  -20.3464   11.9125 C   0  0  0  0  0  0  0  0  0  0  0  0
  -21.8353  -21.3198   12.9044 C   0  0  0  0  0  0  0  0  0  0  0  0
  -29.1765  -17.5880   19.2349 C   0  0  0  0  0  0  0  0  0  0  0  0
  -30.4100  -18.0397   21.2626 C   0  0  0  0  0  0  0  0  0  0  0  0
  -21.0442  -19.1772   12.1305 C   0  0  0  0  0  0  0  0  0  0  0  0
  -21.1703  -21.1250   14.1145 C   0  0  0  0  0  0  0  0  0  0  0  0
  -22.9968  -22.9776   19.6587 C   0  0  0  0  0  0  0  0  0  0  0  0
  -29.6968  -16.2942   19.2066 C   0  0  0  0  0  0  0  0  0  0  0  0
  -30.9303  -16.7458   21.2343 C   0  0  0  0  0  0  0  0  0  0  0  0
  -22.6536  -24.0806   20.4393 C   0  0  0  0  0  0  0  0  0  0  0  0
  -30.4177  -12.7546   18.7984 C   0  0  0  0  0  0  0  0  0  0  0  0
  -29.5376  -11.7076   18.5252 C   0  0  0  0  0  0  0  0  0  0  0  0
  -21.0386  -22.7339   21.6214 C   0  0  0  0  0  0  0  0  0  0  0  0
  -28.2361  -12.2931   20.4747 C   0  0  0  0  0  0  0  0  0  0  0  0
  -29.5332  -18.4608   20.2629 C   0  0  0  0  0  0  0  0  0  0  0  0
  -27.8103  -20.2239   20.9194 C   0  0  0  0  0  0  0  0  0  0  0  0
  -20.3779  -18.9637   13.3475 C   0  0  0  0  0  0  0  0  0  0  0  0
  -22.3547  -21.7452   19.8465 C   0  0  0  0  0  0  0  0  0  0  0  0
  -20.4321  -19.9525   14.3484 C   0  0  0  0  0  0  0  0  0  0  0  0
  -21.3773  -21.6161   20.8436 C   0  0  0  0  0  0  0  0  0  0  0  0
  -30.5737  -15.8730   20.2063 C   0  0  0  0  0  0  0  0  0  0  0  0
  -21.6723  -23.9596   21.4189 C   0  0  0  0  0  0  0  0  0  0  0  0
  -30.2071  -13.5709   19.9097 C   0  0  0  0  0  0  0  0  0  0  0  0
  -28.4468  -11.4768   19.3633 C   0  0  0  0  0  0  0  0  0  0  0  0
  -29.1163  -13.3401   20.7478 C   0  0  0  0  0  0  0  0  0  0  0  0
  -28.9965  -19.7977   20.2925 C   0  0  0  0  0  0  0  0  0  0  0  0
  -26.7747  -29.1380   22.8357 C   0  0  0  0  0  0  0  0  0  0  0  0
  -27.9011  -29.7786   22.3635 C   0  0  0  0  0  0  0  0  0  0  0  0
  -27.7486  -21.5709   20.6579 C   0  0  0  0  0  0  0  0  0  0  0  0
  -28.3368  -27.7594   21.6267 C   0  0  0  0  0  0  0  0  0  0  0  0
  -24.3214  -29.4999   22.8685 C   0  0  0  0  0  0  0  0  0  0  0  0
  -26.8501  -19.4697   21.6710 C   0  0  0  0  0  0  0  0  0  0  0  0
  -20.5350  -19.8657   18.0409 C   0  0  0  0  0  0  0  0  0  0  0  0
  -22.2177  -28.6382   22.6316 C   0  0  0  0  0  0  0  0  0  0  0  0
  -20.7928  -17.8465   20.5666 C   0  0  0  0  0  0  0  0  0  0  0  0
  -21.3620  -17.4434   23.9073 C   0  0  0  0  0  0  0  0  0  0  0  0
  -30.1493  -26.5841   20.3306 C   0  0  0  0  0  0  0  0  0  0  0  0
  -19.5651  -17.7049   13.5190 C   0  0  0  0  0  0  0  0  0  0  0  0
  -22.7552  -20.5580   19.0143 C   0  0  0  0  0  0  0  0  0  0  0  0
  -20.6724  -20.3098   21.0988 C   0  0  0  0  0  0  0  0  0  0  0  0
  -19.1983  -17.4099   14.9711 C   0  0  0  0  0  0  0  0  0  0  0  0
  -30.4749  -24.4426   17.5048 C   0  0  0  0  0  0  0  0  0  0  0  0
  -18.6749  -18.6684   15.6559 C   0  0  0  0  0  0  0  0  0  0  0  0
  -30.0217  -23.0783   18.0297 C   0  0  0  0  0  0  0  0  0  0  0  0
  -31.2487  -25.2284   18.5619 C   0  0  0  0  0  0  0  0  0  0  0  0
  -30.1089  -24.0127   20.3763 C   0  0  0  0  0  0  0  0  0  0  0  0
  -19.7447  -19.7668   15.6838 C   0  0  1  0  0  0  0  0  0  0  0  0
  -21.6733  -19.4847   18.9447 C   0  0  1  0  0  0  0  0  0  0  0  0
  -29.2692  -23.2111   19.3683 C   0  0  2  0  0  0  0  0  0  0  0  0
  -21.4693  -15.6789   25.6884 C   0  0  0  0  0  0  0  0  0  0  0  0
  -17.7455  -17.6926   20.5944 C   0  0  0  0  0  0  0  0  0  0  0  0
  -17.8848  -16.7291   22.9010 C   0  0  0  0  0  0  0  0  0  0  0  0
  -18.9039  -15.5096   20.9783 C   0  0  0  0  0  0  0  0  0  0  0  0
  -24.1977  -18.0491   24.4993 C   0  0  0  0  0  0  0  0  0  0  0  0
  -25.6116  -29.6840   23.6182 C   0  0  0  0  0  0  0  0  0  0  0  0
  -22.0266  -26.2562   21.9248 C   0  0  0  0  0  0  0  0  0  1  0  0
  -20.0082  -17.6162   21.8356 C   0  0  1  0  0  0  0  0  0  0  0  0
  -22.2590  -16.4833   24.6676 C   0  0  2  0  0  0  0  0  0  0  0  0
  -21.5232  -27.3180   22.8859 C   0  0  0  0  0  0  0  0  0  0  0  0
  -18.6473  -16.9121   21.5715 C   0  0  0  0  0  0  0  0  0  0  0  0
  -29.6418  -20.7932   19.6788 N   0  0  0  0  0  0  0  0  0  0  0  0
  -28.7982  -28.9896   21.6703 N   0  0  0  0  0  0  0  0  0  0  0  0
  -23.3717  -28.7838   23.3710 N   0  0  0  0  0  0  0  0  0  0  0  0
  -28.8582  -21.8583   19.9188 N   0  0  0  0  0  0  0  0  0  0  0  0
  -21.0947  -19.1797   20.2548 N   0  0  0  0  0  0  0  0  0  0  0  0
  -30.4727  -25.3170   19.8007 N   0  0  0  0  0  0  0  0  0  0  0  0
  -26.8539  -22.5255   20.9904 N   0  0  0  0  0  0  0  0  0  0  0  0
  -27.0670  -18.0959   21.8441 N   0  0  0  0  0  0  0  0  0  0  0  0
  -28.9363  -26.6295   21.0170 N   0  0  0  0  0  0  0  0  0  0  0  0
  -20.7174  -19.4987   16.7213 N   0  0  0  0  0  0  0  0  0  0  0  0
  -20.8938  -16.8861   22.7362 N   0  0  0  0  0  0  0  0  0  0  0  0
  -23.3289  -17.2324   25.3853 N   0  3  0  0  0  0  0  0  0  0  0  0
  -25.8215  -19.9952   22.1602 O   0  0  0  0  0  0  0  0  0  0  0  0
  -19.5627  -20.4481   18.5067 O   0  0  0  0  0  0  0  0  0  0  0  0
  -21.7586  -29.4381   21.8177 O   0  0  0  0  0  0  0  0  0  0  0  0
  -21.1316  -16.8786   19.8810 O   0  0  0  0  0  0  0  0  0  0  0  0
  -21.0996  -18.5733   24.3136 O   0  0  0  0  0  0  0  0  0  0  0  0
  -30.8805  -27.5635   20.1628 O   0  0  0  0  0  0  0  0  0  0  0  0
  -31.0814  -14.6105   20.1791 O   0  0  0  0  0  0  0  0  0  0  0  0
  -21.3350  -25.0348   22.1818 O   0  0  0  0  0  0  0  0  0  1  0  0
  -27.6008  -10.4722   19.1001 F   0  0  0  0  0  0  0  0  0  0  0  0
  -28.9081  -14.1217   21.8163 F   0  0  0  0  0  0  0  0  0  0  0  0
  -28.1185  -31.0832   22.5627 F   0  0  0  0  0  0  0  0  0  0  0  0
  -20.1774  -27.4486   22.7338 F   0  0  0  0  0  0  0  0  0  0  0  0
  -21.7239  -26.8943   24.1629 F   0  0  0  0  0  0  0  0  0  0  0  0
  -26.8295  -27.4806   22.3982 S   0  0  0  0  0  0  0  0  0  0  0  0
  1  2  1  0  0  0  0
  1  5  2  0  0  0  0
  2  6  2  0  0  0  0
  3  8  2  0  0  0  0
  3 15  1  0  0  0  0
  4  9  1  0  0  0  0
  4 15  2  0  0  0  0
  5 17  1  0  0  0  0
  6 19  1  0  0  0  0
  7 10  2  0  0  0  0
  7 18  1  0  0  0  0
  8 21  1  0  0  0  0
  9 21  2  0  0  0  0
 10 22  1  0  0  0  0
 11 12  2  0  0  0  0
 11 23  1  0  0  0  0
 12 24  1  0  0  0  0
 13 20  1  0  0  0  0
 13 22  2  0  0  0  0
 14 24  2  0  0  0  0
 14 25  1  0  0  0  0
 15 26  1  0  0  0  0
 16 26  1  0  0  0  0
 16 29  2  0  0  0  0
 16 32  1  0  0  0  0
 17 19  2  0  0  0  0
 17 38  1  0  0  0  0
 18 20  2  0  0  0  0
 18 39  1  0  0  0  0
 19 47  1  0  0  0  0
 20 40  1  0  0  0  0
 21 79  1  0  0  0  0
 22 80  1  0  0  0  0
 23 25  2  0  0  0  0
 23 79  1  0  0  0  0
 24 81  1  0  0  0  0
 25 82  1  0  0  0  0
 26 61  2  0  0  0  0
 27 28  2  0  0  0  0
 27 55  1  0  0  0  0
 27 86  1  0  0  0  0
 28 62  1  0  0  0  0
 28 83  1  0  0  0  0
 29 64  1  0  0  0  0
 29 67  1  0  0  0  0
 30 62  2  0  0  0  0
 30 69  1  0  0  0  0
 30 86  1  0  0  0  0
 31 55  1  0  0  0  0
 31 63  2  0  0  0  0
 32 68  1  0  0  0  0
 32 73  2  0  0  0  0
 33 48  1  0  0  0  0
 33 70  1  0  0  0  0
 33 74  2  0  0  0  0
 34 59  1  0  0  0  0
 34 63  1  0  0  0  0
 34 75  2  0  0  0  0
 35 57  1  0  0  0  0
 35 65  1  0  0  0  0
 35 76  2  0  0  0  0
 36 58  1  0  0  0  0
 36 71  1  0  0  0  0
 36 77  2  0  0  0  0
 37 66  1  0  0  0  0
 37 69  1  0  0  0  0
 37 78  2  0  0  0  0
 38 41  1  0  0  0  0
 39 48  1  0  0  0  0
 40 65  1  0  0  0  0
 41 43  1  0  0  0  0
 42 44  1  0  0  0  0
 42 45  1  0  0  0  0
 43 47  1  0  0  0  0
 44 49  1  0  0  0  0
 45 66  1  0  0  0  0
 46 49  1  0  0  0  0
 46 66  1  0  0  0  0
 47 70  1  0  0  0  0
 48 65  1  0  0  0  0
 49 64  1  0  0  0  0
 50 58  1  0  0  0  0
 51 60  1  0  0  0  0
 52 60  1  0  0  0  0
 53 60  1  0  0  0  0
 54 72  1  0  0  0  0
 56 59  1  0  0  0  0
 56 80  1  0  0  0  0
 57 60  1  0  0  0  0
 57 71  1  0  0  0  0
 58 72  1  0  0  0  0
 59 84  1  0  0  0  0
 59 85  1  0  0  0  0
 61 64  1  0  0  0  0
M  CHG  1  72   1
M  ISO  4  37 100  56 101  69 100  80 101
M  END
> <Batch ID>
0180

> <Smiles>
CNC(C)C(=O)NC(C(=O)N1Cc2cc([101O:1][101CH2:1]C(F)(F)C(=O)NC=Cc3sc([100NH:0][100C:0](=O)N4CCCC(n5nc(-c6ccc(Oc7ccc(F)cc7F)cc6)c(C(N)=O)c5N)C4)nc3F)ccc2CC1C(=O)NC1CCCc2ccccc21)C(C)(C)C

> <Shape>
0.218

> <Color>
0.059

> <Negative vol penalty>
0.000

$$$$

  -OEChem-04052304503D

 83 91  0     1  0  0  0  0  0999 V2000
  -45.2407  -20.4580   24.0302 C   0  0  0  0  0  0  0  0  0  0  0  0
  -43.8974  -20.5159   24.3875 C   0  0  0  0  0  0  0  0  0  0  0  0
  -22.9982   -9.8972   19.9863 C   0  0  0  0  0  0  0  0  0  0  0  0
  -23.7584   -9.9381   22.2792 C   0  0  0  0  0  0  0  0  0  0  0  0
  -45.6391  -20.8544   22.7543 C   0  0  0  0  0  0  0  0  0  0  0  0
  -42.9518  -20.9712   23.4694 C   0  0  0  0  0  0  0  0  0  0  0  0
  -38.8069  -18.0645   23.3459 C   0  0  0  0  0  0  0  0  0  0  0  0
  -22.2398   -8.7586   20.2580 C   0  0  0  0  0  0  0  0  0  0  0  0
  -22.9999   -8.7994   22.5510 C   0  0  0  0  0  0  0  0  0  0  0  0
  -37.8798  -18.2335   24.3735 C   0  0  0  0  0  0  0  0  0  0  0  0
  -23.2485   -5.4640   22.0568 C   0  0  0  0  0  0  0  0  0  0  0  0
  -23.8510   -4.4448   22.7942 C   0  0  0  0  0  0  0  0  0  0  0  0
  -36.5205  -19.5921   22.9155 C   0  0  0  0  0  0  0  0  0  0  0  0
  -22.1522   -4.6724   24.4969 C   0  0  0  0  0  0  0  0  0  0  0  0
  -23.7575  -10.4870   20.9969 C   0  0  0  0  0  0  0  0  0  0  0  0
  -24.1314  -13.0048   20.8290 C   0  0  0  0  0  0  0  0  0  0  0  0
  -44.6967  -21.3057   21.8168 C   0  0  0  0  0  0  0  0  0  0  0  0
  -38.6027  -18.6681   22.0967 C   0  0  0  0  0  0  0  0  0  0  0  0
  -43.3382  -21.3753   22.1801 C   0  0  0  0  0  0  0  0  0  0  0  0
  -37.4451  -19.4271   21.8730 C   0  0  0  0  0  0  0  0  0  0  0  0
  -22.2406   -8.2097   21.5403 C   0  0  0  0  0  0  0  0  0  0  0  0
  -36.7379  -18.9998   24.1593 C   0  0  0  0  0  0  0  0  0  0  0  0
  -22.0979   -6.0875   22.5395 C   0  0  0  0  0  0  0  0  0  0  0  0
  -23.3029   -4.0490   24.0142 C   0  0  0  0  0  0  0  0  0  0  0  0
  -21.5497   -5.6917   23.7595 C   0  0  0  0  0  0  0  0  0  0  0  0
  -24.5416  -11.6629   20.7167 C   0  0  0  0  0  0  0  0  0  0  0  0
  -31.0871  -16.7064   22.0133 C   0  0  0  0  0  0  0  0  0  0  0  0
  -25.2329  -13.7334   20.4517 C   0  0  0  0  0  0  0  0  0  0  0  0
  -31.4825  -17.7509   21.2043 C   0  0  0  0  0  0  0  0  0  0  0  0
  -32.4631  -17.6978   23.4039 C   0  0  0  0  0  0  0  0  0  0  0  0
  -22.8676  -13.5446   21.2379 C   0  0  0  0  0  0  0  0  0  0  0  0
  -40.1642  -20.8309   20.3684 C   0  0  0  0  0  0  0  0  0  0  0  0
  -30.7492  -14.6212   20.7195 C   0  0  0  0  0  0  0  0  0  0  0  0
  -37.9281  -20.0923   18.1377 C   0  0  0  0  0  0  0  0  0  0  0  0
  -34.8176  -18.8692   17.4477 C   0  0  0  0  0  0  0  0  0  0  0  0
  -33.3163  -17.3787   25.7535 C   0  0  0  0  0  0  0  0  0  0  0  0
  -45.1812  -21.7683   20.4655 C   0  0  0  0  0  0  0  0  0  0  0  0
  -39.5989  -18.4541   20.9903 C   0  0  0  0  0  0  0  0  0  0  0  0
  -37.1691  -20.0793   20.5437 C   0  0  0  0  0  0  0  0  0  0  0  0
  -44.0687  -21.8844   19.4266 C   0  0  0  0  0  0  0  0  0  0  0  0
  -29.5550  -12.2927   18.2717 C   0  0  0  0  0  0  0  0  0  0  0  0
  -42.8634  -22.6117   20.0141 C   0  0  0  0  0  0  0  0  0  0  0  0
  -28.1209  -12.0085   18.7162 C   0  0  0  0  0  0  0  0  0  0  0  0
  -30.4782  -12.5064   19.4672 C   0  0  0  0  0  0  0  0  0  0  0  0
  -28.5845  -13.2917   20.8524 C   0  0  0  0  0  0  0  0  0  0  0  0
  -42.2795  -21.8401   21.2038 C   0  0  1  0  0  0  0  0  0  0  0  0
  -39.5438  -19.5384   19.9187 C   0  0  1  0  0  0  0  0  0  0  0  0
  -27.6126  -13.1001   19.6747 C   0  0  2  0  0  0  0  0  0  0  0  0
  -33.2554  -18.4245   15.5348 C   0  0  0  0  0  0  0  0  0  0  0  0
  -37.3036  -23.0735   17.9577 C   0  0  0  0  0  0  0  0  0  0  0  0
  -35.1650  -22.4844   16.7969 C   0  0  0  0  0  0  0  0  0  0  0  0
  -37.3521  -21.8832   15.7588 C   0  0  0  0  0  0  0  0  0  0  0  0
  -34.7553  -15.9666   18.0217 C   0  0  0  0  0  0  0  0  0  0  0  0
  -30.1340  -15.6410   21.6445 C   0  0  0  0  0  0  0  0  0  0  0  0
  -35.7073  -18.1065   26.1076 C   0  0  0  0  0  0  0  0  0  1  0  0
  -36.5526  -20.6089   17.7907 C   0  0  1  0  0  0  0  0  0  0  0  0
  -34.3395  -17.8475   16.4319 C   0  0  2  0  0  0  0  0  0  0  0  0
  -34.2996  -18.0704   26.6933 C   0  0  2  0  0  0  0  0  0  0  0  0
  -36.5992  -22.0019   17.1018 C   0  0  0  0  0  0  0  0  0  0  0  0
  -25.8051  -11.5431   20.3004 N   0  0  0  0  0  0  0  0  0  0  0  0
  -31.6487  -16.6740   23.2749 N   0  0  0  0  0  0  0  0  0  0  0  0
  -26.1983  -12.8191   20.1478 N   0  0  0  0  0  0  0  0  0  0  0  0
  -38.1761  -19.8458   19.4954 N   0  0  0  0  0  0  0  0  0  0  0  0
  -29.9493  -13.5348   20.3649 N   0  0  0  0  0  0  0  0  0  0  0  0
  -25.4602  -15.0604   20.3534 N   0  0  0  0  0  0  0  0  0  0  0  0
  -21.8443  -12.6549   21.5922 N   0  0  0  0  0  0  0  0  0  0  0  0
  -33.2426  -18.0458   24.5328 N   0  0  0  0  0  0  0  0  0  0  0  0
  -41.4902  -20.7189   20.7407 N   0  0  0  0  0  0  0  0  0  0  0  0
  -35.9152  -19.5680   16.9915 N   0  0  0  0  0  0  0  0  0  0  0  0
  -33.7880  -16.6482   17.1236 N   0  3  0  0  0  0  0  0  0  0  0  0
  -22.6470  -14.7790   21.2718 O   0  0  0  0  0  0  0  0  0  0  0  0
  -39.4902  -21.8543   20.3756 O   0  0  0  0  0  0  0  0  0  0  0  0
  -31.9054  -14.7886   20.3226 O   0  0  0  0  0  0  0  0  0  0  0  0
  -38.7496  -19.9072   17.2363 O   0  0  0  0  0  0  0  0  0  0  0  0
  -34.2697  -19.0338   18.5355 O   0  0  0  0  0  0  0  0  0  0  0  0
  -32.7126  -16.3588   26.0731 O   0  0  0  0  0  0  0  0  0  0  0  0
  -21.5004   -7.0987   21.8059 O   0  0  0  0  0  0  0  0  0  0  0  0
  -35.8318  -19.1669   25.1608 O   0  0  0  0  0  0  0  0  0  1  0  0
  -23.8807   -3.0691   24.7215 F   0  0  0  0  0  0  0  0  0  0  0  0
  -20.4437   -6.2861   24.2278 F   0  0  0  0  0  0  0  0  0  0  0  0
  -31.0598  -17.9650   19.9557 F   0  0  0  0  0  0  0  0  0  0  0  0
  -32.6012  -18.7402   22.0476 S   0  0  0  0  0  0  0  0  0  0  0  0
  -34.2850  -17.2408   28.2731 Cl  0  0  0  0  0  0  0  0  0  0  0  0
  1  2  1  0  0  0  0
  1  5  2  0  0  0  0
  2  6  2  0  0  0  0
  3  8  2  0  0  0  0
  3 15  1  0  0  0  0
  4  9  1  0  0  0  0
  4 15  2  0  0  0  0
  5 17  1  0  0  0  0
  6 19  1  0  0  0  0
  7 10  2  0  0  0  0
  7 18  1  0  0  0  0
  8 21  1  0  0  0  0
  9 21  2  0  0  0  0
 10 22  1  0  0  0  0
 11 12  2  0  0  0  0
 11 23  1  0  0  0  0
 12 24  1  0  0  0  0
 13 20  1  0  0  0  0
 13 22  2  0  0  0  0
 14 24  2  0  0  0  0
 14 25  1  0  0  0  0
 15 26  1  0  0  0  0
 16 26  1  0  0  0  0
 16 28  2  0  0  0  0
 16 31  1  0  0  0  0
 17 19  2  0  0  0  0
 17 37  1  0  0  0  0
 18 20  2  0  0  0  0
 18 38  1  0  0  0  0
 19 46  1  0  0  0  0
 20 39  1  0  0  0  0
 21 77  1  0  0  0  0
 22 78  1  0  0  0  0
 23 25  2  0  0  0  0
 23 77  1  0  0  0  0
 24 79  1  0  0  0  0
 25 80  1  0  0  0  0
 26 60  2  0  0  0  0
 27 29  2  0  0  0  0
 27 54  1  0  0  0  0
 27 61  1  0  0  0  0
 28 62  1  0  0  0  0
 28 65  1  0  0  0  0
 29 81  1  0  0  0  0
 29 82  1  0  0  0  0
 30 61  2  0  0  0  0
 30 67  1  0  0  0  0
 30 82  1  0  0  0  0
 31 66  1  0  0  0  0
 31 71  2  0  0  0  0
 32 47  1  0  0  0  0
 32 68  1  0  0  0  0
 32 72  2  0  0  0  0
 33 54  1  0  0  0  0
 33 64  1  0  0  0  0
 33 73  2  0  0  0  0
 34 56  1  0  0  0  0
 34 63  1  0  0  0  0
 34 74  2  0  0  0  0
 35 57  1  0  0  0  0
 35 69  1  0  0  0  0
 35 75  2  0  0  0  0
 36 58  1  0  0  0  0
 36 67  1  0  0  0  0
 36 76  2  0  0  0  0
 37 40  1  0  0  0  0
 38 47  1  0  0  0  0
 39 63  1  0  0  0  0
 40 42  1  0  0  0  0
 41 43  1  0  0  0  0
 41 44  1  0  0  0  0
 42 46  1  0  0  0  0
 43 48  1  0  0  0  0
 44 64  1  0  0  0  0
 45 48  1  0  0  0  0
 45 64  1  0  0  0  0
 46 68  1  0  0  0  0
 47 63  1  0  0  0  0
 48 62  1  0  0  0  0
 49 57  1  0  0  0  0
 50 59  1  0  0  0  0
 51 59  1  0  0  0  0
 52 59  1  0  0  0  0
 53 70  1  0  0  0  0
 55 58  1  0  0  0  0
 55 78  1  0  0  0  0
 56 59  1  0  0  0  0
 56 69  1  0  0  0  0
 57 70  1  0  0  0  0
 58 83  1  0  0  0  0
 60 62  1  0  0  0  0
M  CHG  1  70   1
M  ISO  4  33 100  54 100  55 101  78 101
M  END
> <Batch ID>
0180

> <Smiles>
CNC(C)C(=O)NC(C(=O)N1Cc2cc([101O:1][101CH2:1]C(Cl)C(=O)Nc3nc([100CH2:0][100C:0](=O)N4CCCC(n5nc(-c6ccc(Oc7ccc(F)cc7F)cc6)c(C(N)=O)c5N)C4)c(F)s3)ccc2CC1C(=O)NC1CCCc2ccccc21)C(C)(C)C

> <Shape>
0.176

> <Color>
0.196

> <Negative vol penalty>
0.000

$$$$

  -OEChem-04052304503D

 84 92  0     1  0  0  0  0  0999 V2000
  -28.8156  -27.4684   33.1540 C   0  0  0  0  0  0  0  0  0  0  0  0
  -29.5368  -27.1253   32.0149 C   0  0  0  0  0  0  0  0  0  0  0  0
  -23.0545   -9.8684   19.9760 C   0  0  0  0  0  0  0  0  0  0  0  0
  -23.9054   -9.8788   22.2372 C   0  0  0  0  0  0  0  0  0  0  0  0
  -28.2905  -26.4692   33.9725 C   0  0  0  0  0  0  0  0  0  0  0  0
  -29.7343  -25.7827   31.6941 C   0  0  0  0  0  0  0  0  0  0  0  0
  -28.9486  -24.8222   26.7844 C   0  0  0  0  0  0  0  0  0  0  0  0
  -22.3327   -8.7073   20.2530 C   0  0  0  0  0  0  0  0  0  0  0  0
  -23.1836   -8.7178   22.5142 C   0  0  0  0  0  0  0  0  0  0  0  0
  -29.9631  -25.1762   25.8961 C   0  0  0  0  0  0  0  0  0  0  0  0
  -21.2812   -5.9585   23.9231 C   0  0  0  0  0  0  0  0  0  0  0  0
  -20.5729   -5.9052   25.1235 C   0  0  0  0  0  0  0  0  0  0  0  0
  -30.7103  -22.8831   25.8451 C   0  0  0  0  0  0  0  0  0  0  0  0
  -19.2808   -7.8312   24.4466 C   0  0  0  0  0  0  0  0  0  0  0  0
  -23.8409  -10.4541   20.9681 C   0  0  0  0  0  0  0  0  0  0  0  0
  -24.1524  -12.9828   20.8401 C   0  0  0  0  0  0  0  0  0  0  0  0
  -28.4735  -25.1137   33.6564 C   0  0  0  0  0  0  0  0  0  0  0  0
  -28.8138  -23.4958   27.2190 C   0  0  0  0  0  0  0  0  0  0  0  0
  -29.2123  -24.7644   32.5099 C   0  0  0  0  0  0  0  0  0  0  0  0
  -29.6916  -22.5144   26.7370 C   0  0  0  0  0  0  0  0  0  0  0  0
  -22.3973   -8.1321   21.5220 C   0  0  0  0  0  0  0  0  0  0  0  0
  -30.8460  -24.2072   25.4285 C   0  0  0  0  0  0  0  0  0  0  0  0
  -20.9894   -6.9482   22.9844 C   0  0  0  0  0  0  0  0  0  0  0  0
  -19.5727   -6.8415   25.3852 C   0  0  0  0  0  0  0  0  0  0  0  0
  -19.9892   -7.8845   23.2462 C   0  0  0  0  0  0  0  0  0  0  0  0
  -24.5871  -11.6531   20.6824 C   0  0  0  0  0  0  0  0  0  0  0  0
  -30.4312  -19.6550   21.3812 C   0  0  0  0  0  0  0  0  0  0  0  0
  -31.6631  -19.0513   21.2388 C   0  0  0  0  0  0  0  0  0  0  0  0
  -25.2217  -13.7438   20.4351 C   0  0  0  0  0  0  0  0  0  0  0  0
  -30.3941  -17.2954   20.8977 C   0  0  0  0  0  0  0  0  0  0  0  0
  -22.8947  -13.4850   21.3106 C   0  0  0  0  0  0  0  0  0  0  0  0
  -30.2040  -21.0839   21.6793 C   0  0  0  0  0  0  0  0  0  0  0  0
  -28.9739  -22.0308   30.0354 C   0  0  0  0  0  0  0  0  0  0  0  0
  -28.0237  -19.4532   28.3104 C   0  0  0  0  0  0  0  0  0  0  0  0
  -27.8453  -17.9046   25.2745 C   0  0  0  0  0  0  0  0  0  0  0  0
  -31.0837  -23.1225   22.7957 C   0  0  0  0  0  0  0  0  0  0  0  0
  -30.6798  -14.8438   20.3933 C   0  0  0  0  0  0  0  0  0  0  0  0
  -27.9274  -24.0689   34.5970 C   0  0  0  0  0  0  0  0  0  0  0  0
  -27.6976  -23.1252   28.1567 C   0  0  0  0  0  0  0  0  0  0  0  0
  -29.5771  -21.0726   27.1571 C   0  0  0  0  0  0  0  0  0  0  0  0
  -27.8617  -22.6723   33.9842 C   0  0  0  0  0  0  0  0  0  0  0  0
  -29.4955  -12.4234   18.0660 C   0  0  0  0  0  0  0  0  0  0  0  0
  -29.1671  -22.3417   33.2677 C   0  0  0  0  0  0  0  0  0  0  0  0
  -28.0772  -12.1166   18.5522 C   0  0  0  0  0  0  0  0  0  0  0  0
  -30.4557  -12.6591   19.2306 C   0  0  0  0  0  0  0  0  0  0  0  0
  -28.5985  -13.3618   20.6887 C   0  0  0  0  0  0  0  0  0  0  0  0
  -29.4267  -23.3193   32.1151 C   0  0  1  0  0  0  0  0  0  0  0  0
  -27.9710  -21.8405   28.9328 C   0  0  1  0  0  0  0  0  0  0  0  0
  -27.5810  -13.1811   19.5504 C   0  0  2  0  0  0  0  0  0  0  0  0
  -27.0460  -15.7895   24.1859 C   0  0  0  0  0  0  0  0  0  0  0  0
  -33.3608  -24.1430   22.7674 C   0  0  0  0  0  0  0  0  0  0  0  0
  -30.4281  -17.9605   29.4508 C   0  0  0  0  0  0  0  0  0  0  0  0
  -30.1299  -16.2465   27.6504 C   0  0  0  0  0  0  0  0  0  0  0  0
  -28.3243  -16.6135   29.3321 C   0  0  0  0  0  0  0  0  0  0  0  0
  -25.9603  -19.3769   23.5315 C   0  0  0  0  0  0  0  0  0  0  0  0
  -28.7293  -18.3581   27.5476 C   0  0  1  0  0  0  0  0  0  0  0  0
  -26.6944  -17.2215   24.5582 C   0  0  2  0  0  0  0  0  0  0  0  0
  -32.2658  -23.5515   23.6369 C   0  0  1  0  0  0  0  0  0  1  0  0
  -29.4065  -17.3221   28.4886 C   0  0  0  0  0  0  0  0  0  0  0  0
  -25.8351  -11.5707   20.2137 N   0  0  0  0  0  0  0  0  0  0  0  0
  -31.6438  -17.6983   20.9620 N   0  0  0  0  0  0  0  0  0  0  0  0
  -26.1938  -12.8582   20.0732 N   0  0  0  0  0  0  0  0  0  0  0  0
  -28.4733  -20.7612   28.0802 N   0  0  0  0  0  0  0  0  0  0  0  0
  -29.9221  -13.6827   20.1320 N   0  0  0  0  0  0  0  0  0  0  0  0
  -25.4157  -15.0775   20.3566 N   0  0  0  0  0  0  0  0  0  0  0  0
  -21.9062  -12.5651   21.6861 N   0  0  0  0  0  0  0  0  0  0  0  0
  -29.9184  -15.9863   20.6374 N   0  0  0  0  0  0  0  0  0  0  0  0
  -31.1267  -21.7323   22.4034 N   0  0  0  0  0  0  0  0  0  0  0  0
  -28.6085  -22.9801   30.9707 N   0  0  0  0  0  0  0  0  0  0  0  0
  -27.7374  -17.7857   26.6439 N   0  0  0  0  0  0  0  0  0  0  0  0
  -29.0905  -21.6460   21.2102 N   0  3  0  0  0  0  0  0  0  0  0  0
  -26.3490  -17.9601   23.3108 N   0  3  0  0  0  0  0  0  0  0  0  0
  -22.6487  -14.7131   21.3801 O   0  0  0  0  0  0  0  0  0  0  0  0
  -30.0024  -21.3645   30.0382 O   0  0  0  0  0  0  0  0  0  0  0  0
  -27.1026  -19.1597   29.0766 O   0  0  0  0  0  0  0  0  0  0  0  0
  -28.7517  -18.4825   24.6786 O   0  0  0  0  0  0  0  0  0  0  0  0
  -30.1517  -23.8485   22.4784 O   0  0  0  0  0  0  0  0  0  0  0  0
  -31.9133  -14.8320   20.3732 O   0  0  0  0  0  0  0  0  0  0  0  0
  -21.6929   -6.9993   21.7927 O   0  0  0  0  0  0  0  0  0  0  0  0
  -31.8375  -24.5501   24.5619 O   0  0  0  0  0  0  0  0  0  1  0  0
  -18.8915   -6.7892   26.5374 F   0  0  0  0  0  0  0  0  0  0  0  0
  -19.7035   -8.8369   22.3477 F   0  0  0  0  0  0  0  0  0  0  0  0
  -32.8118  -19.7265   21.3596 F   0  0  0  0  0  0  0  0  0  0  0  0
  -29.1913  -18.4911   21.1595 S   0  0  0  0  0  0  0  0  0  0  0  0
  1  2  1  0  0  0  0
  1  5  2  0  0  0  0
  2  6  2  0  0  0  0
  3  8  2  0  0  0  0
  3 15  1  0  0  0  0
  4  9  1  0  0  0  0
  4 15  2  0  0  0  0
  5 17  1  0  0  0  0
  6 19  1  0  0  0  0
  7 10  2  0  0  0  0
  7 18  1  0  0  0  0
  8 21  1  0  0  0  0
  9 21  2  0  0  0  0
 10 22  1  0  0  0  0
 11 12  2  0  0  0  0
 11 23  1  0  0  0  0
 12 24  1  0  0  0  0
 13 20  1  0  0  0  0
 13 22  2  0  0  0  0
 14 24  2  0  0  0  0
 14 25  1  0  0  0  0
 15 26  1  0  0  0  0
 16 26  1  0  0  0  0
 16 29  2  0  0  0  0
 16 31  1  0  0  0  0
 17 19  2  0  0  0  0
 17 38  1  0  0  0  0
 18 20  2  0  0  0  0
 18 39  1  0  0  0  0
 19 47  1  0  0  0  0
 20 40  1  0  0  0  0
 21 79  1  0  0  0  0
 22 80  1  0  0  0  0
 23 25  2  0  0  0  0
 23 79  1  0  0  0  0
 24 81  1  0  0  0  0
 25 82  1  0  0  0  0
 26 60  2  0  0  0  0
 27 28  2  0  0  0  0
 27 32  1  0  0  0  0
 27 84  1  0  0  0  0
 28 61  1  0  0  0  0
 28 83  1  0  0  0  0
 29 62  1  0  0  0  0
 29 65  1  0  0  0  0
 30 61  2  0  0  0  0
 30 67  1  0  0  0  0
 30 84  1  0  0  0  0
 31 66  1  0  0  0  0
 31 73  2  0  0  0  0
 32 68  1  0  0  0  0
 32 71  2  0  0  0  0
 33 48  1  0  0  0  0
 33 69  1  0  0  0  0
 33 74  2  0  0  0  0
 34 56  1  0  0  0  0
 34 63  1  0  0  0  0
 34 75  2  0  0  0  0
 35 57  1  0  0  0  0
 35 70  1  0  0  0  0
 35 76  2  0  0  0  0
 36 58  1  0  0  0  0
 36 68  1  0  0  0  0
 36 77  2  0  0  0  0
 37 64  1  0  0  0  0
 37 67  1  0  0  0  0
 37 78  2  0  0  0  0
 38 41  1  0  0  0  0
 39 48  1  0  0  0  0
 40 63  1  0  0  0  0
 41 43  1  0  0  0  0
 42 44  1  0  0  0  0
 42 45  1  0  0  0  0
 43 47  1  0  0  0  0
 44 49  1  0  0  0  0
 45 64  1  0  0  0  0
 46 49  1  0  0  0  0
 46 64  1  0  0  0  0
 47 69  1  0  0  0  0
 48 63  1  0  0  0  0
 49 62  1  0  0  0  0
 50 57  1  0  0  0  0
 51 58  1  0  0  0  0
 52 59  1  0  0  0  0
 53 59  1  0  0  0  0
 54 59  1  0  0  0  0
 55 72  1  0  0  0  0
 56 59  1  0  0  0  0
 56 70  1  0  0  0  0
 57 72  1  0  0  0  0
 58 80  1  0  0  0  0
 60 62  1  0  0  0  0
M  CHG  2  71   1  72   1
M  ISO  4  37 100  58 101  67 100  80 101
M  END
> <Batch ID>
0180

> <Smiles>
CNC(C)C(=O)NC(C(=O)N1Cc2cc([101O:1][101CH:1](C)C(=O)NC(=N)c3sc([100NH:0][100C:0](=O)N4CCCC(n5nc(-c6ccc(Oc7ccc(F)cc7F)cc6)c(C(N)=O)c5N)C4)nc3F)ccc2CC1C(=O)NC1CCCc2ccccc21)C(C)(C)C

> <Shape>
0.177

> <Color>
0.181

> <Negative vol penalty>
0.000

$$$$

  -OEChem-04052304503D

 85 93  0     1  0  0  0  0  0999 V2000
  -18.2911  -33.7450   18.0005 C   0  0  0  0  0  0  0  0  0  0  0  0
  -18.9704  -32.5827   17.6497 C   0  0  0  0  0  0  0  0  0  0  0  0
  -23.8469   -9.5895   21.3260 C   0  0  0  0  0  0  0  0  0  0  0  0
  -24.4471  -10.5945   23.4394 C   0  0  0  0  0  0  0  0  0  0  0  0
  -18.9605  -34.7660   18.6737 C   0  0  0  0  0  0  0  0  0  0  0  0
  -20.3199  -32.4413   17.9709 C   0  0  0  0  0  0  0  0  0  0  0  0
  -25.1307  -27.4591   19.8014 C   0  0  0  0  0  0  0  0  0  0  0  0
  -23.3594   -8.4684   21.9975 C   0  0  0  0  0  0  0  0  0  0  0  0
  -23.9596   -9.4734   24.1110 C   0  0  0  0  0  0  0  0  0  0  0  0
  -26.3884  -26.9877   19.4278 C   0  0  0  0  0  0  0  0  0  0  0  0
  -20.5745   -7.6063   23.7105 C   0  0  0  0  0  0  0  0  0  0  0  0
  -19.3411   -7.0948   23.3075 C   0  0  0  0  0  0  0  0  0  0  0  0
  -27.4217  -28.7844   20.6621 C   0  0  0  0  0  0  0  0  0  0  0  0
  -20.3907   -4.9855   22.7724 C   0  0  0  0  0  0  0  0  0  0  0  0
  -30.5538  -19.1487   19.9542 C   0  0  0  0  0  0  0  0  0  0  0  0
  -24.3908  -10.6526   22.0469 C   0  0  0  0  0  0  0  0  0  0  0  0
  -24.1790  -12.9716   21.0053 C   0  0  0  0  0  0  0  0  0  0  0  0
  -20.3165  -34.6331   19.0119 C   0  0  0  0  0  0  0  0  0  0  0  0
  -25.0085  -28.6049   20.6005 C   0  0  0  0  0  0  0  0  0  0  0  0
  -21.0085  -33.4621   18.6481 C   0  0  0  0  0  0  0  0  0  0  0  0
  -26.1613  -29.2668   21.0466 C   0  0  0  0  0  0  0  0  0  0  0  0
  -23.4157   -8.4103   23.3900 C   0  0  0  0  0  0  0  0  0  0  0  0
  -27.5341  -27.6520   19.8558 C   0  0  0  0  0  0  0  0  0  0  0  0
  -21.7161   -6.8075   23.6445 C   0  0  0  0  0  0  0  0  0  0  0  0
  -19.2491   -5.7844   22.8385 C   0  0  0  0  0  0  0  0  0  0  0  0
  -21.6242   -5.4971   23.1754 C   0  0  0  0  0  0  0  0  0  0  0  0
  -30.3237  -20.5464   20.1080 C   0  0  0  0  0  0  0  0  0  0  0  0
  -24.8951  -11.8107   21.3537 C   0  0  0  0  0  0  0  0  0  0  0  0
  -29.0987  -20.8092   20.6805 C   0  0  0  0  0  0  0  0  0  0  0  0
  -25.1008  -13.7650   20.3672 C   0  0  0  0  0  0  0  0  0  0  0  0
  -29.4958  -18.3964   20.4152 C   0  0  0  0  0  0  0  0  0  0  0  0
  -22.8036  -13.3031   21.2378 C   0  0  0  0  0  0  0  0  0  0  0  0
  -28.4851  -22.1223   21.0076 C   0  0  0  0  0  0  0  0  0  0  0  0
  -23.6991  -31.4762   20.2195 C   0  0  0  0  0  0  0  0  0  0  0  0
  -24.4834  -31.8192   23.3483 C   0  0  0  0  0  0  0  0  0  0  0  0
  -26.4685  -30.8731   25.9581 C   0  0  0  0  0  0  0  0  0  0  0  0
  -28.9182  -24.4137   20.8532 C   0  0  0  0  0  0  0  0  0  0  0  0
  -30.1855  -16.0066   20.0156 C   0  0  0  0  0  0  0  0  0  0  0  0
  -21.0097  -35.7835   19.6979 C   0  0  0  0  0  0  0  0  0  0  0  0
  -23.6452  -29.0851   21.0169 C   0  0  0  0  0  0  0  0  0  0  0  0
  -26.0849  -30.4895   21.9227 C   0  0  0  0  0  0  0  0  0  0  0  0
  -22.3437  -35.3994   20.3329 C   0  0  0  0  0  0  0  0  0  0  0  0
  -29.7705  -12.7166   18.7192 C   0  0  0  0  0  0  0  0  0  0  0  0
  -23.1783  -34.5705   19.3616 C   0  0  0  0  0  0  0  0  0  0  0  0
  -28.4062  -12.2831   19.2604 C   0  0  0  0  0  0  0  0  0  0  0  0
  -30.5394  -13.5634   19.7319 C   0  0  0  0  0  0  0  0  0  0  0  0
  -28.4405  -14.2874   20.7995 C   0  0  0  0  0  0  0  0  0  0  0  0
  -22.4663  -33.2611   19.0009 C   0  0  1  0  0  0  0  0  0  0  0  0
  -23.6247  -30.5596   21.4078 C   0  0  1  0  0  0  0  0  0  0  0  0
  -27.6018  -13.4865   19.7901 C   0  0  2  0  0  0  0  0  0  0  0  0
  -26.8991  -31.3581   28.3823 C   0  0  0  0  0  0  0  0  0  0  0  0
  -30.8918  -27.6997   20.4693 C   0  0  0  0  0  0  0  0  0  0  0  0
  -25.9312  -34.3911   22.5742 C   0  0  0  0  0  0  0  0  0  0  0  0
  -27.1064  -34.3122   24.7834 C   0  0  0  0  0  0  0  0  0  0  0  0
  -24.6228  -34.5301   24.7010 C   0  0  0  0  0  0  0  0  0  0  0  0
  -25.7913  -28.1037   26.7521 C   0  0  0  0  0  0  0  0  0  0  0  0
  -30.0150  -25.3418   20.3679 C   0  0  0  0  0  0  0  0  0  0  0  0
  -25.6938  -32.3207   24.0983 C   0  0  1  0  0  0  0  0  0  0  0  0
  -26.1369  -30.4937   27.3901 C   0  0  2  0  0  0  0  0  0  0  0  0
  -29.6526  -26.8172   20.5421 C   0  0  2  0  0  0  0  0  0  1  0  0
  -25.8403  -33.8666   24.0211 C   0  0  0  0  0  0  0  0  0  0  0  0
  -26.1732  -11.8583   20.9687 N   0  0  0  0  0  0  0  0  0  0  0  0
  -26.2674  -13.0586   20.3717 N   0  0  0  0  0  0  0  0  0  0  0  0
  -24.7291  -30.9238   22.2977 N   0  0  0  0  0  0  0  0  0  0  0  0
  -29.7167  -14.6868   20.1860 N   0  0  0  0  0  0  0  0  0  0  0  0
  -25.0191  -14.9911   19.8082 N   0  0  0  0  0  0  0  0  0  0  0  0
  -21.9964  -12.3738   21.9081 N   0  0  0  0  0  0  0  0  0  0  0  0
  -29.3035  -16.9931   20.4555 N   0  0  0  0  0  0  0  0  0  0  0  0
  -22.5997  -32.3007   20.0753 N   0  0  0  0  0  0  0  0  0  0  0  0
  -25.5783  -31.7984   25.4556 N   0  0  0  0  0  0  0  0  0  0  0  0
  -26.4877  -29.0675   27.6426 N   0  3  0  0  0  0  0  0  0  0  0  0
  -22.3010  -14.3842   20.8478 O   0  0  0  0  0  0  0  0  0  0  0  0
  -27.3811  -22.2247   21.5189 O   0  0  0  0  0  0  0  0  0  0  0  0
  -24.6819  -31.4391   19.4884 O   0  0  0  0  0  0  0  0  0  0  0  0
  -23.3608  -32.2021   23.6869 O   0  0  0  0  0  0  0  0  0  0  0  0
  -27.4242  -30.3991   25.3477 O   0  0  0  0  0  0  0  0  0  0  0  0
  -27.8612  -24.7793   21.3480 O   0  0  0  0  0  0  0  0  0  0  0  0
  -31.2766  -16.2452   19.4914 O   0  0  0  0  0  0  0  0  0  0  0  0
  -22.9398   -7.3166   24.0457 O   0  0  0  0  0  0  0  0  0  0  0  0
  -28.7630  -27.1944   19.4920 O   0  0  0  0  0  0  0  0  0  1  0  0
  -29.3262  -23.1242   20.6394 O   0  0  0  0  0  0  0  0  0  0  0  0
  -18.0643   -5.2927   22.4529 F   0  0  0  0  0  0  0  0  0  0  0  0
  -22.7172   -4.7245   23.1108 F   0  0  0  0  0  0  0  0  0  0  0  0
  -31.1965  -21.4858   19.7387 F   0  0  0  0  0  0  0  0  0  0  0  0
  -28.2318  -19.3744   21.0301 S   0  0  0  0  0  0  0  0  0  0  0  0
  1  2  1  0  0  0  0
  1  5  2  0  0  0  0
  2  6  2  0  0  0  0
  3  8  2  0  0  0  0
  3 16  1  0  0  0  0
  4  9  1  0  0  0  0
  4 16  2  0  0  0  0
  5 18  1  0  0  0  0
  6 20  1  0  0  0  0
  7 10  2  0  0  0  0
  7 19  1  0  0  0  0
  8 22  1  0  0  0  0
  9 22  2  0  0  0  0
 10 23  1  0  0  0  0
 11 12  2  0  0  0  0
 11 24  1  0  0  0  0
 12 25  1  0  0  0  0
 13 21  1  0  0  0  0
 13 23  2  0  0  0  0
 14 25  2  0  0  0  0
 14 26  1  0  0  0  0
 15 27  1  0  0  0  0
 15 31  2  0  0  0  0
 16 28  1  0  0  0  0
 17 28  1  0  0  0  0
 17 30  2  0  0  0  0
 17 32  1  0  0  0  0
 18 20  2  0  0  0  0
 18 39  1  0  0  0  0
 19 21  2  0  0  0  0
 19 40  1  0  0  0  0
 20 48  1  0  0  0  0
 21 41  1  0  0  0  0
 22 79  1  0  0  0  0
 23 80  1  0  0  0  0
 24 26  2  0  0  0  0
 24 79  1  0  0  0  0
 25 82  1  0  0  0  0
 26 83  1  0  0  0  0
 27 29  2  0  0  0  0
 27 84  1  0  0  0  0
 28 62  2  0  0  0  0
 29 33  1  0  0  0  0
 29 85  1  0  0  0  0
 30 63  1  0  0  0  0
 30 66  1  0  0  0  0
 31 68  1  0  0  0  0
 31 85  1  0  0  0  0
 32 67  1  0  0  0  0
 32 72  2  0  0  0  0
 33 73  2  0  0  0  0
 33 81  1  0  0  0  0
 34 49  1  0  0  0  0
 34 69  1  0  0  0  0
 34 74  2  0  0  0  0
 35 58  1  0  0  0  0
 35 64  1  0  0  0  0
 35 75  2  0  0  0  0
 36 59  1  0  0  0  0
 36 70  1  0  0  0  0
 36 76  2  0  0  0  0
 37 57  1  0  0  0  0
 37 77  2  0  0  0  0
 37 81  1  0  0  0  0
 38 65  1  0  0  0  0
 38 68  1  0  0  0  0
 38 78  2  0  0  0  0
 39 42  1  0  0  0  0
 40 49  1  0  0  0  0
 41 64  1  0  0  0  0
 42 44  1  0  0  0  0
 43 45  1  0  0  0  0
 43 46  1  0  0  0  0
 44 48  1  0  0  0  0
 45 50  1  0  0  0  0
 46 65  1  0  0  0  0
 47 50  1  0  0  0  0
 47 65  1  0  0  0  0
 48 69  1  0  0  0  0
 49 64  1  0  0  0  0
 50 63  1  0  0  0  0
 51 59  1  0  0  0  0
 52 60  1  0  0  0  0
 53 61  1  0  0  0  0
 54 61  1  0  0  0  0
 55 61  1  0  0  0  0
 56 71  1  0  0  0  0
 57 60  1  0  0  0  0
 58 61  1  0  0  0  0
 58 70  1  0  0  0  0
 59 71  1  0  0  0  0
 60 80  1  0  0  0  0
 62 63  1  0  0  0  0
M  CHG  1  71   1
M  ISO  4  38 100  60 101  68 100  80 101
M  END
> <Batch ID>
0180

> <Smiles>
CNC(C)C(=O)NC(C(=O)N1Cc2cc([101O:1][101CH:1](C)CC(=O)OC(=O)c3sc([100NH:0][100C:0](=O)N4CCCC(n5nc(-c6ccc(Oc7ccc(F)cc7F)cc6)c(C(N)=O)c5N)C4)cc3F)ccc2CC1C(=O)NC1CCCc2ccccc21)C(C)(C)C

> <Shape>
0.366

> <Color>
0.182

> <Negative vol penalty>
0.000

$$$$

  -OEChem-04052304503D

 89 97  0     1  0  0  0  0  0999 V2000
  -31.8070  -25.2906   21.3429 C   0  0  0  0  0  0  0  0  0  0  0  0
  -30.5866  -24.9868   21.9377 C   0  0  0  0  0  0  0  0  0  0  0  0
  -25.0172  -30.3974   20.2819 C   0  0  0  0  0  0  0  0  0  0  0  0
  -24.1674  -28.7404   21.8211 C   0  0  0  0  0  0  0  0  0  0  0  0
  -32.1538  -24.7035   20.1268 C   0  0  0  0  0  0  0  0  0  0  0  0
  -29.7118  -24.0964   21.3161 C   0  0  0  0  0  0  0  0  0  0  0  0
  -24.8024  -19.1089   22.8458 C   0  0  0  0  0  0  0  0  0  0  0  0
  -24.6914  -31.4064   21.1881 C   0  0  0  0  0  0  0  0  0  0  0  0
  -23.8416  -29.7495   22.7274 C   0  0  0  0  0  0  0  0  0  0  0  0
  -23.4847  -18.7669   22.5453 C   0  0  0  0  0  0  0  0  0  0  0  0
  -24.4139  -34.3893   23.2473 C   0  0  0  0  0  0  0  0  0  0  0  0
  -25.3606  -35.3886   23.4732 C   0  0  0  0  0  0  0  0  0  0  0  0
  -24.2240  -17.7524   20.4854 C   0  0  0  0  0  0  0  0  0  0  0  0
  -26.9323  -33.7247   24.2466 C   0  0  0  0  0  0  0  0  0  0  0  0
  -24.7551  -29.0644   20.5983 C   0  0  0  0  0  0  0  0  0  0  0  0
  -26.3064  -27.3168   19.5749 C   0  0  0  0  0  0  0  0  0  0  0  0
  -31.2870  -23.7980   19.4948 C   0  0  0  0  0  0  0  0  0  0  0  0
  -25.8413  -18.7843   21.9616 C   0  0  0  0  0  0  0  0  0  0  0  0
  -30.0468  -23.4976   20.0898 C   0  0  0  0  0  0  0  0  0  0  0  0
  -25.5544  -18.0891   20.7782 C   0  0  0  0  0  0  0  0  0  0  0  0
  -24.1036  -31.0825   22.4109 C   0  0  0  0  0  0  0  0  0  0  0  0
  -23.1949  -18.0911   21.3636 C   0  0  0  0  0  0  0  0  0  0  0  0
  -24.7265  -33.0578   23.5211 C   0  0  0  0  0  0  0  0  0  0  0  0
  -26.6198  -35.0563   23.9728 C   0  0  0  0  0  0  0  0  0  0  0  0
  -25.9856  -32.7254   24.0208 C   0  0  0  0  0  0  0  0  0  0  0  0
  -25.0909  -28.0217   19.6623 C   0  0  0  0  0  0  0  0  0  0  0  0
  -19.3935  -20.3202   17.7383 C   0  0  0  0  0  0  0  0  0  0  0  0
  -26.1217  -26.4419   18.5324 C   0  0  0  0  0  0  0  0  0  0  0  0
  -19.6838  -20.3792   19.0853 C   0  0  0  0  0  0  0  0  0  0  0  0
  -20.5233  -22.1999   17.7501 C   0  0  0  0  0  0  0  0  0  0  0  0
  -27.4960  -27.4418   20.3655 C   0  0  0  0  0  0  0  0  0  0  0  0
  -27.9601  -20.4542   20.2805 C   0  0  0  0  0  0  0  0  0  0  0  0
  -29.1427  -17.5147   19.5853 C   0  0  0  0  0  0  0  0  0  0  0  0
  -28.5845  -14.1598   19.3029 C   0  0  0  0  0  0  0  0  0  0  0  0
  -19.7186  -19.6814   21.5067 C   0  0  0  0  0  0  0  0  0  0  0  0
  -21.2621  -23.9558   16.1016 C   0  0  0  0  0  0  0  0  0  0  0  0
  -31.6849  -23.2249   18.1577 C   0  0  0  0  0  0  0  0  0  0  0  0
  -27.2607  -19.1367   22.3131 C   0  0  0  0  0  0  0  0  0  0  0  0
  -26.6361  -17.6996   19.8052 C   0  0  0  0  0  0  0  0  0  0  0  0
  -30.8641  -22.0042   17.7496 C   0  0  0  0  0  0  0  0  0  0  0  0
  -23.6895  -25.9581   14.4356 C   0  0  0  0  0  0  0  0  0  0  0  0
  -29.3776  -22.2604   17.9761 C   0  0  0  0  0  0  0  0  0  0  0  0
  -24.4389  -26.6457   15.5791 C   0  0  0  0  0  0  0  0  0  0  0  0
  -22.1998  -25.8116   14.7409 C   0  0  0  0  0  0  0  0  0  0  0  0
  -22.6388  -25.8505   17.1648 C   0  0  0  0  0  0  0  0  0  0  0  0
  -29.0818  -22.5175   19.4587 C   0  0  1  0  0  0  0  0  0  0  0  0
  -28.1770  -19.2106   21.0955 C   0  0  1  0  0  0  0  0  0  0  0  0
  -24.1542  -25.9622   16.9309 C   0  0  2  0  0  0  0  0  0  0  0  0
  -29.7326  -12.0175   18.6786 C   0  0  0  0  0  0  0  0  0  0  0  0
  -21.5613  -15.4648   21.5956 C   0  0  0  0  0  0  0  0  0  0  0  0
  -19.6369  -18.8034   23.8737 C   0  0  0  0  0  0  0  0  0  0  0  0
  -17.6631  -18.5380   22.3858 C   0  0  0  0  0  0  0  0  0  0  0  0
  -28.9385  -18.2678   16.6355 C   0  0  0  0  0  0  0  0  0  0  0  0
  -29.1736  -15.8399   16.0712 C   0  0  0  0  0  0  0  0  0  0  0  0
  -31.0207  -17.0282   17.2540 C   0  0  0  0  0  0  0  0  0  0  0  0
  -28.1507  -13.0075   21.9942 C   0  0  0  0  0  0  0  0  0  0  0  0
  -19.7127  -17.1375   21.9526 C   0  0  0  0  0  0  0  0  0  0  0  0
  -28.8916  -16.4891   18.5064 C   0  0  1  0  0  0  0  0  0  0  0  0
  -29.3659  -12.9622   19.8125 C   0  0  2  0  0  0  0  0  0  0  0  0
  -21.2326  -16.9011   21.9875 C   0  0  2  0  0  0  0  0  0  1  0  0
  -18.6268  -19.2548   17.0603 C   0  0  0  0  0  0  0  0  0  0  0  0
  -19.2073  -18.5342   22.4173 C   0  0  0  0  0  0  0  0  0  0  0  0
  -29.4853  -16.9151   17.1340 C   0  0  0  0  0  0  0  0  0  0  0  0
  -24.2000  -27.6286   18.7481 N   0  0  0  0  0  0  0  0  0  0  0  0
  -19.8737  -21.3636   16.9712 N   0  0  0  0  0  0  0  0  0  0  0  0
  -24.8563  -26.6673   18.0763 N   0  0  0  0  0  0  0  0  0  0  0  0
  -28.0074  -18.0720   20.1905 N   0  0  0  0  0  0  0  0  0  0  0  0
  -22.0071  -25.1522   16.0343 N   0  0  0  0  0  0  0  0  0  0  0  0
  -26.9200  -25.5094   17.9705 N   0  0  0  0  0  0  0  0  0  0  0  0
  -27.5162  -28.3906   21.3968 N   0  0  0  0  0  0  0  0  0  0  0  0
  -19.3752  -19.5203   20.1681 N   0  0  0  0  0  0  0  0  0  0  0  0
  -21.1736  -23.4028   17.3787 N   0  0  0  0  0  0  0  0  0  0  0  0
  -29.0708  -21.2718   20.1953 N   0  0  0  0  0  0  0  0  0  0  0  0
  -29.4118  -15.2249   19.0159 N   0  0  0  0  0  0  0  0  0  0  0  0
  -28.5607  -12.2058   20.8127 N   0  3  0  0  0  0  0  0  0  0  0  0
  -28.5167  -26.7445   20.1527 O   0  0  0  0  0  0  0  0  0  0  0  0
  -26.8665  -20.6562   19.7659 O   0  0  0  0  0  0  0  0  0  0  0  0
  -30.3034  -17.8052   19.8852 O   0  0  0  0  0  0  0  0  0  0  0  0
  -27.3628  -14.1500   19.1690 O   0  0  0  0  0  0  0  0  0  0  0  0
  -20.3614  -20.6187   21.9770 O   0  0  0  0  0  0  0  0  0  0  0  0
  -20.7639  -23.4441   15.0957 O   0  0  0  0  0  0  0  0  0  0  0  0
  -23.7858  -32.0668   23.2956 O   0  0  0  0  0  0  0  0  0  0  0  0
  -21.9095  -17.7567   21.0676 O   0  0  0  0  0  0  0  0  0  1  0  0
  -27.5292  -36.0157   24.1883 F   0  0  0  0  0  0  0  0  0  0  0  0
  -26.2921  -31.4478   24.2846 F   0  0  0  0  0  0  0  0  0  0  0  0
  -18.1886  -18.2594   17.8963 F   0  0  0  0  0  0  0  0  0  0  0  0
  -17.4924  -19.6959   16.4280 F   0  0  0  0  0  0  0  0  0  0  0  0
  -19.3450  -18.6090   16.0882 F   0  0  0  0  0  0  0  0  0  0  0  0
  -20.5962  -21.7933   19.4157 S   0  0  0  0  0  0  0  0  0  0  0  0
  1  2  1  0  0  0  0
  1  5  2  0  0  0  0
  2  6  2  0  0  0  0
  3  8  2  0  0  0  0
  3 15  1  0  0  0  0
  4  9  1  0  0  0  0
  4 15  2  0  0  0  0
  5 17  1  0  0  0  0
  6 19  1  0  0  0  0
  7 10  2  0  0  0  0
  7 18  1  0  0  0  0
  8 21  1  0  0  0  0
  9 21  2  0  0  0  0
 10 22  1  0  0  0  0
 11 12  2  0  0  0  0
 11 23  1  0  0  0  0
 12 24  1  0  0  0  0
 13 20  1  0  0  0  0
 13 22  2  0  0  0  0
 14 24  2  0  0  0  0
 14 25  1  0  0  0  0
 15 26  1  0  0  0  0
 16 26  1  0  0  0  0
 16 28  2  0  0  0  0
 16 31  1  0  0  0  0
 17 19  2  0  0  0  0
 17 37  1  0  0  0  0
 18 20  2  0  0  0  0
 18 38  1  0  0  0  0
 19 46  1  0  0  0  0
 20 39  1  0  0  0  0
 21 82  1  0  0  0  0
 22 83  1  0  0  0  0
 23 25  2  0  0  0  0
 23 82  1  0  0  0  0
 24 84  1  0  0  0  0
 25 85  1  0  0  0  0
 26 64  2  0  0  0  0
 27 29  2  0  0  0  0
 27 61  1  0  0  0  0
 27 65  1  0  0  0  0
 28 66  1  0  0  0  0
 28 69  1  0  0  0  0
 29 71  1  0  0  0  0
 29 89  1  0  0  0  0
 30 65  2  0  0  0  0
 30 72  1  0  0  0  0
 30 89  1  0  0  0  0
 31 70  1  0  0  0  0
 31 76  2  0  0  0  0
 32 47  1  0  0  0  0
 32 73  1  0  0  0  0
 32 77  2  0  0  0  0
 33 58  1  0  0  0  0
 33 67  1  0  0  0  0
 33 78  2  0  0  0  0
 34 59  1  0  0  0  0
 34 74  1  0  0  0  0
 34 79  2  0  0  0  0
 35 62  1  0  0  0  0
 35 71  1  0  0  0  0
 35 80  2  0  0  0  0
 36 68  1  0  0  0  0
 36 72  1  0  0  0  0
 36 81  2  0  0  0  0
 37 40  1  0  0  0  0
 38 47  1  0  0  0  0
 39 67  1  0  0  0  0
 40 42  1  0  0  0  0
 41 43  1  0  0  0  0
 41 44  1  0  0  0  0
 42 46  1  0  0  0  0
 43 48  1  0  0  0  0
 44 68  1  0  0  0  0
 45 48  1  0  0  0  0
 45 68  1  0  0  0  0
 46 73  1  0  0  0  0
 47 67  1  0  0  0  0
 48 66  1  0  0  0  0
 49 59  1  0  0  0  0
 50 60  1  0  0  0  0
 51 62  1  0  0  0  0
 52 62  1  0  0  0  0
 53 63  1  0  0  0  0
 54 63  1  0  0  0  0
 55 63  1  0  0  0  0
 56 75  1  0  0  0  0
 57 60  1  0  0  0  0
 57 62  1  0  0  0  0
 58 63  1  0  0  0  0
 58 74  1  0  0  0  0
 59 75  1  0  0  0  0
 60 83  1  0  0  0  0
 61 86  1  0  0  0  0
 61 87  1  0  0  0  0
 61 88  1  0  0  0  0
 64 66  1  0  0  0  0
M  CHG  1  75   1
M  ISO  4  36 100  60 101  72 100  83 101
M  END
> <Batch ID>
0180

> <Smiles>
CNC(C)C(=O)NC(C(=O)N1Cc2cc([101O:1][101CH:1](C)CC(C)(C)C(=O)Nc3sc([100NH:0][100C:0](=O)N4CCCC(n5nc(-c6ccc(Oc7ccc(F)cc7F)cc6)c(C(N)=O)c5N)C4)nc3C(F)(F)F)ccc2CC1C(=O)NC1CCCc2ccccc21)C(C)(C)C

> <Shape>
0.226

> <Color>
0.063

> <Negative vol penalty>
0.000

$$$$

  -OEChem-04052304503D

 84 92  0     1  0  0  0  0  0999 V2000
  -31.7230  -24.3372   10.7467 C   0  0  0  0  0  0  0  0  0  0  0  0
  -32.3960  -23.9104   11.8870 C   0  0  0  0  0  0  0  0  0  0  0  0
  -23.0040   -9.8872   19.9769 C   0  0  0  0  0  0  0  0  0  0  0  0
  -23.7321   -9.9340   22.2801 C   0  0  0  0  0  0  0  0  0  0  0  0
  -31.1721  -25.6173   10.7019 C   0  0  0  0  0  0  0  0  0  0  0  0
  -32.5196  -24.7639   12.9828 C   0  0  0  0  0  0  0  0  0  0  0  0
  -31.5575  -22.4365   17.3763 C   0  0  0  0  0  0  0  0  0  0  0  0
  -22.2406   -8.7502   20.2413 C   0  0  0  0  0  0  0  0  0  0  0  0
  -22.9686   -8.7970   22.5446 C   0  0  0  0  0  0  0  0  0  0  0  0
  -32.5639  -21.6275   17.9020 C   0  0  0  0  0  0  0  0  0  0  0  0
  -23.2203   -5.4599   22.0637 C   0  0  0  0  0  0  0  0  0  0  0  0
  -23.8113   -4.4421   22.8124 C   0  0  0  0  0  0  0  0  0  0  0  0
  -33.1974  -23.4037   19.4063 C   0  0  0  0  0  0  0  0  0  0  0  0
  -22.0890   -4.6766   24.4905 C   0  0  0  0  0  0  0  0  0  0  0  0
  -23.7499  -10.4791   20.9963 C   0  0  0  0  0  0  0  0  0  0  0  0
  -24.1289  -12.9961   20.8263 C   0  0  0  0  0  0  0  0  0  0  0  0
  -31.2807  -26.4834   11.8013 C   0  0  0  0  0  0  0  0  0  0  0  0
  -31.3702  -23.7412   17.8549 C   0  0  0  0  0  0  0  0  0  0  0  0
  -31.9709  -26.0572   12.9521 C   0  0  0  0  0  0  0  0  0  0  0  0
  -32.1863  -24.2263   18.8868 C   0  0  0  0  0  0  0  0  0  0  0  0
  -22.2228   -8.2051   21.5251 C   0  0  0  0  0  0  0  0  0  0  0  0
  -33.3860  -22.1121   18.9152 C   0  0  0  0  0  0  0  0  0  0  0  0
  -22.0637   -6.0860   22.5284 C   0  0  0  0  0  0  0  0  0  0  0  0
  -23.2456   -4.0505   24.0257 C   0  0  0  0  0  0  0  0  0  0  0  0
  -21.4981   -5.6944   23.7418 C   0  0  0  0  0  0  0  0  0  0  0  0
  -24.5392  -11.6533   20.7237 C   0  0  0  0  0  0  0  0  0  0  0  0
  -30.7254  -19.0720   22.9350 C   0  0  0  0  0  0  0  0  0  0  0  0
  -31.8319  -18.6723   22.2153 C   0  0  0  0  0  0  0  0  0  0  0  0
  -25.2365  -13.7222   20.4623 C   0  0  0  0  0  0  0  0  0  0  0  0
  -30.5730  -16.9056   21.8929 C   0  0  0  0  0  0  0  0  0  0  0  0
  -22.8602  -13.5384   21.2159 C   0  0  0  0  0  0  0  0  0  0  0  0
  -31.5342  -26.6456   16.5737 C   0  0  0  0  0  0  0  0  0  0  0  0
  -30.4145  -27.5642   19.4763 C   0  0  0  0  0  0  0  0  0  0  0  0
  -30.0803  -26.8777   22.8025 C   0  0  0  0  0  0  0  0  0  0  0  0
  -34.1613  -19.1296   21.3657 C   0  0  0  0  0  0  0  0  0  0  0  0
  -30.7140  -14.6957   20.6917 C   0  0  0  0  0  0  0  0  0  0  0  0
  -30.7099  -27.8749   11.6884 C   0  0  0  0  0  0  0  0  0  0  0  0
  -30.2628  -24.5918   17.2957 C   0  0  0  0  0  0  0  0  0  0  0  0
  -32.0132  -25.6126   19.4495 C   0  0  0  0  0  0  0  0  0  0  0  0
  -30.5602  -28.5828   13.0325 C   0  0  0  0  0  0  0  0  0  0  0  0
  -29.5984  -12.2464   18.3607 C   0  0  0  0  0  0  0  0  0  0  0  0
  -31.8285  -28.4221   13.8646 C   0  0  0  0  0  0  0  0  0  0  0  0
  -28.1490  -11.9842   18.7761 C   0  0  0  0  0  0  0  0  0  0  0  0
  -30.5000  -12.4887   19.5700 C   0  0  0  0  0  0  0  0  0  0  0  0
  -28.5845  -13.2695   20.9081 C   0  0  0  0  0  0  0  0  0  0  0  0
  -32.1044  -26.9450   14.1704 C   0  0  1  0  0  0  0  0  0  0  0  0
  -30.4942  -26.0855   17.5023 C   0  0  1  0  0  0  0  0  0  0  0  0
  -27.6257  -13.0840   19.7207 C   0  0  2  0  0  0  0  0  0  0  0  0
  -30.4759  -20.3163   23.6909 C   0  0  0  0  0  0  0  0  0  0  0  0
  -29.1507  -27.8349   24.9278 C   0  0  0  0  0  0  0  0  0  0  0  0
  -36.4885  -19.7805   20.6462 C   0  0  0  0  0  0  0  0  0  0  0  0
  -35.6348  -20.5031   22.9058 C   0  0  0  0  0  0  0  0  0  0  0  0
  -32.7733  -29.4930   19.6365 C   0  0  0  0  0  0  0  0  0  0  0  0
  -32.3444  -29.7036   22.0941 C   0  0  0  0  0  0  0  0  0  0  0  0
  -30.6043  -30.4269   20.4596 C   0  0  0  0  0  0  0  0  0  0  0  0
  -28.2230  -24.6002   23.1523 C   0  0  0  0  0  0  0  0  0  0  0  0
  -34.7240  -21.5375   20.7955 C   0  0  0  0  0  0  0  0  0  1  0  0
  -31.0456  -27.9595   20.7894 C   0  0  1  0  0  0  0  0  0  0  0  0
  -28.8789  -26.9405   23.7282 C   0  0  2  0  0  0  0  0  0  0  0  0
  -35.2504  -20.2332   21.4403 C   0  0  0  0  0  0  0  0  0  0  0  0
  -31.6967  -29.3703   20.7332 C   0  0  0  0  0  0  0  0  0  0  0  0
  -25.8082  -11.5309   20.3255 N   0  0  0  0  0  0  0  0  0  0  0  0
  -31.7464  -17.4301   21.6173 N   0  0  0  0  0  0  0  0  0  0  0  0
  -26.2049  -12.8060   20.1747 N   0  0  0  0  0  0  0  0  0  0  0  0
  -30.9207  -26.4081   18.8655 N   0  0  0  0  0  0  0  0  0  0  0  0
  -29.9435  -13.5461   20.4168 N   0  0  0  0  0  0  0  0  0  0  0  0
  -25.4666  -15.0488   20.3634 N   0  0  0  0  0  0  0  0  0  0  0  0
  -21.8310  -12.6509   21.5585 N   0  0  0  0  0  0  0  0  0  0  0  0
  -33.0047  -19.4529   22.0695 N   0  0  0  0  0  0  0  0  0  0  0  0
  -30.0685  -15.6473   21.4806 N   0  0  0  0  0  0  0  0  0  0  0  0
  -31.2404  -26.4791   15.2338 N   0  0  0  0  0  0  0  0  0  0  0  0
  -30.0033  -27.8223   21.8010 N   0  0  0  0  0  0  0  0  0  0  0  0
  -28.5366  -25.5781   24.2258 N   0  3  0  0  0  0  0  0  0  0  0  0
  -22.6405  -14.7731   21.2432 O   0  0  0  0  0  0  0  0  0  0  0  0
  -32.5289  -27.1899   17.0385 O   0  0  0  0  0  0  0  0  0  0  0  0
  -29.5010  -28.2518   19.0131 O   0  0  0  0  0  0  0  0  0  0  0  0
  -30.9974  -26.0738   22.9549 O   0  0  0  0  0  0  0  0  0  0  0  0
  -34.3555  -18.0881   20.7414 O   0  0  0  0  0  0  0  0  0  0  0  0
  -31.8517  -14.8385   20.2365 O   0  0  0  0  0  0  0  0  0  0  0  0
  -21.4778   -7.0958   21.7835 O   0  0  0  0  0  0  0  0  0  0  0  0
  -34.3695  -21.3248   19.4297 O   0  0  0  0  0  0  0  0  0  1  0  0
  -23.8124   -3.0720   24.7438 F   0  0  0  0  0  0  0  0  0  0  0  0
  -20.3863   -6.2914   24.1928 F   0  0  0  0  0  0  0  0  0  0  0  0
  -29.5224  -17.8516   22.8656 S   0  0  0  0  0  0  0  0  0  0  0  0
  1  2  1  0  0  0  0
  1  5  2  0  0  0  0
  2  6  2  0  0  0  0
  3  8  2  0  0  0  0
  3 15  1  0  0  0  0
  4  9  1  0  0  0  0
  4 15  2  0  0  0  0
  5 17  1  0  0  0  0
  6 19  1  0  0  0  0
  7 10  2  0  0  0  0
  7 18  1  0  0  0  0
  8 21  1  0  0  0  0
  9 21  2  0  0  0  0
 10 22  1  0  0  0  0
 11 12  2  0  0  0  0
 11 23  1  0  0  0  0
 12 24  1  0  0  0  0
 13 20  1  0  0  0  0
 13 22  2  0  0  0  0
 14 24  2  0  0  0  0
 14 25  1  0  0  0  0
 15 26  1  0  0  0  0
 16 26  1  0  0  0  0
 16 29  2  0  0  0  0
 16 31  1  0  0  0  0
 17 19  2  0  0  0  0
 17 37  1  0  0  0  0
 18 20  2  0  0  0  0
 18 38  1  0  0  0  0
 19 46  1  0  0  0  0
 20 39  1  0  0  0  0
 21 80  1  0  0  0  0
 22 81  1  0  0  0  0
 23 25  2  0  0  0  0
 23 80  1  0  0  0  0
 24 82  1  0  0  0  0
 25 83  1  0  0  0  0
 26 62  2  0  0  0  0
 27 28  2  0  0  0  0
 27 49  1  0  0  0  0
 27 84  1  0  0  0  0
 28 63  1  0  0  0  0
 28 69  1  0  0  0  0
 29 64  1  0  0  0  0
 29 67  1  0  0  0  0
 30 63  2  0  0  0  0
 30 70  1  0  0  0  0
 30 84  1  0  0  0  0
 31 68  1  0  0  0  0
 31 74  2  0  0  0  0
 32 47  1  0  0  0  0
 32 71  1  0  0  0  0
 32 75  2  0  0  0  0
 33 58  1  0  0  0  0
 33 65  1  0  0  0  0
 33 76  2  0  0  0  0
 34 59  1  0  0  0  0
 34 72  1  0  0  0  0
 34 77  2  0  0  0  0
 35 60  1  0  0  0  0
 35 69  1  0  0  0  0
 35 78  2  0  0  0  0
 36 66  1  0  0  0  0
 36 70  1  0  0  0  0
 36 79  2  0  0  0  0
 37 40  1  0  0  0  0
 38 47  1  0  0  0  0
 39 65  1  0  0  0  0
 40 42  1  0  0  0  0
 41 43  1  0  0  0  0
 41 44  1  0  0  0  0
 42 46  1  0  0  0  0
 43 48  1  0  0  0  0
 44 66  1  0  0  0  0
 45 48  1  0  0  0  0
 45 66  1  0  0  0  0
 46 71  1  0  0  0  0
 47 65  1  0  0  0  0
 48 64  1  0  0  0  0
 50 59  1  0  0  0  0
 51 60  1  0  0  0  0
 52 60  1  0  0  0  0
 53 61  1  0  0  0  0
 54 61  1  0  0  0  0
 55 61  1  0  0  0  0
 56 73  1  0  0  0  0
 57 60  1  0  0  0  0
 57 81  1  0  0  0  0
 58 61  1  0  0  0  0
 58 72  1  0  0  0  0
 59 73  1  0  0  0  0
 62 64  1  0  0  0  0
M  CHG  1  73   1
M  ISO  4  36 100  57 101  70 100  81 101
M  END
> <Batch ID>
0180

> <Smiles>
CNC(C)C(=O)NC(C(=O)N1Cc2cc([101O:1][101CH2:1]C(C)(C)C(=O)Nc3nc([100NH:0][100C:0](=O)N4CCCC(n5nc(-c6ccc(Oc7ccc(F)cc7F)cc6)c(C(N)=O)c5N)C4)sc3C)ccc2CC1C(=O)NC1CCCc2ccccc21)C(C)(C)C

> <Shape>
0.230

> <Color>
0.190

> <Negative vol penalty>
0.000

$$$$

  -OEChem-04052304503D

 83 91  0     1  0  0  0  0  0999 V2000
  -30.6257  -23.9970   26.8205 C   0  0  0  0  0  0  0  0  0  0  0  0
  -30.4430  -24.4040   25.5028 C   0  0  0  0  0  0  0  0  0  0  0  0
  -25.6593  -13.0186   22.0680 C   0  0  0  0  0  0  0  0  0  0  0  0
  -26.1389  -13.5439   19.7591 C   0  0  0  0  0  0  0  0  0  0  0  0
  -29.5197  -23.7204   27.6231 C   0  0  0  0  0  0  0  0  0  0  0  0
  -29.1542  -24.5336   24.9866 C   0  0  0  0  0  0  0  0  0  0  0  0
  -28.5475  -28.7980   22.3236 C   0  0  0  0  0  0  0  0  0  0  0  0
  -24.6202  -12.1815   21.6617 C   0  0  0  0  0  0  0  0  0  0  0  0
  -25.0998  -12.7067   19.3528 C   0  0  0  0  0  0  0  0  0  0  0  0
  -29.0608  -28.8178   21.0275 C   0  0  0  0  0  0  0  0  0  0  0  0
  -24.2815   -9.0580   20.4120 C   0  0  0  0  0  0  0  0  0  0  0  0
  -24.1827   -7.8060   21.0190 C   0  0  0  0  0  0  0  0  0  0  0  0
  -26.8527  -28.3951   20.1530 C   0  0  0  0  0  0  0  0  0  0  0  0
  -21.9757   -8.3704   21.8239 C   0  0  0  0  0  0  0  0  0  0  0  0
  -26.4186  -13.6999   21.1167 C   0  0  0  0  0  0  0  0  0  0  0  0
  -28.8399  -14.2122   21.7353 C   0  0  0  0  0  0  0  0  0  0  0  0
  -28.2164  -23.8559   27.1194 C   0  0  0  0  0  0  0  0  0  0  0  0
  -27.1825  -28.5654   22.5451 C   0  0  0  0  0  0  0  0  0  0  0  0
  -28.0297  -24.2572   25.7828 C   0  0  0  0  0  0  0  0  0  0  0  0
  -26.3241  -28.3755   21.4527 C   0  0  0  0  0  0  0  0  0  0  0  0
  -24.3404  -12.0255   20.3041 C   0  0  0  0  0  0  0  0  0  0  0  0
  -28.2139  -28.6135   19.9421 C   0  0  0  0  0  0  0  0  0  0  0  0
  -23.2274   -9.9662   20.5111 C   0  0  0  0  0  0  0  0  0  0  0  0
  -23.0298   -7.4622   21.7248 C   0  0  0  0  0  0  0  0  0  0  0  0
  -22.0745   -9.6224   21.2170 C   0  0  0  0  0  0  0  0  0  0  0  0
  -27.4918  -14.5652   21.5357 C   0  0  0  0  0  0  0  0  0  0  0  0
  -29.4102  -22.3122   16.6069 C   0  0  0  0  0  0  0  0  0  0  0  0
  -29.3800  -23.2954   17.5737 C   0  0  0  0  0  0  0  0  0  0  0  0
  -29.4465  -15.3808   22.1263 C   0  0  0  0  0  0  0  0  0  0  0  0
  -28.7833  -21.5908   18.8180 C   0  0  0  0  0  0  0  0  0  0  0  0
  -29.4860  -12.9416   21.5810 C   0  0  0  0  0  0  0  0  0  0  0  0
  -25.5043  -26.3253   24.0514 C   0  0  0  0  0  0  0  0  0  0  0  0
  -23.0095  -28.2794   23.3586 C   0  0  0  0  0  0  0  0  0  0  0  0
  -29.6865  -25.7041   18.2432 C   0  0  0  0  0  0  0  0  0  0  0  0
  -21.7130  -30.7264   21.3642 C   0  0  0  0  0  0  0  0  0  0  0  0
  -28.1663  -21.1466   21.2198 C   0  0  0  0  0  0  0  0  0  0  0  0
  -27.0530  -23.4999   28.0107 C   0  0  0  0  0  0  0  0  0  0  0  0
  -26.6398  -28.5738   23.9479 C   0  0  0  0  0  0  0  0  0  0  0  0
  -24.8475  -28.1419   21.6358 C   0  0  0  0  0  0  0  0  0  0  0  0
  -25.7127  -24.0230   27.5007 C   0  0  0  0  0  0  0  0  0  0  0  0
  -28.5230  -19.5132   24.3633 C   0  0  0  0  0  0  0  0  0  0  0  0
  -25.5568  -23.7299   26.0119 C   0  0  0  0  0  0  0  0  0  0  0  0
  -28.4278  -18.0267   24.0123 C   0  0  0  0  0  0  0  0  0  0  0  0
  -27.5856  -20.3600   23.5043 C   0  0  0  0  0  0  0  0  0  0  0  0
  -27.6300  -18.6782   21.7045 C   0  0  0  0  0  0  0  0  0  0  0  0
  -26.6468  -24.4333   25.1941 C   0  0  1  0  0  0  0  0  0  0  0  0
  -25.3225  -27.8165   24.0834 C   0  0  1  0  0  0  0  0  0  0  0  0
  -28.6036  -17.7925   22.4991 C   0  0  2  0  0  0  0  0  0  0  0  0
  -29.7446  -22.3949   15.1704 C   0  0  0  0  0  0  0  0  0  0  0  0
  -19.6366  -32.0930   21.0199 C   0  0  0  0  0  0  0  0  0  0  0  0
  -30.8663  -29.3723   17.9326 C   0  0  0  0  0  0  0  0  0  0  0  0
  -21.6374  -25.8696   22.0858 C   0  0  0  0  0  0  0  0  0  0  0  0
  -20.0622  -27.4523   20.9536 C   0  0  0  0  0  0  0  0  0  0  0  0
  -20.1299  -27.3312   23.4443 C   0  0  0  0  0  0  0  0  0  0  0  0
  -23.1600  -33.2610   21.8548 C   0  0  0  0  0  0  0  0  0  0  0  0
  -30.0850  -27.0085   17.5597 C   0  0  0  0  0  0  0  0  0  0  0  0
  -22.0471  -28.4160   22.2035 C   0  0  1  0  0  0  0  0  0  0  0  0
  -20.9966  -32.0228   21.6968 C   0  0  2  0  0  0  0  0  0  0  0  0
  -30.0650  -28.2102   18.5045 C   0  0  2  0  0  0  0  0  0  1  0  0
  -20.9973  -27.2697   22.1681 C   0  0  0  0  0  0  0  0  0  0  0  0
  -27.2554  -15.8569   21.7800 N   0  0  0  0  0  0  0  0  0  0  0  0
  -29.0203  -22.8836   18.8421 N   0  0  0  0  0  0  0  0  0  0  0  0
  -28.4632  -16.3258   22.1371 N   0  0  0  0  0  0  0  0  0  0  0  0
  -24.3659  -28.1528   23.0270 N   0  0  0  0  0  0  0  0  0  0  0  0
  -27.8120  -20.0883   22.0831 N   0  0  0  0  0  0  0  0  0  0  0  0
  -30.7199  -15.6819   22.4586 N   0  0  0  0  0  0  0  0  0  0  0  0
  -28.7147  -11.8452   21.1721 N   0  0  0  0  0  0  0  0  0  0  0  0
  -29.6908  -24.6541   17.3288 N   0  0  0  0  0  0  0  0  0  0  0  0
  -28.3881  -20.7626   19.8977 N   0  0  0  0  0  0  0  0  0  0  0  0
  -26.3364  -25.8386   25.0413 N   0  0  0  0  0  0  0  0  0  0  0  0
  -21.4701  -29.7518   22.3088 N   0  0  0  0  0  0  0  0  0  0  0  0
  -21.8055  -33.1914   21.2486 N   0  3  0  0  0  0  0  0  0  0  0  0
  -30.7077  -12.7797   21.8150 O   0  0  0  0  0  0  0  0  0  0  0  0
  -24.9308  -25.6650   23.1930 O   0  0  0  0  0  0  0  0  0  0  0  0
  -22.5745  -28.2920   24.5128 O   0  0  0  0  0  0  0  0  0  0  0  0
  -29.4116  -25.6494   19.4372 O   0  0  0  0  0  0  0  0  0  0  0  0
  -22.4146  -30.5908   20.3643 O   0  0  0  0  0  0  0  0  0  0  0  0
  -28.2923  -22.3036   21.6291 O   0  0  0  0  0  0  0  0  0  0  0  0
  -23.3267  -11.2085   19.9073 O   0  0  0  0  0  0  0  0  0  0  0  0
  -28.7125  -28.6316   18.6760 O   0  0  0  0  0  0  0  0  0  1  0  0
  -22.9344   -6.2593   22.3063 F   0  0  0  0  0  0  0  0  0  0  0  0
  -21.0581  -10.4903   21.3146 F   0  0  0  0  0  0  0  0  0  0  0  0
  -28.9742  -20.8069   17.3034 S   0  0  0  0  0  0  0  0  0  0  0  0
  1  2  1  0  0  0  0
  1  5  2  0  0  0  0
  2  6  2  0  0  0  0
  3  8  2  0  0  0  0
  3 15  1  0  0  0  0
  4  9  1  0  0  0  0
  4 15  2  0  0  0  0
  5 17  1  0  0  0  0
  6 19  1  0  0  0  0
  7 10  2  0  0  0  0
  7 18  1  0  0  0  0
  8 21  1  0  0  0  0
  9 21  2  0  0  0  0
 10 22  1  0  0  0  0
 11 12  2  0  0  0  0
 11 23  1  0  0  0  0
 12 24  1  0  0  0  0
 13 20  1  0  0  0  0
 13 22  2  0  0  0  0
 14 24  2  0  0  0  0
 14 25  1  0  0  0  0
 15 26  1  0  0  0  0
 16 26  1  0  0  0  0
 16 29  2  0  0  0  0
 16 31  1  0  0  0  0
 17 19  2  0  0  0  0
 17 37  1  0  0  0  0
 18 20  2  0  0  0  0
 18 38  1  0  0  0  0
 19 46  1  0  0  0  0
 20 39  1  0  0  0  0
 21 79  1  0  0  0  0
 22 80  1  0  0  0  0
 23 25  2  0  0  0  0
 23 79  1  0  0  0  0
 24 81  1  0  0  0  0
 25 82  1  0  0  0  0
 26 61  2  0  0  0  0
 27 28  2  0  0  0  0
 27 49  1  0  0  0  0
 27 83  1  0  0  0  0
 28 62  1  0  0  0  0
 28 68  1  0  0  0  0
 29 63  1  0  0  0  0
 29 66  1  0  0  0  0
 30 62  2  0  0  0  0
 30 69  1  0  0  0  0
 30 83  1  0  0  0  0
 31 67  1  0  0  0  0
 31 73  2  0  0  0  0
 32 47  1  0  0  0  0
 32 70  1  0  0  0  0
 32 74  2  0  0  0  0
 33 57  1  0  0  0  0
 33 64  1  0  0  0  0
 33 75  2  0  0  0  0
 34 56  1  0  0  0  0
 34 68  1  0  0  0  0
 34 76  2  0  0  0  0
 35 58  1  0  0  0  0
 35 71  1  0  0  0  0
 35 77  2  0  0  0  0
 36 65  1  0  0  0  0
 36 69  1  0  0  0  0
 36 78  2  0  0  0  0
 37 40  1  0  0  0  0
 38 47  1  0  0  0  0
 39 64  1  0  0  0  0
 40 42  1  0  0  0  0
 41 43  1  0  0  0  0
 41 44  1  0  0  0  0
 42 46  1  0  0  0  0
 43 48  1  0  0  0  0
 44 65  1  0  0  0  0
 45 48  1  0  0  0  0
 45 65  1  0  0  0  0
 46 70  1  0  0  0  0
 47 64  1  0  0  0  0
 48 63  1  0  0  0  0
 50 58  1  0  0  0  0
 51 59  1  0  0  0  0
 52 60  1  0  0  0  0
 53 60  1  0  0  0  0
 54 60  1  0  0  0  0
 55 72  1  0  0  0  0
 56 59  1  0  0  0  0
 57 60  1  0  0  0  0
 57 71  1  0  0  0  0
 58 72  1  0  0  0  0
 59 80  1  0  0  0  0
 61 63  1  0  0  0  0
M  CHG  1  72   1
M  ISO  4  36 100  59 101  69 100  80 101
M  END
> <Batch ID>
0180

> <Smiles>
CNC(C)C(=O)NC(C(=O)N1Cc2cc([101O:1][101CH:1](C)CC(=O)Nc3nc([100NH:0][100C:0](=O)N4CCCC(n5nc(-c6ccc(Oc7ccc(F)cc7F)cc6)c(C(N)=O)c5N)C4)sc3C)ccc2CC1C(=O)NC1CCCc2ccccc21)C(C)(C)C

> <Shape>
0.238

> <Color>
0.073

> <Negative vol penalty>
0.000

$$$$

  -OEChem-04052304503D

 84 92  0     1  0  0  0  0  0999 V2000
  -16.9422  -29.1540   24.4583 C   0  0  0  0  0  0  0  0  0  0  0  0
  -17.3348  -28.0669   23.6840 C   0  0  0  0  0  0  0  0  0  0  0  0
  -27.3239  -17.9101   19.8368 C   0  0  0  0  0  0  0  0  0  0  0  0
  -28.5738  -17.8854   21.9041 C   0  0  0  0  0  0  0  0  0  0  0  0
  -17.5988  -30.3767   24.3248 C   0  0  0  0  0  0  0  0  0  0  0  0
  -18.3836  -28.2021   22.7751 C   0  0  0  0  0  0  0  0  0  0  0  0
  -22.5208  -23.9458   21.2677 C   0  0  0  0  0  0  0  0  0  0  0  0
  -27.1139  -16.5356   19.9473 C   0  0  0  0  0  0  0  0  0  0  0  0
  -28.3639  -16.5109   22.0147 C   0  0  0  0  0  0  0  0  0  0  0  0
  -22.6125  -23.0674   20.1889 C   0  0  0  0  0  0  0  0  0  0  0  0
  -25.0820  -14.4570   21.6746 C   0  0  0  0  0  0  0  0  0  0  0  0
  -23.7964  -13.9756   21.4273 C   0  0  0  0  0  0  0  0  0  0  0  0
  -24.0668  -24.6221   19.0544 C   0  0  0  0  0  0  0  0  0  0  0  0
  -24.6532  -12.6131   19.6254 C   0  0  0  0  0  0  0  0  0  0  0  0
  -28.0539  -18.5850   20.8152 C   0  0  0  0  0  0  0  0  0  0  0  0
  -27.4546  -21.0334   21.2077 C   0  0  0  0  0  0  0  0  0  0  0  0
  -18.6625  -30.5244   23.4207 C   0  0  0  0  0  0  0  0  0  0  0  0
  -23.1938  -25.1758   21.2432 C   0  0  0  0  0  0  0  0  0  0  0  0
  -19.0541  -29.4283   22.6285 C   0  0  0  0  0  0  0  0  0  0  0  0
  -23.9841  -25.5132   20.1352 C   0  0  0  0  0  0  0  0  0  0  0  0
  -27.6339  -15.8360   21.0362 C   0  0  0  0  0  0  0  0  0  0  0  0
  -23.3833  -23.4068   19.0808 C   0  0  0  0  0  0  0  0  0  0  0  0
  -26.1532  -14.0165   20.8972 C   0  0  0  0  0  0  0  0  0  0  0  0
  -23.5820  -13.0537   20.4027 C   0  0  0  0  0  0  0  0  0  0  0  0
  -25.9388  -13.0946   19.8727 C   0  0  0  0  0  0  0  0  0  0  0  0
  -28.2715  -20.0048   20.7013 C   0  0  0  0  0  0  0  0  0  0  0  0
  -28.8151  -24.5660   14.3652 C   0  0  0  0  0  0  0  0  0  0  0  0
  -28.0921  -22.1921   20.8371 C   0  0  0  0  0  0  0  0  0  0  0  0
  -28.3350  -25.1445   13.2090 C   0  0  0  0  0  0  0  0  0  0  0  0
  -26.6696  -24.2835   14.7215 C   0  0  0  0  0  0  0  0  0  0  0  0
  -26.2291  -20.9490   21.9471 C   0  0  0  0  0  0  0  0  0  0  0  0
  -30.2550  -24.4517   14.7123 C   0  0  0  0  0  0  0  0  0  0  0  0
  -22.2989  -28.2245   21.3341 C   0  0  0  0  0  0  0  0  0  0  0  0
  -25.4953  -28.7532   21.4943 C   0  0  0  0  0  0  0  0  0  0  0  0
  -28.6534  -27.6296   20.8536 C   0  0  0  0  0  0  0  0  0  0  0  0
  -25.1693  -23.3005   16.4884 C   0  0  0  0  0  0  0  0  0  0  0  0
  -31.8202  -23.5848   16.4218 C   0  0  0  0  0  0  0  0  0  0  0  0
  -19.3108  -31.8786   23.2775 C   0  0  0  0  0  0  0  0  0  0  0  0
  -23.1061  -26.1005   22.4263 C   0  0  0  0  0  0  0  0  0  0  0  0
  -24.7425  -26.8128   20.0683 C   0  0  0  0  0  0  0  0  0  0  0  0
  -20.6580  -31.8362   22.5608 C   0  0  0  0  0  0  0  0  0  0  0  0
  -32.4582  -23.9250   19.8822 C   0  0  0  0  0  0  0  0  0  0  0  0
  -20.5668  -30.9779   21.3031 C   0  0  0  0  0  0  0  0  0  0  0  0
  -31.3732  -23.0647   20.5357 C   0  0  0  0  0  0  0  0  0  0  0  0
  -32.9820  -23.2946   18.5925 C   0  0  0  0  0  0  0  0  0  0  0  0
  -30.8710  -22.0714   18.2673 C   0  0  0  0  0  0  0  0  0  0  0  0
  -20.2036  -29.5288   21.6493 C   0  0  1  0  0  0  0  0  0  0  0  0
  -23.4196  -27.5516   22.0749 C   0  0  1  0  0  0  0  0  0  0  0  0
  -30.2616  -22.6975   19.5321 C   0  0  1  0  0  0  0  0  0  0  0  0
  -31.1626  -27.5975   20.8752 C   0  0  0  0  0  0  0  0  0  0  0  0
  -23.0268  -22.2422   15.6828 C   0  0  0  0  0  0  0  0  0  0  0  0
  -25.1782  -30.6284   19.1083 C   0  0  0  0  0  0  0  0  0  0  0  0
  -27.6568  -30.5107   18.7752 C   0  0  0  0  0  0  0  0  0  0  0  0
  -26.7276  -31.4572   20.8878 C   0  0  0  0  0  0  0  0  0  0  0  0
  -28.7284  -26.1912   23.4390 C   0  0  0  0  0  0  0  0  0  0  0  0
  -26.5959  -28.9651   20.4830 C   0  0  1  0  0  0  0  0  0  0  0  0
  -29.8985  -27.5754   21.7204 C   0  0  2  0  0  0  0  0  0  0  0  0
  -23.6729  -23.1293   16.7366 C   0  0  1  0  0  0  0  0  0  1  0  0
  -26.5239  -30.3666   19.8137 C   0  0  0  0  0  0  0  0  0  0  0  0
  -29.3459  -20.4692   20.0578 N   0  0  0  0  0  0  0  0  0  0  0  0
  -27.8616  -24.0721   15.2339 N   0  0  0  0  0  0  0  0  0  0  0  0
  -29.2085  -21.8023   20.1573 N   0  0  0  0  0  0  0  0  0  0  0  0
  -24.6200  -27.6861   21.2472 N   0  0  0  0  0  0  0  0  0  0  0  0
  -31.8691  -22.9860   17.6927 N   0  0  0  0  0  0  0  0  0  0  0  0
  -27.8011  -23.4962   21.0294 N   0  0  0  0  0  0  0  0  0  0  0  0
  -29.0391  -25.7040   12.1945 N   0  0  0  0  0  0  0  0  0  0  0  0
  -25.7134  -19.6798   22.2430 N   0  0  0  0  0  0  0  0  0  0  0  0
  -25.4144  -23.9389   15.2771 N   0  0  0  0  0  0  0  0  0  0  0  0
  -30.5334  -23.8316   15.9307 N   0  0  0  0  0  0  0  0  0  0  0  0
  -21.3624  -28.8242   22.1544 N   0  0  0  0  0  0  0  0  0  0  0  0
  -27.8489  -28.7002   21.1817 N   0  0  0  0  0  0  0  0  0  0  0  0
  -29.9040  -26.3319   22.5418 N   0  3  0  0  0  0  0  0  0  0  0  0
  -25.6013  -21.9690   22.3198 O   0  0  0  0  0  0  0  0  0  0  0  0
  -31.0963  -24.8596   13.9163 O   0  0  0  0  0  0  0  0  0  0  0  0
  -22.2856  -28.2026   20.1089 O   0  0  0  0  0  0  0  0  0  0  0  0
  -25.4194  -29.5023   22.4714 O   0  0  0  0  0  0  0  0  0  0  0  0
  -28.4199  -26.8067   19.9710 O   0  0  0  0  0  0  0  0  0  0  0  0
  -25.9985  -22.9140   17.3071 O   0  0  0  0  0  0  0  0  0  0  0  0
  -32.8342  -23.9071   15.7946 O   0  0  0  0  0  0  0  0  0  0  0  0
  -27.4291  -14.4948   21.1445 O   0  0  0  0  0  0  0  0  0  0  0  0
  -23.4740  -22.5515   18.0262 O   0  0  0  0  0  0  0  0  0  1  0  0
  -22.3477  -12.5903   20.1664 F   0  0  0  0  0  0  0  0  0  0  0  0
  -26.9641  -12.6668   19.1233 F   0  0  0  0  0  0  0  0  0  0  0  0
  -26.6215  -25.0710   13.1975 S   0  0  0  0  0  0  0  0  0  0  0  0
  1  2  1  0  0  0  0
  1  5  2  0  0  0  0
  2  6  2  0  0  0  0
  3  8  2  0  0  0  0
  3 15  1  0  0  0  0
  4  9  1  0  0  0  0
  4 15  2  0  0  0  0
  5 17  1  0  0  0  0
  6 19  1  0  0  0  0
  7 10  2  0  0  0  0
  7 18  1  0  0  0  0
  8 21  1  0  0  0  0
  9 21  2  0  0  0  0
 10 22  1  0  0  0  0
 11 12  2  0  0  0  0
 11 23  1  0  0  0  0
 12 24  1  0  0  0  0
 13 20  1  0  0  0  0
 13 22  2  0  0  0  0
 14 24  2  0  0  0  0
 14 25  1  0  0  0  0
 15 26  1  0  0  0  0
 16 26  1  0  0  0  0
 16 28  2  0  0  0  0
 16 31  1  0  0  0  0
 17 19  2  0  0  0  0
 17 38  1  0  0  0  0
 18 20  2  0  0  0  0
 18 39  1  0  0  0  0
 19 47  1  0  0  0  0
 20 40  1  0  0  0  0
 21 80  1  0  0  0  0
 22 81  1  0  0  0  0
 23 25  2  0  0  0  0
 23 80  1  0  0  0  0
 24 82  1  0  0  0  0
 25 83  1  0  0  0  0
 26 60  2  0  0  0  0
 27 29  2  0  0  0  0
 27 32  1  0  0  0  0
 27 61  1  0  0  0  0
 28 62  1  0  0  0  0
 28 65  1  0  0  0  0
 29 66  1  0  0  0  0
 29 84  1  0  0  0  0
 30 61  2  0  0  0  0
 30 68  1  0  0  0  0
 30 84  1  0  0  0  0
 31 67  1  0  0  0  0
 31 73  2  0  0  0  0
 32 69  1  0  0  0  0
 32 74  2  0  0  0  0
 33 48  1  0  0  0  0
 33 70  1  0  0  0  0
 33 75  2  0  0  0  0
 34 56  1  0  0  0  0
 34 63  1  0  0  0  0
 34 76  2  0  0  0  0
 35 57  1  0  0  0  0
 35 71  1  0  0  0  0
 35 77  2  0  0  0  0
 36 58  1  0  0  0  0
 36 68  1  0  0  0  0
 36 78  2  0  0  0  0
 37 64  1  0  0  0  0
 37 69  1  0  0  0  0
 37 79  2  0  0  0  0
 38 41  1  0  0  0  0
 39 48  1  0  0  0  0
 40 63  1  0  0  0  0
 41 43  1  0  0  0  0
 42 44  1  0  0  0  0
 42 45  1  0  0  0  0
 43 47  1  0  0  0  0
 44 49  1  0  0  0  0
 45 64  1  0  0  0  0
 46 49  1  0  0  0  0
 46 64  1  0  0  0  0
 47 70  1  0  0  0  0
 48 63  1  0  0  0  0
 49 62  1  0  0  0  0
 50 57  1  0  0  0  0
 51 58  1  0  0  0  0
 52 59  1  0  0  0  0
 53 59  1  0  0  0  0
 54 59  1  0  0  0  0
 55 72  1  0  0  0  0
 56 59  1  0  0  0  0
 56 71  1  0  0  0  0
 57 72  1  0  0  0  0
 58 81  1  0  0  0  0
 60 62  1  0  0  0  0
M  CHG  1  72   1
M  ISO  4  37 100  58 101  69 100  81 101
M  END
> <Batch ID>
0180

> <Smiles>
CNC(C)C(=O)NC(C(=O)N1Cc2cc([101O:1][101CH:1](C)C(=O)Nc3nc(C(=O)[100NH:0][100C:0](=O)N4CCCC(n5nc(-c6ccc(Oc7ccc(F)cc7F)cc6)c(C(N)=O)c5N)C4)c(N)s3)ccc2CC1C(=O)NC1CCCc2ccccc21)C(C)(C)C

> <Shape>
0.215

> <Color>
0.073

> <Negative vol penalty>
0.000

$$$$

  -OEChem-04052304503D

 83 91  0     1  0  0  0  0  0999 V2000
  -27.9121  -37.5586   21.6566 C   0  0  0  0  0  0  0  0  0  0  0  0
  -28.3620  -36.3172   21.2186 C   0  0  0  0  0  0  0  0  0  0  0  0
  -24.2842   -8.9911   21.3095 C   0  0  0  0  0  0  0  0  0  0  0  0
  -23.0114  -10.7806   20.3022 C   0  0  0  0  0  0  0  0  0  0  0  0
  -26.9821  -37.6360   22.6925 C   0  0  0  0  0  0  0  0  0  0  0  0
  -27.8828  -35.1523   21.8169 C   0  0  0  0  0  0  0  0  0  0  0  0
  -26.8547  -29.7667   19.0887 C   0  0  0  0  0  0  0  0  0  0  0  0
  -23.1104   -8.4533   21.8373 C   0  0  0  0  0  0  0  0  0  0  0  0
  -21.8376  -10.2428   20.8299 C   0  0  0  0  0  0  0  0  0  0  0  0
  -27.6069  -28.5954   19.0119 C   0  0  0  0  0  0  0  0  0  0  0  0
  -20.5102   -6.5911   20.7399 C   0  0  0  0  0  0  0  0  0  0  0  0
  -20.3195   -5.2141   20.6256 C   0  0  0  0  0  0  0  0  0  0  0  0
  -26.3674  -27.6846   20.8702 C   0  0  0  0  0  0  0  0  0  0  0  0
  -20.2136   -5.0291   23.0322 C   0  0  0  0  0  0  0  0  0  0  0  0
  -24.2347  -10.1548   20.5420 C   0  0  0  0  0  0  0  0  0  0  0  0
  -26.0287  -10.4220   18.7481 C   0  0  0  0  0  0  0  0  0  0  0  0
  -26.4840  -36.4712   23.2973 C   0  0  0  0  0  0  0  0  0  0  0  0
  -25.8588  -29.9103   20.0655 C   0  0  0  0  0  0  0  0  0  0  0  0
  -26.9462  -35.2143   22.8628 C   0  0  0  0  0  0  0  0  0  0  0  0
  -25.6022  -28.8577   20.9557 C   0  0  0  0  0  0  0  0  0  0  0  0
  -21.8871   -9.0791   21.5974 C   0  0  0  0  0  0  0  0  0  0  0  0
  -27.3653  -27.5552   19.9046 C   0  0  0  0  0  0  0  0  0  0  0  0
  -20.5527   -7.1871   22.0003 C   0  0  0  0  0  0  0  0  0  0  0  0
  -20.1711   -4.4331   21.7718 C   0  0  0  0  0  0  0  0  0  0  0  0
  -20.4044   -6.4061   23.1464 C   0  0  0  0  0  0  0  0  0  0  0  0
  -28.0321  -19.2945   20.4153 C   0  0  0  0  0  0  0  0  0  0  0  0
  -25.4470  -10.7111   19.9971 C   0  0  0  0  0  0  0  0  0  0  0  0
  -27.3360  -20.3651   19.7848 C   0  0  0  0  0  0  0  0  0  0  0  0
  -27.1579  -11.2027   18.7063 C   0  0  0  0  0  0  0  0  0  0  0  0
  -27.3496  -18.1118   20.2297 C   0  0  0  0  0  0  0  0  0  0  0  0
  -27.4381  -25.2371   19.6015 C   0  0  0  0  0  0  0  0  0  1  0  0
  -25.5876   -9.5277   17.7179 C   0  0  0  0  0  0  0  0  0  0  0  0
  -28.0583  -24.0544   19.5114 C   0  0  0  0  0  0  0  0  0  0  0  0
  -27.2424  -22.8229   19.2546 C   0  0  0  0  0  0  0  0  0  0  0  0
  -25.3834  -31.8846   22.5108 C   0  0  0  0  0  0  0  0  0  0  0  0
  -22.5381  -30.3385   22.7012 C   0  0  0  0  0  0  0  0  0  0  0  0
  -20.7155  -27.5318   22.0325 C   0  0  0  0  0  0  0  0  0  0  0  0
  -28.6855  -16.3185   21.3897 C   0  0  0  0  0  0  0  0  0  0  0  0
  -25.5153  -36.6067   24.4453 C   0  0  0  0  0  0  0  0  0  0  0  0
  -25.0380  -31.1696   20.1180 C   0  0  0  0  0  0  0  0  0  0  0  0
  -24.5307  -28.9540   22.0097 C   0  0  0  0  0  0  0  0  0  0  0  0
  -24.7753  -35.3125   24.7739 C   0  0  0  0  0  0  0  0  0  0  0  0
  -30.4258  -13.2175   21.5691 C   0  0  0  0  0  0  0  0  0  0  0  0
  -25.7490  -34.1395   24.8268 C   0  0  0  0  0  0  0  0  0  0  0  0
  -29.4015  -12.1973   21.0669 C   0  0  0  0  0  0  0  0  0  0  0  0
  -29.7686  -14.3211   22.3960 C   0  0  0  0  0  0  0  0  0  0  0  0
  -27.6205  -13.9822   21.2384 C   0  0  0  0  0  0  0  0  0  0  0  0
  -26.4313  -33.9273   23.4700 C   0  0  1  0  0  0  0  0  0  0  0  0
  -24.3973  -31.4088   21.4817 C   0  0  1  0  0  0  0  0  0  0  0  0
  -28.2264  -12.8866   20.3460 C   0  0  2  0  0  0  0  0  0  0  0  0
  -18.4278  -26.5482   22.3430 C   0  0  0  0  0  0  0  0  0  0  0  0
  -23.1751  -29.7889   25.6341 C   0  0  0  0  0  0  0  0  0  0  0  0
  -21.3778  -28.0460   25.6257 C   0  0  0  0  0  0  0  0  0  0  0  0
  -20.8005  -30.4325   25.1852 C   0  0  0  0  0  0  0  0  0  0  0  0
  -20.2862  -27.3135   19.1124 C   0  0  0  0  0  0  0  0  0  0  0  0
  -22.0351  -29.1097   23.4194 C   0  0  1  0  0  0  0  0  0  0  0  0
  -19.3376  -27.3470   21.4228 C   0  0  2  0  0  0  0  0  0  0  0  0
  -21.8687  -29.3429   24.9476 C   0  0  0  0  0  0  0  0  0  0  0  0
  -26.1489  -11.6056   20.6981 N   0  0  0  0  0  0  0  0  0  0  0  0
  -26.2031  -20.0670   19.1533 N   0  0  0  0  0  0  0  0  0  0  0  0
  -27.1832  -11.8852   19.8869 N   0  0  0  0  0  0  0  0  0  0  0  0
  -23.7593  -30.2079   22.0249 N   0  0  0  0  0  0  0  0  0  0  0  0
  -28.6674  -14.9315   21.6478 N   0  0  0  0  0  0  0  0  0  0  0  0
  -28.1218  -11.3651   17.7752 N   0  0  0  0  0  0  0  0  0  0  0  0
  -24.4062   -8.8023   17.9235 N   0  0  0  0  0  0  0  0  0  0  0  0
  -27.8200  -21.6951   19.8215 N   0  0  0  0  0  0  0  0  0  0  0  0
  -27.6027  -16.7800   20.6420 N   0  0  0  0  0  0  0  0  0  0  0  0
  -25.5346  -33.2575   22.5526 N   0  0  0  0  0  0  0  0  0  0  0  0
  -20.8074  -28.7127   22.7384 N   0  0  0  0  0  0  0  0  0  0  0  0
  -19.4392  -26.6274   20.1217 N   0  3  0  0  0  0  0  0  0  0  0  0
  -26.2310   -9.3642   16.6536 O   0  0  0  0  0  0  0  0  0  0  0  0
  -26.1995  -22.8807   18.6121 O   0  0  0  0  0  0  0  0  0  0  0  0
  -25.9629  -31.0668   23.2158 O   0  0  0  0  0  0  0  0  0  0  0  0
  -21.8685  -31.3741   22.7329 O   0  0  0  0  0  0  0  0  0  0  0  0
  -21.6186  -26.7089   21.8993 O   0  0  0  0  0  0  0  0  0  0  0  0
  -29.6085  -17.0389   21.7785 O   0  0  0  0  0  0  0  0  0  0  0  0
  -29.4255  -23.9212   19.6446 O   0  0  0  0  0  0  0  0  0  0  0  0
  -20.7414   -8.5544   22.1120 O   0  0  0  0  0  0  0  0  0  0  0  0
  -28.0986  -26.4111   19.8322 O   0  0  0  0  0  0  0  0  0  1  0  0
  -19.9864   -3.1110   21.6618 F   0  0  0  0  0  0  0  0  0  0  0  0
  -20.4432   -6.9732   24.3600 F   0  0  0  0  0  0  0  0  0  0  0  0
  -29.1772  -19.4149   21.0882 F   0  0  0  0  0  0  0  0  0  0  0  0
  -25.9406  -18.4335   19.3105 S   0  0  0  0  0  0  0  0  0  0  0  0
  1  2  1  0  0  0  0
  1  5  2  0  0  0  0
  2  6  2  0  0  0  0
  3  8  2  0  0  0  0
  3 15  1  0  0  0  0
  4  9  1  0  0  0  0
  4 15  2  0  0  0  0
  5 17  1  0  0  0  0
  6 19  1  0  0  0  0
  7 10  2  0  0  0  0
  7 18  1  0  0  0  0
  8 21  1  0  0  0  0
  9 21  2  0  0  0  0
 10 22  1  0  0  0  0
 11 12  2  0  0  0  0
 11 23  1  0  0  0  0
 12 24  1  0  0  0  0
 13 20  1  0  0  0  0
 13 22  2  0  0  0  0
 14 24  2  0  0  0  0
 14 25  1  0  0  0  0
 15 27  1  0  0  0  0
 16 27  1  0  0  0  0
 16 29  2  0  0  0  0
 16 32  1  0  0  0  0
 17 19  2  0  0  0  0
 17 39  1  0  0  0  0
 18 20  2  0  0  0  0
 18 40  1  0  0  0  0
 19 48  1  0  0  0  0
 20 41  1  0  0  0  0
 21 78  1  0  0  0  0
 22 79  1  0  0  0  0
 23 25  2  0  0  0  0
 23 78  1  0  0  0  0
 24 80  1  0  0  0  0
 25 81  1  0  0  0  0
 26 28  1  0  0  0  0
 26 30  2  0  0  0  0
 26 82  1  0  0  0  0
 27 59  2  0  0  0  0
 28 60  2  0  0  0  0
 28 66  1  0  0  0  0
 29 61  1  0  0  0  0
 29 64  1  0  0  0  0
 30 67  1  0  0  0  0
 30 83  1  0  0  0  0
 31 33  2  0  0  0  0
 31 79  1  0  0  0  0
 32 65  1  0  0  0  0
 32 71  2  0  0  0  0
 33 34  1  0  0  0  0
 33 77  1  0  0  0  0
 34 66  1  0  0  0  0
 34 72  2  0  0  0  0
 35 49  1  0  0  0  0
 35 68  1  0  0  0  0
 35 73  2  0  0  0  0
 36 56  1  0  0  0  0
 36 62  1  0  0  0  0
 36 74  2  0  0  0  0
 37 57  1  0  0  0  0
 37 69  1  0  0  0  0
 37 75  2  0  0  0  0
 38 63  1  0  0  0  0
 38 67  1  0  0  0  0
 38 76  2  0  0  0  0
 39 42  1  0  0  0  0
 40 49  1  0  0  0  0
 41 62  1  0  0  0  0
 42 44  1  0  0  0  0
 43 45  1  0  0  0  0
 43 46  1  0  0  0  0
 44 48  1  0  0  0  0
 45 50  1  0  0  0  0
 46 63  1  0  0  0  0
 47 50  1  0  0  0  0
 47 63  1  0  0  0  0
 48 68  1  0  0  0  0
 49 62  1  0  0  0  0
 50 61  1  0  0  0  0
 51 57  1  0  0  0  0
 52 58  1  0  0  0  0
 53 58  1  0  0  0  0
 54 58  1  0  0  0  0
 55 70  1  0  0  0  0
 56 58  1  0  0  0  0
 56 69  1  0  0  0  0
 57 70  1  0  0  0  0
 59 61  1  0  0  0  0
 60 83  1  0  0  0  0
M  CHG  1  70   1
M  ISO  4  31 101  38 100  67 100  79 101
M  END
> <Batch ID>
0180

> <Smiles>
CNC(C)C(=O)NC(C(=O)N1Cc2cc([101O:1][101CH2:1]C(=O)C(=O)Nc3nsc([100NH:0][100C:0](=O)N4CCCC(n5nc(-c6ccc(Oc7ccc(F)cc7F)cc6)c(C(N)=O)c5N)C4)c3F)ccc2CC1C(=O)NC1CCCc2ccccc21)C(C)(C)C

> <Shape>
0.323

> <Color>
0.087

> <Negative vol penalty>
0.000

$$$$

  -OEChem-04052304503D

 88 96  0     1  0  0  0  0  0999 V2000
  -28.1633  -36.1424   21.8107 C   0  0  0  0  0  0  0  0  0  0  0  0
  -28.4464  -34.7816   21.8709 C   0  0  0  0  0  0  0  0  0  0  0  0
  -23.4497   -9.1714   20.4125 C   0  0  0  0  0  0  0  0  0  0  0  0
  -23.1396  -10.8052   22.1651 C   0  0  0  0  0  0  0  0  0  0  0  0
  -26.9048  -36.6087   22.1881 C   0  0  0  0  0  0  0  0  0  0  0  0
  -27.4714  -33.8865   22.3095 C   0  0  0  0  0  0  0  0  0  0  0  0
  -27.1694  -29.7589   19.3912 C   0  0  0  0  0  0  0  0  0  0  0  0
  -22.6826   -8.2546   21.1313 C   0  0  0  0  0  0  0  0  0  0  0  0
  -22.3725   -9.8884   22.8840 C   0  0  0  0  0  0  0  0  0  0  0  0
  -28.1424  -28.7773   19.5740 C   0  0  0  0  0  0  0  0  0  0  0  0
  -23.1054   -6.1740   23.7612 C   0  0  0  0  0  0  0  0  0  0  0  0
  -23.5831   -4.8673   23.8605 C   0  0  0  0  0  0  0  0  0  0  0  0
  -26.5918  -27.4968   20.9063 C   0  0  0  0  0  0  0  0  0  0  0  0
  -28.6349  -20.1545   19.1898 C   0  0  0  0  0  0  0  0  0  0  0  0
  -30.1155  -19.7414   21.0538 C   0  0  0  0  0  0  0  0  0  0  0  0
  -21.5856   -4.0543   22.7715 C   0  0  0  0  0  0  0  0  0  0  0  0
  -23.6782  -10.4467   20.9294 C   0  0  0  0  0  0  0  0  0  0  0  0
  -24.0129  -12.3264   19.2376 C   0  0  0  0  0  0  0  0  0  0  0  0
  -25.9106  -35.7178   22.6224 C   0  0  0  0  0  0  0  0  0  0  0  0
  -25.9016  -29.6217   19.9746 C   0  0  0  0  0  0  0  0  0  0  0  0
  -26.1987  -34.3415   22.6944 C   0  0  0  0  0  0  0  0  0  0  0  0
  -25.6036  -28.4768   20.7273 C   0  0  0  0  0  0  0  0  0  0  0  0
  -28.4968  -18.7803   18.9949 C   0  0  0  0  0  0  0  0  0  0  0  0
  -29.4443  -20.6351   20.2192 C   0  0  0  0  0  0  0  0  0  0  0  0
  -29.1680  -17.8865   19.8294 C   0  0  0  0  0  0  0  0  0  0  0  0
  -22.1440   -8.6131   22.3671 C   0  0  0  0  0  0  0  0  0  0  0  0
  -27.8547  -27.6474   20.3340 C   0  0  0  0  0  0  0  0  0  0  0  0
  -21.8678   -6.4209   23.1672 C   0  0  0  0  0  0  0  0  0  0  0  0
  -22.8232   -3.8074   23.3656 C   0  0  0  0  0  0  0  0  0  0  0  0
  -29.9774  -18.3671   20.8589 C   0  0  0  0  0  0  0  0  0  0  0  0
  -21.1079   -5.3611   22.6723 C   0  0  0  0  0  0  0  0  0  0  0  0
  -24.4710  -11.3939   20.1876 C   0  0  0  0  0  0  0  0  0  0  0  0
  -25.1469  -12.9835   18.8269 C   0  0  0  0  0  0  0  0  0  0  0  0
  -28.5298  -25.4229   20.0758 C   0  0  0  0  0  0  0  0  0  1  0  0
  -22.6813  -12.5763   18.7684 C   0  0  0  0  0  0  0  0  0  0  0  0
  -29.3884  -24.4038   20.2015 C   0  0  0  0  0  0  0  0  0  0  0  0
  -28.9938  -23.0523   19.6859 C   0  0  0  0  0  0  0  0  0  0  0  0
  -24.2266  -31.2712   22.1140 C   0  0  0  0  0  0  0  0  0  0  0  0
  -21.8899  -29.1604   21.3352 C   0  0  0  0  0  0  0  0  0  0  0  0
  -21.0519  -26.0938   20.0940 C   0  0  0  0  0  0  0  0  0  0  0  0
  -29.9857  -15.5060   19.9342 C   0  0  0  0  0  0  0  0  0  0  0  0
  -24.5804  -36.2740   23.0650 C   0  0  0  0  0  0  0  0  0  0  0  0
  -24.8543  -30.6768   19.7458 C   0  0  0  0  0  0  0  0  0  0  0  0
  -24.2513  -28.2722   21.3580 C   0  0  0  0  0  0  0  0  0  0  0  0
  -23.4811  -35.2194   23.1621 C   0  0  0  0  0  0  0  0  0  0  0  0
  -30.0330  -11.9565   19.6596 C   0  0  0  0  0  0  0  0  0  0  0  0
  -23.9910  -33.9828   23.8956 C   0  0  0  0  0  0  0  0  0  0  0  0
  -28.5525  -11.5704   19.6944 C   0  0  0  0  0  0  0  0  0  0  0  0
  -30.3341  -13.1335   20.5858 C   0  0  0  0  0  0  0  0  0  0  0  0
  -28.0096  -13.9313   20.4144 C   0  0  0  0  0  0  0  0  0  0  0  0
  -25.1593  -33.3366   23.1413 C   0  0  1  0  0  0  0  0  0  0  0  0
  -23.7643  -30.6782   20.8132 C   0  0  1  0  0  0  0  0  0  0  0  0
  -27.6456  -12.7921   19.4482 C   0  0  2  0  0  0  0  0  0  0  0  0
  -19.0644  -24.6383   19.6156 C   0  0  0  0  0  0  0  0  0  0  0  0
  -21.6295  -28.5419   24.3117 C   0  0  0  0  0  0  0  0  0  0  0  0
  -20.3640  -26.4702   23.6994 C   0  0  0  0  0  0  0  0  0  0  0  0
  -19.4554  -28.7114   23.0874 C   0  0  0  0  0  0  0  0  0  0  0  0
  -21.6673  -26.0051   17.2005 C   0  0  0  0  0  0  0  0  0  0  0  0
  -21.4609  -27.8050   21.8430 C   0  0  1  0  0  0  0  0  0  0  0  0
  -20.0278  -25.6730   19.0554 C   0  0  2  0  0  0  0  0  0  0  0  0
  -27.6241  -18.2939   17.8834 C   0  0  0  0  0  0  0  0  0  0  0  0
  -20.7537  -27.8866   23.2252 C   0  0  0  0  0  0  0  0  0  0  0  0
  -25.7930  -11.4503   20.3696 N   0  0  0  0  0  0  0  0  0  0  0  0
  -26.1753  -12.4261   19.5282 N   0  0  0  0  0  0  0  0  0  0  0  0
  -23.2628  -29.3349   21.1106 N   0  0  0  0  0  0  0  0  0  0  0  0
  -29.4395  -14.2552   20.2917 N   0  0  0  0  0  0  0  0  0  0  0  0
  -25.3548  -13.9778   17.9378 N   0  0  0  0  0  0  0  0  0  0  0  0
  -21.6324  -11.8107   19.2956 N   0  0  0  0  0  0  0  0  0  0  0  0
  -29.5849  -22.0301   20.4157 N   0  0  0  0  0  0  0  0  0  0  0  0
  -29.0382  -16.4876   19.6455 N   0  0  0  0  0  0  0  0  0  0  0  0
  -24.6719  -32.5753   22.0111 N   0  0  0  0  0  0  0  0  0  0  0  0
  -20.6448  -27.2135   20.7882 N   0  0  0  0  0  0  0  0  0  0  0  0
  -20.7074  -25.0868   17.8657 N   0  3  0  0  0  0  0  0  0  0  0  0
  -22.4312  -13.4415   17.8952 O   0  0  0  0  0  0  0  0  0  0  0  0
  -28.2349  -22.9399   18.7292 O   0  0  0  0  0  0  0  0  0  0  0  0
  -24.1811  -30.5962   23.1358 O   0  0  0  0  0  0  0  0  0  0  0  0
  -21.0374  -30.0299   21.1380 O   0  0  0  0  0  0  0  0  0  0  0  0
  -22.1057  -25.4875   20.2742 O   0  0  0  0  0  0  0  0  0  0  0  0
  -31.2041  -15.6852   19.8611 O   0  0  0  0  0  0  0  0  0  0  0  0
  -30.6293  -24.5470   20.7882 O   0  0  0  0  0  0  0  0  0  0  0  0
  -21.3953   -7.7189   23.0687 O   0  0  0  0  0  0  0  0  0  0  0  0
  -28.8028  -26.6881   20.5145 O   0  0  0  0  0  0  0  0  0  1  0  0
  -23.2828   -2.5528   23.4596 F   0  0  0  0  0  0  0  0  0  0  0  0
  -30.6276  -17.5179   21.6673 F   0  0  0  0  0  0  0  0  0  0  0  0
  -19.9186   -5.5922   22.0994 F   0  0  0  0  0  0  0  0  0  0  0  0
  -27.0453  -19.3001   17.1657 F   0  0  0  0  0  0  0  0  0  0  0  0
  -28.2872  -17.5334   16.9646 F   0  0  0  0  0  0  0  0  0  0  0  0
  -26.5941  -17.5193   18.3292 F   0  0  0  0  0  0  0  0  0  0  0  0
  1  2  1  0  0  0  0
  1  5  2  0  0  0  0
  2  6  2  0  0  0  0
  3  8  2  0  0  0  0
  3 17  1  0  0  0  0
  4  9  1  0  0  0  0
  4 17  2  0  0  0  0
  5 19  1  0  0  0  0
  6 21  1  0  0  0  0
  7 10  2  0  0  0  0
  7 20  1  0  0  0  0
  8 26  1  0  0  0  0
  9 26  2  0  0  0  0
 10 27  1  0  0  0  0
 11 12  2  0  0  0  0
 11 28  1  0  0  0  0
 12 29  1  0  0  0  0
 13 22  1  0  0  0  0
 13 27  2  0  0  0  0
 14 23  1  0  0  0  0
 14 24  2  0  0  0  0
 15 24  1  0  0  0  0
 15 30  2  0  0  0  0
 16 29  2  0  0  0  0
 16 31  1  0  0  0  0
 17 32  1  0  0  0  0
 18 32  1  0  0  0  0
 18 33  2  0  0  0  0
 18 35  1  0  0  0  0
 19 21  2  0  0  0  0
 19 42  1  0  0  0  0
 20 22  2  0  0  0  0
 20 43  1  0  0  0  0
 21 51  1  0  0  0  0
 22 44  1  0  0  0  0
 23 25  2  0  0  0  0
 23 61  1  0  0  0  0
 24 69  1  0  0  0  0
 25 30  1  0  0  0  0
 25 70  1  0  0  0  0
 26 81  1  0  0  0  0
 27 82  1  0  0  0  0
 28 31  2  0  0  0  0
 28 81  1  0  0  0  0
 29 83  1  0  0  0  0
 30 84  1  0  0  0  0
 31 85  1  0  0  0  0
 32 63  2  0  0  0  0
 33 64  1  0  0  0  0
 33 67  1  0  0  0  0
 34 36  2  0  0  0  0
 34 82  1  0  0  0  0
 35 68  1  0  0  0  0
 35 74  2  0  0  0  0
 36 37  1  0  0  0  0
 36 80  1  0  0  0  0
 37 69  1  0  0  0  0
 37 75  2  0  0  0  0
 38 52  1  0  0  0  0
 38 71  1  0  0  0  0
 38 76  2  0  0  0  0
 39 59  1  0  0  0  0
 39 65  1  0  0  0  0
 39 77  2  0  0  0  0
 40 60  1  0  0  0  0
 40 72  1  0  0  0  0
 40 78  2  0  0  0  0
 41 66  1  0  0  0  0
 41 70  1  0  0  0  0
 41 79  2  0  0  0  0
 42 45  1  0  0  0  0
 43 52  1  0  0  0  0
 44 65  1  0  0  0  0
 45 47  1  0  0  0  0
 46 48  1  0  0  0  0
 46 49  1  0  0  0  0
 47 51  1  0  0  0  0
 48 53  1  0  0  0  0
 49 66  1  0  0  0  0
 50 53  1  0  0  0  0
 50 66  1  0  0  0  0
 51 71  1  0  0  0  0
 52 65  1  0  0  0  0
 53 64  1  0  0  0  0
 54 60  1  0  0  0  0
 55 62  1  0  0  0  0
 56 62  1  0  0  0  0
 57 62  1  0  0  0  0
 58 73  1  0  0  0  0
 59 62  1  0  0  0  0
 59 72  1  0  0  0  0
 60 73  1  0  0  0  0
 61 86  1  0  0  0  0
 61 87  1  0  0  0  0
 61 88  1  0  0  0  0
 63 64  1  0  0  0  0
M  CHG  1  73   1
M  ISO  4  34 101  41 100  70 100  82 101
M  END
> <Batch ID>
0180

> <Smiles>
CNC(C)C(=O)NC(C(=O)N1Cc2cc([101O:1][101CH2:1]C(=O)C(=O)Nc3cc(F)c([100NH:0][100C:0](=O)N4CCCC(n5nc(-c6ccc(Oc7ccc(F)cc7F)cc6)c(C(N)=O)c5N)C4)c(C(F)(F)F)c3)ccc2CC1C(=O)NC1CCCc2ccccc21)C(C)(C)C

> <Shape>
0.363

> <Color>
0.113

> <Negative vol penalty>
0.000

$$$$

  -OEChem-04052304503D

 87 95  0     1  0  0  0  0  0999 V2000
  -26.4409  -20.7681   14.7606 C   0  0  0  0  0  0  0  0  0  0  0  0
  -26.8463  -19.5470   15.2874 C   0  0  0  0  0  0  0  0  0  0  0  0
  -25.1138  -28.7189   20.9787 C   0  0  0  0  0  0  0  0  0  0  0  0
  -25.9798  -27.9784   23.1092 C   0  0  0  0  0  0  0  0  0  0  0  0
  -25.4220  -21.4871   15.3820 C   0  0  0  0  0  0  0  0  0  0  0  0
  -26.2249  -19.0389   16.4287 C   0  0  0  0  0  0  0  0  0  0  0  0
  -27.4572  -14.4781   17.8014 C   0  0  0  0  0  0  0  0  0  0  0  0
  -23.9935  -29.2492   21.6184 C   0  0  0  0  0  0  0  0  0  0  0  0
  -24.8595  -28.5087   23.7489 C   0  0  0  0  0  0  0  0  0  0  0  0
  -28.6953  -14.1686   18.3627 C   0  0  0  0  0  0  0  0  0  0  0  0
  -21.0869  -28.1033   22.9080 C   0  0  0  0  0  0  0  0  0  0  0  0
  -19.8380  -27.8539   22.3391 C   0  0  0  0  0  0  0  0  0  0  0  0
  -27.6696  -14.0450   20.5425 C   0  0  0  0  0  0  0  0  0  0  0  0
  -30.4345  -21.0579   23.7238 C   0  0  0  0  0  0  0  0  0  0  0  0
  -19.4811  -30.2295   22.0813 C   0  0  0  0  0  0  0  0  0  0  0  0
  -26.1070  -28.0835   21.7241 C   0  0  0  0  0  0  0  0  0  0  0  0
  -28.4812  -28.1905   20.7972 C   0  0  0  0  0  0  0  0  0  0  0  0
  -24.7969  -20.9927   16.5386 C   0  0  0  0  0  0  0  0  0  0  0  0
  -26.3160  -14.5843   18.6094 C   0  0  0  0  0  0  0  0  0  0  0  0
  -25.1783  -19.7383   17.0564 C   0  0  0  0  0  0  0  0  0  0  0  0
  -26.4177  -14.3535   19.9887 C   0  0  0  0  0  0  0  0  0  0  0  0
  -31.1049  -20.2079   24.5963 C   0  0  0  0  0  0  0  0  0  0  0  0
  -31.5461  -18.9678   24.1482 C   0  0  0  0  0  0  0  0  0  0  0  0
  -23.8663  -29.1441   23.0035 C   0  0  0  0  0  0  0  0  0  0  0  0
  -28.8022  -13.9548   19.7338 C   0  0  0  0  0  0  0  0  0  0  0  0
  -21.5329  -29.4157   23.0638 C   0  0  0  0  0  0  0  0  0  0  0  0
  -19.0352  -28.9170   21.9257 C   0  0  0  0  0  0  0  0  0  0  0  0
  -20.7300  -30.4788   22.6504 C   0  0  0  0  0  0  0  0  0  0  0  0
  -27.2642  -27.5350   21.0638 C   0  0  0  0  0  0  0  0  0  0  0  0
  -30.2320  -20.6244   22.4235 C   0  0  0  0  0  0  0  0  0  0  0  0
  -31.2937  -18.6277   22.8289 C   0  0  0  0  0  0  0  0  0  0  0  0
  -29.2472  -27.2461   20.1585 C   0  0  0  0  0  0  0  0  0  0  0  0
  -28.8834  -29.5330   21.0999 C   0  0  0  0  0  0  0  0  0  0  0  0
  -32.2171  -15.5019   20.9442 C   0  0  0  0  0  0  0  0  0  0  0  0
  -31.5840  -16.8577   21.0895 C   0  0  0  0  0  0  0  0  0  0  0  0
  -24.2730  -16.9164   19.3104 C   0  0  0  0  0  0  0  0  0  0  0  0
  -22.6985  -14.5417   20.8610 C   0  0  0  0  0  0  0  0  0  0  0  0
  -22.8326  -11.4938   22.3903 C   0  0  0  0  0  0  0  0  0  0  0  0
  -29.2361  -21.2709   20.2017 C   0  0  0  0  0  0  0  0  0  0  0  0
  -23.6942  -21.8085   17.1661 C   0  0  0  0  0  0  0  0  0  0  0  0
  -24.9829  -14.8927   17.9849 C   0  0  0  0  0  0  0  0  0  0  0  0
  -25.2190  -14.4356   20.8970 C   0  0  0  0  0  0  0  0  0  0  0  0
  -23.4050  -21.4072   18.6088 C   0  0  0  0  0  0  0  0  0  0  0  0
  -28.8610  -23.3805   17.3581 C   0  0  0  0  0  0  0  0  0  0  0  0
  -23.2396  -19.8979   18.7053 C   0  0  0  0  0  0  0  0  0  0  0  0
  -28.5257  -24.7463   17.9616 C   0  0  0  0  0  0  0  0  0  0  0  0
  -28.2241  -22.2392   18.1490 C   0  0  0  0  0  0  0  0  0  0  0  0
  -28.1737  -23.6133   20.1931 C   0  0  0  0  0  0  0  0  0  0  0  0
  -24.5377  -19.1802   18.3145 C   0  0  1  0  0  0  0  0  0  0  0  0
  -23.9815  -15.4813   18.9740 C   0  0  1  0  0  0  0  0  0  0  0  0
  -28.8465  -24.7906   19.4685 C   0  0  2  0  0  0  0  0  0  0  0  0
  -31.3377  -20.6484   26.0039 C   0  0  0  0  0  0  0  0  0  0  0  0
  -32.2679  -18.0413   25.0703 C   0  0  0  0  0  0  0  0  0  0  0  0
  -21.3919   -9.8289   23.5944 C   0  0  0  0  0  0  0  0  0  0  0  0
  -22.7384  -16.3094   23.3478 C   0  0  0  0  0  0  0  0  0  0  0  0
  -22.1726  -14.2863   24.7098 C   0  0  0  0  0  0  0  0  0  0  0  0
  -20.5852  -15.0965   22.9644 C   0  0  0  0  0  0  0  0  0  0  0  0
  -23.3551   -9.4015   20.3634 C   0  0  0  0  0  0  0  0  0  0  0  0
  -30.2335  -14.0737   21.6294 C   0  0  0  0  0  0  0  0  0  1  0  0
  -31.7067  -14.3980   21.8519 C   0  0  1  0  0  0  0  0  0  0  0  0
  -22.7348  -13.9691   22.2574 C   0  0  1  0  0  0  0  0  0  0  0  0
  -21.9621  -10.2580   22.2514 C   0  0  2  0  0  0  0  0  0  0  0  0
  -22.0809  -14.9156   23.3033 C   0  0  0  0  0  0  0  0  0  0  0  0
  -27.2531  -26.2718   20.6298 N   0  0  0  0  0  0  0  0  0  0  0  0
  -30.6458  -19.4269   21.9519 N   0  0  0  0  0  0  0  0  0  0  0  0
  -28.4725  -26.1261   20.0839 N   0  0  0  0  0  0  0  0  0  0  0  0
  -23.9387  -14.7463   20.2398 N   0  0  0  0  0  0  0  0  0  0  0  0
  -28.5751  -22.3438   19.5670 N   0  0  0  0  0  0  0  0  0  0  0  0
  -30.5010  -27.2728   19.6589 N   0  0  0  0  0  0  0  0  0  0  0  0
  -27.9736  -30.3703   21.7599 N   0  0  0  0  0  0  0  0  0  0  0  0
  -31.7370  -17.3692   22.3603 N   0  0  0  0  0  0  0  0  0  0  0  0
  -29.5479  -21.4976   21.5418 N   0  0  0  0  0  0  0  0  0  0  0  0
  -24.2809  -17.7603   18.2162 N   0  0  0  0  0  0  0  0  0  0  0  0
  -22.1149  -12.6511   22.1742 N   0  0  0  0  0  0  0  0  0  0  0  0
  -22.7549   -9.1258   21.6941 N   0  3  0  0  0  0  0  0  0  0  0  0
  -30.0100  -29.9821   20.7795 O   0  0  0  0  0  0  0  0  0  0  0  0
  -33.1188  -15.4097   20.1229 O   0  0  0  0  0  0  0  0  0  0  0  0
  -31.0584  -17.3250   20.0927 O   0  0  0  0  0  0  0  0  0  0  0  0
  -24.4743  -17.2348   20.4765 O   0  0  0  0  0  0  0  0  0  0  0  0
  -21.6097  -14.7915   20.3380 O   0  0  0  0  0  0  0  0  0  0  0  0
  -24.0289  -11.4382   22.6667 O   0  0  0  0  0  0  0  0  0  0  0  0
  -29.5299  -20.2386   19.5934 O   0  0  0  0  0  0  0  0  0  0  0  0
  -22.7733  -29.6616   23.6281 O   0  0  0  0  0  0  0  0  0  0  0  0
  -30.0096  -13.6531   20.2842 O   0  0  0  0  0  0  0  0  0  1  0  0
  -17.8366  -28.6773   21.3779 F   0  0  0  0  0  0  0  0  0  0  0  0
  -21.1536  -31.7418   22.7963 F   0  0  0  0  0  0  0  0  0  0  0  0
  -32.7037  -12.9375   21.5946 Cl  0  0  0  0  0  0  0  0  0  0  0  0
  1  2  1  0  0  0  0
  1  5  2  0  0  0  0
  2  6  2  0  0  0  0
  3  8  2  0  0  0  0
  3 16  1  0  0  0  0
  4  9  1  0  0  0  0
  4 16  2  0  0  0  0
  5 18  1  0  0  0  0
  6 20  1  0  0  0  0
  7 10  2  0  0  0  0
  7 19  1  0  0  0  0
  8 24  1  0  0  0  0
  9 24  2  0  0  0  0
 10 25  1  0  0  0  0
 11 12  2  0  0  0  0
 11 26  1  0  0  0  0
 12 27  1  0  0  0  0
 13 21  1  0  0  0  0
 13 25  2  0  0  0  0
 14 22  2  0  0  0  0
 14 30  1  0  0  0  0
 15 27  2  0  0  0  0
 15 28  1  0  0  0  0
 16 29  1  0  0  0  0
 17 29  1  0  0  0  0
 17 32  2  0  0  0  0
 17 33  1  0  0  0  0
 18 20  2  0  0  0  0
 18 40  1  0  0  0  0
 19 21  2  0  0  0  0
 19 41  1  0  0  0  0
 20 49  1  0  0  0  0
 21 42  1  0  0  0  0
 22 23  1  0  0  0  0
 22 52  1  0  0  0  0
 23 31  2  0  0  0  0
 23 53  1  0  0  0  0
 24 83  1  0  0  0  0
 25 84  1  0  0  0  0
 26 28  2  0  0  0  0
 26 83  1  0  0  0  0
 27 85  1  0  0  0  0
 28 86  1  0  0  0  0
 29 64  2  0  0  0  0
 30 65  2  0  0  0  0
 30 72  1  0  0  0  0
 31 65  1  0  0  0  0
 31 71  1  0  0  0  0
 32 66  1  0  0  0  0
 32 69  1  0  0  0  0
 33 70  1  0  0  0  0
 33 76  2  0  0  0  0
 34 35  1  0  0  0  0
 34 60  1  0  0  0  0
 34 77  2  0  0  0  0
 35 71  1  0  0  0  0
 35 78  2  0  0  0  0
 36 50  1  0  0  0  0
 36 73  1  0  0  0  0
 36 79  2  0  0  0  0
 37 61  1  0  0  0  0
 37 67  1  0  0  0  0
 37 80  2  0  0  0  0
 38 62  1  0  0  0  0
 38 74  1  0  0  0  0
 38 81  2  0  0  0  0
 39 68  1  0  0  0  0
 39 72  1  0  0  0  0
 39 82  2  0  0  0  0
 40 43  1  0  0  0  0
 41 50  1  0  0  0  0
 42 67  1  0  0  0  0
 43 45  1  0  0  0  0
 44 46  1  0  0  0  0
 44 47  1  0  0  0  0
 45 49  1  0  0  0  0
 46 51  1  0  0  0  0
 47 68  1  0  0  0  0
 48 51  1  0  0  0  0
 48 68  1  0  0  0  0
 49 73  1  0  0  0  0
 50 67  1  0  0  0  0
 51 66  1  0  0  0  0
 54 62  1  0  0  0  0
 55 63  1  0  0  0  0
 56 63  1  0  0  0  0
 57 63  1  0  0  0  0
 58 75  1  0  0  0  0
 59 60  1  0  0  0  0
 59 84  1  0  0  0  0
 60 87  1  0  0  0  0
 61 63  1  0  0  0  0
 61 74  1  0  0  0  0
 62 75  1  0  0  0  0
 64 66  1  0  0  0  0
M  CHG  1  75   1
M  ISO  4  39 100  59 101  72 100  84 101
M  END
> <Batch ID>
0180

> <Smiles>
CNC(C)C(=O)NC(C(=O)N1Cc2cc([101O:1][101CH2:1]C(Cl)C(=O)C(=O)Nc3nc([100NH:0][100C:0](=O)N4CCCC(n5nc(-c6ccc(Oc7ccc(F)cc7F)cc6)c(C(N)=O)c5N)C4)cc(C)c3C)ccc2CC1C(=O)NC1CCCc2ccccc21)C(C)(C)C

> <Shape>
0.239

> <Color>
0.063

> <Negative vol penalty>
0.000

$$$$

  -OEChem-04052304503D

 87 95  0     1  0  0  0  0  0999 V2000
  -19.5819  -25.0801   23.7113 C   0  0  0  0  0  0  0  0  0  0  0  0
  -20.7613  -25.4554   23.0759 C   0  0  0  0  0  0  0  0  0  0  0  0
  -23.4892  -14.2741   20.6130 C   0  0  0  0  0  0  0  0  0  0  0  0
  -25.2263  -14.9337   22.1571 C   0  0  0  0  0  0  0  0  0  0  0  0
  -18.4939  -25.9518   23.7304 C   0  0  0  0  0  0  0  0  0  0  0  0
  -20.8529  -26.7022   22.4583 C   0  0  0  0  0  0  0  0  0  0  0  0
  -25.2033  -29.0736   23.5051 C   0  0  0  0  0  0  0  0  0  0  0  0
  -24.2852  -13.2186   20.1683 C   0  0  0  0  0  0  0  0  0  0  0  0
  -26.0223  -13.8781   21.7124 C   0  0  0  0  0  0  0  0  0  0  0  0
  -26.3390  -28.6554   22.8131 C   0  0  0  0  0  0  0  0  0  0  0  0
  -28.6565  -11.5743   20.7309 C   0  0  0  0  0  0  0  0  0  0  0  0
  -30.0012  -11.8403   20.4730 C   0  0  0  0  0  0  0  0  0  0  0  0
  -26.1073  -30.5297   21.3122 C   0  0  0  0  0  0  0  0  0  0  0  0
  -26.2665  -24.3500   21.9837 C   0  0  0  0  0  0  0  0  0  0  0  0
  -29.3597  -13.4682   18.8070 C   0  0  0  0  0  0  0  0  0  0  0  0
  -23.9597  -15.1317   21.6073 C   0  0  0  0  0  0  0  0  0  0  0  0
  -22.2079  -16.2001   23.1231 C   0  0  0  0  0  0  0  0  0  0  0  0
  -18.5755  -27.2138   23.1210 C   0  0  0  0  0  0  0  0  0  0  0  0
  -24.5036  -30.2189   23.0986 C   0  0  0  0  0  0  0  0  0  0  0  0
  -19.7645  -27.5911   22.4681 C   0  0  0  0  0  0  0  0  0  0  0  0
  -24.9645  -30.9618   22.0024 C   0  0  0  0  0  0  0  0  0  0  0  0
  -27.4281  -25.0614   22.2839 C   0  0  0  0  0  0  0  0  0  0  0  0
  -25.9466  -23.2001   22.7056 C   0  0  0  0  0  0  0  0  0  0  0  0
  -25.5518  -13.0205   20.7180 C   0  0  0  0  0  0  0  0  0  0  0  0
  -26.7895  -29.3818   21.7147 C   0  0  0  0  0  0  0  0  0  0  0  0
  -27.6633  -12.2551   20.0268 C   0  0  0  0  0  0  0  0  0  0  0  0
  -30.3528  -12.7872   19.5111 C   0  0  0  0  0  0  0  0  0  0  0  0
  -28.0149  -13.2021   19.0649 C   0  0  0  0  0  0  0  0  0  0  0  0
  -28.2699  -24.6228   23.3060 C   0  0  0  0  0  0  0  0  0  0  0  0
  -26.7884  -22.7615   23.7277 C   0  0  0  0  0  0  0  0  0  0  0  0
  -27.9501  -23.4729   24.0279 C   0  0  0  0  0  0  0  0  0  0  0  0
  -23.1381  -16.2226   22.0667 C   0  0  0  0  0  0  0  0  0  0  0  0
  -21.6955  -17.4739   23.1567 C   0  0  0  0  0  0  0  0  0  0  0  0
  -21.8400  -15.1238   23.9960 C   0  0  0  0  0  0  0  0  0  0  0  0
  -21.5589  -30.7937   22.0487 C   0  0  0  0  0  0  0  0  0  0  0  0
  -22.5132  -33.8880   22.2419 C   0  0  0  0  0  0  0  0  0  0  0  0
  -25.0857  -36.1304   22.2647 C   0  0  0  0  0  0  0  0  0  0  0  0
  -27.0331  -26.8020   20.5070 C   0  0  0  0  0  0  0  0  0  0  0  0
  -23.8253  -22.7779   21.4140 C   0  0  0  0  0  0  0  0  0  0  0  0
  -17.3572  -28.1028   23.1268 C   0  0  0  0  0  0  0  0  0  0  0  0
  -23.2957  -30.6719   23.8721 C   0  0  0  0  0  0  0  0  0  0  0  0
  -24.2608  -32.2099   21.5380 C   0  0  0  0  0  0  0  0  0  0  0  0
  -17.6620  -29.5561   22.7728 C   0  0  0  0  0  0  0  0  0  0  0  0
  -20.8107  -21.2304   20.3210 C   0  0  0  0  0  0  0  0  0  0  0  0
  -18.5639  -29.6285   21.5447 C   0  0  0  0  0  0  0  0  0  0  0  0
  -20.9782  -19.7698   20.7462 C   0  0  0  0  0  0  0  0  0  0  0  0
  -22.1316  -21.8406   19.8558 C   0  0  0  0  0  0  0  0  0  0  0  0
  -23.4129  -20.2459   21.2286 C   0  0  0  0  0  0  0  0  0  0  0  0
  -19.9110  -28.9451   21.8084 C   0  0  1  0  0  0  0  0  0  0  0  0
  -22.3641  -31.5636   23.0570 C   0  0  1  0  0  0  0  0  0  0  0  0
  -22.1219  -19.6075   21.7666 C   0  0  2  0  0  0  0  0  0  0  0  0
  -26.5813  -27.9081   17.6303 C   0  0  0  0  0  0  0  0  0  0  0  0
  -25.5514  -38.5927   22.3972 C   0  0  0  0  0  0  0  0  0  0  0  0
  -29.0962  -27.7440   19.4143 C   0  0  0  0  0  0  0  0  0  0  0  0
  -21.6482  -34.2056   19.3331 C   0  0  0  0  0  0  0  0  0  0  0  0
  -22.9798  -36.3238   19.2412 C   0  0  0  0  0  0  0  0  0  0  0  0
  -21.0536  -36.1309   20.8145 C   0  0  0  0  0  0  0  0  0  0  0  0
  -26.6349  -35.8206   24.7673 C   0  0  0  0  0  0  0  0  0  0  0  0
  -26.8616  -28.7708   18.8569 C   0  0  0  0  0  0  0  0  0  0  0  0
  -23.1844  -34.8604   21.3022 C   0  0  1  0  0  0  0  0  0  0  0  0
  -25.3946  -37.2997   23.1823 C   0  0  2  0  0  0  0  0  0  0  0  0
  -27.6987  -28.0749   19.9479 C   0  0  1  0  0  0  0  0  0  1  0  0
  -22.2289  -35.3556   20.1801 C   0  0  0  0  0  0  0  0  0  0  0  0
  -23.2142  -17.4162   21.4720 N   0  0  0  0  0  0  0  0  0  0  0  0
  -22.3252  -18.1555   22.1570 N   0  0  0  0  0  0  0  0  0  0  0  0
  -23.0808  -32.6085   22.3231 N   0  0  0  0  0  0  0  0  0  0  0  0
  -23.1668  -21.6527   20.8746 N   0  0  0  0  0  0  0  0  0  0  0  0
  -20.7722  -18.0664   23.9434 N   0  0  0  0  0  0  0  0  0  0  0  0
  -22.4641  -13.8807   23.8239 N   0  0  0  0  0  0  0  0  0  0  0  0
  -27.7517  -26.2277   21.5497 N   0  0  0  0  0  0  0  0  0  0  0  0
  -24.7667  -22.4782   22.3981 N   0  0  0  0  0  0  0  0  0  0  0  0
  -20.7672  -29.8036   22.5985 N   0  0  0  0  0  0  0  0  0  0  0  0
  -23.7280  -35.9259   22.1374 N   0  0  0  0  0  0  0  0  0  0  0  0
  -26.6574  -37.0495   23.9330 N   0  3  0  0  0  0  0  0  0  0  0  0
  -20.9714  -15.2559   24.8913 O   0  0  0  0  0  0  0  0  0  0  0  0
  -21.6482  -31.0780   20.8601 O   0  0  0  0  0  0  0  0  0  0  0  0
  -21.5261  -34.2525   22.8856 O   0  0  0  0  0  0  0  0  0  0  0  0
  -25.9611  -35.4673   21.7130 O   0  0  0  0  0  0  0  0  0  0  0  0
  -25.9755  -26.3904   20.0340 O   0  0  0  0  0  0  0  0  0  0  0  0
  -23.5533  -23.9250   21.0504 O   0  0  0  0  0  0  0  0  0  0  0  0
  -26.3287  -11.9905   20.2846 O   0  0  0  0  0  0  0  0  0  0  0  0
  -27.8974  -28.9754   21.0370 O   0  0  0  0  0  0  0  0  0  1  0  0
  -31.6442  -13.0437   19.2646 F   0  0  0  0  0  0  0  0  0  0  0  0
  -27.0652  -13.8603   18.3861 F   0  0  0  0  0  0  0  0  0  0  0  0
  -29.3895  -25.2978   23.6026 F   0  0  0  0  0  0  0  0  0  0  0  0
  -26.4917  -21.6574   24.4275 F   0  0  0  0  0  0  0  0  0  0  0  0
  -28.7581  -23.0519   25.0095 F   0  0  0  0  0  0  0  0  0  0  0  0
  1  2  1  0  0  0  0
  1  5  2  0  0  0  0
  2  6  2  0  0  0  0
  3  8  2  0  0  0  0
  3 16  1  0  0  0  0
  4  9  1  0  0  0  0
  4 16  2  0  0  0  0
  5 18  1  0  0  0  0
  6 20  1  0  0  0  0
  7 10  2  0  0  0  0
  7 19  1  0  0  0  0
  8 24  1  0  0  0  0
  9 24  2  0  0  0  0
 10 25  1  0  0  0  0
 11 12  2  0  0  0  0
 11 26  1  0  0  0  0
 12 27  1  0  0  0  0
 13 21  1  0  0  0  0
 13 25  2  0  0  0  0
 14 22  1  0  0  0  0
 14 23  2  0  0  0  0
 15 27  2  0  0  0  0
 15 28  1  0  0  0  0
 16 32  1  0  0  0  0
 17 32  1  0  0  0  0
 17 33  2  0  0  0  0
 17 34  1  0  0  0  0
 18 20  2  0  0  0  0
 18 40  1  0  0  0  0
 19 21  2  0  0  0  0
 19 41  1  0  0  0  0
 20 49  1  0  0  0  0
 21 42  1  0  0  0  0
 22 29  2  0  0  0  0
 22 70  1  0  0  0  0
 23 30  1  0  0  0  0
 23 71  1  0  0  0  0
 24 81  1  0  0  0  0
 25 82  1  0  0  0  0
 26 28  2  0  0  0  0
 26 81  1  0  0  0  0
 27 83  1  0  0  0  0
 28 84  1  0  0  0  0
 29 31  1  0  0  0  0
 29 85  1  0  0  0  0
 30 31  2  0  0  0  0
 30 86  1  0  0  0  0
 31 87  1  0  0  0  0
 32 64  2  0  0  0  0
 33 65  1  0  0  0  0
 33 68  1  0  0  0  0
 34 69  1  0  0  0  0
 34 75  2  0  0  0  0
 35 50  1  0  0  0  0
 35 72  1  0  0  0  0
 35 76  2  0  0  0  0
 36 60  1  0  0  0  0
 36 66  1  0  0  0  0
 36 77  2  0  0  0  0
 37 61  1  0  0  0  0
 37 73  1  0  0  0  0
 37 78  2  0  0  0  0
 38 62  1  0  0  0  0
 38 70  1  0  0  0  0
 38 79  2  0  0  0  0
 39 67  1  0  0  0  0
 39 71  1  0  0  0  0
 39 80  2  0  0  0  0
 40 43  1  0  0  0  0
 41 50  1  0  0  0  0
 42 66  1  0  0  0  0
 43 45  1  0  0  0  0
 44 46  1  0  0  0  0
 44 47  1  0  0  0  0
 45 49  1  0  0  0  0
 46 51  1  0  0  0  0
 47 67  1  0  0  0  0
 48 51  1  0  0  0  0
 48 67  1  0  0  0  0
 49 72  1  0  0  0  0
 50 66  1  0  0  0  0
 51 65  1  0  0  0  0
 52 59  1  0  0  0  0
 53 61  1  0  0  0  0
 54 62  1  0  0  0  0
 55 63  1  0  0  0  0
 56 63  1  0  0  0  0
 57 63  1  0  0  0  0
 58 74  1  0  0  0  0
 59 62  1  0  0  0  0
 60 63  1  0  0  0  0
 60 73  1  0  0  0  0
 61 74  1  0  0  0  0
 62 82  1  0  0  0  0
 64 65  1  0  0  0  0
M  CHG  1  74   1
M  ISO  4  39 100  62 101  71 100  82 101
M  END
> <Batch ID>
0180

> <Smiles>
CC[101C:1](C)(C(=O)Nc1cc([100NH:0][100C:0](=O)N2CCCC(n3nc(-c4ccc(Oc5ccc(F)cc5F)cc4)c(C(N)=O)c3N)C2)c(F)c(F)c1F)[101O:1]c1ccc2c(c1)CN(C(=O)C(NC(=O)C(C)NC)C(C)(C)C)C(C(=O)NC1CCCc3ccccc31)C2

> <Shape>
0.222

> <Color>
0.092

> <Negative vol penalty>
0.000

$$$$

  -OEChem-04052304503D

 83 91  0     1  0  0  0  0  0999 V2000
  -25.7238  -37.9210   26.8328 C   0  0  0  0  0  0  0  0  0  0  0  0
  -25.0635  -36.7865   27.2935 C   0  0  0  0  0  0  0  0  0  0  0  0
  -24.4638   -9.2336   21.5624 C   0  0  0  0  0  0  0  0  0  0  0  0
  -22.6247  -10.2779   20.3945 C   0  0  0  0  0  0  0  0  0  0  0  0
  -25.9994  -38.0620   25.4734 C   0  0  0  0  0  0  0  0  0  0  0  0
  -24.6773  -35.7928   26.3947 C   0  0  0  0  0  0  0  0  0  0  0  0
  -23.8164  -28.6950   25.9507 C   0  0  0  0  0  0  0  0  0  0  0  0
  -23.7067   -8.0723   21.7163 C   0  0  0  0  0  0  0  0  0  0  0  0
  -21.8675   -9.1165   20.5484 C   0  0  0  0  0  0  0  0  0  0  0  0
  -22.8643  -27.7467   25.5791 C   0  0  0  0  0  0  0  0  0  0  0  0
  -21.2198   -6.9682   23.7215 C   0  0  0  0  0  0  0  0  0  0  0  0
  -21.2227   -6.3548   24.9742 C   0  0  0  0  0  0  0  0  0  0  0  0
  -23.4636  -28.0613   23.2637 C   0  0  0  0  0  0  0  0  0  0  0  0
  -22.1309   -4.3449   23.9880 C   0  0  0  0  0  0  0  0  0  0  0  0
  -23.9228  -10.3364   20.9016 C   0  0  0  0  0  0  0  0  0  0  0  0
  -25.5637  -11.8562   19.6747 C   0  0  0  0  0  0  0  0  0  0  0  0
  -25.6249  -37.0651   24.5588 C   0  0  0  0  0  0  0  0  0  0  0  0
  -24.5929  -29.3426   24.9791 C   0  0  0  0  0  0  0  0  0  0  0  0
  -24.9469  -35.9212   25.0216 C   0  0  0  0  0  0  0  0  0  0  0  0
  -24.4266  -29.0156   23.6258 C   0  0  0  0  0  0  0  0  0  0  0  0
  -22.4085   -8.0137   21.2093 C   0  0  0  0  0  0  0  0  0  0  0  0
  -22.6858  -27.4318   24.2352 C   0  0  0  0  0  0  0  0  0  0  0  0
  -21.6723   -6.2699   22.6020 C   0  0  0  0  0  0  0  0  0  0  0  0
  -21.6783   -5.0432   25.1075 C   0  0  0  0  0  0  0  0  0  0  0  0
  -22.1279   -4.9583   22.7352 C   0  0  0  0  0  0  0  0  0  0  0  0
  -24.7042  -11.5365   20.7428 C   0  0  0  0  0  0  0  0  0  0  0  0
  -22.1653  -18.6311   22.0215 C   0  0  0  0  0  0  0  0  0  0  0  0
  -26.0629  -13.0951   19.9946 C   0  0  0  0  0  0  0  0  0  0  0  0
  -21.1947  -18.5313   21.0468 C   0  0  0  0  0  0  0  0  0  0  0  0
  -21.3987  -20.6841   22.1081 C   0  0  0  0  0  0  0  0  0  0  0  0
  -22.1470  -25.1996   23.7905 C   0  0  0  0  0  0  0  0  0  1  0  0
  -25.8823  -11.1008   18.4984 C   0  0  0  0  0  0  0  0  0  0  0  0
  -21.3176  -24.2087   23.4415 C   0  0  0  0  0  0  0  0  0  0  0  0
  -21.8437  -22.8057   23.3854 C   0  0  0  0  0  0  0  0  0  0  0  0
  -24.9567  -32.3583   24.0425 C   0  0  0  0  0  0  0  0  0  0  0  0
  -27.3016  -31.0918   22.1932 C   0  0  0  0  0  0  0  0  0  0  0  0
  -28.5810  -28.3531   20.6092 C   0  0  0  0  0  0  0  0  0  0  0  0
  -24.0101  -17.5753   23.3737 C   0  0  0  0  0  0  0  0  0  0  0  0
  -25.9023  -37.2838   23.0925 C   0  0  0  0  0  0  0  0  0  0  0  0
  -25.6342  -30.3438   25.3985 C   0  0  0  0  0  0  0  0  0  0  0  0
  -25.2491  -29.6676   22.5455 C   0  0  0  0  0  0  0  0  0  0  0  0
  -25.7925  -36.0120   22.2555 C   0  0  0  0  0  0  0  0  0  0  0  0
  -27.1013  -15.8533   23.7693 C   0  0  0  0  0  0  0  0  0  0  0  0
  -24.5217  -35.2469   22.6111 C   0  0  0  0  0  0  0  0  0  0  0  0
  -26.9178  -14.5829   22.9359 C   0  0  0  0  0  0  0  0  0  0  0  0
  -25.8088  -16.2606   24.4744 C   0  0  0  0  0  0  0  0  0  0  0  0
  -24.4533  -15.1158   22.7652 C   0  0  0  0  0  0  0  0  0  0  0  0
  -24.5339  -34.8100   24.0810 C   0  0  1  0  0  0  0  0  0  0  0  0
  -26.0113  -31.3158   24.2847 C   0  0  1  0  0  0  0  0  0  0  0  0
  -25.7114  -14.7026   21.9842 C   0  0  2  0  0  0  0  0  0  0  0  0
  -30.4888  -27.6366   19.1449 C   0  0  0  0  0  0  0  0  0  0  0  0
  -25.9624  -32.4277   19.7990 C   0  0  0  0  0  0  0  0  0  0  0  0
  -27.3069  -30.9364   18.3034 C   0  0  0  0  0  0  0  0  0  0  0  0
  -28.4598  -32.5603   19.8057 C   0  0  0  0  0  0  0  0  0  0  0  0
  -29.5551  -26.4191   22.6265 C   0  0  0  0  0  0  0  0  0  0  0  0
  -27.3687  -30.5089   20.8023 C   0  0  1  0  0  0  0  0  0  0  0  0
  -29.9840  -27.7744   20.5728 C   0  0  2  0  0  0  0  0  0  0  0  0
  -27.2575  -31.5973   19.6976 C   0  0  0  0  0  0  0  0  0  0  0  0
  -24.6578  -12.4950   21.6719 N   0  0  0  0  0  0  0  0  0  0  0  0
  -22.2840  -19.8649   22.6309 N   0  0  0  0  0  0  0  0  0  0  0  0
  -25.4945  -13.4290   21.1886 N   0  0  0  0  0  0  0  0  0  0  0  0
  -26.2499  -30.6445   23.0054 N   0  0  0  0  0  0  0  0  0  0  0  0
  -24.7110  -16.3583   23.5100 N   0  0  0  0  0  0  0  0  0  0  0  0
  -26.9283  -13.9205   19.3683 N   0  0  0  0  0  0  0  0  0  0  0  0
  -25.2805   -9.8468   18.3263 N   0  0  0  0  0  0  0  0  0  0  0  0
  -23.0090  -17.5585   22.4031 N   0  0  0  0  0  0  0  0  0  0  0  0
  -21.1754  -22.0427   22.4376 N   0  0  0  0  0  0  0  0  0  0  0  0
  -25.3864  -33.6539   24.2575 N   0  0  0  0  0  0  0  0  0  0  0  0
  -28.5978  -29.7249   20.7472 N   0  0  0  0  0  0  0  0  0  0  0  0
  -30.0056  -26.4278   21.2109 N   0  3  0  0  0  0  0  0  0  0  0  0
  -26.6897  -11.5181   17.6339 O   0  0  0  0  0  0  0  0  0  0  0  0
  -22.7576  -22.4456   24.1195 O   0  0  0  0  0  0  0  0  0  0  0  0
  -23.8364  -32.0129   23.6855 O   0  0  0  0  0  0  0  0  0  0  0  0
  -28.1551  -31.9085   22.5485 O   0  0  0  0  0  0  0  0  0  0  0  0
  -27.5713  -27.6581   20.5202 O   0  0  0  0  0  0  0  0  0  0  0  0
  -24.2962  -18.5680   24.0480 O   0  0  0  0  0  0  0  0  0  0  0  0
  -19.9907  -24.4261   23.1308 O   0  0  0  0  0  0  0  0  0  0  0  0
  -21.6695   -6.8806   21.3591 O   0  0  0  0  0  0  0  0  0  0  0  0
  -21.7568  -26.5070   23.8696 O   0  0  0  0  0  0  0  0  0  1  0  0
  -21.6824   -4.4548   26.3108 F   0  0  0  0  0  0  0  0  0  0  0  0
  -22.5650   -4.2829   21.6635 F   0  0  0  0  0  0  0  0  0  0  0  0
  -20.9166  -17.4337   20.3382 F   0  0  0  0  0  0  0  0  0  0  0  0
  -20.3905  -20.0368   20.8795 S   0  0  0  0  0  0  0  0  0  0  0  0
  1  2  1  0  0  0  0
  1  5  2  0  0  0  0
  2  6  2  0  0  0  0
  3  8  2  0  0  0  0
  3 15  1  0  0  0  0
  4  9  1  0  0  0  0
  4 15  2  0  0  0  0
  5 17  1  0  0  0  0
  6 19  1  0  0  0  0
  7 10  2  0  0  0  0
  7 18  1  0  0  0  0
  8 21  1  0  0  0  0
  9 21  2  0  0  0  0
 10 22  1  0  0  0  0
 11 12  2  0  0  0  0
 11 23  1  0  0  0  0
 12 24  1  0  0  0  0
 13 20  1  0  0  0  0
 13 22  2  0  0  0  0
 14 24  2  0  0  0  0
 14 25  1  0  0  0  0
 15 26  1  0  0  0  0
 16 26  1  0  0  0  0
 16 28  2  0  0  0  0
 16 32  1  0  0  0  0
 17 19  2  0  0  0  0
 17 39  1  0  0  0  0
 18 20  2  0  0  0  0
 18 40  1  0  0  0  0
 19 48  1  0  0  0  0
 20 41  1  0  0  0  0
 21 78  1  0  0  0  0
 22 79  1  0  0  0  0
 23 25  2  0  0  0  0
 23 78  1  0  0  0  0
 24 80  1  0  0  0  0
 25 81  1  0  0  0  0
 26 59  2  0  0  0  0
 27 29  2  0  0  0  0
 27 60  1  0  0  0  0
 27 66  1  0  0  0  0
 28 61  1  0  0  0  0
 28 64  1  0  0  0  0
 29 82  1  0  0  0  0
 29 83  1  0  0  0  0
 30 60  2  0  0  0  0
 30 67  1  0  0  0  0
 30 83  1  0  0  0  0
 31 33  2  0  0  0  0
 31 79  1  0  0  0  0
 32 65  1  0  0  0  0
 32 71  2  0  0  0  0
 33 34  1  0  0  0  0
 33 77  1  0  0  0  0
 34 67  1  0  0  0  0
 34 72  2  0  0  0  0
 35 49  1  0  0  0  0
 35 68  1  0  0  0  0
 35 73  2  0  0  0  0
 36 56  1  0  0  0  0
 36 62  1  0  0  0  0
 36 74  2  0  0  0  0
 37 57  1  0  0  0  0
 37 69  1  0  0  0  0
 37 75  2  0  0  0  0
 38 63  1  0  0  0  0
 38 66  1  0  0  0  0
 38 76  2  0  0  0  0
 39 42  1  0  0  0  0
 40 49  1  0  0  0  0
 41 62  1  0  0  0  0
 42 44  1  0  0  0  0
 43 45  1  0  0  0  0
 43 46  1  0  0  0  0
 44 48  1  0  0  0  0
 45 50  1  0  0  0  0
 46 63  1  0  0  0  0
 47 50  1  0  0  0  0
 47 63  1  0  0  0  0
 48 68  1  0  0  0  0
 49 62  1  0  0  0  0
 50 61  1  0  0  0  0
 51 57  1  0  0  0  0
 52 58  1  0  0  0  0
 53 58  1  0  0  0  0
 54 58  1  0  0  0  0
 55 70  1  0  0  0  0
 56 58  1  0  0  0  0
 56 69  1  0  0  0  0
 57 70  1  0  0  0  0
 59 61  1  0  0  0  0
M  CHG  1  70   1
M  ISO  4  31 101  38 100  66 100  79 101
M  END
> <Batch ID>
0180

> <Smiles>
CNC(C)C(=O)NC(C(=O)N1Cc2cc([101O:1][101CH2:1]C(=O)C(=O)Nc3nc([100NH:0][100C:0](=O)N4CCCC(n5nc(-c6ccc(Oc7ccc(F)cc7F)cc6)c(C(N)=O)c5N)C4)c(F)s3)ccc2CC1C(=O)NC1CCCc2ccccc21)C(C)(C)C

> <Shape>
0.251

> <Color>
0.110

> <Negative vol penalty>
0.000

$$$$

  -OEChem-04052304503D

 88 96  0     1  0  0  0  0  0999 V2000
  -17.2697  -28.1627   23.4785 C   0  0  0  0  0  0  0  0  0  0  0  0
  -18.4665  -27.4681   23.3353 C   0  0  0  0  0  0  0  0  0  0  0  0
  -23.1588   -9.6947   21.4693 C   0  0  0  0  0  0  0  0  0  0  0  0
  -23.7232  -10.7634   23.5612 C   0  0  0  0  0  0  0  0  0  0  0  0
  -17.2809  -29.5522   23.5933 C   0  0  0  0  0  0  0  0  0  0  0  0
  -19.6753  -28.1627   23.3057 C   0  0  0  0  0  0  0  0  0  0  0  0
  -23.2342  -25.9919   26.1809 C   0  0  0  0  0  0  0  0  0  0  0  0
  -22.4764   -8.6958   22.1637 C   0  0  0  0  0  0  0  0  0  0  0  0
  -23.0408   -9.7646   24.2556 C   0  0  0  0  0  0  0  0  0  0  0  0
  -23.8753  -24.8685   25.6606 C   0  0  0  0  0  0  0  0  0  0  0  0
  -23.2457   -5.9000   23.9003 C   0  0  0  0  0  0  0  0  0  0  0  0
  -23.4598   -4.5782   23.5097 C   0  0  0  0  0  0  0  0  0  0  0  0
  -25.7527  -26.2426   25.0231 C   0  0  0  0  0  0  0  0  0  0  0  0
  -21.1070   -4.3438   23.0130 C   0  0  0  0  0  0  0  0  0  0  0  0
  -23.7823  -10.7285   22.1680 C   0  0  0  0  0  0  0  0  0  0  0  0
  -23.9613  -12.9751   20.9729 C   0  0  0  0  0  0  0  0  0  0  0  0
  -18.4911  -30.2634   23.5748 C   0  0  0  0  0  0  0  0  0  0  0  0
  -23.8438  -27.2530   26.1163 C   0  0  0  0  0  0  0  0  0  0  0  0
  -19.7026  -29.5631   23.4190 C   0  0  0  0  0  0  0  0  0  0  0  0
  -25.1183  -27.3800   25.5456 C   0  0  0  0  0  0  0  0  0  0  0  0
  -22.4174   -8.7308   23.5568 C   0  0  0  0  0  0  0  0  0  0  0  0
  -25.1335  -24.9942   25.0790 C   0  0  0  0  0  0  0  0  0  0  0  0
  -21.9622   -6.4437   23.8474 C   0  0  0  0  0  0  0  0  0  0  0  0
  -22.3905   -3.8001   23.0660 C   0  0  0  0  0  0  0  0  0  0  0  0
  -20.8929   -5.6656   23.4037 C   0  0  0  0  0  0  0  0  0  0  0  0
  -24.4878  -11.7603   21.4513 C   0  0  0  0  0  0  0  0  0  0  0  0
  -29.8716  -20.0278   20.5274 C   0  0  0  0  0  0  0  0  0  0  0  0
  -31.0537  -19.4839   20.0705 C   0  0  0  0  0  0  0  0  0  0  0  0
  -25.0267  -13.5968   20.3688 C   0  0  0  0  0  0  0  0  0  0  0  0
  -29.9712  -17.6215   20.4821 C   0  0  0  0  0  0  0  0  0  0  0  0
  -22.6285  -13.4951   21.0663 C   0  0  0  0  0  0  0  0  0  0  0  0
  -29.4558  -21.4447   20.6910 C   0  0  0  0  0  0  0  0  0  0  0  0
  -23.1235  -30.0248   24.7371 C   0  0  0  0  0  0  0  0  0  0  0  0
  -26.9231  -23.4954   20.1297 C   0  0  0  0  0  0  0  0  0  0  0  0
  -26.6964  -22.8841   22.5797 C   0  0  0  0  0  0  0  0  0  0  0  0
  -25.7304  -31.0659   26.3626 C   0  0  0  0  0  0  0  0  0  0  0  0
  -28.6980  -30.3102   27.8690 C   0  0  0  0  0  0  0  0  0  0  0  0
  -30.3763  -15.1405   20.3174 C   0  0  0  0  0  0  0  0  0  0  0  0
  -18.4497  -31.7689   23.6547 C   0  0  0  0  0  0  0  0  0  0  0  0
  -23.1506  -28.4505   26.7061 C   0  0  0  0  0  0  0  0  0  0  0  0
  -25.8246  -28.7081   25.4698 C   0  0  0  0  0  0  0  0  0  0  0  0
  -19.7992  -32.3983   23.9905 C   0  0  0  0  0  0  0  0  0  0  0  0
  -29.6283  -11.8461   19.1930 C   0  0  0  0  0  0  0  0  0  0  0  0
  -20.9029  -31.7824   23.1365 C   0  0  0  0  0  0  0  0  0  0  0  0
  -28.1809  -11.6300   19.6409 C   0  0  0  0  0  0  0  0  0  0  0  0
  -30.4228  -12.6581   20.2143 C   0  0  0  0  0  0  0  0  0  0  0  0
  -28.3630  -13.7184   21.0524 C   0  0  0  0  0  0  0  0  0  0  0  0
  -21.0359  -30.2789   23.4074 C   0  0  1  0  0  0  0  0  0  0  0  0
  -23.6425  -29.7723   26.1244 C   0  0  1  0  0  0  0  0  0  0  0  0
  -27.5054  -12.9609   20.0257 C   0  0  2  0  0  0  0  0  0  0  0  0
  -26.1273  -23.2692   17.7391 C   0  0  0  0  0  0  0  0  0  0  0  0
  -30.6221  -31.3767   29.0762 C   0  0  0  0  0  0  0  0  0  0  0  0
  -26.8119  -32.1131   23.7087 C   0  0  0  0  0  0  0  0  0  0  0  0
  -29.0685  -32.2912   24.7784 C   0  0  0  0  0  0  0  0  0  0  0  0
  -27.1643  -33.6431   25.6553 C   0  0  0  0  0  0  0  0  0  0  0  0
  -28.1803  -28.7386   30.3227 C   0  0  0  0  0  0  0  0  0  0  0  0
  -26.8310  -22.5967   18.9058 C   0  0  0  0  0  0  0  0  0  0  0  0
  -26.6448  -24.1105   23.4694 C   0  0  0  0  0  0  0  0  0  1  0  0
  -27.6190  -22.9653   21.3764 C   0  0  1  0  0  0  0  0  0  0  0  0
  -27.2092  -31.1496   26.0709 C   0  0  1  0  0  0  0  0  0  0  0  0
  -29.2689  -30.6981   29.2210 C   0  0  2  0  0  0  0  0  0  0  0  0
  -27.5496  -32.2744   25.0528 C   0  0  0  0  0  0  0  0  0  0  0  0
  -25.7866  -11.6167   21.1748 N   0  0  0  0  0  0  0  0  0  0  0  0
  -31.1128  -18.1042   20.0442 N   0  0  0  0  0  0  0  0  0  0  0  0
  -26.0852  -12.7494   20.5160 N   0  0  0  0  0  0  0  0  0  0  0  0
  -25.1031  -29.8504   26.0546 N   0  0  0  0  0  0  0  0  0  0  0  0
  -29.7244  -13.9068   20.5271 N   0  0  0  0  0  0  0  0  0  0  0  0
  -32.1153  -20.2197   19.6621 N   0  0  0  0  0  0  0  0  0  0  0  0
  -25.1519  -14.7801   19.7312 N   0  0  0  0  0  0  0  0  0  0  0  0
  -21.6558  -12.7267   21.7204 N   0  0  0  0  0  0  0  0  0  0  0  0
  -29.6021  -16.2603   20.6194 N   0  0  0  0  0  0  0  0  0  0  0  0
  -28.1731  -21.6541   21.1858 N   0  0  0  0  0  0  0  0  0  0  0  0
  -21.7447  -30.0497   24.6481 N   0  0  0  0  0  0  0  0  0  0  0  0
  -27.8727  -31.2917   27.3624 N   0  0  0  0  0  0  0  0  0  0  0  0
  -29.4379  -29.4905   30.0777 N   0  3  0  0  0  0  0  0  0  0  0  0
  -22.3056  -14.6008   20.5697 O   0  0  0  0  0  0  0  0  0  0  0  0
  -30.2344  -22.3392   20.3712 O   0  0  0  0  0  0  0  0  0  0  0  0
  -23.9153  -30.1866   23.8159 O   0  0  0  0  0  0  0  0  0  0  0  0
  -26.4842  -24.6483   20.1164 O   0  0  0  0  0  0  0  0  0  0  0  0
  -26.0037  -21.8908   22.8020 O   0  0  0  0  0  0  0  0  0  0  0  0
  -25.1545  -32.0406   26.8527 O   0  0  0  0  0  0  0  0  0  0  0  0
  -28.9610  -29.2447   27.3158 O   0  0  0  0  0  0  0  0  0  0  0  0
  -31.5263  -15.1998   19.8749 O   0  0  0  0  0  0  0  0  0  0  0  0
  -21.7514   -7.7564   24.2348 O   0  0  0  0  0  0  0  0  0  0  0  0
  -25.7612  -23.8994   24.5698 O   0  0  0  0  0  0  0  0  0  1  0  0
  -22.5965   -2.5313   22.6895 F   0  0  0  0  0  0  0  0  0  0  0  0
  -19.6578   -6.1829   23.3495 F   0  0  0  0  0  0  0  0  0  0  0  0
  -28.7819  -18.7700   20.9419 S   0  0  0  0  0  0  0  0  0  0  0  0
  1  2  1  0  0  0  0
  1  5  2  0  0  0  0
  2  6  2  0  0  0  0
  3  8  2  0  0  0  0
  3 15  1  0  0  0  0
  4  9  1  0  0  0  0
  4 15  2  0  0  0  0
  5 17  1  0  0  0  0
  6 19  1  0  0  0  0
  7 10  2  0  0  0  0
  7 18  1  0  0  0  0
  8 21  1  0  0  0  0
  9 21  2  0  0  0  0
 10 22  1  0  0  0  0
 11 12  2  0  0  0  0
 11 23  1  0  0  0  0
 12 24  1  0  0  0  0
 13 20  1  0  0  0  0
 13 22  2  0  0  0  0
 14 24  2  0  0  0  0
 14 25  1  0  0  0  0
 15 26  1  0  0  0  0
 16 26  1  0  0  0  0
 16 29  2  0  0  0  0
 16 31  1  0  0  0  0
 17 19  2  0  0  0  0
 17 39  1  0  0  0  0
 18 20  2  0  0  0  0
 18 40  1  0  0  0  0
 19 48  1  0  0  0  0
 20 41  1  0  0  0  0
 21 84  1  0  0  0  0
 22 85  1  0  0  0  0
 23 25  2  0  0  0  0
 23 84  1  0  0  0  0
 24 86  1  0  0  0  0
 25 87  1  0  0  0  0
 26 63  2  0  0  0  0
 27 28  2  0  0  0  0
 27 32  1  0  0  0  0
 27 88  1  0  0  0  0
 28 64  1  0  0  0  0
 28 68  1  0  0  0  0
 29 65  1  0  0  0  0
 29 69  1  0  0  0  0
 30 64  2  0  0  0  0
 30 71  1  0  0  0  0
 30 88  1  0  0  0  0
 31 70  1  0  0  0  0
 31 76  2  0  0  0  0
 32 72  1  0  0  0  0
 32 77  2  0  0  0  0
 33 49  1  0  0  0  0
 33 73  1  0  0  0  0
 33 78  2  0  0  0  0
 34 57  1  0  0  0  0
 34 59  1  0  0  0  0
 34 79  2  0  0  0  0
 35 58  1  0  0  0  0
 35 59  1  0  0  0  0
 35 80  2  0  0  0  0
 36 60  1  0  0  0  0
 36 66  1  0  0  0  0
 36 81  2  0  0  0  0
 37 61  1  0  0  0  0
 37 74  1  0  0  0  0
 37 82  2  0  0  0  0
 38 67  1  0  0  0  0
 38 71  1  0  0  0  0
 38 83  2  0  0  0  0
 39 42  1  0  0  0  0
 40 49  1  0  0  0  0
 41 66  1  0  0  0  0
 42 44  1  0  0  0  0
 43 45  1  0  0  0  0
 43 46  1  0  0  0  0
 44 48  1  0  0  0  0
 45 50  1  0  0  0  0
 46 67  1  0  0  0  0
 47 50  1  0  0  0  0
 47 67  1  0  0  0  0
 48 73  1  0  0  0  0
 49 66  1  0  0  0  0
 50 65  1  0  0  0  0
 51 57  1  0  0  0  0
 52 61  1  0  0  0  0
 53 62  1  0  0  0  0
 54 62  1  0  0  0  0
 55 62  1  0  0  0  0
 56 75  1  0  0  0  0
 58 85  1  0  0  0  0
 59 72  1  0  0  0  0
 60 62  1  0  0  0  0
 60 74  1  0  0  0  0
 61 75  1  0  0  0  0
 63 65  1  0  0  0  0
M  CHG  1  75   1
M  ISO  4  38 100  58 101  71 100  85 101
M  END
> <Batch ID>
0180

> <Smiles>
CCC(=O)C(NC(=O)c1sc([100NH:0][100C:0](=O)N2CCCC(n3nc(-c4ccc(Oc5ccc(F)cc5F)cc4)c(C(N)=O)c3N)C2)nc1N)C(=O)[101CH2:1][101O:1]c1ccc2c(c1)CN(C(=O)C(NC(=O)C(C)NC)C(C)(C)C)C(C(=O)NC1CCCc3ccccc31)C2

> <Shape>
0.296

> <Color>
0.141

> <Negative vol penalty>
0.000

$$$$

  -OEChem-04052304503D

 84 92  0     1  0  0  0  0  0999 V2000
  -33.4030  -12.8009   23.2257 C   0  0  0  0  0  0  0  0  0  0  0  0
  -32.8042  -13.9158   22.6480 C   0  0  0  0  0  0  0  0  0  0  0  0
  -18.8887  -29.8771   23.9536 C   0  0  0  0  0  0  0  0  0  0  0  0
  -19.2936  -27.7581   22.8659 C   0  0  0  0  0  0  0  0  0  0  0  0
  -32.8138  -11.5448   23.0883 C   0  0  0  0  0  0  0  0  0  0  0  0
  -31.6162  -13.7751   21.9316 C   0  0  0  0  0  0  0  0  0  0  0  0
  -27.0043  -17.7927   21.6244 C   0  0  0  0  0  0  0  0  0  0  0  0
  -17.6296  -29.9428   23.3570 C   0  0  0  0  0  0  0  0  0  0  0  0
  -18.0344  -27.8237   22.2694 C   0  0  0  0  0  0  0  0  0  0  0  0
  -26.6576  -18.7519   20.6739 C   0  0  0  0  0  0  0  0  0  0  0  0
  -14.8243  -27.2601   23.1626 C   0  0  0  0  0  0  0  0  0  0  0  0
  -14.0403  -26.1065   23.1785 C   0  0  0  0  0  0  0  0  0  0  0  0
  -25.1223  -17.1884   19.6651 C   0  0  0  0  0  0  0  0  0  0  0  0
  -13.9975  -26.1024   20.7628 C   0  0  0  0  0  0  0  0  0  0  0  0
  -19.7207  -28.7848   23.7080 C   0  0  0  0  0  0  0  0  0  0  0  0
  -21.3449  -28.1401   25.5665 C   0  0  0  0  0  0  0  0  0  0  0  0
  -31.6129  -11.3901   22.3780 C   0  0  0  0  0  0  0  0  0  0  0  0
  -26.4196  -16.5185   21.5959 C   0  0  0  0  0  0  0  0  0  0  0  0
  -31.0111  -12.5156   21.7833 C   0  0  0  0  0  0  0  0  0  0  0  0
  -25.4614  -16.2158   20.6180 C   0  0  0  0  0  0  0  0  0  0  0  0
  -17.2024  -28.9161   22.5149 C   0  0  0  0  0  0  0  0  0  0  0  0
  -25.7186  -18.4489   19.6923 C   0  0  0  0  0  0  0  0  0  0  0  0
  -15.1948  -27.8349   21.9469 C   0  0  0  0  0  0  0  0  0  0  0  0
  -13.6270  -25.5276   21.9786 C   0  0  0  0  0  0  0  0  0  0  0  0
  -14.7814  -27.2560   20.7470 C   0  0  0  0  0  0  0  0  0  0  0  0
  -21.0217  -28.7166   24.3235 C   0  0  0  0  0  0  0  0  0  0  0  0
  -28.1439  -24.7211   19.7088 C   0  0  0  0  0  0  0  0  0  0  0  0
  -29.1143  -25.7001   19.7533 C   0  0  0  0  0  0  0  0  0  0  0  0
  -22.6989  -28.3331   25.6928 C   0  0  0  0  0  0  0  0  0  0  0  0
  -27.4872  -26.8042   20.7245 C   0  0  0  0  0  0  0  0  0  0  0  0
  -20.4971  -27.4884   26.5216 C   0  0  0  0  0  0  0  0  0  0  0  0
  -28.1864  -23.3383   19.1684 C   0  0  0  0  0  0  0  0  0  0  0  0
  -27.5116  -13.5575   21.2165 C   0  0  0  0  0  0  0  0  0  0  0  0
  -24.4413  -12.7558   21.8894 C   0  0  0  0  0  0  0  0  0  0  0  0
  -21.1531  -13.6678   21.9389 C   0  0  0  0  0  0  0  0  0  0  0  0
  -26.8483  -21.2836   18.8720 C   0  0  0  0  0  0  0  0  0  0  0  0
  -27.1028  -29.0843   21.7246 C   0  0  0  0  0  0  0  0  0  0  0  0
  -31.0384  -10.0050   22.2162 C   0  0  0  0  0  0  0  0  0  0  0  0
  -26.7846  -15.5038   22.6445 C   0  0  0  0  0  0  0  0  0  0  0  0
  -24.7895  -14.8692   20.5561 C   0  0  0  0  0  0  0  0  0  0  0  0
  -29.5820   -9.9992   21.7590 C   0  0  0  0  0  0  0  0  0  0  0  0
  -26.1982  -31.3137   24.3492 C   0  0  0  0  0  0  0  0  0  0  0  0
  -29.3828  -10.9692   20.5987 C   0  0  0  0  0  0  0  0  0  0  0  0
  -24.8000  -30.8444   24.7577 C   0  0  0  0  0  0  0  0  0  0  0  0
  -26.4183  -31.1956   22.8421 C   0  0  0  0  0  0  0  0  0  0  0  0
  -24.7375  -29.4014   22.6839 C   0  0  0  0  0  0  0  0  0  0  0  0
  -29.7091  -12.4072   21.0196 C   0  0  1  0  0  0  0  0  0  0  0  0
  -26.5063  -14.0683   22.2095 C   0  0  1  0  0  0  0  0  0  0  0  0
  -24.4917  -29.4406   24.2010 C   0  0  2  0  0  0  0  0  0  0  0  0
  -18.8726  -12.7865   22.5047 C   0  0  0  0  0  0  0  0  0  0  0  0
  -24.3976  -21.5281   18.3869 C   0  0  0  0  0  0  0  0  0  0  0  0
  -24.4318  -11.1297   19.3076 C   0  0  0  0  0  0  0  0  0  0  0  0
  -21.9321  -11.0720   19.4352 C   0  0  0  0  0  0  0  0  0  0  0  0
  -23.2959  -10.0233   21.2415 C   0  0  0  0  0  0  0  0  0  0  0  0
  -20.7404  -15.7381   24.0131 C   0  0  0  0  0  0  0  0  0  0  0  0
  -23.1885  -12.5437   21.0742 C   0  0  1  0  0  0  0  0  0  0  0  0
  -20.0892  -13.5432   23.0146 C   0  0  2  0  0  0  0  0  0  0  0  0
  -25.4510  -20.7515   19.1609 C   0  0  1  0  0  0  0  0  0  1  0  0
  -23.2260  -11.2170   20.2644 C   0  0  0  0  0  0  0  0  0  0  0  0
  -22.0847  -29.2369   23.7045 N   0  0  0  0  0  0  0  0  0  0  0  0
  -28.7394  -26.8954   20.3350 N   0  0  0  0  0  0  0  0  0  0  0  0
  -23.0891  -28.9882   24.5620 N   0  0  0  0  0  0  0  0  0  0  0  0
  -25.1846  -13.9087   21.5997 N   0  0  0  0  0  0  0  0  0  0  0  0
  -26.1108  -29.8379   22.3869 N   0  0  0  0  0  0  0  0  0  0  0  0
  -30.3697  -25.5412   19.2697 N   0  0  0  0  0  0  0  0  0  0  0  0
  -23.5819  -28.0046   26.6597 N   0  0  0  0  0  0  0  0  0  0  0  0
  -19.1300  -27.3757   26.2340 N   0  0  0  0  0  0  0  0  0  0  0  0
  -26.7058  -27.7960   21.3677 N   0  0  0  0  0  0  0  0  0  0  0  0
  -27.0062  -22.6066   19.2889 N   0  0  0  0  0  0  0  0  0  0  0  0
  -28.6207  -12.9672   21.7918 N   0  0  0  0  0  0  0  0  0  0  0  0
  -22.0722  -12.6423   22.0082 N   0  0  0  0  0  0  0  0  0  0  0  0
  -19.6479  -14.8933   23.4656 N   0  3  0  0  0  0  0  0  0  0  0  0
  -20.9359  -27.0345   27.6055 O   0  0  0  0  0  0  0  0  0  0  0  0
  -29.2333  -22.9179   18.6835 O   0  0  0  0  0  0  0  0  0  0  0  0
  -27.2963  -13.6878   20.0172 O   0  0  0  0  0  0  0  0  0  0  0  0
  -24.7452  -11.9326   22.7564 O   0  0  0  0  0  0  0  0  0  0  0  0
  -21.1652  -14.5814   21.1167 O   0  0  0  0  0  0  0  0  0  0  0  0
  -27.7207  -20.5947   18.3482 O   0  0  0  0  0  0  0  0  0  0  0  0
  -28.2308  -29.5379   21.5154 O   0  0  0  0  0  0  0  0  0  0  0  0
  -15.9738  -28.9797   21.9328 O   0  0  0  0  0  0  0  0  0  0  0  0
  -25.3789  -19.3830   18.7628 O   0  0  0  0  0  0  0  0  0  1  0  0
  -12.8755  -24.4189   21.9940 F   0  0  0  0  0  0  0  0  0  0  0  0
  -15.1352  -27.8030   19.5759 F   0  0  0  0  0  0  0  0  0  0  0  0
  -26.7000  -25.3094   20.4232 S   0  0  0  0  0  0  0  0  0  0  0  0
  1  2  1  0  0  0  0
  1  5  2  0  0  0  0
  2  6  2  0  0  0  0
  3  8  2  0  0  0  0
  3 15  1  0  0  0  0
  4  9  1  0  0  0  0
  4 15  2  0  0  0  0
  5 17  1  0  0  0  0
  6 19  1  0  0  0  0
  7 10  2  0  0  0  0
  7 18  1  0  0  0  0
  8 21  1  0  0  0  0
  9 21  2  0  0  0  0
 10 22  1  0  0  0  0
 11 12  2  0  0  0  0
 11 23  1  0  0  0  0
 12 24  1  0  0  0  0
 13 20  1  0  0  0  0
 13 22  2  0  0  0  0
 14 24  2  0  0  0  0
 14 25  1  0  0  0  0
 15 26  1  0  0  0  0
 16 26  1  0  0  0  0
 16 29  2  0  0  0  0
 16 31  1  0  0  0  0
 17 19  2  0  0  0  0
 17 38  1  0  0  0  0
 18 20  2  0  0  0  0
 18 39  1  0  0  0  0
 19 47  1  0  0  0  0
 20 40  1  0  0  0  0
 21 80  1  0  0  0  0
 22 81  1  0  0  0  0
 23 25  2  0  0  0  0
 23 80  1  0  0  0  0
 24 82  1  0  0  0  0
 25 83  1  0  0  0  0
 26 60  2  0  0  0  0
 27 28  2  0  0  0  0
 27 32  1  0  0  0  0
 27 84  1  0  0  0  0
 28 61  1  0  0  0  0
 28 65  1  0  0  0  0
 29 62  1  0  0  0  0
 29 66  1  0  0  0  0
 30 61  2  0  0  0  0
 30 68  1  0  0  0  0
 30 84  1  0  0  0  0
 31 67  1  0  0  0  0
 31 73  2  0  0  0  0
 32 69  1  0  0  0  0
 32 74  2  0  0  0  0
 33 48  1  0  0  0  0
 33 70  1  0  0  0  0
 33 75  2  0  0  0  0
 34 56  1  0  0  0  0
 34 63  1  0  0  0  0
 34 76  2  0  0  0  0
 35 57  1  0  0  0  0
 35 71  1  0  0  0  0
 35 77  2  0  0  0  0
 36 58  1  0  0  0  0
 36 69  1  0  0  0  0
 36 78  2  0  0  0  0
 37 64  1  0  0  0  0
 37 68  1  0  0  0  0
 37 79  2  0  0  0  0
 38 41  1  0  0  0  0
 39 48  1  0  0  0  0
 40 63  1  0  0  0  0
 41 43  1  0  0  0  0
 42 44  1  0  0  0  0
 42 45  1  0  0  0  0
 43 47  1  0  0  0  0
 44 49  1  0  0  0  0
 45 64  1  0  0  0  0
 46 49  1  0  0  0  0
 46 64  1  0  0  0  0
 47 70  1  0  0  0  0
 48 63  1  0  0  0  0
 49 62  1  0  0  0  0
 50 57  1  0  0  0  0
 51 58  1  0  0  0  0
 52 59  1  0  0  0  0
 53 59  1  0  0  0  0
 54 59  1  0  0  0  0
 55 72  1  0  0  0  0
 56 59  1  0  0  0  0
 56 71  1  0  0  0  0
 57 72  1  0  0  0  0
 58 81  1  0  0  0  0
 60 62  1  0  0  0  0
M  CHG  1  72   1
M  ISO  4  37 100  58 101  68 100  81 101
M  END
> <Batch ID>
0180

> <Smiles>
CNC(C)C(=O)NC(C(=O)N1Cc2cc([101O:1][101CH:1](C)C(=O)NC(=O)c3sc([100NH:0][100C:0](=O)N4CCCC(n5nc(-c6ccc(Oc7ccc(F)cc7F)cc6)c(C(N)=O)c5N)C4)nc3N)ccc2CC1C(=O)NC1CCCc2ccccc21)C(C)(C)C

> <Shape>
0.224

> <Color>
0.077

> <Negative vol penalty>
0.000

$$$$

  -OEChem-04052304503D

 83 91  0     1  0  0  0  0  0999 V2000
  -19.4510  -17.0622   28.8686 C   0  0  0  0  0  0  0  0  0  0  0  0
  -20.7340  -16.8167   29.3473 C   0  0  0  0  0  0  0  0  0  0  0  0
  -23.1900   -9.8197   19.9310 C   0  0  0  0  0  0  0  0  0  0  0  0
  -23.5686   -9.9996   22.3103 C   0  0  0  0  0  0  0  0  0  0  0  0
  -18.4824  -16.0612   28.9284 C   0  0  0  0  0  0  0  0  0  0  0  0
  -21.0488  -15.5701   29.8871 C   0  0  0  0  0  0  0  0  0  0  0  0
  -25.5008  -13.8074   28.2388 C   0  0  0  0  0  0  0  0  0  0  0  0
  -22.4240   -8.6728   20.1396 C   0  0  0  0  0  0  0  0  0  0  0  0
  -22.8024   -8.8528   22.5190 C   0  0  0  0  0  0  0  0  0  0  0  0
  -26.6510  -14.3409   28.8188 C   0  0  0  0  0  0  0  0  0  0  0  0
  -21.2456   -5.7685   23.6474 C   0  0  0  0  0  0  0  0  0  0  0  0
  -21.7423   -4.8086   24.5291 C   0  0  0  0  0  0  0  0  0  0  0  0
  -26.8276  -12.3997   30.2399 C   0  0  0  0  0  0  0  0  0  0  0  0
  -23.7008   -4.5452   23.1392 C   0  0  0  0  0  0  0  0  0  0  0  0
  -23.7624  -10.4831   21.0164 C   0  0  0  0  0  0  0  0  0  0  0  0
  -24.1006  -12.9998   20.7731 C   0  0  0  0  0  0  0  0  0  0  0  0
  -18.7882  -14.7986   29.4603 C   0  0  0  0  0  0  0  0  0  0  0  0
  -24.9984  -12.5690   28.6634 C   0  0  0  0  0  0  0  0  0  0  0  0
  -20.0830  -14.5516   29.9553 C   0  0  0  0  0  0  0  0  0  0  0  0
  -25.6724  -11.8515   29.6620 C   0  0  0  0  0  0  0  0  0  0  0  0
  -22.2301   -8.1894   21.4335 C   0  0  0  0  0  0  0  0  0  0  0  0
  -27.3130  -13.6384   29.8214 C   0  0  0  0  0  0  0  0  0  0  0  0
  -21.9765   -6.1168   22.5115 C   0  0  0  0  0  0  0  0  0  0  0  0
  -22.9698   -4.1969   24.2751 C   0  0  0  0  0  0  0  0  0  0  0  0
  -23.2041   -5.5051   22.2574 C   0  0  0  0  0  0  0  0  0  0  0  0
  -24.5543  -11.6674   20.8015 C   0  0  0  0  0  0  0  0  0  0  0  0
  -31.8839  -13.4354   26.3813 C   0  0  0  0  0  0  0  0  0  0  0  0
  -32.9094  -13.6178   25.4773 C   0  0  0  0  0  0  0  0  0  0  0  0
  -25.2317  -13.7427   20.5378 C   0  0  0  0  0  0  0  0  0  0  0  0
  -31.3187  -13.0786   24.0670 C   0  0  0  0  0  0  0  0  0  0  0  0
  -22.7754  -13.5195   20.9441 C   0  0  0  0  0  0  0  0  0  0  0  0
  -31.8684  -13.5658   27.8683 C   0  0  0  0  0  0  0  0  0  0  0  0
  -22.2902  -11.5888   30.0081 C   0  0  0  0  0  0  0  0  0  0  0  0
  -23.5839   -8.6491   29.5532 C   0  0  0  0  0  0  0  0  0  0  0  0
  -26.3891   -6.7525   29.1278 C   0  0  0  0  0  0  0  0  0  0  0  0
  -31.0364  -12.7827   21.5813 C   0  0  0  0  0  0  0  0  0  0  0  0
  -17.6949  -13.7633   29.5471 C   0  0  0  0  0  0  0  0  0  0  0  0
  -23.7718  -11.9949   28.0092 C   0  0  0  0  0  0  0  0  0  0  0  0
  -25.1854  -10.5085   30.1392 C   0  0  0  0  0  0  0  0  0  0  0  0
  -18.2137  -12.3485   29.7909 C   0  0  0  0  0  0  0  0  0  0  0  0
  -29.5235  -13.4649   18.4312 C   0  0  0  0  0  0  0  0  0  0  0  0
  -19.2563  -12.3467   30.9044 C   0  0  0  0  0  0  0  0  0  0  0  0
  -28.0354  -13.2085   18.6806 C   0  0  0  0  0  0  0  0  0  0  0  0
  -30.4048  -12.4798   19.1971 C   0  0  0  0  0  0  0  0  0  0  0  0
  -28.6453  -12.1376   20.8871 C   0  0  0  0  0  0  0  0  0  0  0  0
  -20.4698  -13.2042   30.5253 C   0  0  1  0  0  0  0  0  0  0  0  0
  -23.0583  -10.9637   28.8781 C   0  0  1  0  0  0  0  0  0  0  0  0
  -27.7192  -13.1462   20.1878 C   0  0  2  0  0  0  0  0  0  0  0  0
  -34.2971  -14.0065   25.8026 C   0  0  0  0  0  0  0  0  0  0  0  0
  -27.7700   -4.7064   28.6765 C   0  0  0  0  0  0  0  0  0  0  0  0
  -29.5784  -13.4334   32.3716 C   0  0  0  0  0  0  0  0  0  0  0  0
  -23.1134   -8.1203   32.5212 C   0  0  0  0  0  0  0  0  0  0  0  0
  -24.6941   -6.1858   32.3558 C   0  0  0  0  0  0  0  0  0  0  0  0
  -22.5866   -6.1898   31.0212 C   0  0  0  0  0  0  0  0  0  0  0  0
  -26.3280   -7.2142   26.2051 C   0  0  0  0  0  0  0  0  0  0  0  0
  -30.5678  -13.2980   28.6115 C   0  0  0  0  0  0  0  0  0  0  0  0
  -30.7267  -13.4525   30.1283 C   0  0  0  0  0  0  0  0  0  0  0  0
  -24.4745   -7.7364   30.3611 C   0  0  1  0  0  0  0  0  0  0  0  0
  -26.7273   -5.6655   28.1237 C   0  0  2  0  0  0  0  0  0  0  0  0
  -29.4070  -13.2301   30.8722 C   0  0  2  0  0  0  0  0  0  1  0  0
  -23.7255   -7.0842   31.5574 C   0  0  0  0  0  0  0  0  0  0  0  0
  -25.8709  -11.5666   20.6002 N   0  0  0  0  0  0  0  0  0  0  0  0
  -32.5873  -13.4132   24.1499 N   0  0  0  0  0  0  0  0  0  0  0  0
  -26.2542  -12.8451   20.4429 N   0  0  0  0  0  0  0  0  0  0  0  0
  -23.9783   -9.9922   29.4730 N   0  0  0  0  0  0  0  0  0  0  0  0
  -30.0513  -12.4779   20.6183 N   0  0  0  0  0  0  0  0  0  0  0  0
  -25.4414  -15.0696   20.4048 N   0  0  0  0  0  0  0  0  0  0  0  0
  -21.7289  -12.6170   21.1781 N   0  0  0  0  0  0  0  0  0  0  0  0
  -30.5758  -12.7820   22.8975 N   0  0  0  0  0  0  0  0  0  0  0  0
  -21.3247  -12.4899   29.6016 N   0  0  0  0  0  0  0  0  0  0  0  0
  -25.0412   -6.7789   29.4174 N   0  0  0  0  0  0  0  0  0  0  0  0
  -27.2605   -6.2671   26.8688 N   0  3  0  0  0  0  0  0  0  0  0  0
  -22.5239  -14.7465   20.8747 O   0  0  0  0  0  0  0  0  0  0  0  0
  -32.9002  -13.8874   28.4531 O   0  0  0  0  0  0  0  0  0  0  0  0
  -22.5530  -11.2756   31.1634 O   0  0  0  0  0  0  0  0  0  0  0  0
  -22.5794   -8.1860   29.0073 O   0  0  0  0  0  0  0  0  0  0  0  0
  -27.2364   -7.5009   29.6101 O   0  0  0  0  0  0  0  0  0  0  0  0
  -32.1964  -13.0530   21.2598 O   0  0  0  0  0  0  0  0  0  0  0  0
  -21.4825   -7.0705   21.6375 O   0  0  0  0  0  0  0  0  0  0  0  0
  -28.4354  -14.1571   30.3896 O   0  0  0  0  0  0  0  0  0  1  0  0
  -23.4474   -3.2763   25.1227 F   0  0  0  0  0  0  0  0  0  0  0  0
  -23.9114   -5.8364   21.1685 F   0  0  0  0  0  0  0  0  0  0  0  0
  -30.4532  -12.9915   25.5463 S   0  0  0  0  0  0  0  0  0  0  0  0
  1  2  1  0  0  0  0
  1  5  2  0  0  0  0
  2  6  2  0  0  0  0
  3  8  2  0  0  0  0
  3 15  1  0  0  0  0
  4  9  1  0  0  0  0
  4 15  2  0  0  0  0
  5 17  1  0  0  0  0
  6 19  1  0  0  0  0
  7 10  2  0  0  0  0
  7 18  1  0  0  0  0
  8 21  1  0  0  0  0
  9 21  2  0  0  0  0
 10 22  1  0  0  0  0
 11 12  2  0  0  0  0
 11 23  1  0  0  0  0
 12 24  1  0  0  0  0
 13 20  1  0  0  0  0
 13 22  2  0  0  0  0
 14 24  2  0  0  0  0
 14 25  1  0  0  0  0
 15 26  1  0  0  0  0
 16 26  1  0  0  0  0
 16 29  2  0  0  0  0
 16 31  1  0  0  0  0
 17 19  2  0  0  0  0
 17 37  1  0  0  0  0
 18 20  2  0  0  0  0
 18 38  1  0  0  0  0
 19 46  1  0  0  0  0
 20 39  1  0  0  0  0
 21 79  1  0  0  0  0
 22 80  1  0  0  0  0
 23 25  2  0  0  0  0
 23 79  1  0  0  0  0
 24 81  1  0  0  0  0
 25 82  1  0  0  0  0
 26 62  2  0  0  0  0
 27 28  2  0  0  0  0
 27 32  1  0  0  0  0
 27 83  1  0  0  0  0
 28 49  1  0  0  0  0
 28 63  1  0  0  0  0
 29 64  1  0  0  0  0
 29 67  1  0  0  0  0
 30 63  2  0  0  0  0
 30 69  1  0  0  0  0
 30 83  1  0  0  0  0
 31 68  1  0  0  0  0
 31 73  2  0  0  0  0
 32 56  1  0  0  0  0
 32 74  2  0  0  0  0
 33 47  1  0  0  0  0
 33 70  1  0  0  0  0
 33 75  2  0  0  0  0
 34 58  1  0  0  0  0
 34 65  1  0  0  0  0
 34 76  2  0  0  0  0
 35 59  1  0  0  0  0
 35 71  1  0  0  0  0
 35 77  2  0  0  0  0
 36 66  1  0  0  0  0
 36 69  1  0  0  0  0
 36 78  2  0  0  0  0
 37 40  1  0  0  0  0
 38 47  1  0  0  0  0
 39 65  1  0  0  0  0
 40 42  1  0  0  0  0
 41 43  1  0  0  0  0
 41 44  1  0  0  0  0
 42 46  1  0  0  0  0
 43 48  1  0  0  0  0
 44 66  1  0  0  0  0
 45 48  1  0  0  0  0
 45 66  1  0  0  0  0
 46 70  1  0  0  0  0
 47 65  1  0  0  0  0
 48 64  1  0  0  0  0
 50 59  1  0  0  0  0
 51 60  1  0  0  0  0
 52 61  1  0  0  0  0
 53 61  1  0  0  0  0
 54 61  1  0  0  0  0
 55 72  1  0  0  0  0
 56 57  1  0  0  0  0
 57 60  1  0  0  0  0
 58 61  1  0  0  0  0
 58 71  1  0  0  0  0
 59 72  1  0  0  0  0
 60 80  1  0  0  0  0
 62 64  1  0  0  0  0
M  CHG  1  72   1
M  ISO  4  36 100  60 101  69 100  80 101
M  END
> <Batch ID>
0180

> <Smiles>
CNC(C)C(=O)NC(C(=O)N1Cc2cc([101O:1][101CH:1](C)CCC(=O)c3sc([100NH:0][100C:0](=O)N4CCCC(n5nc(-c6ccc(Oc7ccc(F)cc7F)cc6)c(C(N)=O)c5N)C4)nc3C)ccc2CC1C(=O)NC1CCCc2ccccc21)C(C)(C)C

> <Shape>
0.139

> <Color>
0.182

> <Negative vol penalty>
0.000

$$$$

  -OEChem-04052304503D

 85 93  0     1  0  0  0  0  0999 V2000
  -17.1540  -23.7905   23.4881 C   0  0  0  0  0  0  0  0  0  0  0  0
  -18.4237  -23.3268   23.8168 C   0  0  0  0  0  0  0  0  0  0  0  0
  -22.9818   -9.9197   20.0313 C   0  0  0  0  0  0  0  0  0  0  0  0
  -23.7020  -10.0078   22.3358 C   0  0  0  0  0  0  0  0  0  0  0  0
  -17.0106  -24.9790   22.7735 C   0  0  0  0  0  0  0  0  0  0  0  0
  -19.5509  -24.0509   23.4302 C   0  0  0  0  0  0  0  0  0  0  0  0
  -24.8001  -24.6254   26.5322 C   0  0  0  0  0  0  0  0  0  0  0  0
  -22.2076   -8.7950   20.3163 C   0  0  0  0  0  0  0  0  0  0  0  0
  -22.9278   -8.8831   22.6208 C   0  0  0  0  0  0  0  0  0  0  0  0
  -26.0294  -23.9768   26.4239 C   0  0  0  0  0  0  0  0  0  0  0  0
  -23.1524   -5.5347   22.2098 C   0  0  0  0  0  0  0  0  0  0  0  0
  -23.7318   -4.5277   22.9815 C   0  0  0  0  0  0  0  0  0  0  0  0
  -26.8539  -25.7816   25.0520 C   0  0  0  0  0  0  0  0  0  0  0  0
  -22.0057   -4.8115   24.6479 C   0  0  0  0  0  0  0  0  0  0  0  0
  -23.7291  -10.5261   21.0411 C   0  0  0  0  0  0  0  0  0  0  0  0
  -24.1304  -13.0357   20.8207 C   0  0  0  0  0  0  0  0  0  0  0  0
  -18.1362  -25.7231   22.3863 C   0  0  0  0  0  0  0  0  0  0  0  0
  -24.5845  -25.8538   25.8911 C   0  0  0  0  0  0  0  0  0  0  0  0
  -19.4225  -25.2498   22.7086 C   0  0  0  0  0  0  0  0  0  0  0  0
  -25.6218  -26.4450   25.1558 C   0  0  0  0  0  0  0  0  0  0  0  0
  -22.1806   -8.2767   21.6110 C   0  0  0  0  0  0  0  0  0  0  0  0
  -27.0557  -24.5535   25.6813 C   0  0  0  0  0  0  0  0  0  0  0  0
  -21.9996   -6.1803   22.6571 C   0  0  0  0  0  0  0  0  0  0  0  0
  -23.1585   -4.1660   24.2006 C   0  0  0  0  0  0  0  0  0  0  0  0
  -21.4262   -5.8186   23.8762 C   0  0  0  0  0  0  0  0  0  0  0  0
  -24.5294  -11.6877   20.7473 C   0  0  0  0  0  0  0  0  0  0  0  0
  -31.8766  -18.6734   22.1231 C   0  0  0  0  0  0  0  0  0  0  0  0
  -25.2455  -13.7447   20.4460 C   0  0  0  0  0  0  0  0  0  0  0  0
  -30.7710  -19.0962   22.8309 C   0  0  0  0  0  0  0  0  0  0  0  0
  -30.6041  -16.9112   21.8307 C   0  0  0  0  0  0  0  0  0  0  0  0
  -28.2800  -22.6761   25.0127 C   0  0  0  0  0  0  0  0  0  1  0  0
  -22.8650  -13.5968   21.1942 C   0  0  0  0  0  0  0  0  0  0  0  0
  -33.0764  -19.4473   21.9621 C   0  0  0  0  0  0  0  0  0  0  0  0
  -29.4034  -21.9651   24.8573 C   0  0  0  0  0  0  0  0  0  0  0  0
  -29.3231  -20.6061   24.2289 C   0  0  0  0  0  0  0  0  0  0  0  0
  -22.6050  -26.8863   23.6285 C   0  0  0  0  0  0  0  0  0  0  0  0
  -23.9090  -29.7680   24.3482 C   0  0  0  0  0  0  0  0  0  0  0  0
  -26.5451  -31.5167   25.6287 C   0  0  0  0  0  0  0  0  0  0  0  0
  -30.7303  -14.6759   20.6758 C   0  0  0  0  0  0  0  0  0  0  0  0
  -17.9329  -26.9775   21.5740 C   0  0  0  0  0  0  0  0  0  0  0  0
  -23.2614  -26.5536   26.0398 C   0  0  0  0  0  0  0  0  0  0  0  0
  -25.4479  -27.7721   24.4652 C   0  0  0  0  0  0  0  0  0  0  0  0
  -19.1641  -27.8789   21.5270 C   0  0  0  0  0  0  0  0  0  0  0  0
  -29.6021  -12.1885   18.3917 C   0  0  0  0  0  0  0  0  0  0  0  0
  -20.4152  -27.0586   21.2291 C   0  0  0  0  0  0  0  0  0  0  0  0
  -28.1490  -11.9474   18.8070 C   0  0  0  0  0  0  0  0  0  0  0  0
  -30.5013  -12.4481   19.5991 C   0  0  0  0  0  0  0  0  0  0  0  0
  -28.5879  -13.2727   20.9136 C   0  0  0  0  0  0  0  0  0  0  0  0
  -20.6685  -26.0199   22.3285 C   0  0  1  0  0  0  0  0  0  0  0  0
  -22.9847  -27.5527   24.9206 C   0  0  1  0  0  0  0  0  0  0  0  0
  -27.6318  -13.0709   19.7266 C   0  0  2  0  0  0  0  0  0  0  0  0
  -34.2052  -18.8498   21.1578 C   0  0  0  0  0  0  0  0  0  0  0  0
  -27.3367  -33.8608   26.0478 C   0  0  0  0  0  0  0  0  0  0  0  0
  -24.5433  -30.0819   21.3802 C   0  0  0  0  0  0  0  0  0  0  0  0
  -26.1291  -31.9225   21.9851 C   0  0  0  0  0  0  0  0  0  0  0  0
  -23.6977  -32.1567   22.4913 C   0  0  0  0  0  0  0  0  0  0  0  0
  -26.6935  -31.0679   28.5503 C   0  0  0  0  0  0  0  0  0  0  0  0
  -25.0993  -30.5556   23.8565 C   0  0  1  0  0  0  0  0  0  0  0  0
  -26.6066  -32.6589   26.6267 C   0  0  2  0  0  0  0  0  0  0  0  0
  -24.8703  -31.1532   22.4396 C   0  0  0  0  0  0  0  0  0  0  0  0
  -25.7988  -11.5462   20.3565 N   0  0  0  0  0  0  0  0  0  0  0  0
  -31.7828  -17.4205   21.5492 N   0  0  0  0  0  0  0  0  0  0  0  0
  -26.2071  -12.8145   20.1809 N   0  0  0  0  0  0  0  0  0  0  0  0
  -24.1339  -28.4142   24.6351 N   0  0  0  0  0  0  0  0  0  0  0  0
  -29.9510  -13.5274   20.4218 N   0  0  0  0  0  0  0  0  0  0  0  0
  -25.4875  -15.0669   20.3206 N   0  0  0  0  0  0  0  0  0  0  0  0
  -21.8269  -12.7254   21.5512 N   0  0  0  0  0  0  0  0  0  0  0  0
  -30.4867  -20.2865   23.5428 N   0  0  0  0  0  0  0  0  0  0  0  0
  -30.0902  -15.6490   21.4426 N   0  0  0  0  0  0  0  0  0  0  0  0
  -21.2502  -26.6497   23.4944 N   0  0  0  0  0  0  0  0  0  0  0  0
  -25.3841  -31.5499   24.8855 N   0  0  0  0  0  0  0  0  0  0  0  0
  -27.3175  -32.2282   27.8637 N   0  3  0  0  0  0  0  0  0  0  0  0
  -22.6559  -14.8337   21.1952 O   0  0  0  0  0  0  0  0  0  0  0  0
  -33.2767  -20.5792   22.4349 O   0  0  0  0  0  0  0  0  0  0  0  0
  -28.3172  -19.9150   24.3488 O   0  0  0  0  0  0  0  0  0  0  0  0
  -23.4765  -26.6088   22.8129 O   0  0  0  0  0  0  0  0  0  0  0  0
  -22.8213  -30.3349   24.4798 O   0  0  0  0  0  0  0  0  0  0  0  0
  -27.4393  -30.6810   25.5168 O   0  0  0  0  0  0  0  0  0  0  0  0
  -31.8709  -14.7995   20.2221 O   0  0  0  0  0  0  0  0  0  0  0  0
  -30.6395  -22.4346   25.2526 O   0  0  0  0  0  0  0  0  0  0  0  0
  -21.4250   -7.1793   21.8894 O   0  0  0  0  0  0  0  0  0  0  0  0
  -28.2564  -23.9222   25.5734 O   0  0  0  0  0  0  0  0  0  1  0  0
  -23.7142   -3.1979   24.9409 F   0  0  0  0  0  0  0  0  0  0  0  0
  -20.3181   -6.4343   24.3106 F   0  0  0  0  0  0  0  0  0  0  0  0
  -29.5580  -17.8847   22.7810 S   0  0  0  0  0  0  0  0  0  0  0  0
  1  2  1  0  0  0  0
  1  5  2  0  0  0  0
  2  6  2  0  0  0  0
  3  8  2  0  0  0  0
  3 15  1  0  0  0  0
  4  9  1  0  0  0  0
  4 15  2  0  0  0  0
  5 17  1  0  0  0  0
  6 19  1  0  0  0  0
  7 10  2  0  0  0  0
  7 18  1  0  0  0  0
  8 21  1  0  0  0  0
  9 21  2  0  0  0  0
 10 22  1  0  0  0  0
 11 12  2  0  0  0  0
 11 23  1  0  0  0  0
 12 24  1  0  0  0  0
 13 20  1  0  0  0  0
 13 22  2  0  0  0  0
 14 24  2  0  0  0  0
 14 25  1  0  0  0  0
 15 26  1  0  0  0  0
 16 26  1  0  0  0  0
 16 28  2  0  0  0  0
 16 32  1  0  0  0  0
 17 19  2  0  0  0  0
 17 40  1  0  0  0  0
 18 20  2  0  0  0  0
 18 41  1  0  0  0  0
 19 49  1  0  0  0  0
 20 42  1  0  0  0  0
 21 81  1  0  0  0  0
 22 82  1  0  0  0  0
 23 25  2  0  0  0  0
 23 81  1  0  0  0  0
 24 83  1  0  0  0  0
 25 84  1  0  0  0  0
 26 61  2  0  0  0  0
 27 29  2  0  0  0  0
 27 33  1  0  0  0  0
 27 62  1  0  0  0  0
 28 63  1  0  0  0  0
 28 66  1  0  0  0  0
 29 68  1  0  0  0  0
 29 85  1  0  0  0  0
 30 62  2  0  0  0  0
 30 69  1  0  0  0  0
 30 85  1  0  0  0  0
 31 34  2  0  0  0  0
 31 82  1  0  0  0  0
 32 67  1  0  0  0  0
 32 73  2  0  0  0  0
 33 52  1  0  0  0  0
 33 74  2  0  0  0  0
 34 35  1  0  0  0  0
 34 80  1  0  0  0  0
 35 68  1  0  0  0  0
 35 75  2  0  0  0  0
 36 50  1  0  0  0  0
 36 70  1  0  0  0  0
 36 76  2  0  0  0  0
 37 58  1  0  0  0  0
 37 64  1  0  0  0  0
 37 77  2  0  0  0  0
 38 59  1  0  0  0  0
 38 71  1  0  0  0  0
 38 78  2  0  0  0  0
 39 65  1  0  0  0  0
 39 69  1  0  0  0  0
 39 79  2  0  0  0  0
 40 43  1  0  0  0  0
 41 50  1  0  0  0  0
 42 64  1  0  0  0  0
 43 45  1  0  0  0  0
 44 46  1  0  0  0  0
 44 47  1  0  0  0  0
 45 49  1  0  0  0  0
 46 51  1  0  0  0  0
 47 65  1  0  0  0  0
 48 51  1  0  0  0  0
 48 65  1  0  0  0  0
 49 70  1  0  0  0  0
 50 64  1  0  0  0  0
 51 63  1  0  0  0  0
 53 59  1  0  0  0  0
 54 60  1  0  0  0  0
 55 60  1  0  0  0  0
 56 60  1  0  0  0  0
 57 72  1  0  0  0  0
 58 60  1  0  0  0  0
 58 71  1  0  0  0  0
 59 72  1  0  0  0  0
 61 63  1  0  0  0  0
M  CHG  1  72   1
M  ISO  4  31 101  39 100  69 100  82 101
M  END
> <Batch ID>
0180

> <Smiles>
CNC(C)C(=O)NC(C(=O)N1Cc2cc([101O:1][101CH2:1]C(=O)C(=O)Nc3sc([100NH:0][100C:0](=O)N4CCCC(n5nc(-c6ccc(Oc7ccc(F)cc7F)cc6)c(C(N)=O)c5N)C4)nc3C(C)=O)ccc2CC1C(=O)NC1CCCc2ccccc21)C(C)(C)C

> <Shape>
0.303

> <Color>
0.191

> <Negative vol penalty>
0.000

$$$$

  -OEChem-04052304503D

 85 93  0     1  0  0  0  0  0999 V2000
  -30.3943  -13.3885   22.4671 C   0  0  0  0  0  0  0  0  0  0  0  0
  -30.0880  -14.7070   22.1460 C   0  0  0  0  0  0  0  0  0  0  0  0
  -21.6274  -26.4044   22.1758 C   0  0  0  0  0  0  0  0  0  0  0  0
  -20.5749  -27.6326   23.9705 C   0  0  0  0  0  0  0  0  0  0  0  0
  -29.6572  -12.3464   21.9062 C   0  0  0  0  0  0  0  0  0  0  0  0
  -29.0451  -14.9842   21.2629 C   0  0  0  0  0  0  0  0  0  0  0  0
  -25.2310  -19.7718   21.4567 C   0  0  0  0  0  0  0  0  0  0  0  0
  -20.8089  -25.3078   22.4462 C   0  0  0  0  0  0  0  0  0  0  0  0
  -19.7564  -26.5360   24.2409 C   0  0  0  0  0  0  0  0  0  0  0  0
  -25.2147  -20.9863   20.7723 C   0  0  0  0  0  0  0  0  0  0  0  0
  -20.6828  -22.7893   24.6969 C   0  0  0  0  0  0  0  0  0  0  0  0
  -21.2800  -21.5294   24.7342 C   0  0  0  0  0  0  0  0  0  0  0  0
  -23.6729  -20.0547   19.1679 C   0  0  0  0  0  0  0  0  0  0  0  0
  -19.8434  -20.7951   22.9358 C   0  0  0  0  0  0  0  0  0  0  0  0
  -21.5105  -27.5668   22.9380 C   0  0  0  0  0  0  0  0  0  0  0  0
  -22.0894  -29.7627   21.7759 C   0  0  0  0  0  0  0  0  0  0  0  0
  -28.5985  -12.6113   21.0233 C   0  0  0  0  0  0  0  0  0  0  0  0
  -24.4756  -18.6843   20.9949 C   0  0  0  0  0  0  0  0  0  0  0  0
  -28.2940  -13.9445   20.6887 C   0  0  0  0  0  0  0  0  0  0  0  0
  -23.6793  -18.8282   19.8497 C   0  0  0  0  0  0  0  0  0  0  0  0
  -19.8734  -25.3736   23.4787 C   0  0  0  0  0  0  0  0  0  0  0  0
  -24.4378  -21.1270   19.6261 C   0  0  0  0  0  0  0  0  0  0  0  0
  -19.6658  -23.0522   23.7791 C   0  0  0  0  0  0  0  0  0  0  0  0
  -20.8604  -20.5323   23.8537 C   0  0  0  0  0  0  0  0  0  0  0  0
  -19.2462  -22.0551   22.8985 C   0  0  0  0  0  0  0  0  0  0  0  0
  -22.3561  -28.6997   22.6595 C   0  0  0  0  0  0  0  0  0  0  0  0
  -29.6338  -27.6165   20.2402 C   0  0  0  0  0  0  0  0  0  0  0  0
  -23.1943  -30.5731   21.8704 C   0  0  0  0  0  0  0  0  0  0  0  0
  -30.5896  -27.2082   19.3337 C   0  0  0  0  0  0  0  0  0  0  0  0
  -28.3628  -26.3692   18.9601 C   0  0  0  0  0  0  0  0  0  0  0  0
  -20.9452  -29.9967   20.9442 C   0  0  0  0  0  0  0  0  0  0  0  0
  -29.9113  -28.5162   21.3892 C   0  0  0  0  0  0  0  0  0  0  0  0
  -25.1577  -15.7573   19.9601 C   0  0  0  0  0  0  0  0  0  0  0  0
  -25.1064  -24.6096   18.6185 C   0  0  0  0  0  0  0  0  0  0  0  0
  -21.9306  -15.4283   19.9560 C   0  0  0  0  0  0  0  0  0  0  0  0
  -18.8662  -16.9229   19.8061 C   0  0  0  0  0  0  0  0  0  0  0  0
  -28.8694  -29.6067   23.3511 C   0  0  0  0  0  0  0  0  0  0  0  0
  -27.8607  -11.4500   20.4054 C   0  0  0  0  0  0  0  0  0  0  0  0
  -24.4832  -17.3891   21.7596 C   0  0  0  0  0  0  0  0  0  0  0  0
  -22.8345  -17.6975   19.3241 C   0  0  0  0  0  0  0  0  0  0  0  0
  -26.5297  -11.8428   19.7696 C   0  0  0  0  0  0  0  0  0  0  0  0
  -26.6490  -31.8547   24.9364 C   0  0  0  0  0  0  0  0  0  0  0  0
  -26.6969  -13.0911   18.9091 C   0  0  0  0  0  0  0  0  0  0  0  0
  -25.2701  -31.4098   24.4411 C   0  0  0  0  0  0  0  0  0  0  0  0
  -27.5749  -30.6642   25.1819 C   0  0  0  0  0  0  0  0  0  0  0  0
  -26.3293  -29.2904   23.5636 C   0  0  0  0  0  0  0  0  0  0  0  0
  -27.1540  -14.2864   19.7540 C   0  0  1  0  0  0  0  0  0  0  0  0
  -24.0757  -16.1904   20.9085 C   0  0  1  0  0  0  0  0  0  0  0  0
  -25.3829  -30.4563   23.2347 C   0  0  1  0  0  0  0  0  0  0  0  0
  -25.2677  -27.1080   18.6171 C   0  0  0  0  0  0  0  0  0  0  0  0
  -16.3652  -17.1179   19.8684 C   0  0  0  0  0  0  0  0  0  0  0  0
  -22.1511  -14.5318   17.0478 C   0  0  0  0  0  0  0  0  0  0  0  0
  -19.6912  -14.9332   16.8104 C   0  0  0  0  0  0  0  0  0  0  0  0
  -20.5240  -13.2217   18.4228 C   0  0  0  0  0  0  0  0  0  0  0  0
  -18.8546  -17.3244   22.7383 C   0  0  0  0  0  0  0  0  0  0  0  0
  -25.2224  -23.3675   19.4829 C   0  0  0  0  0  0  0  0  0  1  0  0
  -25.9322  -25.8127   19.0522 C   0  0  2  0  0  0  0  0  0  0  0  0
  -20.8321  -15.6751   18.9503 C   0  0  1  0  0  0  0  0  0  0  0  0
  -17.6160  -16.7440   20.6483 C   0  0  2  0  0  0  0  0  0  0  0  0
  -20.8169  -14.6114   17.8164 C   0  0  0  0  0  0  0  0  0  0  0  0
  -23.5378  -28.8209   23.2702 N   0  0  0  0  0  0  0  0  0  0  0  0
  -28.3562  -27.1367   20.0273 N   0  0  0  0  0  0  0  0  0  0  0  0
  -24.0235  -29.9696   22.7695 N   0  0  0  0  0  0  0  0  0  0  0  0
  -22.8805  -16.4491   20.1031 N   0  0  0  0  0  0  0  0  0  0  0  0
  -27.6348  -29.8164   23.9899 N   0  0  0  0  0  0  0  0  0  0  0  0
  -23.5278  -31.7360   21.2712 N   0  0  0  0  0  0  0  0  0  0  0  0
  -19.8996  -29.0638   20.9684 N   0  0  0  0  0  0  0  0  0  0  0  0
  -27.2474  -25.7218   18.4570 N   0  0  0  0  0  0  0  0  0  0  0  0
  -28.8144  -28.8172   22.1971 N   0  0  0  0  0  0  0  0  0  0  0  0
  -26.0394  -14.8374   20.4948 N   0  0  0  0  0  0  0  0  0  0  0  0
  -19.5908  -15.7535   19.7127 N   0  0  0  0  0  0  0  0  0  0  0  0
  -17.6845  -17.6010   21.8656 N   0  3  0  0  0  0  0  0  0  0  0  0
  -20.8601  -30.9949   20.1892 O   0  0  0  0  0  0  0  0  0  0  0  0
  -31.0610  -28.9016   21.5830 O   0  0  0  0  0  0  0  0  0  0  0  0
  -25.1894  -16.2221   18.8267 O   0  0  0  0  0  0  0  0  0  0  0  0
  -24.3748  -24.6378   17.6285 O   0  0  0  0  0  0  0  0  0  0  0  0
  -21.9414  -14.3719   20.5928 O   0  0  0  0  0  0  0  0  0  0  0  0
  -19.1679  -17.9921   19.2803 O   0  0  0  0  0  0  0  0  0  0  0  0
  -29.9238  -30.1100   23.7514 O   0  0  0  0  0  0  0  0  0  0  0  0
  -19.0744  -24.3038   23.7427 O   0  0  0  0  0  0  0  0  0  0  0  0
  -24.4206  -22.3112   18.9559 O   0  0  0  0  0  0  0  0  0  1  0  0
  -21.4351  -19.3229   23.8886 F   0  0  0  0  0  0  0  0  0  0  0  0
  -18.2704  -22.3021   22.0138 F   0  0  0  0  0  0  0  0  0  0  0  0
  -31.8792  -27.5553   19.3569 F   0  0  0  0  0  0  0  0  0  0  0  0
  -29.8712  -26.1800   18.1640 S   0  0  0  0  0  0  0  0  0  0  0  0
  1  2  1  0  0  0  0
  1  5  2  0  0  0  0
  2  6  2  0  0  0  0
  3  8  2  0  0  0  0
  3 15  1  0  0  0  0
  4  9  1  0  0  0  0
  4 15  2  0  0  0  0
  5 17  1  0  0  0  0
  6 19  1  0  0  0  0
  7 10  2  0  0  0  0
  7 18  1  0  0  0  0
  8 21  1  0  0  0  0
  9 21  2  0  0  0  0
 10 22  1  0  0  0  0
 11 12  2  0  0  0  0
 11 23  1  0  0  0  0
 12 24  1  0  0  0  0
 13 20  1  0  0  0  0
 13 22  2  0  0  0  0
 14 24  2  0  0  0  0
 14 25  1  0  0  0  0
 15 26  1  0  0  0  0
 16 26  1  0  0  0  0
 16 28  2  0  0  0  0
 16 31  1  0  0  0  0
 17 19  2  0  0  0  0
 17 38  1  0  0  0  0
 18 20  2  0  0  0  0
 18 39  1  0  0  0  0
 19 47  1  0  0  0  0
 20 40  1  0  0  0  0
 21 80  1  0  0  0  0
 22 81  1  0  0  0  0
 23 25  2  0  0  0  0
 23 80  1  0  0  0  0
 24 82  1  0  0  0  0
 25 83  1  0  0  0  0
 26 61  2  0  0  0  0
 27 29  2  0  0  0  0
 27 32  1  0  0  0  0
 27 62  1  0  0  0  0
 28 63  1  0  0  0  0
 28 66  1  0  0  0  0
 29 84  1  0  0  0  0
 29 85  1  0  0  0  0
 30 62  2  0  0  0  0
 30 68  1  0  0  0  0
 30 85  1  0  0  0  0
 31 67  1  0  0  0  0
 31 73  2  0  0  0  0
 32 69  1  0  0  0  0
 32 74  2  0  0  0  0
 33 48  1  0  0  0  0
 33 70  1  0  0  0  0
 33 75  2  0  0  0  0
 34 56  1  0  0  0  0
 34 57  1  0  0  0  0
 34 76  2  0  0  0  0
 35 58  1  0  0  0  0
 35 64  1  0  0  0  0
 35 77  2  0  0  0  0
 36 59  1  0  0  0  0
 36 71  1  0  0  0  0
 36 78  2  0  0  0  0
 37 65  1  0  0  0  0
 37 69  1  0  0  0  0
 37 79  2  0  0  0  0
 38 41  1  0  0  0  0
 39 48  1  0  0  0  0
 40 64  1  0  0  0  0
 41 43  1  0  0  0  0
 42 44  1  0  0  0  0
 42 45  1  0  0  0  0
 43 47  1  0  0  0  0
 44 49  1  0  0  0  0
 45 65  1  0  0  0  0
 46 49  1  0  0  0  0
 46 65  1  0  0  0  0
 47 70  1  0  0  0  0
 48 64  1  0  0  0  0
 49 63  1  0  0  0  0
 50 57  1  0  0  0  0
 51 59  1  0  0  0  0
 52 60  1  0  0  0  0
 53 60  1  0  0  0  0
 54 60  1  0  0  0  0
 55 72  1  0  0  0  0
 56 81  1  0  0  0  0
 57 68  1  0  0  0  0
 58 60  1  0  0  0  0
 58 71  1  0  0  0  0
 59 72  1  0  0  0  0
 61 63  1  0  0  0  0
M  CHG  1  72   1
M  ISO  4  37 100  56 101  69 100  81 101
M  END
> <Batch ID>
0180

> <Smiles>
CNC(C)C(=O)NC(C(=O)N1Cc2cc([101O:1][101CH2:1]C(=O)C(C)Nc3nc(C(=O)[100NH:0][100C:0](=O)N4CCCC(n5nc(-c6ccc(Oc7ccc(F)cc7F)cc6)c(C(N)=O)c5N)C4)c(F)s3)ccc2CC1C(=O)NC1CCCc2ccccc21)C(C)(C)C

> <Shape>
0.204

> <Color>
0.062

> <Negative vol penalty>
0.000

$$$$

  -OEChem-04052304503D

 87 95  0     1  0  0  0  0  0999 V2000
  -23.9570  -32.9347   14.3043 C   0  0  0  0  0  0  0  0  0  0  0  0
  -24.8373  -32.0817   14.9620 C   0  0  0  0  0  0  0  0  0  0  0  0
  -23.8790   -9.6764   22.6043 C   0  0  0  0  0  0  0  0  0  0  0  0
  -23.5884  -10.0707   20.2384 C   0  0  0  0  0  0  0  0  0  0  0  0
  -23.4221  -34.0343   14.9742 C   0  0  0  0  0  0  0  0  0  0  0  0
  -25.1842  -32.3284   16.2899 C   0  0  0  0  0  0  0  0  0  0  0  0
  -25.0838  -28.1398   19.1344 C   0  0  0  0  0  0  0  0  0  0  0  0
  -22.9876   -8.6057   22.5353 C   0  0  0  0  0  0  0  0  0  0  0  0
  -22.6971   -9.0000   20.1695 C   0  0  0  0  0  0  0  0  0  0  0  0
  -26.1654  -27.2674   19.0214 C   0  0  0  0  0  0  0  0  0  0  0  0
  -23.0455   -5.3771   21.5326 C   0  0  0  0  0  0  0  0  0  0  0  0
  -23.4007   -4.1950   22.1823 C   0  0  0  0  0  0  0  0  0  0  0  0
  -27.1029  -28.1768   21.0495 C   0  0  0  0  0  0  0  0  0  0  0  0
  -21.4227   -4.3578   23.5601 C   0  0  0  0  0  0  0  0  0  0  0  0
  -29.3217  -17.8510   18.4352 C   0  0  0  0  0  0  0  0  0  0  0  0
  -24.1793  -10.4090   21.4558 C   0  0  0  0  0  0  0  0  0  0  0  0
  -30.4012  -19.9673   18.0610 C   0  0  0  0  0  0  0  0  0  0  0  0
  -26.4953  -11.4731   21.3479 C   0  0  0  0  0  0  0  0  0  0  0  0
  -23.7551  -34.2891   16.3139 C   0  0  0  0  0  0  0  0  0  0  0  0
  -25.0090  -29.0464   20.2016 C   0  0  0  0  0  0  0  0  0  0  0  0
  -24.6544  -33.4331   16.9780 C   0  0  0  0  0  0  0  0  0  0  0  0
  -26.0181  -29.0579   21.1751 C   0  0  0  0  0  0  0  0  0  0  0  0
  -22.3967   -8.2675   21.3179 C   0  0  0  0  0  0  0  0  0  0  0  0
  -27.1766  -27.2877   19.9775 C   0  0  0  0  0  0  0  0  0  0  0  0
  -21.8789   -6.0496   21.8967 C   0  0  0  0  0  0  0  0  0  0  0  0
  -22.5893   -3.6853   23.1960 C   0  0  0  0  0  0  0  0  0  0  0  0
  -21.0675   -5.5399   22.9104 C   0  0  0  0  0  0  0  0  0  0  0  0
  -30.3487  -18.5923   17.8616 C   0  0  0  0  0  0  0  0  0  0  0  0
  -25.0996  -11.5154   21.5265 C   0  0  0  0  0  0  0  0  0  0  0  0
  -28.3793  -18.5269   19.1934 C   0  0  0  0  0  0  0  0  0  0  0  0
  -29.4104  -20.5485   18.8358 C   0  0  0  0  0  0  0  0  0  0  0  0
  -26.9023  -12.7743   21.5139 C   0  0  0  0  0  0  0  0  0  0  0  0
  -27.9822  -25.0944   19.8732 C   0  0  0  0  0  0  0  0  0  1  0  0
  -31.4797  -20.7387   17.4579 C   0  0  0  0  0  0  0  0  0  0  0  0
  -27.3476  -10.3573   21.0577 C   0  0  0  0  0  0  0  0  0  0  0  0
  -28.9447  -24.1697   19.7725 C   0  0  0  0  0  0  0  0  0  0  0  0
  -28.5643  -22.7194   19.7855 C   0  0  0  0  0  0  0  0  0  0  0  0
  -24.9483  -32.2144   20.4538 C   0  0  0  0  0  0  0  0  0  0  0  0
  -24.4342  -31.5654   23.5901 C   0  0  0  0  0  0  0  0  0  0  0  0
  -24.7563  -29.3732   26.1858 C   0  0  0  0  0  0  0  0  0  0  0  0
  -26.2905  -18.2275   20.5696 C   0  0  0  0  0  0  0  0  0  0  0  0
  -23.1885  -35.5169   16.9819 C   0  0  0  0  0  0  0  0  0  0  0  0
  -23.8223  -29.9625   20.3237 C   0  0  0  0  0  0  0  0  0  0  0  0
  -25.9747  -29.9979   22.3511 C   0  0  0  0  0  0  0  0  0  0  0  0
  -23.3151  -35.4960   18.5030 C   0  0  0  0  0  0  0  0  0  0  0  0
  -24.3882  -16.8188   23.2293 C   0  0  0  0  0  0  0  0  0  0  0  0
  -24.7209  -35.0719   18.9159 C   0  0  0  0  0  0  0  0  0  0  0  0
  -24.5185  -15.3100   23.0087 C   0  0  0  0  0  0  0  0  0  0  0  0
  -24.2992  -17.5796   21.9075 C   0  0  0  0  0  0  0  0  0  0  0  0
  -25.5067  -15.7831   20.7313 C   0  0  0  0  0  0  0  0  0  0  0  0
  -25.0356  -33.6534   18.4258 C   0  0  1  0  0  0  0  0  0  0  0  0
  -24.1062  -31.1982   21.1720 C   0  0  1  0  0  0  0  0  0  0  0  0
  -25.6649  -14.9801   22.0327 C   0  0  2  0  0  0  0  0  0  0  0  0
  -32.8842  -20.3864   17.8496 C   0  0  0  0  0  0  0  0  0  0  0  0
  -24.2753  -29.1388   28.6375 C   0  0  0  0  0  0  0  0  0  0  0  0
  -26.7990  -33.3857   24.2256 C   0  0  0  0  0  0  0  0  0  0  0  0
  -26.8664  -32.3816   26.5180 C   0  0  0  0  0  0  0  0  0  0  0  0
  -24.8456  -33.6367   25.7670 C   0  0  0  0  0  0  0  0  0  0  0  0
  -22.9799  -27.0496   25.7335 C   0  0  0  0  0  0  0  0  0  0  0  0
  -25.3165  -31.3503   24.7960 C   0  0  1  0  0  0  0  0  0  0  0  0
  -23.7621  -28.8923   27.2273 C   0  0  2  0  0  0  0  0  0  0  0  0
  -25.9590  -32.6721   25.3036 C   0  0  0  0  0  0  0  0  0  0  0  0
  -24.6501  -12.7461   21.7863 N   0  0  0  0  0  0  0  0  0  0  0  0
  -28.3972  -19.8613   19.4093 N   0  0  0  0  0  0  0  0  0  0  0  0
  -25.7698  -13.4891   21.7722 N   0  0  0  0  0  0  0  0  0  0  0  0
  -24.7971  -30.8785   22.4229 N   0  0  0  0  0  0  0  0  0  0  0  0
  -25.4199  -17.2199   21.0360 N   0  0  0  0  0  0  0  0  0  0  0  0
  -28.1150  -13.3654   21.4627 N   0  0  0  0  0  0  0  0  0  0  0  0
  -26.7653   -9.0900   20.9188 N   0  0  0  0  0  0  0  0  0  0  0  0
  -29.4509  -21.9479   19.0468 N   0  0  0  0  0  0  0  0  0  0  0  0
  -27.3380  -17.7621   19.7753 N   0  0  0  0  0  0  0  0  0  0  0  0
  -24.3937  -32.6717   19.2736 N   0  0  0  0  0  0  0  0  0  0  0  0
  -24.4932  -30.6668   25.7876 N   0  0  0  0  0  0  0  0  0  0  0  0
  -23.5101  -27.4322   27.0675 N   0  3  0  0  0  0  0  0  0  0  0  0
  -31.3233  -21.6598   16.6556 O   0  0  0  0  0  0  0  0  0  0  0  0
  -28.5908  -10.4776   20.9418 O   0  0  0  0  0  0  0  0  0  0  0  0
  -27.5744  -22.3331   20.3976 O   0  0  0  0  0  0  0  0  0  0  0  0
  -26.0211  -32.5592   20.9354 O   0  0  0  0  0  0  0  0  0  0  0  0
  -23.4548  -32.3096   23.6825 O   0  0  0  0  0  0  0  0  0  0  0  0
  -25.6765  -28.6727   25.7699 O   0  0  0  0  0  0  0  0  0  0  0  0
  -26.1353  -19.4123   20.8763 O   0  0  0  0  0  0  0  0  0  0  0  0
  -30.2800  -24.4980   19.6553 O   0  0  0  0  0  0  0  0  0  0  0  0
  -21.5271   -7.2226   21.2502 O   0  0  0  0  0  0  0  0  0  0  0  0
  -28.2337  -26.4377   19.8693 O   0  0  0  0  0  0  0  0  0  1  0  0
  -22.9298   -2.5494   23.8187 F   0  0  0  0  0  0  0  0  0  0  0  0
  -19.9449   -6.1809   23.2637 F   0  0  0  0  0  0  0  0  0  0  0  0
  -31.2786  -17.9724   17.1215 F   0  0  0  0  0  0  0  0  0  0  0  0
  1  2  1  0  0  0  0
  1  5  2  0  0  0  0
  2  6  2  0  0  0  0
  3  8  2  0  0  0  0
  3 16  1  0  0  0  0
  4  9  1  0  0  0  0
  4 16  2  0  0  0  0
  5 19  1  0  0  0  0
  6 21  1  0  0  0  0
  7 10  2  0  0  0  0
  7 20  1  0  0  0  0
  8 23  1  0  0  0  0
  9 23  2  0  0  0  0
 10 24  1  0  0  0  0
 11 12  2  0  0  0  0
 11 25  1  0  0  0  0
 12 26  1  0  0  0  0
 13 22  1  0  0  0  0
 13 24  2  0  0  0  0
 14 26  2  0  0  0  0
 14 27  1  0  0  0  0
 15 28  2  0  0  0  0
 15 30  1  0  0  0  0
 16 29  1  0  0  0  0
 17 28  1  0  0  0  0
 17 31  2  0  0  0  0
 17 34  1  0  0  0  0
 18 29  1  0  0  0  0
 18 32  2  0  0  0  0
 18 35  1  0  0  0  0
 19 21  2  0  0  0  0
 19 42  1  0  0  0  0
 20 22  2  0  0  0  0
 20 43  1  0  0  0  0
 21 51  1  0  0  0  0
 22 44  1  0  0  0  0
 23 83  1  0  0  0  0
 24 84  1  0  0  0  0
 25 27  2  0  0  0  0
 25 83  1  0  0  0  0
 26 85  1  0  0  0  0
 27 86  1  0  0  0  0
 28 87  1  0  0  0  0
 29 63  2  0  0  0  0
 30 64  2  0  0  0  0
 30 71  1  0  0  0  0
 31 64  1  0  0  0  0
 31 70  1  0  0  0  0
 32 65  1  0  0  0  0
 32 68  1  0  0  0  0
 33 36  2  0  0  0  0
 33 84  1  0  0  0  0
 34 54  1  0  0  0  0
 34 75  2  0  0  0  0
 35 69  1  0  0  0  0
 35 76  2  0  0  0  0
 36 37  1  0  0  0  0
 36 82  1  0  0  0  0
 37 70  1  0  0  0  0
 37 77  2  0  0  0  0
 38 52  1  0  0  0  0
 38 72  1  0  0  0  0
 38 78  2  0  0  0  0
 39 60  1  0  0  0  0
 39 66  1  0  0  0  0
 39 79  2  0  0  0  0
 40 61  1  0  0  0  0
 40 73  1  0  0  0  0
 40 80  2  0  0  0  0
 41 67  1  0  0  0  0
 41 71  1  0  0  0  0
 41 81  2  0  0  0  0
 42 45  1  0  0  0  0
 43 52  1  0  0  0  0
 44 66  1  0  0  0  0
 45 47  1  0  0  0  0
 46 48  1  0  0  0  0
 46 49  1  0  0  0  0
 47 51  1  0  0  0  0
 48 53  1  0  0  0  0
 49 67  1  0  0  0  0
 50 53  1  0  0  0  0
 50 67  1  0  0  0  0
 51 72  1  0  0  0  0
 52 66  1  0  0  0  0
 53 65  1  0  0  0  0
 55 61  1  0  0  0  0
 56 62  1  0  0  0  0
 57 62  1  0  0  0  0
 58 62  1  0  0  0  0
 59 74  1  0  0  0  0
 60 62  1  0  0  0  0
 60 73  1  0  0  0  0
 61 74  1  0  0  0  0
 63 65  1  0  0  0  0
M  CHG  1  74   1
M  ISO  4  33 101  41 100  71 100  84 101
M  END
> <Batch ID>
0180

> <Smiles>
CNC(C)C(=O)NC(C(=O)N1Cc2cc([101O:1][101CH2:1]C(=O)C(=O)Nc3nc([100NH:0][100C:0](=O)N4CCCC(n5nc(-c6ccc(Oc7ccc(F)cc7F)cc6)c(C(N)=O)c5N)C4)cc(F)c3C(C)=O)ccc2CC1C(=O)NC1CCCc2ccccc21)C(C)(C)C

> <Shape>
0.278

> <Color>
0.119

> <Negative vol penalty>
0.000

$$$$

  -OEChem-04052304503D

 86 94  0     1  0  0  0  0  0999 V2000
  -18.3252  -23.4982   22.5585 C   0  0  0  0  0  0  0  0  0  0  0  0
  -19.4040  -23.5074   21.6801 C   0  0  0  0  0  0  0  0  0  0  0  0
  -26.0693  -13.0488   21.7655 C   0  0  0  0  0  0  0  0  0  0  0  0
  -26.0049  -13.7715   19.4610 C   0  0  0  0  0  0  0  0  0  0  0  0
  -17.9350  -24.6763   23.1938 C   0  0  0  0  0  0  0  0  0  0  0  0
  -20.0925  -24.6950   21.4356 C   0  0  0  0  0  0  0  0  0  0  0  0
  -26.0893  -25.3197   20.3613 C   0  0  0  0  0  0  0  0  0  0  0  0
  -24.8606  -12.3757   21.5882 C   0  0  0  0  0  0  0  0  0  0  0  0
  -24.7962  -13.0983   19.2837 C   0  0  0  0  0  0  0  0  0  0  0  0
  -26.8216  -25.4593   19.1832 C   0  0  0  0  0  0  0  0  0  0  0  0
  -23.8075   -9.4619   20.2341 C   0  0  0  0  0  0  0  0  0  0  0  0
  -23.7050   -8.1681   20.7452 C   0  0  0  0  0  0  0  0  0  0  0  0
  -26.8076  -27.8550   19.4653 C   0  0  0  0  0  0  0  0  0  0  0  0
  -21.8717   -8.8698   22.1537 C   0  0  0  0  0  0  0  0  0  0  0  0
  -26.6415  -13.7468   20.7019 C   0  0  0  0  0  0  0  0  0  0  0  0
  -29.1858  -13.9299   20.6874 C   0  0  0  0  0  0  0  0  0  0  0  0
  -18.6251  -25.8771   22.9644 C   0  0  0  0  0  0  0  0  0  0  0  0
  -25.7006  -26.4493   21.0958 C   0  0  0  0  0  0  0  0  0  0  0  0
  -19.7103  -25.8906   22.0674 C   0  0  0  0  0  0  0  0  0  0  0  0
  -26.0726  -27.7269   20.6538 C   0  0  0  0  0  0  0  0  0  0  0  0
  -24.2240  -12.4004   20.3473 C   0  0  0  0  0  0  0  0  0  0  0  0
  -27.1784  -26.7272   18.7335 C   0  0  0  0  0  0  0  0  0  0  0  0
  -22.9421  -10.4596   20.6828 C   0  0  0  0  0  0  0  0  0  0  0  0
  -22.7371   -7.8720   21.7049 C   0  0  0  0  0  0  0  0  0  0  0  0
  -21.9742  -10.1636   21.6426 C   0  0  0  0  0  0  0  0  0  0  0  0
  -27.8898  -14.4428   20.8846 C   0  0  0  0  0  0  0  0  0  0  0  0
  -29.4754  -22.4391   16.2448 C   0  0  0  0  0  0  0  0  0  0  0  0
  -29.8226  -23.3079   17.2582 C   0  0  0  0  0  0  0  0  0  0  0  0
  -30.0198  -14.9779   20.9919 C   0  0  0  0  0  0  0  0  0  0  0  0
  -29.3474  -21.5495   18.4797 C   0  0  0  0  0  0  0  0  0  0  0  0
  -29.4378  -22.6264   14.8319 C   0  0  0  0  0  0  0  0  0  0  0  0
  -29.5990  -12.6231   20.2665 C   0  0  0  0  0  0  0  0  0  0  0  0
  -31.0118  -26.8756   17.4157 C   0  0  0  0  0  0  0  0  0  0  0  0
  -30.5953  -25.5606   18.0127 C   0  0  0  0  0  0  0  0  0  0  0  0
  -22.9150  -27.7256   21.9414 C   0  0  0  0  0  0  0  0  0  0  0  0
  -24.7995  -29.7437   23.6438 C   0  0  0  0  0  0  0  0  0  0  0  0
  -27.8569  -31.2054   24.0471 C   0  0  0  0  0  0  0  0  0  0  0  0
  -29.3147  -20.9111   20.9165 C   0  0  0  0  0  0  0  0  0  0  0  0
  -18.1369  -27.1351   23.6379 C   0  0  0  0  0  0  0  0  0  0  0  0
  -24.9339  -26.2804   22.3788 C   0  0  0  0  0  0  0  0  0  0  0  0
  -25.6974  -28.9703   21.4165 C   0  0  0  0  0  0  0  0  0  0  0  0
  -19.1532  -28.2738   23.6118 C   0  0  0  0  0  0  0  0  0  0  0  0
  -30.2493  -18.9131   23.7114 C   0  0  0  0  0  0  0  0  0  0  0  0
  -19.7499  -28.4248   22.2161 C   0  0  0  0  0  0  0  0  0  0  0  0
  -29.8739  -17.4926   23.2833 C   0  0  0  0  0  0  0  0  0  0  0  0
  -29.2418  -19.9433   23.2041 C   0  0  0  0  0  0  0  0  0  0  0  0
  -28.6029  -18.4747   21.3321 C   0  0  0  0  0  0  0  0  0  0  0  0
  -20.4978  -27.1540   21.7954 C   0  0  1  0  0  0  0  0  0  0  0  0
  -24.1495  -27.5275   22.7747 C   0  0  1  0  0  0  0  0  0  0  0  0
  -29.6234  -17.4093   21.7648 C   0  0  2  0  0  0  0  0  0  0  0  0
  -30.5922  -28.9157   16.0410 C   0  0  0  0  0  0  0  0  0  0  0  0
  -29.0822  -32.8392   25.5053 C   0  0  0  0  0  0  0  0  0  0  0  0
  -23.3614  -32.0525   22.2613 C   0  0  0  0  0  0  0  0  0  0  0  0
  -25.2150  -33.5615   23.0065 C   0  0  0  0  0  0  0  0  0  0  0  0
  -23.7949  -32.4036   24.6992 C   0  0  0  0  0  0  0  0  0  0  0  0
  -29.8196  -29.1575   24.8913 C   0  0  0  0  0  0  0  0  0  0  0  0
  -28.7661  -27.9911   17.4935 C   0  0  0  0  0  0  0  0  0  1  0  0
  -29.9682  -27.6436   16.6139 C   0  0  2  0  0  0  0  0  0  0  0  0
  -25.4753  -31.0648   23.3667 C   0  0  1  0  0  0  0  0  0  0  0  0
  -28.7379  -31.3765   25.2714 C   0  0  2  0  0  0  0  0  0  0  0  0
  -24.4672  -32.2475   23.3178 C   0  0  0  0  0  0  0  0  0  0  0  0
  -27.8948  -15.7175   21.2837 N   0  0  0  0  0  0  0  0  0  0  0  0
  -29.7494  -22.7996   18.5404 N   0  0  0  0  0  0  0  0  0  0  0  0
  -29.7540  -23.7480   14.2204 N   0  0  0  0  0  0  0  0  0  0  0  0
  -29.2044  -16.0143   21.3398 N   0  0  0  0  0  0  0  0  0  0  0  0
  -24.9423  -28.7534   22.6616 N   0  0  0  0  0  0  0  0  0  0  0  0
  -29.0586  -19.8074   21.7574 N   0  0  0  0  0  0  0  0  0  0  0  0
  -31.3638  -15.1047   20.9934 N   0  0  0  0  0  0  0  0  0  0  0  0
  -28.6122  -11.6657   19.9946 N   0  0  0  0  0  0  0  0  0  0  0  0
  -30.2313  -24.6454   17.0487 N   0  0  0  0  0  0  0  0  0  0  0  0
  -29.1377  -20.6537   19.5574 N   0  0  0  0  0  0  0  0  0  0  0  0
  -21.7923  -27.0926   22.4396 N   0  0  0  0  0  0  0  0  0  0  0  0
  -26.5180  -31.2098   24.3767 N   0  0  0  0  0  0  0  0  0  0  0  0
  -30.0084  -30.6153   25.1058 N   0  3  0  0  0  0  0  0  0  0  0  0
  -30.8078  -12.3086   20.1512 O   0  0  0  0  0  0  0  0  0  0  0  0
  -32.1615  -27.2355   17.6269 O   0  0  0  0  0  0  0  0  0  0  0  0
  -30.6582  -25.4672   19.2274 O   0  0  0  0  0  0  0  0  0  0  0  0
  -22.9762  -28.4039   20.9226 O   0  0  0  0  0  0  0  0  0  0  0  0
  -24.1741  -29.5935   24.6964 O   0  0  0  0  0  0  0  0  0  0  0  0
  -28.3108  -31.0840   22.9115 O   0  0  0  0  0  0  0  0  0  0  0  0
  -29.6915  -21.9962   21.3665 O   0  0  0  0  0  0  0  0  0  0  0  0
  -23.0447  -11.7434   20.1738 O   0  0  0  0  0  0  0  0  0  0  0  0
  -27.8926  -26.8662   17.5835 O   0  0  0  0  0  0  0  0  0  1  0  0
  -22.6377   -6.6292   22.1946 F   0  0  0  0  0  0  0  0  0  0  0  0
  -21.1393  -11.1177   22.0766 F   0  0  0  0  0  0  0  0  0  0  0  0
  -29.0396  -20.9208   16.9128 S   0  0  0  0  0  0  0  0  0  0  0  0
  1  2  1  0  0  0  0
  1  5  2  0  0  0  0
  2  6  2  0  0  0  0
  3  8  2  0  0  0  0
  3 15  1  0  0  0  0
  4  9  1  0  0  0  0
  4 15  2  0  0  0  0
  5 17  1  0  0  0  0
  6 19  1  0  0  0  0
  7 10  2  0  0  0  0
  7 18  1  0  0  0  0
  8 21  1  0  0  0  0
  9 21  2  0  0  0  0
 10 22  1  0  0  0  0
 11 12  2  0  0  0  0
 11 23  1  0  0  0  0
 12 24  1  0  0  0  0
 13 20  1  0  0  0  0
 13 22  2  0  0  0  0
 14 24  2  0  0  0  0
 14 25  1  0  0  0  0
 15 26  1  0  0  0  0
 16 26  1  0  0  0  0
 16 29  2  0  0  0  0
 16 32  1  0  0  0  0
 17 19  2  0  0  0  0
 17 39  1  0  0  0  0
 18 20  2  0  0  0  0
 18 40  1  0  0  0  0
 19 48  1  0  0  0  0
 20 41  1  0  0  0  0
 21 82  1  0  0  0  0
 22 83  1  0  0  0  0
 23 25  2  0  0  0  0
 23 82  1  0  0  0  0
 24 84  1  0  0  0  0
 25 85  1  0  0  0  0
 26 62  2  0  0  0  0
 27 28  2  0  0  0  0
 27 31  1  0  0  0  0
 27 86  1  0  0  0  0
 28 63  1  0  0  0  0
 28 70  1  0  0  0  0
 29 65  1  0  0  0  0
 29 68  1  0  0  0  0
 30 63  2  0  0  0  0
 30 71  1  0  0  0  0
 30 86  1  0  0  0  0
 31 64  2  0  0  0  0
 32 69  1  0  0  0  0
 32 75  2  0  0  0  0
 33 34  1  0  0  0  0
 33 58  1  0  0  0  0
 33 76  2  0  0  0  0
 34 70  1  0  0  0  0
 34 77  2  0  0  0  0
 35 49  1  0  0  0  0
 35 72  1  0  0  0  0
 35 78  2  0  0  0  0
 36 59  1  0  0  0  0
 36 66  1  0  0  0  0
 36 79  2  0  0  0  0
 37 60  1  0  0  0  0
 37 73  1  0  0  0  0
 37 80  2  0  0  0  0
 38 67  1  0  0  0  0
 38 71  1  0  0  0  0
 38 81  2  0  0  0  0
 39 42  1  0  0  0  0
 40 49  1  0  0  0  0
 41 66  1  0  0  0  0
 42 44  1  0  0  0  0
 43 45  1  0  0  0  0
 43 46  1  0  0  0  0
 44 48  1  0  0  0  0
 45 50  1  0  0  0  0
 46 67  1  0  0  0  0
 47 50  1  0  0  0  0
 47 67  1  0  0  0  0
 48 72  1  0  0  0  0
 49 66  1  0  0  0  0
 50 65  1  0  0  0  0
 51 58  1  0  0  0  0
 52 60  1  0  0  0  0
 53 61  1  0  0  0  0
 54 61  1  0  0  0  0
 55 61  1  0  0  0  0
 56 74  1  0  0  0  0
 57 58  1  0  0  0  0
 57 83  1  0  0  0  0
 59 61  1  0  0  0  0
 59 73  1  0  0  0  0
 60 74  1  0  0  0  0
 62 65  1  0  0  0  0
M  CHG  1  74   1
M  ISO  4  38 100  57 101  71 100  83 101
M  END
> <Batch ID>
0180

> <Smiles>
CNC(C)C(=O)NC(C(=O)N1Cc2cc([101O:1][101CH2:1]C(C)C(=O)C(=O)Nc3nc([100NH:0][100C:0](=O)N4CCCC(n5nc(-c6ccc(Oc7ccc(F)cc7F)cc6)c(C(N)=O)c5N)C4)sc3C=N)ccc2CC1C(=O)NC1CCCc2ccccc21)C(C)(C)C

> <Shape>
0.328

> <Color>
0.075

> <Negative vol penalty>
0.000

$$$$

  -OEChem-04052304503D

 86 94  0     1  0  0  0  0  0999 V2000
  -25.5909  -35.6795   23.5482 C   0  0  0  0  0  0  0  0  0  0  0  0
  -26.4302  -35.0951   22.6052 C   0  0  0  0  0  0  0  0  0  0  0  0
  -22.5127  -10.6214   22.8157 C   0  0  0  0  0  0  0  0  0  0  0  0
  -23.3839  -10.5720   20.5628 C   0  0  0  0  0  0  0  0  0  0  0  0
  -25.1373  -34.9322   24.6344 C   0  0  0  0  0  0  0  0  0  0  0  0
  -26.8174  -33.7632   22.7484 C   0  0  0  0  0  0  0  0  0  0  0  0
  -28.4400  -27.9718   18.8569 C   0  0  0  0  0  0  0  0  0  0  0  0
  -22.0170   -9.3279   22.6524 C   0  0  0  0  0  0  0  0  0  0  0  0
  -22.8881   -9.2784   20.3995 C   0  0  0  0  0  0  0  0  0  0  0  0
  -29.4438  -27.0143   18.7177 C   0  0  0  0  0  0  0  0  0  0  0  0
  -20.8364   -5.9029   22.9534 C   0  0  0  0  0  0  0  0  0  0  0  0
  -21.0427   -4.9936   23.9908 C   0  0  0  0  0  0  0  0  0  0  0  0
  -28.5344  -25.7975   20.5917 C   0  0  0  0  0  0  0  0  0  0  0  0
  -23.4318   -5.2603   23.7494 C   0  0  0  0  0  0  0  0  0  0  0  0
  -27.5221  -19.4238   19.4541 C   0  0  0  0  0  0  0  0  0  0  0  0
  -23.1962  -11.2435   21.7709 C   0  0  0  0  0  0  0  0  0  0  0  0
  -24.9778  -12.9494   22.4214 C   0  0  0  0  0  0  0  0  0  0  0  0
  -25.5113  -33.5876   24.7857 C   0  0  0  0  0  0  0  0  0  0  0  0
  -27.4807  -27.8549   19.8730 C   0  0  0  0  0  0  0  0  0  0  0  0
  -26.3695  -32.9975   23.8383 C   0  0  0  0  0  0  0  0  0  0  0  0
  -27.5180  -26.7535   20.7400 C   0  0  0  0  0  0  0  0  0  0  0  0
  -22.2047   -8.6564   21.4444 C   0  0  0  0  0  0  0  0  0  0  0  0
  -29.4928  -25.9284   19.5870 C   0  0  0  0  0  0  0  0  0  0  0  0
  -21.9277   -6.4909   22.3140 C   0  0  0  0  0  0  0  0  0  0  0  0
  -22.3403   -4.6723   24.3888 C   0  0  0  0  0  0  0  0  0  0  0  0
  -23.2254   -6.1696   22.7120 C   0  0  0  0  0  0  0  0  0  0  0  0
  -23.7080  -12.5798   21.9387 C   0  0  0  0  0  0  0  0  0  0  0  0
  -28.4746  -20.3946   19.2207 C   0  0  0  0  0  0  0  0  0  0  0  0
  -26.2157  -19.8666   19.4943 C   0  0  0  0  0  0  0  0  0  0  0  0
  -24.9715  -14.3225   22.3879 C   0  0  0  0  0  0  0  0  0  0  0  0
  -26.8757  -22.0059   19.1009 C   0  0  0  0  0  0  0  0  0  0  0  0
  -30.6867  -20.9198   18.2332 C   0  0  0  0  0  0  0  0  0  0  0  0
  -26.0657  -12.1253   22.8606 C   0  0  0  0  0  0  0  0  0  0  0  0
  -26.6563  -29.6094   22.3921 C   0  0  0  0  0  0  0  0  0  0  0  0
  -31.8820  -22.8122   17.7804 C   0  0  0  0  0  0  0  0  0  0  0  0
  -24.2676  -27.4288   22.6392 C   0  0  0  0  0  0  0  0  0  0  0  0
  -23.1331  -24.2840   21.9533 C   0  0  0  0  0  0  0  0  0  0  0  0
  -23.8291  -19.1270   19.8159 C   0  0  0  0  0  0  0  0  0  0  0  0
  -25.0339  -32.8338   26.0016 C   0  0  0  0  0  0  0  0  0  0  0  0
  -26.3886  -28.8821   19.9931 C   0  0  0  0  0  0  0  0  0  0  0  0
  -26.4997  -26.5711   21.8347 C   0  0  0  0  0  0  0  0  0  0  0  0
  -25.1886  -31.3200   25.8794 C   0  0  0  0  0  0  0  0  0  0  0  0
  -21.1756  -17.5814   21.6180 C   0  0  0  0  0  0  0  0  0  0  0  0
  -26.5737  -30.9662   25.3475 C   0  0  0  0  0  0  0  0  0  0  0  0
  -21.7024  -16.1728   21.9018 C   0  0  0  0  0  0  0  0  0  0  0  0
  -21.6143  -18.0848   20.2439 C   0  0  0  0  0  0  0  0  0  0  0  0
  -23.5857  -16.6077   20.2736 C   0  0  0  0  0  0  0  0  0  0  0  0
  -26.7916  -31.5482   23.9456 C   0  0  1  0  0  0  0  0  0  0  0  0
  -25.7679  -28.9344   21.3857 C   0  0  1  0  0  0  0  0  0  0  0  0
  -23.2239  -16.0834   21.6728 C   0  0  2  0  0  0  0  0  0  0  0  0
  -33.7400  -24.4932   17.7262 C   0  0  0  0  0  0  0  0  0  0  0  0
  -21.1579  -22.7795   22.3170 C   0  0  0  0  0  0  0  0  0  0  0  0
  -25.1401  -26.9859   25.5293 C   0  0  0  0  0  0  0  0  0  0  0  0
  -23.8068  -24.8668   25.5338 C   0  0  0  0  0  0  0  0  0  0  0  0
  -22.6639  -27.0567   25.1864 C   0  0  0  0  0  0  0  0  0  0  0  0
  -22.6442  -24.0301   19.0454 C   0  0  0  0  0  0  0  0  0  0  0  0
  -29.9272  -20.0083   19.1562 C   0  0  0  0  0  0  0  0  0  0  0  0
  -31.4162  -25.1860   18.4015 C   0  0  0  0  0  0  0  0  0  1  0  0
  -32.4577  -24.0678   18.4372 C   0  0  1  0  0  0  0  0  0  0  0  0
  -24.1001  -26.1011   23.3380 C   0  0  1  0  0  0  0  0  0  0  0  0
  -21.8133  -23.7902   21.3887 C   0  0  2  0  0  0  0  0  0  0  0  0
  -23.9482  -26.2568   24.8776 C   0  0  0  0  0  0  0  0  0  0  0  0
  -22.9502  -13.6331   21.6220 N   0  0  0  0  0  0  0  0  0  0  0  0
  -28.1857  -21.6999   19.0389 N   0  0  0  0  0  0  0  0  0  0  0  0
  -25.8553  -21.1552   19.3214 N   0  0  0  0  0  0  0  0  0  0  0  0
  -31.2140  -22.0097   18.6819 N   0  0  0  0  0  0  0  0  0  0  0  0
  -23.7460  -14.6780   21.9064 N   0  0  0  0  0  0  0  0  0  0  0  0
  -25.4553  -27.6056   21.9154 N   0  0  0  0  0  0  0  0  0  0  0  0
  -23.0675  -17.9738   20.1005 N   0  0  0  0  0  0  0  0  0  0  0  0
  -25.8948  -15.2484   22.7238 N   0  0  0  0  0  0  0  0  0  0  0  0
  -26.5357  -23.3631   18.9132 N   0  0  0  0  0  0  0  0  0  0  0  0
  -25.9043  -10.7334   22.8296 N   0  0  0  0  0  0  0  0  0  0  0  0
  -25.2034  -18.9047   19.7346 N   0  0  0  0  0  0  0  0  0  0  0  0
  -26.1077  -30.7466   22.9536 N   0  0  0  0  0  0  0  0  0  0  0  0
  -22.9733  -25.4383   22.6904 N   0  0  0  0  0  0  0  0  0  0  0  0
  -22.0268  -23.1420   20.0638 N   0  3  0  0  0  0  0  0  0  0  0  0
  -27.1428  -12.6091   23.2840 O   0  0  0  0  0  0  0  0  0  0  0  0
  -27.7573  -29.1329   22.6418 O   0  0  0  0  0  0  0  0  0  0  0  0
  -32.0165  -22.5956   16.5772 O   0  0  0  0  0  0  0  0  0  0  0  0
  -23.3743  -28.2749   22.7263 O   0  0  0  0  0  0  0  0  0  0  0  0
  -24.1986  -23.7019   21.7628 O   0  0  0  0  0  0  0  0  0  0  0  0
  -23.3037  -20.2352   19.6831 O   0  0  0  0  0  0  0  0  0  0  0  0
  -21.7212   -7.3941   21.2848 O   0  0  0  0  0  0  0  0  0  0  0  0
  -30.4719  -24.9927   19.4538 O   0  0  0  0  0  0  0  0  0  1  0  0
  -22.5383   -3.8002   25.3860 F   0  0  0  0  0  0  0  0  0  0  0  0
  -24.2779   -6.7322   22.1023 F   0  0  0  0  0  0  0  0  0  0  0  0
  1  2  1  0  0  0  0
  1  5  2  0  0  0  0
  2  6  2  0  0  0  0
  3  8  2  0  0  0  0
  3 16  1  0  0  0  0
  4  9  1  0  0  0  0
  4 16  2  0  0  0  0
  5 18  1  0  0  0  0
  6 20  1  0  0  0  0
  7 10  2  0  0  0  0
  7 19  1  0  0  0  0
  8 22  1  0  0  0  0
  9 22  2  0  0  0  0
 10 23  1  0  0  0  0
 11 12  2  0  0  0  0
 11 24  1  0  0  0  0
 12 25  1  0  0  0  0
 13 21  1  0  0  0  0
 13 23  2  0  0  0  0
 14 25  2  0  0  0  0
 14 26  1  0  0  0  0
 15 28  1  0  0  0  0
 15 29  2  0  0  0  0
 16 27  1  0  0  0  0
 17 27  1  0  0  0  0
 17 30  2  0  0  0  0
 17 33  1  0  0  0  0
 18 20  2  0  0  0  0
 18 39  1  0  0  0  0
 19 21  2  0  0  0  0
 19 40  1  0  0  0  0
 20 48  1  0  0  0  0
 21 41  1  0  0  0  0
 22 83  1  0  0  0  0
 23 84  1  0  0  0  0
 24 26  2  0  0  0  0
 24 83  1  0  0  0  0
 25 85  1  0  0  0  0
 26 86  1  0  0  0  0
 27 63  2  0  0  0  0
 28 57  1  0  0  0  0
 28 64  2  0  0  0  0
 29 65  1  0  0  0  0
 29 73  1  0  0  0  0
 30 67  1  0  0  0  0
 30 70  1  0  0  0  0
 31 64  1  0  0  0  0
 31 65  2  0  0  0  0
 31 71  1  0  0  0  0
 32 57  1  0  0  0  0
 32 66  2  0  0  0  0
 33 72  1  0  0  0  0
 33 77  2  0  0  0  0
 34 49  1  0  0  0  0
 34 74  1  0  0  0  0
 34 78  2  0  0  0  0
 35 59  1  0  0  0  0
 35 66  1  0  0  0  0
 35 79  2  0  0  0  0
 36 60  1  0  0  0  0
 36 68  1  0  0  0  0
 36 80  2  0  0  0  0
 37 61  1  0  0  0  0
 37 75  1  0  0  0  0
 37 81  2  0  0  0  0
 38 69  1  0  0  0  0
 38 73  1  0  0  0  0
 38 82  2  0  0  0  0
 39 42  1  0  0  0  0
 40 49  1  0  0  0  0
 41 68  1  0  0  0  0
 42 44  1  0  0  0  0
 43 45  1  0  0  0  0
 43 46  1  0  0  0  0
 44 48  1  0  0  0  0
 45 50  1  0  0  0  0
 46 69  1  0  0  0  0
 47 50  1  0  0  0  0
 47 69  1  0  0  0  0
 48 74  1  0  0  0  0
 49 68  1  0  0  0  0
 50 67  1  0  0  0  0
 51 59  1  0  0  0  0
 52 61  1  0  0  0  0
 53 62  1  0  0  0  0
 54 62  1  0  0  0  0
 55 62  1  0  0  0  0
 56 76  1  0  0  0  0
 58 59  1  0  0  0  0
 58 84  1  0  0  0  0
 60 62  1  0  0  0  0
 60 75  1  0  0  0  0
 61 76  1  0  0  0  0
 63 67  1  0  0  0  0
M  CHG  1  76   1
M  ISO  4  38 100  58 101  73 100  84 101
M  END
> <Batch ID>
0180

> <Smiles>
CNC(C)C(=O)NC(C(=O)N1Cc2cc([101O:1][101CH2:1]C(C)C(=O)NC=Cc3cc([100NH:0][100C:0](=O)N4CCCC(n5nc(-c6ccc(Oc7ccc(F)cc7F)cc6)c(C(N)=O)c5N)C4)nc(N)n3)ccc2CC1C(=O)NC1CCCc2ccccc21)C(C)(C)C

> <Shape>
0.235

> <Color>
0.064

> <Negative vol penalty>
0.000

$$$$

  -OEChem-04052304503D

 85 93  0     1  0  0  0  0  0999 V2000
  -29.4457  -37.0325   22.1185 C   0  0  0  0  0  0  0  0  0  0  0  0
  -29.6673  -35.7686   21.5811 C   0  0  0  0  0  0  0  0  0  0  0  0
  -24.6743   -8.7719   21.7583 C   0  0  0  0  0  0  0  0  0  0  0  0
  -22.9850  -10.1487   20.7153 C   0  0  0  0  0  0  0  0  0  0  0  0
  -28.5605  -37.1903   23.1840 C   0  0  0  0  0  0  0  0  0  0  0  0
  -29.0046  -34.6615   22.1097 C   0  0  0  0  0  0  0  0  0  0  0  0
  -27.0174  -29.7487   19.0401 C   0  0  0  0  0  0  0  0  0  0  0  0
  -23.6820   -8.0811   22.4537 C   0  0  0  0  0  0  0  0  0  0  0  0
  -21.9926   -9.4578   21.4106 C   0  0  0  0  0  0  0  0  0  0  0  0
  -27.5550  -28.4752   18.8589 C   0  0  0  0  0  0  0  0  0  0  0  0
  -21.4390   -5.6324   21.8166 C   0  0  0  0  0  0  0  0  0  0  0  0
  -21.5259   -4.2409   21.8584 C   0  0  0  0  0  0  0  0  0  0  0  0
  -26.2084  -27.6537   20.6841 C   0  0  0  0  0  0  0  0  0  0  0  0
  -24.6608  -20.4044   18.4035 C   0  0  0  0  0  0  0  0  0  0  0  0
  -21.6541   -4.3215   24.2697 C   0  0  0  0  0  0  0  0  0  0  0  0
  -24.3259   -9.8058   20.8892 C   0  0  0  0  0  0  0  0  0  0  0  0
  -25.8767  -10.2060   18.9036 C   0  0  0  0  0  0  0  0  0  0  0  0
  -27.8792  -36.0859   23.7197 C   0  0  0  0  0  0  0  0  0  0  0  0
  -26.0778  -29.9872   20.0534 C   0  0  0  0  0  0  0  0  0  0  0  0
  -28.1104  -34.8044   23.1843 C   0  0  0  0  0  0  0  0  0  0  0  0
  -25.6585  -28.9306   20.8743 C   0  0  0  0  0  0  0  0  0  0  0  0
  -23.9599  -19.2094   18.2848 C   0  0  0  0  0  0  0  0  0  0  0  0
  -22.3411   -8.4240   22.2798 C   0  0  0  0  0  0  0  0  0  0  0  0
  -27.1527  -27.4281   19.6828 C   0  0  0  0  0  0  0  0  0  0  0  0
  -21.4597   -6.3685   23.0012 C   0  0  0  0  0  0  0  0  0  0  0  0
  -21.6334   -3.5855   23.0850 C   0  0  0  0  0  0  0  0  0  0  0  0
  -21.5672   -5.7131   24.2278 C   0  0  0  0  0  0  0  0  0  0  0  0
  -24.4939  -18.0409   18.8165 C   0  0  0  0  0  0  0  0  0  0  0  0
  -25.3505  -10.5202   20.1710 C   0  0  0  0  0  0  0  0  0  0  0  0
  -25.8819  -20.3778   19.0577 C   0  0  0  0  0  0  0  0  0  0  0  0
  -25.7225  -18.1200   19.4520 C   0  0  0  0  0  0  0  0  0  0  0  0
  -26.8149  -11.1815   18.6699 C   0  0  0  0  0  0  0  0  0  0  0  0
  -26.8195  -25.1607   19.2152 C   0  0  0  0  0  0  0  0  0  1  0  0
  -25.5469   -9.1287   18.0169 C   0  0  0  0  0  0  0  0  0  0  0  0
  -27.2249  -23.8995   19.0238 C   0  0  0  0  0  0  0  0  0  0  0  0
  -26.2046  -22.8479   18.7050 C   0  0  0  0  0  0  0  0  0  0  0  0
  -25.9911  -31.8261   22.6446 C   0  0  0  0  0  0  0  0  0  0  0  0
  -22.9254  -30.7788   22.8090 C   0  0  0  0  0  0  0  0  0  0  0  0
  -20.6351  -28.3822   21.9980 C   0  0  0  0  0  0  0  0  0  0  0  0
  -27.4724  -16.7749   20.6665 C   0  0  0  0  0  0  0  0  0  0  0  0
  -26.9678  -36.2990   24.9023 C   0  0  0  0  0  0  0  0  0  0  0  0
  -25.4875  -31.3607   20.2185 C   0  0  0  0  0  0  0  0  0  0  0  0
  -24.6375  -29.1297   21.9636 C   0  0  0  0  0  0  0  0  0  0  0  0
  -26.0214  -35.1294   25.1604 C   0  0  0  0  0  0  0  0  0  0  0  0
  -29.8199  -14.1154   20.9714 C   0  0  0  0  0  0  0  0  0  0  0  0
  -26.7790  -33.8067   25.1020 C   0  0  0  0  0  0  0  0  0  0  0  0
  -28.9894  -12.8635   20.6794 C   0  0  0  0  0  0  0  0  0  0  0  0
  -29.0191  -15.1587   21.7484 C   0  0  0  0  0  0  0  0  0  0  0  0
  -26.9002  -14.2745   20.8556 C   0  0  0  0  0  0  0  0  0  0  0  0
  -27.3916  -33.5827   23.7142 C   0  0  1  0  0  0  0  0  0  0  0  0
  -24.9206  -31.6036   21.6139 C   0  0  1  0  0  0  0  0  0  0  0  0
  -27.6440  -13.2214   20.0181 C   0  0  2  0  0  0  0  0  0  0  0  0
  -22.6414  -19.1847   17.5894 C   0  0  0  0  0  0  0  0  0  0  0  0
  -18.2176  -27.7833   22.3054 C   0  0  0  0  0  0  0  0  0  0  0  0
  -23.5073  -29.9116   25.6759 C   0  0  0  0  0  0  0  0  0  0  0  0
  -21.4364  -28.5067   25.5974 C   0  0  0  0  0  0  0  0  0  0  0  0
  -21.2721  -30.9828   25.3434 C   0  0  0  0  0  0  0  0  0  0  0  0
  -20.1257  -28.4584   19.0836 C   0  0  0  0  0  0  0  0  0  0  0  0
  -22.2301  -29.6038   23.4533 C   0  0  1  0  0  0  0  0  0  0  0  0
  -19.2360  -28.4813   21.4174 C   0  0  2  0  0  0  0  0  0  0  0  0
  -22.1322  -29.7476   24.9983 C   0  0  0  0  0  0  0  0  0  0  0  0
  -25.9082  -11.6100   20.7051 N   0  0  0  0  0  0  0  0  0  0  0  0
  -26.4328  -19.2624   19.5869 N   0  0  0  0  0  0  0  0  0  0  0  0
  -26.7947  -11.9891   19.7688 N   0  0  0  0  0  0  0  0  0  0  0  0
  -24.0943  -30.4923   22.0896 N   0  0  0  0  0  0  0  0  0  0  0  0
  -27.7598  -15.4509   21.0603 N   0  0  0  0  0  0  0  0  0  0  0  0
  -27.6470  -11.4187   17.6337 N   0  0  0  0  0  0  0  0  0  0  0  0
  -24.5597   -8.2160   18.4127 N   0  0  0  0  0  0  0  0  0  0  0  0
  -26.5885  -21.5991   19.1738 N   0  0  0  0  0  0  0  0  0  0  0  0
  -26.2615  -16.9258   19.9916 N   0  0  0  0  0  0  0  0  0  0  0  0
  -26.3775  -33.1460   22.7785 N   0  0  0  0  0  0  0  0  0  0  0  0
  -20.9412  -29.4741   22.7823 N   0  0  0  0  0  0  0  0  0  0  0  0
  -19.1901  -27.8538   20.0665 N   0  3  0  0  0  0  0  0  0  0  0  0
  -26.1224   -8.9704   16.9136 O   0  0  0  0  0  0  0  0  0  0  0  0
  -25.1767  -23.1307   18.0990 O   0  0  0  0  0  0  0  0  0  0  0  0
  -26.4327  -30.8712   23.2729 O   0  0  0  0  0  0  0  0  0  0  0  0
  -22.4451  -31.9081   22.9332 O   0  0  0  0  0  0  0  0  0  0  0  0
  -21.3805  -27.4294   21.7807 O   0  0  0  0  0  0  0  0  0  0  0  0
  -28.2564  -17.7019   20.8860 O   0  0  0  0  0  0  0  0  0  0  0  0
  -28.5506  -23.5253   19.1071 O   0  0  0  0  0  0  0  0  0  0  0  0
  -21.3725   -7.7499   22.9580 O   0  0  0  0  0  0  0  0  0  0  0  0
  -27.6764  -26.1842   19.5086 O   0  0  0  0  0  0  0  0  0  1  0  0
  -21.7154   -2.2491   23.1252 F   0  0  0  0  0  0  0  0  0  0  0  0
  -21.5865   -6.4148   25.3693 F   0  0  0  0  0  0  0  0  0  0  0  0
  -23.8362  -16.8778   18.7141 F   0  0  0  0  0  0  0  0  0  0  0  0
  1  2  1  0  0  0  0
  1  5  2  0  0  0  0
  2  6  2  0  0  0  0
  3  8  2  0  0  0  0
  3 16  1  0  0  0  0
  4  9  1  0  0  0  0
  4 16  2  0  0  0  0
  5 18  1  0  0  0  0
  6 20  1  0  0  0  0
  7 10  2  0  0  0  0
  7 19  1  0  0  0  0
  8 23  1  0  0  0  0
  9 23  2  0  0  0  0
 10 24  1  0  0  0  0
 11 12  2  0  0  0  0
 11 25  1  0  0  0  0
 12 26  1  0  0  0  0
 13 21  1  0  0  0  0
 13 24  2  0  0  0  0
 14 22  2  0  0  0  0
 14 30  1  0  0  0  0
 15 26  2  0  0  0  0
 15 27  1  0  0  0  0
 16 29  1  0  0  0  0
 17 29  1  0  0  0  0
 17 32  2  0  0  0  0
 17 34  1  0  0  0  0
 18 20  2  0  0  0  0
 18 41  1  0  0  0  0
 19 21  2  0  0  0  0
 19 42  1  0  0  0  0
 20 50  1  0  0  0  0
 21 43  1  0  0  0  0
 22 28  1  0  0  0  0
 22 53  1  0  0  0  0
 23 81  1  0  0  0  0
 24 82  1  0  0  0  0
 25 27  2  0  0  0  0
 25 81  1  0  0  0  0
 26 83  1  0  0  0  0
 27 84  1  0  0  0  0
 28 31  2  0  0  0  0
 28 85  1  0  0  0  0
 29 62  2  0  0  0  0
 30 63  2  0  0  0  0
 30 69  1  0  0  0  0
 31 63  1  0  0  0  0
 31 70  1  0  0  0  0
 32 64  1  0  0  0  0
 32 67  1  0  0  0  0
 33 35  2  0  0  0  0
 33 82  1  0  0  0  0
 34 68  1  0  0  0  0
 34 74  2  0  0  0  0
 35 36  1  0  0  0  0
 35 80  1  0  0  0  0
 36 69  1  0  0  0  0
 36 75  2  0  0  0  0
 37 51  1  0  0  0  0
 37 71  1  0  0  0  0
 37 76  2  0  0  0  0
 38 59  1  0  0  0  0
 38 65  1  0  0  0  0
 38 77  2  0  0  0  0
 39 60  1  0  0  0  0
 39 72  1  0  0  0  0
 39 78  2  0  0  0  0
 40 66  1  0  0  0  0
 40 70  1  0  0  0  0
 40 79  2  0  0  0  0
 41 44  1  0  0  0  0
 42 51  1  0  0  0  0
 43 65  1  0  0  0  0
 44 46  1  0  0  0  0
 45 47  1  0  0  0  0
 45 48  1  0  0  0  0
 46 50  1  0  0  0  0
 47 52  1  0  0  0  0
 48 66  1  0  0  0  0
 49 52  1  0  0  0  0
 49 66  1  0  0  0  0
 50 71  1  0  0  0  0
 51 65  1  0  0  0  0
 52 64  1  0  0  0  0
 54 60  1  0  0  0  0
 55 61  1  0  0  0  0
 56 61  1  0  0  0  0
 57 61  1  0  0  0  0
 58 73  1  0  0  0  0
 59 61  1  0  0  0  0
 59 72  1  0  0  0  0
 60 73  1  0  0  0  0
 62 64  1  0  0  0  0
M  CHG  1  73   1
M  ISO  4  33 101  40 100  70 100  82 101
M  END
> <Batch ID>
0180

> <Smiles>
CNC(C)C(=O)NC(C(=O)N1Cc2cc([101O:1][101CH2:1]C(=O)C(=O)Nc3cc(C)c(F)c([100NH:0][100C:0](=O)N4CCCC(n5nc(-c6ccc(Oc7ccc(F)cc7F)cc6)c(C(N)=O)c5N)C4)n3)ccc2CC1C(=O)NC1CCCc2ccccc21)C(C)(C)C

> <Shape>
0.291

> <Color>
0.097

> <Negative vol penalty>
0.000

$$$$

  -OEChem-04052304503D

 86 94  0     1  0  0  0  0  0999 V2000
  -27.3998  -20.7528   19.9887 C   0  0  0  0  0  0  0  0  0  0  0  0
  -27.6040  -19.9284   21.0906 C   0  0  0  0  0  0  0  0  0  0  0  0
  -23.2865   -9.8015   19.9162 C   0  0  0  0  0  0  0  0  0  0  0  0
  -23.7396   -9.9436   22.2851 C   0  0  0  0  0  0  0  0  0  0  0  0
  -28.2668  -21.8173   19.7457 C   0  0  0  0  0  0  0  0  0  0  0  0
  -28.6762  -20.1674   21.9495 C   0  0  0  0  0  0  0  0  0  0  0  0
  -28.8014  -19.3010   28.0108 C   0  0  0  0  0  0  0  0  0  0  0  0
  -22.5605   -8.6290   20.1254 C   0  0  0  0  0  0  0  0  0  0  0  0
  -23.0136   -8.7711   22.4943 C   0  0  0  0  0  0  0  0  0  0  0  0
  -29.2941  -18.2626   28.7999 C   0  0  0  0  0  0  0  0  0  0  0  0
  -23.2152   -5.3550   20.6520 C   0  0  0  0  0  0  0  0  0  0  0  0
  -23.4430   -4.2888   19.7821 C   0  0  0  0  0  0  0  0  0  0  0  0
  -31.3493  -19.4856   29.1153 C   0  0  0  0  0  0  0  0  0  0  0  0
  -21.1202   -4.3338   19.1188 C   0  0  0  0  0  0  0  0  0  0  0  0
  -23.8761  -10.4588   20.9961 C   0  0  0  0  0  0  0  0  0  0  0  0
  -24.1348  -12.9887   20.7957 C   0  0  0  0  0  0  0  0  0  0  0  0
  -29.3445  -22.0753   20.6075 C   0  0  0  0  0  0  0  0  0  0  0  0
  -29.5844  -20.4366   27.7586 C   0  0  0  0  0  0  0  0  0  0  0  0
  -29.5592  -21.2355   21.7171 C   0  0  0  0  0  0  0  0  0  0  0  0
  -30.8632  -20.5381   28.3248 C   0  0  0  0  0  0  0  0  0  0  0  0
  -22.4241   -8.1137   21.4144 C   0  0  0  0  0  0  0  0  0  0  0  0
  -30.5694  -18.3535   29.3499 C   0  0  0  0  0  0  0  0  0  0  0  0
  -21.9399   -5.9107   20.7554 C   0  0  0  0  0  0  0  0  0  0  0  0
  -22.3955   -3.7781   19.0155 C   0  0  0  0  0  0  0  0  0  0  0  0
  -20.8925   -5.4000   19.9888 C   0  0  0  0  0  0  0  0  0  0  0  0
  -24.6266  -11.6697   20.7806 C   0  0  0  0  0  0  0  0  0  0  0  0
  -33.0760  -13.7619   25.2196 C   0  0  0  0  0  0  0  0  0  0  0  0
  -25.2359  -13.7687   20.5392 C   0  0  0  0  0  0  0  0  0  0  0  0
  -32.0872  -13.5292   26.1525 C   0  0  0  0  0  0  0  0  0  0  0  0
  -31.4544  -13.2089   23.8505 C   0  0  0  0  0  0  0  0  0  0  0  0
  -22.8019  -13.4662   21.0215 C   0  0  0  0  0  0  0  0  0  0  0  0
  -30.8038  -21.7869   25.1522 C   0  0  0  0  0  0  0  0  0  0  0  0
  -31.6716  -24.1149   27.2377 C   0  0  0  0  0  0  0  0  0  0  0  0
  -32.3875  -25.0037   30.4540 C   0  0  0  0  0  0  0  0  0  0  0  0
  -31.0053  -13.3354   28.4217 C   0  0  0  0  0  0  0  0  0  0  0  0
  -31.0972  -12.9558   21.3696 C   0  0  0  0  0  0  0  0  0  0  0  0
  -30.2826  -23.2091   20.2774 C   0  0  0  0  0  0  0  0  0  0  0  0
  -29.0280  -21.5598   26.9273 C   0  0  0  0  0  0  0  0  0  0  0  0
  -31.7359  -21.7451   28.1010 C   0  0  0  0  0  0  0  0  0  0  0  0
  -31.1752  -23.6208   21.4454 C   0  0  0  0  0  0  0  0  0  0  0  0
  -29.4605  -13.6583   18.2866 C   0  0  0  0  0  0  0  0  0  0  0  0
  -31.7854  -22.3910   22.1102 C   0  0  0  0  0  0  0  0  0  0  0  0
  -27.9895  -13.3539   18.5794 C   0  0  0  0  0  0  0  0  0  0  0  0
  -30.3946  -12.6836   19.0016 C   0  0  0  0  0  0  0  0  0  0  0  0
  -28.7032  -12.2562   20.7411 C   0  0  0  0  0  0  0  0  0  0  0  0
  -30.6965  -21.4775   22.6857 C   0  0  1  0  0  0  0  0  0  0  0  0
  -30.1108  -22.4419   26.3134 C   0  0  1  0  0  0  0  0  0  0  0  0
  -27.7260  -13.2516   20.0946 C   0  0  2  0  0  0  0  0  0  0  0  0
  -34.5710  -15.6707   25.8581 C   0  0  0  0  0  0  0  0  0  0  0  0
  -33.1016  -26.9683   31.8423 C   0  0  0  0  0  0  0  0  0  0  0  0
  -32.5414  -12.6427   30.3361 C   0  0  0  0  0  0  0  0  0  0  0  0
  -30.1183  -13.1572   30.7590 C   0  0  0  0  0  0  0  0  0  0  0  0
  -34.5233  -23.8117   26.1957 C   0  0  0  0  0  0  0  0  0  0  0  0
  -35.3196  -25.0594   28.2149 C   0  0  0  0  0  0  0  0  0  0  0  0
  -33.7992  -26.1742   26.5813 C   0  0  0  0  0  0  0  0  0  0  0  0
  -29.9116  -24.9075   32.0725 C   0  0  0  0  0  0  0  0  0  0  0  0
  -34.4622  -14.1832   25.5089 C   0  0  0  0  0  0  0  0  0  0  0  0
  -31.6825  -15.0270   30.2082 C   0  0  0  0  0  0  0  0  0  0  0  0
  -30.5882  -16.0239   29.8280 C   0  0  0  0  0  0  0  0  0  1  0  0
  -32.8794  -24.3780   28.1043 C   0  0  1  0  0  0  0  0  0  0  0  0
  -31.9228  -26.1731   31.3031 C   0  0  2  0  0  0  0  0  0  0  0  0
  -31.3573  -13.5338   29.9214 C   0  0  0  0  0  0  0  0  0  0  0  0
  -34.1149  -24.8321   27.2769 C   0  0  0  0  0  0  0  0  0  0  0  0
  -25.9379  -11.6112   20.5338 N   0  0  0  0  0  0  0  0  0  0  0  0
  -32.7151  -13.5783   23.8991 N   0  0  0  0  0  0  0  0  0  0  0  0
  -26.2795  -12.9031   20.3914 N   0  0  0  0  0  0  0  0  0  0  0  0
  -31.1496  -22.8142   27.2759 N   0  0  0  0  0  0  0  0  0  0  0  0
  -30.0892  -12.6424   20.4334 N   0  0  0  0  0  0  0  0  0  0  0  0
  -25.4034  -15.1035   20.4278 N   0  0  0  0  0  0  0  0  0  0  0  0
  -21.7897  -12.5293   21.2706 N   0  0  0  0  0  0  0  0  0  0  0  0
  -32.0691  -13.6092   27.5665 N   0  0  0  0  0  0  0  0  0  0  0  0
  -30.6813  -12.9149   22.7000 N   0  0  0  0  0  0  0  0  0  0  0  0
  -30.1944  -22.0132   23.9328 N   0  0  0  0  0  0  0  0  0  0  0  0
  -32.4536  -25.3372   29.1177 N   0  0  0  0  0  0  0  0  0  0  0  0
  -31.1164  -25.6865   32.4580 N   0  3  0  0  0  0  0  0  0  0  0  0
  -22.5137  -14.6866   20.9868 O   0  0  0  0  0  0  0  0  0  0  0  0
  -31.8172  -21.1263   25.3478 O   0  0  0  0  0  0  0  0  0  0  0  0
  -31.2041  -25.0317   26.5576 O   0  0  0  0  0  0  0  0  0  0  0  0
  -32.6677  -23.9054   30.9291 O   0  0  0  0  0  0  0  0  0  0  0  0
  -29.8928  -12.9404   28.0776 O   0  0  0  0  0  0  0  0  0  0  0  0
  -32.2376  -13.2661   21.0159 O   0  0  0  0  0  0  0  0  0  0  0  0
  -21.7155   -6.9697   21.6189 O   0  0  0  0  0  0  0  0  0  0  0  0
  -31.0531  -17.3411   30.1200 O   0  0  0  0  0  0  0  0  0  1  0  0
  -22.6148   -2.7552   18.1790 F   0  0  0  0  0  0  0  0  0  0  0  0
  -19.6654   -5.9304   20.0829 F   0  0  0  0  0  0  0  0  0  0  0  0
  -30.6422  -13.0629   25.3551 S   0  0  0  0  0  0  0  0  0  0  0  0
  1  2  1  0  0  0  0
  1  5  2  0  0  0  0
  2  6  2  0  0  0  0
  3  8  2  0  0  0  0
  3 15  1  0  0  0  0
  4  9  1  0  0  0  0
  4 15  2  0  0  0  0
  5 17  1  0  0  0  0
  6 19  1  0  0  0  0
  7 10  2  0  0  0  0
  7 18  1  0  0  0  0
  8 21  1  0  0  0  0
  9 21  2  0  0  0  0
 10 22  1  0  0  0  0
 11 12  2  0  0  0  0
 11 23  1  0  0  0  0
 12 24  1  0  0  0  0
 13 20  1  0  0  0  0
 13 22  2  0  0  0  0
 14 24  2  0  0  0  0
 14 25  1  0  0  0  0
 15 26  1  0  0  0  0
 16 26  1  0  0  0  0
 16 28  2  0  0  0  0
 16 31  1  0  0  0  0
 17 19  2  0  0  0  0
 17 37  1  0  0  0  0
 18 20  2  0  0  0  0
 18 38  1  0  0  0  0
 19 46  1  0  0  0  0
 20 39  1  0  0  0  0
 21 82  1  0  0  0  0
 22 83  1  0  0  0  0
 23 25  2  0  0  0  0
 23 82  1  0  0  0  0
 24 84  1  0  0  0  0
 25 85  1  0  0  0  0
 26 64  2  0  0  0  0
 27 29  2  0  0  0  0
 27 57  1  0  0  0  0
 27 65  1  0  0  0  0
 28 66  1  0  0  0  0
 28 69  1  0  0  0  0
 29 71  1  0  0  0  0
 29 86  1  0  0  0  0
 30 65  2  0  0  0  0
 30 72  1  0  0  0  0
 30 86  1  0  0  0  0
 31 70  1  0  0  0  0
 31 76  2  0  0  0  0
 32 47  1  0  0  0  0
 32 73  1  0  0  0  0
 32 77  2  0  0  0  0
 33 60  1  0  0  0  0
 33 67  1  0  0  0  0
 33 78  2  0  0  0  0
 34 61  1  0  0  0  0
 34 74  1  0  0  0  0
 34 79  2  0  0  0  0
 35 62  1  0  0  0  0
 35 71  1  0  0  0  0
 35 80  2  0  0  0  0
 36 68  1  0  0  0  0
 36 72  1  0  0  0  0
 36 81  2  0  0  0  0
 37 40  1  0  0  0  0
 38 47  1  0  0  0  0
 39 67  1  0  0  0  0
 40 42  1  0  0  0  0
 41 43  1  0  0  0  0
 41 44  1  0  0  0  0
 42 46  1  0  0  0  0
 43 48  1  0  0  0  0
 44 68  1  0  0  0  0
 45 48  1  0  0  0  0
 45 68  1  0  0  0  0
 46 73  1  0  0  0  0
 47 67  1  0  0  0  0
 48 66  1  0  0  0  0
 49 57  1  0  0  0  0
 50 61  1  0  0  0  0
 51 62  1  0  0  0  0
 52 62  1  0  0  0  0
 53 63  1  0  0  0  0
 54 63  1  0  0  0  0
 55 63  1  0  0  0  0
 56 75  1  0  0  0  0
 58 59  1  0  0  0  0
 58 62  1  0  0  0  0
 59 83  1  0  0  0  0
 60 63  1  0  0  0  0
 60 74  1  0  0  0  0
 61 75  1  0  0  0  0
 64 66  1  0  0  0  0
M  CHG  1  75   1
M  ISO  4  36 100  59 101  72 100  83 101
M  END
> <Batch ID>
0180

> <Smiles>
CCc1nc([100NH:0][100C:0](=O)N2CCCC(n3nc(-c4ccc(Oc5ccc(F)cc5F)cc4)c(C(N)=O)c3N)C2)sc1NC(=O)C(C)(C)C[101CH2:1][101O:1]c1ccc2c(c1)CN(C(=O)C(NC(=O)C(C)NC)C(C)(C)C)C(C(=O)NC1CCCc3ccccc31)C2

> <Shape>
0.155

> <Color>
0.164

> <Negative vol penalty>
0.000

$$$$

  -OEChem-04052304503D

 84 91  0     1  0  0  0  0  0999 V2000
  -31.2282  -11.4367    8.9087 C   0  0  0  0  0  0  0  0  0  0  0  0
  -31.2160  -12.3041    9.9963 C   0  0  0  0  0  0  0  0  0  0  0  0
  -23.0719   -9.8708   19.9445 C   0  0  0  0  0  0  0  0  0  0  0  0
  -23.8345   -9.8798   22.2370 C   0  0  0  0  0  0  0  0  0  0  0  0
  -30.1298  -11.3793    8.0519 C   0  0  0  0  0  0  0  0  0  0  0  0
  -30.1056  -13.1154   10.2272 C   0  0  0  0  0  0  0  0  0  0  0  0
  -27.8584  -14.8204   15.6630 C   0  0  0  0  0  0  0  0  0  0  0  0
  -22.3281   -8.7180   20.1964 C   0  0  0  0  0  0  0  0  0  0  0  0
  -23.0906   -8.7271   22.4890 C   0  0  0  0  0  0  0  0  0  0  0  0
  -28.0034  -15.9860   16.4142 C   0  0  0  0  0  0  0  0  0  0  0  0
  -20.5132   -5.5673   20.1432 C   0  0  0  0  0  0  0  0  0  0  0  0
  -20.5752   -4.5360   19.2062 C   0  0  0  0  0  0  0  0  0  0  0  0
  -25.9350  -16.8255   15.4998 C   0  0  0  0  0  0  0  0  0  0  0  0
  -22.9604   -4.3657   19.5514 C   0  0  0  0  0  0  0  0  0  0  0  0
  -23.8252  -10.4516   20.9648 C   0  0  0  0  0  0  0  0  0  0  0  0
  -24.1674  -12.9766   20.8419 C   0  0  0  0  0  0  0  0  0  0  0  0
  -29.0015  -12.1833    8.2779 C   0  0  0  0  0  0  0  0  0  0  0  0
  -26.7543  -14.6530   14.8149 C   0  0  0  0  0  0  0  0  0  0  0  0
  -28.9916  -13.0696    9.3719 C   0  0  0  0  0  0  0  0  0  0  0  0
  -25.7770  -15.6558   14.7409 C   0  0  0  0  0  0  0  0  0  0  0  0
  -22.3374   -8.1462   21.4687 C   0  0  0  0  0  0  0  0  0  0  0  0
  -27.0432  -16.9900   16.3304 C   0  0  0  0  0  0  0  0  0  0  0  0
  -21.6748   -5.9979   20.7843 C   0  0  0  0  0  0  0  0  0  0  0  0
  -21.7988   -3.9351   18.9103 C   0  0  0  0  0  0  0  0  0  0  0  0
  -22.8984   -5.3971   20.4884 C   0  0  0  0  0  0  0  0  0  0  0  0
  -24.5942  -11.6421   20.7050 C   0  0  0  0  0  0  0  0  0  0  0  0
  -25.2593  -13.7255   20.4767 C   0  0  0  0  0  0  0  0  0  0  0  0
  -22.8975  -13.4931   21.2618 C   0  0  0  0  0  0  0  0  0  0  0  0
  -26.3693  -14.2669   11.6834 C   0  0  0  0  0  0  0  0  0  0  0  0
  -27.3554  -19.0583   19.2907 C   0  0  0  0  0  0  0  0  0  0  0  0
  -23.2652  -13.8229   12.5138 C   0  0  0  0  0  0  0  0  0  0  0  0
  -29.7548  -17.9922   22.0085 C   0  0  0  0  0  0  0  0  0  0  0  0
  -20.7628  -14.3693   14.7690 C   0  0  0  0  0  0  0  0  0  0  0  0
  -30.7435  -14.7436   20.6577 C   0  0  0  0  0  0  0  0  0  0  0  0
  -27.8572  -12.1206    7.2974 C   0  0  0  0  0  0  0  0  0  0  0  0
  -26.5987  -13.3784   14.0316 C   0  0  0  0  0  0  0  0  0  0  0  0
  -24.5627  -15.5163   13.8609 C   0  0  0  0  0  0  0  0  0  0  0  0
  -26.5670  -12.7415    7.8265 C   0  0  0  0  0  0  0  0  0  0  0  0
  -29.6026  -12.3570   18.2746 C   0  0  0  0  0  0  0  0  0  0  0  0
  -26.8508  -14.0947    8.4708 C   0  0  0  0  0  0  0  0  0  0  0  0
  -28.1656  -12.0640   18.7094 C   0  0  0  0  0  0  0  0  0  0  0  0
  -30.5212  -12.5788   19.4742 C   0  0  0  0  0  0  0  0  0  0  0  0
  -28.6212  -13.3116   20.8622 C   0  0  0  0  0  0  0  0  0  0  0  0
  -27.7955  -13.9476    9.6697 C   0  0  1  0  0  0  0  0  0  0  0  0
  -25.6979  -13.5340   12.8101 C   0  0  1  0  0  0  0  0  0  0  0  0
  -27.6456  -13.1361   19.6859 C   0  0  2  0  0  0  0  0  0  0  0  0
  -18.3250  -13.9156   15.1549 C   0  0  0  0  0  0  0  0  0  0  0  0
  -30.9104  -15.9678   24.2833 C   0  0  0  0  0  0  0  0  0  0  0  0
  -32.9958  -16.0908   22.8965 C   0  0  0  0  0  0  0  0  0  0  0  0
  -26.8832  -18.8823   21.7228 C   0  0  0  0  0  0  0  0  0  0  0  0
  -28.5971  -20.5266   20.8933 C   0  0  0  0  0  0  0  0  0  0  0  0
  -22.5440  -15.9882   10.4885 C   0  0  0  0  0  0  0  0  0  0  0  0
  -20.2955  -16.1590   11.5764 C   0  0  0  0  0  0  0  0  0  0  0  0
  -21.0015  -14.0197   10.5050 C   0  0  0  0  0  0  0  0  0  0  0  0
  -21.3197  -12.8413   17.2416 C   0  0  0  0  0  0  0  0  0  0  0  0
  -27.8700  -18.0205   18.3079 C   0  0  0  0  0  0  0  0  0  1  0  0
  -22.0658  -14.7230   12.6878 C   0  0  1  0  0  0  0  0  0  0  0  0
  -30.8112  -16.8953   21.8924 C   0  0  1  0  0  0  0  0  0  0  0  0
  -19.7465  -13.4302   15.3931 C   0  0  2  0  0  0  0  0  0  0  0  0
  -31.6417  -16.7466   23.1848 C   0  0  0  0  0  0  0  0  0  0  0  0
  -27.9871  -19.1378   20.6921 C   0  0  0  0  0  0  0  0  0  0  0  0
  -21.5005  -15.2262   11.3296 C   0  0  0  0  0  0  0  0  0  0  0  0
  -25.8586  -11.5456   20.2853 N   0  0  0  0  0  0  0  0  0  0  0  0
  -26.2356  -12.8290   20.1553 N   0  0  0  0  0  0  0  0  0  0  0  0
  -24.4588  -14.2543   13.1097 N   0  0  0  0  0  0  0  0  0  0  0  0
  -29.9719  -13.6083   20.3598 N   0  0  0  0  0  0  0  0  0  0  0  0
  -25.4699  -15.0569   20.4021 N   0  0  0  0  0  0  0  0  0  0  0  0
  -21.8858  -12.5845   21.6011 N   0  0  0  0  0  0  0  0  0  0  0  0
  -27.0758  -13.4492   10.8221 N   0  0  0  0  0  0  0  0  0  0  0  0
  -21.1072  -13.9745   13.4935 N   0  0  0  0  0  0  0  0  0  0  0  0
  -29.0233  -18.1388   20.8403 N   0  0  0  0  0  0  0  0  0  0  0  0
  -30.1455  -15.6733   21.4995 N   0  0  0  0  0  0  0  0  0  0  0  0
  -19.9686  -13.3296   16.8633 N   0  3  0  0  0  0  0  0  0  0  0  0
  -22.6616  -14.7238   21.3182 O   0  0  0  0  0  0  0  0  0  0  0  0
  -26.2538  -15.4841   11.6006 O   0  0  0  0  0  0  0  0  0  0  0  0
  -26.4107  -19.7935   18.9881 O   0  0  0  0  0  0  0  0  0  0  0  0
  -23.1457  -12.7722   11.8787 O   0  0  0  0  0  0  0  0  0  0  0  0
  -29.6079  -18.6759   23.0196 O   0  0  0  0  0  0  0  0  0  0  0  0
  -21.2039  -15.3567   15.3530 O   0  0  0  0  0  0  0  0  0  0  0  0
  -31.8789  -14.9184   20.2026 O   0  0  0  0  0  0  0  0  0  0  0  0
  -21.6115   -7.0215   21.7149 O   0  0  0  0  0  0  0  0  0  0  0  0
  -27.1827  -18.1289   17.0620 O   0  0  0  0  0  0  0  0  0  1  0  0
  -21.8579   -2.9437   18.0115 F   0  0  0  0  0  0  0  0  0  0  0  0
  -24.0175   -5.8057   21.1019 F   0  0  0  0  0  0  0  0  0  0  0  0
  1  2  1  0  0  0  0
  1  5  2  0  0  0  0
  2  6  2  0  0  0  0
  3  8  2  0  0  0  0
  3 15  1  0  0  0  0
  4  9  1  0  0  0  0
  4 15  2  0  0  0  0
  5 17  1  0  0  0  0
  6 19  1  0  0  0  0
  7 10  2  0  0  0  0
  7 18  1  0  0  0  0
  8 21  1  0  0  0  0
  9 21  2  0  0  0  0
 10 22  1  0  0  0  0
 11 12  2  0  0  0  0
 11 23  1  0  0  0  0
 12 24  1  0  0  0  0
 13 20  1  0  0  0  0
 13 22  2  0  0  0  0
 14 24  2  0  0  0  0
 14 25  1  0  0  0  0
 15 26  1  0  0  0  0
 16 26  1  0  0  0  0
 16 27  2  0  0  0  0
 16 28  1  0  0  0  0
 17 19  2  0  0  0  0
 17 35  1  0  0  0  0
 18 20  2  0  0  0  0
 18 36  1  0  0  0  0
 19 44  1  0  0  0  0
 20 37  1  0  0  0  0
 21 81  1  0  0  0  0
 22 82  1  0  0  0  0
 23 25  2  0  0  0  0
 23 81  1  0  0  0  0
 24 83  1  0  0  0  0
 25 84  1  0  0  0  0
 26 63  2  0  0  0  0
 27 64  1  0  0  0  0
 27 67  1  0  0  0  0
 28 68  1  0  0  0  0
 28 74  2  0  0  0  0
 29 45  1  0  0  0  0
 29 69  1  0  0  0  0
 29 75  2  0  0  0  0
 30 56  1  0  0  0  0
 30 61  1  0  0  0  0
 30 76  2  0  0  0  0
 31 57  1  0  0  0  0
 31 65  1  0  0  0  0
 31 77  2  0  0  0  0
 32 58  1  0  0  0  0
 32 71  1  0  0  0  0
 32 78  2  0  0  0  0
 33 59  1  0  0  0  0
 33 70  1  0  0  0  0
 33 79  2  0  0  0  0
 34 66  1  0  0  0  0
 34 72  1  0  0  0  0
 34 80  2  0  0  0  0
 35 38  1  0  0  0  0
 36 45  1  0  0  0  0
 37 65  1  0  0  0  0
 38 40  1  0  0  0  0
 39 41  1  0  0  0  0
 39 42  1  0  0  0  0
 40 44  1  0  0  0  0
 41 46  1  0  0  0  0
 42 66  1  0  0  0  0
 43 46  1  0  0  0  0
 43 66  1  0  0  0  0
 44 69  1  0  0  0  0
 45 65  1  0  0  0  0
 46 64  1  0  0  0  0
 47 59  1  0  0  0  0
 48 60  1  0  0  0  0
 49 60  1  0  0  0  0
 50 61  1  0  0  0  0
 51 61  1  0  0  0  0
 52 62  1  0  0  0  0
 53 62  1  0  0  0  0
 54 62  1  0  0  0  0
 55 73  1  0  0  0  0
 56 82  1  0  0  0  0
 57 62  1  0  0  0  0
 57 70  1  0  0  0  0
 58 60  1  0  0  0  0
 58 72  1  0  0  0  0
 59 73  1  0  0  0  0
 61 71  1  0  0  0  0
 63 64  1  0  0  0  0
M  CHG  1  73   1
M  ISO  4  34 100  56 101  72 100  82 101
M  END
> <Batch ID>
0180

> <Smiles>
CNC(C)C(=O)NC(C(=O)N1Cc2cc([101O:1][101CH2:1]C(=O)C(C)(C)NC(=O)C([100NH:0][100C:0](=O)N3CCCC(n4nc(-c5ccc(Oc6ccc(F)cc6F)cc5)c(C(N)=O)c4N)C3)C(C)C)ccc2CC1C(=O)NC1CCCc2ccccc21)C(C)(C)C

> <Shape>
0.186

> <Color>
0.184

> <Negative vol penalty>
0.000

$$$$

  -OEChem-04052304503D

 83 91  0     1  0  0  0  0  0999 V2000
  -32.5822  -32.4569   16.3706 C   0  0  0  0  0  0  0  0  0  0  0  0
  -32.4101  -31.5296   17.3932 C   0  0  0  0  0  0  0  0  0  0  0  0
  -23.1360   -9.7773   20.1896 C   0  0  0  0  0  0  0  0  0  0  0  0
  -23.7820  -10.1080   22.4941 C   0  0  0  0  0  0  0  0  0  0  0  0
  -31.8201  -33.6244   16.3541 C   0  0  0  0  0  0  0  0  0  0  0  0
  -31.4764  -31.7697   18.4007 C   0  0  0  0  0  0  0  0  0  0  0  0
  -28.6737  -27.6883   19.4647 C   0  0  0  0  0  0  0  0  0  0  0  0
  -22.4008   -8.6504   20.5574 C   0  0  0  0  0  0  0  0  0  0  0  0
  -23.0468   -8.9811   22.8619 C   0  0  0  0  0  0  0  0  0  0  0  0
  -29.2610  -26.7008   20.2544 C   0  0  0  0  0  0  0  0  0  0  0  0
  -19.8072   -8.1944   23.4157 C   0  0  0  0  0  0  0  0  0  0  0  0
  -18.9944   -8.2930   24.5450 C   0  0  0  0  0  0  0  0  0  0  0  0
  -28.0870  -27.5524   22.1820 C   0  0  0  0  0  0  0  0  0  0  0  0
  -20.2315   -6.5011   25.5918 C   0  0  0  0  0  0  0  0  0  0  0  0
  -23.8267  -10.5060   21.1580 C   0  0  0  0  0  0  0  0  0  0  0  0
  -24.1303  -13.0000   20.7158 C   0  0  0  0  0  0  0  0  0  0  0  0
  -30.8698  -33.8743   17.3566 C   0  0  0  0  0  0  0  0  0  0  0  0
  -27.7955  -28.6236   20.0309 C   0  0  0  0  0  0  0  0  0  0  0  0
  -30.7018  -32.9422   18.3984 C   0  0  0  0  0  0  0  0  0  0  0  0
  -27.4878  -28.5492   21.3969 C   0  0  0  0  0  0  0  0  0  0  0  0
  -22.3562   -8.2524   21.8936 C   0  0  0  0  0  0  0  0  0  0  0  0
  -28.9700  -26.6345   21.6138 C   0  0  0  0  0  0  0  0  0  0  0  0
  -20.8321   -7.2491   23.3744 C   0  0  0  0  0  0  0  0  0  0  0  0
  -19.2066   -7.4464   25.6330 C   0  0  0  0  0  0  0  0  0  0  0  0
  -21.0442   -6.4025   24.4624 C   0  0  0  0  0  0  0  0  0  0  0  0
  -24.5868  -11.6698   20.7786 C   0  0  0  0  0  0  0  0  0  0  0  0
  -30.4495  -19.5059   22.3273 C   0  0  0  0  0  0  0  0  0  0  0  0
  -31.5928  -19.0693   21.6914 C   0  0  0  0  0  0  0  0  0  0  0  0
  -25.2258  -13.7201   20.3062 C   0  0  0  0  0  0  0  0  0  0  0  0
  -30.4044  -17.2330   21.5308 C   0  0  0  0  0  0  0  0  0  0  0  0
  -30.1254  -21.9442   22.2047 C   0  0  0  0  0  0  0  0  0  0  0  0
  -22.8320  -13.5368   21.0023 C   0  0  0  0  0  0  0  0  0  0  0  0
  -30.1256  -20.8129   22.9325 C   0  0  0  0  0  0  0  0  0  0  0  0
  -29.8015  -23.2968   22.7511 C   0  0  0  0  0  0  0  0  0  0  0  0
  -27.7955  -31.7847   20.3647 C   0  0  0  0  0  0  0  0  0  0  0  0
  -24.8053  -31.2729   21.5132 C   0  0  0  0  0  0  0  0  0  0  0  0
  -22.5883  -29.1233   22.9661 C   0  0  0  0  0  0  0  0  0  0  0  0
  -30.6580  -14.9089   20.5924 C   0  0  0  0  0  0  0  0  0  0  0  0
  -30.1030  -35.1726   17.3225 C   0  0  0  0  0  0  0  0  0  0  0  0
  -27.1494  -29.6662   19.1602 C   0  0  0  0  0  0  0  0  0  0  0  0
  -26.5359  -29.5170   22.0492 C   0  0  0  0  0  0  0  0  0  0  0  0
  -28.8698  -35.1755   18.2222 C   0  0  0  0  0  0  0  0  0  0  0  0
  -29.7032  -12.1753   18.5205 C   0  0  0  0  0  0  0  0  0  0  0  0
  -29.2112  -34.6112   19.5977 C   0  0  0  0  0  0  0  0  0  0  0  0
  -28.2494  -11.9095   18.9181 C   0  0  0  0  0  0  0  0  0  0  0  0
  -30.5540  -12.5838   19.7217 C   0  0  0  0  0  0  0  0  0  0  0  0
  -28.5693  -13.4405   20.9033 C   0  0  0  0  0  0  0  0  0  0  0  0
  -29.6814  -33.1552   19.4955 C   0  0  1  0  0  0  0  0  0  0  0  0
  -26.6689  -30.8842   19.9431 C   0  0  1  0  0  0  0  0  0  0  0  0
  -27.6586  -13.0888   19.7155 C   0  0  2  0  0  0  0  0  0  0  0  0
  -20.2311  -29.0031   23.8186 C   0  0  0  0  0  0  0  0  0  0  0  0
  -25.6270  -32.8402   23.9989 C   0  0  0  0  0  0  0  0  0  0  0  0
  -23.6292  -31.8914   25.1723 C   0  0  0  0  0  0  0  0  0  0  0  0
  -23.3229  -33.3401   23.1648 C   0  0  0  0  0  0  0  0  0  0  0  0
  -21.8753  -26.9964   21.0355 C   0  0  0  0  0  0  0  0  0  0  0  0
  -29.8621  -24.4343   21.7527 C   0  0  0  0  0  0  0  0  0  1  0  0
  -24.2164  -30.9928   22.8747 C   0  0  1  0  0  0  0  0  0  0  0  0
  -21.1491  -28.7792   22.6270 C   0  0  2  0  0  0  0  0  0  0  0  0
  -24.2184  -32.2489   23.7911 C   0  0  0  0  0  0  0  0  0  0  0  0
  -25.8721  -11.5491   20.4361 N   0  0  0  0  0  0  0  0  0  0  0  0
  -31.5689  -17.7661   21.2344 N   0  0  0  0  0  0  0  0  0  0  0  0
  -26.2326  -12.8127   20.1541 N   0  0  0  0  0  0  0  0  0  0  0  0
  -25.9346  -30.5221   21.1571 N   0  0  0  0  0  0  0  0  0  0  0  0
  -29.9349  -13.7088   20.4259 N   0  0  0  0  0  0  0  0  0  0  0  0
  -32.6964  -19.8337   21.5038 N   0  0  0  0  0  0  0  0  0  0  0  0
  -25.4165  -15.0345   20.0649 N   0  0  0  0  0  0  0  0  0  0  0  0
  -21.8206  -12.6570   21.4113 N   0  0  0  0  0  0  0  0  0  0  0  0
  -29.9553  -15.9192   21.2483 N   0  0  0  0  0  0  0  0  0  0  0  0
  -28.5506  -32.2704   19.3143 N   0  0  0  0  0  0  0  0  0  0  0  0
  -22.8923  -30.4277   22.6384 N   0  0  0  0  0  0  0  0  0  0  0  0
  -21.0416  -27.3518   22.2126 N   0  3  0  0  0  0  0  0  0  0  0  0
  -22.5719  -14.7581   20.8828 O   0  0  0  0  0  0  0  0  0  0  0  0
  -29.5069  -23.4742   23.9294 O   0  0  0  0  0  0  0  0  0  0  0  0
  -27.9660  -32.0224   21.5547 O   0  0  0  0  0  0  0  0  0  0  0  0
  -24.2783  -32.1214   20.7893 O   0  0  0  0  0  0  0  0  0  0  0  0
  -23.3639  -28.3168   23.4744 O   0  0  0  0  0  0  0  0  0  0  0  0
  -31.8056  -15.0405   20.1592 O   0  0  0  0  0  0  0  0  0  0  0  0
  -29.8128  -20.7426   24.2738 O   0  0  0  0  0  0  0  0  0  0  0  0
  -21.6387   -7.1530   22.2529 O   0  0  0  0  0  0  0  0  0  0  0  0
  -29.5425  -25.6720   22.3870 O   0  0  0  0  0  0  0  0  0  1  0  0
  -18.4270   -7.5422   26.7180 F   0  0  0  0  0  0  0  0  0  0  0  0
  -22.0280   -5.4931   24.4291 F   0  0  0  0  0  0  0  0  0  0  0  0
  -29.2902  -18.2424   22.3583 S   0  0  0  0  0  0  0  0  0  0  0  0
  1  2  1  0  0  0  0
  1  5  2  0  0  0  0
  2  6  2  0  0  0  0
  3  8  2  0  0  0  0
  3 15  1  0  0  0  0
  4  9  1  0  0  0  0
  4 15  2  0  0  0  0
  5 17  1  0  0  0  0
  6 19  1  0  0  0  0
  7 10  2  0  0  0  0
  7 18  1  0  0  0  0
  8 21  1  0  0  0  0
  9 21  2  0  0  0  0
 10 22  1  0  0  0  0
 11 12  2  0  0  0  0
 11 23  1  0  0  0  0
 12 24  1  0  0  0  0
 13 20  1  0  0  0  0
 13 22  2  0  0  0  0
 14 24  2  0  0  0  0
 14 25  1  0  0  0  0
 15 26  1  0  0  0  0
 16 26  1  0  0  0  0
 16 29  2  0  0  0  0
 16 32  1  0  0  0  0
 17 19  2  0  0  0  0
 17 39  1  0  0  0  0
 18 20  2  0  0  0  0
 18 40  1  0  0  0  0
 19 48  1  0  0  0  0
 20 41  1  0  0  0  0
 21 79  1  0  0  0  0
 22 80  1  0  0  0  0
 23 25  2  0  0  0  0
 23 79  1  0  0  0  0
 24 81  1  0  0  0  0
 25 82  1  0  0  0  0
 26 60  2  0  0  0  0
 27 28  2  0  0  0  0
 27 33  1  0  0  0  0
 27 83  1  0  0  0  0
 28 61  1  0  0  0  0
 28 65  1  0  0  0  0
 29 62  1  0  0  0  0
 29 66  1  0  0  0  0
 30 61  2  0  0  0  0
 30 68  1  0  0  0  0
 30 83  1  0  0  0  0
 31 33  2  0  0  0  0
 31 34  1  0  0  0  0
 32 67  1  0  0  0  0
 32 72  2  0  0  0  0
 33 78  1  0  0  0  0
 34 56  1  0  0  0  0
 34 73  2  0  0  0  0
 35 49  1  0  0  0  0
 35 69  1  0  0  0  0
 35 74  2  0  0  0  0
 36 57  1  0  0  0  0
 36 63  1  0  0  0  0
 36 75  2  0  0  0  0
 37 58  1  0  0  0  0
 37 70  1  0  0  0  0
 37 76  2  0  0  0  0
 38 64  1  0  0  0  0
 38 68  1  0  0  0  0
 38 77  2  0  0  0  0
 39 42  1  0  0  0  0
 40 49  1  0  0  0  0
 41 63  1  0  0  0  0
 42 44  1  0  0  0  0
 43 45  1  0  0  0  0
 43 46  1  0  0  0  0
 44 48  1  0  0  0  0
 45 50  1  0  0  0  0
 46 64  1  0  0  0  0
 47 50  1  0  0  0  0
 47 64  1  0  0  0  0
 48 69  1  0  0  0  0
 49 63  1  0  0  0  0
 50 62  1  0  0  0  0
 51 58  1  0  0  0  0
 52 59  1  0  0  0  0
 53 59  1  0  0  0  0
 54 59  1  0  0  0  0
 55 71  1  0  0  0  0
 56 80  1  0  0  0  0
 57 59  1  0  0  0  0
 57 70  1  0  0  0  0
 58 71  1  0  0  0  0
 60 62  1  0  0  0  0
M  CHG  1  71   1
M  ISO  4  38 100  56 101  68 100  80 101
M  END
> <Batch ID>
0180

> <Smiles>
CNC(C)C(=O)NC(C(=O)N1Cc2cc([101O:1][101CH2:1]C(=O)CC(=O)c3sc([100NH:0][100C:0](=O)N4CCCC(n5nc(-c6ccc(Oc7ccc(F)cc7F)cc6)c(C(N)=O)c5N)C4)nc3N)ccc2CC1C(=O)NC1CCCc2ccccc21)C(C)(C)C

> <Shape>
0.310

> <Color>
0.187

> <Negative vol penalty>
0.000

$$$$

  -OEChem-04052304503D

 85 93  0     1  0  0  0  0  0999 V2000
  -26.0705  -38.0774   22.2365 C   0  0  0  0  0  0  0  0  0  0  0  0
  -26.8208  -36.9825   21.8198 C   0  0  0  0  0  0  0  0  0  0  0  0
  -24.6170   -8.6288   21.7145 C   0  0  0  0  0  0  0  0  0  0  0  0
  -22.9595  -10.0979   20.7495 C   0  0  0  0  0  0  0  0  0  0  0  0
  -25.0318  -37.9023   23.1500 C   0  0  0  0  0  0  0  0  0  0  0  0
  -26.5335  -35.7119   22.3172 C   0  0  0  0  0  0  0  0  0  0  0  0
  -26.9926  -30.3931   19.3163 C   0  0  0  0  0  0  0  0  0  0  0  0
  -23.6146   -7.9576   22.4146 C   0  0  0  0  0  0  0  0  0  0  0  0
  -21.9570   -9.4267   21.4496 C   0  0  0  0  0  0  0  0  0  0  0  0
  -27.9797  -29.4087   19.2978 C   0  0  0  0  0  0  0  0  0  0  0  0
  -21.2635   -5.6157   21.7658 C   0  0  0  0  0  0  0  0  0  0  0  0
  -21.2969   -4.2213   21.7682 C   0  0  0  0  0  0  0  0  0  0  0  0
  -26.7552  -28.1580   20.9577 C   0  0  0  0  0  0  0  0  0  0  0  0
  -21.4832   -4.2300   24.1771 C   0  0  0  0  0  0  0  0  0  0  0  0
  -24.2895   -9.6990   20.8819 C   0  0  0  0  0  0  0  0  0  0  0  0
  -25.8090  -10.0942   18.8713 C   0  0  0  0  0  0  0  0  0  0  0  0
  -24.7254  -36.6274   23.6515 C   0  0  0  0  0  0  0  0  0  0  0  0
  -25.8829  -30.2724   20.1651 C   0  0  0  0  0  0  0  0  0  0  0  0
  -25.4906  -35.5197   23.2393 C   0  0  0  0  0  0  0  0  0  0  0  0
  -25.7540  -29.1409   20.9832 C   0  0  0  0  0  0  0  0  0  0  0  0
  -22.2846   -8.3566   22.2821 C   0  0  0  0  0  0  0  0  0  0  0  0
  -27.8626  -28.2924   20.1207 C   0  0  0  0  0  0  0  0  0  0  0  0
  -21.3401   -6.3173   22.9690 C   0  0  0  0  0  0  0  0  0  0  0  0
  -21.4067   -3.5284   22.9738 C   0  0  0  0  0  0  0  0  0  0  0  0
  -21.4499   -5.6244   24.1746 C   0  0  0  0  0  0  0  0  0  0  0  0
  -25.3247  -10.3931   20.1589 C   0  0  0  0  0  0  0  0  0  0  0  0
  -25.7157  -20.0970   19.0860 C   0  0  0  0  0  0  0  0  0  0  0  0
  -26.7791  -11.0390   18.6415 C   0  0  0  0  0  0  0  0  0  0  0  0
  -24.5213  -19.6065   18.6011 C   0  0  0  0  0  0  0  0  0  0  0  0
  -25.9771  -17.9900   19.6357 C   0  0  0  0  0  0  0  0  0  0  0  0
  -26.1408  -21.4635   19.0222 C   0  0  0  0  0  0  0  0  0  0  0  0
  -27.3248  -21.9062   19.4681 C   0  0  0  0  0  0  0  0  0  0  0  0
  -25.4171   -9.0554   17.9641 C   0  0  0  0  0  0  0  0  0  0  0  0
  -29.3191  -25.0188   19.6918 C   0  0  0  0  0  0  0  0  0  0  0  0
  -29.0277  -23.5607   19.8967 C   0  0  0  0  0  0  0  0  0  0  0  0
  -24.7204  -31.9644   22.5919 C   0  0  0  0  0  0  0  0  0  0  0  0
  -22.2650  -29.8556   22.3775 C   0  0  0  0  0  0  0  0  0  0  0  0
  -21.1684  -26.7752   21.3998 C   0  0  0  0  0  0  0  0  0  0  0  0
  -27.7004  -16.5454   20.7713 C   0  0  0  0  0  0  0  0  0  0  0  0
  -23.6240  -36.4947   24.6732 C   0  0  0  0  0  0  0  0  0  0  0  0
  -24.8134  -31.3299   20.1537 C   0  0  0  0  0  0  0  0  0  0  0  0
  -24.5720  -28.9540   21.8977 C   0  0  0  0  0  0  0  0  0  0  0  0
  -23.1422  -35.0591   24.8665 C   0  0  0  0  0  0  0  0  0  0  0  0
  -29.9484  -13.7900   20.9482 C   0  0  0  0  0  0  0  0  0  0  0  0
  -24.3296  -34.1115   25.0042 C   0  0  0  0  0  0  0  0  0  0  0  0
  -29.0631  -12.5796   20.6427 C   0  0  0  0  0  0  0  0  0  0  0  0
  -29.2071  -14.8414   21.7720 C   0  0  0  0  0  0  0  0  0  0  0  0
  -27.0352  -14.0645   20.9067 C   0  0  0  0  0  0  0  0  0  0  0  0
  -25.1936  -34.1219   23.7373 C   0  0  1  0  0  0  0  0  0  0  0  0
  -23.9833  -31.3541   21.4335 C   0  0  1  0  0  0  0  0  0  0  0  0
  -27.7179  -13.0072   20.0237 C   0  0  2  0  0  0  0  0  0  0  0  0
  -19.1210  -25.3242   21.3915 C   0  0  0  0  0  0  0  0  0  0  0  0
  -22.6607  -29.2844   25.3485 C   0  0  0  0  0  0  0  0  0  0  0  0
  -21.2869  -27.2111   25.0617 C   0  0  0  0  0  0  0  0  0  0  0  0
  -20.2718  -29.4479   24.6268 C   0  0  0  0  0  0  0  0  0  0  0  0
  -21.1356  -26.6384   18.4436 C   0  0  0  0  0  0  0  0  0  0  0  0
  -28.4137  -25.9954   20.3964 C   0  0  0  0  0  0  0  0  0  1  0  0
  -21.9543  -28.5107   22.9888 C   0  0  1  0  0  0  0  0  0  0  0  0
  -19.9409  -26.3446   20.6173 C   0  0  2  0  0  0  0  0  0  0  0  0
  -21.5668  -28.6177   24.4907 C   0  0  0  0  0  0  0  0  0  0  0  0
  -25.9366  -11.4454   20.7085 N   0  0  0  0  0  0  0  0  0  0  0  0
  -26.5515  -19.1716   19.6799 N   0  0  0  0  0  0  0  0  0  0  0  0
  -26.8156  -11.8159   19.7618 N   0  0  0  0  0  0  0  0  0  0  0  0
  -23.5559  -30.0186   21.8552 N   0  0  0  0  0  0  0  0  0  0  0  0
  -27.9446  -15.2008   21.1224 N   0  0  0  0  0  0  0  0  0  0  0  0
  -27.5959  -11.2726   17.5924 N   0  0  0  0  0  0  0  0  0  0  0  0
  -23.5215  -20.2808   17.9802 N   0  0  0  0  0  0  0  0  0  0  0  0
  -24.4043   -8.1707   18.3588 N   0  0  0  0  0  0  0  0  0  0  0  0
  -26.4811  -16.7615   20.1299 N   0  0  0  0  0  0  0  0  0  0  0  0
  -27.7904  -23.1869   19.4208 N   0  0  0  0  0  0  0  0  0  0  0  0
  -24.5713  -33.3343   22.6948 N   0  0  0  0  0  0  0  0  0  0  0  0
  -20.9258  -27.9078   22.1479 N   0  0  0  0  0  0  0  0  0  0  0  0
  -20.3424  -25.7362   19.3174 N   0  3  0  0  0  0  0  0  0  0  0  0
  -25.9607   -8.9058   16.8436 O   0  0  0  0  0  0  0  0  0  0  0  0
  -30.2768  -25.3099   18.9910 O   0  0  0  0  0  0  0  0  0  0  0  0
  -29.8955  -22.8775   20.4182 O   0  0  0  0  0  0  0  0  0  0  0  0
  -25.3747  -31.2455   23.3381 O   0  0  0  0  0  0  0  0  0  0  0  0
  -21.3920  -30.7269   22.3574 O   0  0  0  0  0  0  0  0  0  0  0  0
  -22.2347  -26.1656   21.3549 O   0  0  0  0  0  0  0  0  0  0  0  0
  -28.5248  -17.4351   20.9968 O   0  0  0  0  0  0  0  0  0  0  0  0
  -21.3061   -7.7017   22.9650 O   0  0  0  0  0  0  0  0  0  0  0  0
  -28.8250  -27.3304   20.1050 O   0  0  0  0  0  0  0  0  0  1  0  0
  -21.4372   -2.1893   22.9762 F   0  0  0  0  0  0  0  0  0  0  0  0
  -21.5227   -6.2929   25.3337 F   0  0  0  0  0  0  0  0  0  0  0  0
  -24.4313  -17.9190   18.8936 S   0  0  0  0  0  0  0  0  0  0  0  0
  1  2  1  0  0  0  0
  1  5  2  0  0  0  0
  2  6  2  0  0  0  0
  3  8  2  0  0  0  0
  3 15  1  0  0  0  0
  4  9  1  0  0  0  0
  4 15  2  0  0  0  0
  5 17  1  0  0  0  0
  6 19  1  0  0  0  0
  7 10  2  0  0  0  0
  7 18  1  0  0  0  0
  8 21  1  0  0  0  0
  9 21  2  0  0  0  0
 10 22  1  0  0  0  0
 11 12  2  0  0  0  0
 11 23  1  0  0  0  0
 12 24  1  0  0  0  0
 13 20  1  0  0  0  0
 13 22  2  0  0  0  0
 14 24  2  0  0  0  0
 14 25  1  0  0  0  0
 15 26  1  0  0  0  0
 16 26  1  0  0  0  0
 16 28  2  0  0  0  0
 16 33  1  0  0  0  0
 17 19  2  0  0  0  0
 17 40  1  0  0  0  0
 18 20  2  0  0  0  0
 18 41  1  0  0  0  0
 19 49  1  0  0  0  0
 20 42  1  0  0  0  0
 21 81  1  0  0  0  0
 22 82  1  0  0  0  0
 23 25  2  0  0  0  0
 23 81  1  0  0  0  0
 24 83  1  0  0  0  0
 25 84  1  0  0  0  0
 26 61  2  0  0  0  0
 27 29  2  0  0  0  0
 27 31  1  0  0  0  0
 27 62  1  0  0  0  0
 28 63  1  0  0  0  0
 28 66  1  0  0  0  0
 29 67  1  0  0  0  0
 29 85  1  0  0  0  0
 30 62  2  0  0  0  0
 30 69  1  0  0  0  0
 30 85  1  0  0  0  0
 31 32  2  0  0  0  0
 32 70  1  0  0  0  0
 33 68  1  0  0  0  0
 33 74  2  0  0  0  0
 34 35  1  0  0  0  0
 34 57  1  0  0  0  0
 34 75  2  0  0  0  0
 35 70  1  0  0  0  0
 35 76  2  0  0  0  0
 36 50  1  0  0  0  0
 36 71  1  0  0  0  0
 36 77  2  0  0  0  0
 37 58  1  0  0  0  0
 37 64  1  0  0  0  0
 37 78  2  0  0  0  0
 38 59  1  0  0  0  0
 38 72  1  0  0  0  0
 38 79  2  0  0  0  0
 39 65  1  0  0  0  0
 39 69  1  0  0  0  0
 39 80  2  0  0  0  0
 40 43  1  0  0  0  0
 41 50  1  0  0  0  0
 42 64  1  0  0  0  0
 43 45  1  0  0  0  0
 44 46  1  0  0  0  0
 44 47  1  0  0  0  0
 45 49  1  0  0  0  0
 46 51  1  0  0  0  0
 47 65  1  0  0  0  0
 48 51  1  0  0  0  0
 48 65  1  0  0  0  0
 49 71  1  0  0  0  0
 50 64  1  0  0  0  0
 51 63  1  0  0  0  0
 52 59  1  0  0  0  0
 53 60  1  0  0  0  0
 54 60  1  0  0  0  0
 55 60  1  0  0  0  0
 56 73  1  0  0  0  0
 57 82  1  0  0  0  0
 58 60  1  0  0  0  0
 58 72  1  0  0  0  0
 59 73  1  0  0  0  0
 61 63  1  0  0  0  0
M  CHG  1  73   1
M  ISO  4  39 100  57 101  69 100  82 101
M  END
> <Batch ID>
0180

> <Smiles>
CNC(C)C(=O)NC(C(=O)N1Cc2cc([101O:1][101CH2:1]C(=O)C(=O)NC=Cc3nc([100NH:0][100C:0](=O)N4CCCC(n5nc(-c6ccc(Oc7ccc(F)cc7F)cc6)c(C(N)=O)c5N)C4)sc3N)ccc2CC1C(=O)NC1CCCc2ccccc21)C(C)(C)C

> <Shape>
0.342

> <Color>
0.091

> <Negative vol penalty>
0.000

$$$$

  -OEChem-04052304503D

 86 94  0     1  0  0  0  0  0999 V2000
  -20.6693  -21.0328   21.1210 C   0  0  0  0  0  0  0  0  0  0  0  0
  -21.9887  -21.4409   21.2884 C   0  0  0  0  0  0  0  0  0  0  0  0
  -23.0909   -9.8500   21.4307 C   0  0  0  0  0  0  0  0  0  0  0  0
  -23.8508  -10.7098   23.5568 C   0  0  0  0  0  0  0  0  0  0  0  0
  -19.6431  -21.9766   21.1244 C   0  0  0  0  0  0  0  0  0  0  0  0
  -22.2828  -22.7933   21.4582 C   0  0  0  0  0  0  0  0  0  0  0  0
  -25.6189  -23.6037   25.1809 C   0  0  0  0  0  0  0  0  0  0  0  0
  -22.3815   -8.8463   22.0901 C   0  0  0  0  0  0  0  0  0  0  0  0
  -23.1414   -9.7061   24.2162 C   0  0  0  0  0  0  0  0  0  0  0  0
  -26.9612  -23.3546   24.8983 C   0  0  0  0  0  0  0  0  0  0  0  0
  -23.0517   -5.8768   23.5588 C   0  0  0  0  0  0  0  0  0  0  0  0
  -23.1487   -4.5790   23.0570 C   0  0  0  0  0  0  0  0  0  0  0  0
  -27.3222  -25.7159   24.5620 C   0  0  0  0  0  0  0  0  0  0  0  0
  -20.7602   -4.5403   22.6953 C   0  0  0  0  0  0  0  0  0  0  0  0
  -23.8256  -10.7818   22.1640 C   0  0  0  0  0  0  0  0  0  0  0  0
  -24.0926  -13.0995   21.1323 C   0  0  0  0  0  0  0  0  0  0  0  0
  -19.9238  -23.3403   21.3039 C   0  0  0  0  0  0  0  0  0  0  0  0
  -25.1148  -24.9118   25.1454 C   0  0  0  0  0  0  0  0  0  0  0  0
  -21.2595  -23.7565   21.4626 C   0  0  0  0  0  0  0  0  0  0  0  0
  -25.9737  -25.9792   24.8470 C   0  0  0  0  0  0  0  0  0  0  0  0
  -22.4067   -8.7743   23.4829 C   0  0  0  0  0  0  0  0  0  0  0  0
  -27.8125  -24.4105   24.5860 C   0  0  0  0  0  0  0  0  0  0  0  0
  -21.8089   -6.5064   23.6290 C   0  0  0  0  0  0  0  0  0  0  0  0
  -22.0029   -3.9107   22.6252 C   0  0  0  0  0  0  0  0  0  0  0  0
  -20.6632   -5.8381   23.1972 C   0  0  0  0  0  0  0  0  0  0  0  0
  -24.5591  -11.8185   21.4834 C   0  0  0  0  0  0  0  0  0  0  0  0
  -30.4495  -19.7608   20.8410 C   0  0  0  0  0  0  0  0  0  0  0  0
  -31.5617  -19.1780   20.2705 C   0  0  0  0  0  0  0  0  0  0  0  0
  -25.1621  -13.6957   20.5099 C   0  0  0  0  0  0  0  0  0  0  0  0
  -30.3765  -17.3642   20.6098 C   0  0  0  0  0  0  0  0  0  0  0  0
  -22.8076  -13.6971   21.3494 C   0  0  0  0  0  0  0  0  0  0  0  0
  -22.9037  -26.4178   23.4289 C   0  0  0  0  0  0  0  0  0  0  0  0
  -30.6835  -23.0310   22.8566 C   0  0  0  0  0  0  0  0  0  0  0  0
  -23.5305  -28.8535   25.4775 C   0  0  0  0  0  0  0  0  0  0  0  0
  -25.7248  -30.3375   27.6292 C   0  0  0  0  0  0  0  0  0  0  0  0
  -30.5951  -14.8828   20.2335 C   0  0  0  0  0  0  0  0  0  0  0  0
  -18.7857  -24.3286   21.2529 C   0  0  0  0  0  0  0  0  0  0  0  0
  -23.6704  -25.1666   25.4789 C   0  0  0  0  0  0  0  0  0  0  0  0
  -25.4866  -27.4040   24.8155 C   0  0  0  0  0  0  0  0  0  0  0  0
  -19.1461  -25.7020   21.8134 C   0  0  0  0  0  0  0  0  0  0  0  0
  -29.5518  -11.7445   18.9145 C   0  0  0  0  0  0  0  0  0  0  0  0
  -20.4901  -26.1676   21.2623 C   0  0  0  0  0  0  0  0  0  0  0  0
  -28.1215  -11.5894   19.4363 C   0  0  0  0  0  0  0  0  0  0  0  0
  -30.4600  -12.4188   19.9412 C   0  0  0  0  0  0  0  0  0  0  0  0
  -28.5329  -13.5426   20.9864 C   0  0  0  0  0  0  0  0  0  0  0  0
  -21.6163  -25.2118   21.6743 C   0  0  1  0  0  0  0  0  0  0  0  0
  -23.1490  -26.4825   24.9099 C   0  0  1  0  0  0  0  0  0  0  0  0
  -27.5653  -12.9271   19.9624 C   0  0  2  0  0  0  0  0  0  0  0  0
  -28.8676  -22.6302   17.7203 C   0  0  0  0  0  0  0  0  0  0  0  0
  -25.9692  -32.3378   29.1248 C   0  0  0  0  0  0  0  0  0  0  0  0
  -24.0125  -30.6178   23.0352 C   0  0  0  0  0  0  0  0  0  0  0  0
  -25.1488  -32.2670   24.5375 C   0  0  0  0  0  0  0  0  0  0  0  0
  -22.7397  -31.7206   24.8839 C   0  0  0  0  0  0  0  0  0  0  0  0
  -26.0345  -28.6445   30.0369 C   0  0  0  0  0  0  0  0  0  0  0  0
  -29.4415  -22.9114   23.7172 C   0  0  0  0  0  0  0  0  0  1  0  0
  -28.9560  -21.6889   18.9119 C   0  0  0  0  0  0  0  0  0  0  0  0
  -30.0853  -22.0986   19.8645 C   0  0  0  0  0  0  0  0  0  0  0  0
  -30.1459  -21.2232   21.1390 C   0  0  2  0  0  0  0  0  0  0  0  0
  -31.1665  -21.7723   22.1560 C   0  0  1  0  0  0  0  0  0  0  0  0
  -24.4988  -30.0115   25.4973 C   0  0  1  0  0  0  0  0  0  0  0  0
  -25.5454  -30.8800   29.0357 C   0  0  2  0  0  0  0  0  0  0  0  0
  -24.1090  -31.1273   24.4871 C   0  0  0  0  0  0  0  0  0  0  0  0
  -25.8261  -11.6121   21.1145 N   0  0  0  0  0  0  0  0  0  0  0  0
  -31.5218  -17.8038   20.1375 N   0  0  0  0  0  0  0  0  0  0  0  0
  -26.1649  -12.7714   20.5251 N   0  0  0  0  0  0  0  0  0  0  0  0
  -24.0647  -27.6012   25.1426 N   0  0  0  0  0  0  0  0  0  0  0  0
  -29.8711  -13.6821   20.3909 N   0  0  0  0  0  0  0  0  0  0  0  0
  -32.6464  -19.8750   19.8557 N   0  0  0  0  0  0  0  0  0  0  0  0
  -25.3330  -14.9151   19.9565 N   0  0  0  0  0  0  0  0  0  0  0  0
  -21.8230  -12.9450   22.0047 N   0  0  0  0  0  0  0  0  0  0  0  0
  -29.9209  -16.0237   20.6676 N   0  0  0  0  0  0  0  0  0  0  0  0
  -21.9987  -25.4446   23.0505 N   0  0  0  0  0  0  0  0  0  0  0  0
  -24.5712  -30.4595   26.8838 N   0  0  0  0  0  0  0  0  0  0  0  0
  -26.3623  -30.0931   30.0024 N   0  3  0  0  0  0  0  0  0  0  0  0
  -22.5351  -14.8576   20.9590 O   0  0  0  0  0  0  0  0  0  0  0  0
  -23.4909  -27.1945   22.6848 O   0  0  0  0  0  0  0  0  0  0  0  0
  -31.2943  -24.0936   22.7390 O   0  0  0  0  0  0  0  0  0  0  0  0
  -22.3453  -29.0515   25.7562 O   0  0  0  0  0  0  0  0  0  0  0  0
  -26.7835  -29.8573   27.2305 O   0  0  0  0  0  0  0  0  0  0  0  0
  -31.7185  -14.9012   19.7241 O   0  0  0  0  0  0  0  0  0  0  0  0
  -21.7144   -7.7952   24.1267 O   0  0  0  0  0  0  0  0  0  0  0  0
  -29.1230  -24.1702   24.3091 O   0  0  0  0  0  0  0  0  0  1  0  0
  -22.0965   -2.6650   22.1419 F   0  0  0  0  0  0  0  0  0  0  0  0
  -19.4667   -6.4383   23.2610 F   0  0  0  0  0  0  0  0  0  0  0  0
  -32.3441  -22.0239   21.5140 F   0  0  0  0  0  0  0  0  0  0  0  0
  -29.2999  -18.5486   21.2288 S   0  0  0  0  0  0  0  0  0  0  0  0
  1  2  1  0  0  0  0
  1  5  2  0  0  0  0
  2  6  2  0  0  0  0
  3  8  2  0  0  0  0
  3 15  1  0  0  0  0
  4  9  1  0  0  0  0
  4 15  2  0  0  0  0
  5 17  1  0  0  0  0
  6 19  1  0  0  0  0
  7 10  2  0  0  0  0
  7 18  1  0  0  0  0
  8 21  1  0  0  0  0
  9 21  2  0  0  0  0
 10 22  1  0  0  0  0
 11 12  2  0  0  0  0
 11 23  1  0  0  0  0
 12 24  1  0  0  0  0
 13 20  1  0  0  0  0
 13 22  2  0  0  0  0
 14 24  2  0  0  0  0
 14 25  1  0  0  0  0
 15 26  1  0  0  0  0
 16 26  1  0  0  0  0
 16 29  2  0  0  0  0
 16 31  1  0  0  0  0
 17 19  2  0  0  0  0
 17 37  1  0  0  0  0
 18 20  2  0  0  0  0
 18 38  1  0  0  0  0
 19 46  1  0  0  0  0
 20 39  1  0  0  0  0
 21 81  1  0  0  0  0
 22 82  1  0  0  0  0
 23 25  2  0  0  0  0
 23 81  1  0  0  0  0
 24 83  1  0  0  0  0
 25 84  1  0  0  0  0
 26 63  2  0  0  0  0
 27 28  2  0  0  0  0
 27 58  1  0  0  0  0
 27 86  1  0  0  0  0
 28 64  1  0  0  0  0
 28 68  1  0  0  0  0
 29 65  1  0  0  0  0
 29 69  1  0  0  0  0
 30 64  2  0  0  0  0
 30 71  1  0  0  0  0
 30 86  1  0  0  0  0
 31 70  1  0  0  0  0
 31 75  2  0  0  0  0
 32 47  1  0  0  0  0
 32 72  1  0  0  0  0
 32 76  2  0  0  0  0
 33 55  1  0  0  0  0
 33 59  1  0  0  0  0
 33 77  2  0  0  0  0
 34 60  1  0  0  0  0
 34 66  1  0  0  0  0
 34 78  2  0  0  0  0
 35 61  1  0  0  0  0
 35 73  1  0  0  0  0
 35 79  2  0  0  0  0
 36 67  1  0  0  0  0
 36 71  1  0  0  0  0
 36 80  2  0  0  0  0
 37 40  1  0  0  0  0
 38 47  1  0  0  0  0
 39 66  1  0  0  0  0
 40 42  1  0  0  0  0
 41 43  1  0  0  0  0
 41 44  1  0  0  0  0
 42 46  1  0  0  0  0
 43 48  1  0  0  0  0
 44 67  1  0  0  0  0
 45 48  1  0  0  0  0
 45 67  1  0  0  0  0
 46 72  1  0  0  0  0
 47 66  1  0  0  0  0
 48 65  1  0  0  0  0
 49 56  1  0  0  0  0
 50 61  1  0  0  0  0
 51 62  1  0  0  0  0
 52 62  1  0  0  0  0
 53 62  1  0  0  0  0
 54 74  1  0  0  0  0
 55 82  1  0  0  0  0
 56 57  1  0  0  0  0
 57 58  1  0  0  0  0
 58 59  1  0  0  0  0
 59 85  1  0  0  0  0
 60 62  1  0  0  0  0
 60 73  1  0  0  0  0
 61 74  1  0  0  0  0
 63 65  1  0  0  0  0
M  CHG  1  74   1
M  ISO  4  36 100  55 101  71 100  82 101
M  END
> <Batch ID>
0180

> <Smiles>
CCCC(c1sc([100NH:0][100C:0](=O)N2CCCC(n3nc(-c4ccc(Oc5ccc(F)cc5F)cc4)c(C(N)=O)c3N)C2)nc1N)C(F)C(=O)[101CH2:1][101O:1]c1ccc2c(c1)CN(C(=O)C(NC(=O)C(C)NC)C(C)(C)C)C(C(=O)NC1CCCc3ccccc31)C2

> <Shape>
0.229

> <Color>
0.150

> <Negative vol penalty>
0.000

$$$$

  -OEChem-04052304503D

 84 92  0     1  0  0  0  0  0999 V2000
  -25.4979  -17.0434   25.4705 C   0  0  0  0  0  0  0  0  0  0  0  0
  -26.4832  -18.0165   25.3374 C   0  0  0  0  0  0  0  0  0  0  0  0
  -26.3715  -12.5417   21.7962 C   0  0  0  0  0  0  0  0  0  0  0  0
  -25.7107  -13.5094   19.6834 C   0  0  0  0  0  0  0  0  0  0  0  0
  -24.4372  -16.9988   24.5667 C   0  0  0  0  0  0  0  0  0  0  0  0
  -26.4090  -18.9449   24.2997 C   0  0  0  0  0  0  0  0  0  0  0  0
  -28.0172  -25.7578   22.7783 C   0  0  0  0  0  0  0  0  0  0  0  0
  -25.1277  -11.9191   21.9001 C   0  0  0  0  0  0  0  0  0  0  0  0
  -24.4668  -12.8867   19.7872 C   0  0  0  0  0  0  0  0  0  0  0  0
  -28.6943  -26.5177   21.8255 C   0  0  0  0  0  0  0  0  0  0  0  0
  -21.9940  -10.3652   22.8948 C   0  0  0  0  0  0  0  0  0  0  0  0
  -21.3389  -10.4229   24.1248 C   0  0  0  0  0  0  0  0  0  0  0  0
  -26.7740  -26.3935   20.3708 C   0  0  0  0  0  0  0  0  0  0  0  0
  -21.3194  -12.8357   24.0013 C   0  0  0  0  0  0  0  0  0  0  0  0
  -28.4760  -21.0814   17.3243 C   0  0  0  0  0  0  0  0  0  0  0  0
  -26.6630  -13.3370   20.6879 C   0  0  0  0  0  0  0  0  0  0  0  0
  -29.1103  -13.4630   19.9792 C   0  0  0  0  0  0  0  0  0  0  0  0
  -24.3448  -17.9332   23.5231 C   0  0  0  0  0  0  0  0  0  0  0  0
  -26.7153  -25.3001   22.5296 C   0  0  0  0  0  0  0  0  0  0  0  0
  -25.3468  -18.9120   23.3802 C   0  0  0  0  0  0  0  0  0  0  0  0
  -26.0816  -25.6302   21.3231 C   0  0  0  0  0  0  0  0  0  0  0  0
  -24.1753  -12.0915   20.8956 C   0  0  0  0  0  0  0  0  0  0  0  0
  -28.0738  -26.8332   20.6203 C   0  0  0  0  0  0  0  0  0  0  0  0
  -22.3119  -11.5428   22.2180 C   0  0  0  0  0  0  0  0  0  0  0  0
  -21.0015  -11.6581   24.6781 C   0  0  0  0  0  0  0  0  0  0  0  0
  -21.9745  -12.7780   22.7713 C   0  0  0  0  0  0  0  0  0  0  0  0
  -27.9474  -13.9809   20.5803 C   0  0  0  0  0  0  0  0  0  0  0  0
  -29.0503  -21.2701   18.5640 C   0  0  0  0  0  0  0  0  0  0  0  0
  -30.0490  -14.4530   20.1381 C   0  0  0  0  0  0  0  0  0  0  0  0
  -29.4264  -23.2592   17.7202 C   0  0  0  0  0  0  0  0  0  0  0  0
  -29.3230  -12.2000   19.3348 C   0  0  0  0  0  0  0  0  0  0  0  0
  -30.8000  -26.7611   17.8493 C   0  0  0  0  0  0  0  0  0  0  0  0
  -30.4939  -25.4059   18.4225 C   0  0  0  0  0  0  0  0  0  0  0  0
  -25.3529  -22.4391   22.2794 C   0  0  0  0  0  0  0  0  0  0  0  0
  -22.6255  -24.1855   22.0952 C   0  0  0  0  0  0  0  0  0  0  0  0
  -21.1377  -27.1648   21.3489 C   0  0  0  0  0  0  0  0  0  0  0  0
  -29.6585  -20.3743   20.8386 C   0  0  0  0  0  0  0  0  0  0  0  0
  -23.2049  -17.8159   22.5425 C   0  0  0  0  0  0  0  0  0  0  0  0
  -25.9886  -24.5040   23.5787 C   0  0  0  0  0  0  0  0  0  0  0  0
  -24.6775  -25.1803   21.0159 C   0  0  0  0  0  0  0  0  0  0  0  0
  -23.0003  -19.0681   21.6938 C   0  0  0  0  0  0  0  0  0  0  0  0
  -31.2236  -18.0668   23.0529 C   0  0  0  0  0  0  0  0  0  0  0  0
  -24.3341  -19.5653   21.1457 C   0  0  0  0  0  0  0  0  0  0  0  0
  -30.6716  -16.7094   22.6114 C   0  0  0  0  0  0  0  0  0  0  0  0
  -30.1699  -19.1681   22.9501 C   0  0  0  0  0  0  0  0  0  0  0  0
  -28.9640  -17.9241   21.1988 C   0  0  0  0  0  0  0  0  0  0  0  0
  -25.2880  -19.9519   22.2824 C   0  0  1  0  0  0  0  0  0  0  0  0
  -24.8563  -23.6560   23.0076 C   0  0  1  0  0  0  0  0  0  0  0  0
  -30.0077  -16.7955   21.2231 C   0  0  2  0  0  0  0  0  0  0  0  0
  -30.0054  -29.1067   17.5411 C   0  0  0  0  0  0  0  0  0  0  0  0
  -18.8897  -28.2764   21.2600 C   0  0  0  0  0  0  0  0  0  0  0  0
  -21.9917  -22.6916   19.5113 C   0  0  0  0  0  0  0  0  0  0  0  0
  -20.2948  -24.4567   18.9890 C   0  0  0  0  0  0  0  0  0  0  0  0
  -20.0304  -23.0382   21.0238 C   0  0  0  0  0  0  0  0  0  0  0  0
  -21.9292  -29.1873   23.3594 C   0  0  0  0  0  0  0  0  0  0  0  0
  -28.4043  -27.3377   18.3198 C   0  0  0  0  0  0  0  0  0  1  0  0
  -29.6190  -27.6316   17.4380 C   0  0  2  0  0  0  0  0  0  0  0  0
  -21.8310  -24.8124   20.9750 C   0  0  1  0  0  0  0  0  0  0  0  0
  -20.1227  -28.0016   22.1066 C   0  0  2  0  0  0  0  0  0  0  0  0
  -21.0642  -23.7567   20.1295 C   0  0  0  0  0  0  0  0  0  0  0  0
  -28.1284  -15.2048   21.0837 N   0  0  0  0  0  0  0  0  0  0  0  0
  -29.5961  -22.5181   18.7927 N   0  0  0  0  0  0  0  0  0  0  0  0
  -29.4160  -15.4642   20.7993 N   0  0  0  0  0  0  0  0  0  0  0  0
  -24.0110  -24.3989   22.0708 N   0  0  0  0  0  0  0  0  0  0  0  0
  -29.5877  -19.1928   21.6065 N   0  0  0  0  0  0  0  0  0  0  0  0
  -31.3458  -14.5485   19.7754 N   0  0  0  0  0  0  0  0  0  0  0  0
  -28.2513  -11.3000   19.2586 N   0  0  0  0  0  0  0  0  0  0  0  0
  -29.1002  -20.2686   19.5652 N   0  0  0  0  0  0  0  0  0  0  0  0
  -29.8322  -24.5993   17.5219 N   0  0  0  0  0  0  0  0  0  0  0  0
  -24.9282  -21.2436   22.8269 N   0  0  0  0  0  0  0  0  0  0  0  0
  -20.9748  -25.8179   21.5949 N   0  0  0  0  0  0  0  0  0  0  0  0
  -20.7210  -29.3076   22.5034 N   0  3  0  0  0  0  0  0  0  0  0  0
  -30.4350  -11.8725   18.8556 O   0  0  0  0  0  0  0  0  0  0  0  0
  -31.9810  -27.0677   17.7635 O   0  0  0  0  0  0  0  0  0  0  0  0
  -30.8818  -25.1926   19.5593 O   0  0  0  0  0  0  0  0  0  0  0  0
  -26.0671  -22.5749   21.2929 O   0  0  0  0  0  0  0  0  0  0  0  0
  -22.0375  -23.5365   22.9640 O   0  0  0  0  0  0  0  0  0  0  0  0
  -21.9876  -27.6566   20.6097 O   0  0  0  0  0  0  0  0  0  0  0  0
  -30.2005  -21.3959   21.2681 O   0  0  0  0  0  0  0  0  0  0  0  0
  -22.9616  -11.4839   20.9965 O   0  0  0  0  0  0  0  0  0  0  0  0
  -28.7326  -27.5742   19.6882 O   0  0  0  0  0  0  0  0  0  1  0  0
  -20.3710  -11.7133   25.8586 F   0  0  0  0  0  0  0  0  0  0  0  0
  -22.2763  -13.9126   22.1252 F   0  0  0  0  0  0  0  0  0  0  0  0
  -28.6178  -22.5190   16.3999 S   0  0  0  0  0  0  0  0  0  0  0  0
  1  2  1  0  0  0  0
  1  5  2  0  0  0  0
  2  6  2  0  0  0  0
  3  8  2  0  0  0  0
  3 16  1  0  0  0  0
  4  9  1  0  0  0  0
  4 16  2  0  0  0  0
  5 18  1  0  0  0  0
  6 20  1  0  0  0  0
  7 10  2  0  0  0  0
  7 19  1  0  0  0  0
  8 22  1  0  0  0  0
  9 22  2  0  0  0  0
 10 23  1  0  0  0  0
 11 12  2  0  0  0  0
 11 24  1  0  0  0  0
 12 25  1  0  0  0  0
 13 21  1  0  0  0  0
 13 23  2  0  0  0  0
 14 25  2  0  0  0  0
 14 26  1  0  0  0  0
 15 28  2  0  0  0  0
 15 84  1  0  0  0  0
 16 27  1  0  0  0  0
 17 27  1  0  0  0  0
 17 29  2  0  0  0  0
 17 31  1  0  0  0  0
 18 20  2  0  0  0  0
 18 38  1  0  0  0  0
 19 21  2  0  0  0  0
 19 39  1  0  0  0  0
 20 47  1  0  0  0  0
 21 40  1  0  0  0  0
 22 80  1  0  0  0  0
 23 81  1  0  0  0  0
 24 26  2  0  0  0  0
 24 80  1  0  0  0  0
 25 82  1  0  0  0  0
 26 83  1  0  0  0  0
 27 61  2  0  0  0  0
 28 62  1  0  0  0  0
 28 68  1  0  0  0  0
 29 63  1  0  0  0  0
 29 66  1  0  0  0  0
 30 62  2  0  0  0  0
 30 69  1  0  0  0  0
 30 84  1  0  0  0  0
 31 67  1  0  0  0  0
 31 73  2  0  0  0  0
 32 33  1  0  0  0  0
 32 57  1  0  0  0  0
 32 74  2  0  0  0  0
 33 69  1  0  0  0  0
 33 75  2  0  0  0  0
 34 48  1  0  0  0  0
 34 70  1  0  0  0  0
 34 76  2  0  0  0  0
 35 58  1  0  0  0  0
 35 64  1  0  0  0  0
 35 77  2  0  0  0  0
 36 59  1  0  0  0  0
 36 71  1  0  0  0  0
 36 78  2  0  0  0  0
 37 65  1  0  0  0  0
 37 68  1  0  0  0  0
 37 79  2  0  0  0  0
 38 41  1  0  0  0  0
 39 48  1  0  0  0  0
 40 64  1  0  0  0  0
 41 43  1  0  0  0  0
 42 44  1  0  0  0  0
 42 45  1  0  0  0  0
 43 47  1  0  0  0  0
 44 49  1  0  0  0  0
 45 65  1  0  0  0  0
 46 49  1  0  0  0  0
 46 65  1  0  0  0  0
 47 70  1  0  0  0  0
 48 64  1  0  0  0  0
 49 63  1  0  0  0  0
 50 57  1  0  0  0  0
 51 59  1  0  0  0  0
 52 60  1  0  0  0  0
 53 60  1  0  0  0  0
 54 60  1  0  0  0  0
 55 72  1  0  0  0  0
 56 57  1  0  0  0  0
 56 81  1  0  0  0  0
 58 60  1  0  0  0  0
 58 71  1  0  0  0  0
 59 72  1  0  0  0  0
 61 63  1  0  0  0  0
M  CHG  1  72   1
M  ISO  4  37 100  56 101  68 100  81 101
M  END
> <Batch ID>
0180

> <Smiles>
CNC(C)C(=O)NC(C(=O)N1Cc2cc([101O:1][101CH2:1]C(C)C(=O)C(=O)Nc3nc([100NH:0][100C:0](=O)N4CCCC(n5nc(-c6ccc(Oc7ccc(F)cc7F)cc6)c(C(N)=O)c5N)C4)cs3)ccc2CC1C(=O)NC1CCCc2ccccc21)C(C)(C)C

> <Shape>
0.226

> <Color>
0.078

> <Negative vol penalty>
0.000

$$$$

  -OEChem-04052304503D

 88 96  0     1  0  0  0  0  0999 V2000
  -26.6345  -37.9672   19.6819 C   0  0  0  0  0  0  0  0  0  0  0  0
  -27.2301  -36.7355   19.4298 C   0  0  0  0  0  0  0  0  0  0  0  0
  -22.1140  -10.0519   22.6674 C   0  0  0  0  0  0  0  0  0  0  0  0
  -24.0599   -9.7939   21.2589 C   0  0  0  0  0  0  0  0  0  0  0  0
  -25.7989  -38.1231   20.7871 C   0  0  0  0  0  0  0  0  0  0  0  0
  -26.9913  -35.6591   20.2836 C   0  0  0  0  0  0  0  0  0  0  0  0
  -26.5697  -29.7504   18.7295 C   0  0  0  0  0  0  0  0  0  0  0  0
  -21.7378   -8.7381   22.3884 C   0  0  0  0  0  0  0  0  0  0  0  0
  -23.6838   -8.4800   20.9799 C   0  0  0  0  0  0  0  0  0  0  0  0
  -27.4840  -28.6992   18.7819 C   0  0  0  0  0  0  0  0  0  0  0  0
  -20.4575   -5.3362   22.3341 C   0  0  0  0  0  0  0  0  0  0  0  0
  -20.0387   -4.5411   23.4009 C   0  0  0  0  0  0  0  0  0  0  0  0
  -26.5692  -28.0177   20.9075 C   0  0  0  0  0  0  0  0  0  0  0  0
  -22.1888   -4.8339   24.4633 C   0  0  0  0  0  0  0  0  0  0  0  0
  -23.2750  -10.5799   22.1027 C   0  0  0  0  0  0  0  0  0  0  0  0
  -24.4854  -12.3813   23.4434 C   0  0  0  0  0  0  0  0  0  0  0  0
  -25.5421  -37.0455   21.6494 C   0  0  0  0  0  0  0  0  0  0  0  0
  -25.6540  -29.9500   19.7725 C   0  0  0  0  0  0  0  0  0  0  0  0
  -26.1526  -35.8011   21.4022 C   0  0  0  0  0  0  0  0  0  0  0  0
  -25.6427  -29.0706   20.8646 C   0  0  0  0  0  0  0  0  0  0  0  0
  -22.5227   -7.9521   21.5447 C   0  0  0  0  0  0  0  0  0  0  0  0
  -27.4858  -27.8344   19.8724 C   0  0  0  0  0  0  0  0  0  0  0  0
  -21.7420   -5.8801   22.3319 C   0  0  0  0  0  0  0  0  0  0  0  0
  -20.9043   -4.2900   24.4654 C   0  0  0  0  0  0  0  0  0  0  0  0
  -22.6076   -5.6290   23.3964 C   0  0  0  0  0  0  0  0  0  0  0  0
  -23.6639  -11.9372   22.3900 C   0  0  0  0  0  0  0  0  0  0  0  0
  -29.4018  -19.9934   21.7815 C   0  0  0  0  0  0  0  0  0  0  0  0
  -28.5564  -20.8265   21.0792 C   0  0  0  0  0  0  0  0  0  0  0  0
  -24.5482  -13.7434   23.2792 C   0  0  0  0  0  0  0  0  0  0  0  0
  -27.3570  -18.9923   20.9947 C   0  0  0  0  0  0  0  0  0  0  0  0
  -27.8885  -25.5335   19.9937 C   0  0  0  0  0  0  0  0  0  1  0  0
  -25.1340  -11.6296   24.4779 C   0  0  0  0  0  0  0  0  0  0  0  0
  -28.6734  -24.4508   20.0508 C   0  0  0  0  0  0  0  0  0  0  0  0
  -28.0379  -23.0945   20.1213 C   0  0  0  0  0  0  0  0  0  0  0  0
  -25.0976  -32.2887   21.8522 C   0  0  0  0  0  0  0  0  0  0  0  0
  -22.5532  -30.4430   22.6535 C   0  0  0  0  0  0  0  0  0  0  0  0
  -21.1339  -27.3404   22.7286 C   0  0  0  0  0  0  0  0  0  0  0  0
  -25.1485  -18.2372   20.0467 C   0  0  0  0  0  0  0  0  0  0  0  0
  -24.6695  -37.2749   22.8579 C   0  0  0  0  0  0  0  0  0  0  0  0
  -24.6565  -31.0727   19.6882 C   0  0  0  0  0  0  0  0  0  0  0  0
  -24.6666  -29.2295   22.0006 C   0  0  0  0  0  0  0  0  0  0  0  0
  -24.1702  -35.9844   23.5025 C   0  0  0  0  0  0  0  0  0  0  0  0
  -21.8880  -16.8244   20.2704 C   0  0  0  0  0  0  0  0  0  0  0  0
  -25.3141  -34.9870   23.6560 C   0  0  0  0  0  0  0  0  0  0  0  0
  -22.1269  -15.4635   20.9284 C   0  0  0  0  0  0  0  0  0  0  0  0
  -23.0162  -17.1957   19.3096 C   0  0  0  0  0  0  0  0  0  0  0  0
  -24.6053  -15.7724   20.5418 C   0  0  0  0  0  0  0  0  0  0  0  0
  -25.8983  -34.6032   22.2912 C   0  0  1  0  0  0  0  0  0  0  0  0
  -24.1097  -31.4897   21.0500 C   0  0  1  0  0  0  0  0  0  0  0  0
  -23.5274  -15.3845   21.5672 C   0  0  2  0  0  0  0  0  0  0  0  0
  -19.0620  -26.1396   23.4789 C   0  0  0  0  0  0  0  0  0  0  0  0
  -23.5243  -30.5778   25.5429 C   0  0  0  0  0  0  0  0  0  0  0  0
  -22.0240  -28.6425   26.0642 C   0  0  0  0  0  0  0  0  0  0  0  0
  -21.0486  -30.7942   25.2633 C   0  0  0  0  0  0  0  0  0  0  0  0
  -20.4869  -26.4905   19.9685 C   0  0  0  0  0  0  0  0  0  0  0  0
  -30.7160  -20.2658   22.3988 C   0  0  1  0  0  0  0  0  0  0  0  0
  -22.3115  -29.3251   23.6388 C   0  0  1  0  0  0  0  0  0  0  0  0
  -19.7526  -26.8546   22.3280 C   0  0  2  0  0  0  0  0  0  0  0  0
  -22.2469  -29.8328   25.1070 C   0  0  0  0  0  0  0  0  0  0  0  0
  -31.8852  -20.0550   21.4397 C   0  0  0  0  0  0  0  0  0  0  0  0
  -23.2353  -12.9363   21.6141 N   0  0  0  0  0  0  0  0  0  0  0  0
  -27.3836  -20.2540   20.6269 N   0  0  0  0  0  0  0  0  0  0  0  0
  -23.7896  -14.0217   22.1804 N   0  0  0  0  0  0  0  0  0  0  0  0
  -23.7153  -30.3461   21.8750 N   0  0  0  0  0  0  0  0  0  0  0  0
  -24.3123  -17.1024   19.9851 N   0  0  0  0  0  0  0  0  0  0  0  0
  -25.1776  -14.7184   23.9689 N   0  0  0  0  0  0  0  0  0  0  0  0
  -24.9643  -10.2385   24.4995 N   0  0  0  0  0  0  0  0  0  0  0  0
  -28.8306  -22.1900   20.8145 N   0  0  0  0  0  0  0  0  0  0  0  0
  -26.3407  -18.0378   20.7421 N   0  0  0  0  0  0  0  0  0  0  0  0
  -25.0381  -33.6501   21.6232 N   0  0  0  0  0  0  0  0  0  0  0  0
  -21.1045  -28.6394   23.1900 N   0  0  0  0  0  0  0  0  0  0  0  0
  -19.8485  -25.9111   21.1784 N   0  3  0  0  0  0  0  0  0  0  0  0
  -25.8296  -12.1771   25.3666 O   0  0  0  0  0  0  0  0  0  0  0  0
  -26.9459  -22.8828   19.6051 O   0  0  0  0  0  0  0  0  0  0  0  0
  -25.8565  -31.7127   22.6229 O   0  0  0  0  0  0  0  0  0  0  0  0
  -21.7373  -31.3646   22.5723 O   0  0  0  0  0  0  0  0  0  0  0  0
  -22.1378  -26.6365   22.6445 O   0  0  0  0  0  0  0  0  0  0  0  0
  -24.8184  -19.3147   19.5446 O   0  0  0  0  0  0  0  0  0  0  0  0
  -30.0511  -24.5318   20.0459 O   0  0  0  0  0  0  0  0  0  0  0  0
  -22.1560   -6.6699   21.2724 O   0  0  0  0  0  0  0  0  0  0  0  0
  -28.3776  -26.8079   19.9264 O   0  0  0  0  0  0  0  0  0  1  0  0
  -20.5014   -3.5277   25.4905 F   0  0  0  0  0  0  0  0  0  0  0  0
  -23.8423   -6.1498   23.4005 F   0  0  0  0  0  0  0  0  0  0  0  0
  -30.8407  -21.5520   22.8790 F   0  0  0  0  0  0  0  0  0  0  0  0
  -31.9652  -18.7664   21.0444 F   0  0  0  0  0  0  0  0  0  0  0  0
  -31.7552  -20.8226   20.3371 F   0  0  0  0  0  0  0  0  0  0  0  0
  -33.0637  -20.3715   22.0227 F   0  0  0  0  0  0  0  0  0  0  0  0
  -28.7095  -18.4279   21.8876 S   0  0  0  0  0  0  0  0  0  0  0  0
  1  2  1  0  0  0  0
  1  5  2  0  0  0  0
  2  6  2  0  0  0  0
  3  8  2  0  0  0  0
  3 15  1  0  0  0  0
  4  9  1  0  0  0  0
  4 15  2  0  0  0  0
  5 17  1  0  0  0  0
  6 19  1  0  0  0  0
  7 10  2  0  0  0  0
  7 18  1  0  0  0  0
  8 21  1  0  0  0  0
  9 21  2  0  0  0  0
 10 22  1  0  0  0  0
 11 12  2  0  0  0  0
 11 23  1  0  0  0  0
 12 24  1  0  0  0  0
 13 20  1  0  0  0  0
 13 22  2  0  0  0  0
 14 24  2  0  0  0  0
 14 25  1  0  0  0  0
 15 26  1  0  0  0  0
 16 26  1  0  0  0  0
 16 29  2  0  0  0  0
 16 32  1  0  0  0  0
 17 19  2  0  0  0  0
 17 39  1  0  0  0  0
 18 20  2  0  0  0  0
 18 40  1  0  0  0  0
 19 48  1  0  0  0  0
 20 41  1  0  0  0  0
 21 80  1  0  0  0  0
 22 81  1  0  0  0  0
 23 25  2  0  0  0  0
 23 80  1  0  0  0  0
 24 82  1  0  0  0  0
 25 83  1  0  0  0  0
 26 61  2  0  0  0  0
 27 28  2  0  0  0  0
 27 56  1  0  0  0  0
 27 88  1  0  0  0  0
 28 62  1  0  0  0  0
 28 68  1  0  0  0  0
 29 63  1  0  0  0  0
 29 66  1  0  0  0  0
 30 62  2  0  0  0  0
 30 69  1  0  0  0  0
 30 88  1  0  0  0  0
 31 33  2  0  0  0  0
 31 81  1  0  0  0  0
 32 67  1  0  0  0  0
 32 73  2  0  0  0  0
 33 34  1  0  0  0  0
 33 79  1  0  0  0  0
 34 68  1  0  0  0  0
 34 74  2  0  0  0  0
 35 49  1  0  0  0  0
 35 70  1  0  0  0  0
 35 75  2  0  0  0  0
 36 57  1  0  0  0  0
 36 64  1  0  0  0  0
 36 76  2  0  0  0  0
 37 58  1  0  0  0  0
 37 71  1  0  0  0  0
 37 77  2  0  0  0  0
 38 65  1  0  0  0  0
 38 69  1  0  0  0  0
 38 78  2  0  0  0  0
 39 42  1  0  0  0  0
 40 49  1  0  0  0  0
 41 64  1  0  0  0  0
 42 44  1  0  0  0  0
 43 45  1  0  0  0  0
 43 46  1  0  0  0  0
 44 48  1  0  0  0  0
 45 50  1  0  0  0  0
 46 65  1  0  0  0  0
 47 50  1  0  0  0  0
 47 65  1  0  0  0  0
 48 70  1  0  0  0  0
 49 64  1  0  0  0  0
 50 63  1  0  0  0  0
 51 58  1  0  0  0  0
 52 59  1  0  0  0  0
 53 59  1  0  0  0  0
 54 59  1  0  0  0  0
 55 72  1  0  0  0  0
 56 60  1  0  0  0  0
 56 84  1  0  0  0  0
 57 59  1  0  0  0  0
 57 71  1  0  0  0  0
 58 72  1  0  0  0  0
 60 85  1  0  0  0  0
 60 86  1  0  0  0  0
 60 87  1  0  0  0  0
 61 63  1  0  0  0  0
M  CHG  1  72   1
M  ISO  4  31 101  38 100  69 100  81 101
M  END
> <Batch ID>
0180

> <Smiles>
CNC(C)C(=O)NC(C(=O)N1Cc2cc([101O:1][101CH2:1]C(=O)C(=O)Nc3nc([100NH:0][100C:0](=O)N4CCCC(n5nc(-c6ccc(Oc7ccc(F)cc7F)cc6)c(C(N)=O)c5N)C4)sc3C(F)C(F)(F)F)ccc2CC1C(=O)NC1CCCc2ccccc21)C(C)(C)C

> <Shape>
0.268

> <Color>
0.093

> <Negative vol penalty>
0.000

$$$$

  -OEChem-04052304503D

 82 90  0     1  0  0  0  0  0999 V2000
  -16.9710  -31.3602   22.4758 C   0  0  0  0  0  0  0  0  0  0  0  0
  -18.0209  -31.7842   23.2840 C   0  0  0  0  0  0  0  0  0  0  0  0
  -24.5511  -13.7159   20.1496 C   0  0  0  0  0  0  0  0  0  0  0  0
  -26.6448  -13.6257   21.3519 C   0  0  0  0  0  0  0  0  0  0  0  0
  -17.0026  -30.0892   21.9037 C   0  0  0  0  0  0  0  0  0  0  0  0
  -19.1027  -30.9369   23.5214 C   0  0  0  0  0  0  0  0  0  0  0  0
  -26.1722  -31.0960   24.6675 C   0  0  0  0  0  0  0  0  0  0  0  0
  -24.5226  -12.3225   20.0945 C   0  0  0  0  0  0  0  0  0  0  0  0
  -26.6163  -12.2322   21.2969 C   0  0  0  0  0  0  0  0  0  0  0  0
  -27.1280  -30.6283   25.5683 C   0  0  0  0  0  0  0  0  0  0  0  0
  -23.7420   -9.7634   22.1620 C   0  0  0  0  0  0  0  0  0  0  0  0
  -22.5371   -9.1273   22.4607 C   0  0  0  0  0  0  0  0  0  0  0  0
  -27.1121  -28.4843   24.4628 C   0  0  0  0  0  0  0  0  0  0  0  0
  -22.5099   -8.1430   20.2544 C   0  0  0  0  0  0  0  0  0  0  0  0
  -29.6504  -24.2887   21.0196 C   0  0  0  0  0  0  0  0  0  0  0  0
  -25.6123  -14.3675   20.7782 C   0  0  0  0  0  0  0  0  0  0  0  0
  -25.1007  -16.6297   21.8405 C   0  0  0  0  0  0  0  0  0  0  0  0
  -18.0898  -29.2295   22.1263 C   0  0  0  0  0  0  0  0  0  0  0  0
  -25.6702  -30.2565   23.6627 C   0  0  0  0  0  0  0  0  0  0  0  0
  -19.1482  -29.6527   22.9528 C   0  0  0  0  0  0  0  0  0  0  0  0
  -26.1517  -28.9445   23.5490 C   0  0  0  0  0  0  0  0  0  0  0  0
  -25.5552  -11.5806   20.6682 C   0  0  0  0  0  0  0  0  0  0  0  0
  -27.5960  -29.3214   25.4678 C   0  0  0  0  0  0  0  0  0  0  0  0
  -24.3309   -9.5893   20.9096 C   0  0  0  0  0  0  0  0  0  0  0  0
  -21.9211   -8.3172   21.5069 C   0  0  0  0  0  0  0  0  0  0  0  0
  -23.7149   -8.7791   19.9558 C   0  0  0  0  0  0  0  0  0  0  0  0
  -25.6426  -15.8070   20.8349 C   0  0  0  0  0  0  0  0  0  0  0  0
  -25.3916  -17.9083   21.4318 C   0  0  0  0  0  0  0  0  0  0  0  0
  -29.1468  -23.0722   21.4302 C   0  0  0  0  0  0  0  0  0  0  0  0
  -29.4975  -24.7032   23.1678 C   0  0  0  0  0  0  0  0  0  0  0  0
  -24.3975  -16.2703   23.0372 C   0  0  0  0  0  0  0  0  0  0  0  0
  -22.8014  -29.0985   22.9330 C   0  0  0  0  0  0  0  0  0  0  0  0
  -24.3529  -27.9685   20.3179 C   0  0  0  0  0  0  0  0  0  0  0  0
  -29.9660  -26.6023   24.7548 C   0  0  0  0  0  0  0  0  0  0  0  0
  -27.3003  -27.0203   18.8825 C   0  0  0  0  0  0  0  0  0  0  0  0
  -28.9289  -21.6701   19.3486 C   0  0  0  0  0  0  0  0  0  0  0  0
  -18.0571  -27.8469   21.5247 C   0  0  0  0  0  0  0  0  0  0  0  0
  -24.6590  -30.7844   22.6823 C   0  0  0  0  0  0  0  0  0  0  0  0
  -25.6599  -28.0095   22.4755 C   0  0  0  0  0  0  0  0  0  0  0  0
  -19.4161  -27.1515   21.5220 C   0  0  0  0  0  0  0  0  0  0  0  0
  -27.1726  -19.6306   17.0178 C   0  0  0  0  0  0  0  0  0  0  0  0
  -20.0930  -27.2973   22.8811 C   0  0  0  0  0  0  0  0  0  0  0  0
  -26.5734  -18.5217   17.8858 C   0  0  0  0  0  0  0  0  0  0  0  0
  -28.5598  -20.0452   17.5051 C   0  0  0  0  0  0  0  0  0  0  0  0
  -28.0366  -19.2993   19.7940 C   0  0  0  0  0  0  0  0  0  0  0  0
  -20.3508  -28.7719   23.2138 C   0  0  1  0  0  0  0  0  0  0  0  0
  -23.8397  -29.6826   22.0174 C   0  0  1  0  0  0  0  0  0  0  0  0
  -26.6124  -18.8933   19.3811 C   0  0  2  0  0  0  0  0  0  0  0  0
  -28.2462  -26.1054   16.7458 C   0  0  0  0  0  0  0  0  0  0  0  0
  -28.2435  -27.3040   28.1436 C   0  0  0  0  0  0  0  0  0  0  0  0
  -23.2725  -25.2042   21.0260 C   0  0  0  0  0  0  0  0  0  0  0  0
  -24.9735  -24.2189   19.4755 C   0  0  0  0  0  0  0  0  0  0  0  0
  -23.2180  -25.7521   18.5865 C   0  0  0  0  0  0  0  0  0  0  0  0
  -29.0080  -29.4041   18.4822 C   0  0  0  0  0  0  0  0  0  0  0  0
  -29.8456  -26.8569   26.2542 C   0  0  0  0  0  0  0  0  0  0  0  0
  -25.1001  -26.7003   19.9831 C   0  0  1  0  0  0  0  0  0  0  0  0
  -27.9226  -27.3610   17.5405 C   0  0  2  0  0  0  0  0  0  0  0  0
  -28.5022  -27.4686   26.6518 C   0  0  2  0  0  0  0  0  0  1  0  0
  -24.1491  -25.4856   19.7893 C   0  0  0  0  0  0  0  0  0  0  0  0
  -29.8518  -25.2254   22.0146 N   0  0  0  0  0  0  0  0  0  0  0  0
  -26.2327  -16.5043   19.8605 N   0  0  0  0  0  0  0  0  0  0  0  0
  -26.0634  -17.7788   20.2519 N   0  0  0  0  0  0  0  0  0  0  0  0
  -24.6666  -28.5703   21.5448 N   0  0  0  0  0  0  0  0  0  0  0  0
  -28.5188  -20.3871   18.9286 N   0  0  0  0  0  0  0  0  0  0  0  0
  -25.1355  -19.1196   21.9701 N   0  0  0  0  0  0  0  0  0  0  0  0
  -24.1847  -14.9111   23.3044 N   0  0  0  0  0  0  0  0  0  0  0  0
  -28.8152  -21.8914   20.7208 N   0  0  0  0  0  0  0  0  0  0  0  0
  -29.5395  -25.3138   24.4438 N   0  0  0  0  0  0  0  0  0  0  0  0
  -21.5034  -29.2599   22.4872 N   0  0  0  0  0  0  0  0  0  0  0  0
  -25.9230  -27.0067   18.8181 N   0  0  0  0  0  0  0  0  0  0  0  0
  -29.1830  -28.1321   17.7348 N   0  3  0  0  0  0  0  0  0  0  0  0
  -23.9563  -17.1297   23.8373 O   0  0  0  0  0  0  0  0  0  0  0  0
  -23.1520  -28.5412   23.9665 O   0  0  0  0  0  0  0  0  0  0  0  0
  -23.5265  -28.4129   19.5171 O   0  0  0  0  0  0  0  0  0  0  0  0
  -30.3871  -27.4538   23.9790 O   0  0  0  0  0  0  0  0  0  0  0  0
  -27.9691  -26.7857   19.8866 O   0  0  0  0  0  0  0  0  0  0  0  0
  -29.3243  -22.5200   18.5465 O   0  0  0  0  0  0  0  0  0  0  0  0
  -25.5276  -10.2208   20.6149 O   0  0  0  0  0  0  0  0  0  0  0  0
  -28.5285  -28.8623   26.3462 O   0  0  0  0  0  0  0  0  0  1  0  0
  -20.7647   -7.7052   21.7943 F   0  0  0  0  0  0  0  0  0  0  0  0
  -24.2764   -8.6071   18.7512 F   0  0  0  0  0  0  0  0  0  0  0  0
  -28.9138  -23.0899   23.1293 S   0  0  0  0  0  0  0  0  0  0  0  0
  1  2  1  0  0  0  0
  1  5  2  0  0  0  0
  2  6  2  0  0  0  0
  3  8  2  0  0  0  0
  3 16  1  0  0  0  0
  4  9  1  0  0  0  0
  4 16  2  0  0  0  0
  5 18  1  0  0  0  0
  6 20  1  0  0  0  0
  7 10  2  0  0  0  0
  7 19  1  0  0  0  0
  8 22  1  0  0  0  0
  9 22  2  0  0  0  0
 10 23  1  0  0  0  0
 11 12  2  0  0  0  0
 11 24  1  0  0  0  0
 12 25  1  0  0  0  0
 13 21  1  0  0  0  0
 13 23  2  0  0  0  0
 14 25  2  0  0  0  0
 14 26  1  0  0  0  0
 15 29  2  0  0  0  0
 15 60  1  0  0  0  0
 16 27  1  0  0  0  0
 17 27  1  0  0  0  0
 17 28  2  0  0  0  0
 17 31  1  0  0  0  0
 18 20  2  0  0  0  0
 18 37  1  0  0  0  0
 19 21  2  0  0  0  0
 19 38  1  0  0  0  0
 20 46  1  0  0  0  0
 21 39  1  0  0  0  0
 22 78  1  0  0  0  0
 23 79  1  0  0  0  0
 24 26  2  0  0  0  0
 24 78  1  0  0  0  0
 25 80  1  0  0  0  0
 26 81  1  0  0  0  0
 27 61  2  0  0  0  0
 28 62  1  0  0  0  0
 28 65  1  0  0  0  0
 29 67  1  0  0  0  0
 29 82  1  0  0  0  0
 30 60  2  0  0  0  0
 30 68  1  0  0  0  0
 30 82  1  0  0  0  0
 31 66  1  0  0  0  0
 31 72  2  0  0  0  0
 32 47  1  0  0  0  0
 32 69  1  0  0  0  0
 32 73  2  0  0  0  0
 33 56  1  0  0  0  0
 33 63  1  0  0  0  0
 33 74  2  0  0  0  0
 34 55  1  0  0  0  0
 34 68  1  0  0  0  0
 34 75  2  0  0  0  0
 35 57  1  0  0  0  0
 35 70  1  0  0  0  0
 35 76  2  0  0  0  0
 36 64  1  0  0  0  0
 36 67  1  0  0  0  0
 36 77  2  0  0  0  0
 37 40  1  0  0  0  0
 38 47  1  0  0  0  0
 39 63  1  0  0  0  0
 40 42  1  0  0  0  0
 41 43  1  0  0  0  0
 41 44  1  0  0  0  0
 42 46  1  0  0  0  0
 43 48  1  0  0  0  0
 44 64  1  0  0  0  0
 45 48  1  0  0  0  0
 45 64  1  0  0  0  0
 46 69  1  0  0  0  0
 47 63  1  0  0  0  0
 48 62  1  0  0  0  0
 49 57  1  0  0  0  0
 50 58  1  0  0  0  0
 51 59  1  0  0  0  0
 52 59  1  0  0  0  0
 53 59  1  0  0  0  0
 54 71  1  0  0  0  0
 55 58  1  0  0  0  0
 56 59  1  0  0  0  0
 56 70  1  0  0  0  0
 57 71  1  0  0  0  0
 58 79  1  0  0  0  0
 61 62  1  0  0  0  0
M  CHG  1  71   1
M  ISO  4  36 100  58 101  67 100  79 101
M  END
> <Batch ID>
0180

> <Smiles>
CNC(C)C(=O)NC(C(=O)N1Cc2cc([101O:1][101CH:1](C)CC(=O)Nc3ncc([100NH:0][100C:0](=O)N4CCCC(n5nc(-c6ccc(Oc7ccc(F)cc7F)cc6)c(C(N)=O)c5N)C4)s3)ccc2CC1C(=O)NC1CCCc2ccccc21)C(C)(C)C

> <Shape>
0.255

> <Color>
0.110

> <Negative vol penalty>
0.000

$$$$

  -OEChem-04052304503D

 84 92  0     1  0  0  0  0  0999 V2000
  -17.2732  -27.3294   26.6581 C   0  0  0  0  0  0  0  0  0  0  0  0
  -18.2484  -26.5853   26.0018 C   0  0  0  0  0  0  0  0  0  0  0  0
  -23.0774   -9.9028   21.5178 C   0  0  0  0  0  0  0  0  0  0  0  0
  -23.7679  -10.9153   23.6000 C   0  0  0  0  0  0  0  0  0  0  0  0
  -16.7971  -28.5094   26.0882 C   0  0  0  0  0  0  0  0  0  0  0  0
  -18.7473  -27.0203   24.7744 C   0  0  0  0  0  0  0  0  0  0  0  0
  -23.7922  -26.6792   24.4970 C   0  0  0  0  0  0  0  0  0  0  0  0
  -22.3223   -8.9663   22.2236 C   0  0  0  0  0  0  0  0  0  0  0  0
  -23.0127   -9.9787   24.3058 C   0  0  0  0  0  0  0  0  0  0  0  0
  -24.3330  -25.4160   24.2610 C   0  0  0  0  0  0  0  0  0  0  0  0
  -20.4995   -6.0864   23.4915 C   0  0  0  0  0  0  0  0  0  0  0  0
  -20.5874   -4.7510   23.0982 C   0  0  0  0  0  0  0  0  0  0  0  0
  -31.8402  -19.0992   20.0594 C   0  0  0  0  0  0  0  0  0  0  0  0
  -31.7682  -17.6771   20.0106 C   0  0  0  0  0  0  0  0  0  0  0  0
  -24.6127  -25.9777   21.9317 C   0  0  0  0  0  0  0  0  0  0  0  0
  -22.9600   -4.7730   23.5536 C   0  0  0  0  0  0  0  0  0  0  0  0
  -23.8003  -10.8773   22.2060 C   0  0  0  0  0  0  0  0  0  0  0  0
  -24.1545  -13.1015   21.0080 C   0  0  0  0  0  0  0  0  0  0  0  0
  -17.2974  -28.9641   24.8579 C   0  0  0  0  0  0  0  0  0  0  0  0
  -23.6473  -27.5987   23.4483 C   0  0  0  0  0  0  0  0  0  0  0  0
  -18.2765  -28.2068   24.1869 C   0  0  0  0  0  0  0  0  0  0  0  0
  -24.0722  -27.2528   22.1576 C   0  0  0  0  0  0  0  0  0  0  0  0
  -22.2899   -9.0042   23.6176 C   0  0  0  0  0  0  0  0  0  0  0  0
  -24.7406  -25.0640   22.9776 C   0  0  0  0  0  0  0  0  0  0  0  0
  -21.6419   -6.7651   23.9157 C   0  0  0  0  0  0  0  0  0  0  0  0
  -21.8176   -4.0943   23.1292 C   0  0  0  0  0  0  0  0  0  0  0  0
  -22.8721   -6.1084   23.9468 C   0  0  0  0  0  0  0  0  0  0  0  0
  -24.5810  -11.8447   21.4775 C   0  0  0  0  0  0  0  0  0  0  0  0
  -30.6729  -19.6607   20.5283 C   0  0  0  0  0  0  0  0  0  0  0  0
  -25.2598  -13.6288   20.3861 C   0  0  0  0  0  0  0  0  0  0  0  0
  -30.5485  -17.2056   20.4444 C   0  0  0  0  0  0  0  0  0  0  0  0
  -26.5415  -23.7591   22.2533 C   0  0  0  0  0  0  0  0  0  1  0  0
  -22.8738  -13.7356   21.1239 C   0  0  0  0  0  0  0  0  0  0  0  0
  -30.3435  -21.0948   20.7294 C   0  0  0  0  0  0  0  0  0  0  0  0
  -27.1582  -22.6014   21.9876 C   0  0  0  0  0  0  0  0  0  0  0  0
  -28.5537  -22.6324   21.4520 C   0  0  0  0  0  0  0  0  0  0  0  0
  -21.1839  -29.0637   22.0738 C   0  0  0  0  0  0  0  0  0  0  0  0
  -23.5192  -30.6368   20.4630 C   0  0  0  0  0  0  0  0  0  0  0  0
  -26.7358  -30.6689   19.3233 C   0  0  0  0  0  0  0  0  0  0  0  0
  -30.7220  -14.7003   20.2448 C   0  0  0  0  0  0  0  0  0  0  0  0
  -16.7179  -30.2209   24.2585 C   0  0  0  0  0  0  0  0  0  0  0  0
  -23.0869  -28.9669   23.7247 C   0  0  0  0  0  0  0  0  0  0  0  0
  -23.9569  -28.2111   21.0013 C   0  0  0  0  0  0  0  0  0  0  0  0
  -17.5684  -30.8082   23.1351 C   0  0  0  0  0  0  0  0  0  0  0  0
  -29.6708  -11.4853   19.1331 C   0  0  0  0  0  0  0  0  0  0  0  0
  -17.9978  -29.7140   22.1629 C   0  0  0  0  0  0  0  0  0  0  0  0
  -28.2178  -11.3956   19.6053 C   0  0  0  0  0  0  0  0  0  0  0  0
  -30.5501  -12.2235   20.1409 C   0  0  0  0  0  0  0  0  0  0  0  0
  -28.6050  -13.4581   21.0135 C   0  0  0  0  0  0  0  0  0  0  0  0
  -18.8603  -28.6588   22.8659 C   0  0  1  0  0  0  0  0  0  0  0  0
  -22.5107  -29.6388   22.4821 C   0  0  1  0  0  0  0  0  0  0  0  0
  -27.6675  -12.7797   20.0013 C   0  0  2  0  0  0  0  0  0  0  0  0
  -28.3448  -32.0731   18.0054 C   0  0  0  0  0  0  0  0  0  0  0  0
  -22.1211  -29.8103   17.8800 C   0  0  0  0  0  0  0  0  0  0  0  0
  -24.2172  -30.3928   16.6410 C   0  0  0  0  0  0  0  0  0  0  0  0
  -22.9804  -32.1588   17.8957 C   0  0  0  0  0  0  0  0  0  0  0  0
  -28.5877  -30.9083   21.6193 C   0  0  0  0  0  0  0  0  0  0  0  0
  -24.2736  -30.4039   19.1763 C   0  0  1  0  0  0  0  0  0  0  0  0
  -27.8177  -31.7317   19.3905 C   0  0  2  0  0  0  0  0  0  0  0  0
  -23.3986  -30.6725   17.9194 C   0  0  0  0  0  0  0  0  0  0  0  0
  -25.8575  -11.5889   21.1792 N   0  0  0  0  0  0  0  0  0  0  0  0
  -26.2427  -12.6922   20.5155 N   0  0  0  0  0  0  0  0  0  0  0  0
  -23.3967  -29.5345   21.3209 N   0  0  0  0  0  0  0  0  0  0  0  0
  -29.9686  -13.5279   20.4654 N   0  0  0  0  0  0  0  0  0  0  0  0
  -25.4770  -14.7977   19.7465 N   0  0  0  0  0  0  0  0  0  0  0  0
  -21.8490  -13.0540   21.7943 N   0  0  0  0  0  0  0  0  0  0  0  0
  -30.0535  -15.8830   20.5597 N   0  0  0  0  0  0  0  0  0  0  0  0
  -29.0664  -21.3570   21.2234 N   0  0  0  0  0  0  0  0  0  0  0  0
  -20.2094  -29.1493   23.0496 N   0  0  0  0  0  0  0  0  0  0  0  0
  -25.4763  -31.2259   19.2538 N   0  0  0  0  0  0  0  0  0  0  0  0
  -28.9586  -31.2574   20.2238 N   0  3  0  0  0  0  0  0  0  0  0  0
  -22.6403  -14.8660   20.6327 O   0  0  0  0  0  0  0  0  0  0  0  0
  -31.1769  -21.9469   20.4335 O   0  0  0  0  0  0  0  0  0  0  0  0
  -29.1521  -23.6853   21.2510 O   0  0  0  0  0  0  0  0  0  0  0  0
  -21.0537  -28.5795   20.9556 O   0  0  0  0  0  0  0  0  0  0  0  0
  -23.0617  -31.7572   20.7016 O   0  0  0  0  0  0  0  0  0  0  0  0
  -26.9834  -29.4651   19.3278 O   0  0  0  0  0  0  0  0  0  0  0  0
  -31.8652  -14.6598   19.7829 O   0  0  0  0  0  0  0  0  0  0  0  0
  -26.5589  -21.3750   22.1878 O   0  0  0  0  0  0  0  0  0  0  0  0
  -21.5529   -8.0906   24.3066 O   0  0  0  0  0  0  0  0  0  0  0  0
  -25.2681  -23.8315   22.7443 O   0  0  0  0  0  0  0  0  0  1  0  0
  -21.9015   -2.8115   22.7530 F   0  0  0  0  0  0  0  0  0  0  0  0
  -23.9728   -6.7549   24.3546 F   0  0  0  0  0  0  0  0  0  0  0  0
  -29.4968  -18.4751   20.9074 S   0  0  0  0  0  0  0  0  0  0  0  0
  1  2  1  0  0  0  0
  1  5  2  0  0  0  0
  2  6  2  0  0  0  0
  3  8  2  0  0  0  0
  3 17  1  0  0  0  0
  4  9  1  0  0  0  0
  4 17  2  0  0  0  0
  5 19  1  0  0  0  0
  6 21  1  0  0  0  0
  7 10  2  0  0  0  0
  7 20  1  0  0  0  0
  8 23  1  0  0  0  0
  9 23  2  0  0  0  0
 10 24  1  0  0  0  0
 11 12  2  0  0  0  0
 11 25  1  0  0  0  0
 12 26  1  0  0  0  0
 13 14  1  0  0  0  0
 13 29  2  0  0  0  0
 14 31  2  0  0  0  0
 15 22  1  0  0  0  0
 15 24  2  0  0  0  0
 16 26  2  0  0  0  0
 16 27  1  0  0  0  0
 17 28  1  0  0  0  0
 18 28  1  0  0  0  0
 18 30  2  0  0  0  0
 18 33  1  0  0  0  0
 19 21  2  0  0  0  0
 19 41  1  0  0  0  0
 20 22  2  0  0  0  0
 20 42  1  0  0  0  0
 21 50  1  0  0  0  0
 22 43  1  0  0  0  0
 23 80  1  0  0  0  0
 24 81  1  0  0  0  0
 25 27  2  0  0  0  0
 25 80  1  0  0  0  0
 26 82  1  0  0  0  0
 27 83  1  0  0  0  0
 28 61  2  0  0  0  0
 29 34  1  0  0  0  0
 29 84  1  0  0  0  0
 30 62  1  0  0  0  0
 30 65  1  0  0  0  0
 31 67  1  0  0  0  0
 31 84  1  0  0  0  0
 32 35  2  0  0  0  0
 32 81  1  0  0  0  0
 33 66  1  0  0  0  0
 33 72  2  0  0  0  0
 34 68  1  0  0  0  0
 34 73  2  0  0  0  0
 35 36  1  0  0  0  0
 35 79  1  0  0  0  0
 36 68  1  0  0  0  0
 36 74  2  0  0  0  0
 37 51  1  0  0  0  0
 37 69  1  0  0  0  0
 37 75  2  0  0  0  0
 38 58  1  0  0  0  0
 38 63  1  0  0  0  0
 38 76  2  0  0  0  0
 39 59  1  0  0  0  0
 39 70  1  0  0  0  0
 39 77  2  0  0  0  0
 40 64  1  0  0  0  0
 40 67  1  0  0  0  0
 40 78  2  0  0  0  0
 41 44  1  0  0  0  0
 42 51  1  0  0  0  0
 43 63  1  0  0  0  0
 44 46  1  0  0  0  0
 45 47  1  0  0  0  0
 45 48  1  0  0  0  0
 46 50  1  0  0  0  0
 47 52  1  0  0  0  0
 48 64  1  0  0  0  0
 49 52  1  0  0  0  0
 49 64  1  0  0  0  0
 50 69  1  0  0  0  0
 51 63  1  0  0  0  0
 52 62  1  0  0  0  0
 53 59  1  0  0  0  0
 54 60  1  0  0  0  0
 55 60  1  0  0  0  0
 56 60  1  0  0  0  0
 57 71  1  0  0  0  0
 58 60  1  0  0  0  0
 58 70  1  0  0  0  0
 59 71  1  0  0  0  0
 61 62  1  0  0  0  0
M  CHG  1  71   1
M  ISO  4  32 101  40 100  67 100  81 101
M  END
> <Batch ID>
0180

> <Smiles>
CNC(C)C(=O)NC(C(=O)N1Cc2cc([101O:1][101CH2:1]C(=O)C(=O)NC(=O)c3ccc([100NH:0][100C:0](=O)N4CCCC(n5nc(-c6ccc(Oc7ccc(F)cc7F)cc6)c(C(N)=O)c5N)C4)s3)ccc2CC1C(=O)NC1CCCc2ccccc21)C(C)(C)C

> <Shape>
0.279

> <Color>
0.165

> <Negative vol penalty>
0.000

$$$$

  -OEChem-04052304503D

 84 92  0     1  0  0  0  0  0999 V2000
  -31.4274  -34.4777   23.2803 C   0  0  0  0  0  0  0  0  0  0  0  0
  -31.2252  -33.3103   22.5512 C   0  0  0  0  0  0  0  0  0  0  0  0
  -23.2470  -10.3901   22.3217 C   0  0  0  0  0  0  0  0  0  0  0  0
  -24.2378  -11.8201   23.9982 C   0  0  0  0  0  0  0  0  0  0  0  0
  -30.6340  -34.7488   24.3943 C   0  0  0  0  0  0  0  0  0  0  0  0
  -30.2300  -32.4126   22.9364 C   0  0  0  0  0  0  0  0  0  0  0  0
  -26.7631  -28.9578   19.2552 C   0  0  0  0  0  0  0  0  0  0  0  0
  -22.5987   -9.6662   23.3223 C   0  0  0  0  0  0  0  0  0  0  0  0
  -23.5894  -11.0962   24.9988 C   0  0  0  0  0  0  0  0  0  0  0  0
  -26.8528  -27.6229   18.8631 C   0  0  0  0  0  0  0  0  0  0  0  0
  -19.8652  -10.0213   25.2806 C   0  0  0  0  0  0  0  0  0  0  0  0
  -18.5199   -9.7083   25.0862 C   0  0  0  0  0  0  0  0  0  0  0  0
  -25.2944  -27.0140   20.6009 C   0  0  0  0  0  0  0  0  0  0  0  0
  -19.0483   -7.3545   25.2184 C   0  0  0  0  0  0  0  0  0  0  0  0
  -24.0666  -11.4671   22.6597 C   0  0  0  0  0  0  0  0  0  0  0  0
  -24.2521  -13.3483   20.9467 C   0  0  0  0  0  0  0  0  0  0  0  0
  -29.6222  -33.8587   24.7876 C   0  0  0  0  0  0  0  0  0  0  0  0
  -25.9454  -29.3299   20.3319 C   0  0  0  0  0  0  0  0  0  0  0  0
  -29.4232  -32.6714   24.0574 C   0  0  0  0  0  0  0  0  0  0  0  0
  -25.1941  -28.3546   21.0031 C   0  0  0  0  0  0  0  0  0  0  0  0
  -22.7699  -10.0192   24.6609 C   0  0  0  0  0  0  0  0  0  0  0  0
  -26.1207  -26.6503   19.5378 C   0  0  0  0  0  0  0  0  0  0  0  0
  -20.8021   -9.0008   25.4438 C   0  0  0  0  0  0  0  0  0  0  0  0
  -18.1114   -8.3750   25.0551 C   0  0  0  0  0  0  0  0  0  0  0  0
  -20.3936   -7.6675   25.4128 C   0  0  0  0  0  0  0  0  0  0  0  0
  -24.7370  -12.2149   21.6266 C   0  0  0  0  0  0  0  0  0  0  0  0
  -30.6258  -19.3199   18.0166 C   0  0  0  0  0  0  0  0  0  0  0  0
  -31.6640  -18.5430   17.5468 C   0  0  0  0  0  0  0  0  0  0  0  0
  -25.2572  -13.6797   20.0713 C   0  0  0  0  0  0  0  0  0  0  0  0
  -30.4984  -16.9716   18.5377 C   0  0  0  0  0  0  0  0  0  0  0  0
  -23.0047  -14.0397   21.0935 C   0  0  0  0  0  0  0  0  0  0  0  0
  -30.3709  -20.7853   17.8893 C   0  0  0  0  0  0  0  0  0  0  0  0
  -26.4460  -30.6709   23.1700 C   0  0  0  0  0  0  0  0  0  0  0  0
  -27.6853  -23.4487   18.8708 C   0  0  0  0  0  0  0  0  0  0  0  0
  -23.2051  -30.6707   23.3069 C   0  0  0  0  0  0  0  0  0  0  0  0
  -20.2606  -29.3105   22.2457 C   0  0  0  0  0  0  0  0  0  0  0  0
  -30.6451  -14.4859   18.9205 C   0  0  0  0  0  0  0  0  0  0  0  0
  -28.8213  -34.1717   26.0266 C   0  0  0  0  0  0  0  0  0  0  0  0
  -25.8390  -30.7778   20.7254 C   0  0  0  0  0  0  0  0  0  0  0  0
  -24.2860  -28.7050   22.1524 C   0  0  0  0  0  0  0  0  0  0  0  0
  -27.5401  -33.3505   26.1473 C   0  0  0  0  0  0  0  0  0  0  0  0
  -29.4293  -11.1446   18.7339 C   0  0  0  0  0  0  0  0  0  0  0  0
  -27.8202  -31.8789   25.8597 C   0  0  0  0  0  0  0  0  0  0  0  0
  -28.0603  -11.2184   19.4139 C   0  0  0  0  0  0  0  0  0  0  0  0
  -30.4493  -12.0579   19.4117 C   0  0  0  0  0  0  0  0  0  0  0  0
  -28.6574  -13.5298   20.2435 C   0  0  0  0  0  0  0  0  0  0  0  0
  -28.3373  -31.6851   24.4291 C   0  0  1  0  0  0  0  0  0  0  0  0
  -25.3713  -30.9731   22.1644 C   0  0  1  0  0  0  0  0  0  0  0  0
  -27.5795  -12.6759   19.5559 C   0  0  2  0  0  0  0  0  0  0  0  0
  -17.7781  -29.4943   22.5631 C   0  0  0  0  0  0  0  0  0  0  0  0
  -23.4431  -29.2275   25.9847 C   0  0  0  0  0  0  0  0  0  0  0  0
  -21.0258  -28.6066   25.7858 C   0  0  0  0  0  0  0  0  0  0  0  0
  -21.6885  -31.0082   25.9116 C   0  0  0  0  0  0  0  0  0  0  0  0
  -19.8309  -29.9999   19.3998 C   0  0  0  0  0  0  0  0  0  0  0  0
  -29.1150  -21.3670   18.5258 C   0  0  0  0  0  0  0  0  0  0  0  0
  -28.9682  -22.8698   18.2915 C   0  0  0  0  0  0  0  0  0  0  0  0
  -27.4413  -24.9174   18.5844 C   0  0  0  0  0  0  0  0  0  1  0  0
  -22.1558  -29.7026   23.7976 C   0  0  1  0  0  0  0  0  0  0  0  0
  -18.9775  -29.9501   21.7467 C   0  0  2  0  0  0  0  0  0  0  0  0
  -22.0968  -29.6290   25.3496 C   0  0  0  0  0  0  0  0  0  0  0  0
  -25.9553  -11.8506   21.2180 N   0  0  0  0  0  0  0  0  0  0  0  0
  -31.5929  -17.1962   17.8451 N   0  0  0  0  0  0  0  0  0  0  0  0
  -26.2444  -12.7603   20.2719 N   0  0  0  0  0  0  0  0  0  0  0  0
  -24.2208  -30.1332   22.5036 N   0  0  0  0  0  0  0  0  0  0  0  0
  -29.9269  -13.4227   19.5075 N   0  0  0  0  0  0  0  0  0  0  0  0
  -32.7074  -19.0289   16.8325 N   0  0  0  0  0  0  0  0  0  0  0  0
  -25.3840  -14.6648   19.1570 N   0  0  0  0  0  0  0  0  0  0  0  0
  -22.0855  -13.5661   22.0396 N   0  0  0  0  0  0  0  0  0  0  0  0
  -30.0347  -15.7333   19.0473 N   0  0  0  0  0  0  0  0  0  0  0  0
  -27.2444  -31.7545   23.4830 N   0  0  0  0  0  0  0  0  0  0  0  0
  -20.9022  -30.1069   23.1705 N   0  0  0  0  0  0  0  0  0  0  0  0
  -18.7395  -29.5895   20.3204 N   0  3  0  0  0  0  0  0  0  0  0  0
  -22.7070  -15.0379   20.3945 O   0  0  0  0  0  0  0  0  0  0  0  0
  -31.1787  -21.4825   17.2799 O   0  0  0  0  0  0  0  0  0  0  0  0
  -26.5427  -29.5389   23.6293 O   0  0  0  0  0  0  0  0  0  0  0  0
  -26.8948  -22.7789   19.5335 O   0  0  0  0  0  0  0  0  0  0  0  0
  -23.1225  -31.8613   23.6189 O   0  0  0  0  0  0  0  0  0  0  0  0
  -20.6524  -28.2123   21.8569 O   0  0  0  0  0  0  0  0  0  0  0  0
  -31.7087  -14.2993   18.3239 O   0  0  0  0  0  0  0  0  0  0  0  0
  -22.1372   -9.3132   25.6375 O   0  0  0  0  0  0  0  0  0  0  0  0
  -26.2069  -25.3466   19.1576 O   0  0  0  0  0  0  0  0  0  1  0  0
  -16.8192   -8.0747   24.8700 F   0  0  0  0  0  0  0  0  0  0  0  0
  -21.2889   -6.6829   25.5702 F   0  0  0  0  0  0  0  0  0  0  0  0
  -29.5084  -18.3343   18.8660 S   0  0  0  0  0  0  0  0  0  0  0  0
  1  2  1  0  0  0  0
  1  5  2  0  0  0  0
  2  6  2  0  0  0  0
  3  8  2  0  0  0  0
  3 15  1  0  0  0  0
  4  9  1  0  0  0  0
  4 15  2  0  0  0  0
  5 17  1  0  0  0  0
  6 19  1  0  0  0  0
  7 10  2  0  0  0  0
  7 18  1  0  0  0  0
  8 21  1  0  0  0  0
  9 21  2  0  0  0  0
 10 22  1  0  0  0  0
 11 12  2  0  0  0  0
 11 23  1  0  0  0  0
 12 24  1  0  0  0  0
 13 20  1  0  0  0  0
 13 22  2  0  0  0  0
 14 24  2  0  0  0  0
 14 25  1  0  0  0  0
 15 26  1  0  0  0  0
 16 26  1  0  0  0  0
 16 29  2  0  0  0  0
 16 31  1  0  0  0  0
 17 19  2  0  0  0  0
 17 38  1  0  0  0  0
 18 20  2  0  0  0  0
 18 39  1  0  0  0  0
 19 47  1  0  0  0  0
 20 40  1  0  0  0  0
 21 80  1  0  0  0  0
 22 81  1  0  0  0  0
 23 25  2  0  0  0  0
 23 80  1  0  0  0  0
 24 82  1  0  0  0  0
 25 83  1  0  0  0  0
 26 61  2  0  0  0  0
 27 28  2  0  0  0  0
 27 32  1  0  0  0  0
 27 84  1  0  0  0  0
 28 62  1  0  0  0  0
 28 66  1  0  0  0  0
 29 63  1  0  0  0  0
 29 67  1  0  0  0  0
 30 62  2  0  0  0  0
 30 69  1  0  0  0  0
 30 84  1  0  0  0  0
 31 68  1  0  0  0  0
 31 73  2  0  0  0  0
 32 55  1  0  0  0  0
 32 74  2  0  0  0  0
 33 48  1  0  0  0  0
 33 70  1  0  0  0  0
 33 75  2  0  0  0  0
 34 56  1  0  0  0  0
 34 57  1  0  0  0  0
 34 76  2  0  0  0  0
 35 58  1  0  0  0  0
 35 64  1  0  0  0  0
 35 77  2  0  0  0  0
 36 59  1  0  0  0  0
 36 71  1  0  0  0  0
 36 78  2  0  0  0  0
 37 65  1  0  0  0  0
 37 69  1  0  0  0  0
 37 79  2  0  0  0  0
 38 41  1  0  0  0  0
 39 48  1  0  0  0  0
 40 64  1  0  0  0  0
 41 43  1  0  0  0  0
 42 44  1  0  0  0  0
 42 45  1  0  0  0  0
 43 47  1  0  0  0  0
 44 49  1  0  0  0  0
 45 65  1  0  0  0  0
 46 49  1  0  0  0  0
 46 65  1  0  0  0  0
 47 70  1  0  0  0  0
 48 64  1  0  0  0  0
 49 63  1  0  0  0  0
 50 59  1  0  0  0  0
 51 60  1  0  0  0  0
 52 60  1  0  0  0  0
 53 60  1  0  0  0  0
 54 72  1  0  0  0  0
 55 56  1  0  0  0  0
 57 81  1  0  0  0  0
 58 60  1  0  0  0  0
 58 71  1  0  0  0  0
 59 72  1  0  0  0  0
 61 63  1  0  0  0  0
M  CHG  1  72   1
M  ISO  4  37 100  57 101  69 100  81 101
M  END
> <Batch ID>
0180

> <Smiles>
CNC(C)C(=O)NC(C(=O)N1Cc2cc([101O:1][101CH2:1]C(=O)CCC(=O)c3sc([100NH:0][100C:0](=O)N4CCCC(n5nc(-c6ccc(Oc7ccc(F)cc7F)cc6)c(C(N)=O)c5N)C4)nc3N)ccc2CC1C(=O)NC1CCCc2ccccc21)C(C)(C)C

> <Shape>
0.249

> <Color>
0.124

> <Negative vol penalty>
0.000

$$$$

  -OEChem-04052304503D

 89 97  0     1  0  0  0  0  0999 V2000
  -24.4440  -17.9159   25.2271 C   0  0  0  0  0  0  0  0  0  0  0  0
  -25.0793  -19.0967   24.8594 C   0  0  0  0  0  0  0  0  0  0  0  0
  -24.8508  -14.1270   21.3399 C   0  0  0  0  0  0  0  0  0  0  0  0
  -26.3805  -13.8092   19.4971 C   0  0  0  0  0  0  0  0  0  0  0  0
  -23.0849  -17.7505   24.9688 C   0  0  0  0  0  0  0  0  0  0  0  0
  -24.3532  -20.1170   24.2441 C   0  0  0  0  0  0  0  0  0  0  0  0
  -26.6815  -24.3887   23.5124 C   0  0  0  0  0  0  0  0  0  0  0  0
  -24.1382  -12.9953   20.9436 C   0  0  0  0  0  0  0  0  0  0  0  0
  -25.6680  -12.6775   19.1008 C   0  0  0  0  0  0  0  0  0  0  0  0
  -27.6800  -24.5481   22.5525 C   0  0  0  0  0  0  0  0  0  0  0  0
  -24.4533   -9.6383   21.1967 C   0  0  0  0  0  0  0  0  0  0  0  0
  -24.0789   -8.7288   22.1857 C   0  0  0  0  0  0  0  0  0  0  0  0
  -26.1124  -25.6939   21.1210 C   0  0  0  0  0  0  0  0  0  0  0  0
  -21.7550   -9.0701   21.6198 C   0  0  0  0  0  0  0  0  0  0  0  0
  -32.1343  -21.8690   21.6541 C   0  0  0  0  0  0  0  0  0  0  0  0
  -25.9719  -14.5340   20.6166 C   0  0  0  0  0  0  0  0  0  0  0  0
  -27.7950  -15.7546   21.9184 C   0  0  0  0  0  0  0  0  0  0  0  0
  -22.3453  -18.7649   24.3387 C   0  0  0  0  0  0  0  0  0  0  0  0
  -25.3860  -24.8719   23.2789 C   0  0  0  0  0  0  0  0  0  0  0  0
  -22.9755  -19.9786   23.9965 C   0  0  0  0  0  0  0  0  0  0  0  0
  -25.1000  -25.5416   22.0806 C   0  0  0  0  0  0  0  0  0  0  0  0
  -33.5446  -23.7821   21.2855 C   0  0  0  0  0  0  0  0  0  0  0  0
  -24.5469  -12.2705   19.8241 C   0  0  0  0  0  0  0  0  0  0  0  0
  -27.3948  -25.1982   21.3554 C   0  0  0  0  0  0  0  0  0  0  0  0
  -23.4786  -10.2638   20.4193 C   0  0  0  0  0  0  0  0  0  0  0  0
  -22.7297   -8.4446   22.3972 C   0  0  0  0  0  0  0  0  0  0  0  0
  -22.1294   -9.9797   20.6308 C   0  0  0  0  0  0  0  0  0  0  0  0
  -33.2862  -22.5889   21.9511 C   0  0  0  0  0  0  0  0  0  0  0  0
  -26.7080  -15.7034   21.0252 C   0  0  0  0  0  0  0  0  0  0  0  0
  -31.2797  -22.3812   20.6912 C   0  0  0  0  0  0  0  0  0  0  0  0
  -32.6269  -24.2085   20.3390 C   0  0  0  0  0  0  0  0  0  0  0  0
  -28.1347  -17.0844   21.9699 C   0  0  0  0  0  0  0  0  0  0  0  0
  -28.4399  -14.6948   22.6371 C   0  0  0  0  0  0  0  0  0  0  0  0
  -22.5066  -23.5466   23.0412 C   0  0  0  0  0  0  0  0  0  0  0  0
  -30.8109  -26.5866   19.3778 C   0  0  0  0  0  0  0  0  0  0  0  0
  -21.5260  -26.6351   22.8925 C   0  0  0  0  0  0  0  0  0  0  0  0
  -22.2822  -29.8833   22.1685 C   0  0  0  0  0  0  0  0  0  0  0  0
  -29.1171  -21.9612   19.4691 C   0  0  0  0  0  0  0  0  0  0  0  0
  -20.8753  -18.5361   24.0901 C   0  0  0  0  0  0  0  0  0  0  0  0
  -24.3271  -24.7155   24.3356 C   0  0  0  0  0  0  0  0  0  0  0  0
  -23.7304  -26.0967   21.7898 C   0  0  0  0  0  0  0  0  0  0  0  0
  -20.2950  -19.4819   23.0436 C   0  0  0  0  0  0  0  0  0  0  0  0
  -25.7244  -21.1706   20.2050 C   0  0  0  0  0  0  0  0  0  0  0  0
  -20.6901  -20.9159   23.3630 C   0  0  0  0  0  0  0  0  0  0  0  0
  -25.7673  -19.6820   20.5575 C   0  0  0  0  0  0  0  0  0  0  0  0
  -26.7028  -21.5164   19.0839 C   0  0  0  0  0  0  0  0  0  0  0  0
  -28.1300  -19.5942   19.6648 C   0  0  0  0  0  0  0  0  0  0  0  0
  -22.2128  -21.0901   23.2985 C   0  0  1  0  0  0  0  0  0  0  0  0
  -22.9095  -24.7931   23.7771 C   0  0  1  0  0  0  0  0  0  0  0  0
  -27.2082  -19.2095   20.8335 C   0  0  2  0  0  0  0  0  0  0  0  0
  -21.2647  -32.1764   22.1084 C   0  0  0  0  0  0  0  0  0  0  0  0
  -20.0615  -25.9151   20.3144 C   0  0  0  0  0  0  0  0  0  0  0  0
  -19.8820  -28.3619   19.8151 C   0  0  0  0  0  0  0  0  0  0  0  0
  -18.7886  -27.4226   21.8510 C   0  0  0  0  0  0  0  0  0  0  0  0
  -33.9175  -26.4301   17.0547 C   0  0  0  0  0  0  0  0  0  0  0  0
  -24.2012  -30.9137   24.1722 C   0  0  0  0  0  0  0  0  0  0  0  0
  -29.4785  -26.5378   18.6402 C   0  0  0  0  0  0  0  0  0  0  0  0
  -28.2801  -26.5048   19.5763 C   0  0  0  0  0  0  0  0  0  1  0  0
  -31.9967  -25.9473   18.6643 C   0  0  1  0  0  0  0  0  0  0  0  0
  -21.3070  -27.6350   21.7829 C   0  0  1  0  0  0  0  0  0  0  0  0
  -22.0437  -31.1690   22.9396 C   0  0  2  0  0  0  0  0  0  0  0  0
  -20.0352  -27.3216   20.9452 C   0  0  0  0  0  0  0  0  0  0  0  0
  -32.7233  -26.9810   17.8104 C   0  0  0  0  0  0  0  0  0  0  0  0
  -26.3790  -16.9051   20.5441 N   0  0  0  0  0  0  0  0  0  0  0  0
  -31.4970  -23.5365   20.0236 N   0  0  0  0  0  0  0  0  0  0  0  0
  -27.2643  -17.7240   21.1372 N   0  0  0  0  0  0  0  0  0  0  0  0
  -22.7272  -25.9131   22.8516 N   0  0  0  0  0  0  0  0  0  0  0  0
  -28.0478  -21.0422   19.4170 N   0  0  0  0  0  0  0  0  0  0  0  0
  -34.7098  -24.5137   21.5828 N   0  0  0  0  0  0  0  0  0  0  0  0
  -29.0900  -17.7573   22.6460 N   0  0  0  0  0  0  0  0  0  0  0  0
  -27.9643  -13.3872   22.4688 N   0  0  0  0  0  0  0  0  0  0  0  0
  -30.1096  -21.6392   20.3943 N   0  0  0  0  0  0  0  0  0  0  0  0
  -32.8753  -25.3958   19.6720 N   0  0  0  0  0  0  0  0  0  0  0  0
  -22.5603  -22.3983   23.8080 N   0  0  0  0  0  0  0  0  0  0  0  0
  -21.2974  -28.9500   22.4146 N   0  0  0  0  0  0  0  0  0  0  0  0
  -23.3423  -31.7866   23.3311 N   0  3  0  0  0  0  0  0  0  0  0  0
  -29.3988  -14.9034   23.4185 O   0  0  0  0  0  0  0  0  0  0  0  0
  -22.1704  -23.6213   21.8651 O   0  0  0  0  0  0  0  0  0  0  0  0
  -30.9324  -27.1233   20.4793 O   0  0  0  0  0  0  0  0  0  0  0  0
  -20.6662  -26.5046   23.7674 O   0  0  0  0  0  0  0  0  0  0  0  0
  -23.2437  -29.7242   21.4197 O   0  0  0  0  0  0  0  0  0  0  0  0
  -29.1368  -22.9746   18.7658 O   0  0  0  0  0  0  0  0  0  0  0  0
  -23.8520  -11.1660   19.4372 O   0  0  0  0  0  0  0  0  0  0  0  0
  -28.3673  -25.3546   20.4164 O   0  0  0  0  0  0  0  0  0  1  0  0
  -22.3704   -7.5700   23.3460 F   0  0  0  0  0  0  0  0  0  0  0  0
  -21.1886  -10.5766   19.8863 F   0  0  0  0  0  0  0  0  0  0  0  0
  -34.1369  -22.1251   22.8774 F   0  0  0  0  0  0  0  0  0  0  0  0
  -33.1370  -28.0175   18.5849 F   0  0  0  0  0  0  0  0  0  0  0  0
  -31.8559  -27.5033   16.9021 F   0  0  0  0  0  0  0  0  0  0  0  0
  1  2  1  0  0  0  0
  1  5  2  0  0  0  0
  2  6  2  0  0  0  0
  3  8  2  0  0  0  0
  3 16  1  0  0  0  0
  4  9  1  0  0  0  0
  4 16  2  0  0  0  0
  5 18  1  0  0  0  0
  6 20  1  0  0  0  0
  7 10  2  0  0  0  0
  7 19  1  0  0  0  0
  8 23  1  0  0  0  0
  9 23  2  0  0  0  0
 10 24  1  0  0  0  0
 11 12  2  0  0  0  0
 11 25  1  0  0  0  0
 12 26  1  0  0  0  0
 13 21  1  0  0  0  0
 13 24  2  0  0  0  0
 14 26  2  0  0  0  0
 14 27  1  0  0  0  0
 15 28  2  0  0  0  0
 15 30  1  0  0  0  0
 16 29  1  0  0  0  0
 17 29  1  0  0  0  0
 17 32  2  0  0  0  0
 17 33  1  0  0  0  0
 18 20  2  0  0  0  0
 18 39  1  0  0  0  0
 19 21  2  0  0  0  0
 19 40  1  0  0  0  0
 20 48  1  0  0  0  0
 21 41  1  0  0  0  0
 22 28  1  0  0  0  0
 22 31  2  0  0  0  0
 22 69  1  0  0  0  0
 23 83  1  0  0  0  0
 24 84  1  0  0  0  0
 25 27  2  0  0  0  0
 25 83  1  0  0  0  0
 26 85  1  0  0  0  0
 27 86  1  0  0  0  0
 28 87  1  0  0  0  0
 29 64  2  0  0  0  0
 30 65  2  0  0  0  0
 30 72  1  0  0  0  0
 31 65  1  0  0  0  0
 31 73  1  0  0  0  0
 32 66  1  0  0  0  0
 32 70  1  0  0  0  0
 33 71  1  0  0  0  0
 33 77  2  0  0  0  0
 34 49  1  0  0  0  0
 34 74  1  0  0  0  0
 34 78  2  0  0  0  0
 35 57  1  0  0  0  0
 35 59  1  0  0  0  0
 35 79  2  0  0  0  0
 36 60  1  0  0  0  0
 36 67  1  0  0  0  0
 36 80  2  0  0  0  0
 37 61  1  0  0  0  0
 37 75  1  0  0  0  0
 37 81  2  0  0  0  0
 38 68  1  0  0  0  0
 38 72  1  0  0  0  0
 38 82  2  0  0  0  0
 39 42  1  0  0  0  0
 40 49  1  0  0  0  0
 41 67  1  0  0  0  0
 42 44  1  0  0  0  0
 43 45  1  0  0  0  0
 43 46  1  0  0  0  0
 44 48  1  0  0  0  0
 45 50  1  0  0  0  0
 46 68  1  0  0  0  0
 47 50  1  0  0  0  0
 47 68  1  0  0  0  0
 48 74  1  0  0  0  0
 49 67  1  0  0  0  0
 50 66  1  0  0  0  0
 51 61  1  0  0  0  0
 52 62  1  0  0  0  0
 53 62  1  0  0  0  0
 54 62  1  0  0  0  0
 55 63  1  0  0  0  0
 56 76  1  0  0  0  0
 57 58  1  0  0  0  0
 58 84  1  0  0  0  0
 59 63  1  0  0  0  0
 59 73  1  0  0  0  0
 60 62  1  0  0  0  0
 60 75  1  0  0  0  0
 61 76  1  0  0  0  0
 63 88  1  0  0  0  0
 63 89  1  0  0  0  0
 64 66  1  0  0  0  0
M  CHG  1  76   1
M  ISO  4  38 100  58 101  72 100  84 101
M  END
> <Batch ID>
0180

> <Smiles>
CNC(C)C(=O)NC(C(=O)N1Cc2cc([101O:1][101CH2:1]CC(=O)C(Nc3nc([100NH:0][100C:0](=O)N4CCCC(n5nc(-c6ccc(Oc7ccc(F)cc7F)cc6)c(C(N)=O)c5N)C4)cc(F)c3N)C(C)(F)F)ccc2CC1C(=O)NC1CCCc2ccccc21)C(C)(C)C

> <Shape>
0.215

> <Color>
0.061

> <Negative vol penalty>
0.000

$$$$

  -OEChem-04052304503D

 87 95  0     1  0  0  0  0  0999 V2000
  -16.8826  -30.8404   24.0532 C   0  0  0  0  0  0  0  0  0  0  0  0
  -18.1230  -31.1000   24.6271 C   0  0  0  0  0  0  0  0  0  0  0  0
  -27.1679  -16.7887   17.0928 C   0  0  0  0  0  0  0  0  0  0  0  0
  -26.7780  -17.2747   19.4271 C   0  0  0  0  0  0  0  0  0  0  0  0
  -16.7365  -29.7778   23.1625 C   0  0  0  0  0  0  0  0  0  0  0  0
  -19.2179  -30.2964   24.3114 C   0  0  0  0  0  0  0  0  0  0  0  0
  -25.0600  -32.0645   23.8112 C   0  0  0  0  0  0  0  0  0  0  0  0
  -27.2931  -15.4330   17.3960 C   0  0  0  0  0  0  0  0  0  0  0  0
  -26.9033  -15.9190   19.7303 C   0  0  0  0  0  0  0  0  0  0  0  0
  -26.1390  -31.9969   24.6914 C   0  0  0  0  0  0  0  0  0  0  0  0
  -24.9954  -13.1369   19.5296 C   0  0  0  0  0  0  0  0  0  0  0  0
  -24.0530  -12.5776   20.3925 C   0  0  0  0  0  0  0  0  0  0  0  0
  -26.8592  -29.9479   23.6417 C   0  0  0  0  0  0  0  0  0  0  0  0
  -25.8166  -11.9824   21.9328 C   0  0  0  0  0  0  0  0  0  0  0  0
  -26.9104  -17.7096   18.1084 C   0  0  0  0  0  0  0  0  0  0  0  0
  -25.6025  -19.8003   17.4556 C   0  0  0  0  0  0  0  0  0  0  0  0
  -17.8324  -28.9666   22.8283 C   0  0  0  0  0  0  0  0  0  0  0  0
  -24.8659  -31.0668   22.8451 C   0  0  0  0  0  0  0  0  0  0  0  0
  -19.0861  -29.2210   23.4164 C   0  0  0  0  0  0  0  0  0  0  0  0
  -25.7783  -30.0064   22.7488 C   0  0  0  0  0  0  0  0  0  0  0  0
  -27.1608  -14.9981   18.7147 C   0  0  0  0  0  0  0  0  0  0  0  0
  -27.0373  -30.9370   24.6086 C   0  0  0  0  0  0  0  0  0  0  0  0
  -26.3484  -13.1189   19.8683 C   0  0  0  0  0  0  0  0  0  0  0  0
  -24.4635  -12.0004   21.5941 C   0  0  0  0  0  0  0  0  0  0  0  0
  -26.7590  -12.5417   21.0699 C   0  0  0  0  0  0  0  0  0  0  0  0
  -26.7814  -19.1103   17.7959 C   0  0  0  0  0  0  0  0  0  0  0  0
  -29.7216  -25.5393   23.9609 C   0  0  0  0  0  0  0  0  0  0  0  0
  -30.5652  -26.3195   23.1983 C   0  0  0  0  0  0  0  0  0  0  0  0
  -26.0094  -21.0967   17.2545 C   0  0  0  0  0  0  0  0  0  0  0  0
  -30.0729  -24.8001   21.6954 C   0  0  0  0  0  0  0  0  0  0  0  0
  -24.2597  -19.3131   17.3323 C   0  0  0  0  0  0  0  0  0  0  0  0
  -29.2795  -25.6895   25.3876 C   0  0  0  0  0  0  0  0  0  0  0  0
  -27.5125  -28.2988   27.0896 C   0  0  0  0  0  0  0  0  0  0  0  0
  -28.2270  -26.9881   26.9102 C   0  0  0  0  0  0  0  0  0  0  0  0
  -22.5779  -28.9447   22.2402 C   0  0  0  0  0  0  0  0  0  0  0  0
  -24.3712  -28.3440   19.6047 C   0  0  0  0  0  0  0  0  0  0  0  0
  -27.4311  -28.4482   18.0971 C   0  0  0  0  0  0  0  0  0  0  0  0
  -30.6321  -24.2872   19.2932 C   0  0  0  0  0  0  0  0  0  0  0  0
  -17.6151  -27.8004   21.8969 C   0  0  0  0  0  0  0  0  0  0  0  0
  -23.7120  -31.1683   21.8856 C   0  0  0  0  0  0  0  0  0  0  0  0
  -25.6261  -28.9205   21.7162 C   0  0  0  0  0  0  0  0  0  0  0  0
  -18.9097  -27.2267   21.3268 C   0  0  0  0  0  0  0  0  0  0  0  0
  -29.8179  -23.6566   15.8849 C   0  0  0  0  0  0  0  0  0  0  0  0
  -19.9449  -27.0440   22.4321 C   0  0  0  0  0  0  0  0  0  0  0  0
  -28.8348  -22.4859   15.9576 C   0  0  0  0  0  0  0  0  0  0  0  0
  -30.9165  -23.5410   16.9400 C   0  0  0  0  0  0  0  0  0  0  0  0
  -29.4556  -22.1863   18.3890 C   0  0  0  0  0  0  0  0  0  0  0  0
  -20.3032  -28.3870   23.0799 C   0  0  1  0  0  0  0  0  0  0  0  0
  -23.3217  -29.8253   21.2762 C   0  0  1  0  0  0  0  0  0  0  0  0
  -28.2938  -22.2924   17.3877 C   0  0  2  0  0  0  0  0  0  0  0  0
  -31.2568  -27.5463   23.6449 C   0  0  0  0  0  0  0  0  0  0  0  0
  -28.5926  -27.8516   15.9541 C   0  0  0  0  0  0  0  0  0  0  0  0
  -28.3962  -32.0157   27.5486 C   0  0  0  0  0  0  0  0  0  0  0  0
  -24.3558  -25.4032   20.4179 C   0  0  0  0  0  0  0  0  0  0  0  0
  -26.2610  -25.0282   18.8375 C   0  0  0  0  0  0  0  0  0  0  0  0
  -24.0572  -25.8098   17.9685 C   0  0  0  0  0  0  0  0  0  0  0  0
  -28.1745  -31.2659   17.5802 C   0  0  0  0  0  0  0  0  0  0  0  0
  -28.3723  -29.5023   27.4207 C   0  0  0  0  0  0  0  0  0  0  0  0
  -25.5117  -27.4106   19.2776 C   0  0  1  0  0  0  0  0  0  0  0  0
  -27.8628  -28.9391   16.7270 C   0  0  2  0  0  0  0  0  0  0  0  0
  -27.7904  -30.8000   26.8603 C   0  0  2  0  0  0  0  0  0  1  0  0
  -25.0485  -25.9322   19.1462 C   0  0  0  0  0  0  0  0  0  0  0  0
  -27.8566  -19.9026   17.8110 N   0  0  0  0  0  0  0  0  0  0  0  0
  -30.7682  -25.8970   21.8990 N   0  0  0  0  0  0  0  0  0  0  0  0
  -28.6306  -26.8288   25.6519 N   0  5  0  0  0  0  0  0  0  0  0  0
  -27.3548  -21.1040   17.4776 N   0  0  0  0  0  0  0  0  0  0  0  0
  -24.4783  -29.0609   20.8049 N   0  0  0  0  0  0  0  0  0  0  0  0
  -30.3293  -23.3640   18.2700 N   0  0  0  0  0  0  0  0  0  0  0  0
  -25.3439  -22.2197   16.9103 N   0  0  0  0  0  0  0  0  0  0  0  0
  -24.0173  -17.9540   17.5740 N   0  0  0  0  0  0  0  0  0  0  0  0
  -29.9901  -24.0355   20.5052 N   0  0  0  0  0  0  0  0  0  0  0  0
  -21.2088  -29.1317   22.2316 N   0  0  0  0  0  0  0  0  0  0  0  0
  -26.1468  -27.9466   18.0786 N   0  0  0  0  0  0  0  0  0  0  0  0
  -28.7723  -30.1122   16.8599 N   0  3  0  0  0  0  0  0  0  0  0  0
  -23.3059  -20.0574   17.0012 O   0  0  0  0  0  0  0  0  0  0  0  0
  -29.5552  -24.7727   26.1598 O   0  0  0  0  0  0  0  0  0  0  0  0
  -26.2989  -28.2987   26.9437 O   0  0  0  0  0  0  0  0  0  0  0  0
  -28.3550  -26.3007   27.9159 O   0  0  0  0  0  0  0  0  0  0  0  0
  -23.2000  -28.1532   22.9389 O   0  0  0  0  0  0  0  0  0  0  0  0
  -23.4237  -28.4391   18.8206 O   0  0  0  0  0  0  0  0  0  0  0  0
  -28.1616  -28.5008   19.0841 O   0  0  0  0  0  0  0  0  0  0  0  0
  -31.3828  -25.2469   19.1000 O   0  0  0  0  0  0  0  0  0  0  0  0
  -27.2828  -13.6753   19.0109 O   0  0  0  0  0  0  0  0  0  0  0  0
  -28.0910  -30.8683   25.4669 O   0  0  0  0  0  0  0  0  0  1  0  0
  -23.5583  -11.4647   22.4234 F   0  0  0  0  0  0  0  0  0  0  0  0
  -28.0573  -12.5225   21.4012 F   0  0  0  0  0  0  0  0  0  0  0  0
  -29.1520  -24.2214   23.0228 S   0  0  0  0  0  0  0  0  0  0  0  0
  1  2  1  0  0  0  0
  1  5  2  0  0  0  0
  2  6  2  0  0  0  0
  3  8  2  0  0  0  0
  3 15  1  0  0  0  0
  4  9  1  0  0  0  0
  4 15  2  0  0  0  0
  5 17  1  0  0  0  0
  6 19  1  0  0  0  0
  7 10  2  0  0  0  0
  7 18  1  0  0  0  0
  8 21  1  0  0  0  0
  9 21  2  0  0  0  0
 10 22  1  0  0  0  0
 11 12  2  0  0  0  0
 11 23  1  0  0  0  0
 12 24  1  0  0  0  0
 13 20  1  0  0  0  0
 13 22  2  0  0  0  0
 14 24  2  0  0  0  0
 14 25  1  0  0  0  0
 15 26  1  0  0  0  0
 16 26  1  0  0  0  0
 16 29  2  0  0  0  0
 16 31  1  0  0  0  0
 17 19  2  0  0  0  0
 17 39  1  0  0  0  0
 18 20  2  0  0  0  0
 18 40  1  0  0  0  0
 19 48  1  0  0  0  0
 20 41  1  0  0  0  0
 21 83  1  0  0  0  0
 22 84  1  0  0  0  0
 23 25  2  0  0  0  0
 23 83  1  0  0  0  0
 24 85  1  0  0  0  0
 25 86  1  0  0  0  0
 26 63  2  0  0  0  0
 27 28  2  0  0  0  0
 27 32  1  0  0  0  0
 27 87  1  0  0  0  0
 28 51  1  0  0  0  0
 28 64  1  0  0  0  0
 29 66  1  0  0  0  0
 29 69  1  0  0  0  0
 30 64  2  0  0  0  0
 30 71  1  0  0  0  0
 30 87  1  0  0  0  0
 31 70  1  0  0  0  0
 31 75  2  0  0  0  0
 32 65  1  0  0  0  0
 32 76  2  0  0  0  0
 33 34  1  0  0  0  0
 33 58  1  0  0  0  0
 33 77  2  0  0  0  0
 34 65  1  0  0  0  0
 34 78  2  0  0  0  0
 35 49  1  0  0  0  0
 35 72  1  0  0  0  0
 35 79  2  0  0  0  0
 36 59  1  0  0  0  0
 36 67  1  0  0  0  0
 36 80  2  0  0  0  0
 37 60  1  0  0  0  0
 37 73  1  0  0  0  0
 37 81  2  0  0  0  0
 38 68  1  0  0  0  0
 38 71  1  0  0  0  0
 38 82  2  0  0  0  0
 39 42  1  0  0  0  0
 40 49  1  0  0  0  0
 41 67  1  0  0  0  0
 42 44  1  0  0  0  0
 43 45  1  0  0  0  0
 43 46  1  0  0  0  0
 44 48  1  0  0  0  0
 45 50  1  0  0  0  0
 46 68  1  0  0  0  0
 47 50  1  0  0  0  0
 47 68  1  0  0  0  0
 48 72  1  0  0  0  0
 49 67  1  0  0  0  0
 50 66  1  0  0  0  0
 52 60  1  0  0  0  0
 53 61  1  0  0  0  0
 54 62  1  0  0  0  0
 55 62  1  0  0  0  0
 56 62  1  0  0  0  0
 57 74  1  0  0  0  0
 58 61  1  0  0  0  0
 59 62  1  0  0  0  0
 59 73  1  0  0  0  0
 60 74  1  0  0  0  0
 61 84  1  0  0  0  0
 63 66  1  0  0  0  0
M  CHG  2  65  -1  74   1
M  ISO  4  38 100  61 101  71 100  84 101
M  END
> <Batch ID>
0180

> <Smiles>
CNC(C)C(=O)NC(C(=O)N1Cc2cc([101O:1][101CH:1](C)CC(=O)C(=O)NC(=O)c3sc([100NH:0][100C:0](=O)N4CCCC(n5nc(-c6ccc(Oc7ccc(F)cc7F)cc6)c(C(N)=O)c5N)C4)nc3C)ccc2CC1C(=O)NC1CCCc2ccccc21)C(C)(C)C

> <Shape>
0.263

> <Color>
0.088

> <Negative vol penalty>
0.000

$$$$

  -OEChem-04052304503D

 83 91  0     1  0  0  0  0  0999 V2000
  -18.4221  -26.9134   22.8457 C   0  0  0  0  0  0  0  0  0  0  0  0
  -19.4055  -26.1119   22.2749 C   0  0  0  0  0  0  0  0  0  0  0  0
  -22.3170  -15.8696   20.9954 C   0  0  0  0  0  0  0  0  0  0  0  0
  -23.6401  -17.7373   20.2221 C   0  0  0  0  0  0  0  0  0  0  0  0
  -18.6354  -28.2842   22.9846 C   0  0  0  0  0  0  0  0  0  0  0  0
  -20.6025  -26.6810   21.8415 C   0  0  0  0  0  0  0  0  0  0  0  0
  -26.1670  -24.1291   22.0149 C   0  0  0  0  0  0  0  0  0  0  0  0
  -21.3940  -16.7543   21.5531 C   0  0  0  0  0  0  0  0  0  0  0  0
  -22.7171  -18.6221   20.7797 C   0  0  0  0  0  0  0  0  0  0  0  0
  -26.9289  -23.4739   21.0485 C   0  0  0  0  0  0  0  0  0  0  0  0
  -18.8752  -18.5201   23.4924 C   0  0  0  0  0  0  0  0  0  0  0  0
  -18.4132  -18.2510   24.7807 C   0  0  0  0  0  0  0  0  0  0  0  0
  -28.0884  -25.5353   20.5736 C   0  0  0  0  0  0  0  0  0  0  0  0
  -20.6737  -18.3943   25.6212 C   0  0  0  0  0  0  0  0  0  0  0  0
  -28.5968  -18.3048   18.2240 C   0  0  0  0  0  0  0  0  0  0  0  0
  -23.4401  -16.3611   20.3300 C   0  0  0  0  0  0  0  0  0  0  0  0
  -24.3827  -14.9164   18.4506 C   0  0  0  0  0  0  0  0  0  0  0  0
  -19.8396  -28.8689   22.5616 C   0  0  0  0  0  0  0  0  0  0  0  0
  -26.3528  -25.4971   22.2607 C   0  0  0  0  0  0  0  0  0  0  0  0
  -20.8316  -28.0611   21.9736 C   0  0  0  0  0  0  0  0  0  0  0  0
  -27.3293  -26.2050   21.5455 C   0  0  0  0  0  0  0  0  0  0  0  0
  -21.5940  -18.1305   21.4452 C   0  0  0  0  0  0  0  0  0  0  0  0
  -27.8878  -24.1776   20.3257 C   0  0  0  0  0  0  0  0  0  0  0  0
  -20.2365  -18.7263   23.2685 C   0  0  0  0  0  0  0  0  0  0  0  0
  -19.3124  -18.1881   25.8451 C   0  0  0  0  0  0  0  0  0  0  0  0
  -21.1357  -18.6634   24.3329 C   0  0  0  0  0  0  0  0  0  0  0  0
  -24.3942  -15.4477   19.7542 C   0  0  0  0  0  0  0  0  0  0  0  0
  -29.5146  -18.7126   19.1693 C   0  0  0  0  0  0  0  0  0  0  0  0
  -25.4930  -14.1095   18.3989 C   0  0  0  0  0  0  0  0  0  0  0  0
  -29.9565  -16.5645   19.1859 C   0  0  0  0  0  0  0  0  0  0  0  0
  -23.4517  -15.1329   17.3820 C   0  0  0  0  0  0  0  0  0  0  0  0
  -24.5262  -28.0875   22.0216 C   0  0  0  0  0  0  0  0  0  0  0  0
  -27.0767  -29.5373   23.4056 C   0  0  0  0  0  0  0  0  0  0  0  0
  -30.4329  -29.5251   24.0238 C   0  0  0  0  0  0  0  0  0  0  0  0
  -28.9778  -21.1719   19.1168 C   0  0  0  0  0  0  0  0  0  0  0  0
  -30.5280  -14.3335   21.8827 C   0  0  0  0  0  0  0  0  0  0  0  0
  -20.0055  -30.3625   22.6892 C   0  0  0  0  0  0  0  0  0  0  0  0
  -25.5413  -26.1833   23.3252 C   0  0  0  0  0  0  0  0  0  0  0  0
  -27.5818  -27.6702   21.7856 C   0  0  0  0  0  0  0  0  0  0  0  0
  -21.4521  -30.8289   22.5470 C   0  0  0  0  0  0  0  0  0  0  0  0
  -28.3302  -11.4420   21.1683 C   0  0  0  0  0  0  0  0  0  0  0  0
  -22.1126  -30.1610   21.3452 C   0  0  0  0  0  0  0  0  0  0  0  0
  -27.0463  -12.1118   20.6816 C   0  0  0  0  0  0  0  0  0  0  0  0
  -29.1038  -12.3337   22.1349 C   0  0  0  0  0  0  0  0  0  0  0  0
  -28.1210  -14.3574   21.1088 C   0  0  0  0  0  0  0  0  0  0  0  0
  -22.1532  -28.6374   21.5141 C   0  0  1  0  0  0  0  0  0  0  0  0
  -25.4585  -27.6944   23.1323 C   0  0  1  0  0  0  0  0  0  0  0  0
  -27.3414  -13.5041   20.0971 C   0  0  2  0  0  0  0  0  0  0  0  0
  -32.2334  -30.8619   25.1502 C   0  0  0  0  0  0  0  0  0  0  0  0
  -30.9003  -22.7515   19.5274 C   0  0  0  0  0  0  0  0  0  0  0  0
  -27.0389  -31.5302   21.0954 C   0  0  0  0  0  0  0  0  0  0  0  0
  -29.3574  -32.2184   21.7428 C   0  0  0  0  0  0  0  0  0  0  0  0
  -27.4697  -32.5439   23.3407 C   0  0  0  0  0  0  0  0  0  0  0  0
  -32.2834  -15.9191   21.1868 C   0  0  0  0  0  0  0  0  0  0  0  0
  -31.0813  -27.3090   25.8751 C   0  0  0  0  0  0  0  0  0  0  0  0
  -30.5752  -15.2662   19.5310 C   0  0  0  0  0  0  0  0  0  0  0  0
  -28.3303  -30.2082   22.8983 C   0  0  1  0  0  0  0  0  0  0  0  0
  -31.2223  -29.7362   25.3032 C   0  0  2  0  0  0  0  0  0  0  0  0
  -29.4383  -22.4470   19.8185 C   0  0  1  0  0  0  0  0  0  1  0  0
  -28.0432  -31.5980   22.2632 C   0  0  0  0  0  0  0  0  0  0  0  0
  -25.4297  -15.0147   20.4784 N   0  0  0  0  0  0  0  0  0  0  0  0
  -30.2948  -17.7160   19.7222 N   0  0  0  0  0  0  0  0  0  0  0  0
  -26.0791  -14.2027   19.6269 N   0  0  0  0  0  0  0  0  0  0  0  0
  -26.7585  -28.2979   22.8324 N   0  0  0  0  0  0  0  0  0  0  0  0
  -29.3329  -13.6645   21.5714 N   0  0  0  0  0  0  0  0  0  0  0  0
  -26.0154  -13.3364   17.4233 N   0  0  0  0  0  0  0  0  0  0  0  0
  -22.3672  -15.9923   17.6046 N   0  0  0  0  0  0  0  0  0  0  0  0
  -29.6777  -20.0594   19.5723 N   0  0  0  0  0  0  0  0  0  0  0  0
  -23.2145  -28.2576   22.4217 N   0  0  0  0  0  0  0  0  0  0  0  0
  -29.2574  -30.2457   24.0242 N   0  0  0  0  0  0  0  0  0  0  0  0
  -31.0406  -15.2109   20.9152 N   0  0  0  0  0  0  0  0  0  0  0  0
  -31.9560  -28.4922   25.6705 N   0  3  0  0  0  0  0  0  0  0  0  0
  -23.5686  -14.5677   16.2682 O   0  0  0  0  0  0  0  0  0  0  0  0
  -24.9646  -28.2277   20.8859 O   0  0  0  0  0  0  0  0  0  0  0  0
  -26.4083  -30.0891   24.2833 O   0  0  0  0  0  0  0  0  0  0  0  0
  -30.8222  -28.7968   23.1135 O   0  0  0  0  0  0  0  0  0  0  0  0
  -28.0835  -21.1956   18.2761 O   0  0  0  0  0  0  0  0  0  0  0  0
  -31.1091  -14.1495   22.9600 O   0  0  0  0  0  0  0  0  0  0  0  0
  -20.6935  -18.9941   21.9890 O   0  0  0  0  0  0  0  0  0  0  0  0
  -28.6324  -23.5406   19.3814 O   0  0  0  0  0  0  0  0  0  1  0  0
  -18.8685  -17.9312   27.0825 F   0  0  0  0  0  0  0  0  0  0  0  0
  -22.4445  -18.8618   24.1242 F   0  0  0  0  0  0  0  0  0  0  0  0
  -28.7078  -16.6069   18.0094 S   0  0  0  0  0  0  0  0  0  0  0  0
  1  2  1  0  0  0  0
  1  5  2  0  0  0  0
  2  6  2  0  0  0  0
  3  8  2  0  0  0  0
  3 16  1  0  0  0  0
  4  9  1  0  0  0  0
  4 16  2  0  0  0  0
  5 18  1  0  0  0  0
  6 20  1  0  0  0  0
  7 10  2  0  0  0  0
  7 19  1  0  0  0  0
  8 22  1  0  0  0  0
  9 22  2  0  0  0  0
 10 23  1  0  0  0  0
 11 12  2  0  0  0  0
 11 24  1  0  0  0  0
 12 25  1  0  0  0  0
 13 21  1  0  0  0  0
 13 23  2  0  0  0  0
 14 25  2  0  0  0  0
 14 26  1  0  0  0  0
 15 28  2  0  0  0  0
 15 83  1  0  0  0  0
 16 27  1  0  0  0  0
 17 27  1  0  0  0  0
 17 29  2  0  0  0  0
 17 31  1  0  0  0  0
 18 20  2  0  0  0  0
 18 37  1  0  0  0  0
 19 21  2  0  0  0  0
 19 38  1  0  0  0  0
 20 46  1  0  0  0  0
 21 39  1  0  0  0  0
 22 79  1  0  0  0  0
 23 80  1  0  0  0  0
 24 26  2  0  0  0  0
 24 79  1  0  0  0  0
 25 81  1  0  0  0  0
 26 82  1  0  0  0  0
 27 61  2  0  0  0  0
 28 62  1  0  0  0  0
 28 68  1  0  0  0  0
 29 63  1  0  0  0  0
 29 66  1  0  0  0  0
 30 56  1  0  0  0  0
 30 62  2  0  0  0  0
 30 83  1  0  0  0  0
 31 67  1  0  0  0  0
 31 73  2  0  0  0  0
 32 47  1  0  0  0  0
 32 69  1  0  0  0  0
 32 74  2  0  0  0  0
 33 57  1  0  0  0  0
 33 64  1  0  0  0  0
 33 75  2  0  0  0  0
 34 58  1  0  0  0  0
 34 70  1  0  0  0  0
 34 76  2  0  0  0  0
 35 59  1  0  0  0  0
 35 68  1  0  0  0  0
 35 77  2  0  0  0  0
 36 65  1  0  0  0  0
 36 71  1  0  0  0  0
 36 78  2  0  0  0  0
 37 40  1  0  0  0  0
 38 47  1  0  0  0  0
 39 64  1  0  0  0  0
 40 42  1  0  0  0  0
 41 43  1  0  0  0  0
 41 44  1  0  0  0  0
 42 46  1  0  0  0  0
 43 48  1  0  0  0  0
 44 65  1  0  0  0  0
 45 48  1  0  0  0  0
 45 65  1  0  0  0  0
 46 69  1  0  0  0  0
 47 64  1  0  0  0  0
 48 63  1  0  0  0  0
 49 58  1  0  0  0  0
 50 59  1  0  0  0  0
 51 60  1  0  0  0  0
 52 60  1  0  0  0  0
 53 60  1  0  0  0  0
 54 71  1  0  0  0  0
 55 72  1  0  0  0  0
 56 71  1  0  0  0  0
 57 60  1  0  0  0  0
 57 70  1  0  0  0  0
 58 72  1  0  0  0  0
 59 80  1  0  0  0  0
 61 63  1  0  0  0  0
M  CHG  1  72   1
M  ISO  4  36 100  59 101  71 100  80 101
M  END
> <Batch ID>
0180

> <Smiles>
CNC(C)C(=O)NC(C(=O)N1Cc2cc([101O:1][101CH:1](C)C(=O)Nc3csc(C[100N:0](C)[100C:0](=O)N4CCCC(n5nc(-c6ccc(Oc7ccc(F)cc7F)cc6)c(C(N)=O)c5N)C4)n3)ccc2CC1C(=O)NC1CCCc2ccccc21)C(C)(C)C

> <Shape>
0.215

> <Color>
0.064

> <Negative vol penalty>
0.000

$$$$

  -OEChem-04052304503D

 85 93  0     1  0  0  0  0  0999 V2000
  -29.2599  -31.5805   26.4217 C   0  0  0  0  0  0  0  0  0  0  0  0
  -29.1018  -30.5262   25.5280 C   0  0  0  0  0  0  0  0  0  0  0  0
  -22.5734  -10.4553   21.5324 C   0  0  0  0  0  0  0  0  0  0  0  0
  -24.6288   -9.2449   21.1487 C   0  0  0  0  0  0  0  0  0  0  0  0
  -28.1389  -32.1954   26.9779 C   0  0  0  0  0  0  0  0  0  0  0  0
  -27.8227  -30.0853   25.1907 C   0  0  0  0  0  0  0  0  0  0  0  0
  -27.2859  -29.3027   20.2164 C   0  0  0  0  0  0  0  0  0  0  0  0
  -21.8511   -9.2687   21.4060 C   0  0  0  0  0  0  0  0  0  0  0  0
  -23.9065   -8.0583   21.0224 C   0  0  0  0  0  0  0  0  0  0  0  0
  -27.8212  -28.1254   19.6956 C   0  0  0  0  0  0  0  0  0  0  0  0
  -21.1434   -6.5681   23.3136 C   0  0  0  0  0  0  0  0  0  0  0  0
  -20.1445   -6.3141   24.2534 C   0  0  0  0  0  0  0  0  0  0  0  0
  -25.6257  -27.1260   19.7146 C   0  0  0  0  0  0  0  0  0  0  0  0
  -18.4990   -6.2451   22.4857 C   0  0  0  0  0  0  0  0  0  0  0  0
  -23.9623  -10.4434   21.4037 C   0  0  0  0  0  0  0  0  0  0  0  0
  -25.2502  -12.2136   22.7134 C   0  0  0  0  0  0  0  0  0  0  0  0
  -26.8451  -31.7681   26.6399 C   0  0  0  0  0  0  0  0  0  0  0  0
  -25.9160  -29.3970   20.5008 C   0  0  0  0  0  0  0  0  0  0  0  0
  -26.6834  -30.6941   25.7440 C   0  0  0  0  0  0  0  0  0  0  0  0
  -25.0751  -28.3065   20.2365 C   0  0  0  0  0  0  0  0  0  0  0  0
  -22.5176   -8.0703   21.1511 C   0  0  0  0  0  0  0  0  0  0  0  0
  -26.9915  -27.0358   19.4474 C   0  0  0  0  0  0  0  0  0  0  0  0
  -20.8201   -6.6607   21.9599 C   0  0  0  0  0  0  0  0  0  0  0  0
  -18.8223   -6.1526   23.8395 C   0  0  0  0  0  0  0  0  0  0  0  0
  -19.4979   -6.4992   21.5459 C   0  0  0  0  0  0  0  0  0  0  0  0
  -24.7089  -11.6688   21.5335 C   0  0  0  0  0  0  0  0  0  0  0  0
  -30.7831  -17.9378   20.8845 C   0  0  0  0  0  0  0  0  0  0  0  0
  -25.8595  -13.3755   22.3071 C   0  0  0  0  0  0  0  0  0  0  0  0
  -30.4804  -18.0210   22.2275 C   0  0  0  0  0  0  0  0  0  0  0  0
  -30.5505  -20.1133   21.0359 C   0  0  0  0  0  0  0  0  0  0  0  0
  -25.2061  -11.7139   24.0566 C   0  0  0  0  0  0  0  0  0  0  0  0
  -24.1996  -29.8804   23.1321 C   0  0  0  0  0  0  0  0  0  0  0  0
  -29.0888  -24.0813   19.2912 C   0  0  0  0  0  0  0  0  0  0  0  0
  -21.7283  -29.9776   21.0332 C   0  0  0  0  0  0  0  0  0  0  0  0
  -30.6929  -22.1264   19.5357 C   0  0  0  0  0  0  0  0  0  0  0  0
  -20.4799  -29.0871   17.9843 C   0  0  0  0  0  0  0  0  0  0  0  0
  -29.0843  -16.1830   18.7204 C   0  0  0  0  0  0  0  0  0  0  0  0
  -25.6648  -32.4326   27.3031 C   0  0  0  0  0  0  0  0  0  0  0  0
  -25.3498  -30.6831   21.0373 C   0  0  0  0  0  0  0  0  0  0  0  0
  -23.5943  -28.3636   20.5055 C   0  0  0  0  0  0  0  0  0  0  0  0
  -24.3363  -32.1512   26.6058 C   0  0  0  0  0  0  0  0  0  0  0  0
  -25.6375  -15.8412   17.8961 C   0  0  0  0  0  0  0  0  0  0  0  0
  -24.2039  -30.6649   26.2891 C   0  0  0  0  0  0  0  0  0  0  0  0
  -25.1353  -14.7663   18.8616 C   0  0  0  0  0  0  0  0  0  0  0  0
  -27.0640  -15.5591   17.4298 C   0  0  0  0  0  0  0  0  0  0  0  0
  -27.5388  -14.2778   19.4808 C   0  0  0  0  0  0  0  0  0  0  0  0
  -25.3116  -30.2035   25.3344 C   0  0  1  0  0  0  0  0  0  0  0  0
  -24.0259  -30.4930   21.7712 C   0  0  1  0  0  0  0  0  0  0  0  0
  -26.1247  -14.5486   20.0222 C   0  0  2  0  0  0  0  0  0  0  0  0
  -18.4176  -29.2796   16.5675 C   0  0  0  0  0  0  0  0  0  0  0  0
  -20.3639  -27.8427   22.7334 C   0  0  0  0  0  0  0  0  0  0  0  0
  -18.8172  -27.4022   20.8146 C   0  0  0  0  0  0  0  0  0  0  0  0
  -18.8422  -29.6459   21.9044 C   0  0  0  0  0  0  0  0  0  0  0  0
  -21.9332  -30.5527   15.8633 C   0  0  0  0  0  0  0  0  0  0  0  0
  -31.0627  -16.6996   20.1269 C   0  0  0  0  0  0  0  0  0  0  0  0
  -30.4951  -23.6274   19.6233 C   0  0  0  0  0  0  0  0  0  0  0  0
  -28.8642  -25.5799   19.2762 C   0  0  0  0  0  0  0  0  0  1  0  0
  -20.7864  -28.9562   20.4427 C   0  0  1  0  0  0  0  0  0  0  0  0
  -19.7656  -29.8926   16.9141 C   0  0  2  0  0  0  0  0  0  0  0  0
  -19.7306  -28.4597   21.4704 C   0  0  0  0  0  0  0  0  0  0  0  0
  -24.9528  -12.4228   20.4583 N   0  0  0  0  0  0  0  0  0  0  0  0
  -30.8234  -19.1365   20.1995 N   0  0  0  0  0  0  0  0  0  0  0  0
  -25.6540  -13.4532   20.9611 N   0  0  0  0  0  0  0  0  0  0  0  0
  -23.0893  -29.6408   21.0357 N   0  0  0  0  0  0  0  0  0  0  0  0
  -27.9520  -15.3640   18.5784 N   0  0  0  0  0  0  0  0  0  0  0  0
  -26.5457  -14.3281   22.9735 N   0  0  0  0  0  0  0  0  0  0  0  0
  -30.3751  -17.0110   23.1249 N   0  0  0  0  0  0  0  0  0  0  0  0
  -24.5387  -10.5054   24.2983 N   0  0  0  0  0  0  0  0  0  0  0  0
  -30.4837  -21.4995   20.7570 N   0  0  0  0  0  0  0  0  0  0  0  0
  -25.0121  -30.6107   23.9783 N   0  0  0  0  0  0  0  0  0  0  0  0
  -20.2154  -29.5699   19.2486 N   0  0  0  0  0  0  0  0  0  0  0  0
  -29.8689  -15.9357   19.8402 N   0  0  0  0  0  0  0  0  0  0  0  0
  -20.5888  -29.9500   15.6731 N   0  3  0  0  0  0  0  0  0  0  0  0
  -25.7285  -12.3294   25.0167 O   0  0  0  0  0  0  0  0  0  0  0  0
  -23.6368  -28.8242   23.3956 O   0  0  0  0  0  0  0  0  0  0  0  0
  -28.1813  -23.2849   19.0554 O   0  0  0  0  0  0  0  0  0  0  0  0
  -21.2739  -31.0382   21.4694 O   0  0  0  0  0  0  0  0  0  0  0  0
  -30.9760  -21.6016   18.4619 O   0  0  0  0  0  0  0  0  0  0  0  0
  -21.1975  -28.1237   17.7251 O   0  0  0  0  0  0  0  0  0  0  0  0
  -29.3716  -17.0724   17.9121 O   0  0  0  0  0  0  0  0  0  0  0  0
  -21.8131   -6.9122   21.0280 O   0  0  0  0  0  0  0  0  0  0  0  0
  -27.5115  -25.8853   18.9397 O   0  0  0  0  0  0  0  0  0  1  0  0
  -17.8634   -5.9071   24.7419 F   0  0  0  0  0  0  0  0  0  0  0  0
  -19.1814   -6.5859   20.2467 F   0  0  0  0  0  0  0  0  0  0  0  0
  -30.2361  -19.6621   22.6615 S   0  0  0  0  0  0  0  0  0  0  0  0
  1  2  1  0  0  0  0
  1  5  2  0  0  0  0
  2  6  2  0  0  0  0
  3  8  2  0  0  0  0
  3 15  1  0  0  0  0
  4  9  1  0  0  0  0
  4 15  2  0  0  0  0
  5 17  1  0  0  0  0
  6 19  1  0  0  0  0
  7 10  2  0  0  0  0
  7 18  1  0  0  0  0
  8 21  1  0  0  0  0
  9 21  2  0  0  0  0
 10 22  1  0  0  0  0
 11 12  2  0  0  0  0
 11 23  1  0  0  0  0
 12 24  1  0  0  0  0
 13 20  1  0  0  0  0
 13 22  2  0  0  0  0
 14 24  2  0  0  0  0
 14 25  1  0  0  0  0
 15 26  1  0  0  0  0
 16 26  1  0  0  0  0
 16 28  2  0  0  0  0
 16 31  1  0  0  0  0
 17 19  2  0  0  0  0
 17 38  1  0  0  0  0
 18 20  2  0  0  0  0
 18 39  1  0  0  0  0
 19 47  1  0  0  0  0
 20 40  1  0  0  0  0
 21 81  1  0  0  0  0
 22 82  1  0  0  0  0
 23 25  2  0  0  0  0
 23 81  1  0  0  0  0
 24 83  1  0  0  0  0
 25 84  1  0  0  0  0
 26 61  2  0  0  0  0
 27 29  2  0  0  0  0
 27 55  1  0  0  0  0
 27 62  1  0  0  0  0
 28 63  1  0  0  0  0
 28 66  1  0  0  0  0
 29 67  1  0  0  0  0
 29 85  1  0  0  0  0
 30 62  2  0  0  0  0
 30 69  1  0  0  0  0
 30 85  1  0  0  0  0
 31 68  1  0  0  0  0
 31 74  2  0  0  0  0
 32 48  1  0  0  0  0
 32 70  1  0  0  0  0
 32 75  2  0  0  0  0
 33 56  1  0  0  0  0
 33 57  1  0  0  0  0
 33 76  2  0  0  0  0
 34 58  1  0  0  0  0
 34 64  1  0  0  0  0
 34 77  2  0  0  0  0
 35 56  1  0  0  0  0
 35 69  1  0  0  0  0
 35 78  2  0  0  0  0
 36 59  1  0  0  0  0
 36 71  1  0  0  0  0
 36 79  2  0  0  0  0
 37 65  1  0  0  0  0
 37 72  1  0  0  0  0
 37 80  2  0  0  0  0
 38 41  1  0  0  0  0
 39 48  1  0  0  0  0
 40 64  1  0  0  0  0
 41 43  1  0  0  0  0
 42 44  1  0  0  0  0
 42 45  1  0  0  0  0
 43 47  1  0  0  0  0
 44 49  1  0  0  0  0
 45 65  1  0  0  0  0
 46 49  1  0  0  0  0
 46 65  1  0  0  0  0
 47 70  1  0  0  0  0
 48 64  1  0  0  0  0
 49 63  1  0  0  0  0
 50 59  1  0  0  0  0
 51 60  1  0  0  0  0
 52 60  1  0  0  0  0
 53 60  1  0  0  0  0
 54 73  1  0  0  0  0
 55 72  1  0  0  0  0
 57 82  1  0  0  0  0
 58 60  1  0  0  0  0
 58 71  1  0  0  0  0
 59 73  1  0  0  0  0
 61 63  1  0  0  0  0
M  CHG  1  73   1
M  ISO  4  37 100  57 101  72 100  82 101
M  END
> <Batch ID>
0180

> <Smiles>
CNC(C)C(=O)NC(C(=O)N1Cc2cc([101O:1][101CH2:1]C(=O)CC(=O)Nc3nc(C[100NH:0][100C:0](=O)N4CCCC(n5nc(-c6ccc(Oc7ccc(F)cc7F)cc6)c(C(N)=O)c5N)C4)c(N)s3)ccc2CC1C(=O)NC1CCCc2ccccc21)C(C)(C)C

> <Shape>
0.292

> <Color>
0.099

> <Negative vol penalty>
0.000

$$$$

  -OEChem-04052304503D

 84 92  0     1  0  0  0  0  0999 V2000
  -21.4398  -24.7901   15.3412 C   0  0  0  0  0  0  0  0  0  0  0  0
  -21.5335  -25.2036   16.6662 C   0  0  0  0  0  0  0  0  0  0  0  0
  -24.3268  -13.6791   20.4837 C   0  0  0  0  0  0  0  0  0  0  0  0
  -26.6081  -13.1966   19.8513 C   0  0  0  0  0  0  0  0  0  0  0  0
  -22.5703  -24.3123   14.6798 C   0  0  0  0  0  0  0  0  0  0  0  0
  -22.7576  -25.1386   17.3309 C   0  0  0  0  0  0  0  0  0  0  0  0
  -23.7469  -29.3304   19.9945 C   0  0  0  0  0  0  0  0  0  0  0  0
  -24.2432  -12.4432   21.1250 C   0  0  0  0  0  0  0  0  0  0  0  0
  -26.5245  -11.9607   20.4926 C   0  0  0  0  0  0  0  0  0  0  0  0
  -23.0974  -29.4743   21.2198 C   0  0  0  0  0  0  0  0  0  0  0  0
  -23.7901   -9.2097   20.2510 C   0  0  0  0  0  0  0  0  0  0  0  0
  -22.6439   -8.4447   20.0351 C   0  0  0  0  0  0  0  0  0  0  0  0
  -25.0895  -28.7269   22.3566 C   0  0  0  0  0  0  0  0  0  0  0  0
  -22.1637   -8.4960   22.4023 C   0  0  0  0  0  0  0  0  0  0  0  0
  -25.1609  -21.9829   23.3954 C   0  0  0  0  0  0  0  0  0  0  0  0
  -26.1393  -23.9299   23.7250 C   0  0  0  0  0  0  0  0  0  0  0  0
  -25.5093  -14.0558   19.8468 C   0  0  0  0  0  0  0  0  0  0  0  0
  -24.8030  -15.7904   18.1147 C   0  0  0  0  0  0  0  0  0  0  0  0
  -23.8110  -24.2504   15.3337 C   0  0  0  0  0  0  0  0  0  0  0  0
  -25.0712  -28.8725   19.9404 C   0  0  0  0  0  0  0  0  0  0  0  0
  -23.9055  -24.6583   16.6779 C   0  0  0  0  0  0  0  0  0  0  0  0
  -25.7543  -28.5805   21.1296 C   0  0  0  0  0  0  0  0  0  0  0  0
  -25.3420  -11.5840   21.1294 C   0  0  0  0  0  0  0  0  0  0  0  0
  -23.7678  -29.1698   22.4009 C   0  0  0  0  0  0  0  0  0  0  0  0
  -24.1231   -9.6179   21.5426 C   0  0  0  0  0  0  0  0  0  0  0  0
  -21.8308   -8.0878   21.1107 C   0  0  0  0  0  0  0  0  0  0  0  0
  -23.3099   -9.2610   22.6183 C   0  0  0  0  0  0  0  0  0  0  0  0
  -25.5961  -15.3321   19.1838 C   0  0  0  0  0  0  0  0  0  0  0  0
  -26.3500  -22.0706   22.7106 C   0  0  0  0  0  0  0  0  0  0  0  0
  -25.2776  -17.0521   17.8514 C   0  0  0  0  0  0  0  0  0  0  0  0
  -22.6240  -25.7393   24.6788 C   0  0  0  0  0  0  0  0  0  0  0  0
  -22.9318  -24.5141   24.2332 C   0  0  0  0  0  0  0  0  0  0  0  0
  -23.7330  -15.1342   17.4217 C   0  0  0  0  0  0  0  0  0  0  0  0
  -21.6507  -26.5991   23.9454 C   0  0  0  0  0  0  0  0  0  0  0  0
  -26.5199  -26.3431   18.6727 C   0  0  0  0  0  0  0  0  0  0  0  0
  -29.2056  -27.8874   19.6341 C   0  0  0  0  0  0  0  0  0  0  0  0
  -30.6484  -30.1537   21.7387 C   0  0  0  0  0  0  0  0  0  0  0  0
  -28.1133  -21.1241   21.1804 C   0  0  0  0  0  0  0  0  0  0  0  0
  -24.9950  -23.6823   14.5920 C   0  0  0  0  0  0  0  0  0  0  0  0
  -25.7664  -28.7482   18.6123 C   0  0  0  0  0  0  0  0  0  0  0  0
  -27.1833  -28.1047   21.1269 C   0  0  0  0  0  0  0  0  0  0  0  0
  -26.3351  -23.9969   15.2518 C   0  0  0  0  0  0  0  0  0  0  0  0
  -29.2665  -19.6871   18.1337 C   0  0  0  0  0  0  0  0  0  0  0  0
  -26.2673  -23.7298   16.7521 C   0  0  0  0  0  0  0  0  0  0  0  0
  -28.3798  -18.4523   17.9568 C   0  0  0  0  0  0  0  0  0  0  0  0
  -29.6148  -19.9297   19.6012 C   0  0  0  0  0  0  0  0  0  0  0  0
  -27.5769  -18.7553   20.3339 C   0  0  0  0  0  0  0  0  0  0  0  0
  -25.2210  -24.6263   17.4252 C   0  0  1  0  0  0  0  0  0  0  0  0
  -26.9476  -27.7832   18.6443 C   0  0  1  0  0  0  0  0  0  0  0  0
  -27.1461  -18.5077   18.8790 C   0  0  2  0  0  0  0  0  0  0  0  0
  -32.8677  -31.1754   22.3114 C   0  0  0  0  0  0  0  0  0  0  0  0
  -21.0622  -30.4122   24.0703 C   0  0  0  0  0  0  0  0  0  0  0  0
  -30.0050  -25.3285   21.0911 C   0  0  0  0  0  0  0  0  0  0  0  0
  -31.6780  -26.6698   22.3835 C   0  0  0  0  0  0  0  0  0  0  0  0
  -31.8797  -26.4823   19.9042 C   0  0  0  0  0  0  0  0  0  0  0  0
  -29.7056  -32.8727   21.0478 C   0  0  0  0  0  0  0  0  0  0  0  0
  -23.8998  -23.6035   24.9334 C   0  0  0  0  0  0  0  0  0  0  0  0
  -21.3948  -27.9660   24.5634 C   0  0  0  0  0  0  0  0  0  0  0  0
  -30.0372  -27.9026   20.8940 C   0  0  1  0  0  0  0  0  0  0  0  0
  -31.6023  -31.3054   21.4779 C   0  0  2  0  0  0  0  0  0  0  0  0
  -21.7219  -29.1181   23.6123 C   0  0  2  0  0  0  0  0  0  1  0  0
  -30.8724  -26.6029   21.0685 C   0  0  0  0  0  0  0  0  0  0  0  0
  -26.9543  -23.2849   22.9202 N   0  0  0  0  0  0  0  0  0  0  0  0
  -26.5055  -16.2296   19.5729 N   0  0  0  0  0  0  0  0  0  0  0  0
  -25.0397  -23.1812   24.0408 N   0  0  0  0  0  0  0  0  0  0  0  0
  -26.2869  -17.2644   18.7438 N   0  0  0  0  0  0  0  0  0  0  0  0
  -27.8178  -27.9932   19.8031 N   0  0  0  0  0  0  0  0  0  0  0  0
  -28.3970  -19.9743   20.4135 N   0  0  0  0  0  0  0  0  0  0  0  0
  -24.9258  -17.9895   16.9459 N   0  0  0  0  0  0  0  0  0  0  0  0
  -22.4262  -15.2998   17.9004 N   0  0  0  0  0  0  0  0  0  0  0  0
  -26.9120  -21.0645   21.8861 N   0  0  0  0  0  0  0  0  0  0  0  0
  -25.7390  -25.9667   17.5966 N   0  0  0  0  0  0  0  0  0  0  0  0
  -30.8348  -29.1230   20.8419 N   0  0  0  0  0  0  0  0  0  0  0  0
  -30.9508  -32.6034   21.8120 N   0  3  0  0  0  0  0  0  0  0  0  0
  -23.9318  -14.4089   16.4178 O   0  0  0  0  0  0  0  0  0  0  0  0
  -21.0998  -26.2160   22.9170 O   0  0  0  0  0  0  0  0  0  0  0  0
  -26.8735  -25.6261   19.6015 O   0  0  0  0  0  0  0  0  0  0  0  0
  -29.7673  -27.7926   18.5399 O   0  0  0  0  0  0  0  0  0  0  0  0
  -29.8231  -30.1655   22.6493 O   0  0  0  0  0  0  0  0  0  0  0  0
  -28.8662  -22.1014   21.1876 O   0  0  0  0  0  0  0  0  0  0  0  0
  -25.2609  -10.3781   21.7552 O   0  0  0  0  0  0  0  0  0  0  0  0
  -23.1360  -29.3088   23.5982 O   0  0  0  0  0  0  0  0  0  1  0  0
  -20.7293   -7.3544   20.9030 F   0  0  0  0  0  0  0  0  0  0  0  0
  -23.6241   -9.6512   23.8612 F   0  0  0  0  0  0  0  0  0  0  0  0
  1  2  1  0  0  0  0
  1  5  2  0  0  0  0
  2  6  2  0  0  0  0
  3  8  2  0  0  0  0
  3 17  1  0  0  0  0
  4  9  1  0  0  0  0
  4 17  2  0  0  0  0
  5 19  1  0  0  0  0
  6 21  1  0  0  0  0
  7 10  2  0  0  0  0
  7 20  1  0  0  0  0
  8 23  1  0  0  0  0
  9 23  2  0  0  0  0
 10 24  1  0  0  0  0
 11 12  2  0  0  0  0
 11 25  1  0  0  0  0
 12 26  1  0  0  0  0
 13 22  1  0  0  0  0
 13 24  2  0  0  0  0
 14 26  2  0  0  0  0
 14 27  1  0  0  0  0
 15 29  2  0  0  0  0
 15 65  1  0  0  0  0
 16 63  2  0  0  0  0
 16 65  1  0  0  0  0
 17 28  1  0  0  0  0
 18 28  1  0  0  0  0
 18 30  2  0  0  0  0
 18 33  1  0  0  0  0
 19 21  2  0  0  0  0
 19 39  1  0  0  0  0
 20 22  2  0  0  0  0
 20 40  1  0  0  0  0
 21 48  1  0  0  0  0
 22 41  1  0  0  0  0
 23 81  1  0  0  0  0
 24 82  1  0  0  0  0
 25 27  2  0  0  0  0
 25 81  1  0  0  0  0
 26 83  1  0  0  0  0
 27 84  1  0  0  0  0
 28 64  2  0  0  0  0
 29 63  1  0  0  0  0
 29 71  1  0  0  0  0
 30 66  1  0  0  0  0
 30 69  1  0  0  0  0
 31 32  2  0  0  0  0
 31 34  1  0  0  0  0
 32 57  1  0  0  0  0
 33 70  1  0  0  0  0
 33 75  2  0  0  0  0
 34 58  1  0  0  0  0
 34 76  2  0  0  0  0
 35 49  1  0  0  0  0
 35 72  1  0  0  0  0
 35 77  2  0  0  0  0
 36 59  1  0  0  0  0
 36 67  1  0  0  0  0
 36 78  2  0  0  0  0
 37 60  1  0  0  0  0
 37 73  1  0  0  0  0
 37 79  2  0  0  0  0
 38 68  1  0  0  0  0
 38 71  1  0  0  0  0
 38 80  2  0  0  0  0
 39 42  1  0  0  0  0
 40 49  1  0  0  0  0
 41 67  1  0  0  0  0
 42 44  1  0  0  0  0
 43 45  1  0  0  0  0
 43 46  1  0  0  0  0
 44 48  1  0  0  0  0
 45 50  1  0  0  0  0
 46 68  1  0  0  0  0
 47 50  1  0  0  0  0
 47 68  1  0  0  0  0
 48 72  1  0  0  0  0
 49 67  1  0  0  0  0
 50 66  1  0  0  0  0
 51 60  1  0  0  0  0
 52 61  1  0  0  0  0
 53 62  1  0  0  0  0
 54 62  1  0  0  0  0
 55 62  1  0  0  0  0
 56 74  1  0  0  0  0
 57 65  1  0  0  0  0
 58 61  1  0  0  0  0
 59 62  1  0  0  0  0
 59 73  1  0  0  0  0
 60 74  1  0  0  0  0
 61 82  1  0  0  0  0
 64 66  1  0  0  0  0
M  CHG  1  74   1
M  ISO  4  38 100  61 101  71 100  82 101
M  END
> <Batch ID>
0180

> <Smiles>
CNC(C)C(=O)NC(C(=O)N1Cc2cc([101O:1][101CH:1](C)CC(=O)C=CCn3cnc([100NH:0][100C:0](=O)N4CCCC(n5nc(-c6ccc(Oc7ccc(F)cc7F)cc6)c(C(N)=O)c5N)C4)c3)ccc2CC1C(=O)NC1CCCc2ccccc21)C(C)(C)C

> <Shape>
0.212

> <Color>
0.068

> <Negative vol penalty>
0.000

$$$$

  -OEChem-04052304503D

 88 96  0     1  0  0  0  0  0999 V2000
  -26.2174  -34.3188   31.4764 C   0  0  0  0  0  0  0  0  0  0  0  0
  -26.4147  -32.9549   31.2859 C   0  0  0  0  0  0  0  0  0  0  0  0
  -23.0737   -9.8638   19.9479 C   0  0  0  0  0  0  0  0  0  0  0  0
  -23.8275   -9.8824   22.2432 C   0  0  0  0  0  0  0  0  0  0  0  0
  -25.5425  -35.0658   30.5117 C   0  0  0  0  0  0  0  0  0  0  0  0
  -25.9364  -32.3370   30.1310 C   0  0  0  0  0  0  0  0  0  0  0  0
  -28.5346  -27.6982   27.0917 C   0  0  0  0  0  0  0  0  0  0  0  0
  -22.3267   -8.7137   20.2025 C   0  0  0  0  0  0  0  0  0  0  0  0
  -23.0805   -8.7323   22.4979 C   0  0  0  0  0  0  0  0  0  0  0  0
  -28.2973  -26.3244   27.0956 C   0  0  0  0  0  0  0  0  0  0  0  0
  -21.0861   -6.0072   23.8450 C   0  0  0  0  0  0  0  0  0  0  0  0
  -20.3266   -5.9720   25.0144 C   0  0  0  0  0  0  0  0  0  0  0  0
  -26.8878  -26.5685   25.1532 C   0  0  0  0  0  0  0  0  0  0  0  0
  -19.0882   -7.9077   24.2683 C   0  0  0  0  0  0  0  0  0  0  0  0
  -23.8242  -10.4481   20.9683 C   0  0  0  0  0  0  0  0  0  0  0  0
  -24.1718  -12.9718   20.8346 C   0  0  0  0  0  0  0  0  0  0  0  0
  -25.0641  -34.4585   29.3400 C   0  0  0  0  0  0  0  0  0  0  0  0
  -27.9406  -28.5204   26.1234 C   0  0  0  0  0  0  0  0  0  0  0  0
  -25.2533  -33.0763   29.1504 C   0  0  0  0  0  0  0  0  0  0  0  0
  -27.1213  -27.9521   25.1376 C   0  0  0  0  0  0  0  0  0  0  0  0
  -31.8957  -18.8028   22.3477 C   0  0  0  0  0  0  0  0  0  0  0  0
  -22.3300   -8.1479   21.4775 C   0  0  0  0  0  0  0  0  0  0  0  0
  -27.4715  -25.7597   26.1280 C   0  0  0  0  0  0  0  0  0  0  0  0
  -20.8467   -6.9927   22.8872 C   0  0  0  0  0  0  0  0  0  0  0  0
  -19.3276   -6.9222   25.2261 C   0  0  0  0  0  0  0  0  0  0  0  0
  -19.8477   -7.9429   23.0989 C   0  0  0  0  0  0  0  0  0  0  0  0
  -31.8065  -17.5401   21.6936 C   0  0  0  0  0  0  0  0  0  0  0  0
  -24.5965  -11.6358   20.7057 C   0  0  0  0  0  0  0  0  0  0  0  0
  -25.2665  -13.7168   20.4699 C   0  0  0  0  0  0  0  0  0  0  0  0
  -30.7471  -19.1066   23.0449 C   0  0  0  0  0  0  0  0  0  0  0  0
  -30.5931  -16.9268   21.9160 C   0  0  0  0  0  0  0  0  0  0  0  0
  -29.2382  -21.7794   25.2124 C   0  0  0  0  0  0  0  0  0  0  0  0
  -22.9013  -13.4927   21.2471 C   0  0  0  0  0  0  0  0  0  0  0  0
  -28.2154  -22.2510   25.9438 C   0  0  0  0  0  0  0  0  0  0  0  0
  -29.2079  -20.4624   24.5013 C   0  0  0  0  0  0  0  0  0  0  0  0
  -25.8970  -30.9540   26.1950 C   0  0  0  0  0  0  0  0  0  0  0  0
  -26.5441  -31.0836   23.0190 C   0  0  0  0  0  0  0  0  0  0  0  0
  -27.6009  -29.4608   20.2090 C   0  0  0  0  0  0  0  0  0  0  0  0
  -30.7345  -14.7516   20.6532 C   0  0  0  0  0  0  0  0  0  0  0  0
  -24.2991  -35.2980   28.3476 C   0  0  0  0  0  0  0  0  0  0  0  0
  -28.2280  -29.9968   26.1168 C   0  0  0  0  0  0  0  0  0  0  0  0
  -26.4759  -28.7883   24.0640 C   0  0  0  0  0  0  0  0  0  0  0  0
  -24.1522  -34.6396   26.9782 C   0  0  0  0  0  0  0  0  0  0  0  0
  -29.6211  -12.3266   18.2958 C   0  0  0  0  0  0  0  0  0  0  0  0
  -23.7209  -33.1843   27.1290 C   0  0  0  0  0  0  0  0  0  0  0  0
  -28.1797  -12.0406   18.7232 C   0  0  0  0  0  0  0  0  0  0  0  0
  -30.5335  -12.5603   19.4986 C   0  0  0  0  0  0  0  0  0  0  0  0
  -28.6245  -13.2968   20.8706 C   0  0  0  0  0  0  0  0  0  0  0  0
  -24.7710  -32.3747   27.8993 C   0  0  1  0  0  0  0  0  0  0  0  0
  -27.1595  -30.8103   25.3930 C   0  0  1  0  0  0  0  0  0  0  0  0
  -27.6544  -13.1189   19.6912 C   0  0  2  0  0  0  0  0  0  0  0  0
  -27.9875  -29.8184   17.7554 C   0  0  0  0  0  0  0  0  0  0  0  0
  -23.5357  -30.9484   22.5278 C   0  0  0  0  0  0  0  0  0  0  0  0
  -24.0219  -30.3554   20.1445 C   0  0  0  0  0  0  0  0  0  0  0  0
  -24.7618  -32.5563   21.0561 C   0  0  0  0  0  0  0  0  0  0  0  0
  -30.4859  -28.8488   20.4561 C   0  0  0  0  0  0  0  0  0  0  0  0
  -28.2740  -23.5798   26.6377 C   0  0  0  0  0  0  0  0  0  1  0  0
  -25.9565  -30.4495   21.7814 C   0  0  1  0  0  0  0  0  0  0  0  0
  -28.6102  -29.8463   19.1425 C   0  0  2  0  0  0  0  0  0  0  0  0
  -33.0901  -19.6788   22.2790 C   0  0  0  0  0  0  0  0  0  0  0  0
  -24.5794  -31.0616   21.3987 C   0  0  0  0  0  0  0  0  0  0  0  0
  -25.8623  -11.5349   20.2914 N   0  0  0  0  0  0  0  0  0  0  0  0
  -26.2423  -12.8169   20.1566 N   0  0  0  0  0  0  0  0  0  0  0  0
  -26.7824  -30.2277   24.1036 N   0  0  0  0  0  0  0  0  0  0  0  0
  -29.9745  -13.5974   20.3686 N   0  0  0  0  0  0  0  0  0  0  0  0
  -25.4800  -15.0474   20.3897 N   0  0  0  0  0  0  0  0  0  0  0  0
  -21.8865  -12.5877   21.5869 N   0  0  0  0  0  0  0  0  0  0  0  0
  -30.4017  -20.2368   23.8264 N   0  0  0  0  0  0  0  0  0  0  0  0
  -30.0870  -15.6827   21.4646 N   0  0  0  0  0  0  0  0  0  0  0  0
  -25.8881  -32.0480   27.0391 N   0  0  0  0  0  0  0  0  0  0  0  0
  -26.9724  -30.5667   20.7410 N   0  0  0  0  0  0  0  0  0  0  0  0
  -29.7653  -28.9048   19.1581 N   0  3  0  0  0  0  0  0  0  0  0  0
  -22.6676  -14.7242   21.2967 O   0  0  0  0  0  0  0  0  0  0  0  0
  -28.2288  -19.7281   24.5490 O   0  0  0  0  0  0  0  0  0  0  0  0
  -24.9969  -30.1339   26.0569 O   0  0  0  0  0  0  0  0  0  0  0  0
  -26.7896  -32.2925   23.0207 O   0  0  0  0  0  0  0  0  0  0  0  0
  -27.3884  -28.2948   20.5346 O   0  0  0  0  0  0  0  0  0  0  0  0
  -31.8652  -14.9152   20.1876 O   0  0  0  0  0  0  0  0  0  0  0  0
  -27.0320  -21.5553   26.0924 O   0  0  0  0  0  0  0  0  0  0  0  0
  -21.6010   -7.0258   21.7264 O   0  0  0  0  0  0  0  0  0  0  0  0
  -27.2377  -24.4191   26.1299 O   0  0  0  0  0  0  0  0  0  1  0  0
  -18.5973   -6.8874   26.3484 F   0  0  0  0  0  0  0  0  0  0  0  0
  -19.6123   -8.8913   22.1819 F   0  0  0  0  0  0  0  0  0  0  0  0
  -32.7837  -17.0127   20.9524 F   0  0  0  0  0  0  0  0  0  0  0  0
  -34.1126  -19.1669   21.5254 F   0  0  0  0  0  0  0  0  0  0  0  0
  -32.8435  -20.9127   21.7388 F   0  0  0  0  0  0  0  0  0  0  0  0
  -33.6401  -19.9285   23.5067 F   0  0  0  0  0  0  0  0  0  0  0  0
  -29.5678  -17.8724   22.9094 S   0  0  0  0  0  0  0  0  0  0  0  0
  1  2  1  0  0  0  0
  1  5  2  0  0  0  0
  2  6  2  0  0  0  0
  3  8  2  0  0  0  0
  3 15  1  0  0  0  0
  4  9  1  0  0  0  0
  4 15  2  0  0  0  0
  5 17  1  0  0  0  0
  6 19  1  0  0  0  0
  7 10  2  0  0  0  0
  7 18  1  0  0  0  0
  8 22  1  0  0  0  0
  9 22  2  0  0  0  0
 10 23  1  0  0  0  0
 11 12  2  0  0  0  0
 11 24  1  0  0  0  0
 12 25  1  0  0  0  0
 13 20  1  0  0  0  0
 13 23  2  0  0  0  0
 14 25  2  0  0  0  0
 14 26  1  0  0  0  0
 15 28  1  0  0  0  0
 16 28  1  0  0  0  0
 16 29  2  0  0  0  0
 16 33  1  0  0  0  0
 17 19  2  0  0  0  0
 17 40  1  0  0  0  0
 18 20  2  0  0  0  0
 18 41  1  0  0  0  0
 19 49  1  0  0  0  0
 20 42  1  0  0  0  0
 21 27  1  0  0  0  0
 21 30  2  0  0  0  0
 21 60  1  0  0  0  0
 22 80  1  0  0  0  0
 23 81  1  0  0  0  0
 24 26  2  0  0  0  0
 24 80  1  0  0  0  0
 25 82  1  0  0  0  0
 26 83  1  0  0  0  0
 27 31  2  0  0  0  0
 27 84  1  0  0  0  0
 28 62  2  0  0  0  0
 29 63  1  0  0  0  0
 29 66  1  0  0  0  0
 30 68  1  0  0  0  0
 30 88  1  0  0  0  0
 31 69  1  0  0  0  0
 31 88  1  0  0  0  0
 32 34  2  0  0  0  0
 32 35  1  0  0  0  0
 33 67  1  0  0  0  0
 33 73  2  0  0  0  0
 34 57  1  0  0  0  0
 34 79  1  0  0  0  0
 35 68  1  0  0  0  0
 35 74  2  0  0  0  0
 36 50  1  0  0  0  0
 36 70  1  0  0  0  0
 36 75  2  0  0  0  0
 37 58  1  0  0  0  0
 37 64  1  0  0  0  0
 37 76  2  0  0  0  0
 38 59  1  0  0  0  0
 38 71  1  0  0  0  0
 38 77  2  0  0  0  0
 39 65  1  0  0  0  0
 39 69  1  0  0  0  0
 39 78  2  0  0  0  0
 40 43  1  0  0  0  0
 41 50  1  0  0  0  0
 42 64  1  0  0  0  0
 43 45  1  0  0  0  0
 44 46  1  0  0  0  0
 44 47  1  0  0  0  0
 45 49  1  0  0  0  0
 46 51  1  0  0  0  0
 47 65  1  0  0  0  0
 48 51  1  0  0  0  0
 48 65  1  0  0  0  0
 49 70  1  0  0  0  0
 50 64  1  0  0  0  0
 51 63  1  0  0  0  0
 52 59  1  0  0  0  0
 53 61  1  0  0  0  0
 54 61  1  0  0  0  0
 55 61  1  0  0  0  0
 56 72  1  0  0  0  0
 57 81  1  0  0  0  0
 58 61  1  0  0  0  0
 58 71  1  0  0  0  0
 59 72  1  0  0  0  0
 60 85  1  0  0  0  0
 60 86  1  0  0  0  0
 60 87  1  0  0  0  0
 62 63  1  0  0  0  0
M  CHG  1  72   1
M  ISO  4  39 100  57 101  69 100  81 101
M  END
> <Batch ID>
0180

> <Smiles>
CNC(C)C(=O)NC(C(=O)N1Cc2cc([101O:1][101CH2:1]C(=O)CC(=O)Nc3sc([100NH:0][100C:0](=O)N4CCCC(n5nc(-c6ccc(Oc7ccc(F)cc7F)cc6)c(C(N)=O)c5N)C4)c(F)c3C(F)(F)F)ccc2CC1C(=O)NC1CCCc2ccccc21)C(C)(C)C

> <Shape>
0.276

> <Color>
0.188

> <Negative vol penalty>
0.000

$$$$

  -OEChem-04052304503D

 85 93  0     1  0  0  0  0  0999 V2000
  -29.0103  -23.1826   18.7344 C   0  0  0  0  0  0  0  0  0  0  0  0
  -27.7898  -23.4463   19.3479 C   0  0  0  0  0  0  0  0  0  0  0  0
  -25.8446  -13.1668   20.3867 C   0  0  0  0  0  0  0  0  0  0  0  0
  -23.8800  -14.5482   20.1236 C   0  0  0  0  0  0  0  0  0  0  0  0
  -30.1518  -23.8802   19.1272 C   0  0  0  0  0  0  0  0  0  0  0  0
  -27.7104  -24.4071   20.3554 C   0  0  0  0  0  0  0  0  0  0  0  0
  -23.7102  -27.4648   19.8128 C   0  0  0  0  0  0  0  0  0  0  0  0
  -25.0835  -12.0314   20.1087 C   0  0  0  0  0  0  0  0  0  0  0  0
  -23.1189  -13.4128   19.8456 C   0  0  0  0  0  0  0  0  0  0  0  0
  -22.4687  -26.9641   20.2023 C   0  0  0  0  0  0  0  0  0  0  0  0
  -22.9074  -10.0296   21.7463 C   0  0  0  0  0  0  0  0  0  0  0  0
  -23.0869   -8.9138   22.5638 C   0  0  0  0  0  0  0  0  0  0  0  0
  -22.6420  -28.1705   22.2841 C   0  0  0  0  0  0  0  0  0  0  0  0
  -23.7629   -7.6147   20.6423 C   0  0  0  0  0  0  0  0  0  0  0  0
  -25.2428  -14.4252   20.3942 C   0  0  0  0  0  0  0  0  0  0  0  0
  -26.7196  -16.4059   19.7589 C   0  0  0  0  0  0  0  0  0  0  0  0
  -30.0844  -24.8569   20.1333 C   0  0  0  0  0  0  0  0  0  0  0  0
  -24.4332  -28.3148   20.6621 C   0  0  0  0  0  0  0  0  0  0  0  0
  -28.8523  -25.1175   20.7629 C   0  0  0  0  0  0  0  0  0  0  0  0
  -23.8914  -28.6826   21.9019 C   0  0  0  0  0  0  0  0  0  0  0  0
  -23.7206  -12.1544   19.8381 C   0  0  0  0  0  0  0  0  0  0  0  0
  -21.9357  -27.3147   21.4393 C   0  0  0  0  0  0  0  0  0  0  0  0
  -23.1556   -9.9379   20.3767 C   0  0  0  0  0  0  0  0  0  0  0  0
  -23.5147   -7.7063   22.0118 C   0  0  0  0  0  0  0  0  0  0  0  0
  -23.5834   -8.7305   19.8247 C   0  0  0  0  0  0  0  0  0  0  0  0
  -26.0284  -15.5983   20.6819 C   0  0  0  0  0  0  0  0  0  0  0  0
  -27.3030  -17.3834   20.5275 C   0  0  0  0  0  0  0  0  0  0  0  0
  -22.2019  -22.7929   25.3493 C   0  0  0  0  0  0  0  0  0  0  0  0
  -23.9544  -21.2152   25.4318 C   0  0  0  0  0  0  0  0  0  0  0  0
  -26.8248  -16.2835   18.3343 C   0  0  0  0  0  0  0  0  0  0  0  0
  -27.2542  -28.1607   22.1187 C   0  0  0  0  0  0  0  0  0  0  0  0
  -26.5573  -31.2191   22.9448 C   0  0  0  0  0  0  0  0  0  0  0  0
  -24.1766  -33.6059   23.4761 C   0  0  0  0  0  0  0  0  0  0  0  0
  -20.4953  -24.6331   25.5908 C   0  0  0  0  0  0  0  0  0  0  0  0
  -25.9533  -19.7401   25.8500 C   0  0  0  0  0  0  0  0  0  0  0  0
  -31.3543  -25.5515   20.5569 C   0  0  0  0  0  0  0  0  0  0  0  0
  -25.7589  -28.8676   20.2159 C   0  0  0  0  0  0  0  0  0  0  0  0
  -24.6183  -29.6082   22.8418 C   0  0  0  0  0  0  0  0  0  0  0  0
  -31.1123  -26.8192   21.3722 C   0  0  0  0  0  0  0  0  0  0  0  0
  -29.0105  -18.1621   24.9333 C   0  0  0  0  0  0  0  0  0  0  0  0
  -30.0694  -26.5659   22.4561 C   0  0  0  0  0  0  0  0  0  0  0  0
  -28.6572  -17.4040   23.6517 C   0  0  0  0  0  0  0  0  0  0  0  0
  -27.8588  -18.1475   25.9368 C   0  0  0  0  0  0  0  0  0  0  0  0
  -26.2151  -17.8493   24.1261 C   0  0  0  0  0  0  0  0  0  0  0  0
  -28.7210  -26.1699   21.8424 C   0  0  1  0  0  0  0  0  0  0  0  0
  -26.6411  -29.3150   21.3774 C   0  0  1  0  0  0  0  0  0  0  0  0
  -27.3208  -17.8918   23.0587 C   0  0  2  0  0  0  0  0  0  0  0  0
  -23.9098  -35.9996   24.1807 C   0  0  0  0  0  0  0  0  0  0  0  0
  -18.6727  -26.3711   25.6727 C   0  0  0  0  0  0  0  0  0  0  0  0
  -18.1266  -24.0360   24.9912 C   0  0  0  0  0  0  0  0  0  0  0  0
  -27.0664  -30.4196   25.8450 C   0  0  0  0  0  0  0  0  0  0  0  0
  -25.8896  -32.5121   26.5555 C   0  0  0  0  0  0  0  0  0  0  0  0
  -27.9812  -32.6570   25.2038 C   0  0  0  0  0  0  0  0  0  0  0  0
  -22.9396  -34.3498   20.8924 C   0  0  0  0  0  0  0  0  0  0  0  0
  -20.5118  -26.6409   23.2209 C   0  0  0  0  0  0  0  0  0  1  0  0
  -25.8439  -31.8783   24.1004 C   0  0  1  0  0  0  0  0  0  0  0  0
  -24.0717  -35.0459   23.0072 C   0  0  2  0  0  0  0  0  0  0  0  0
  -19.5107  -25.4993   23.4144 C   0  0  1  0  0  0  0  0  0  0  0  0
  -19.1982  -25.1456   24.8988 C   0  0  0  0  0  0  0  0  0  0  0  0
  -26.6822  -31.8478   25.4095 C   0  0  0  0  0  0  0  0  0  0  0  0
  -26.1597  -16.0256   21.9406 N   0  0  0  0  0  0  0  0  0  0  0  0
  -23.0141  -23.0185   26.3599 N   0  0  0  0  0  0  0  0  0  0  0  0
  -24.0426  -22.0937   26.4077 N   0  0  0  0  0  0  0  0  0  0  0  0
  -26.9402  -17.1122   21.8139 N   0  0  0  0  0  0  0  0  0  0  0  0
  -25.9140  -30.1175   22.3630 N   0  0  0  0  0  0  0  0  0  0  0  0
  -26.6269  -18.6262   25.3058 N   0  0  0  0  0  0  0  0  0  0  0  0
  -28.0858  -18.4398   20.2215 N   0  0  0  0  0  0  0  0  0  0  0  0
  -26.1628  -15.2208   17.7043 N   0  0  0  0  0  0  0  0  0  0  0  0
  -21.0424  -23.5128   24.9714 N   0  0  0  0  0  0  0  0  0  0  0  0
  -24.8122  -20.1241   25.1464 N   0  0  0  0  0  0  0  0  0  0  0  0
  -28.0361  -27.3377   21.3308 N   0  0  0  0  0  0  0  0  0  0  0  0
  -25.4888  -33.2195   23.6494 N   0  0  0  0  0  0  0  0  0  0  0  0
  -22.8997  -35.2118   22.1017 N   0  3  0  0  0  0  0  0  0  0  0  0
  -27.4997  -17.0830   17.6423 O   0  0  0  0  0  0  0  0  0  0  0  0
  -27.0354  -28.0275   23.3170 O   0  0  0  0  0  0  0  0  0  0  0  0
  -27.6418  -31.6696   22.5674 O   0  0  0  0  0  0  0  0  0  0  0  0
  -23.1927  -32.8961   23.6727 O   0  0  0  0  0  0  0  0  0  0  0  0
  -20.9420  -25.1921   26.5910 O   0  0  0  0  0  0  0  0  0  0  0  0
  -26.3740  -20.3282   26.8496 O   0  0  0  0  0  0  0  0  0  0  0  0
  -18.2878  -25.8773   22.7680 O   0  0  0  0  0  0  0  0  0  0  0  0
  -22.9777  -11.0468   19.5665 O   0  0  0  0  0  0  0  0  0  0  0  0
  -20.7243  -26.8269   21.8222 O   0  0  0  0  0  0  0  0  0  1  0  0
  -23.6885   -6.6353   22.7973 F   0  0  0  0  0  0  0  0  0  0  0  0
  -23.8246   -8.6366   18.5099 F   0  0  0  0  0  0  0  0  0  0  0  0
  -22.6192  -21.4412   24.3794 S   0  0  0  0  0  0  0  0  0  0  0  0
  1  2  1  0  0  0  0
  1  5  2  0  0  0  0
  2  6  2  0  0  0  0
  3  8  2  0  0  0  0
  3 15  1  0  0  0  0
  4  9  1  0  0  0  0
  4 15  2  0  0  0  0
  5 17  1  0  0  0  0
  6 19  1  0  0  0  0
  7 10  2  0  0  0  0
  7 18  1  0  0  0  0
  8 21  1  0  0  0  0
  9 21  2  0  0  0  0
 10 22  1  0  0  0  0
 11 12  2  0  0  0  0
 11 23  1  0  0  0  0
 12 24  1  0  0  0  0
 13 20  1  0  0  0  0
 13 22  2  0  0  0  0
 14 24  2  0  0  0  0
 14 25  1  0  0  0  0
 15 26  1  0  0  0  0
 16 26  1  0  0  0  0
 16 27  2  0  0  0  0
 16 30  1  0  0  0  0
 17 19  2  0  0  0  0
 17 36  1  0  0  0  0
 18 20  2  0  0  0  0
 18 37  1  0  0  0  0
 19 45  1  0  0  0  0
 20 38  1  0  0  0  0
 21 81  1  0  0  0  0
 22 82  1  0  0  0  0
 23 25  2  0  0  0  0
 23 81  1  0  0  0  0
 24 83  1  0  0  0  0
 25 84  1  0  0  0  0
 26 61  2  0  0  0  0
 27 64  1  0  0  0  0
 27 67  1  0  0  0  0
 28 62  2  0  0  0  0
 28 69  1  0  0  0  0
 28 85  1  0  0  0  0
 29 63  2  0  0  0  0
 29 70  1  0  0  0  0
 29 85  1  0  0  0  0
 30 68  1  0  0  0  0
 30 74  2  0  0  0  0
 31 46  1  0  0  0  0
 31 71  1  0  0  0  0
 31 75  2  0  0  0  0
 32 56  1  0  0  0  0
 32 65  1  0  0  0  0
 32 76  2  0  0  0  0
 33 57  1  0  0  0  0
 33 72  1  0  0  0  0
 33 77  2  0  0  0  0
 34 59  1  0  0  0  0
 34 69  1  0  0  0  0
 34 78  2  0  0  0  0
 35 66  1  0  0  0  0
 35 70  1  0  0  0  0
 35 79  2  0  0  0  0
 36 39  1  0  0  0  0
 37 46  1  0  0  0  0
 38 65  1  0  0  0  0
 39 41  1  0  0  0  0
 40 42  1  0  0  0  0
 40 43  1  0  0  0  0
 41 45  1  0  0  0  0
 42 47  1  0  0  0  0
 43 66  1  0  0  0  0
 44 47  1  0  0  0  0
 44 66  1  0  0  0  0
 45 71  1  0  0  0  0
 46 65  1  0  0  0  0
 47 64  1  0  0  0  0
 48 57  1  0  0  0  0
 49 59  1  0  0  0  0
 50 59  1  0  0  0  0
 51 60  1  0  0  0  0
 52 60  1  0  0  0  0
 53 60  1  0  0  0  0
 54 73  1  0  0  0  0
 55 58  1  0  0  0  0
 55 82  1  0  0  0  0
 56 60  1  0  0  0  0
 56 72  1  0  0  0  0
 57 73  1  0  0  0  0
 58 59  1  0  0  0  0
 58 80  1  0  0  0  0
 61 64  1  0  0  0  0
 62 63  1  0  0  0  0
M  CHG  1  73   1
M  ISO  4  35 100  55 101  70 100  82 101
M  END
> <Batch ID>
0180

> <Smiles>
CNC(C)C(=O)NC(C(=O)N1Cc2cc([101O:1][101CH2:1]C(O)C(C)(C)C(=O)Nc3nnc([100NH:0][100C:0](=O)N4CCCC(n5nc(-c6ccc(Oc7ccc(F)cc7F)cc6)c(C(N)=O)c5N)C4)s3)ccc2CC1C(=O)NC1CCCc2ccccc21)C(C)(C)C

> <Shape>
0.250

> <Color>
0.052

> <Negative vol penalty>
0.000

$$$$

  -OEChem-04052304503D

 84 92  0     1  0  0  0  0  0999 V2000
  -28.2188  -34.7034   26.2945 C   0  0  0  0  0  0  0  0  0  0  0  0
  -28.5453  -33.5735   25.5514 C   0  0  0  0  0  0  0  0  0  0  0  0
  -24.6163   -8.9427   21.9070 C   0  0  0  0  0  0  0  0  0  0  0  0
  -23.5178   -9.5889   19.8545 C   0  0  0  0  0  0  0  0  0  0  0  0
  -26.9049  -34.9037   26.7156 C   0  0  0  0  0  0  0  0  0  0  0  0
  -27.5581  -32.6426   25.2300 C   0  0  0  0  0  0  0  0  0  0  0  0
  -27.1473  -29.3384   20.0900 C   0  0  0  0  0  0  0  0  0  0  0  0
  -23.5649   -8.0730   22.1960 C   0  0  0  0  0  0  0  0  0  0  0  0
  -22.4663   -8.7191   20.1435 C   0  0  0  0  0  0  0  0  0  0  0  0
  -27.5120  -28.0276   19.7859 C   0  0  0  0  0  0  0  0  0  0  0  0
  -21.3430   -5.4149   23.2973 C   0  0  0  0  0  0  0  0  0  0  0  0
  -21.6654   -4.1360   23.7514 C   0  0  0  0  0  0  0  0  0  0  0  0
  -25.2508  -27.3052   20.2152 C   0  0  0  0  0  0  0  0  0  0  0  0
  -22.8699   -3.7116   21.7005 C   0  0  0  0  0  0  0  0  0  0  0  0
  -23.9479  -18.6345   15.9176 C   0  0  0  0  0  0  0  0  0  0  0  0
  -24.5928   -9.7008   20.7363 C   0  0  0  0  0  0  0  0  0  0  0  0
  -26.8515  -10.3062   19.7169 C   0  0  0  0  0  0  0  0  0  0  0  0
  -25.8992  -33.9796   26.3910 C   0  0  0  0  0  0  0  0  0  0  0  0
  -25.8319  -29.6413   20.4702 C   0  0  0  0  0  0  0  0  0  0  0  0
  -26.2298  -32.8300   25.6483 C   0  0  0  0  0  0  0  0  0  0  0  0
  -24.8713  -28.6211   20.5211 C   0  0  0  0  0  0  0  0  0  0  0  0
  -22.4899   -7.9611   21.3143 C   0  0  0  0  0  0  0  0  0  0  0  0
  -26.5644  -27.0103   19.8513 C   0  0  0  0  0  0  0  0  0  0  0  0
  -21.7840   -5.8421   22.0448 C   0  0  0  0  0  0  0  0  0  0  0  0
  -22.4288   -3.2844   22.9530 C   0  0  0  0  0  0  0  0  0  0  0  0
  -22.5475   -4.9904   21.2464 C   0  0  0  0  0  0  0  0  0  0  0  0
  -25.6783  -10.5998   20.4375 C   0  0  0  0  0  0  0  0  0  0  0  0
  -24.5259  -19.5732   16.7462 C   0  0  0  0  0  0  0  0  0  0  0  0
  -27.5550  -11.4858   19.7107 C   0  0  0  0  0  0  0  0  0  0  0  0
  -24.8734  -17.7902   17.9750 C   0  0  0  0  0  0  0  0  0  0  0  0
  -26.2754  -25.1073   18.5225 C   0  0  0  0  0  0  0  0  0  1  0  0
  -27.2680   -9.0770   19.1075 C   0  0  0  0  0  0  0  0  0  0  0  0
  -24.5947  -21.0232   16.4318 C   0  0  0  0  0  0  0  0  0  0  0  0
  -26.0719  -23.7852   18.4782 C   0  0  0  0  0  0  0  0  0  0  0  0
  -25.3569  -23.2033   17.3012 C   0  0  0  0  0  0  0  0  0  0  0  0
  -24.4707  -30.8370   23.0819 C   0  0  0  0  0  0  0  0  0  0  0  0
  -21.7998  -30.7832   21.2419 C   0  0  0  0  0  0  0  0  0  0  0  0
  -20.1434  -29.4391   18.5780 C   0  0  0  0  0  0  0  0  0  0  0  0
  -25.9238  -17.2141   20.1912 C   0  0  0  0  0  0  0  0  0  0  0  0
  -24.5024  -34.2151   26.9088 C   0  0  0  0  0  0  0  0  0  0  0  0
  -25.4482  -31.0645   20.7691 C   0  0  0  0  0  0  0  0  0  0  0  0
  -23.4411  -28.8970   20.9041 C   0  0  0  0  0  0  0  0  0  0  0  0
  -23.4422  -33.3704   26.2069 C   0  0  0  0  0  0  0  0  0  0  0  0
  -28.2110  -15.4683   22.2883 C   0  0  0  0  0  0  0  0  0  0  0  0
  -23.9022  -31.9203   26.0961 C   0  0  0  0  0  0  0  0  0  0  0  0
  -27.9320  -13.9951   21.9816 C   0  0  0  0  0  0  0  0  0  0  0  0
  -26.9317  -16.3031   22.2718 C   0  0  0  0  0  0  0  0  0  0  0  0
  -25.8447  -14.7037   20.7455 C   0  0  0  0  0  0  0  0  0  0  0  0
  -25.1820  -31.8099   25.2587 C   0  0  1  0  0  0  0  0  0  0  0  0
  -24.2027  -31.1766   21.6430 C   0  0  1  0  0  0  0  0  0  0  0  0
  -27.1115  -13.8346   20.6868 C   0  0  2  0  0  0  0  0  0  0  0  0
  -17.9620  -29.5704   17.3445 C   0  0  0  0  0  0  0  0  0  0  0  0
  -20.4455  -29.2037   23.4738 C   0  0  0  0  0  0  0  0  0  0  0  0
  -18.6609  -28.5596   21.8402 C   0  0  0  0  0  0  0  0  0  0  0  0
  -19.0108  -30.9604   22.4203 C   0  0  0  0  0  0  0  0  0  0  0  0
  -21.4780  -30.2722   16.0712 C   0  0  0  0  0  0  0  0  0  0  0  0
  -20.7091  -29.7755   20.9699 C   0  0  1  0  0  0  0  0  0  0  0  0
  -19.3902  -30.0859   17.4296 C   0  0  2  0  0  0  0  0  0  0  0  0
  -19.7339  -29.6190   22.1707 C   0  0  0  0  0  0  0  0  0  0  0  0
  -25.6354  -11.8666   20.8587 N   0  0  0  0  0  0  0  0  0  0  0  0
  -25.0568  -19.0910   17.9267 N   0  0  0  0  0  0  0  0  0  0  0  0
  -26.7904  -12.3794   20.4014 N   0  0  0  0  0  0  0  0  0  0  0  0
  -23.1164  -30.3036   21.1934 N   0  0  0  0  0  0  0  0  0  0  0  0
  -26.2091  -16.1038   21.0136 N   0  0  0  0  0  0  0  0  0  0  0  0
  -28.7469  -11.8355   19.1820 N   0  0  0  0  0  0  0  0  0  0  0  0
  -26.4251   -7.9619   19.2085 N   0  0  0  0  0  0  0  0  0  0  0  0
  -25.2617  -16.8982   19.0052 N   0  0  0  0  0  0  0  0  0  0  0  0
  -25.2178  -21.8197   17.3915 N   0  0  0  0  0  0  0  0  0  0  0  0
  -24.8738  -31.9137   23.8485 N   0  0  0  0  0  0  0  0  0  0  0  0
  -20.0666  -30.1945   19.7289 N   0  0  0  0  0  0  0  0  0  0  0  0
  -20.0716  -29.7980   16.1358 N   0  3  0  0  0  0  0  0  0  0  0  0
  -28.3631   -8.9663   18.5057 O   0  0  0  0  0  0  0  0  0  0  0  0
  -24.0909  -21.4335   15.3897 O   0  0  0  0  0  0  0  0  0  0  0  0
  -24.9534  -23.8989   16.3737 O   0  0  0  0  0  0  0  0  0  0  0  0
  -24.3214  -29.6837   23.4684 O   0  0  0  0  0  0  0  0  0  0  0  0
  -21.4951  -31.9542   21.4814 O   0  0  0  0  0  0  0  0  0  0  0  0
  -20.7373  -28.3688   18.4662 O   0  0  0  0  0  0  0  0  0  0  0  0
  -26.2673  -18.3575   20.5022 O   0  0  0  0  0  0  0  0  0  0  0  0
  -26.4957  -22.9324   19.4764 O   0  0  0  0  0  0  0  0  0  0  0  0
  -21.4638   -7.1123   21.5958 O   0  0  0  0  0  0  0  0  0  0  0  0
  -26.9179  -25.7299   19.5556 O   0  0  0  0  0  0  0  0  0  1  0  0
  -22.7397   -2.0569   23.3898 F   0  0  0  0  0  0  0  0  0  0  0  0
  -22.9750   -5.3957   20.0428 F   0  0  0  0  0  0  0  0  0  0  0  0
  -24.0700  -17.0813   16.6345 S   0  0  0  0  0  0  0  0  0  0  0  0
  1  2  1  0  0  0  0
  1  5  2  0  0  0  0
  2  6  2  0  0  0  0
  3  8  2  0  0  0  0
  3 16  1  0  0  0  0
  4  9  1  0  0  0  0
  4 16  2  0  0  0  0
  5 18  1  0  0  0  0
  6 20  1  0  0  0  0
  7 10  2  0  0  0  0
  7 19  1  0  0  0  0
  8 22  1  0  0  0  0
  9 22  2  0  0  0  0
 10 23  1  0  0  0  0
 11 12  2  0  0  0  0
 11 24  1  0  0  0  0
 12 25  1  0  0  0  0
 13 21  1  0  0  0  0
 13 23  2  0  0  0  0
 14 25  2  0  0  0  0
 14 26  1  0  0  0  0
 15 28  2  0  0  0  0
 15 84  1  0  0  0  0
 16 27  1  0  0  0  0
 17 27  1  0  0  0  0
 17 29  2  0  0  0  0
 17 32  1  0  0  0  0
 18 20  2  0  0  0  0
 18 40  1  0  0  0  0
 19 21  2  0  0  0  0
 19 41  1  0  0  0  0
 20 49  1  0  0  0  0
 21 42  1  0  0  0  0
 22 80  1  0  0  0  0
 23 81  1  0  0  0  0
 24 26  2  0  0  0  0
 24 80  1  0  0  0  0
 25 82  1  0  0  0  0
 26 83  1  0  0  0  0
 27 60  2  0  0  0  0
 28 33  1  0  0  0  0
 28 61  1  0  0  0  0
 29 62  1  0  0  0  0
 29 65  1  0  0  0  0
 30 61  2  0  0  0  0
 30 67  1  0  0  0  0
 30 84  1  0  0  0  0
 31 34  2  0  0  0  0
 31 81  1  0  0  0  0
 32 66  1  0  0  0  0
 32 72  2  0  0  0  0
 33 68  1  0  0  0  0
 33 73  2  0  0  0  0
 34 35  1  0  0  0  0
 34 79  1  0  0  0  0
 35 68  1  0  0  0  0
 35 74  2  0  0  0  0
 36 50  1  0  0  0  0
 36 69  1  0  0  0  0
 36 75  2  0  0  0  0
 37 57  1  0  0  0  0
 37 63  1  0  0  0  0
 37 76  2  0  0  0  0
 38 58  1  0  0  0  0
 38 70  1  0  0  0  0
 38 77  2  0  0  0  0
 39 64  1  0  0  0  0
 39 67  1  0  0  0  0
 39 78  2  0  0  0  0
 40 43  1  0  0  0  0
 41 50  1  0  0  0  0
 42 63  1  0  0  0  0
 43 45  1  0  0  0  0
 44 46  1  0  0  0  0
 44 47  1  0  0  0  0
 45 49  1  0  0  0  0
 46 51  1  0  0  0  0
 47 64  1  0  0  0  0
 48 51  1  0  0  0  0
 48 64  1  0  0  0  0
 49 69  1  0  0  0  0
 50 63  1  0  0  0  0
 51 62  1  0  0  0  0
 52 58  1  0  0  0  0
 53 59  1  0  0  0  0
 54 59  1  0  0  0  0
 55 59  1  0  0  0  0
 56 71  1  0  0  0  0
 57 59  1  0  0  0  0
 57 70  1  0  0  0  0
 58 71  1  0  0  0  0
 60 62  1  0  0  0  0
M  CHG  1  71   1
M  ISO  4  31 101  39 100  67 100  81 101
M  END
> <Batch ID>
0180

> <Smiles>
CNC(C)C(=O)NC(C(=O)N1Cc2cc([101O:1][101CH2:1]C(=O)C(=O)NC(=O)c3csc([100NH:0][100C:0](=O)N4CCCC(n5nc(-c6ccc(Oc7ccc(F)cc7F)cc6)c(C(N)=O)c5N)C4)n3)ccc2CC1C(=O)NC1CCCc2ccccc21)C(C)(C)C

> <Shape>
0.254

> <Color>
0.088

> <Negative vol penalty>
0.000

$$$$

  -OEChem-04052304503D

 87 95  0     1  0  0  0  0  0999 V2000
  -26.2089  -34.9694   24.5600 C   0  0  0  0  0  0  0  0  0  0  0  0
  -26.7220  -33.7509   24.1272 C   0  0  0  0  0  0  0  0  0  0  0  0
  -24.5521  -13.1078   21.8319 C   0  0  0  0  0  0  0  0  0  0  0  0
  -25.8576  -13.2024   19.8012 C   0  0  0  0  0  0  0  0  0  0  0  0
  -24.8881  -35.0518   24.9991 C   0  0  0  0  0  0  0  0  0  0  0  0
  -25.9149  -32.6138   24.1343 C   0  0  0  0  0  0  0  0  0  0  0  0
  -26.3333  -29.9080   19.8742 C   0  0  0  0  0  0  0  0  0  0  0  0
  -24.5938  -11.7141   21.7938 C   0  0  0  0  0  0  0  0  0  0  0  0
  -25.8993  -11.8087   19.7631 C   0  0  0  0  0  0  0  0  0  0  0  0
  -27.4605  -29.0983   19.7423 C   0  0  0  0  0  0  0  0  0  0  0  0
  -23.0249   -9.2200   20.1377 C   0  0  0  0  0  0  0  0  0  0  0  0
  -21.8373   -8.5300   20.3807 C   0  0  0  0  0  0  0  0  0  0  0  0
  -26.1514  -27.1799   20.3942 C   0  0  0  0  0  0  0  0  0  0  0  0
  -22.8606   -7.4363   22.2764 C   0  0  0  0  0  0  0  0  0  0  0  0
  -25.1840  -13.8520   20.8356 C   0  0  0  0  0  0  0  0  0  0  0  0
  -26.0587  -16.1531   21.5042 C   0  0  0  0  0  0  0  0  0  0  0  0
  -24.0616  -33.9172   25.0025 C   0  0  0  0  0  0  0  0  0  0  0  0
  -25.1071  -29.3607   20.2783 C   0  0  0  0  0  0  0  0  0  0  0  0
  -24.5823  -32.6808   24.5751 C   0  0  0  0  0  0  0  0  0  0  0  0
  -25.0095  -27.9843   20.5280 C   0  0  0  0  0  0  0  0  0  0  0  0
  -25.2674  -11.0645   20.7594 C   0  0  0  0  0  0  0  0  0  0  0  0
  -27.3704  -27.7345   20.0051 C   0  0  0  0  0  0  0  0  0  0  0  0
  -24.1304   -9.0182   20.9641 C   0  0  0  0  0  0  0  0  0  0  0  0
  -21.7552   -7.6381   21.4500 C   0  0  0  0  0  0  0  0  0  0  0  0
  -24.0483   -8.1263   22.0334 C   0  0  0  0  0  0  0  0  0  0  0  0
  -25.1407  -15.2917   20.8741 C   0  0  0  0  0  0  0  0  0  0  0  0
  -25.8132  -24.8477   17.2819 C   0  0  0  0  0  0  0  0  0  0  0  0
  -25.5757  -17.4138   21.2514 C   0  0  0  0  0  0  0  0  0  0  0  0
  -27.0837  -24.4580   17.6509 C   0  0  0  0  0  0  0  0  0  0  0  0
  -25.3868  -22.7524   17.7697 C   0  0  0  0  0  0  0  0  0  0  0  0
  -27.2423  -15.8417   22.2510 C   0  0  0  0  0  0  0  0  0  0  0  0
  -23.1694  -29.7882   22.7615 C   0  0  0  0  0  0  0  0  0  0  0  0
  -21.2325  -27.7877   21.0975 C   0  0  0  0  0  0  0  0  0  0  0  0
  -29.5529  -24.6513   18.1083 C   0  0  0  0  0  0  0  0  0  0  0  0
  -20.9373  -25.3289   18.7494 C   0  0  0  0  0  0  0  0  0  0  0  0
  -23.4068  -21.1949   17.7870 C   0  0  0  0  0  0  0  0  0  0  0  0
  -22.6547  -34.0455   25.5307 C   0  0  0  0  0  0  0  0  0  0  0  0
  -23.8941  -30.2430   20.3900 C   0  0  0  0  0  0  0  0  0  0  0  0
  -23.7115  -27.3442   20.9451 C   0  0  0  0  0  0  0  0  0  0  0  0
  -21.7533  -32.8725   25.1539 C   0  0  0  0  0  0  0  0  0  0  0  0
  -21.1429  -18.9180   19.3255 C   0  0  0  0  0  0  0  0  0  0  0  0
  -22.4673  -31.5482   25.4056 C   0  0  0  0  0  0  0  0  0  0  0  0
  -22.0566  -17.8424   19.9174 C   0  0  0  0  0  0  0  0  0  0  0  0
  -21.6664  -19.4325   17.9858 C   0  0  0  0  0  0  0  0  0  0  0  0
  -23.9740  -18.8188   18.5917 C   0  0  0  0  0  0  0  0  0  0  0  0
  -23.7307  -31.4302   24.5446 C   0  0  1  0  0  0  0  0  0  0  0  0
  -22.8184  -29.6669   21.3056 C   0  0  1  0  0  0  0  0  0  0  0  0
  -23.5223  -18.3162   19.9727 C   0  0  2  0  0  0  0  0  0  0  0  0
  -19.2310  -23.8675   17.6312 C   0  0  0  0  0  0  0  0  0  0  0  0
  -32.1754  -27.2061   19.3873 C   0  0  0  0  0  0  0  0  0  0  0  0
  -21.0776  -26.0549   23.6042 C   0  0  0  0  0  0  0  0  0  0  0  0
  -20.1887  -24.1971   22.1805 C   0  0  0  0  0  0  0  0  0  0  0  0
  -18.9088  -26.3280   22.3891 C   0  0  0  0  0  0  0  0  0  0  0  0
  -21.5636  -26.4418   16.0796 C   0  0  0  0  0  0  0  0  0  0  0  0
  -30.6203  -25.7382   18.0319 C   0  0  0  0  0  0  0  0  0  0  0  0
  -29.6823  -27.5741   19.4710 C   0  0  0  0  0  0  0  0  0  1  0  0
  -21.0425  -26.2914   21.0334 C   0  0  1  0  0  0  0  0  0  0  0  0
  -20.0027  -25.1761   17.5629 C   0  0  2  0  0  0  0  0  0  0  0  0
  -30.7990  -26.5303   19.3367 C   0  0  2  0  0  0  0  0  0  0  0  0
  -25.4147  -26.1965   16.8298 C   0  0  0  0  0  0  0  0  0  0  0  0
  -20.3295  -25.7299   22.2958 C   0  0  0  0  0  0  0  0  0  0  0  0
  -24.1495  -15.9495   20.2669 N   0  0  0  0  0  0  0  0  0  0  0  0
  -24.8390  -23.8708   17.3490 N   0  0  0  0  0  0  0  0  0  0  0  0
  -24.4417  -17.2377   20.5143 N   0  0  0  0  0  0  0  0  0  0  0  0
  -22.5552  -28.2499   21.0465 N   0  0  0  0  0  0  0  0  0  0  0  0
  -23.0587  -19.8677   18.1158 N   0  0  0  0  0  0  0  0  0  0  0  0
  -26.0145  -18.6447   21.5900 N   0  0  0  0  0  0  0  0  0  0  0  0
  -27.5937  -14.4948   22.4151 N   0  0  0  0  0  0  0  0  0  0  0  0
  -28.3149  -25.1528   17.7155 N   0  0  0  0  0  0  0  0  0  0  0  0
  -24.7529  -21.5029   17.9814 N   0  0  0  0  0  0  0  0  0  0  0  0
  -23.3836  -31.0869   23.1822 N   0  0  0  0  0  0  0  0  0  0  0  0
  -20.3423  -26.0221   19.7822 N   0  0  0  0  0  0  0  0  0  0  0  0
  -20.7752  -25.2002   16.2886 N   0  3  0  0  0  0  0  0  0  0  0  0
  -27.9578  -16.7307   22.7719 O   0  0  0  0  0  0  0  0  0  0  0  0
  -23.2392  -28.7785   23.4524 O   0  0  0  0  0  0  0  0  0  0  0  0
  -20.2433  -28.5198   21.1824 O   0  0  0  0  0  0  0  0  0  0  0  0
  -29.8046  -23.5157   18.4972 O   0  0  0  0  0  0  0  0  0  0  0  0
  -22.0794  -24.8751   18.7604 O   0  0  0  0  0  0  0  0  0  0  0  0
  -22.5670  -22.0068   17.3900 O   0  0  0  0  0  0  0  0  0  0  0  0
  -25.3085   -9.7046   20.7220 O   0  0  0  0  0  0  0  0  0  0  0  0
  -28.4693  -26.9420   19.8778 O   0  0  0  0  0  0  0  0  0  1  0  0
  -20.6142   -6.9767   21.6841 F   0  0  0  0  0  0  0  0  0  0  0  0
  -25.1066   -7.9291   22.8314 F   0  0  0  0  0  0  0  0  0  0  0  0
  -26.4433  -27.1032   16.7934 F   0  0  0  0  0  0  0  0  0  0  0  0
  -24.8829  -26.2300   15.5659 F   0  0  0  0  0  0  0  0  0  0  0  0
  -24.4630  -26.7738   17.6291 F   0  0  0  0  0  0  0  0  0  0  0  0
  -27.0693  -22.8039   18.1039 S   0  0  0  0  0  0  0  0  0  0  0  0
  1  2  1  0  0  0  0
  1  5  2  0  0  0  0
  2  6  2  0  0  0  0
  3  8  2  0  0  0  0
  3 15  1  0  0  0  0
  4  9  1  0  0  0  0
  4 15  2  0  0  0  0
  5 17  1  0  0  0  0
  6 19  1  0  0  0  0
  7 10  2  0  0  0  0
  7 18  1  0  0  0  0
  8 21  1  0  0  0  0
  9 21  2  0  0  0  0
 10 22  1  0  0  0  0
 11 12  2  0  0  0  0
 11 23  1  0  0  0  0
 12 24  1  0  0  0  0
 13 20  1  0  0  0  0
 13 22  2  0  0  0  0
 14 24  2  0  0  0  0
 14 25  1  0  0  0  0
 15 26  1  0  0  0  0
 16 26  1  0  0  0  0
 16 28  2  0  0  0  0
 16 31  1  0  0  0  0
 17 19  2  0  0  0  0
 17 37  1  0  0  0  0
 18 20  2  0  0  0  0
 18 38  1  0  0  0  0
 19 46  1  0  0  0  0
 20 39  1  0  0  0  0
 21 80  1  0  0  0  0
 22 81  1  0  0  0  0
 23 25  2  0  0  0  0
 23 80  1  0  0  0  0
 24 82  1  0  0  0  0
 25 83  1  0  0  0  0
 26 62  2  0  0  0  0
 27 29  2  0  0  0  0
 27 60  1  0  0  0  0
 27 63  1  0  0  0  0
 28 64  1  0  0  0  0
 28 67  1  0  0  0  0
 29 69  1  0  0  0  0
 29 87  1  0  0  0  0
 30 63  2  0  0  0  0
 30 70  1  0  0  0  0
 30 87  1  0  0  0  0
 31 68  1  0  0  0  0
 31 74  2  0  0  0  0
 32 47  1  0  0  0  0
 32 71  1  0  0  0  0
 32 75  2  0  0  0  0
 33 57  1  0  0  0  0
 33 65  1  0  0  0  0
 33 76  2  0  0  0  0
 34 55  1  0  0  0  0
 34 69  1  0  0  0  0
 34 77  2  0  0  0  0
 35 58  1  0  0  0  0
 35 72  1  0  0  0  0
 35 78  2  0  0  0  0
 36 66  1  0  0  0  0
 36 70  1  0  0  0  0
 36 79  2  0  0  0  0
 37 40  1  0  0  0  0
 38 47  1  0  0  0  0
 39 65  1  0  0  0  0
 40 42  1  0  0  0  0
 41 43  1  0  0  0  0
 41 44  1  0  0  0  0
 42 46  1  0  0  0  0
 43 48  1  0  0  0  0
 44 66  1  0  0  0  0
 45 48  1  0  0  0  0
 45 66  1  0  0  0  0
 46 71  1  0  0  0  0
 47 65  1  0  0  0  0
 48 64  1  0  0  0  0
 49 58  1  0  0  0  0
 50 59  1  0  0  0  0
 51 61  1  0  0  0  0
 52 61  1  0  0  0  0
 53 61  1  0  0  0  0
 54 73  1  0  0  0  0
 55 59  1  0  0  0  0
 56 59  1  0  0  0  0
 56 81  1  0  0  0  0
 57 61  1  0  0  0  0
 57 72  1  0  0  0  0
 58 73  1  0  0  0  0
 60 84  1  0  0  0  0
 60 85  1  0  0  0  0
 60 86  1  0  0  0  0
 62 64  1  0  0  0  0
M  CHG  1  73   1
M  ISO  4  36 100  56 101  70 100  81 101
M  END
> <Batch ID>
0180

> <Smiles>
CNC(C)C(=O)NC(C(=O)N1Cc2cc([101O:1][101CH2:1]C(C)CC(=O)Nc3sc([100NH:0][100C:0](=O)N4CCCC(n5nc(-c6ccc(Oc7ccc(F)cc7F)cc6)c(C(N)=O)c5N)C4)nc3C(F)(F)F)ccc2CC1C(=O)NC1CCCc2ccccc21)C(C)(C)C

> <Shape>
0.258

> <Color>
0.088

> <Negative vol penalty>
0.000

$$$$

  -OEChem-04052304503D

 88 96  0     1  0  0  0  0  0999 V2000
  -16.1240  -27.7291   21.8164 C   0  0  0  0  0  0  0  0  0  0  0  0
  -17.3700  -27.1206   21.7040 C   0  0  0  0  0  0  0  0  0  0  0  0
  -23.6588   -9.6547   21.9230 C   0  0  0  0  0  0  0  0  0  0  0  0
  -24.2126  -11.0371   23.8255 C   0  0  0  0  0  0  0  0  0  0  0  0
  -16.0183  -29.1174   21.7418 C   0  0  0  0  0  0  0  0  0  0  0  0
  -18.5109  -27.8999   21.5159 C   0  0  0  0  0  0  0  0  0  0  0  0
  -22.3645  -26.4452   24.4618 C   0  0  0  0  0  0  0  0  0  0  0  0
  -23.1094   -8.6989   22.7774 C   0  0  0  0  0  0  0  0  0  0  0  0
  -23.6632  -10.0812   24.6799 C   0  0  0  0  0  0  0  0  0  0  0  0
  -23.0790  -25.3161   24.0641 C   0  0  0  0  0  0  0  0  0  0  0  0
  -24.2258   -6.2380   24.8077 C   0  0  0  0  0  0  0  0  0  0  0  0
  -24.5490   -4.9009   24.5766 C   0  0  0  0  0  0  0  0  0  0  0  0
  -24.8003  -26.7357   23.1469 C   0  0  0  0  0  0  0  0  0  0  0  0
  -22.2097   -4.3915   24.2518 C   0  0  0  0  0  0  0  0  0  0  0  0
  -24.2105  -10.8238   22.4470 C   0  0  0  0  0  0  0  0  0  0  0  0
  -24.1153  -12.8997   20.9674 C   0  0  0  0  0  0  0  0  0  0  0  0
  -17.1597  -29.9147   21.5624 C   0  0  0  0  0  0  0  0  0  0  0  0
  -22.8581  -27.7304   24.1949 C   0  0  0  0  0  0  0  0  0  0  0  0
  -18.4202  -29.3000   21.4375 C   0  0  0  0  0  0  0  0  0  0  0  0
  -24.0913  -27.8795   23.5445 C   0  0  0  0  0  0  0  0  0  0  0  0
  -23.1116   -8.9121   24.1559 C   0  0  0  0  0  0  0  0  0  0  0  0
  -24.2957  -25.4612   23.4040 C   0  0  0  0  0  0  0  0  0  0  0  0
  -22.8945   -6.6518   24.7610 C   0  0  0  0  0  0  0  0  0  0  0  0
  -23.5410   -3.9777   24.2986 C   0  0  0  0  0  0  0  0  0  0  0  0
  -21.8865   -5.7286   24.4830 C   0  0  0  0  0  0  0  0  0  0  0  0
  -24.7787  -11.8113   21.5649 C   0  0  0  0  0  0  0  0  0  0  0  0
  -29.2858  -20.3364   19.2845 C   0  0  0  0  0  0  0  0  0  0  0  0
  -30.4928  -19.8459   18.8324 C   0  0  0  0  0  0  0  0  0  0  0  0
  -25.0862  -13.5298   20.2280 C   0  0  0  0  0  0  0  0  0  0  0  0
  -29.6164  -17.9641   19.5399 C   0  0  0  0  0  0  0  0  0  0  0  0
  -22.7439  -13.3051   21.0715 C   0  0  0  0  0  0  0  0  0  0  0  0
  -28.7424  -21.7191   19.2905 C   0  0  0  0  0  0  0  0  0  0  0  0
  -21.8401  -30.2160   22.4951 C   0  0  0  0  0  0  0  0  0  0  0  0
  -25.9417  -23.1543   21.1393 C   0  0  0  0  0  0  0  0  0  0  0  0
  -24.4120  -31.6806   23.8226 C   0  0  0  0  0  0  0  0  0  0  0  0
  -27.4954  -31.3844   25.2551 C   0  0  0  0  0  0  0  0  0  0  0  0
  -30.2525  -15.5299   19.6688 C   0  0  0  0  0  0  0  0  0  0  0  0
  -16.9900  -31.4084   21.4406 C   0  0  0  0  0  0  0  0  0  0  0  0
  -22.0882  -28.9381   24.6542 C   0  0  0  0  0  0  0  0  0  0  0  0
  -24.6747  -29.2370   23.2523 C   0  0  0  0  0  0  0  0  0  0  0  0
  -18.2921  -32.1856   21.6152 C   0  0  0  0  0  0  0  0  0  0  0  0
  -29.7770  -12.0618   19.0181 C   0  0  0  0  0  0  0  0  0  0  0  0
  -19.4085  -31.5483   20.7939 C   0  0  0  0  0  0  0  0  0  0  0  0
  -28.3796  -11.7770   19.5735 C   0  0  0  0  0  0  0  0  0  0  0  0
  -30.5351  -13.0701   19.8797 C   0  0  0  0  0  0  0  0  0  0  0  0
  -28.4229  -14.0415   20.6948 C   0  0  0  0  0  0  0  0  0  0  0  0
  -19.6840  -30.1128   21.2577 C   0  0  1  0  0  0  0  0  0  0  0  0
  -22.4373  -30.2016   23.8738 C   0  0  1  0  0  0  0  0  0  0  0  0
  -27.5965  -13.0806   19.8246 C   0  0  2  0  0  0  0  0  0  0  0  0
  -29.3680  -32.7607   26.2020 C   0  0  0  0  0  0  0  0  0  0  0  0
  -25.2847  -32.4328   20.9972 C   0  0  0  0  0  0  0  0  0  0  0  0
  -27.5602  -32.9400   21.9100 C   0  0  0  0  0  0  0  0  0  0  0  0
  -25.5835  -34.2420   22.6978 C   0  0  0  0  0  0  0  0  0  0  0  0
  -27.2215  -30.1325   27.9228 C   0  0  0  0  0  0  0  0  0  0  0  0
  -25.8093  -24.4876   21.8493 C   0  0  0  0  0  0  0  0  0  1  0  0
  -26.8000  -23.1448   19.8828 C   0  0  2  0  0  0  0  0  0  0  0  0
  -25.8642  -31.8424   23.4429 C   0  0  1  0  0  0  0  0  0  0  0  0
  -28.0867  -32.0015   26.5097 C   0  0  2  0  0  0  0  0  0  0  0  0
  -26.0615  -32.8386   22.2656 C   0  0  0  0  0  0  0  0  0  0  0  0
  -25.9532  -23.3878   18.6533 C   0  0  0  0  0  0  0  0  0  0  0  0
  -26.0712  -11.7504   21.2336 N   0  0  0  0  0  0  0  0  0  0  0  0
  -30.6844  -18.4858   18.9783 N   0  0  0  0  0  0  0  0  0  0  0  0
  -26.2277  -12.8084   20.4199 N   0  0  0  0  0  0  0  0  0  0  0  0
  -23.8812  -30.3873   23.7156 N   0  0  0  0  0  0  0  0  0  0  0  0
  -29.7339  -14.2810   20.0713 N   0  0  0  0  0  0  0  0  0  0  0  0
  -31.4579  -20.6141   18.2724 N   0  0  0  0  0  0  0  0  0  0  0  0
  -25.0664  -14.6250   19.4390 N   0  0  0  0  0  0  0  0  0  0  0  0
  -21.8817  -12.5452   21.8737 N   0  0  0  0  0  0  0  0  0  0  0  0
  -29.3879  -16.6053   19.8705 N   0  0  0  0  0  0  0  0  0  0  0  0
  -27.4710  -21.8725   19.8285 N   0  0  0  0  0  0  0  0  0  0  0  0
  -20.4619  -30.1165   22.4780 N   0  0  0  0  0  0  0  0  0  0  0  0
  -26.5666  -32.2160   24.6658 N   0  0  0  0  0  0  0  0  0  0  0  0
  -28.3969  -30.9424   27.5112 N   0  3  0  0  0  0  0  0  0  0  0  0
  -22.2926  -14.3017   20.4580 O   0  0  0  0  0  0  0  0  0  0  0  0
  -29.4148  -22.6301   18.8147 O   0  0  0  0  0  0  0  0  0  0  0  0
  -22.5750  -30.3117   21.5193 O   0  0  0  0  0  0  0  0  0  0  0  0
  -25.3614  -22.1457   21.5419 O   0  0  0  0  0  0  0  0  0  0  0  0
  -23.7743  -32.6641   24.2069 O   0  0  0  0  0  0  0  0  0  0  0  0
  -27.8272  -30.2772   24.8373 O   0  0  0  0  0  0  0  0  0  0  0  0
  -31.3697  -15.6339   19.1559 O   0  0  0  0  0  0  0  0  0  0  0  0
  -22.5753   -7.9797   24.9899 O   0  0  0  0  0  0  0  0  0  0  0  0
  -24.9948  -24.3607   23.0142 O   0  0  0  0  0  0  0  0  0  1  0  0
  -23.8517   -2.6941   24.0751 F   0  0  0  0  0  0  0  0  0  0  0  0
  -20.6059   -6.1205   24.4356 F   0  0  0  0  0  0  0  0  0  0  0  0
  -26.7028  -23.3467   17.5297 F   0  0  0  0  0  0  0  0  0  0  0  0
  -25.3375  -24.5888   18.6953 F   0  0  0  0  0  0  0  0  0  0  0  0
  -24.9970  -22.4393   18.5326 F   0  0  0  0  0  0  0  0  0  0  0  0
  -28.3436  -19.0512   19.9185 S   0  0  0  0  0  0  0  0  0  0  0  0
  1  2  1  0  0  0  0
  1  5  2  0  0  0  0
  2  6  2  0  0  0  0
  3  8  2  0  0  0  0
  3 15  1  0  0  0  0
  4  9  1  0  0  0  0
  4 15  2  0  0  0  0
  5 17  1  0  0  0  0
  6 19  1  0  0  0  0
  7 10  2  0  0  0  0
  7 18  1  0  0  0  0
  8 21  1  0  0  0  0
  9 21  2  0  0  0  0
 10 22  1  0  0  0  0
 11 12  2  0  0  0  0
 11 23  1  0  0  0  0
 12 24  1  0  0  0  0
 13 20  1  0  0  0  0
 13 22  2  0  0  0  0
 14 24  2  0  0  0  0
 14 25  1  0  0  0  0
 15 26  1  0  0  0  0
 16 26  1  0  0  0  0
 16 29  2  0  0  0  0
 16 31  1  0  0  0  0
 17 19  2  0  0  0  0
 17 38  1  0  0  0  0
 18 20  2  0  0  0  0
 18 39  1  0  0  0  0
 19 47  1  0  0  0  0
 20 40  1  0  0  0  0
 21 81  1  0  0  0  0
 22 82  1  0  0  0  0
 23 25  2  0  0  0  0
 23 81  1  0  0  0  0
 24 83  1  0  0  0  0
 25 84  1  0  0  0  0
 26 61  2  0  0  0  0
 27 28  2  0  0  0  0
 27 32  1  0  0  0  0
 27 88  1  0  0  0  0
 28 62  1  0  0  0  0
 28 66  1  0  0  0  0
 29 63  1  0  0  0  0
 29 67  1  0  0  0  0
 30 62  2  0  0  0  0
 30 69  1  0  0  0  0
 30 88  1  0  0  0  0
 31 68  1  0  0  0  0
 31 74  2  0  0  0  0
 32 70  1  0  0  0  0
 32 75  2  0  0  0  0
 33 48  1  0  0  0  0
 33 71  1  0  0  0  0
 33 76  2  0  0  0  0
 34 55  1  0  0  0  0
 34 56  1  0  0  0  0
 34 77  2  0  0  0  0
 35 57  1  0  0  0  0
 35 64  1  0  0  0  0
 35 78  2  0  0  0  0
 36 58  1  0  0  0  0
 36 72  1  0  0  0  0
 36 79  2  0  0  0  0
 37 65  1  0  0  0  0
 37 69  1  0  0  0  0
 37 80  2  0  0  0  0
 38 41  1  0  0  0  0
 39 48  1  0  0  0  0
 40 64  1  0  0  0  0
 41 43  1  0  0  0  0
 42 44  1  0  0  0  0
 42 45  1  0  0  0  0
 43 47  1  0  0  0  0
 44 49  1  0  0  0  0
 45 65  1  0  0  0  0
 46 49  1  0  0  0  0
 46 65  1  0  0  0  0
 47 71  1  0  0  0  0
 48 64  1  0  0  0  0
 49 63  1  0  0  0  0
 50 58  1  0  0  0  0
 51 59  1  0  0  0  0
 52 59  1  0  0  0  0
 53 59  1  0  0  0  0
 54 73  1  0  0  0  0
 55 82  1  0  0  0  0
 56 60  1  0  0  0  0
 56 70  1  0  0  0  0
 57 59  1  0  0  0  0
 57 72  1  0  0  0  0
 58 73  1  0  0  0  0
 60 85  1  0  0  0  0
 60 86  1  0  0  0  0
 60 87  1  0  0  0  0
 61 63  1  0  0  0  0
M  CHG  1  73   1
M  ISO  4  37 100  55 101  69 100  82 101
M  END
> <Batch ID>
0180

> <Smiles>
CNC(C)C(=O)NC(C(=O)N1Cc2cc([101O:1][101CH2:1]C(=O)C(NC(=O)c3sc([100NH:0][100C:0](=O)N4CCCC(n5nc(-c6ccc(Oc7ccc(F)cc7F)cc6)c(C(N)=O)c5N)C4)nc3N)C(F)(F)F)ccc2CC1C(=O)NC1CCCc2ccccc21)C(C)(C)C

> <Shape>
0.287

> <Color>
0.126

> <Negative vol penalty>
0.000

$$$$

  -OEChem-04052304503D

 85 93  0     1  0  0  0  0  0999 V2000
  -24.9632  -22.8866   16.8946 C   0  0  0  0  0  0  0  0  0  0  0  0
  -25.9520  -21.9786   17.2596 C   0  0  0  0  0  0  0  0  0  0  0  0
  -24.0191  -28.4626   22.8916 C   0  0  0  0  0  0  0  0  0  0  0  0
  -24.2302  -29.4958   20.7179 C   0  0  0  0  0  0  0  0  0  0  0  0
  -23.7199  -22.8522   17.5245 C   0  0  0  0  0  0  0  0  0  0  0  0
  -25.6983  -21.0363   18.2557 C   0  0  0  0  0  0  0  0  0  0  0  0
  -27.3223  -16.4049   17.0077 C   0  0  0  0  0  0  0  0  0  0  0  0
  -22.6652  -28.7972   22.9192 C   0  0  0  0  0  0  0  0  0  0  0  0
  -22.8763  -29.8303   20.7454 C   0  0  0  0  0  0  0  0  0  0  0  0
  -28.6885  -16.1550   17.1293 C   0  0  0  0  0  0  0  0  0  0  0  0
  -19.7839  -27.6321   21.5875 C   0  0  0  0  0  0  0  0  0  0  0  0
  -18.8823  -26.6523   22.0032 C   0  0  0  0  0  0  0  0  0  0  0  0
  -28.2921  -15.0458   19.2345 C   0  0  0  0  0  0  0  0  0  0  0  0
  -29.2821  -18.8974   21.2927 C   0  0  0  0  0  0  0  0  0  0  0  0
  -18.1684  -28.0790   23.8176 C   0  0  0  0  0  0  0  0  0  0  0  0
  -24.8016  -28.8119   21.7910 C   0  0  0  0  0  0  0  0  0  0  0  0
  -27.1943  -28.8709   22.6736 C   0  0  0  0  0  0  0  0  0  0  0  0
  -23.4476  -21.9028   18.5221 C   0  0  0  0  0  0  0  0  0  0  0  0
  -26.4305  -15.9860   18.0055 C   0  0  0  0  0  0  0  0  0  0  0  0
  -24.4506  -20.9901   18.9005 C   0  0  0  0  0  0  0  0  0  0  0  0
  -26.9147  -15.2894   19.1219 C   0  0  0  0  0  0  0  0  0  0  0  0
  -28.4451  -19.7551   21.9978 C   0  0  0  0  0  0  0  0  0  0  0  0
  -22.0939  -29.4810   21.8461 C   0  0  0  0  0  0  0  0  0  0  0  0
  -29.1740  -15.4779   18.2442 C   0  0  0  0  0  0  0  0  0  0  0  0
  -19.8778  -28.8354   22.2869 C   0  0  0  0  0  0  0  0  0  0  0  0
  -18.0746  -26.8758   23.1182 C   0  0  0  0  0  0  0  0  0  0  0  0
  -19.0700  -29.0588   23.4019 C   0  0  0  0  0  0  0  0  0  0  0  0
  -28.2811  -21.0670   21.5674 C   0  0  0  0  0  0  0  0  0  0  0  0
  -26.2003  -28.4671   21.7622 C   0  0  0  0  0  0  0  0  0  0  0  0
  -29.9271  -19.3964   20.1726 C   0  0  0  0  0  0  0  0  0  0  0  0
  -28.9711  -21.4689   20.4351 C   0  0  0  0  0  0  0  0  0  0  0  0
  -28.3449  -28.2810   22.2104 C   0  0  0  0  0  0  0  0  0  0  0  0
  -27.0872  -29.7045   23.8352 C   0  0  0  0  0  0  0  0  0  0  0  0
  -24.4314  -17.4593   19.9897 C   0  0  0  0  0  0  0  0  0  0  0  0
  -23.5581  -14.4266   20.7396 C   0  0  0  0  0  0  0  0  0  0  0  0
  -31.5094  -17.4472   19.9699 C   0  0  0  0  0  0  0  0  0  0  0  0
  -24.3834  -11.1169   20.8484 C   0  0  0  0  0  0  0  0  0  0  0  0
  -29.3917  -23.4196   18.8974 C   0  0  0  0  0  0  0  0  0  0  0  0
  -22.1046  -21.9350   19.2077 C   0  0  0  0  0  0  0  0  0  0  0  0
  -24.9565  -16.2398   17.8465 C   0  0  0  0  0  0  0  0  0  0  0  0
  -25.9966  -14.8008   20.2113 C   0  0  0  0  0  0  0  0  0  0  0  0
  -21.7900  -20.6631   19.9911 C   0  0  0  0  0  0  0  0  0  0  0  0
  -30.4035  -26.7538   18.1651 C   0  0  0  0  0  0  0  0  0  0  0  0
  -22.9883  -20.2483   20.8389 C   0  0  0  0  0  0  0  0  0  0  0  0
  -29.5352  -27.6080   19.0917 C   0  0  0  0  0  0  0  0  0  0  0  0
  -29.6411  -25.5427   17.6305 C   0  0  0  0  0  0  0  0  0  0  0  0
  -28.1398  -25.5591   19.5837 C   0  0  0  0  0  0  0  0  0  0  0  0
  -24.2052  -19.9369   19.9592 C   0  0  1  0  0  0  0  0  0  0  0  0
  -24.2005  -16.2204   19.1715 C   0  0  1  0  0  0  0  0  0  0  0  0
  -28.8844  -26.7553   20.1986 C   0  0  2  0  0  0  0  0  0  0  0  0
  -27.7283  -19.2667   23.2104 C   0  0  0  0  0  0  0  0  0  0  0  0
  -24.0739   -8.6500   21.1883 C   0  0  0  0  0  0  0  0  0  0  0  0
  -32.2205  -15.4541   16.7056 C   0  0  0  0  0  0  0  0  0  0  0  0
  -24.0840  -15.1310   23.6614 C   0  0  0  0  0  0  0  0  0  0  0  0
  -24.0951  -12.6812   24.1776 C   0  0  0  0  0  0  0  0  0  0  0  0
  -22.0327  -13.7542   23.2732 C   0  0  0  0  0  0  0  0  0  0  0  0
  -23.4491  -10.7332   18.0665 C   0  0  0  0  0  0  0  0  0  0  0  0
  -32.2939  -16.7600   18.8564 C   0  0  0  0  0  0  0  0  0  0  0  0
  -24.0169  -13.4001   21.7469 C   0  0  1  0  0  0  0  0  0  0  0  0
  -23.6298   -9.8758   20.4055 C   0  0  2  0  0  0  0  0  0  0  0  0
  -31.3973  -16.1736   17.7659 C   0  0  2  0  0  0  0  0  0  1  0  0
  -23.5750  -13.7524   23.1954 C   0  0  0  0  0  0  0  0  0  0  0  0
  -26.6777  -27.6816   20.7931 N   0  0  0  0  0  0  0  0  0  0  0  0
  -29.7927  -20.6646   19.7240 N   0  0  0  0  0  0  0  0  0  0  0  0
  -27.9843  -27.5871   21.0930 N   0  0  0  0  0  0  0  0  0  0  0  0
  -24.5645  -15.0788   20.0132 N   0  0  0  0  0  0  0  0  0  0  0  0
  -29.0559  -24.7804   18.7355 N   0  0  0  0  0  0  0  0  0  0  0  0
  -29.6199  -28.2934   22.6539 N   0  0  0  0  0  0  0  0  0  0  0  0
  -27.2679  -31.0862   23.6849 N   0  0  0  0  0  0  0  0  0  0  0  0
  -30.7769  -18.5164   19.4611 N   0  0  0  0  0  0  0  0  0  0  0  0
  -28.7999  -22.8070   20.0016 N   0  0  0  0  0  0  0  0  0  0  0  0
  -24.0688  -18.6304   19.3520 N   0  0  0  0  0  0  0  0  0  0  0  0
  -23.5264  -12.1118   21.2692 N   0  0  0  0  0  0  0  0  0  0  0  0
  -23.8628   -9.6178   18.9563 N   0  3  0  0  0  0  0  0  0  0  0  0
  -26.8548  -29.2362   24.9755 O   0  0  0  0  0  0  0  0  0  0  0  0
  -24.9023  -17.3600   21.1167 O   0  0  0  0  0  0  0  0  0  0  0  0
  -22.3509  -14.6368   20.5973 O   0  0  0  0  0  0  0  0  0  0  0  0
  -31.5565  -17.0650   21.1343 O   0  0  0  0  0  0  0  0  0  0  0  0
  -25.6098  -11.1947   20.8269 O   0  0  0  0  0  0  0  0  0  0  0  0
  -30.1699  -22.8475   18.1299 O   0  0  0  0  0  0  0  0  0  0  0  0
  -20.7728  -29.8074   21.8725 O   0  0  0  0  0  0  0  0  0  0  0  0
  -30.5071  -15.2333   18.3657 O   0  0  0  0  0  0  0  0  0  1  0  0
  -17.2078  -25.9354   23.5164 F   0  0  0  0  0  0  0  0  0  0  0  0
  -19.1549  -30.2132   24.0772 F   0  0  0  0  0  0  0  0  0  0  0  0
  -27.4796  -21.9114   22.2311 F   0  0  0  0  0  0  0  0  0  0  0  0
  1  2  1  0  0  0  0
  1  5  2  0  0  0  0
  2  6  2  0  0  0  0
  3  8  2  0  0  0  0
  3 16  1  0  0  0  0
  4  9  1  0  0  0  0
  4 16  2  0  0  0  0
  5 18  1  0  0  0  0
  6 20  1  0  0  0  0
  7 10  2  0  0  0  0
  7 19  1  0  0  0  0
  8 23  1  0  0  0  0
  9 23  2  0  0  0  0
 10 24  1  0  0  0  0
 11 12  2  0  0  0  0
 11 25  1  0  0  0  0
 12 26  1  0  0  0  0
 13 21  1  0  0  0  0
 13 24  2  0  0  0  0
 14 22  2  0  0  0  0
 14 30  1  0  0  0  0
 15 26  2  0  0  0  0
 15 27  1  0  0  0  0
 16 29  1  0  0  0  0
 17 29  1  0  0  0  0
 17 32  2  0  0  0  0
 17 33  1  0  0  0  0
 18 20  2  0  0  0  0
 18 39  1  0  0  0  0
 19 21  2  0  0  0  0
 19 40  1  0  0  0  0
 20 48  1  0  0  0  0
 21 41  1  0  0  0  0
 22 28  1  0  0  0  0
 22 51  1  0  0  0  0
 23 81  1  0  0  0  0
 24 82  1  0  0  0  0
 25 27  2  0  0  0  0
 25 81  1  0  0  0  0
 26 83  1  0  0  0  0
 27 84  1  0  0  0  0
 28 31  2  0  0  0  0
 28 85  1  0  0  0  0
 29 63  2  0  0  0  0
 30 64  2  0  0  0  0
 30 70  1  0  0  0  0
 31 64  1  0  0  0  0
 31 71  1  0  0  0  0
 32 65  1  0  0  0  0
 32 68  1  0  0  0  0
 33 69  1  0  0  0  0
 33 75  2  0  0  0  0
 34 49  1  0  0  0  0
 34 72  1  0  0  0  0
 34 76  2  0  0  0  0
 35 59  1  0  0  0  0
 35 66  1  0  0  0  0
 35 77  2  0  0  0  0
 36 58  1  0  0  0  0
 36 70  1  0  0  0  0
 36 78  2  0  0  0  0
 37 60  1  0  0  0  0
 37 73  1  0  0  0  0
 37 79  2  0  0  0  0
 38 67  1  0  0  0  0
 38 71  1  0  0  0  0
 38 80  2  0  0  0  0
 39 42  1  0  0  0  0
 40 49  1  0  0  0  0
 41 66  1  0  0  0  0
 42 44  1  0  0  0  0
 43 45  1  0  0  0  0
 43 46  1  0  0  0  0
 44 48  1  0  0  0  0
 45 50  1  0  0  0  0
 46 67  1  0  0  0  0
 47 50  1  0  0  0  0
 47 67  1  0  0  0  0
 48 72  1  0  0  0  0
 49 66  1  0  0  0  0
 50 65  1  0  0  0  0
 52 60  1  0  0  0  0
 53 61  1  0  0  0  0
 54 62  1  0  0  0  0
 55 62  1  0  0  0  0
 56 62  1  0  0  0  0
 57 74  1  0  0  0  0
 58 61  1  0  0  0  0
 59 62  1  0  0  0  0
 59 73  1  0  0  0  0
 60 74  1  0  0  0  0
 61 82  1  0  0  0  0
 63 65  1  0  0  0  0
M  CHG  1  74   1
M  ISO  4  38 100  61 101  71 100  82 101
M  END
> <Batch ID>
0180

> <Smiles>
CNC(C)C(=O)NC(C(=O)N1Cc2cc([101O:1][101CH:1](C)CC(=O)Nc3cc(C)c(F)c([100NH:0][100C:0](=O)N4CCCC(n5nc(-c6ccc(Oc7ccc(F)cc7F)cc6)c(C(N)=O)c5N)C4)n3)ccc2CC1C(=O)NC1CCCc2ccccc21)C(C)(C)C

> <Shape>
0.272

> <Color>
0.066

> <Negative vol penalty>
0.000

$$$$

  -OEChem-04052304503D

 90 98  0     1  0  0  0  0  0999 V2000
  -27.8102  -37.3641   24.6513 C   0  0  0  0  0  0  0  0  0  0  0  0
  -28.0369  -35.9942   24.5660 C   0  0  0  0  0  0  0  0  0  0  0  0
  -24.4583   -9.8346   21.2230 C   0  0  0  0  0  0  0  0  0  0  0  0
  -24.9720  -10.7850   23.3840 C   0  0  0  0  0  0  0  0  0  0  0  0
  -26.5049  -37.8519   24.6984 C   0  0  0  0  0  0  0  0  0  0  0  0
  -26.9584  -35.1111   24.5288 C   0  0  0  0  0  0  0  0  0  0  0  0
  -27.5143  -31.5130   21.0089 C   0  0  0  0  0  0  0  0  0  0  0  0
  -24.1649   -8.6134   21.8298 C   0  0  0  0  0  0  0  0  0  0  0  0
  -24.6785   -9.5638   23.9908 C   0  0  0  0  0  0  0  0  0  0  0  0
  -28.3644  -30.4506   21.3130 C   0  0  0  0  0  0  0  0  0  0  0  0
  -21.5966   -7.2381   23.5460 C   0  0  0  0  0  0  0  0  0  0  0  0
  -20.4401   -6.5731   23.1387 C   0  0  0  0  0  0  0  0  0  0  0  0
  -26.4532  -29.0894   21.8727 C   0  0  0  0  0  0  0  0  0  0  0  0
  -21.7729   -4.6828   22.4405 C   0  0  0  0  0  0  0  0  0  0  0  0
  -29.6891  -21.4346   20.2279 C   0  0  0  0  0  0  0  0  0  0  0  0
  -24.8619  -10.9204   22.0001 C   0  0  0  0  0  0  0  0  0  0  0  0
  -24.2742  -13.2415   21.1200 C   0  0  0  0  0  0  0  0  0  0  0  0
  -25.4097  -36.9749   24.6520 C   0  0  0  0  0  0  0  0  0  0  0  0
  -26.1255  -31.3747   21.1450 C   0  0  0  0  0  0  0  0  0  0  0  0
  -25.6373  -35.5875   24.5766 C   0  0  0  0  0  0  0  0  0  0  0  0
  -25.5875  -30.1506   21.5671 C   0  0  0  0  0  0  0  0  0  0  0  0
  -28.6414  -22.1577   20.7750 C   0  0  0  0  0  0  0  0  0  0  0  0
  -27.5967  -20.0590   21.3122 C   0  0  0  0  0  0  0  0  0  0  0  0
  -24.2750   -8.4780   23.2137 C   0  0  0  0  0  0  0  0  0  0  0  0
  -27.8341  -29.2395   21.7478 C   0  0  0  0  0  0  0  0  0  0  0  0
  -22.8413   -6.6254   23.4005 C   0  0  0  0  0  0  0  0  0  0  0  0
  -20.5283   -5.2955   22.5860 C   0  0  0  0  0  0  0  0  0  0  0  0
  -22.9294   -5.3478   22.8478 C   0  0  0  0  0  0  0  0  0  0  0  0
  -27.5792  -21.4493   21.3254 C   0  0  0  0  0  0  0  0  0  0  0  0
  -25.1657  -12.1820   21.3739 C   0  0  0  0  0  0  0  0  0  0  0  0
  -28.6911  -19.4298   20.7409 C   0  0  0  0  0  0  0  0  0  0  0  0
  -25.0466  -14.2025   20.5147 C   0  0  0  0  0  0  0  0  0  0  0  0
  -23.0423  -18.8619   22.7784 C   0  0  0  0  0  0  0  0  0  0  0  0
  -24.3559  -18.6815   22.6087 C   0  0  0  0  0  0  0  0  0  0  0  0
  -22.8733  -13.3476   21.4059 C   0  0  0  0  0  0  0  0  0  0  0  0
  -29.3099  -25.8446   20.4322 C   0  0  0  0  0  0  0  0  0  0  0  0
  -25.1857  -19.7272   21.9429 C   0  0  0  0  0  0  0  0  0  0  0  0
  -29.6364  -24.3898   20.2552 C   0  0  0  0  0  0  0  0  0  0  0  0
  -23.8936  -32.7857   22.9146 C   0  0  0  0  0  0  0  0  0  0  0  0
  -21.8823  -30.9852   21.1159 C   0  0  0  0  0  0  0  0  0  0  0  0
  -21.4225  -28.2112   19.1820 C   0  0  0  0  0  0  0  0  0  0  0  0
  -29.7281  -17.1999   20.1946 C   0  0  0  0  0  0  0  0  0  0  0  0
  -24.0175  -37.5461   24.7533 C   0  0  0  0  0  0  0  0  0  0  0  0
  -25.2206  -32.5217   20.7873 C   0  0  0  0  0  0  0  0  0  0  0  0
  -24.1024  -29.9444   21.7104 C   0  0  0  0  0  0  0  0  0  0  0  0
  -22.9252  -36.5668   24.3313 C   0  0  0  0  0  0  0  0  0  0  0  0
  -29.7635  -13.9718   18.6929 C   0  0  0  0  0  0  0  0  0  0  0  0
  -23.1587  -35.2001   24.9671 C   0  0  0  0  0  0  0  0  0  0  0  0
  -28.4972  -13.3055   19.2356 C   0  0  0  0  0  0  0  0  0  0  0  0
  -30.4310  -14.8599   19.7414 C   0  0  0  0  0  0  0  0  0  0  0  0
  -28.2842  -15.1927   20.9030 C   0  0  0  0  0  0  0  0  0  0  0  0
  -24.4932  -34.5993   24.5090 C   0  0  1  0  0  0  0  0  0  0  0  0
  -23.8515  -32.4332   21.4545 C   0  0  1  0  0  0  0  0  0  0  0  0
  -27.5410  -14.3391   19.8624 C   0  0  2  0  0  0  0  0  0  0  0  0
  -19.6599  -26.9863   17.8817 C   0  0  0  0  0  0  0  0  0  0  0  0
  -20.6931  -29.9346   23.7222 C   0  0  0  0  0  0  0  0  0  0  0  0
  -19.6475  -28.0737   22.4137 C   0  0  0  0  0  0  0  0  0  0  0  0
  -19.0145  -30.4393   21.9383 C   0  0  0  0  0  0  0  0  0  0  0  0
  -22.9107  -28.5275   16.6435 C   0  0  0  0  0  0  0  0  0  0  0  0
  -30.3165  -26.6698   21.2034 C   0  0  0  0  0  0  0  0  0  0  0  0
  -29.8930  -28.1255   21.3289 C   0  0  0  0  0  0  0  0  0  1  0  0
  -21.2929  -29.6003   21.2333 C   0  0  1  0  0  0  0  0  0  0  0  0
  -20.7678  -28.0266   17.8248 C   0  0  2  0  0  0  0  0  0  0  0  0
  -20.1901  -29.5162   22.3261 C   0  0  0  0  0  0  0  0  0  0  0  0
  -29.7415  -20.0841   20.1966 N   0  0  0  0  0  0  0  0  0  0  0  0
  -26.4092  -12.4448   20.9633 N   0  0  0  0  0  0  0  0  0  0  0  0
  -26.3047  -13.6804   20.4452 N   0  0  0  0  0  0  0  0  0  0  0  0
  -23.2593  -31.0977   21.3546 N   0  0  0  0  0  0  0  0  0  0  0  0
  -29.4662  -15.8166   20.2879 N   0  0  0  0  0  0  0  0  0  0  0  0
  -24.7655  -15.4348   20.0404 N   0  0  0  0  0  0  0  0  0  0  0  0
  -22.2354  -12.2678   22.0315 N   0  0  0  0  0  0  0  0  0  0  0  0
  -28.6548  -23.5720   20.7720 N   0  0  0  0  0  0  0  0  0  0  0  0
  -26.5313  -19.3450   21.8642 N   0  0  0  0  0  0  0  0  0  0  0  0
  -28.7244  -18.0134   20.7193 N   0  0  0  0  0  0  0  0  0  0  0  0
  -24.3709  -34.0564   23.1730 N   0  0  0  0  0  0  0  0  0  0  0  0
  -20.8378  -29.2357   19.8960 N   0  0  0  0  0  0  0  0  0  0  0  0
  -21.7754  -27.5856   16.8193 N   0  3  0  0  0  0  0  0  0  0  0  0
  -22.2033  -14.3631   21.1003 O   0  0  0  0  0  0  0  0  0  0  0  0
  -28.2704  -26.2493   19.9341 O   0  0  0  0  0  0  0  0  0  0  0  0
  -24.6878  -20.7709   21.5379 O   0  0  0  0  0  0  0  0  0  0  0  0
  -30.6773  -24.1303   19.6746 O   0  0  0  0  0  0  0  0  0  0  0  0
  -23.5192  -31.9660   23.7450 O   0  0  0  0  0  0  0  0  0  0  0  0
  -21.1493  -31.9310   20.8164 O   0  0  0  0  0  0  0  0  0  0  0  0
  -22.3565  -27.5136   19.5713 O   0  0  0  0  0  0  0  0  0  0  0  0
  -30.7538  -17.6317   19.6622 O   0  0  0  0  0  0  0  0  0  0  0  0
  -23.9885   -7.2866   23.8062 O   0  0  0  0  0  0  0  0  0  0  0  0
  -28.6616  -28.2012   22.0459 O   0  0  0  0  0  0  0  0  0  1  0  0
  -19.4174   -4.6564   22.1963 F   0  0  0  0  0  0  0  0  0  0  0  0
  -24.1223   -4.7536   22.7067 F   0  0  0  0  0  0  0  0  0  0  0  0
  -26.5418  -22.1058   21.8668 F   0  0  0  0  0  0  0  0  0  0  0  0
  1  2  1  0  0  0  0
  1  5  2  0  0  0  0
  2  6  2  0  0  0  0
  3  8  2  0  0  0  0
  3 16  1  0  0  0  0
  4  9  1  0  0  0  0
  4 16  2  0  0  0  0
  5 18  1  0  0  0  0
  6 20  1  0  0  0  0
  7 10  2  0  0  0  0
  7 19  1  0  0  0  0
  8 24  1  0  0  0  0
  9 24  2  0  0  0  0
 10 25  1  0  0  0  0
 11 12  2  0  0  0  0
 11 26  1  0  0  0  0
 12 27  1  0  0  0  0
 13 21  1  0  0  0  0
 13 25  2  0  0  0  0
 14 27  2  0  0  0  0
 14 28  1  0  0  0  0
 15 22  2  0  0  0  0
 15 65  1  0  0  0  0
 16 30  1  0  0  0  0
 17 30  1  0  0  0  0
 17 32  2  0  0  0  0
 17 35  1  0  0  0  0
 18 20  2  0  0  0  0
 18 43  1  0  0  0  0
 19 21  2  0  0  0  0
 19 44  1  0  0  0  0
 20 52  1  0  0  0  0
 21 45  1  0  0  0  0
 22 29  1  0  0  0  0
 22 72  1  0  0  0  0
 23 29  2  0  0  0  0
 23 31  1  0  0  0  0
 23 73  1  0  0  0  0
 24 86  1  0  0  0  0
 25 87  1  0  0  0  0
 26 28  2  0  0  0  0
 26 86  1  0  0  0  0
 27 88  1  0  0  0  0
 28 89  1  0  0  0  0
 29 90  1  0  0  0  0
 30 66  2  0  0  0  0
 31 65  2  0  0  0  0
 31 74  1  0  0  0  0
 32 67  1  0  0  0  0
 32 70  1  0  0  0  0
 33 34  2  0  0  0  0
 34 37  1  0  0  0  0
 35 71  1  0  0  0  0
 35 78  2  0  0  0  0
 36 38  1  0  0  0  0
 36 60  1  0  0  0  0
 36 79  2  0  0  0  0
 37 73  1  0  0  0  0
 37 80  2  0  0  0  0
 38 72  1  0  0  0  0
 38 81  2  0  0  0  0
 39 53  1  0  0  0  0
 39 75  1  0  0  0  0
 39 82  2  0  0  0  0
 40 62  1  0  0  0  0
 40 68  1  0  0  0  0
 40 83  2  0  0  0  0
 41 63  1  0  0  0  0
 41 76  1  0  0  0  0
 41 84  2  0  0  0  0
 42 69  1  0  0  0  0
 42 74  1  0  0  0  0
 42 85  2  0  0  0  0
 43 46  1  0  0  0  0
 44 53  1  0  0  0  0
 45 68  1  0  0  0  0
 46 48  1  0  0  0  0
 47 49  1  0  0  0  0
 47 50  1  0  0  0  0
 48 52  1  0  0  0  0
 49 54  1  0  0  0  0
 50 69  1  0  0  0  0
 51 54  1  0  0  0  0
 51 69  1  0  0  0  0
 52 75  1  0  0  0  0
 53 68  1  0  0  0  0
 54 67  1  0  0  0  0
 55 63  1  0  0  0  0
 56 64  1  0  0  0  0
 57 64  1  0  0  0  0
 58 64  1  0  0  0  0
 59 77  1  0  0  0  0
 60 61  1  0  0  0  0
 61 87  1  0  0  0  0
 62 64  1  0  0  0  0
 62 76  1  0  0  0  0
 63 77  1  0  0  0  0
 66 67  1  0  0  0  0
M  CHG  1  77   1
M  ISO  4  42 100  61 101  74 100  87 101
M  END
> <Batch ID>
0180

> <Smiles>
C=CC(=O)Nc1c([100NH:0][100C:0](=O)N2CCCC(n3nc(-c4ccc(Oc5ccc(F)cc5F)cc4)c(C(N)=O)c3N)C2)ncc(NC(=O)C(=O)C[101CH2:1][101O:1]c2ccc3c(c2)CN(C(=O)C(NC(=O)C(C)NC)C(C)(C)C)C(C(=O)NC2CCCc4ccccc42)C3)c1F

> <Shape>
0.355

> <Color>
0.149

> <Negative vol penalty>
0.000

$$$$

  -OEChem-04052304503D

 83 91  0     1  0  0  0  0  0999 V2000
  -28.7668  -33.8622   25.2616 C   0  0  0  0  0  0  0  0  0  0  0  0
  -28.7760  -32.5972   24.6827 C   0  0  0  0  0  0  0  0  0  0  0  0
  -24.4642   -9.1614   21.6694 C   0  0  0  0  0  0  0  0  0  0  0  0
  -22.5362  -10.5636   21.2776 C   0  0  0  0  0  0  0  0  0  0  0  0
  -27.5721  -34.4013   25.7371 C   0  0  0  0  0  0  0  0  0  0  0  0
  -27.5906  -31.8700   24.5801 C   0  0  0  0  0  0  0  0  0  0  0  0
  -27.0226  -29.7124   20.0339 C   0  0  0  0  0  0  0  0  0  0  0  0
  -23.6552   -8.0277   21.5931 C   0  0  0  0  0  0  0  0  0  0  0  0
  -21.7271   -9.4299   21.2013 C   0  0  0  0  0  0  0  0  0  0  0  0
  -27.7495  -28.5488   19.7861 C   0  0  0  0  0  0  0  0  0  0  0  0
  -22.0366   -4.7822   21.8593 C   0  0  0  0  0  0  0  0  0  0  0  0
  -22.2140   -3.7909   22.8244 C   0  0  0  0  0  0  0  0  0  0  0  0
  -25.7833  -27.2296   20.2475 C   0  0  0  0  0  0  0  0  0  0  0  0
  -21.6651   -5.3811   24.5585 C   0  0  0  0  0  0  0  0  0  0  0  0
  -27.0020  -21.5102   22.7573 C   0  0  0  0  0  0  0  0  0  0  0  0
  -23.9047  -10.4294   21.5116 C   0  0  0  0  0  0  0  0  0  0  0  0
  -25.4164  -12.2357   20.5321 C   0  0  0  0  0  0  0  0  0  0  0  0
  -26.3698  -33.6843   25.6315 C   0  0  0  0  0  0  0  0  0  0  0  0
  -25.6712  -29.6427   20.4016 C   0  0  0  0  0  0  0  0  0  0  0  0
  -26.3790  -32.3994   25.0558 C   0  0  0  0  0  0  0  0  0  0  0  0
  -25.0408  -28.3939   20.4969 C   0  0  0  0  0  0  0  0  0  0  0  0
  -22.2867   -8.1619   21.3591 C   0  0  0  0  0  0  0  0  0  0  0  0
  -27.1306  -27.3070   19.8957 C   0  0  0  0  0  0  0  0  0  0  0  0
  -21.6735   -6.0730   22.2438 C   0  0  0  0  0  0  0  0  0  0  0  0
  -22.0283   -4.0903   24.1740 C   0  0  0  0  0  0  0  0  0  0  0  0
  -21.4878   -6.3724   23.5934 C   0  0  0  0  0  0  0  0  0  0  0  0
  -24.7398  -11.6009   21.5909 C   0  0  0  0  0  0  0  0  0  0  0  0
  -26.0640  -13.2929   21.1233 C   0  0  0  0  0  0  0  0  0  0  0  0
  -26.6788  -21.3168   21.4306 C   0  0  0  0  0  0  0  0  0  0  0  0
  -26.3600  -19.4164   22.8762 C   0  0  0  0  0  0  0  0  0  0  0  0
  -25.4559  -11.9000   19.1388 C   0  0  0  0  0  0  0  0  0  0  0  0
  -27.0533  -24.0726   18.8877 C   0  0  0  0  0  0  0  0  0  0  0  0
  -27.4117  -25.3474   18.6499 C   0  0  0  0  0  0  0  0  0  1  0  0
  -27.1440  -23.4991   20.2720 C   0  0  0  0  0  0  0  0  0  0  0  0
  -23.9953  -30.5071   22.9606 C   0  0  0  0  0  0  0  0  0  0  0  0
  -21.4722  -29.6173   21.1264 C   0  0  0  0  0  0  0  0  0  0  0  0
  -20.2989  -27.7477   18.5236 C   0  0  0  0  0  0  0  0  0  0  0  0
  -26.1328  -17.6197   24.6272 C   0  0  0  0  0  0  0  0  0  0  0  0
  -25.1116  -34.2888   26.2025 C   0  0  0  0  0  0  0  0  0  0  0  0
  -24.8941  -30.9084   20.6395 C   0  0  0  0  0  0  0  0  0  0  0  0
  -23.5869  -28.2657   20.8687 C   0  0  0  0  0  0  0  0  0  0  0  0
  -23.8342  -33.6087   25.7166 C   0  0  0  0  0  0  0  0  0  0  0  0
  -26.7773  -14.4026   26.0102 C   0  0  0  0  0  0  0  0  0  0  0  0
  -23.9716  -32.0918   25.8013 C   0  0  0  0  0  0  0  0  0  0  0  0
  -26.3603  -13.4392   24.8966 C   0  0  0  0  0  0  0  0  0  0  0  0
  -25.8589  -15.6215   26.0789 C   0  0  0  0  0  0  0  0  0  0  0  0
  -25.2733  -15.3806   23.6981 C   0  0  0  0  0  0  0  0  0  0  0  0
  -25.1094  -31.5900   24.9040 C   0  0  1  0  0  0  0  0  0  0  0  0
  -23.6583  -30.6964   21.5086 C   0  0  1  0  0  0  0  0  0  0  0  0
  -26.2078  -14.1690   23.5477 C   0  0  2  0  0  0  0  0  0  0  0  0
  -27.3630  -25.9908   17.2948 C   0  0  0  0  0  0  0  0  0  0  0  0
  -18.1850  -27.1999   17.2870 C   0  0  0  0  0  0  0  0  0  0  0  0
  -20.5987  -27.8106   23.4248 C   0  0  0  0  0  0  0  0  0  0  0  0
  -19.0909  -26.6172   21.8215 C   0  0  0  0  0  0  0  0  0  0  0  0
  -18.7349  -29.0398   22.2978 C   0  0  0  0  0  0  0  0  0  0  0  0
  -21.3695  -28.8227   15.9825 C   0  0  0  0  0  0  0  0  0  0  0  0
  -20.7173  -28.3300   20.8985 C   0  0  1  0  0  0  0  0  0  0  0  0
  -19.4059  -28.1046   17.3490 C   0  0  2  0  0  0  0  0  0  0  0  0
  -19.8134  -27.9514   22.1055 C   0  0  0  0  0  0  0  0  0  0  0  0
  -26.8195  -20.4217   23.5878 N   0  0  0  0  0  0  0  0  0  0  0  0
  -24.9392  -12.2042   22.7657 N   0  0  0  0  0  0  0  0  0  0  0  0
  -25.7485  -13.2292   22.4487 N   0  0  0  0  0  0  0  0  0  0  0  0
  -22.8713  -29.5319   21.0976 N   0  0  0  0  0  0  0  0  0  0  0  0
  -25.7660  -16.2643   24.7663 N   0  0  0  0  0  0  0  0  0  0  0  0
  -26.8670  -14.2613   20.6336 N   0  0  0  0  0  0  0  0  0  0  0  0
  -24.7330  -10.7822   18.7001 N   0  0  0  0  0  0  0  0  0  0  0  0
  -26.7294  -22.1744   20.3046 N   0  0  0  0  0  0  0  0  0  0  0  0
  -26.0342  -18.1132   23.3267 N   0  0  0  0  0  0  0  0  0  0  0  0
  -24.6875  -31.5642   23.5199 N   0  0  0  0  0  0  0  0  0  0  0  0
  -19.9964  -28.4965   19.6411 N   0  0  0  0  0  0  0  0  0  0  0  0
  -20.1561  -27.9700   16.0683 N   0  3  0  0  0  0  0  0  0  0  0  0
  -26.1259  -12.5616   18.3101 O   0  0  0  0  0  0  0  0  0  0  0  0
  -27.5433  -24.1808   21.2094 O   0  0  0  0  0  0  0  0  0  0  0  0
  -23.6515  -29.4788   23.5316 O   0  0  0  0  0  0  0  0  0  0  0  0
  -20.8434  -30.6616   21.3156 O   0  0  0  0  0  0  0  0  0  0  0  0
  -21.1745  -26.8877   18.4575 O   0  0  0  0  0  0  0  0  0  0  0  0
  -26.5328  -18.2853   25.5858 O   0  0  0  0  0  0  0  0  0  0  0  0
  -26.6022  -23.2537   17.8695 O   0  0  0  0  0  0  0  0  0  0  0  0
  -21.4970   -7.0559   21.2843 O   0  0  0  0  0  0  0  0  0  0  0  0
  -27.8379  -26.1696   19.6550 O   0  0  0  0  0  0  0  0  0  1  0  0
  -22.1971   -3.1379   25.1006 F   0  0  0  0  0  0  0  0  0  0  0  0
  -21.1378   -7.6103   23.9688 F   0  0  0  0  0  0  0  0  0  0  0  0
  -26.1246  -19.7100   21.2018 S   0  0  0  0  0  0  0  0  0  0  0  0
  1  2  1  0  0  0  0
  1  5  2  0  0  0  0
  2  6  2  0  0  0  0
  3  8  2  0  0  0  0
  3 16  1  0  0  0  0
  4  9  1  0  0  0  0
  4 16  2  0  0  0  0
  5 18  1  0  0  0  0
  6 20  1  0  0  0  0
  7 10  2  0  0  0  0
  7 19  1  0  0  0  0
  8 22  1  0  0  0  0
  9 22  2  0  0  0  0
 10 23  1  0  0  0  0
 11 12  2  0  0  0  0
 11 24  1  0  0  0  0
 12 25  1  0  0  0  0
 13 21  1  0  0  0  0
 13 23  2  0  0  0  0
 14 25  2  0  0  0  0
 14 26  1  0  0  0  0
 15 29  2  0  0  0  0
 15 60  1  0  0  0  0
 16 27  1  0  0  0  0
 17 27  1  0  0  0  0
 17 28  2  0  0  0  0
 17 31  1  0  0  0  0
 18 20  2  0  0  0  0
 18 39  1  0  0  0  0
 19 21  2  0  0  0  0
 19 40  1  0  0  0  0
 20 48  1  0  0  0  0
 21 41  1  0  0  0  0
 22 79  1  0  0  0  0
 23 80  1  0  0  0  0
 24 26  2  0  0  0  0
 24 79  1  0  0  0  0
 25 81  1  0  0  0  0
 26 82  1  0  0  0  0
 27 61  2  0  0  0  0
 28 62  1  0  0  0  0
 28 65  1  0  0  0  0
 29 67  1  0  0  0  0
 29 83  1  0  0  0  0
 30 60  2  0  0  0  0
 30 68  1  0  0  0  0
 30 83  1  0  0  0  0
 31 66  1  0  0  0  0
 31 72  2  0  0  0  0
 32 33  2  0  0  0  0
 32 34  1  0  0  0  0
 32 78  1  0  0  0  0
 33 51  1  0  0  0  0
 33 80  1  0  0  0  0
 34 67  1  0  0  0  0
 34 73  2  0  0  0  0
 35 49  1  0  0  0  0
 35 69  1  0  0  0  0
 35 74  2  0  0  0  0
 36 57  1  0  0  0  0
 36 63  1  0  0  0  0
 36 75  2  0  0  0  0
 37 58  1  0  0  0  0
 37 70  1  0  0  0  0
 37 76  2  0  0  0  0
 38 64  1  0  0  0  0
 38 68  1  0  0  0  0
 38 77  2  0  0  0  0
 39 42  1  0  0  0  0
 40 49  1  0  0  0  0
 41 63  1  0  0  0  0
 42 44  1  0  0  0  0
 43 45  1  0  0  0  0
 43 46  1  0  0  0  0
 44 48  1  0  0  0  0
 45 50  1  0  0  0  0
 46 64  1  0  0  0  0
 47 50  1  0  0  0  0
 47 64  1  0  0  0  0
 48 69  1  0  0  0  0
 49 63  1  0  0  0  0
 50 62  1  0  0  0  0
 52 58  1  0  0  0  0
 53 59  1  0  0  0  0
 54 59  1  0  0  0  0
 55 59  1  0  0  0  0
 56 71  1  0  0  0  0
 57 59  1  0  0  0  0
 57 70  1  0  0  0  0
 58 71  1  0  0  0  0
 61 62  1  0  0  0  0
M  CHG  1  71   1
M  ISO  4  33 101  38 100  68 100  80 101
M  END
> <Batch ID>
0180

> <Smiles>
CNC(C)C(=O)NC(C(=O)N1Cc2cc([101O:1][101CH:1](C)C(=O)C(=O)Nc3cnc([100NH:0][100C:0](=O)N4CCCC(n5nc(-c6ccc(Oc7ccc(F)cc7F)cc6)c(C(N)=O)c5N)C4)s3)ccc2CC1C(=O)NC1CCCc2ccccc21)C(C)(C)C

> <Shape>
0.273

> <Color>
0.106

> <Negative vol penalty>
0.000

$$$$

  -OEChem-04052304503D

 84 92  0     1  0  0  0  0  0999 V2000
  -33.4197  -17.2981   16.2157 C   0  0  0  0  0  0  0  0  0  0  0  0
  -32.5284  -17.6843   17.2116 C   0  0  0  0  0  0  0  0  0  0  0  0
  -23.0763   -9.8632   19.9430 C   0  0  0  0  0  0  0  0  0  0  0  0
  -23.8356   -9.8752   22.2366 C   0  0  0  0  0  0  0  0  0  0  0  0
  -34.5150  -18.1051   15.9108 C   0  0  0  0  0  0  0  0  0  0  0  0
  -32.7325  -18.8774   17.9040 C   0  0  0  0  0  0  0  0  0  0  0  0
  -28.4304  -22.6843   20.0264 C   0  0  0  0  0  0  0  0  0  0  0  0
  -22.3337   -8.7097   20.1948 C   0  0  0  0  0  0  0  0  0  0  0  0
  -23.0928   -8.7217   22.4885 C   0  0  0  0  0  0  0  0  0  0  0  0
  -27.8656  -22.8505   21.2902 C   0  0  0  0  0  0  0  0  0  0  0  0
  -19.8654   -7.9214   23.0915 C   0  0  0  0  0  0  0  0  0  0  0  0
  -19.1081   -7.8828   24.2622 C   0  0  0  0  0  0  0  0  0  0  0  0
  -29.4161  -24.6427   21.7408 C   0  0  0  0  0  0  0  0  0  0  0  0
  -20.3515   -5.9481   25.0026 C   0  0  0  0  0  0  0  0  0  0  0  0
  -23.8273  -10.4460   20.9639 C   0  0  0  0  0  0  0  0  0  0  0  0
  -24.1664  -12.9713   20.8393 C   0  0  0  0  0  0  0  0  0  0  0  0
  -34.7272  -19.3135   16.5931 C   0  0  0  0  0  0  0  0  0  0  0  0
  -29.5012  -23.4903   19.6138 C   0  0  0  0  0  0  0  0  0  0  0  0
  -33.8324  -19.7007   17.6088 C   0  0  0  0  0  0  0  0  0  0  0  0
  -29.9910  -24.4865   20.4703 C   0  0  0  0  0  0  0  0  0  0  0  0
  -22.3419   -8.1389   21.4676 C   0  0  0  0  0  0  0  0  0  0  0  0
  -28.3604  -23.8278   22.1488 C   0  0  0  0  0  0  0  0  0  0  0  0
  -20.8657   -6.9733   22.8762 C   0  0  0  0  0  0  0  0  0  0  0  0
  -19.3512   -6.8961   25.2178 C   0  0  0  0  0  0  0  0  0  0  0  0
  -21.1087   -5.9867   23.8318 C   0  0  0  0  0  0  0  0  0  0  0  0
  -24.5952  -11.6372   20.7042 C   0  0  0  0  0  0  0  0  0  0  0  0
  -31.8019  -18.7351   22.2391 C   0  0  0  0  0  0  0  0  0  0  0  0
  -25.2578  -13.7213   20.4750 C   0  0  0  0  0  0  0  0  0  0  0  0
  -30.6998  -19.1024   22.9824 C   0  0  0  0  0  0  0  0  0  0  0  0
  -30.5656  -16.9563   21.8967 C   0  0  0  0  0  0  0  0  0  0  0  0
  -22.8952  -13.4864   21.2569 C   0  0  0  0  0  0  0  0  0  0  0  0
  -32.5187  -22.9527   18.7714 C   0  0  0  0  0  0  0  0  0  0  0  0
  -32.4761  -26.1182   18.0640 C   0  0  0  0  0  0  0  0  0  0  0  0
  -29.2444  -20.5216   24.4690 C   0  0  0  0  0  0  0  0  0  0  0  0
  -31.0794  -29.1867   18.5936 C   0  0  0  0  0  0  0  0  0  0  0  0
  -30.7228  -14.7731   20.6495 C   0  0  0  0  0  0  0  0  0  0  0  0
  -35.9515  -20.1293   16.2610 C   0  0  0  0  0  0  0  0  0  0  0  0
  -30.0818  -23.3163   18.2372 C   0  0  0  0  0  0  0  0  0  0  0  0
  -31.1257  -25.3913   20.0673 C   0  0  0  0  0  0  0  0  0  0  0  0
  -35.8887  -21.5622   16.7836 C   0  0  0  0  0  0  0  0  0  0  0  0
  -29.6117  -12.3539   18.2851 C   0  0  0  0  0  0  0  0  0  0  0  0
  -35.4192  -21.5811   18.2348 C   0  0  0  0  0  0  0  0  0  0  0  0
  -28.1723  -12.0616   18.7148 C   0  0  0  0  0  0  0  0  0  0  0  0
  -30.5263  -12.5859   19.4866 C   0  0  0  0  0  0  0  0  0  0  0  0
  -28.6181  -13.3107   20.8661 C   0  0  0  0  0  0  0  0  0  0  0  0
  -34.0061  -20.9999   18.3651 C   0  0  1  0  0  0  0  0  0  0  0  0
  -31.5060  -23.8498   18.1175 C   0  0  1  0  0  0  0  0  0  0  0  0
  -27.6458  -13.1343   19.6883 C   0  0  2  0  0  0  0  0  0  0  0  0
  -33.0323  -19.5323   22.0568 C   0  0  0  0  0  0  0  0  0  0  0  0
  -31.2822  -31.5897   17.8994 C   0  0  0  0  0  0  0  0  0  0  0  0
  -25.7664  -23.0698   24.2348 C   0  0  0  0  0  0  0  0  0  0  0  0
  -34.9414  -26.4196   19.8364 C   0  0  0  0  0  0  0  0  0  0  0  0
  -34.5274  -28.8885   19.8729 C   0  0  0  0  0  0  0  0  0  0  0  0
  -35.0153  -27.7393   17.7133 C   0  0  0  0  0  0  0  0  0  0  0  0
  -28.3347  -29.2193   17.4870 C   0  0  0  0  0  0  0  0  0  0  0  0
  -29.3362  -21.8821   25.1492 C   0  0  0  0  0  0  0  0  0  0  0  0
  -27.9828  -22.5750   25.3289 C   0  0  0  0  0  0  0  0  0  0  0  0
  -32.7720  -27.3878   18.8252 C   0  0  1  0  0  0  0  0  0  0  0  0
  -30.6026  -30.2565   17.6280 C   0  0  2  0  0  0  0  0  0  0  0  0
  -27.2538  -22.8345   24.0047 C   0  0  2  0  0  0  0  0  0  1  0  0
  -34.2939  -27.5906   19.0706 C   0  0  0  0  0  0  0  0  0  0  0  0
  -25.8603  -11.5420   20.2864 N   0  0  0  0  0  0  0  0  0  0  0  0
  -31.7270  -17.5046   21.6162 N   0  0  0  0  0  0  0  0  0  0  0  0
  -26.2358  -12.8258   20.1559 N   0  0  0  0  0  0  0  0  0  0  0  0
  -31.6640  -25.1779   18.7138 N   0  0  0  0  0  0  0  0  0  0  0  0
  -29.9659  -13.6176   20.3620 N   0  0  0  0  0  0  0  0  0  0  0  0
  -25.4668  -15.0528   20.3996 N   0  0  0  0  0  0  0  0  0  0  0  0
  -21.8842  -12.5767   21.5956 N   0  0  0  0  0  0  0  0  0  0  0  0
  -30.4044  -20.2565   23.7464 N   0  0  0  0  0  0  0  0  0  0  0  0
  -30.0742  -15.6989   21.4661 N   0  0  0  0  0  0  0  0  0  0  0  0
  -33.0196  -21.9696   17.9395 N   0  0  0  0  0  0  0  0  0  0  0  0
  -32.1379  -28.4688   18.0783 N   0  0  0  0  0  0  0  0  0  0  0  0
  -29.1295  -30.4463   17.7513 N   0  3  0  0  0  0  0  0  0  0  0  0
  -22.6576  -14.7169   21.3119 O   0  0  0  0  0  0  0  0  0  0  0  0
  -32.8241  -23.1396   19.9433 O   0  0  0  0  0  0  0  0  0  0  0  0
  -32.9423  -25.9694   16.9317 O   0  0  0  0  0  0  0  0  0  0  0  0
  -28.2657  -19.7935   24.5975 O   0  0  0  0  0  0  0  0  0  0  0  0
  -30.5668  -29.0083   19.6963 O   0  0  0  0  0  0  0  0  0  0  0  0
  -31.8519  -14.9423   20.1819 O   0  0  0  0  0  0  0  0  0  0  0  0
  -21.6171   -7.0135   21.7137 O   0  0  0  0  0  0  0  0  0  0  0  0
  -27.8114  -23.9917   23.3831 O   0  0  0  0  0  0  0  0  0  1  0  0
  -18.6250   -6.8601   26.3427 F   0  0  0  0  0  0  0  0  0  0  0  0
  -22.0691   -5.0739   23.6311 F   0  0  0  0  0  0  0  0  0  0  0  0
  -29.5145  -17.8653   22.9036 S   0  0  0  0  0  0  0  0  0  0  0  0
  1  2  1  0  0  0  0
  1  5  2  0  0  0  0
  2  6  2  0  0  0  0
  3  8  2  0  0  0  0
  3 15  1  0  0  0  0
  4  9  1  0  0  0  0
  4 15  2  0  0  0  0
  5 17  1  0  0  0  0
  6 19  1  0  0  0  0
  7 10  2  0  0  0  0
  7 18  1  0  0  0  0
  8 21  1  0  0  0  0
  9 21  2  0  0  0  0
 10 22  1  0  0  0  0
 11 12  2  0  0  0  0
 11 23  1  0  0  0  0
 12 24  1  0  0  0  0
 13 20  1  0  0  0  0
 13 22  2  0  0  0  0
 14 24  2  0  0  0  0
 14 25  1  0  0  0  0
 15 26  1  0  0  0  0
 16 26  1  0  0  0  0
 16 28  2  0  0  0  0
 16 31  1  0  0  0  0
 17 19  2  0  0  0  0
 17 37  1  0  0  0  0
 18 20  2  0  0  0  0
 18 38  1  0  0  0  0
 19 46  1  0  0  0  0
 20 39  1  0  0  0  0
 21 80  1  0  0  0  0
 22 81  1  0  0  0  0
 23 25  2  0  0  0  0
 23 80  1  0  0  0  0
 24 82  1  0  0  0  0
 25 83  1  0  0  0  0
 26 62  2  0  0  0  0
 27 29  2  0  0  0  0
 27 49  1  0  0  0  0
 27 63  1  0  0  0  0
 28 64  1  0  0  0  0
 28 67  1  0  0  0  0
 29 69  1  0  0  0  0
 29 84  1  0  0  0  0
 30 63  2  0  0  0  0
 30 70  1  0  0  0  0
 30 84  1  0  0  0  0
 31 68  1  0  0  0  0
 31 74  2  0  0  0  0
 32 47  1  0  0  0  0
 32 71  1  0  0  0  0
 32 75  2  0  0  0  0
 33 58  1  0  0  0  0
 33 65  1  0  0  0  0
 33 76  2  0  0  0  0
 34 56  1  0  0  0  0
 34 69  1  0  0  0  0
 34 77  2  0  0  0  0
 35 59  1  0  0  0  0
 35 72  1  0  0  0  0
 35 78  2  0  0  0  0
 36 66  1  0  0  0  0
 36 70  1  0  0  0  0
 36 79  2  0  0  0  0
 37 40  1  0  0  0  0
 38 47  1  0  0  0  0
 39 65  1  0  0  0  0
 40 42  1  0  0  0  0
 41 43  1  0  0  0  0
 41 44  1  0  0  0  0
 42 46  1  0  0  0  0
 43 48  1  0  0  0  0
 44 66  1  0  0  0  0
 45 48  1  0  0  0  0
 45 66  1  0  0  0  0
 46 71  1  0  0  0  0
 47 65  1  0  0  0  0
 48 64  1  0  0  0  0
 50 59  1  0  0  0  0
 51 60  1  0  0  0  0
 52 61  1  0  0  0  0
 53 61  1  0  0  0  0
 54 61  1  0  0  0  0
 55 73  1  0  0  0  0
 56 57  1  0  0  0  0
 57 60  1  0  0  0  0
 58 61  1  0  0  0  0
 58 72  1  0  0  0  0
 59 73  1  0  0  0  0
 60 81  1  0  0  0  0
 62 64  1  0  0  0  0
M  CHG  1  73   1
M  ISO  4  36 100  60 101  70 100  81 101
M  END
> <Batch ID>
0180

> <Smiles>
CNC(C)C(=O)NC(C(=O)N1Cc2cc([101O:1][101CH:1](C)CCC(=O)Nc3sc([100NH:0][100C:0](=O)N4CCCC(n5nc(-c6ccc(Oc7ccc(F)cc7F)cc6)c(C(N)=O)c5N)C4)nc3C)ccc2CC1C(=O)NC1CCCc2ccccc21)C(C)(C)C

> <Shape>
0.225

> <Color>
0.188

> <Negative vol penalty>
0.000

$$$$

  -OEChem-04052304503D

 84 92  0     1  0  0  0  0  0999 V2000
  -27.0757  -38.3571   21.1613 C   0  0  0  0  0  0  0  0  0  0  0  0
  -27.7252  -37.1379   20.9960 C   0  0  0  0  0  0  0  0  0  0  0  0
  -24.1684   -9.3353   21.5830 C   0  0  0  0  0  0  0  0  0  0  0  0
  -24.8252  -10.6884   23.4736 C   0  0  0  0  0  0  0  0  0  0  0  0
  -25.9529  -38.4416   21.9834 C   0  0  0  0  0  0  0  0  0  0  0  0
  -27.2528  -36.0028   21.6537 C   0  0  0  0  0  0  0  0  0  0  0  0
  -27.3337  -30.2426   19.5754 C   0  0  0  0  0  0  0  0  0  0  0  0
  -23.9098   -8.2647   22.4390 C   0  0  0  0  0  0  0  0  0  0  0  0
  -24.5666   -9.6179   24.3297 C   0  0  0  0  0  0  0  0  0  0  0  0
  -28.1981  -29.1736   19.8079 C   0  0  0  0  0  0  0  0  0  0  0  0
  -21.4526   -7.3032   24.5533 C   0  0  0  0  0  0  0  0  0  0  0  0
  -20.2693   -6.5903   24.3606 C   0  0  0  0  0  0  0  0  0  0  0  0
  -26.7054  -28.3451   21.5122 C   0  0  0  0  0  0  0  0  0  0  0  0
  -21.5460   -4.5762   23.9725 C   0  0  0  0  0  0  0  0  0  0  0  0
  -27.7887  -20.6887   20.1965 C   0  0  0  0  0  0  0  0  0  0  0  0
  -29.8792  -19.1217   19.4090 C   0  0  0  0  0  0  0  0  0  0  0  0
  -24.6261  -10.5471   22.1003 C   0  0  0  0  0  0  0  0  0  0  0  0
  -23.9923  -12.6559   20.8123 C   0  0  0  0  0  0  0  0  0  0  0  0
  -25.4607  -37.3049   22.6439 C   0  0  0  0  0  0  0  0  0  0  0  0
  -26.1521  -30.3770   20.3185 C   0  0  0  0  0  0  0  0  0  0  0  0
  -26.1230  -36.0725   22.4866 C   0  0  0  0  0  0  0  0  0  0  0  0
  -25.8265  -29.4153   21.2855 C   0  0  0  0  0  0  0  0  0  0  0  0
  -28.6229  -18.5440   19.4973 C   0  0  0  0  0  0  0  0  0  0  0  0
  -24.1089   -8.4060   23.8123 C   0  0  0  0  0  0  0  0  0  0  0  0
  -27.8854  -28.2262   20.7783 C   0  0  0  0  0  0  0  0  0  0  0  0
  -22.6827   -6.6527   24.4555 C   0  0  0  0  0  0  0  0  0  0  0  0
  -20.3160   -5.2268   24.0702 C   0  0  0  0  0  0  0  0  0  0  0  0
  -22.7293   -5.2892   24.1651 C   0  0  0  0  0  0  0  0  0  0  0  0
  -27.5630  -19.3493   19.8993 C   0  0  0  0  0  0  0  0  0  0  0  0
  -24.8939  -11.6532   21.2166 C   0  0  0  0  0  0  0  0  0  0  0  0
  -29.0824  -21.1703   20.0771 C   0  0  0  0  0  0  0  0  0  0  0  0
  -24.7278  -13.4636   19.9798 C   0  0  0  0  0  0  0  0  0  0  0  0
  -28.2466  -25.9159   20.8269 C   0  0  0  0  0  0  0  0  0  1  0  0
  -22.6133  -12.8408   21.1586 C   0  0  0  0  0  0  0  0  0  0  0  0
  -28.9861  -24.8176   21.0234 C   0  0  0  0  0  0  0  0  0  0  0  0
  -28.3646  -23.4720   20.7964 C   0  0  0  0  0  0  0  0  0  0  0  0
  -25.0003  -32.5558   22.3259 C   0  0  0  0  0  0  0  0  0  0  0  0
  -22.3422  -30.7009   22.1993 C   0  0  0  0  0  0  0  0  0  0  0  0
  -20.9786  -27.6289   21.6079 C   0  0  0  0  0  0  0  0  0  0  0  0
  -29.3911  -16.2566   18.7735 C   0  0  0  0  0  0  0  0  0  0  0  0
  -24.2718  -37.4553   23.5596 C   0  0  0  0  0  0  0  0  0  0  0  0
  -25.2172  -31.5212   20.0371 C   0  0  0  0  0  0  0  0  0  0  0  0
  -24.5603  -29.5030   22.0963 C   0  0  0  0  0  0  0  0  0  0  0  0
  -23.6124  -36.1278   23.9248 C   0  0  0  0  0  0  0  0  0  0  0  0
  -29.3155  -12.7938   17.9486 C   0  0  0  0  0  0  0  0  0  0  0  0
  -24.6665  -35.1004   24.3249 C   0  0  0  0  0  0  0  0  0  0  0  0
  -28.0842  -12.2709   18.6920 C   0  0  0  0  0  0  0  0  0  0  0  0
  -30.0534  -13.8616   18.7543 C   0  0  0  0  0  0  0  0  0  0  0  0
  -27.9878  -14.4559   19.9582 C   0  0  0  0  0  0  0  0  0  0  0  0
  -25.6261  -34.8136   23.1636 C   0  0  1  0  0  0  0  0  0  0  0  0
  -24.2941  -31.8406   21.2090 C   0  0  1  0  0  0  0  0  0  0  0  0
  -27.1751  -13.4249   19.1582 C   0  0  2  0  0  0  0  0  0  0  0  0
  -18.7840  -26.4119   21.6222 C   0  0  0  0  0  0  0  0  0  0  0  0
  -22.4257  -30.5912   25.2474 C   0  0  0  0  0  0  0  0  0  0  0  0
  -20.8483  -28.6494   25.1513 C   0  0  0  0  0  0  0  0  0  0  0  0
  -20.1387  -30.8749   24.2760 C   0  0  0  0  0  0  0  0  0  0  0  0
  -21.1709  -27.0097   18.7203 C   0  0  0  0  0  0  0  0  0  0  0  0
  -21.8287  -29.5141   22.9782 C   0  0  1  0  0  0  0  0  0  0  0  0
  -19.7772  -27.2017   20.7841 C   0  0  2  0  0  0  0  0  0  0  0  0
  -21.3352  -29.9065   24.3995 C   0  0  0  0  0  0  0  0  0  0  0  0
  -30.1372  -20.4187   19.6896 N   0  0  0  0  0  0  0  0  0  0  0  0
  -26.1092  -11.8075   20.6845 N   0  0  0  0  0  0  0  0  0  0  0  0
  -25.9765  -12.9167   19.9373 N   0  0  0  0  0  0  0  0  0  0  0  0
  -23.6816  -30.6435   21.7886 N   0  0  0  0  0  0  0  0  0  0  0  0
  -29.1300  -14.9244   19.1578 N   0  0  0  0  0  0  0  0  0  0  0  0
  -24.4217  -14.5812   19.2872 N   0  0  0  0  0  0  0  0  0  0  0  0
  -22.0128  -11.9184   22.0264 N   0  0  0  0  0  0  0  0  0  0  0  0
  -28.4270  -17.1754   19.1868 N   0  0  0  0  0  0  0  0  0  0  0  0
  -29.3019  -22.5350   20.3836 N   0  0  0  0  0  0  0  0  0  0  0  0
  -25.0035  -33.9319   22.1996 N   0  0  0  0  0  0  0  0  0  0  0  0
  -20.8090  -28.8882   22.1434 N   0  0  0  0  0  0  0  0  0  0  0  0
  -20.2098  -26.3494   19.6407 N   0  3  0  0  0  0  0  0  0  0  0  0
  -21.9292  -13.7863   20.6987 O   0  0  0  0  0  0  0  0  0  0  0  0
  -27.1644  -23.2943   20.9745 O   0  0  0  0  0  0  0  0  0  0  0  0
  -25.5037  -31.9074   23.2357 O   0  0  0  0  0  0  0  0  0  0  0  0
  -21.5810  -31.6410   21.9578 O   0  0  0  0  0  0  0  0  0  0  0  0
  -21.9669  -26.9151   21.7641 O   0  0  0  0  0  0  0  0  0  0  0  0
  -30.3819  -16.5561   18.1021 O   0  0  0  0  0  0  0  0  0  0  0  0
  -30.3046  -24.8730   21.4272 O   0  0  0  0  0  0  0  0  0  0  0  0
  -23.8565   -7.3617   24.6479 O   0  0  0  0  0  0  0  0  0  0  0  0
  -28.7276  -27.1822   21.0077 O   0  0  0  0  0  0  0  0  0  1  0  0
  -19.1796   -4.5420   23.8867 F   0  0  0  0  0  0  0  0  0  0  0  0
  -23.9080   -4.6585   24.0711 F   0  0  0  0  0  0  0  0  0  0  0  0
  -26.3250  -18.8463   20.0034 F   0  0  0  0  0  0  0  0  0  0  0  0
  1  2  1  0  0  0  0
  1  5  2  0  0  0  0
  2  6  2  0  0  0  0
  3  8  2  0  0  0  0
  3 17  1  0  0  0  0
  4  9  1  0  0  0  0
  4 17  2  0  0  0  0
  5 19  1  0  0  0  0
  6 21  1  0  0  0  0
  7 10  2  0  0  0  0
  7 20  1  0  0  0  0
  8 24  1  0  0  0  0
  9 24  2  0  0  0  0
 10 25  1  0  0  0  0
 11 12  2  0  0  0  0
 11 26  1  0  0  0  0
 12 27  1  0  0  0  0
 13 22  1  0  0  0  0
 13 25  2  0  0  0  0
 14 27  2  0  0  0  0
 14 28  1  0  0  0  0
 15 29  2  0  0  0  0
 15 31  1  0  0  0  0
 16 23  2  0  0  0  0
 16 61  1  0  0  0  0
 17 30  1  0  0  0  0
 18 30  1  0  0  0  0
 18 32  2  0  0  0  0
 18 34  1  0  0  0  0
 19 21  2  0  0  0  0
 19 41  1  0  0  0  0
 20 22  2  0  0  0  0
 20 42  1  0  0  0  0
 21 50  1  0  0  0  0
 22 43  1  0  0  0  0
 23 29  1  0  0  0  0
 23 68  1  0  0  0  0
 24 80  1  0  0  0  0
 25 81  1  0  0  0  0
 26 28  2  0  0  0  0
 26 80  1  0  0  0  0
 27 82  1  0  0  0  0
 28 83  1  0  0  0  0
 29 84  1  0  0  0  0
 30 62  2  0  0  0  0
 31 61  2  0  0  0  0
 31 69  1  0  0  0  0
 32 63  1  0  0  0  0
 32 66  1  0  0  0  0
 33 35  2  0  0  0  0
 33 81  1  0  0  0  0
 34 67  1  0  0  0  0
 34 73  2  0  0  0  0
 35 36  1  0  0  0  0
 35 79  1  0  0  0  0
 36 69  1  0  0  0  0
 36 74  2  0  0  0  0
 37 51  1  0  0  0  0
 37 70  1  0  0  0  0
 37 75  2  0  0  0  0
 38 58  1  0  0  0  0
 38 64  1  0  0  0  0
 38 76  2  0  0  0  0
 39 59  1  0  0  0  0
 39 71  1  0  0  0  0
 39 77  2  0  0  0  0
 40 65  1  0  0  0  0
 40 68  1  0  0  0  0
 40 78  2  0  0  0  0
 41 44  1  0  0  0  0
 42 51  1  0  0  0  0
 43 64  1  0  0  0  0
 44 46  1  0  0  0  0
 45 47  1  0  0  0  0
 45 48  1  0  0  0  0
 46 50  1  0  0  0  0
 47 52  1  0  0  0  0
 48 65  1  0  0  0  0
 49 52  1  0  0  0  0
 49 65  1  0  0  0  0
 50 70  1  0  0  0  0
 51 64  1  0  0  0  0
 52 63  1  0  0  0  0
 53 59  1  0  0  0  0
 54 60  1  0  0  0  0
 55 60  1  0  0  0  0
 56 60  1  0  0  0  0
 57 72  1  0  0  0  0
 58 60  1  0  0  0  0
 58 71  1  0  0  0  0
 59 72  1  0  0  0  0
 62 63  1  0  0  0  0
M  CHG  1  72   1
M  ISO  4  33 101  40 100  68 100  81 101
M  END
> <Batch ID>
0180

> <Smiles>
CNC(C)C(=O)NC(C(=O)N1Cc2cc([101O:1][101CH2:1]C(=O)C(=O)Nc3cc(F)c([100NH:0][100C:0](=O)N4CCCC(n5nc(-c6ccc(Oc7ccc(F)cc7F)cc6)c(C(N)=O)c5N)C4)cn3)ccc2CC1C(=O)NC1CCCc2ccccc21)C(C)(C)C

> <Shape>
0.361

> <Color>
0.112

> <Negative vol penalty>
0.000

$$$$

  -OEChem-04052304503D

 87 95  0     1  0  0  0  0  0999 V2000
  -22.5751   -7.7359   22.8008 C   0  0  0  0  0  0  0  0  0  0  0  0
  -23.5476   -8.5282   22.1992 C   0  0  0  0  0  0  0  0  0  0  0  0
  -22.5628  -28.9302   20.8506 C   0  0  0  0  0  0  0  0  0  0  0  0
  -23.4434  -27.5661   22.6396 C   0  0  0  0  0  0  0  0  0  0  0  0
  -21.2584   -8.1880   22.8772 C   0  0  0  0  0  0  0  0  0  0  0  0
  -23.2037   -9.7727   21.6727 C   0  0  0  0  0  0  0  0  0  0  0  0
  -26.5268  -13.3895   22.9057 C   0  0  0  0  0  0  0  0  0  0  0  0
  -21.3083  -28.9197   21.4601 C   0  0  0  0  0  0  0  0  0  0  0  0
  -22.1889  -27.5556   23.2492 C   0  0  0  0  0  0  0  0  0  0  0  0
  -27.7231  -13.4256   22.1906 C   0  0  0  0  0  0  0  0  0  0  0  0
  -19.7719  -30.4986   24.0251 C   0  0  0  0  0  0  0  0  0  0  0  0
  -19.0821  -31.7080   24.1095 C   0  0  0  0  0  0  0  0  0  0  0  0
  -26.8467  -15.2118   20.8265 C   0  0  0  0  0  0  0  0  0  0  0  0
  -17.2714  -30.7653   22.8172 C   0  0  0  0  0  0  0  0  0  0  0  0
  -23.6304  -28.2533   21.4403 C   0  0  0  0  0  0  0  0  0  0  0  0
  -25.9621  -29.1953   21.0121 C   0  0  0  0  0  0  0  0  0  0  0  0
  -20.9001   -9.4428   22.3600 C   0  0  0  0  0  0  0  0  0  0  0  0
  -25.4757  -14.2583   22.5789 C   0  0  0  0  0  0  0  0  0  0  0  0
  -21.8807  -10.2415   21.7411 C   0  0  0  0  0  0  0  0  0  0  0  0
  -25.6391  -15.1864   21.5407 C   0  0  0  0  0  0  0  0  0  0  0  0
  -21.1213  -28.2325   22.6594 C   0  0  0  0  0  0  0  0  0  0  0  0
  -27.8822  -14.3349   21.1490 C   0  0  0  0  0  0  0  0  0  0  0  0
  -19.2115  -29.4226   23.3368 C   0  0  0  0  0  0  0  0  0  0  0  0
  -17.8318  -31.8414   23.5055 C   0  0  0  0  0  0  0  0  0  0  0  0
  -17.9613  -29.5559   22.7328 C   0  0  0  0  0  0  0  0  0  0  0  0
  -24.9265  -28.2632   20.8109 C   0  0  0  0  0  0  0  0  0  0  0  0
  -30.7833  -20.4685   20.1698 C   0  0  0  0  0  0  0  0  0  0  0  0
  -26.9744  -28.7670   20.1884 C   0  0  0  0  0  0  0  0  0  0  0  0
  -30.4758  -20.7328   21.4880 C   0  0  0  0  0  0  0  0  0  0  0  0
  -29.3912  -22.1340   19.8561 C   0  0  0  0  0  0  0  0  0  0  0  0
  -26.0053  -30.3454   21.8671 C   0  0  0  0  0  0  0  0  0  0  0  0
  -30.9386  -15.7018   19.8036 C   0  0  0  0  0  0  0  0  0  0  0  0
  -31.5190  -16.9651   19.2385 C   0  0  0  0  0  0  0  0  0  0  0  0
  -22.4886  -13.8816   21.5595 C   0  0  0  0  0  0  0  0  0  0  0  0
  -33.1547  -19.6159   20.1568 C   0  0  0  0  0  0  0  0  0  0  0  0
  -22.3538  -17.0955   21.9775 C   0  0  0  0  0  0  0  0  0  0  0  0
  -24.0254  -20.0645   22.1721 C   0  0  0  0  0  0  0  0  0  0  0  0
  -28.4138  -23.4265   17.9273 C   0  0  0  0  0  0  0  0  0  0  0  0
  -19.4546   -9.8684   22.4238 C   0  0  0  0  0  0  0  0  0  0  0  0
  -24.2014  -14.2250   23.3774 C   0  0  0  0  0  0  0  0  0  0  0  0
  -24.5486  -16.1545   21.1635 C   0  0  0  0  0  0  0  0  0  0  0  0
  -19.2474  -11.3604   22.1759 C   0  0  0  0  0  0  0  0  0  0  0  0
  -27.7216  -26.3989   16.0935 C   0  0  0  0  0  0  0  0  0  0  0  0
  -20.0483  -11.8158   20.9601 C   0  0  0  0  0  0  0  0  0  0  0  0
  -27.0260  -27.3015   17.1151 C   0  0  0  0  0  0  0  0  0  0  0  0
  -27.3317  -24.9329   16.2736 C   0  0  0  0  0  0  0  0  0  0  0  0
  -26.8166  -25.3073   18.6534 C   0  0  0  0  0  0  0  0  0  0  0  0
  -21.5516  -11.6080   21.1804 C   0  0  1  0  0  0  0  0  0  0  0  0
  -23.0089  -14.8058   22.6239 C   0  0  1  0  0  0  0  0  0  0  0  0
  -27.2283  -26.7852   18.5532 C   0  0  2  0  0  0  0  0  0  0  0  0
  -33.8727  -20.8886   19.7833 C   0  0  0  0  0  0  0  0  0  0  0  0
  -23.6411  -22.5249   22.4822 C   0  0  0  0  0  0  0  0  0  0  0  0
  -21.3750  -17.3035   19.0950 C   0  0  0  0  0  0  0  0  0  0  0  0
  -21.9173  -19.7468   19.1607 C   0  0  0  0  0  0  0  0  0  0  0  0
  -20.1988  -18.8105   20.7075 C   0  0  0  0  0  0  0  0  0  0  0  0
  -25.6380  -20.1215   24.6531 C   0  0  0  0  0  0  0  0  0  0  0  0
  -29.4367  -15.6303   19.8995 C   0  0  0  0  0  0  0  0  0  1  0  0
  -31.7235  -19.3961   19.6694 C   0  0  1  0  0  0  0  0  0  0  0  0
  -22.6413  -18.2991   21.1128 C   0  0  1  0  0  0  0  0  0  0  0  0
  -23.9424  -21.2035   23.1721 C   0  0  2  0  0  0  0  0  0  0  0  0
  -21.5531  -18.5205   20.0246 C   0  0  0  0  0  0  0  0  0  0  0  0
  -25.2509  -27.3145   19.9285 N   0  0  0  0  0  0  0  0  0  0  0  0
  -30.1620  -21.2707   19.2326 N   0  0  0  0  0  0  0  0  0  0  0  0
  -26.5018  -27.6482   19.5678 N   0  0  0  0  0  0  0  0  0  0  0  0
  -23.3191  -16.0787   21.9697 N   0  0  0  0  0  0  0  0  0  0  0  0
  -27.5542  -24.5127   17.6588 N   0  0  0  0  0  0  0  0  0  0  0  0
  -28.2136  -29.2421   19.9416 N   0  0  0  0  0  0  0  0  0  0  0  0
  -30.9376  -20.1044   22.5963 N   0  0  0  0  0  0  0  0  0  0  0  0
  -24.8786  -30.6413   22.6463 N   0  0  0  0  0  0  0  0  0  0  0  0
  -28.5738  -23.1393   19.2825 N   0  0  0  0  0  0  0  0  0  0  0  0
  -31.2375  -18.0765   19.9992 N   0  0  0  0  0  0  0  0  0  0  0  0
  -22.0858  -12.6477   22.0337 N   0  0  0  0  0  0  0  0  0  0  0  0
  -22.8127  -19.4251   22.0244 N   0  0  0  0  0  0  0  0  0  0  0  0
  -25.2306  -21.3410   23.9087 N   0  3  0  0  0  0  0  0  0  0  0  0
  -27.0072  -31.0980   21.9257 O   0  0  0  0  0  0  0  0  0  0  0  0
  -31.7178  -14.8170   20.1244 O   0  0  0  0  0  0  0  0  0  0  0  0
  -32.1815  -16.8795   18.2166 O   0  0  0  0  0  0  0  0  0  0  0  0
  -22.4539  -14.2604   20.3946 O   0  0  0  0  0  0  0  0  0  0  0  0
  -33.7125  -18.7781   20.8710 O   0  0  0  0  0  0  0  0  0  0  0  0
  -21.3145  -17.0621   22.6412 O   0  0  0  0  0  0  0  0  0  0  0  0
  -25.0614  -19.7736   21.5783 O   0  0  0  0  0  0  0  0  0  0  0  0
  -28.9885  -22.8148   17.0232 O   0  0  0  0  0  0  0  0  0  0  0  0
  -19.8973  -28.2223   23.2546 O   0  0  0  0  0  0  0  0  0  0  0  0
  -29.0486  -14.3718   20.4489 O   0  0  0  0  0  0  0  0  0  1  0  0
  -17.1688  -33.0023   23.5879 F   0  0  0  0  0  0  0  0  0  0  0  0
  -17.4173  -28.5254   22.0711 F   0  0  0  0  0  0  0  0  0  0  0  0
  -29.3661  -22.0380   21.5694 S   0  0  0  0  0  0  0  0  0  0  0  0
  1  2  1  0  0  0  0
  1  5  2  0  0  0  0
  2  6  2  0  0  0  0
  3  8  2  0  0  0  0
  3 15  1  0  0  0  0
  4  9  1  0  0  0  0
  4 15  2  0  0  0  0
  5 17  1  0  0  0  0
  6 19  1  0  0  0  0
  7 10  2  0  0  0  0
  7 18  1  0  0  0  0
  8 21  1  0  0  0  0
  9 21  2  0  0  0  0
 10 22  1  0  0  0  0
 11 12  2  0  0  0  0
 11 23  1  0  0  0  0
 12 24  1  0  0  0  0
 13 20  1  0  0  0  0
 13 22  2  0  0  0  0
 14 24  2  0  0  0  0
 14 25  1  0  0  0  0
 15 26  1  0  0  0  0
 16 26  1  0  0  0  0
 16 28  2  0  0  0  0
 16 31  1  0  0  0  0
 17 19  2  0  0  0  0
 17 39  1  0  0  0  0
 18 20  2  0  0  0  0
 18 40  1  0  0  0  0
 19 48  1  0  0  0  0
 20 41  1  0  0  0  0
 21 83  1  0  0  0  0
 22 84  1  0  0  0  0
 23 25  2  0  0  0  0
 23 83  1  0  0  0  0
 24 85  1  0  0  0  0
 25 86  1  0  0  0  0
 26 62  2  0  0  0  0
 27 29  2  0  0  0  0
 27 58  1  0  0  0  0
 27 63  1  0  0  0  0
 28 64  1  0  0  0  0
 28 67  1  0  0  0  0
 29 68  1  0  0  0  0
 29 87  1  0  0  0  0
 30 63  2  0  0  0  0
 30 70  1  0  0  0  0
 30 87  1  0  0  0  0
 31 69  1  0  0  0  0
 31 75  2  0  0  0  0
 32 33  1  0  0  0  0
 32 57  1  0  0  0  0
 32 76  2  0  0  0  0
 33 71  1  0  0  0  0
 33 77  2  0  0  0  0
 34 49  1  0  0  0  0
 34 72  1  0  0  0  0
 34 78  2  0  0  0  0
 35 51  1  0  0  0  0
 35 58  1  0  0  0  0
 35 79  2  0  0  0  0
 36 59  1  0  0  0  0
 36 65  1  0  0  0  0
 36 80  2  0  0  0  0
 37 60  1  0  0  0  0
 37 73  1  0  0  0  0
 37 81  2  0  0  0  0
 38 66  1  0  0  0  0
 38 70  1  0  0  0  0
 38 82  2  0  0  0  0
 39 42  1  0  0  0  0
 40 49  1  0  0  0  0
 41 65  1  0  0  0  0
 42 44  1  0  0  0  0
 43 45  1  0  0  0  0
 43 46  1  0  0  0  0
 44 48  1  0  0  0  0
 45 50  1  0  0  0  0
 46 66  1  0  0  0  0
 47 50  1  0  0  0  0
 47 66  1  0  0  0  0
 48 72  1  0  0  0  0
 49 65  1  0  0  0  0
 50 64  1  0  0  0  0
 52 60  1  0  0  0  0
 53 61  1  0  0  0  0
 54 61  1  0  0  0  0
 55 61  1  0  0  0  0
 56 74  1  0  0  0  0
 57 84  1  0  0  0  0
 58 71  1  0  0  0  0
 59 61  1  0  0  0  0
 59 73  1  0  0  0  0
 60 74  1  0  0  0  0
 62 64  1  0  0  0  0
M  CHG  1  74   1
M  ISO  4  38 100  57 101  70 100  84 101
M  END
> <Batch ID>
0180

> <Smiles>
CNC(C)C(=O)NC(C(=O)N1Cc2cc([101O:1][101CH2:1]C(=O)C(=O)NC(C(C)=O)c3nc([100NH:0][100C:0](=O)N4CCCC(n5nc(-c6ccc(Oc7ccc(F)cc7F)cc6)c(C(N)=O)c5N)C4)sc3N)ccc2CC1C(=O)NC1CCCc2ccccc21)C(C)(C)C

> <Shape>
0.225

> <Color>
0.074

> <Negative vol penalty>
0.000

$$$$

  -OEChem-04052304503D

 83 91  0     1  0  0  0  0  0999 V2000
  -31.1235  -33.8311   22.4189 C   0  0  0  0  0  0  0  0  0  0  0  0
  -31.6184  -32.6509   22.9645 C   0  0  0  0  0  0  0  0  0  0  0  0
  -23.0750   -9.8602   19.9449 C   0  0  0  0  0  0  0  0  0  0  0  0
  -23.8336   -9.8746   22.2387 C   0  0  0  0  0  0  0  0  0  0  0  0
  -30.3712  -33.7936   21.2456 C   0  0  0  0  0  0  0  0  0  0  0  0
  -31.3604  -31.4323   22.3375 C   0  0  0  0  0  0  0  0  0  0  0  0
  -35.0818  -26.5767   22.0554 C   0  0  0  0  0  0  0  0  0  0  0  0
  -22.3319   -8.7072   20.1979 C   0  0  0  0  0  0  0  0  0  0  0  0
  -23.0905   -8.7216   22.4917 C   0  0  0  0  0  0  0  0  0  0  0  0
  -35.1421  -25.3968   22.7958 C   0  0  0  0  0  0  0  0  0  0  0  0
  -19.8626   -7.9231   23.0948 C   0  0  0  0  0  0  0  0  0  0  0  0
  -19.1050   -7.8860   24.2654 C   0  0  0  0  0  0  0  0  0  0  0  0
  -33.8457  -24.2734   21.0997 C   0  0  0  0  0  0  0  0  0  0  0  0
  -20.3476   -5.9518   25.0083 C   0  0  0  0  0  0  0  0  0  0  0  0
  -32.2114  -18.5410   21.9250 C   0  0  0  0  0  0  0  0  0  0  0  0
  -23.8259  -10.4439   20.9653 C   0  0  0  0  0  0  0  0  0  0  0  0
  -24.1659  -12.9689   20.8380 C   0  0  0  0  0  0  0  0  0  0  0  0
  -30.1120  -32.5750   20.5987 C   0  0  0  0  0  0  0  0  0  0  0  0
  -34.3926  -26.6166   20.8349 C   0  0  0  0  0  0  0  0  0  0  0  0
  -30.6028  -31.3784   21.1552 C   0  0  0  0  0  0  0  0  0  0  0  0
  -33.7803  -25.4543   20.3446 C   0  0  0  0  0  0  0  0  0  0  0  0
  -22.3396   -8.1379   21.4713 C   0  0  0  0  0  0  0  0  0  0  0  0
  -34.5215  -24.2457   22.3194 C   0  0  0  0  0  0  0  0  0  0  0  0
  -20.8626   -6.9744   22.8809 C   0  0  0  0  0  0  0  0  0  0  0  0
  -19.3475   -6.9004   25.2222 C   0  0  0  0  0  0  0  0  0  0  0  0
  -21.1051   -5.9888   23.8377 C   0  0  0  0  0  0  0  0  0  0  0  0
  -24.5942  -11.6346   20.7045 C   0  0  0  0  0  0  0  0  0  0  0  0
  -29.7839  -17.7470   22.7022 C   0  0  0  0  0  0  0  0  0  0  0  0
  -31.4291  -19.3351   22.7343 C   0  0  0  0  0  0  0  0  0  0  0  0
  -30.5659  -16.9533   21.8922 C   0  0  0  0  0  0  0  0  0  0  0  0
  -25.2576  -13.7182   20.4731 C   0  0  0  0  0  0  0  0  0  0  0  0
  -22.8947  -13.4850   21.2546 C   0  0  0  0  0  0  0  0  0  0  0  0
  -31.8784  -28.2171   19.7298 C   0  0  0  0  0  0  0  0  0  0  0  0
  -32.6936  -26.7941   16.9310 C   0  0  0  0  0  0  0  0  0  0  0  0
  -34.2561  -24.2092   15.3425 C   0  0  0  0  0  0  0  0  0  0  0  0
  -33.1744  -21.1469   22.8354 C   0  0  0  0  0  0  0  0  0  0  0  0
  -30.7229  -14.7686   20.6477 C   0  0  0  0  0  0  0  0  0  0  0  0
  -29.2540  -32.5797   19.3584 C   0  0  0  0  0  0  0  0  0  0  0  0
  -34.3595  -27.8902   20.0353 C   0  0  0  0  0  0  0  0  0  0  0  0
  -33.0451  -25.4394   19.0302 C   0  0  0  0  0  0  0  0  0  0  0  0
  -29.3421  -31.2865   18.5520 C   0  0  0  0  0  0  0  0  0  0  0  0
  -29.6117  -12.3468   18.2860 C   0  0  0  0  0  0  0  0  0  0  0  0
  -29.2208  -30.0751   19.4709 C   0  0  0  0  0  0  0  0  0  0  0  0
  -28.1720  -12.0554   18.7157 C   0  0  0  0  0  0  0  0  0  0  0  0
  -30.5260  -12.5800   19.4875 C   0  0  0  0  0  0  0  0  0  0  0  0
  -28.6177  -13.3070   20.8655 C   0  0  0  0  0  0  0  0  0  0  0  0
  -30.3652  -30.0396   20.4910 C   0  0  1  0  0  0  0  0  0  0  0  0
  -33.1933  -27.9493   19.0536 C   0  0  1  0  0  0  0  0  0  0  0  0
  -27.6456  -13.1295   19.6877 C   0  0  2  0  0  0  0  0  0  0  0  0
  -28.4256  -17.3204   23.1467 C   0  0  0  0  0  0  0  0  0  0  0  0
  -34.7207  -23.2974   13.0511 C   0  0  0  0  0  0  0  0  0  0  0  0
  -33.3056  -22.4635   24.9823 C   0  0  0  0  0  0  0  0  0  0  0  0
  -29.8223  -25.7768   16.7564 C   0  0  0  0  0  0  0  0  0  0  0  0
  -30.5813  -24.1409   15.0197 C   0  0  0  0  0  0  0  0  0  0  0  0
  -30.7741  -26.5909   14.5917 C   0  0  0  0  0  0  0  0  0  0  0  0
  -37.1823  -24.4567   15.7106 C   0  0  0  0  0  0  0  0  0  0  0  0
  -32.3380  -25.4953   16.2487 C   0  0  1  0  0  0  0  0  0  0  0  0
  -35.2293  -24.1835   14.1776 C   0  0  2  0  0  0  0  0  0  0  0  0
  -33.3372  -22.5291   23.4625 C   0  0  1  0  0  0  0  0  0  1  0  0
  -30.8910  -25.5014   15.6799 C   0  0  0  0  0  0  0  0  0  0  0  0
  -31.7938  -17.3359   21.4893 N   0  0  0  0  0  0  0  0  0  0  0  0
  -25.8594  -11.5385   20.2872 N   0  0  0  0  0  0  0  0  0  0  0  0
  -30.2013  -18.9523   23.1375 N   0  0  0  0  0  0  0  0  0  0  0  0
  -26.2354  -12.8220   20.1552 N   0  0  0  0  0  0  0  0  0  0  0  0
  -33.0354  -26.7110   18.2883 N   0  0  0  0  0  0  0  0  0  0  0  0
  -29.9657  -13.6130   20.3615 N   0  0  0  0  0  0  0  0  0  0  0  0
  -25.4670  -15.0496   20.3962 N   0  0  0  0  0  0  0  0  0  0  0  0
  -21.8833  -12.5760   21.5941 N   0  0  0  0  0  0  0  0  0  0  0  0
  -31.9395  -20.5884   23.1486 N   0  0  0  0  0  0  0  0  0  0  0  0
  -30.0743  -15.6956   21.4630 N   0  0  0  0  0  0  0  0  0  0  0  0
  -31.5810  -29.5592   19.8701 N   0  0  0  0  0  0  0  0  0  0  0  0
  -33.3730  -25.2638   15.2469 N   0  0  0  0  0  0  0  0  0  0  0  0
  -36.5544  -23.6656   14.6211 N   0  3  0  0  0  0  0  0  0  0  0  0
  -22.6575  -14.7156   21.3082 O   0  0  0  0  0  0  0  0  0  0  0  0
  -31.1844  -27.2757   20.0957 O   0  0  0  0  0  0  0  0  0  0  0  0
  -32.6759  -27.8429   16.2818 O   0  0  0  0  0  0  0  0  0  0  0  0
  -34.2750  -23.3750   16.2448 O   0  0  0  0  0  0  0  0  0  0  0  0
  -34.0577  -20.6564   22.1380 O   0  0  0  0  0  0  0  0  0  0  0  0
  -31.8521  -14.9368   20.1802 O   0  0  0  0  0  0  0  0  0  0  0  0
  -21.6144   -7.0130   21.7186 O   0  0  0  0  0  0  0  0  0  0  0  0
  -34.5783  -23.0929   23.0404 O   0  0  0  0  0  0  0  0  0  1  0  0
  -18.6210   -6.8659   26.3469 F   0  0  0  0  0  0  0  0  0  0  0  0
  -22.0653   -5.0755   23.6383 F   0  0  0  0  0  0  0  0  0  0  0  0
  1  2  1  0  0  0  0
  1  5  2  0  0  0  0
  2  6  2  0  0  0  0
  3  8  2  0  0  0  0
  3 16  1  0  0  0  0
  4  9  1  0  0  0  0
  4 16  2  0  0  0  0
  5 18  1  0  0  0  0
  6 20  1  0  0  0  0
  7 10  2  0  0  0  0
  7 19  1  0  0  0  0
  8 22  1  0  0  0  0
  9 22  2  0  0  0  0
 10 23  1  0  0  0  0
 11 12  2  0  0  0  0
 11 24  1  0  0  0  0
 12 25  1  0  0  0  0
 13 21  1  0  0  0  0
 13 23  2  0  0  0  0
 14 25  2  0  0  0  0
 14 26  1  0  0  0  0
 15 29  1  0  0  0  0
 15 61  2  0  0  0  0
 16 27  1  0  0  0  0
 17 27  1  0  0  0  0
 17 31  2  0  0  0  0
 17 32  1  0  0  0  0
 18 20  2  0  0  0  0
 18 38  1  0  0  0  0
 19 21  2  0  0  0  0
 19 39  1  0  0  0  0
 20 47  1  0  0  0  0
 21 40  1  0  0  0  0
 22 80  1  0  0  0  0
 23 81  1  0  0  0  0
 24 26  2  0  0  0  0
 24 80  1  0  0  0  0
 25 82  1  0  0  0  0
 26 83  1  0  0  0  0
 27 62  2  0  0  0  0
 28 30  2  0  0  0  0
 28 50  1  0  0  0  0
 28 63  1  0  0  0  0
 29 63  2  0  0  0  0
 29 69  1  0  0  0  0
 30 61  1  0  0  0  0
 30 70  1  0  0  0  0
 31 64  1  0  0  0  0
 31 67  1  0  0  0  0
 32 68  1  0  0  0  0
 32 74  2  0  0  0  0
 33 48  1  0  0  0  0
 33 71  1  0  0  0  0
 33 75  2  0  0  0  0
 34 57  1  0  0  0  0
 34 65  1  0  0  0  0
 34 76  2  0  0  0  0
 35 58  1  0  0  0  0
 35 72  1  0  0  0  0
 35 77  2  0  0  0  0
 36 59  1  0  0  0  0
 36 69  1  0  0  0  0
 36 78  2  0  0  0  0
 37 66  1  0  0  0  0
 37 70  1  0  0  0  0
 37 79  2  0  0  0  0
 38 41  1  0  0  0  0
 39 48  1  0  0  0  0
 40 65  1  0  0  0  0
 41 43  1  0  0  0  0
 42 44  1  0  0  0  0
 42 45  1  0  0  0  0
 43 47  1  0  0  0  0
 44 49  1  0  0  0  0
 45 66  1  0  0  0  0
 46 49  1  0  0  0  0
 46 66  1  0  0  0  0
 47 71  1  0  0  0  0
 48 65  1  0  0  0  0
 49 64  1  0  0  0  0
 51 58  1  0  0  0  0
 52 59  1  0  0  0  0
 53 60  1  0  0  0  0
 54 60  1  0  0  0  0
 55 60  1  0  0  0  0
 56 73  1  0  0  0  0
 57 60  1  0  0  0  0
 57 72  1  0  0  0  0
 58 73  1  0  0  0  0
 59 81  1  0  0  0  0
 62 64  1  0  0  0  0
M  CHG  1  73   1
M  ISO  4  37 100  59 101  70 100  81 101
M  END
> <Batch ID>
0180

> <Smiles>
CNC(C)C(=O)NC(C(=O)N1Cc2cc([101O:1][101CH:1](C)C(=O)Nc3cnc([100NH:0][100C:0](=O)N4CCCC(n5nc(-c6ccc(Oc7ccc(F)cc7F)cc6)c(C(N)=O)c5N)C4)c(C)n3)ccc2CC1C(=O)NC1CCCc2ccccc21)C(C)(C)C

> <Shape>
0.190

> <Color>
0.184

> <Negative vol penalty>
0.000

$$$$

  -OEChem-04052304503D

 84 92  0     1  0  0  0  0  0999 V2000
  -31.7204  -34.3721   20.7402 C   0  0  0  0  0  0  0  0  0  0  0  0
  -31.3429  -33.0790   20.3928 C   0  0  0  0  0  0  0  0  0  0  0  0
  -23.1634   -9.7585   21.5462 C   0  0  0  0  0  0  0  0  0  0  0  0
  -23.7182  -10.9347   23.5823 C   0  0  0  0  0  0  0  0  0  0  0  0
  -31.2126  -34.9577   21.8991 C   0  0  0  0  0  0  0  0  0  0  0  0
  -30.4582  -32.3703   21.2048 C   0  0  0  0  0  0  0  0  0  0  0  0
  -26.1956  -28.3661   19.3875 C   0  0  0  0  0  0  0  0  0  0  0  0
  -22.4675   -8.8036   22.2875 C   0  0  0  0  0  0  0  0  0  0  0  0
  -23.0223   -9.9798   24.3236 C   0  0  0  0  0  0  0  0  0  0  0  0
  -26.1795  -26.9730   19.3338 C   0  0  0  0  0  0  0  0  0  0  0  0
  -23.2005   -6.1003   24.1793 C   0  0  0  0  0  0  0  0  0  0  0  0
  -23.4077   -4.7578   23.8626 C   0  0  0  0  0  0  0  0  0  0  0  0
  -25.0668  -26.9094   21.4733 C   0  0  0  0  0  0  0  0  0  0  0  0
  -21.0575   -4.5139   23.3584 C   0  0  0  0  0  0  0  0  0  0  0  0
  -23.7888  -10.8241   22.1937 C   0  0  0  0  0  0  0  0  0  0  0  0
  -23.9953  -13.0014   20.8806 C   0  0  0  0  0  0  0  0  0  0  0  0
  -30.3137  -34.2594   22.7207 C   0  0  0  0  0  0  0  0  0  0  0  0
  -25.6563  -29.0421   20.4914 C   0  0  0  0  0  0  0  0  0  0  0  0
  -29.9389  -32.9466   22.3765 C   0  0  0  0  0  0  0  0  0  0  0  0
  -25.0750  -28.3112   21.5374 C   0  0  0  0  0  0  0  0  0  0  0  0
  -22.3969   -8.9143   23.6761 C   0  0  0  0  0  0  0  0  0  0  0  0
  -25.6176  -26.2444   20.3781 C   0  0  0  0  0  0  0  0  0  0  0  0
  -21.9217   -6.6496   24.0857 C   0  0  0  0  0  0  0  0  0  0  0  0
  -22.3363   -3.9646   23.4521 C   0  0  0  0  0  0  0  0  0  0  0  0
  -20.8503   -5.8564   23.6752 C   0  0  0  0  0  0  0  0  0  0  0  0
  -24.5083  -11.8105   21.4286 C   0  0  0  0  0  0  0  0  0  0  0  0
  -29.9624  -19.9769   20.1058 C   0  0  0  0  0  0  0  0  0  0  0  0
  -31.1445  -19.4006   19.6902 C   0  0  0  0  0  0  0  0  0  0  0  0
  -25.0705  -13.5819   20.2533 C   0  0  0  0  0  0  0  0  0  0  0  0
  -30.0445  -17.5710   20.1930 C   0  0  0  0  0  0  0  0  0  0  0  0
  -22.6657  -13.5353   20.9340 C   0  0  0  0  0  0  0  0  0  0  0  0
  -29.5624  -21.4048   20.1870 C   0  0  0  0  0  0  0  0  0  0  0  0
  -26.8198  -30.9946   22.7135 C   0  0  0  0  0  0  0  0  0  0  0  0
  -23.7014  -31.2446   23.5712 C   0  0  0  0  0  0  0  0  0  0  0  0
  -27.7180  -22.9145   20.8385 C   0  0  0  0  0  0  0  0  0  0  0  0
  -20.5786  -29.8680   23.5762 C   0  0  0  0  0  0  0  0  0  0  0  0
  -30.4319  -15.0819   20.1662 C   0  0  0  0  0  0  0  0  0  0  0  0
  -29.8283  -34.9164   23.9885 C   0  0  0  0  0  0  0  0  0  0  0  0
  -25.6575  -30.5459   20.5218 C   0  0  0  0  0  0  0  0  0  0  0  0
  -24.4647  -28.9898   22.7355 C   0  0  0  0  0  0  0  0  0  0  0  0
  -28.6042  -34.2367   24.5966 C   0  0  0  0  0  0  0  0  0  0  0  0
  -29.6683  -11.7370   19.2147 C   0  0  0  0  0  0  0  0  0  0  0  0
  -28.7965  -32.7239   24.6329 C   0  0  0  0  0  0  0  0  0  0  0  0
  -28.2155  -11.5559   19.6608 C   0  0  0  0  0  0  0  0  0  0  0  0
  -30.4603  -12.5974   20.1977 C   0  0  0  0  0  0  0  0  0  0  0  0
  -28.4017  -13.7162   20.9590 C   0  0  0  0  0  0  0  0  0  0  0  0
  -28.9621  -32.1548   23.2186 C   0  0  1  0  0  0  0  0  0  0  0  0
  -25.5419  -31.1151   21.9324 C   0  0  1  0  0  0  0  0  0  0  0  0
  -27.5470  -12.9105   19.9670 C   0  0  2  0  0  0  0  0  0  0  0  0
  -32.3400  -20.1204   19.2050 C   0  0  0  0  0  0  0  0  0  0  0  0
  -18.2414  -30.2892   24.3870 C   0  0  0  0  0  0  0  0  0  0  0  0
  -24.5483  -30.4812   26.4014 C   0  0  0  0  0  0  0  0  0  0  0  0
  -22.1466  -29.9939   26.9138 C   0  0  0  0  0  0  0  0  0  0  0  0
  -22.8407  -32.3044   26.2794 C   0  0  0  0  0  0  0  0  0  0  0  0
  -19.4996  -29.8740   20.8204 C   0  0  0  0  0  0  0  0  0  0  0  0
  -26.2934  -22.8254   21.3640 C   0  0  0  0  0  0  0  0  0  0  0  0
  -25.6521  -24.1886   21.5733 C   0  0  0  0  0  0  0  0  0  1  0  0
  -22.7882  -30.4969   24.5125 C   0  0  1  0  0  0  0  0  0  0  0  0
  -19.2198  -30.4520   23.2342 C   0  0  2  0  0  0  0  0  0  0  0  0
  -23.0941  -30.8060   26.0052 C   0  0  0  0  0  0  0  0  0  0  0  0
  -25.8083  -11.6428   21.1717 N   0  0  0  0  0  0  0  0  0  0  0  0
  -31.1935  -18.0211   19.7399 N   0  0  0  0  0  0  0  0  0  0  0  0
  -26.1212  -12.7361   20.4555 N   0  0  0  0  0  0  0  0  0  0  0  0
  -24.4958  -30.4616   22.7217 N   0  0  0  0  0  0  0  0  0  0  0  0
  -29.7689  -13.8662   20.4364 N   0  0  0  0  0  0  0  0  0  0  0  0
  -25.2102  -14.7280   19.5539 N   0  0  0  0  0  0  0  0  0  0  0  0
  -21.6817  -12.8105   21.6200 N   0  0  0  0  0  0  0  0  0  0  0  0
  -29.6638  -16.2220   20.4003 N   0  0  0  0  0  0  0  0  0  0  0  0
  -28.2730  -21.6446   20.6591 N   0  0  0  0  0  0  0  0  0  0  0  0
  -27.6785  -32.0657   22.5562 N   0  0  0  0  0  0  0  0  0  0  0  0
  -21.4260  -30.8200   24.1023 N   0  0  0  0  0  0  0  0  0  0  0  0
  -18.6510  -29.7731   22.0356 N   0  3  0  0  0  0  0  0  0  0  0  0
  -22.3555  -14.6149   20.3755 O   0  0  0  0  0  0  0  0  0  0  0  0
  -30.3725  -22.2715   19.8697 O   0  0  0  0  0  0  0  0  0  0  0  0
  -27.0118  -30.0039   23.4087 O   0  0  0  0  0  0  0  0  0  0  0  0
  -23.7044  -32.4781   23.5841 O   0  0  0  0  0  0  0  0  0  0  0  0
  -28.2861  -23.9780   20.6067 O   0  0  0  0  0  0  0  0  0  0  0  0
  -20.8590  -28.6846   23.3982 O   0  0  0  0  0  0  0  0  0  0  0  0
  -31.5861  -15.1090   19.7313 O   0  0  0  0  0  0  0  0  0  0  0  0
  -21.7177   -7.9828   24.3998 O   0  0  0  0  0  0  0  0  0  0  0  0
  -25.6012  -24.8845   20.3285 O   0  0  0  0  0  0  0  0  0  1  0  0
  -22.5358   -2.6758   23.1465 F   0  0  0  0  0  0  0  0  0  0  0  0
  -19.6197   -6.3788   23.5822 F   0  0  0  0  0  0  0  0  0  0  0  0
  -28.8598  -18.7512   20.5784 S   0  0  0  0  0  0  0  0  0  0  0  0
  1  2  1  0  0  0  0
  1  5  2  0  0  0  0
  2  6  2  0  0  0  0
  3  8  2  0  0  0  0
  3 15  1  0  0  0  0
  4  9  1  0  0  0  0
  4 15  2  0  0  0  0
  5 17  1  0  0  0  0
  6 19  1  0  0  0  0
  7 10  2  0  0  0  0
  7 18  1  0  0  0  0
  8 21  1  0  0  0  0
  9 21  2  0  0  0  0
 10 22  1  0  0  0  0
 11 12  2  0  0  0  0
 11 23  1  0  0  0  0
 12 24  1  0  0  0  0
 13 20  1  0  0  0  0
 13 22  2  0  0  0  0
 14 24  2  0  0  0  0
 14 25  1  0  0  0  0
 15 26  1  0  0  0  0
 16 26  1  0  0  0  0
 16 29  2  0  0  0  0
 16 31  1  0  0  0  0
 17 19  2  0  0  0  0
 17 38  1  0  0  0  0
 18 20  2  0  0  0  0
 18 39  1  0  0  0  0
 19 47  1  0  0  0  0
 20 40  1  0  0  0  0
 21 80  1  0  0  0  0
 22 81  1  0  0  0  0
 23 25  2  0  0  0  0
 23 80  1  0  0  0  0
 24 82  1  0  0  0  0
 25 83  1  0  0  0  0
 26 61  2  0  0  0  0
 27 28  2  0  0  0  0
 27 32  1  0  0  0  0
 27 84  1  0  0  0  0
 28 50  1  0  0  0  0
 28 62  1  0  0  0  0
 29 63  1  0  0  0  0
 29 66  1  0  0  0  0
 30 62  2  0  0  0  0
 30 68  1  0  0  0  0
 30 84  1  0  0  0  0
 31 67  1  0  0  0  0
 31 73  2  0  0  0  0
 32 69  1  0  0  0  0
 32 74  2  0  0  0  0
 33 48  1  0  0  0  0
 33 70  1  0  0  0  0
 33 75  2  0  0  0  0
 34 58  1  0  0  0  0
 34 64  1  0  0  0  0
 34 76  2  0  0  0  0
 35 56  1  0  0  0  0
 35 69  1  0  0  0  0
 35 77  2  0  0  0  0
 36 59  1  0  0  0  0
 36 71  1  0  0  0  0
 36 78  2  0  0  0  0
 37 65  1  0  0  0  0
 37 68  1  0  0  0  0
 37 79  2  0  0  0  0
 38 41  1  0  0  0  0
 39 48  1  0  0  0  0
 40 64  1  0  0  0  0
 41 43  1  0  0  0  0
 42 44  1  0  0  0  0
 42 45  1  0  0  0  0
 43 47  1  0  0  0  0
 44 49  1  0  0  0  0
 45 65  1  0  0  0  0
 46 49  1  0  0  0  0
 46 65  1  0  0  0  0
 47 70  1  0  0  0  0
 48 64  1  0  0  0  0
 49 63  1  0  0  0  0
 51 59  1  0  0  0  0
 52 60  1  0  0  0  0
 53 60  1  0  0  0  0
 54 60  1  0  0  0  0
 55 72  1  0  0  0  0
 56 57  1  0  0  0  0
 57 81  1  0  0  0  0
 58 60  1  0  0  0  0
 58 71  1  0  0  0  0
 59 72  1  0  0  0  0
 61 63  1  0  0  0  0
M  CHG  1  72   1
M  ISO  4  37 100  57 101  68 100  81 101
M  END
> <Batch ID>
0180

> <Smiles>
CNC(C)C(=O)NC(C(=O)N1Cc2cc([101O:1][101CH2:1]CC(=O)NC(=O)c3sc([100NH:0][100C:0](=O)N4CCCC(n5nc(-c6ccc(Oc7ccc(F)cc7F)cc6)c(C(N)=O)c5N)C4)nc3C)ccc2CC1C(=O)NC1CCCc2ccccc21)C(C)(C)C

> <Shape>
0.313

> <Color>
0.176

> <Negative vol penalty>
0.000

$$$$

  -OEChem-04052304503D

 83 91  0     1  0  0  0  0  0999 V2000
  -20.0011  -31.2113   22.0242 C   0  0  0  0  0  0  0  0  0  0  0  0
  -21.2659  -30.6412   21.9215 C   0  0  0  0  0  0  0  0  0  0  0  0
  -25.5424  -12.7400   21.3631 C   0  0  0  0  0  0  0  0  0  0  0  0
  -23.9864  -13.9458   19.9624 C   0  0  0  0  0  0  0  0  0  0  0  0
  -18.8990  -30.4108   22.3219 C   0  0  0  0  0  0  0  0  0  0  0  0
  -21.4296  -29.2703   22.1176 C   0  0  0  0  0  0  0  0  0  0  0  0
  -24.4260  -27.1526   18.6274 C   0  0  0  0  0  0  0  0  0  0  0  0
  -24.5713  -11.7685   21.6055 C   0  0  0  0  0  0  0  0  0  0  0  0
  -23.0153  -12.9743   20.2047 C   0  0  0  0  0  0  0  0  0  0  0  0
  -25.8008  -27.3307   18.7758 C   0  0  0  0  0  0  0  0  0  0  0  0
  -23.2595   -9.1012   19.9937 C   0  0  0  0  0  0  0  0  0  0  0  0
  -23.6471   -7.7636   19.9153 C   0  0  0  0  0  0  0  0  0  0  0  0
  -25.9774  -25.1231   19.7323 C   0  0  0  0  0  0  0  0  0  0  0  0
  -23.0058   -7.4426   22.2224 C   0  0  0  0  0  0  0  0  0  0  0  0
  -25.2499  -13.8287   20.5416 C   0  0  0  0  0  0  0  0  0  0  0  0
  -27.2001  -14.8471   19.2504 C   0  0  0  0  0  0  0  0  0  0  0  0
  -19.0478  -29.0280   22.5122 C   0  0  0  0  0  0  0  0  0  0  0  0
  -23.8139  -25.9607   19.0411 C   0  0  0  0  0  0  0  0  0  0  0  0
  -20.3287  -28.4508   22.4195 C   0  0  0  0  0  0  0  0  0  0  0  0
  -24.5951  -24.9314   19.5857 C   0  0  0  0  0  0  0  0  0  0  0  0
  -23.3078  -11.8856   21.0263 C   0  0  0  0  0  0  0  0  0  0  0  0
  -26.5763  -26.3170   19.3310 C   0  0  0  0  0  0  0  0  0  0  0  0
  -22.7451   -9.6096   21.1864 C   0  0  0  0  0  0  0  0  0  0  0  0
  -23.5202   -6.9343   21.0297 C   0  0  0  0  0  0  0  0  0  0  0  0
  -22.6182   -8.7803   22.3008 C   0  0  0  0  0  0  0  0  0  0  0  0
  -26.2524  -14.8329   20.2913 C   0  0  0  0  0  0  0  0  0  0  0  0
  -29.9921  -23.9350   17.4918 C   0  0  0  0  0  0  0  0  0  0  0  0
  -27.9138  -16.0033   19.4516 C   0  0  0  0  0  0  0  0  0  0  0  0
  -29.8695  -23.1724   16.3492 C   0  0  0  0  0  0  0  0  0  0  0  0
  -28.9811  -22.1949   18.3636 C   0  0  0  0  0  0  0  0  0  0  0  0
  -27.4160  -13.9000   18.1959 C   0  0  0  0  0  0  0  0  0  0  0  0
  -30.6183  -25.2744   17.5407 C   0  0  0  0  0  0  0  0  0  0  0  0
  -30.7032  -26.0244   18.8348 C   0  0  0  0  0  0  0  0  0  0  0  0
  -21.6005  -25.2054   21.1937 C   0  0  0  0  0  0  0  0  0  0  0  0
  -21.8751  -22.2574   19.8684 C   0  0  0  0  0  0  0  0  0  0  0  0
  -23.7833  -20.0337   18.1190 C   0  0  0  0  0  0  0  0  0  0  0  0
  -28.1469  -21.4427   20.6185 C   0  0  0  0  0  0  0  0  0  0  0  0
  -17.8342  -28.2109   22.8788 C   0  0  0  0  0  0  0  0  0  0  0  0
  -22.3338  -25.7738   18.8495 C   0  0  0  0  0  0  0  0  0  0  0  0
  -23.9894  -23.6249   20.0269 C   0  0  0  0  0  0  0  0  0  0  0  0
  -18.0358  -26.7081   22.7025 C   0  0  0  0  0  0  0  0  0  0  0  0
  -27.9704  -19.1985   23.3771 C   0  0  0  0  0  0  0  0  0  0  0  0
  -19.3682  -26.2739   23.3050 C   0  0  0  0  0  0  0  0  0  0  0  0
  -27.5857  -17.8638   22.7345 C   0  0  0  0  0  0  0  0  0  0  0  0
  -27.2829  -20.3774   22.6906 C   0  0  0  0  0  0  0  0  0  0  0  0
  -27.0772  -19.1038   20.5919 C   0  0  0  0  0  0  0  0  0  0  0  0
  -20.5429  -26.9638   22.6010 C   0  0  1  0  0  0  0  0  0  0  0  0
  -21.7395  -24.7198   19.7786 C   0  0  1  0  0  0  0  0  0  0  0  0
  -27.7955  -17.8921   21.2079 C   0  0  2  0  0  0  0  0  0  0  0  0
  -23.7526  -17.6906   17.2211 C   0  0  0  0  0  0  0  0  0  0  0  0
  -22.3647  -21.1765   22.6794 C   0  0  0  0  0  0  0  0  0  0  0  0
  -23.2505  -19.0769   21.6424 C   0  0  0  0  0  0  0  0  0  0  0  0
  -20.8800  -19.7519   21.2578 C   0  0  0  0  0  0  0  0  0  0  0  0
  -24.0768  -20.9753   15.3286 C   0  0  0  0  0  0  0  0  0  0  0  0
  -30.0582  -27.3913   18.8505 C   0  0  0  0  0  0  0  0  0  0  0  0
  -28.5727  -27.3317   18.5304 C   0  0  0  0  0  0  0  0  0  1  0  0
  -22.7358  -21.0446   20.1278 C   0  0  1  0  0  0  0  0  0  0  0  0
  -23.4638  -19.1538   16.9240 C   0  0  2  0  0  0  0  0  0  0  0  0
  -22.3192  -20.2877   21.4204 C   0  0  0  0  0  0  0  0  0  0  0  0
  -26.3524  -15.8956   21.0942 N   0  0  0  0  0  0  0  0  0  0  0  0
  -29.4829  -23.3762   18.6478 N   0  0  0  0  0  0  0  0  0  0  0  0
  -27.3715  -16.5884   20.5578 N   0  0  0  0  0  0  0  0  0  0  0  0
  -22.5371  -23.4926   19.8247 N   0  0  0  0  0  0  0  0  0  0  0  0
  -27.5290  -20.3411   21.2474 N   0  0  0  0  0  0  0  0  0  0  0  0
  -28.9460  -16.5664   18.7884 N   0  0  0  0  0  0  0  0  0  0  0  0
  -30.2760  -23.4728   15.0912 N   0  0  0  0  0  0  0  0  0  0  0  0
  -26.5929  -12.7672   18.1364 N   0  0  0  0  0  0  0  0  0  0  0  0
  -28.3592  -21.2808   19.2498 N   0  0  0  0  0  0  0  0  0  0  0  0
  -20.8106  -26.3314   21.3271 N   0  0  0  0  0  0  0  0  0  0  0  0
  -22.6760  -20.2349   18.9157 N   0  0  0  0  0  0  0  0  0  0  0  0
  -24.2793  -19.5640   15.7459 N   0  3  0  0  0  0  0  0  0  0  0  0
  -28.3230  -14.0453   17.3417 O   0  0  0  0  0  0  0  0  0  0  0  0
  -31.1035  -25.8234   16.5625 O   0  0  0  0  0  0  0  0  0  0  0  0
  -31.3062  -25.4927   19.7541 O   0  0  0  0  0  0  0  0  0  0  0  0
  -22.1666  -24.6023   22.0978 O   0  0  0  0  0  0  0  0  0  0  0  0
  -20.6611  -22.1134   19.7033 O   0  0  0  0  0  0  0  0  0  0  0  0
  -24.9040  -20.4933   18.3271 O   0  0  0  0  0  0  0  0  0  0  0  0
  -28.4891  -22.4441   21.2528 O   0  0  0  0  0  0  0  0  0  0  0  0
  -22.3601  -10.9376   21.2624 O   0  0  0  0  0  0  0  0  0  0  0  0
  -27.9183  -26.4884   19.4776 O   0  0  0  0  0  0  0  0  0  1  0  0
  -23.8910   -5.6494   20.9538 F   0  0  0  0  0  0  0  0  0  0  0  0
  -22.1236   -9.2627   23.4490 F   0  0  0  0  0  0  0  0  0  0  0  0
  -29.0882  -21.6929   16.7261 S   0  0  0  0  0  0  0  0  0  0  0  0
  1  2  1  0  0  0  0
  1  5  2  0  0  0  0
  2  6  2  0  0  0  0
  3  8  2  0  0  0  0
  3 15  1  0  0  0  0
  4  9  1  0  0  0  0
  4 15  2  0  0  0  0
  5 17  1  0  0  0  0
  6 19  1  0  0  0  0
  7 10  2  0  0  0  0
  7 18  1  0  0  0  0
  8 21  1  0  0  0  0
  9 21  2  0  0  0  0
 10 22  1  0  0  0  0
 11 12  2  0  0  0  0
 11 23  1  0  0  0  0
 12 24  1  0  0  0  0
 13 20  1  0  0  0  0
 13 22  2  0  0  0  0
 14 24  2  0  0  0  0
 14 25  1  0  0  0  0
 15 26  1  0  0  0  0
 16 26  1  0  0  0  0
 16 28  2  0  0  0  0
 16 31  1  0  0  0  0
 17 19  2  0  0  0  0
 17 38  1  0  0  0  0
 18 20  2  0  0  0  0
 18 39  1  0  0  0  0
 19 47  1  0  0  0  0
 20 40  1  0  0  0  0
 21 79  1  0  0  0  0
 22 80  1  0  0  0  0
 23 25  2  0  0  0  0
 23 79  1  0  0  0  0
 24 81  1  0  0  0  0
 25 82  1  0  0  0  0
 26 60  2  0  0  0  0
 27 29  2  0  0  0  0
 27 32  1  0  0  0  0
 27 61  1  0  0  0  0
 28 62  1  0  0  0  0
 28 65  1  0  0  0  0
 29 66  1  0  0  0  0
 29 83  1  0  0  0  0
 30 61  2  0  0  0  0
 30 68  1  0  0  0  0
 30 83  1  0  0  0  0
 31 67  1  0  0  0  0
 31 72  2  0  0  0  0
 32 33  1  0  0  0  0
 32 73  2  0  0  0  0
 33 55  1  0  0  0  0
 33 74  2  0  0  0  0
 34 48  1  0  0  0  0
 34 69  1  0  0  0  0
 34 75  2  0  0  0  0
 35 57  1  0  0  0  0
 35 63  1  0  0  0  0
 35 76  2  0  0  0  0
 36 58  1  0  0  0  0
 36 70  1  0  0  0  0
 36 77  2  0  0  0  0
 37 64  1  0  0  0  0
 37 68  1  0  0  0  0
 37 78  2  0  0  0  0
 38 41  1  0  0  0  0
 39 48  1  0  0  0  0
 40 63  1  0  0  0  0
 41 43  1  0  0  0  0
 42 44  1  0  0  0  0
 42 45  1  0  0  0  0
 43 47  1  0  0  0  0
 44 49  1  0  0  0  0
 45 64  1  0  0  0  0
 46 49  1  0  0  0  0
 46 64  1  0  0  0  0
 47 69  1  0  0  0  0
 48 63  1  0  0  0  0
 49 62  1  0  0  0  0
 50 58  1  0  0  0  0
 51 59  1  0  0  0  0
 52 59  1  0  0  0  0
 53 59  1  0  0  0  0
 54 71  1  0  0  0  0
 55 56  1  0  0  0  0
 56 80  1  0  0  0  0
 57 59  1  0  0  0  0
 57 70  1  0  0  0  0
 58 71  1  0  0  0  0
 60 62  1  0  0  0  0
M  CHG  1  71   1
M  ISO  4  37 100  56 101  68 100  80 101
M  END
> <Batch ID>
0180

> <Smiles>
CNC(C)C(=O)NC(C(=O)N1Cc2cc([101O:1][101CH2:1]CC(=O)C(=O)c3nc([100NH:0][100C:0](=O)N4CCCC(n5nc(-c6ccc(Oc7ccc(F)cc7F)cc6)c(C(N)=O)c5N)C4)sc3N)ccc2CC1C(=O)NC1CCCc2ccccc21)C(C)(C)C

> <Shape>
0.240

> <Color>
0.068

> <Negative vol penalty>
0.000

$$$$

  -OEChem-04052304503D

 84 92  0     1  0  0  0  0  0999 V2000
  -28.4491  -30.0920   19.6239 C   0  0  0  0  0  0  0  0  0  0  0  0
  -28.3950  -29.0862   20.5836 C   0  0  0  0  0  0  0  0  0  0  0  0
  -23.0462   -9.8349   19.9659 C   0  0  0  0  0  0  0  0  0  0  0  0
  -23.7637   -9.8984   22.2720 C   0  0  0  0  0  0  0  0  0  0  0  0
  -27.3354  -30.9001   19.3993 C   0  0  0  0  0  0  0  0  0  0  0  0
  -27.2275  -28.8888   21.3200 C   0  0  0  0  0  0  0  0  0  0  0  0
  -25.9764  -23.9967   21.7033 C   0  0  0  0  0  0  0  0  0  0  0  0
  -22.3023   -8.6847   20.2289 C   0  0  0  0  0  0  0  0  0  0  0  0
  -23.0197   -8.7482   22.5351 C   0  0  0  0  0  0  0  0  0  0  0  0
  -26.6818  -23.2297   22.6296 C   0  0  0  0  0  0  0  0  0  0  0  0
  -23.3335   -5.4155   22.0608 C   0  0  0  0  0  0  0  0  0  0  0  0
  -23.9395   -4.4097   22.8137 C   0  0  0  0  0  0  0  0  0  0  0  0
  -24.8515  -23.4384   24.1871 C   0  0  0  0  0  0  0  0  0  0  0  0
  -22.2063   -4.6158   24.4842 C   0  0  0  0  0  0  0  0  0  0  0  0
  -23.7770  -10.4417   20.9874 C   0  0  0  0  0  0  0  0  0  0  0  0
  -24.1114  -12.9648   20.8148 C   0  0  0  0  0  0  0  0  0  0  0  0
  -26.1504  -30.7062   20.1265 C   0  0  0  0  0  0  0  0  0  0  0  0
  -24.7057  -24.5002   22.0166 C   0  0  0  0  0  0  0  0  0  0  0  0
  -26.0973  -29.6960   21.1058 C   0  0  0  0  0  0  0  0  0  0  0  0
  -24.1310  -24.2093   23.2620 C   0  0  0  0  0  0  0  0  0  0  0  0
  -22.2890   -8.1414   21.5136 C   0  0  0  0  0  0  0  0  0  0  0  0
  -26.1206  -22.9529   23.8728 C   0  0  0  0  0  0  0  0  0  0  0  0
  -22.1639   -6.0214   22.5197 C   0  0  0  0  0  0  0  0  0  0  0  0
  -23.3759   -4.0099   24.0253 C   0  0  0  0  0  0  0  0  0  0  0  0
  -21.6003   -5.6215   23.7313 C   0  0  0  0  0  0  0  0  0  0  0  0
  -24.5462  -11.6295   20.7161 C   0  0  0  0  0  0  0  0  0  0  0  0
  -31.7045  -18.7811   22.2284 C   0  0  0  0  0  0  0  0  0  0  0  0
  -25.2072  -13.7103   20.4542 C   0  0  0  0  0  0  0  0  0  0  0  0
  -30.5880  -19.1608   22.9435 C   0  0  0  0  0  0  0  0  0  0  0  0
  -30.4794  -16.9915   21.9019 C   0  0  0  0  0  0  0  0  0  0  0  0
  -22.8314  -13.4849   21.1982 C   0  0  0  0  0  0  0  0  0  0  0  0
  -29.1482  -21.9549   25.0222 C   0  0  0  0  0  0  0  0  0  0  0  0
  -28.0209  -22.6661   25.2059 C   0  0  0  0  0  0  0  0  0  1  0  0
  -29.1016  -20.6052   24.3667 C   0  0  0  0  0  0  0  0  0  0  0  0
  -23.4507  -27.4075   22.2938 C   0  0  0  0  0  0  0  0  0  0  0  0
  -20.6842  -25.7538   22.6599 C   0  0  0  0  0  0  0  0  0  0  0  0
  -19.1475  -22.8362   23.5389 C   0  0  0  0  0  0  0  0  0  0  0  0
  -30.6652  -14.7827   20.7049 C   0  0  0  0  0  0  0  0  0  0  0  0
  -24.9880  -31.6355   19.8816 C   0  0  0  0  0  0  0  0  0  0  0  0
  -23.9465  -25.3035   20.9963 C   0  0  0  0  0  0  0  0  0  0  0  0
  -22.7614  -24.7093   23.6396 C   0  0  0  0  0  0  0  0  0  0  0  0
  -23.6658  -31.1177   20.4419 C   0  0  0  0  0  0  0  0  0  0  0  0
  -29.6038  -12.3099   18.3734 C   0  0  0  0  0  0  0  0  0  0  0  0
  -23.8532  -30.6071   21.8670 C   0  0  0  0  0  0  0  0  0  0  0  0
  -28.1576  -12.0223   18.7831 C   0  0  0  0  0  0  0  0  0  0  0  0
  -30.4957  -12.5704   19.5859 C   0  0  0  0  0  0  0  0  0  0  0  0
  -28.5609  -13.3186   20.9148 C   0  0  0  0  0  0  0  0  0  0  0  0
  -24.8407  -29.4347   21.9076 C   0  0  1  0  0  0  0  0  0  0  0  0
  -22.8756  -26.1964   21.6153 C   0  0  1  0  0  0  0  0  0  0  0  0
  -27.6106  -13.1140   19.7236 C   0  0  2  0  0  0  0  0  0  0  0  0
  -32.9358  -19.5781   22.0513 C   0  0  0  0  0  0  0  0  0  0  0  0
  -27.9809  -24.0147   25.8635 C   0  0  0  0  0  0  0  0  0  0  0  0
  -16.8740  -21.7998   23.7723 C   0  0  0  0  0  0  0  0  0  0  0  0
  -20.2449  -27.3067   25.2494 C   0  0  0  0  0  0  0  0  0  0  0  0
  -18.5251  -25.6059   25.8958 C   0  0  0  0  0  0  0  0  0  0  0  0
  -18.1914  -27.0011   23.8551 C   0  0  0  0  0  0  0  0  0  0  0  0
  -19.7598  -20.7586   21.5220 C   0  0  0  0  0  0  0  0  0  0  0  0
  -19.9348  -25.1702   23.8333 C   0  0  1  0  0  0  0  0  0  0  0  0
  -18.0654  -22.0214   22.8535 C   0  0  2  0  0  0  0  0  0  0  0  0
  -19.2507  -26.2630   24.7023 C   0  0  0  0  0  0  0  0  0  0  0  0
  -25.8189  -11.5294   20.3235 N   0  0  0  0  0  0  0  0  0  0  0  0
  -31.6441  -17.5373   21.6307 N   0  0  0  0  0  0  0  0  0  0  0  0
  -26.1932  -12.8112   20.1722 N   0  0  0  0  0  0  0  0  0  0  0  0
  -22.0614  -25.4958   22.6105 N   0  0  0  0  0  0  0  0  0  0  0  0
  -29.9168  -13.6189   20.4287 N   0  0  0  0  0  0  0  0  0  0  0  0
  -25.4138  -15.0406   20.3541 N   0  0  0  0  0  0  0  0  0  0  0  0
  -21.8169  -12.5795   21.5379 N   0  0  0  0  0  0  0  0  0  0  0  0
  -30.2754  -20.3310   23.6776 N   0  0  0  0  0  0  0  0  0  0  0  0
  -29.9994  -15.7237   21.4895 N   0  0  0  0  0  0  0  0  0  0  0  0
  -24.1985  -28.2173   21.4604 N   0  0  0  0  0  0  0  0  0  0  0  0
  -19.0136  -24.1838   23.2795 N   0  0  0  0  0  0  0  0  0  0  0  0
  -18.5986  -20.6908   22.4461 N   0  3  0  0  0  0  0  0  0  0  0  0
  -22.5894  -14.7155   21.2224 O   0  0  0  0  0  0  0  0  0  0  0  0
  -28.1111  -19.8904   24.4705 O   0  0  0  0  0  0  0  0  0  0  0  0
  -23.2310  -27.5941   23.4848 O   0  0  0  0  0  0  0  0  0  0  0  0
  -20.0690  -26.4083   21.8145 O   0  0  0  0  0  0  0  0  0  0  0  0
  -20.0217  -22.3283   24.2377 O   0  0  0  0  0  0  0  0  0  0  0  0
  -31.8021  -14.9453   20.2543 O   0  0  0  0  0  0  0  0  0  0  0  0
  -30.3752  -22.4378   25.4371 O   0  0  0  0  0  0  0  0  0  0  0  0
  -21.5629   -7.0192   21.7707 O   0  0  0  0  0  0  0  0  0  0  0  0
  -26.8072  -22.2052   24.7790 O   0  0  0  0  0  0  0  0  0  1  0  0
  -23.9572   -3.0430   24.7475 F   0  0  0  0  0  0  0  0  0  0  0  0
  -20.4761   -6.1991   24.1767 F   0  0  0  0  0  0  0  0  0  0  0  0
  -29.4077  -17.9187   22.8699 S   0  0  0  0  0  0  0  0  0  0  0  0
  1  2  1  0  0  0  0
  1  5  2  0  0  0  0
  2  6  2  0  0  0  0
  3  8  2  0  0  0  0
  3 15  1  0  0  0  0
  4  9  1  0  0  0  0
  4 15  2  0  0  0  0
  5 17  1  0  0  0  0
  6 19  1  0  0  0  0
  7 10  2  0  0  0  0
  7 18  1  0  0  0  0
  8 21  1  0  0  0  0
  9 21  2  0  0  0  0
 10 22  1  0  0  0  0
 11 12  2  0  0  0  0
 11 23  1  0  0  0  0
 12 24  1  0  0  0  0
 13 20  1  0  0  0  0
 13 22  2  0  0  0  0
 14 24  2  0  0  0  0
 14 25  1  0  0  0  0
 15 26  1  0  0  0  0
 16 26  1  0  0  0  0
 16 28  2  0  0  0  0
 16 31  1  0  0  0  0
 17 19  2  0  0  0  0
 17 39  1  0  0  0  0
 18 20  2  0  0  0  0
 18 40  1  0  0  0  0
 19 48  1  0  0  0  0
 20 41  1  0  0  0  0
 21 80  1  0  0  0  0
 22 81  1  0  0  0  0
 23 25  2  0  0  0  0
 23 80  1  0  0  0  0
 24 82  1  0  0  0  0
 25 83  1  0  0  0  0
 26 61  2  0  0  0  0
 27 29  2  0  0  0  0
 27 51  1  0  0  0  0
 27 62  1  0  0  0  0
 28 63  1  0  0  0  0
 28 66  1  0  0  0  0
 29 68  1  0  0  0  0
 29 84  1  0  0  0  0
 30 62  2  0  0  0  0
 30 69  1  0  0  0  0
 30 84  1  0  0  0  0
 31 67  1  0  0  0  0
 31 73  2  0  0  0  0
 32 33  2  0  0  0  0
 32 34  1  0  0  0  0
 32 79  1  0  0  0  0
 33 52  1  0  0  0  0
 33 81  1  0  0  0  0
 34 68  1  0  0  0  0
 34 74  2  0  0  0  0
 35 49  1  0  0  0  0
 35 70  1  0  0  0  0
 35 75  2  0  0  0  0
 36 58  1  0  0  0  0
 36 64  1  0  0  0  0
 36 76  2  0  0  0  0
 37 59  1  0  0  0  0
 37 71  1  0  0  0  0
 37 77  2  0  0  0  0
 38 65  1  0  0  0  0
 38 69  1  0  0  0  0
 38 78  2  0  0  0  0
 39 42  1  0  0  0  0
 40 49  1  0  0  0  0
 41 64  1  0  0  0  0
 42 44  1  0  0  0  0
 43 45  1  0  0  0  0
 43 46  1  0  0  0  0
 44 48  1  0  0  0  0
 45 50  1  0  0  0  0
 46 65  1  0  0  0  0
 47 50  1  0  0  0  0
 47 65  1  0  0  0  0
 48 70  1  0  0  0  0
 49 64  1  0  0  0  0
 50 63  1  0  0  0  0
 53 59  1  0  0  0  0
 54 60  1  0  0  0  0
 55 60  1  0  0  0  0
 56 60  1  0  0  0  0
 57 72  1  0  0  0  0
 58 60  1  0  0  0  0
 58 71  1  0  0  0  0
 59 72  1  0  0  0  0
 61 63  1  0  0  0  0
M  CHG  1  72   1
M  ISO  4  33 101  38 100  69 100  81 101
M  END
> <Batch ID>
0180

> <Smiles>
CNC(C)C(=O)NC(C(=O)N1Cc2cc([101O:1][101CH:1](C)C(=O)C(=O)Nc3sc([100NH:0][100C:0](=O)N4CCCC(n5nc(-c6ccc(Oc7ccc(F)cc7F)cc6)c(C(N)=O)c5N)C4)nc3C)ccc2CC1C(=O)NC1CCCc2ccccc21)C(C)(C)C

> <Shape>
0.258

> <Color>
0.214

> <Negative vol penalty>
0.000

$$$$

  -OEChem-04052304503D

 85 93  0     1  0  0  0  0  0999 V2000
  -28.9674  -35.3577   15.6399 C   0  0  0  0  0  0  0  0  0  0  0  0
  -28.4174  -34.0809   15.5875 C   0  0  0  0  0  0  0  0  0  0  0  0
  -24.2181   -8.4665   20.3998 C   0  0  0  0  0  0  0  0  0  0  0  0
  -22.8727  -10.3255   21.1554 C   0  0  0  0  0  0  0  0  0  0  0  0
  -29.4355  -35.8647   16.8514 C   0  0  0  0  0  0  0  0  0  0  0  0
  -28.3362  -33.3098   16.7465 C   0  0  0  0  0  0  0  0  0  0  0  0
  -23.9098  -29.3453   18.2281 C   0  0  0  0  0  0  0  0  0  0  0  0
  -23.2434   -7.5771   20.8520 C   0  0  0  0  0  0  0  0  0  0  0  0
  -21.8979   -9.4361   21.6076 C   0  0  0  0  0  0  0  0  0  0  0  0
  -23.8204  -27.9578   18.1253 C   0  0  0  0  0  0  0  0  0  0  0  0
  -22.2602   -6.2478   23.8000 C   0  0  0  0  0  0  0  0  0  0  0  0
  -22.6865   -5.1301   24.5175 C   0  0  0  0  0  0  0  0  0  0  0  0
  -24.5265  -27.7481   20.4223 C   0  0  0  0  0  0  0  0  0  0  0  0
  -21.6993   -3.6846   22.8521 C   0  0  0  0  0  0  0  0  0  0  0  0
  -24.0329   -9.8406   20.5515 C   0  0  0  0  0  0  0  0  0  0  0  0
  -25.1305  -11.3449   18.8079 C   0  0  0  0  0  0  0  0  0  0  0  0
  -29.3511  -35.1031   18.0277 C   0  0  0  0  0  0  0  0  0  0  0  0
  -24.3195  -29.9452   19.4276 C   0  0  0  0  0  0  0  0  0  0  0  0
  -28.8048  -33.8065   17.9746 C   0  0  0  0  0  0  0  0  0  0  0  0
  -24.6178  -29.1435   20.5386 C   0  0  0  0  0  0  0  0  0  0  0  0
  -22.0832   -8.0620   21.4559 C   0  0  0  0  0  0  0  0  0  0  0  0
  -24.1315  -27.1588   19.2216 C   0  0  0  0  0  0  0  0  0  0  0  0
  -21.5535   -6.0839   22.6086 C   0  0  0  0  0  0  0  0  0  0  0  0
  -22.4060   -3.8485   24.0435 C   0  0  0  0  0  0  0  0  0  0  0  0
  -21.2731   -4.8023   22.1347 C   0  0  0  0  0  0  0  0  0  0  0  0
  -25.0397  -10.7598   20.0851 C   0  0  0  0  0  0  0  0  0  0  0  0
  -30.1132  -19.6134   19.3451 C   0  0  0  0  0  0  0  0  0  0  0  0
  -29.0539  -19.6736   18.4640 C   0  0  0  0  0  0  0  0  0  0  0  0
  -26.2534  -12.1333   18.8705 C   0  0  0  0  0  0  0  0  0  0  0  0
  -29.1213  -17.7357   19.8932 C   0  0  0  0  0  0  0  0  0  0  0  0
  -26.4541  -23.3343   18.9416 C   0  0  0  0  0  0  0  0  0  0  0  0
  -24.2761  -11.1896   17.6671 C   0  0  0  0  0  0  0  0  0  0  0  0
  -25.2105  -23.7109   19.2886 C   0  0  0  0  0  0  0  0  0  0  0  0
  -26.7855  -22.0267   18.3054 C   0  0  0  0  0  0  0  0  0  0  0  0
  -26.7631  -31.7831   20.2962 C   0  0  0  0  0  0  0  0  0  0  0  0
  -25.1507  -31.9267   23.1073 C   0  0  0  0  0  0  0  0  0  0  0  0
  -22.8902  -30.4971   25.2270 C   0  0  0  0  0  0  0  0  0  0  0  0
  -29.4638  -15.8367   21.5127 C   0  0  0  0  0  0  0  0  0  0  0  0
  -29.9135  -35.6753   19.3048 C   0  0  0  0  0  0  0  0  0  0  0  0
  -24.3851  -31.4444   19.5304 C   0  0  0  0  0  0  0  0  0  0  0  0
  -25.0430  -29.7391   21.8550 C   0  0  0  0  0  0  0  0  0  0  0  0
  -29.4485  -34.9393   20.5587 C   0  0  0  0  0  0  0  0  0  0  0  0
  -29.8931  -12.4095   22.3773 C   0  0  0  0  0  0  0  0  0  0  0  0
  -29.5672  -33.4306   20.3670 C   0  0  0  0  0  0  0  0  0  0  0  0
  -28.6762  -11.7229   21.7530 C   0  0  0  0  0  0  0  0  0  0  0  0
  -29.5453  -13.7930   22.9240 C   0  0  0  0  0  0  0  0  0  0  0  0
  -27.6674  -14.0037   21.3434 C   0  0  0  0  0  0  0  0  0  0  0  0
  -28.6768  -32.9492   19.2151 C   0  0  1  0  0  0  0  0  0  0  0  0
  -25.3086  -31.9270   20.6447 C   0  0  1  0  0  0  0  0  0  0  0  0
  -27.9831  -12.6338   20.7208 C   0  0  2  0  0  0  0  0  0  0  0  0
  -31.1878  -20.6175   19.4829 C   0  0  0  0  0  0  0  0  0  0  0  0
  -21.8063  -30.8281   27.4660 C   0  0  0  0  0  0  0  0  0  0  0  0
  -27.7167  -31.0124   24.4819 C   0  0  0  0  0  0  0  0  0  0  0  0
  -26.3513  -30.4531   26.5046 C   0  0  0  0  0  0  0  0  0  0  0  0
  -26.4677  -32.8090   25.6929 C   0  0  0  0  0  0  0  0  0  0  0  0
  -20.1891  -30.6470   24.0268 C   0  0  0  0  0  0  0  0  0  0  0  0
  -28.7012  -20.7183   17.4451 C   0  0  0  0  0  0  0  0  0  0  0  0
  -24.9348  -25.0369   19.9342 C   0  0  0  0  0  0  0  0  0  1  0  0
  -25.1388  -31.1085   24.3759 C   0  0  1  0  0  0  0  0  0  0  0  0
  -21.6994  -31.0762   25.9694 C   0  0  2  0  0  0  0  0  0  0  0  0
  -26.4125  -31.3341   25.2386 C   0  0  0  0  0  0  0  0  0  0  0  0
  -26.0264  -11.1436   20.8994 N   0  0  0  0  0  0  0  0  0  0  0  0
  -30.1533  -18.5031   20.1658 N   0  0  0  0  0  0  0  0  0  0  0  0
  -26.7479  -11.9782   20.1320 N   0  0  0  0  0  0  0  0  0  0  0  0
  -25.0981  -31.2095   21.9037 N   0  0  0  0  0  0  0  0  0  0  0  0
  -28.8959  -14.6013   21.8897 N   0  0  0  0  0  0  0  0  0  0  0  0
  -26.8563  -12.9370   17.9688 N   0  0  0  0  0  0  0  0  0  0  0  0
  -23.1656  -10.3413   17.7745 N   0  0  0  0  0  0  0  0  0  0  0  0
  -28.7770  -16.5010   20.4971 N   0  0  0  0  0  0  0  0  0  0  0  0
  -28.1422  -21.9018   18.0556 N   0  0  0  0  0  0  0  0  0  0  0  0
  -27.2953  -32.8767   19.6403 N   0  0  0  0  0  0  0  0  0  0  0  0
  -23.8902  -31.4313   25.0581 N   0  0  0  0  0  0  0  0  0  0  0  0
  -20.4341  -30.4594   25.4800 N   0  3  0  0  0  0  0  0  0  0  0  0
  -24.5002  -11.7728   16.5793 O   0  0  0  0  0  0  0  0  0  0  0  0
  -25.9379  -21.1792   18.0463 O   0  0  0  0  0  0  0  0  0  0  0  0
  -27.3587  -30.7566   20.6013 O   0  0  0  0  0  0  0  0  0  0  0  0
  -25.1976  -33.1571   23.1816 O   0  0  0  0  0  0  0  0  0  0  0  0
  -22.9308  -29.3316   24.8392 O   0  0  0  0  0  0  0  0  0  0  0  0
  -30.4995  -16.2603   22.0322 O   0  0  0  0  0  0  0  0  0  0  0  0
  -24.0811  -22.9385   19.1161 O   0  0  0  0  0  0  0  0  0  0  0  0
  -21.1317   -7.1945   21.8970 O   0  0  0  0  0  0  0  0  0  0  0  0
  -24.0457  -25.8042   19.1237 O   0  0  0  0  0  0  0  0  0  1  0  0
  -22.8167   -2.7754   24.7319 F   0  0  0  0  0  0  0  0  0  0  0  0
  -20.5955   -4.6385   20.9902 F   0  0  0  0  0  0  0  0  0  0  0  0
  -28.0625  -18.2880   18.6609 S   0  0  0  0  0  0  0  0  0  0  0  0
  1  2  1  0  0  0  0
  1  5  2  0  0  0  0
  2  6  2  0  0  0  0
  3  8  2  0  0  0  0
  3 15  1  0  0  0  0
  4  9  1  0  0  0  0
  4 15  2  0  0  0  0
  5 17  1  0  0  0  0
  6 19  1  0  0  0  0
  7 10  2  0  0  0  0
  7 18  1  0  0  0  0
  8 21  1  0  0  0  0
  9 21  2  0  0  0  0
 10 22  1  0  0  0  0
 11 12  2  0  0  0  0
 11 23  1  0  0  0  0
 12 24  1  0  0  0  0
 13 20  1  0  0  0  0
 13 22  2  0  0  0  0
 14 24  2  0  0  0  0
 14 25  1  0  0  0  0
 15 26  1  0  0  0  0
 16 26  1  0  0  0  0
 16 29  2  0  0  0  0
 16 32  1  0  0  0  0
 17 19  2  0  0  0  0
 17 39  1  0  0  0  0
 18 20  2  0  0  0  0
 18 40  1  0  0  0  0
 19 48  1  0  0  0  0
 20 41  1  0  0  0  0
 21 81  1  0  0  0  0
 22 82  1  0  0  0  0
 23 25  2  0  0  0  0
 23 81  1  0  0  0  0
 24 83  1  0  0  0  0
 25 84  1  0  0  0  0
 26 62  2  0  0  0  0
 27 28  2  0  0  0  0
 27 51  1  0  0  0  0
 27 63  1  0  0  0  0
 28 57  1  0  0  0  0
 28 85  1  0  0  0  0
 29 64  1  0  0  0  0
 29 67  1  0  0  0  0
 30 63  2  0  0  0  0
 30 69  1  0  0  0  0
 30 85  1  0  0  0  0
 31 33  2  0  0  0  0
 31 34  1  0  0  0  0
 32 68  1  0  0  0  0
 32 74  2  0  0  0  0
 33 58  1  0  0  0  0
 33 80  1  0  0  0  0
 34 70  1  0  0  0  0
 34 75  2  0  0  0  0
 35 49  1  0  0  0  0
 35 71  1  0  0  0  0
 35 76  2  0  0  0  0
 36 59  1  0  0  0  0
 36 65  1  0  0  0  0
 36 77  2  0  0  0  0
 37 60  1  0  0  0  0
 37 72  1  0  0  0  0
 37 78  2  0  0  0  0
 38 66  1  0  0  0  0
 38 69  1  0  0  0  0
 38 79  2  0  0  0  0
 39 42  1  0  0  0  0
 40 49  1  0  0  0  0
 41 65  1  0  0  0  0
 42 44  1  0  0  0  0
 43 45  1  0  0  0  0
 43 46  1  0  0  0  0
 44 48  1  0  0  0  0
 45 50  1  0  0  0  0
 46 66  1  0  0  0  0
 47 50  1  0  0  0  0
 47 66  1  0  0  0  0
 48 71  1  0  0  0  0
 49 65  1  0  0  0  0
 50 64  1  0  0  0  0
 52 60  1  0  0  0  0
 53 61  1  0  0  0  0
 54 61  1  0  0  0  0
 55 61  1  0  0  0  0
 56 73  1  0  0  0  0
 57 70  1  0  0  0  0
 58 82  1  0  0  0  0
 59 61  1  0  0  0  0
 59 72  1  0  0  0  0
 60 73  1  0  0  0  0
 62 64  1  0  0  0  0
M  CHG  1  73   1
M  ISO  4  38 100  58 101  69 100  82 101
M  END
> <Batch ID>
0180

> <Smiles>
CNC(C)C(=O)NC(C(=O)N1Cc2cc([101O:1][101CH2:1]C(=O)CC(=O)NCc3sc([100NH:0][100C:0](=O)N4CCCC(n5nc(-c6ccc(Oc7ccc(F)cc7F)cc6)c(C(N)=O)c5N)C4)nc3C)ccc2CC1C(=O)NC1CCCc2ccccc21)C(C)(C)C

> <Shape>
0.259

> <Color>
0.100

> <Negative vol penalty>
0.000

$$$$

  -OEChem-04052304503D

 85 93  0     1  0  0  0  0  0999 V2000
  -26.7966  -38.0289   19.6895 C   0  0  0  0  0  0  0  0  0  0  0  0
  -27.3813  -36.7910   19.4420 C   0  0  0  0  0  0  0  0  0  0  0  0
  -22.1474  -10.0128   22.6827 C   0  0  0  0  0  0  0  0  0  0  0  0
  -24.1100   -9.7337   21.3017 C   0  0  0  0  0  0  0  0  0  0  0  0
  -25.9452  -38.1905   20.7818 C   0  0  0  0  0  0  0  0  0  0  0  0
  -27.1159  -35.7143   20.2874 C   0  0  0  0  0  0  0  0  0  0  0  0
  -26.6484  -29.8173   18.7022 C   0  0  0  0  0  0  0  0  0  0  0  0
  -21.7570   -8.7056   22.3922 C   0  0  0  0  0  0  0  0  0  0  0  0
  -23.7197   -8.4265   21.0112 C   0  0  0  0  0  0  0  0  0  0  0  0
  -27.5491  -28.7549   18.7650 C   0  0  0  0  0  0  0  0  0  0  0  0
  -22.5712   -5.5814   23.3969 C   0  0  0  0  0  0  0  0  0  0  0  0
  -22.1292   -4.7867   24.4545 C   0  0  0  0  0  0  0  0  0  0  0  0
  -26.5920  -28.0761   20.8728 C   0  0  0  0  0  0  0  0  0  0  0  0
  -19.9893   -4.5253   23.3639 C   0  0  0  0  0  0  0  0  0  0  0  0
  -23.3238  -10.5269   22.1374 C   0  0  0  0  0  0  0  0  0  0  0  0
  -24.5394  -12.3053   23.5039 C   0  0  0  0  0  0  0  0  0  0  0  0
  -25.6616  -37.1128   21.6353 C   0  0  0  0  0  0  0  0  0  0  0  0
  -25.7185  -30.0238   19.7312 C   0  0  0  0  0  0  0  0  0  0  0  0
  -26.2610  -35.8620   21.3928 C   0  0  0  0  0  0  0  0  0  0  0  0
  -25.6789  -29.1403   20.8194 C   0  0  0  0  0  0  0  0  0  0  0  0
  -22.5432   -7.9124   21.5565 C   0  0  0  0  0  0  0  0  0  0  0  0
  -27.5229  -27.8858   19.8518 C   0  0  0  0  0  0  0  0  0  0  0  0
  -21.7222   -5.8481   22.3227 C   0  0  0  0  0  0  0  0  0  0  0  0
  -20.8383   -4.2586   24.4381 C   0  0  0  0  0  0  0  0  0  0  0  0
  -20.4313   -5.3200   22.3062 C   0  0  0  0  0  0  0  0  0  0  0  0
  -23.7273  -11.8774   22.4366 C   0  0  0  0  0  0  0  0  0  0  0  0
  -28.6815  -18.5955   21.8429 C   0  0  0  0  0  0  0  0  0  0  0  0
  -27.5384  -18.8863   21.1282 C   0  0  0  0  0  0  0  0  0  0  0  0
  -24.6235  -13.6672   23.3467 C   0  0  0  0  0  0  0  0  0  0  0  0
  -28.4895  -20.8608   21.0467 C   0  0  0  0  0  0  0  0  0  0  0  0
  -27.8958  -25.5798   19.9701 C   0  0  0  0  0  0  0  0  0  1  0  0
  -25.1621  -11.5402   24.5443 C   0  0  0  0  0  0  0  0  0  0  0  0
  -29.1146  -17.3801   22.4497 C   0  0  0  0  0  0  0  0  0  0  0  0
  -28.6666  -24.4875   20.0353 C   0  0  0  0  0  0  0  0  0  0  0  0
  -28.0139  -23.1387   20.0900 C   0  0  0  0  0  0  0  0  0  0  0  0
  -25.1567  -32.3608   21.8113 C   0  0  0  0  0  0  0  0  0  0  0  0
  -22.5777  -30.5429   22.5639 C   0  0  0  0  0  0  0  0  0  0  0  0
  -21.1201  -27.4574   22.6034 C   0  0  0  0  0  0  0  0  0  0  0  0
  -25.3339  -18.1663   20.1442 C   0  0  0  0  0  0  0  0  0  0  0  0
  -24.7724  -37.3479   22.8306 C   0  0  0  0  0  0  0  0  0  0  0  0
  -24.7360  -31.1588   19.6355 C   0  0  0  0  0  0  0  0  0  0  0  0
  -24.6867  -29.3065   21.9402 C   0  0  0  0  0  0  0  0  0  0  0  0
  -24.2473  -36.0609   23.4617 C   0  0  0  0  0  0  0  0  0  0  0  0
  -22.0511  -16.7981   20.3132 C   0  0  0  0  0  0  0  0  0  0  0  0
  -25.3765  -35.0493   23.6296 C   0  0  0  0  0  0  0  0  0  0  0  0
  -22.2614  -15.4312   20.9685 C   0  0  0  0  0  0  0  0  0  0  0  0
  -23.1985  -17.1578   19.3709 C   0  0  0  0  0  0  0  0  0  0  0  0
  -24.7492  -15.7071   20.6199 C   0  0  0  0  0  0  0  0  0  0  0  0
  -25.9780  -34.6637   22.2727 C   0  0  1  0  0  0  0  0  0  0  0  0
  -24.1724  -31.5770   20.9900 C   0  0  1  0  0  0  0  0  0  0  0  0
  -23.6510  -15.3299   21.6275 C   0  0  2  0  0  0  0  0  0  0  0  0
  -30.6022  -17.1177   22.5589 C   0  0  0  0  0  0  0  0  0  0  0  0
  -19.0222  -26.2788   23.3153 C   0  0  0  0  0  0  0  0  0  0  0  0
  -23.5037  -30.6546   25.4691 C   0  0  0  0  0  0  0  0  0  0  0  0
  -21.9720  -28.7355   25.9582 C   0  0  0  0  0  0  0  0  0  0  0  0
  -21.0355  -30.9020   25.1506 C   0  0  0  0  0  0  0  0  0  0  0  0
  -20.5076  -26.6263   19.8298 C   0  0  0  0  0  0  0  0  0  0  0  0
  -22.3067  -29.4242   23.5406 C   0  0  1  0  0  0  0  0  0  0  0  0
  -19.7398  -26.9899   22.1786 C   0  0  2  0  0  0  0  0  0  0  0  0
  -22.2246  -29.9268   25.0096 C   0  0  0  0  0  0  0  0  0  0  0  0
  -23.3241  -12.8858   21.6590 N   0  0  0  0  0  0  0  0  0  0  0  0
  -27.4264  -20.1849   20.6712 N   0  0  0  0  0  0  0  0  0  0  0  0
  -23.8851  -13.9608   22.2382 N   0  0  0  0  0  0  0  0  0  0  0  0
  -23.7510  -30.4350   21.8039 N   0  0  0  0  0  0  0  0  0  0  0  0
  -24.4830  -17.0436   20.0650 N   0  0  0  0  0  0  0  0  0  0  0  0
  -25.2562  -14.6302   24.0501 N   0  0  0  0  0  0  0  0  0  0  0  0
  -24.9727  -10.1515   24.5571 N   0  0  0  0  0  0  0  0  0  0  0  0
  -26.5127  -17.9472   20.8563 N   0  0  0  0  0  0  0  0  0  0  0  0
  -28.7843  -22.2219   20.7921 N   0  0  0  0  0  0  0  0  0  0  0  0
  -25.1173  -33.7238   21.5870 N   0  0  0  0  0  0  0  0  0  0  0  0
  -21.0989  -28.7548   23.0696 N   0  0  0  0  0  0  0  0  0  0  0  0
  -19.8429  -26.0499   21.0268 N   0  3  0  0  0  0  0  0  0  0  0  0
  -25.8521  -12.0740   25.4456 O   0  0  0  0  0  0  0  0  0  0  0  0
  -28.3753  -16.4834   22.9084 O   0  0  0  0  0  0  0  0  0  0  0  0
  -26.9278  -22.9423   19.5554 O   0  0  0  0  0  0  0  0  0  0  0  0
  -25.8961  -31.7727   22.5918 O   0  0  0  0  0  0  0  0  0  0  0  0
  -21.7743  -31.4746   22.4735 O   0  0  0  0  0  0  0  0  0  0  0  0
  -22.1168  -26.7418   22.5325 O   0  0  0  0  0  0  0  0  0  0  0  0
  -25.0263  -19.2504   19.6422 O   0  0  0  0  0  0  0  0  0  0  0  0
  -30.0451  -24.5518   20.0529 O   0  0  0  0  0  0  0  0  0  0  0  0
  -22.1627   -6.6367   21.2731 O   0  0  0  0  0  0  0  0  0  0  0  0
  -28.4012  -26.8484   19.9159 O   0  0  0  0  0  0  0  0  0  1  0  0
  -20.4145   -3.4942   25.4531 F   0  0  0  0  0  0  0  0  0  0  0  0
  -19.6115   -5.5718   21.2765 F   0  0  0  0  0  0  0  0  0  0  0  0
  -29.6641  -19.9969   21.9517 S   0  0  0  0  0  0  0  0  0  0  0  0
  1  2  1  0  0  0  0
  1  5  2  0  0  0  0
  2  6  2  0  0  0  0
  3  8  2  0  0  0  0
  3 15  1  0  0  0  0
  4  9  1  0  0  0  0
  4 15  2  0  0  0  0
  5 17  1  0  0  0  0
  6 19  1  0  0  0  0
  7 10  2  0  0  0  0
  7 18  1  0  0  0  0
  8 21  1  0  0  0  0
  9 21  2  0  0  0  0
 10 22  1  0  0  0  0
 11 12  2  0  0  0  0
 11 23  1  0  0  0  0
 12 24  1  0  0  0  0
 13 20  1  0  0  0  0
 13 22  2  0  0  0  0
 14 24  2  0  0  0  0
 14 25  1  0  0  0  0
 15 26  1  0  0  0  0
 16 26  1  0  0  0  0
 16 29  2  0  0  0  0
 16 32  1  0  0  0  0
 17 19  2  0  0  0  0
 17 40  1  0  0  0  0
 18 20  2  0  0  0  0
 18 41  1  0  0  0  0
 19 49  1  0  0  0  0
 20 42  1  0  0  0  0
 21 81  1  0  0  0  0
 22 82  1  0  0  0  0
 23 25  2  0  0  0  0
 23 81  1  0  0  0  0
 24 83  1  0  0  0  0
 25 84  1  0  0  0  0
 26 61  2  0  0  0  0
 27 28  2  0  0  0  0
 27 33  1  0  0  0  0
 27 85  1  0  0  0  0
 28 62  1  0  0  0  0
 28 68  1  0  0  0  0
 29 63  1  0  0  0  0
 29 66  1  0  0  0  0
 30 62  2  0  0  0  0
 30 69  1  0  0  0  0
 30 85  1  0  0  0  0
 31 34  2  0  0  0  0
 31 82  1  0  0  0  0
 32 67  1  0  0  0  0
 32 73  2  0  0  0  0
 33 52  1  0  0  0  0
 33 74  2  0  0  0  0
 34 35  1  0  0  0  0
 34 80  1  0  0  0  0
 35 69  1  0  0  0  0
 35 75  2  0  0  0  0
 36 50  1  0  0  0  0
 36 70  1  0  0  0  0
 36 76  2  0  0  0  0
 37 58  1  0  0  0  0
 37 64  1  0  0  0  0
 37 77  2  0  0  0  0
 38 59  1  0  0  0  0
 38 71  1  0  0  0  0
 38 78  2  0  0  0  0
 39 65  1  0  0  0  0
 39 68  1  0  0  0  0
 39 79  2  0  0  0  0
 40 43  1  0  0  0  0
 41 50  1  0  0  0  0
 42 64  1  0  0  0  0
 43 45  1  0  0  0  0
 44 46  1  0  0  0  0
 44 47  1  0  0  0  0
 45 49  1  0  0  0  0
 46 51  1  0  0  0  0
 47 65  1  0  0  0  0
 48 51  1  0  0  0  0
 48 65  1  0  0  0  0
 49 70  1  0  0  0  0
 50 64  1  0  0  0  0
 51 63  1  0  0  0  0
 53 59  1  0  0  0  0
 54 60  1  0  0  0  0
 55 60  1  0  0  0  0
 56 60  1  0  0  0  0
 57 72  1  0  0  0  0
 58 60  1  0  0  0  0
 58 71  1  0  0  0  0
 59 72  1  0  0  0  0
 61 63  1  0  0  0  0
M  CHG  1  72   1
M  ISO  4  31 101  39 100  68 100  82 101
M  END
> <Batch ID>
0180

> <Smiles>
CNC(C)C(=O)NC(C(=O)N1Cc2cc([101O:1][101CH2:1]C(=O)C(=O)Nc3nc([100NH:0][100C:0](=O)N4CCCC(n5nc(-c6ccc(Oc7ccc(F)cc7F)cc6)c(C(N)=O)c5N)C4)c(C(C)=O)s3)ccc2CC1C(=O)NC1CCCc2ccccc21)C(C)(C)C

> <Shape>
0.279

> <Color>
0.090

> <Negative vol penalty>
0.000

$$$$

  -OEChem-04052304503D

 86 94  0     1  0  0  0  0  0999 V2000
  -37.5548  -29.9254   18.0008 C   0  0  0  0  0  0  0  0  0  0  0  0
  -37.1675  -29.1785   19.1088 C   0  0  0  0  0  0  0  0  0  0  0  0
  -22.9978   -9.8985   19.9800 C   0  0  0  0  0  0  0  0  0  0  0  0
  -23.7255   -9.9435   22.2833 C   0  0  0  0  0  0  0  0  0  0  0  0
  -36.5884  -30.5022   17.1779 C   0  0  0  0  0  0  0  0  0  0  0  0
  -35.8134  -29.0090   19.3952 C   0  0  0  0  0  0  0  0  0  0  0  0
  -34.6673  -24.2269   20.6047 C   0  0  0  0  0  0  0  0  0  0  0  0
  -22.2299   -8.7646   20.2447 C   0  0  0  0  0  0  0  0  0  0  0  0
  -22.9575   -8.8095   22.5481 C   0  0  0  0  0  0  0  0  0  0  0  0
  -34.9857  -23.8024   21.8940 C   0  0  0  0  0  0  0  0  0  0  0  0
  -23.1964   -5.4713   22.0688 C   0  0  0  0  0  0  0  0  0  0  0  0
  -23.7832   -4.4516   22.8181 C   0  0  0  0  0  0  0  0  0  0  0  0
  -32.6913  -24.1312   22.5623 C   0  0  0  0  0  0  0  0  0  0  0  0
  -22.0614   -4.6935   24.4957 C   0  0  0  0  0  0  0  0  0  0  0  0
  -30.5359  -18.3223   23.9982 C   0  0  0  0  0  0  0  0  0  0  0  0
  -32.0561  -16.5537   22.5816 C   0  0  0  0  0  0  0  0  0  0  0  0
  -23.7457  -10.4879   20.9993 C   0  0  0  0  0  0  0  0  0  0  0  0
  -24.1346  -13.0033   20.8282 C   0  0  0  0  0  0  0  0  0  0  0  0
  -35.2216  -30.3317   17.4489 C   0  0  0  0  0  0  0  0  0  0  0  0
  -33.3586  -24.6178   20.2869 C   0  0  0  0  0  0  0  0  0  0  0  0
  -34.8277  -29.5853   18.5759 C   0  0  0  0  0  0  0  0  0  0  0  0
  -32.3583  -24.5578   21.2676 C   0  0  0  0  0  0  0  0  0  0  0  0
  -30.6839  -16.5399   22.3902 C   0  0  0  0  0  0  0  0  0  0  0  0
  -22.2097   -8.2201   21.5287 C   0  0  0  0  0  0  0  0  0  0  0  0
  -33.9983  -23.7573   22.8738 C   0  0  0  0  0  0  0  0  0  0  0  0
  -22.0421   -6.1021   22.5330 C   0  0  0  0  0  0  0  0  0  0  0  0
  -23.2157   -4.0627   24.0316 C   0  0  0  0  0  0  0  0  0  0  0  0
  -21.4746   -5.7132   23.7464 C   0  0  0  0  0  0  0  0  0  0  0  0
  -29.9164  -17.4442   23.1158 C   0  0  0  0  0  0  0  0  0  0  0  0
  -24.5396  -11.6589   20.7263 C   0  0  0  0  0  0  0  0  0  0  0  0
  -31.9147  -18.2562   24.1177 C   0  0  0  0  0  0  0  0  0  0  0  0
  -25.2450  -13.7250   20.4642 C   0  0  0  0  0  0  0  0  0  0  0  0
  -22.8678  -13.5508   21.2172 C   0  0  0  0  0  0  0  0  0  0  0  0
  -32.0020  -27.3151   19.2932 C   0  0  0  0  0  0  0  0  0  0  0  0
  -29.3618  -25.4447   19.0626 C   0  0  0  0  0  0  0  0  0  0  0  0
  -27.6986  -22.6427   20.0771 C   0  0  0  0  0  0  0  0  0  0  0  0
  -31.9256  -20.1163   25.8199 C   0  0  0  0  0  0  0  0  0  0  0  0
  -30.7262  -14.6774   20.6944 C   0  0  0  0  0  0  0  0  0  0  0  0
  -34.2142  -31.0138   16.5576 C   0  0  0  0  0  0  0  0  0  0  0  0
  -33.0256  -25.0477   18.8845 C   0  0  0  0  0  0  0  0  0  0  0  0
  -30.9337  -24.9474   20.9723 C   0  0  0  0  0  0  0  0  0  0  0  0
  -32.7953  -30.4738   16.7173 C   0  0  0  0  0  0  0  0  0  0  0  0
  -29.6018  -12.2312   18.3645 C   0  0  0  0  0  0  0  0  0  0  0  0
  -32.4358  -30.3460   18.1942 C   0  0  0  0  0  0  0  0  0  0  0  0
  -28.1512  -11.9748   18.7796 C   0  0  0  0  0  0  0  0  0  0  0  0
  -30.5039  -12.4707   19.5738 C   0  0  0  0  0  0  0  0  0  0  0  0
  -28.5912  -13.2595   20.9110 C   0  0  0  0  0  0  0  0  0  0  0  0
  -33.3683  -29.3581   18.9055 C   0  0  1  0  0  0  0  0  0  0  0  0
  -31.7712  -25.9124   18.8066 C   0  0  1  0  0  0  0  0  0  0  0  0
  -27.6320  -13.0771   19.7234 C   0  0  2  0  0  0  0  0  0  0  0  0
  -25.5447  -21.3999   19.7402 C   0  0  0  0  0  0  0  0  0  0  0  0
  -33.7010  -19.9289   27.6413 C   0  0  0  0  0  0  0  0  0  0  0  0
  -32.1257  -21.8858   27.5835 C   0  0  0  0  0  0  0  0  0  0  0  0
  -27.9103  -27.4964   20.7929 C   0  0  0  0  0  0  0  0  0  0  0  0
  -26.1292  -25.7857   21.2048 C   0  0  0  0  0  0  0  0  0  0  0  0
  -26.5627  -26.5991   18.8868 C   0  0  0  0  0  0  0  0  0  0  0  0
  -29.1059  -20.2452   19.0619 C   0  0  0  0  0  0  0  0  0  0  0  0
  -33.9167  -21.7121   25.8490 C   0  0  0  0  0  0  0  0  0  0  0  0
  -33.2727  -22.6999   24.8766 C   0  0  0  0  0  0  0  0  0  1  0  0
  -28.2374  -25.0629   19.9947 C   0  0  1  0  0  0  0  0  0  0  0  0
  -26.9903  -21.5525   19.2933 C   0  0  2  0  0  0  0  0  0  0  0  0
  -32.9268  -20.8893   26.7213 C   0  0  0  0  0  0  0  0  0  0  0  0
  -27.2371  -26.2304   20.2262 C   0  0  0  0  0  0  0  0  0  0  0  0
  -32.6936  -17.3916   23.4297 N   0  0  0  0  0  0  0  0  0  0  0  0
  -25.8083  -11.5314   20.3285 N   0  0  0  0  0  0  0  0  0  0  0  0
  -26.2100  -12.8049   20.1772 N   0  0  0  0  0  0  0  0  0  0  0  0
  -30.6593  -25.3669   19.5880 N   0  0  0  0  0  0  0  0  0  0  0  0
  -29.9514  -13.5306   20.4200 N   0  0  0  0  0  0  0  0  0  0  0  0
  -25.4804  -15.0506   20.3647 N   0  0  0  0  0  0  0  0  0  0  0  0
  -21.8351  -12.6674   21.5600 N   0  0  0  0  0  0  0  0  0  0  0  0
  -30.0841  -15.6319   21.4827 N   0  0  0  0  0  0  0  0  0  0  0  0
  -32.5358  -19.1539   25.0203 N   0  0  0  0  0  0  0  0  0  0  0  0
  -32.9868  -27.9953   18.6026 N   0  0  0  0  0  0  0  0  0  0  0  0
  -27.6322  -23.8601   19.4330 N   0  0  0  0  0  0  0  0  0  0  0  0
  -27.6813  -20.2458   19.4830 N   0  3  0  0  0  0  0  0  0  0  0  0
  -22.6530  -14.7863   21.2438 O   0  0  0  0  0  0  0  0  0  0  0  0
  -31.3349  -27.7488   20.2252 O   0  0  0  0  0  0  0  0  0  0  0  0
  -29.0990  -25.7922   17.9085 O   0  0  0  0  0  0  0  0  0  0  0  0
  -28.2521  -22.4358   21.1547 O   0  0  0  0  0  0  0  0  0  0  0  0
  -30.7185  -20.3453   25.8704 O   0  0  0  0  0  0  0  0  0  0  0  0
  -31.8645  -14.8156   20.2395 O   0  0  0  0  0  0  0  0  0  0  0  0
  -21.4603   -7.1138   21.7875 O   0  0  0  0  0  0  0  0  0  0  0  0
  -34.3065  -23.3440   24.1332 O   0  0  0  0  0  0  0  0  0  1  0  0
  -23.7785   -3.0824   24.7503 F   0  0  0  0  0  0  0  0  0  0  0  0
  -20.3651   -6.3148   24.1968 F   0  0  0  0  0  0  0  0  0  0  0  0
  -28.5840  -17.4775   22.9730 F   0  0  0  0  0  0  0  0  0  0  0  0
  1  2  1  0  0  0  0
  1  5  2  0  0  0  0
  2  6  2  0  0  0  0
  3  8  2  0  0  0  0
  3 17  1  0  0  0  0
  4  9  1  0  0  0  0
  4 17  2  0  0  0  0
  5 19  1  0  0  0  0
  6 21  1  0  0  0  0
  7 10  2  0  0  0  0
  7 20  1  0  0  0  0
  8 24  1  0  0  0  0
  9 24  2  0  0  0  0
 10 25  1  0  0  0  0
 11 12  2  0  0  0  0
 11 26  1  0  0  0  0
 12 27  1  0  0  0  0
 13 22  1  0  0  0  0
 13 25  2  0  0  0  0
 14 27  2  0  0  0  0
 14 28  1  0  0  0  0
 15 29  2  0  0  0  0
 15 31  1  0  0  0  0
 16 23  2  0  0  0  0
 16 64  1  0  0  0  0
 17 30  1  0  0  0  0
 18 30  1  0  0  0  0
 18 32  2  0  0  0  0
 18 33  1  0  0  0  0
 19 21  2  0  0  0  0
 19 39  1  0  0  0  0
 20 22  2  0  0  0  0
 20 40  1  0  0  0  0
 21 48  1  0  0  0  0
 22 41  1  0  0  0  0
 23 29  1  0  0  0  0
 23 71  1  0  0  0  0
 24 82  1  0  0  0  0
 25 83  1  0  0  0  0
 26 28  2  0  0  0  0
 26 82  1  0  0  0  0
 27 84  1  0  0  0  0
 28 85  1  0  0  0  0
 29 86  1  0  0  0  0
 30 65  2  0  0  0  0
 31 64  2  0  0  0  0
 31 72  1  0  0  0  0
 32 66  1  0  0  0  0
 32 69  1  0  0  0  0
 33 70  1  0  0  0  0
 33 76  2  0  0  0  0
 34 49  1  0  0  0  0
 34 73  1  0  0  0  0
 34 77  2  0  0  0  0
 35 60  1  0  0  0  0
 35 67  1  0  0  0  0
 35 78  2  0  0  0  0
 36 61  1  0  0  0  0
 36 74  1  0  0  0  0
 36 79  2  0  0  0  0
 37 62  1  0  0  0  0
 37 72  1  0  0  0  0
 37 80  2  0  0  0  0
 38 68  1  0  0  0  0
 38 71  1  0  0  0  0
 38 81  2  0  0  0  0
 39 42  1  0  0  0  0
 40 49  1  0  0  0  0
 41 67  1  0  0  0  0
 42 44  1  0  0  0  0
 43 45  1  0  0  0  0
 43 46  1  0  0  0  0
 44 48  1  0  0  0  0
 45 50  1  0  0  0  0
 46 68  1  0  0  0  0
 47 50  1  0  0  0  0
 47 68  1  0  0  0  0
 48 73  1  0  0  0  0
 49 67  1  0  0  0  0
 50 66  1  0  0  0  0
 51 61  1  0  0  0  0
 52 62  1  0  0  0  0
 53 62  1  0  0  0  0
 54 63  1  0  0  0  0
 55 63  1  0  0  0  0
 56 63  1  0  0  0  0
 57 75  1  0  0  0  0
 58 59  1  0  0  0  0
 58 62  1  0  0  0  0
 59 83  1  0  0  0  0
 60 63  1  0  0  0  0
 60 74  1  0  0  0  0
 61 75  1  0  0  0  0
 65 66  1  0  0  0  0
M  CHG  1  75   1
M  ISO  4  38 100  59 101  71 100  83 101
M  END
> <Batch ID>
0180

> <Smiles>
CNC(C)C(=O)NC(C(=O)N1Cc2cc([101O:1][101CH2:1]CC(C)(C)C(=O)Nc3cc(F)c([100NH:0][100C:0](=O)N4CCCC(n5nc(-c6ccc(Oc7ccc(F)cc7F)cc6)c(C(N)=O)c5N)C4)cn3)ccc2CC1C(=O)NC1CCCc2ccccc21)C(C)(C)C

> <Shape>
0.255

> <Color>
0.190

> <Negative vol penalty>
0.000

$$$$

  -OEChem-04052304503D

 84 92  0     1  0  0  0  0  0999 V2000
  -26.7259  -37.8831   18.9014 C   0  0  0  0  0  0  0  0  0  0  0  0
  -27.3236  -36.6343   18.7646 C   0  0  0  0  0  0  0  0  0  0  0  0
  -23.3767   -9.5264   22.9525 C   0  0  0  0  0  0  0  0  0  0  0  0
  -23.4481   -9.9484   20.5747 C   0  0  0  0  0  0  0  0  0  0  0  0
  -25.8606  -38.1276   19.9669 C   0  0  0  0  0  0  0  0  0  0  0  0
  -27.0569  -35.6295   19.6940 C   0  0  0  0  0  0  0  0  0  0  0  0
  -26.6560  -29.6168   18.6017 C   0  0  0  0  0  0  0  0  0  0  0  0
  -22.6353   -8.3671   22.7245 C   0  0  0  0  0  0  0  0  0  0  0  0
  -22.7067   -8.7891   20.3467 C   0  0  0  0  0  0  0  0  0  0  0  0
  -27.5644  -28.5715   18.7630 C   0  0  0  0  0  0  0  0  0  0  0  0
  -23.2225   -5.1913   21.7232 C   0  0  0  0  0  0  0  0  0  0  0  0
  -23.5928   -4.0384   22.4155 C   0  0  0  0  0  0  0  0  0  0  0  0
  -26.5881  -28.0623   20.9093 C   0  0  0  0  0  0  0  0  0  0  0  0
  -21.4047   -3.9486   23.4360 C   0  0  0  0  0  0  0  0  0  0  0  0
  -23.7831  -10.3171   21.8776 C   0  0  0  0  0  0  0  0  0  0  0  0
  -25.9502  -11.6297   22.1748 C   0  0  0  0  0  0  0  0  0  0  0  0
  -25.5757  -37.1222   20.9043 C   0  0  0  0  0  0  0  0  0  0  0  0
  -25.7123  -29.9000   19.5996 C   0  0  0  0  0  0  0  0  0  0  0  0
  -26.1880  -35.8611   20.7738 C   0  0  0  0  0  0  0  0  0  0  0  0
  -25.6672  -29.1100   20.7571 C   0  0  0  0  0  0  0  0  0  0  0  0
  -22.3003   -7.9984   21.4216 C   0  0  0  0  0  0  0  0  0  0  0  0
  -27.5325  -27.7959   19.9182 C   0  0  0  0  0  0  0  0  0  0  0  0
  -21.9434   -5.7229   21.8874 C   0  0  0  0  0  0  0  0  0  0  0  0
  -22.6839   -3.4170   23.2719 C   0  0  0  0  0  0  0  0  0  0  0  0
  -21.0345   -5.1015   22.7437 C   0  0  0  0  0  0  0  0  0  0  0  0
  -24.5485  -11.5150   22.1125 C   0  0  0  0  0  0  0  0  0  0  0  0
  -29.4489  -19.7333   19.5369 C   0  0  0  0  0  0  0  0  0  0  0  0
  -28.5892  -20.6841   20.0456 C   0  0  0  0  0  0  0  0  0  0  0  0
  -26.1752  -12.9628   22.4173 C   0  0  0  0  0  0  0  0  0  0  0  0
  -27.3702  -18.9008   20.4247 C   0  0  0  0  0  0  0  0  0  0  0  0
  -30.7391  -19.8681   18.9452 C   0  0  0  0  0  0  0  0  0  0  0  0
  -27.9227  -25.5113   20.2327 C   0  0  0  0  0  0  0  0  0  1  0  0
  -26.9587  -10.6214   22.0265 C   0  0  0  0  0  0  0  0  0  0  0  0
  -28.7015  -24.4352   20.3974 C   0  0  0  0  0  0  0  0  0  0  0  0
  -28.0591  -23.0899   20.5573 C   0  0  0  0  0  0  0  0  0  0  0  0
  -25.1072  -32.3972   21.4709 C   0  0  0  0  0  0  0  0  0  0  0  0
  -22.5344  -30.6251   22.3442 C   0  0  0  0  0  0  0  0  0  0  0  0
  -21.1015  -27.5405   22.6251 C   0  0  0  0  0  0  0  0  0  0  0  0
  -25.1257  -18.3396   21.4216 C   0  0  0  0  0  0  0  0  0  0  0  0
  -24.6706  -37.4482   22.0659 C   0  0  0  0  0  0  0  0  0  0  0  0
  -24.7219  -31.0141   19.3986 C   0  0  0  0  0  0  0  0  0  0  0  0
  -24.6605  -29.3601   21.8491 C   0  0  0  0  0  0  0  0  0  0  0  0
  -24.1485  -36.2136   22.7964 C   0  0  0  0  0  0  0  0  0  0  0  0
  -22.9709  -16.6629   23.7068 C   0  0  0  0  0  0  0  0  0  0  0  0
  -25.2839  -35.2298   23.0606 C   0  0  0  0  0  0  0  0  0  0  0  0
  -23.3045  -15.1836   23.5009 C   0  0  0  0  0  0  0  0  0  0  0  0
  -23.0221  -17.4438   22.3948 C   0  0  0  0  0  0  0  0  0  0  0  0
  -24.6042  -15.8209   21.4293 C   0  0  0  0  0  0  0  0  0  0  0  0
  -25.9044  -34.7379   21.7474 C   0  0  1  0  0  0  0  0  0  0  0  0
  -24.1390  -31.5387   20.7071 C   0  0  1  0  0  0  0  0  0  0  0  0
  -24.6290  -15.0062   22.7329 C   0  0  2  0  0  0  0  0  0  0  0  0
  -19.0049  -26.4064   23.4096 C   0  0  0  0  0  0  0  0  0  0  0  0
  -23.4252  -30.9870   25.2400 C   0  0  0  0  0  0  0  0  0  0  0  0
  -21.9034  -29.1016   25.8706 C   0  0  0  0  0  0  0  0  0  0  0  0
  -20.9590  -31.1846   24.8747 C   0  0  0  0  0  0  0  0  0  0  0  0
  -20.5284  -26.4755   19.9239 C   0  0  0  0  0  0  0  0  0  0  0  0
  -22.2610  -29.5892   23.4078 C   0  0  1  0  0  0  0  0  0  0  0  0
  -19.7301  -27.0267   22.2255 C   0  0  2  0  0  0  0  0  0  0  0  0
  -22.1575  -30.2119   24.8287 C   0  0  0  0  0  0  0  0  0  0  0  0
  -23.9268  -12.6821   22.3005 N   0  0  0  0  0  0  0  0  0  0  0  0
  -27.3965  -20.2086   20.5548 N   0  0  0  0  0  0  0  0  0  0  0  0
  -24.9426  -13.5428   22.4833 N   0  0  0  0  0  0  0  0  0  0  0  0
  -23.7174  -30.4648   21.6088 N   0  0  0  0  0  0  0  0  0  0  0  0
  -24.3070  -17.2313   21.7250 N   0  0  0  0  0  0  0  0  0  0  0  0
  -27.3052  -13.6836   22.5784 N   0  0  0  0  0  0  0  0  0  0  0  0
  -26.5536   -9.3023   21.7810 N   0  0  0  0  0  0  0  0  0  0  0  0
  -28.8649  -22.0727   20.0645 N   0  0  0  0  0  0  0  0  0  0  0  0
  -26.3377  -18.0121   20.8146 N   0  0  0  0  0  0  0  0  0  0  0  0
  -25.0595  -33.7362   21.1332 N   0  0  0  0  0  0  0  0  0  0  0  0
  -21.0643  -28.8721   22.9811 N   0  0  0  0  0  0  0  0  0  0  0  0
  -19.8544  -25.9949   21.1575 N   0  3  0  0  0  0  0  0  0  0  0  0
  -31.3290  -20.9587   18.7874 O   0  0  0  0  0  0  0  0  0  0  0  0
  -28.1822  -10.8795   22.1257 O   0  0  0  0  0  0  0  0  0  0  0  0
  -26.9515  -22.9777   21.0716 O   0  0  0  0  0  0  0  0  0  0  0  0
  -25.8421  -31.8829   22.3059 O   0  0  0  0  0  0  0  0  0  0  0  0
  -21.7246  -31.5386   22.1674 O   0  0  0  0  0  0  0  0  0  0  0  0
  -22.1048  -26.8305   22.6252 O   0  0  0  0  0  0  0  0  0  0  0  0
  -24.7893  -19.4920   21.7057 O   0  0  0  0  0  0  0  0  0  0  0  0
  -30.0791  -24.5133   20.4248 O   0  0  0  0  0  0  0  0  0  0  0  0
  -21.5771   -6.8672   21.1987 O   0  0  0  0  0  0  0  0  0  0  0  0
  -28.4184  -26.7755   20.0784 O   0  0  0  0  0  0  0  0  0  1  0  0
  -23.0390   -2.3090   23.9355 F   0  0  0  0  0  0  0  0  0  0  0  0
  -19.8038   -5.6069   22.9045 F   0  0  0  0  0  0  0  0  0  0  0  0
  -28.7466  -18.1771   19.6991 S   0  0  0  0  0  0  0  0  0  0  0  0
  1  2  1  0  0  0  0
  1  5  2  0  0  0  0
  2  6  2  0  0  0  0
  3  8  2  0  0  0  0
  3 15  1  0  0  0  0
  4  9  1  0  0  0  0
  4 15  2  0  0  0  0
  5 17  1  0  0  0  0
  6 19  1  0  0  0  0
  7 10  2  0  0  0  0
  7 18  1  0  0  0  0
  8 21  1  0  0  0  0
  9 21  2  0  0  0  0
 10 22  1  0  0  0  0
 11 12  2  0  0  0  0
 11 23  1  0  0  0  0
 12 24  1  0  0  0  0
 13 20  1  0  0  0  0
 13 22  2  0  0  0  0
 14 24  2  0  0  0  0
 14 25  1  0  0  0  0
 15 26  1  0  0  0  0
 16 26  1  0  0  0  0
 16 29  2  0  0  0  0
 16 33  1  0  0  0  0
 17 19  2  0  0  0  0
 17 40  1  0  0  0  0
 18 20  2  0  0  0  0
 18 41  1  0  0  0  0
 19 49  1  0  0  0  0
 20 42  1  0  0  0  0
 21 80  1  0  0  0  0
 22 81  1  0  0  0  0
 23 25  2  0  0  0  0
 23 80  1  0  0  0  0
 24 82  1  0  0  0  0
 25 83  1  0  0  0  0
 26 60  2  0  0  0  0
 27 28  2  0  0  0  0
 27 31  1  0  0  0  0
 27 84  1  0  0  0  0
 28 61  1  0  0  0  0
 28 67  1  0  0  0  0
 29 62  1  0  0  0  0
 29 65  1  0  0  0  0
 30 61  2  0  0  0  0
 30 68  1  0  0  0  0
 30 84  1  0  0  0  0
 31 72  2  0  0  0  0
 32 34  2  0  0  0  0
 32 81  1  0  0  0  0
 33 66  1  0  0  0  0
 33 73  2  0  0  0  0
 34 35  1  0  0  0  0
 34 79  1  0  0  0  0
 35 67  1  0  0  0  0
 35 74  2  0  0  0  0
 36 50  1  0  0  0  0
 36 69  1  0  0  0  0
 36 75  2  0  0  0  0
 37 57  1  0  0  0  0
 37 63  1  0  0  0  0
 37 76  2  0  0  0  0
 38 58  1  0  0  0  0
 38 70  1  0  0  0  0
 38 77  2  0  0  0  0
 39 64  1  0  0  0  0
 39 68  1  0  0  0  0
 39 78  2  0  0  0  0
 40 43  1  0  0  0  0
 41 50  1  0  0  0  0
 42 63  1  0  0  0  0
 43 45  1  0  0  0  0
 44 46  1  0  0  0  0
 44 47  1  0  0  0  0
 45 49  1  0  0  0  0
 46 51  1  0  0  0  0
 47 64  1  0  0  0  0
 48 51  1  0  0  0  0
 48 64  1  0  0  0  0
 49 69  1  0  0  0  0
 50 63  1  0  0  0  0
 51 62  1  0  0  0  0
 52 58  1  0  0  0  0
 53 59  1  0  0  0  0
 54 59  1  0  0  0  0
 55 59  1  0  0  0  0
 56 71  1  0  0  0  0
 57 59  1  0  0  0  0
 57 70  1  0  0  0  0
 58 71  1  0  0  0  0
 60 62  1  0  0  0  0
M  CHG  1  71   1
M  ISO  4  32 101  39 100  68 100  81 101
M  END
> <Batch ID>
0180

> <Smiles>
CNC(C)C(=O)NC(C(=O)N1Cc2cc([101O:1][101CH2:1]C(=O)C(=O)Nc3nc([100NH:0][100C:0](=O)N4CCCC(n5nc(-c6ccc(Oc7ccc(F)cc7F)cc6)c(C(N)=O)c5N)C4)sc3C=O)ccc2CC1C(=O)NC1CCCc2ccccc21)C(C)(C)C

> <Shape>
0.271

> <Color>
0.088

> <Negative vol penalty>
0.000

$$$$

  -OEChem-04052304503D

 82 90  0     1  0  0  0  0  0999 V2000
  -16.4906  -29.9188   23.2169 C   0  0  0  0  0  0  0  0  0  0  0  0
  -17.5162  -30.7799   23.5936 C   0  0  0  0  0  0  0  0  0  0  0  0
  -29.6951  -20.0067   18.4888 C   0  0  0  0  0  0  0  0  0  0  0  0
  -31.5177  -20.2704   20.0527 C   0  0  0  0  0  0  0  0  0  0  0  0
  -16.7810  -28.5995   22.8720 C   0  0  0  0  0  0  0  0  0  0  0  0
  -18.8329  -30.3219   23.6265 C   0  0  0  0  0  0  0  0  0  0  0  0
  -25.5517  -32.5626   22.5528 C   0  0  0  0  0  0  0  0  0  0  0  0
  -29.8435  -18.6212   18.5495 C   0  0  0  0  0  0  0  0  0  0  0  0
  -31.6661  -18.8848   20.1134 C   0  0  0  0  0  0  0  0  0  0  0  0
  -26.7932  -32.5873   23.1869 C   0  0  0  0  0  0  0  0  0  0  0  0
  -29.5062  -15.0016   18.5699 C   0  0  0  0  0  0  0  0  0  0  0  0
  -28.3507  -14.2306   18.6958 C   0  0  0  0  0  0  0  0  0  0  0  0
  -27.1857  -30.3103   22.4939 C   0  0  0  0  0  0  0  0  0  0  0  0
  -27.8361  -15.3420   20.7784 C   0  0  0  0  0  0  0  0  0  0  0  0
  -30.5323  -20.8314   19.2404 C   0  0  0  0  0  0  0  0  0  0  0  0
  -29.5629  -23.0673   19.9945 C   0  0  0  0  0  0  0  0  0  0  0  0
  -18.1030  -28.1277   22.8913 C   0  0  0  0  0  0  0  0  0  0  0  0
  -25.1126  -31.4060   21.8927 C   0  0  0  0  0  0  0  0  0  0  0  0
  -19.1411  -28.9947   23.2827 C   0  0  0  0  0  0  0  0  0  0  0  0
  -25.9394  -30.2743   21.8500 C   0  0  0  0  0  0  0  0  0  0  0  0
  -30.8289  -18.0602   19.3618 C   0  0  0  0  0  0  0  0  0  0  0  0
  -27.6091  -31.4601   23.1600 C   0  0  0  0  0  0  0  0  0  0  0  0
  -29.8267  -15.9428   19.5483 C   0  0  0  0  0  0  0  0  0  0  0  0
  -27.5156  -14.4007   19.8000 C   0  0  0  0  0  0  0  0  0  0  0  0
  -28.9916  -16.1130   20.6525 C   0  0  0  0  0  0  0  0  0  0  0  0
  -30.3799  -22.2628   19.1777 C   0  0  0  0  0  0  0  0  0  0  0  0
  -32.5349  -31.6669   21.4381 C   0  0  0  0  0  0  0  0  0  0  0  0
  -33.0382  -32.0867   20.2246 C   0  0  0  0  0  0  0  0  0  0  0  0
  -29.7719  -24.3453   19.5367 C   0  0  0  0  0  0  0  0  0  0  0  0
  -32.7899  -29.9578   19.7599 C   0  0  0  0  0  0  0  0  0  0  0  0
  -29.9064  -31.8865   23.0537 C   0  0  0  0  0  0  0  0  0  1  0  0
  -28.6929  -22.6929   21.0709 C   0  0  0  0  0  0  0  0  0  0  0  0
  -32.2485  -32.4215   22.6765 C   0  0  0  0  0  0  0  0  0  0  0  0
  -31.1439  -31.9462   23.5597 C   0  0  0  0  0  0  0  0  0  0  0  0
  -22.6656  -29.4095   22.2538 C   0  0  0  0  0  0  0  0  0  0  0  0
  -23.8163  -28.1208   19.5084 C   0  0  0  0  0  0  0  0  0  0  0  0
  -26.4758  -27.6448   17.4234 C   0  0  0  0  0  0  0  0  0  0  0  0
  -33.1679  -28.4065   17.8113 C   0  0  0  0  0  0  0  0  0  0  0  0
  -18.3623  -26.6804   22.5558 C   0  0  0  0  0  0  0  0  0  0  0  0
  -23.7822  -31.4043   21.1908 C   0  0  0  0  0  0  0  0  0  0  0  0
  -25.5230  -29.0144   21.1376 C   0  0  0  0  0  0  0  0  0  0  0  0
  -19.8281  -26.3779   22.2553 C   0  0  0  0  0  0  0  0  0  0  0  0
  -32.1418  -26.0107   15.3856 C   0  0  0  0  0  0  0  0  0  0  0  0
  -20.7311  -27.0155   23.3066 C   0  0  0  0  0  0  0  0  0  0  0  0
  -31.5247  -24.8882   16.2231 C   0  0  0  0  0  0  0  0  0  0  0  0
  -33.3518  -26.6354   16.0780 C   0  0  0  0  0  0  0  0  0  0  0  0
  -32.4956  -25.9705   18.2903 C   0  0  0  0  0  0  0  0  0  0  0  0
  -20.5849  -28.5420   23.3068 C   0  0  1  0  0  0  0  0  0  0  0  0
  -23.2157  -30.0025   20.9875 C   0  0  1  0  0  0  0  0  0  0  0  0
  -31.2344  -25.3541   17.6633 C   0  0  2  0  0  0  0  0  0  0  0  0
  -27.1179  -26.5170   15.2755 C   0  0  0  0  0  0  0  0  0  0  0  0
  -23.8622  -25.4265   20.9396 C   0  0  0  0  0  0  0  0  0  0  0  0
  -25.3608  -24.5678   19.1271 C   0  0  0  0  0  0  0  0  0  0  0  0
  -23.0533  -25.3379   18.5747 C   0  0  0  0  0  0  0  0  0  0  0  0
  -27.1997  -30.2182   16.1535 C   0  0  0  0  0  0  0  0  0  0  0  0
  -24.8203  -27.0451   19.1709 C   0  0  1  0  0  0  0  0  0  0  0  0
  -26.6177  -27.8004   15.9200 C   0  0  2  0  0  0  0  0  0  0  0  0
  -24.2815  -25.6173   19.4682 C   0  0  0  0  0  0  0  0  0  0  0  0
  -31.0573  -22.9704   18.2697 N   0  0  0  0  0  0  0  0  0  0  0  0
  -33.1854  -31.1080   19.2612 N   0  0  0  0  0  0  0  0  0  0  0  0
  -30.6663  -24.2329   18.5132 N   0  0  0  0  0  0  0  0  0  0  0  0
  -24.2107  -29.0601   20.4717 N   0  0  0  0  0  0  0  0  0  0  0  0
  -33.0006  -27.0568   17.4360 N   0  0  0  0  0  0  0  0  0  0  0  0
  -33.3785  -33.3691   19.9514 N   0  0  0  0  0  0  0  0  0  0  0  0
  -29.2761  -25.5429   19.9138 N   0  0  0  0  0  0  0  0  0  0  0  0
  -28.5962  -21.3367   21.4110 N   0  0  0  0  0  0  0  0  0  0  0  0
  -32.7699  -28.6957   19.1162 N   0  0  0  0  0  0  0  0  0  0  0  0
  -21.3156  -29.1199   22.1993 N   0  0  0  0  0  0  0  0  0  0  0  0
  -25.1996  -27.2628   17.7791 N   0  0  0  0  0  0  0  0  0  0  0  0
  -27.5800  -28.8927   15.6008 N   0  3  0  0  0  0  0  0  0  0  0  0
  -28.0086  -23.5342   21.7013 O   0  0  0  0  0  0  0  0  0  0  0  0
  -32.9387  -33.3980   22.9504 O   0  0  0  0  0  0  0  0  0  0  0  0
  -23.4112  -29.2268   23.2090 O   0  0  0  0  0  0  0  0  0  0  0  0
  -22.7252  -28.1316   18.9330 O   0  0  0  0  0  0  0  0  0  0  0  0
  -27.4053  -27.8387   18.2037 O   0  0  0  0  0  0  0  0  0  0  0  0
  -33.6046  -29.2498   17.0238 O   0  0  0  0  0  0  0  0  0  0  0  0
  -31.4294  -31.6191   24.8681 O   0  0  0  0  0  0  0  0  0  0  0  0
  -30.9738  -16.7081   19.4214 O   0  0  0  0  0  0  0  0  0  0  0  0
  -28.8210  -31.4813   23.7786 O   0  0  0  0  0  0  0  0  0  1  0  0
  -26.4052  -13.6613   19.9200 F   0  0  0  0  0  0  0  0  0  0  0  0
  -29.2936  -17.0165   21.5950 F   0  0  0  0  0  0  0  0  0  0  0  0
  -32.2283  -29.9805   21.3813 S   0  0  0  0  0  0  0  0  0  0  0  0
  1  2  1  0  0  0  0
  1  5  2  0  0  0  0
  2  6  2  0  0  0  0
  3  8  2  0  0  0  0
  3 15  1  0  0  0  0
  4  9  1  0  0  0  0
  4 15  2  0  0  0  0
  5 17  1  0  0  0  0
  6 19  1  0  0  0  0
  7 10  2  0  0  0  0
  7 18  1  0  0  0  0
  8 21  1  0  0  0  0
  9 21  2  0  0  0  0
 10 22  1  0  0  0  0
 11 12  2  0  0  0  0
 11 23  1  0  0  0  0
 12 24  1  0  0  0  0
 13 20  1  0  0  0  0
 13 22  2  0  0  0  0
 14 24  2  0  0  0  0
 14 25  1  0  0  0  0
 15 26  1  0  0  0  0
 16 26  1  0  0  0  0
 16 29  2  0  0  0  0
 16 32  1  0  0  0  0
 17 19  2  0  0  0  0
 17 39  1  0  0  0  0
 18 20  2  0  0  0  0
 18 40  1  0  0  0  0
 19 48  1  0  0  0  0
 20 41  1  0  0  0  0
 21 78  1  0  0  0  0
 22 79  1  0  0  0  0
 23 25  2  0  0  0  0
 23 78  1  0  0  0  0
 24 80  1  0  0  0  0
 25 81  1  0  0  0  0
 26 59  2  0  0  0  0
 27 28  2  0  0  0  0
 27 33  1  0  0  0  0
 27 82  1  0  0  0  0
 28 60  1  0  0  0  0
 28 64  1  0  0  0  0
 29 61  1  0  0  0  0
 29 65  1  0  0  0  0
 30 60  2  0  0  0  0
 30 67  1  0  0  0  0
 30 82  1  0  0  0  0
 31 34  2  0  0  0  0
 31 79  1  0  0  0  0
 32 66  1  0  0  0  0
 32 71  2  0  0  0  0
 33 34  1  0  0  0  0
 33 72  2  0  0  0  0
 34 77  1  0  0  0  0
 35 49  1  0  0  0  0
 35 68  1  0  0  0  0
 35 73  2  0  0  0  0
 36 56  1  0  0  0  0
 36 62  1  0  0  0  0
 36 74  2  0  0  0  0
 37 57  1  0  0  0  0
 37 69  1  0  0  0  0
 37 75  2  0  0  0  0
 38 63  1  0  0  0  0
 38 67  1  0  0  0  0
 38 76  2  0  0  0  0
 39 42  1  0  0  0  0
 40 49  1  0  0  0  0
 41 62  1  0  0  0  0
 42 44  1  0  0  0  0
 43 45  1  0  0  0  0
 43 46  1  0  0  0  0
 44 48  1  0  0  0  0
 45 50  1  0  0  0  0
 46 63  1  0  0  0  0
 47 50  1  0  0  0  0
 47 63  1  0  0  0  0
 48 68  1  0  0  0  0
 49 62  1  0  0  0  0
 50 61  1  0  0  0  0
 51 57  1  0  0  0  0
 52 58  1  0  0  0  0
 53 58  1  0  0  0  0
 54 58  1  0  0  0  0
 55 70  1  0  0  0  0
 56 58  1  0  0  0  0
 56 69  1  0  0  0  0
 57 70  1  0  0  0  0
 59 61  1  0  0  0  0
M  CHG  1  70   1
M  ISO  4  31 101  38 100  67 100  79 101
M  END
> <Batch ID>
0180

> <Smiles>
CNC(C)C(=O)NC(C(=O)N1Cc2cc([101O:1][101CH2:1]C(=O)C(=O)c3sc([100NH:0][100C:0](=O)N4CCCC(n5nc(-c6ccc(Oc7ccc(F)cc7F)cc6)c(C(N)=O)c5N)C4)nc3N)ccc2CC1C(=O)NC1CCCc2ccccc21)C(C)(C)C

> <Shape>
0.263

> <Color>
0.091

> <Negative vol penalty>
0.000

$$$$

  -OEChem-04052304503D

 85 93  0     1  0  0  0  0  0999 V2000
  -16.9023  -24.4757   22.2089 C   0  0  0  0  0  0  0  0  0  0  0  0
  -18.0542  -23.8984   21.6842 C   0  0  0  0  0  0  0  0  0  0  0  0
  -22.4104  -10.8103   20.5703 C   0  0  0  0  0  0  0  0  0  0  0  0
  -24.2196   -9.8315   21.8376 C   0  0  0  0  0  0  0  0  0  0  0  0
  -16.9277  -25.7956   22.6576 C   0  0  0  0  0  0  0  0  0  0  0  0
  -19.2319  -24.6410   21.6068 C   0  0  0  0  0  0  0  0  0  0  0  0
  -24.9490  -22.5603   22.3079 C   0  0  0  0  0  0  0  0  0  0  0  0
  -21.5641   -9.7815   20.9839 C   0  0  0  0  0  0  0  0  0  0  0  0
  -23.3733   -8.8028   22.2512 C   0  0  0  0  0  0  0  0  0  0  0  0
  -25.9330  -22.1942   21.3906 C   0  0  0  0  0  0  0  0  0  0  0  0
  -21.5924   -6.1153   23.9317 C   0  0  0  0  0  0  0  0  0  0  0  0
  -21.6202   -5.7537   25.2786 C   0  0  0  0  0  0  0  0  0  0  0  0
  -26.9063  -24.3945   21.5656 C   0  0  0  0  0  0  0  0  0  0  0  0
  -30.1137  -17.5939   20.1783 C   0  0  0  0  0  0  0  0  0  0  0  0
  -20.9588   -7.9944   25.8939 C   0  0  0  0  0  0  0  0  0  0  0  0
  -23.7382  -10.8353   20.9971 C   0  0  0  0  0  0  0  0  0  0  0  0
  -24.8300  -13.1307   21.2129 C   0  0  0  0  0  0  0  0  0  0  0  0
  -18.1088  -26.5517   22.5945 C   0  0  0  0  0  0  0  0  0  0  0  0
  -24.9298  -23.8520   22.8536 C   0  0  0  0  0  0  0  0  0  0  0  0
  -19.2727  -25.9726   22.0538 C   0  0  0  0  0  0  0  0  0  0  0  0
  -25.9225  -24.7737   22.4916 C   0  0  0  0  0  0  0  0  0  0  0  0
  -30.6842  -16.2890   20.2211 C   0  0  0  0  0  0  0  0  0  0  0  0
  -22.0456   -8.7778   21.8244 C   0  0  0  0  0  0  0  0  0  0  0  0
  -26.9102  -23.1122   21.0171 C   0  0  0  0  0  0  0  0  0  0  0  0
  -21.2479   -7.4166   23.5660 C   0  0  0  0  0  0  0  0  0  0  0  0
  -21.3034   -6.6932   26.2597 C   0  0  0  0  0  0  0  0  0  0  0  0
  -20.9311   -8.3561   24.5471 C   0  0  0  0  0  0  0  0  0  0  0  0
  -24.6130  -11.8974   20.5698 C   0  0  0  0  0  0  0  0  0  0  0  0
  -30.4331  -15.5764   19.0693 C   0  0  0  0  0  0  0  0  0  0  0  0
  -25.7407  -13.7787   20.4147 C   0  0  0  0  0  0  0  0  0  0  0  0
  -29.4484  -17.8291   18.9951 C   0  0  0  0  0  0  0  0  0  0  0  0
  -24.2593  -13.6446   22.4237 C   0  0  0  0  0  0  0  0  0  0  0  0
  -30.8277  -14.2480   18.7241 C   0  0  0  0  0  0  0  0  0  0  0  0
  -27.7618  -21.1447   18.3927 C   0  0  0  0  0  0  0  0  0  0  0  0
  -27.4752  -22.3686   18.8727 C   0  0  0  0  0  0  0  0  0  1  0  0
  -30.4679  -13.6291   17.4277 C   0  0  0  0  0  0  0  0  0  0  0  0
  -28.5626  -20.1723   19.2092 C   0  0  0  0  0  0  0  0  0  0  0  0
  -22.8786  -26.2795   22.7999 C   0  0  0  0  0  0  0  0  0  0  0  0
  -24.9747  -27.5888   24.9010 C   0  0  0  0  0  0  0  0  0  0  0  0
  -28.1585  -27.7068   26.1241 C   0  0  0  0  0  0  0  0  0  0  0  0
  -18.0753  -27.9896   23.0481 C   0  0  0  0  0  0  0  0  0  0  0  0
  -23.8773  -24.2228   23.8621 C   0  0  0  0  0  0  0  0  0  0  0  0
  -25.9582  -26.1664   23.0639 C   0  0  0  0  0  0  0  0  0  0  0  0
  -19.4606  -28.5886   23.2769 C   0  0  0  0  0  0  0  0  0  0  0  0
  -27.4228  -12.7035   15.7762 C   0  0  0  0  0  0  0  0  0  0  0  0
  -20.3862  -28.2536   22.1117 C   0  0  0  0  0  0  0  0  0  0  0  0
  -26.4496  -12.4748   16.9323 C   0  0  0  0  0  0  0  0  0  0  0  0
  -28.8421  -12.2892   16.1510 C   0  0  0  0  0  0  0  0  0  0  0  0
  -28.3859  -12.7286   18.5484 C   0  0  0  0  0  0  0  0  0  0  0  0
  -20.5760  -26.7379   21.9760 C   0  0  1  0  0  0  0  0  0  0  0  0
  -23.6517  -25.7281   23.9643 C   0  0  1  0  0  0  0  0  0  0  0  0
  -26.9471  -13.1613   18.2168 C   0  0  2  0  0  0  0  0  0  0  0  0
  -31.4559  -15.7722   21.3774 C   0  0  0  0  0  0  0  0  0  0  0  0
  -26.6928  -23.4016   18.1154 C   0  0  0  0  0  0  0  0  0  0  0  0
  -29.5766  -28.9032   27.8138 C   0  0  0  0  0  0  0  0  0  0  0  0
  -25.0905  -30.0288   23.0726 C   0  0  0  0  0  0  0  0  0  0  0  0
  -27.1717  -30.7397   24.2690 C   0  0  0  0  0  0  0  0  0  0  0  0
  -25.0186  -30.5584   25.5157 C   0  0  0  0  0  0  0  0  0  0  0  0
  -28.7431  -25.1981   27.5814 C   0  0  0  0  0  0  0  0  0  0  0  0
  -26.2082  -28.4510   24.7836 C   0  0  1  0  0  0  0  0  0  0  0  0
  -28.6928  -27.6951   27.5449 C   0  0  2  0  0  0  0  0  0  0  0  0
  -25.8707  -29.9189   24.3978 C   0  0  0  0  0  0  0  0  0  0  0  0
  -25.3282  -11.7674   19.4492 N   0  0  0  0  0  0  0  0  0  0  0  0
  -31.5382  -13.4570   19.5069 N   0  0  0  0  0  0  0  0  0  0  0  0
  -26.0034  -12.9274   19.3820 N   0  0  0  0  0  0  0  0  0  0  0  0
  -29.2693  -12.9303   17.3930 N   0  0  0  0  0  0  0  0  0  0  0  0
  -24.9039  -26.4833   24.0414 N   0  0  0  0  0  0  0  0  0  0  0  0
  -26.3344  -14.9879   20.5025 N   0  0  0  0  0  0  0  0  0  0  0  0
  -23.3399  -12.8480   23.1197 N   0  0  0  0  0  0  0  0  0  0  0  0
  -28.7475  -18.9715   18.5372 N   0  0  0  0  0  0  0  0  0  0  0  0
  -21.5077  -26.2541   22.9721 N   0  0  0  0  0  0  0  0  0  0  0  0
  -26.9233  -28.3148   26.0479 N   0  0  0  0  0  0  0  0  0  0  0  0
  -29.4953  -26.4627   27.7864 N   0  3  0  0  0  0  0  0  0  0  0  0
  -24.5436  -14.7834   22.8663 O   0  0  0  0  0  0  0  0  0  0  0  0
  -31.2714  -13.8008   16.5203 O   0  0  0  0  0  0  0  0  0  0  0  0
  -28.9671  -20.4738   20.3265 O   0  0  0  0  0  0  0  0  0  0  0  0
  -23.4811  -26.6985   21.8185 O   0  0  0  0  0  0  0  0  0  0  0  0
  -24.1092  -27.8811   25.7299 O   0  0  0  0  0  0  0  0  0  0  0  0
  -28.7768  -27.2280   25.1759 O   0  0  0  0  0  0  0  0  0  0  0  0
  -27.3386  -20.7507   17.1372 O   0  0  0  0  0  0  0  0  0  0  0  0
  -21.2200   -7.7739   22.2283 O   0  0  0  0  0  0  0  0  0  0  0  0
  -27.8714  -22.7577   20.1215 O   0  0  0  0  0  0  0  0  0  1  0  0
  -21.3286   -6.3453   27.5529 F   0  0  0  0  0  0  0  0  0  0  0  0
  -20.5982   -9.6074   24.2017 F   0  0  0  0  0  0  0  0  0  0  0  0
  -29.5131  -16.4799   17.9425 S   0  0  0  0  0  0  0  0  0  0  0  0
  1  2  1  0  0  0  0
  1  5  2  0  0  0  0
  2  6  2  0  0  0  0
  3  8  2  0  0  0  0
  3 16  1  0  0  0  0
  4  9  1  0  0  0  0
  4 16  2  0  0  0  0
  5 18  1  0  0  0  0
  6 20  1  0  0  0  0
  7 10  2  0  0  0  0
  7 19  1  0  0  0  0
  8 23  1  0  0  0  0
  9 23  2  0  0  0  0
 10 24  1  0  0  0  0
 11 12  2  0  0  0  0
 11 25  1  0  0  0  0
 12 26  1  0  0  0  0
 13 21  1  0  0  0  0
 13 24  2  0  0  0  0
 14 22  1  0  0  0  0
 14 31  2  0  0  0  0
 15 26  2  0  0  0  0
 15 27  1  0  0  0  0
 16 28  1  0  0  0  0
 17 28  1  0  0  0  0
 17 30  2  0  0  0  0
 17 32  1  0  0  0  0
 18 20  2  0  0  0  0
 18 41  1  0  0  0  0
 19 21  2  0  0  0  0
 19 42  1  0  0  0  0
 20 50  1  0  0  0  0
 21 43  1  0  0  0  0
 22 29  2  0  0  0  0
 22 53  1  0  0  0  0
 23 81  1  0  0  0  0
 24 82  1  0  0  0  0
 25 27  2  0  0  0  0
 25 81  1  0  0  0  0
 26 83  1  0  0  0  0
 27 84  1  0  0  0  0
 28 63  2  0  0  0  0
 29 33  1  0  0  0  0
 29 85  1  0  0  0  0
 30 65  1  0  0  0  0
 30 68  1  0  0  0  0
 31 70  1  0  0  0  0
 31 85  1  0  0  0  0
 32 69  1  0  0  0  0
 32 74  2  0  0  0  0
 33 36  1  0  0  0  0
 33 64  2  0  0  0  0
 34 35  2  0  0  0  0
 34 37  1  0  0  0  0
 34 80  1  0  0  0  0
 35 54  1  0  0  0  0
 35 82  1  0  0  0  0
 36 66  1  0  0  0  0
 36 75  2  0  0  0  0
 37 70  1  0  0  0  0
 37 76  2  0  0  0  0
 38 51  1  0  0  0  0
 38 71  1  0  0  0  0
 38 77  2  0  0  0  0
 39 60  1  0  0  0  0
 39 67  1  0  0  0  0
 39 78  2  0  0  0  0
 40 61  1  0  0  0  0
 40 72  1  0  0  0  0
 40 79  2  0  0  0  0
 41 44  1  0  0  0  0
 42 51  1  0  0  0  0
 43 67  1  0  0  0  0
 44 46  1  0  0  0  0
 45 47  1  0  0  0  0
 45 48  1  0  0  0  0
 46 50  1  0  0  0  0
 47 52  1  0  0  0  0
 48 66  1  0  0  0  0
 49 52  1  0  0  0  0
 49 66  1  0  0  0  0
 50 71  1  0  0  0  0
 51 67  1  0  0  0  0
 52 65  1  0  0  0  0
 55 61  1  0  0  0  0
 56 62  1  0  0  0  0
 57 62  1  0  0  0  0
 58 62  1  0  0  0  0
 59 73  1  0  0  0  0
 60 62  1  0  0  0  0
 60 72  1  0  0  0  0
 61 73  1  0  0  0  0
 63 65  1  0  0  0  0
M  CHG  1  73   1
M  ISO  4  33 100  35 101  36 100  82 101
M  END
> <Batch ID>
0180

> <Smiles>
CNC(C)C(=O)NC(C(=O)N1Cc2cc([101O:1][101CH:1](C)C(=O)C(=O)Nc3cc(C)c([100C:0](=N)[100C:0](=O)N4CCCC(n5nc(-c6ccc(Oc7ccc(F)cc7F)cc6)c(C(N)=O)c5N)C4)s3)ccc2CC1C(=O)NC1CCCc2ccccc21)C(C)(C)C

> <Shape>
0.254

> <Color>
0.087

> <Negative vol penalty>
0.000

$$$$

  -OEChem-04052304503D

 87 95  0     1  0  0  0  0  0999 V2000
  -26.6109  -38.2960   21.6550 C   0  0  0  0  0  0  0  0  0  0  0  0
  -27.1599  -37.2589   20.9077 C   0  0  0  0  0  0  0  0  0  0  0  0
  -23.1190   -9.8425   21.3292 C   0  0  0  0  0  0  0  0  0  0  0  0
  -23.5332  -11.2380   23.2575 C   0  0  0  0  0  0  0  0  0  0  0  0
  -25.9962  -38.0240   22.8766 C   0  0  0  0  0  0  0  0  0  0  0  0
  -27.0955  -35.9493   21.3821 C   0  0  0  0  0  0  0  0  0  0  0  0
  -26.5153  -29.1950   19.0669 C   0  0  0  0  0  0  0  0  0  0  0  0
  -22.3173   -9.0066   22.1063 C   0  0  0  0  0  0  0  0  0  0  0  0
  -22.7314  -10.4020   24.0346 C   0  0  0  0  0  0  0  0  0  0  0  0
  -27.1401  -27.9553   19.1946 C   0  0  0  0  0  0  0  0  0  0  0  0
  -22.7557   -6.5298   24.3641 C   0  0  0  0  0  0  0  0  0  0  0  0
  -22.9337   -5.1530   24.2285 C   0  0  0  0  0  0  0  0  0  0  0  0
  -25.9839  -27.5943   21.2808 C   0  0  0  0  0  0  0  0  0  0  0  0
  -20.6318   -4.9242   23.5311 C   0  0  0  0  0  0  0  0  0  0  0  0
  -23.7270  -10.9583   21.9047 C   0  0  0  0  0  0  0  0  0  0  0  0
  -24.1471  -12.9535   20.3717 C   0  0  0  0  0  0  0  0  0  0  0  0
  -25.9157  -36.7092   23.3616 C   0  0  0  0  0  0  0  0  0  0  0  0
  -25.6269  -29.6493   20.0522 C   0  0  0  0  0  0  0  0  0  0  0  0
  -26.4804  -35.6596   22.6119 C   0  0  0  0  0  0  0  0  0  0  0  0
  -25.3472  -28.8391   21.1619 C   0  0  0  0  0  0  0  0  0  0  0  0
  -22.1235   -9.2863   23.4590 C   0  0  0  0  0  0  0  0  0  0  0  0
  -26.8767  -27.1559   20.3031 C   0  0  0  0  0  0  0  0  0  0  0  0
  -21.5158   -7.1038   24.0833 C   0  0  0  0  0  0  0  0  0  0  0  0
  -21.8717   -4.3502   23.8120 C   0  0  0  0  0  0  0  0  0  0  0  0
  -20.4539   -6.3010   23.6668 C   0  0  0  0  0  0  0  0  0  0  0  0
  -24.5558  -11.8219   21.1026 C   0  0  0  0  0  0  0  0  0  0  0  0
  -31.6434  -18.9344   19.1404 C   0  0  0  0  0  0  0  0  0  0  0  0
  -25.2995  -13.4197   19.7878 C   0  0  0  0  0  0  0  0  0  0  0  0
  -30.4541  -19.5934   19.3713 C   0  0  0  0  0  0  0  0  0  0  0  0
  -30.4243  -17.2135   19.7424 C   0  0  0  0  0  0  0  0  0  0  0  0
  -28.8478  -22.9895   19.2976 C   0  0  0  0  0  0  0  0  0  0  0  0
  -22.8424  -13.5316   20.2330 C   0  0  0  0  0  0  0  0  0  0  0  0
  -27.7761  -23.7789   19.4756 C   0  0  0  0  0  0  0  0  0  0  0  0
  -28.8330  -21.5105   19.5293 C   0  0  0  0  0  0  0  0  0  0  0  0
  -25.5609  -32.1264   22.0431 C   0  0  0  0  0  0  0  0  0  0  0  0
  -22.6056  -30.9867   22.7431 C   0  0  0  0  0  0  0  0  0  0  0  0
  -20.4665  -28.3284   22.8101 C   0  0  0  0  0  0  0  0  0  0  0  0
  -30.7055  -14.7285   20.0452 C   0  0  0  0  0  0  0  0  0  0  0  0
  -25.2834  -36.4702   24.7098 C   0  0  0  0  0  0  0  0  0  0  0  0
  -24.9407  -30.9774   19.8864 C   0  0  0  0  0  0  0  0  0  0  0  0
  -24.3859  -29.2719   22.2376 C   0  0  0  0  0  0  0  0  0  0  0  0
  -24.9258  -35.0081   24.9643 C   0  0  0  0  0  0  0  0  0  0  0  0
  -29.8903  -11.3189   19.4230 C   0  0  0  0  0  0  0  0  0  0  0  0
  -26.0873  -34.0990   24.5756 C   0  0  0  0  0  0  0  0  0  0  0  0
  -28.3962  -11.2388   19.7444 C   0  0  0  0  0  0  0  0  0  0  0  0
  -30.6243  -12.2662   20.3704 C   0  0  0  0  0  0  0  0  0  0  0  0
  -28.5540  -13.5332   20.7922 C   0  0  0  0  0  0  0  0  0  0  0  0
  -26.4085  -34.2227   23.0812 C   0  0  1  0  0  0  0  0  0  0  0  0
  -24.4474  -31.5639   21.2055 C   0  0  1  0  0  0  0  0  0  0  0  0
  -27.7609  -12.6409   19.8235 C   0  0  2  0  0  0  0  0  0  0  0  0
  -18.1295  -27.6967   23.4708 C   0  0  0  0  0  0  0  0  0  0  0  0
  -34.0625  -19.3449   19.6990 C   0  0  0  0  0  0  0  0  0  0  0  0
  -33.3571  -19.0531   17.3014 C   0  0  0  0  0  0  0  0  0  0  0  0
  -23.4385  -30.9847   25.6784 C   0  0  0  0  0  0  0  0  0  0  0  0
  -21.4857  -29.4935   26.1594 C   0  0  0  0  0  0  0  0  0  0  0  0
  -21.1081  -31.7878   25.2558 C   0  0  0  0  0  0  0  0  0  0  0  0
  -19.7658  -27.5630   20.0385 C   0  0  0  0  0  0  0  0  0  0  0  0
  -27.8214  -25.2575   19.2264 C   0  0  0  0  0  0  0  0  0  1  0  0
  -22.0494  -29.9977   23.7388 C   0  0  1  0  0  0  0  0  0  0  0  0
  -19.0295  -28.1798   22.3441 C   0  0  2  0  0  0  0  0  0  0  0  0
  -32.9078  -19.5539   18.6930 C   0  0  0  0  0  0  0  0  0  0  0  0
  -22.0401  -30.5583   25.1890 C   0  0  0  0  0  0  0  0  0  0  0  0
  -25.8655  -11.5835   20.9944 N   0  0  0  0  0  0  0  0  0  0  0  0
  -31.6283  -17.5697   19.3531 N   0  0  0  0  0  0  0  0  0  0  0  0
  -26.2898  -12.5718   20.1886 N   0  0  0  0  0  0  0  0  0  0  0  0
  -23.7448  -30.5814   22.0333 N   0  0  0  0  0  0  0  0  0  0  0  0
  -29.9688  -13.5757   20.3906 N   0  0  0  0  0  0  0  0  0  0  0  0
  -25.5523  -14.4681   18.9757 N   0  0  0  0  0  0  0  0  0  0  0  0
  -21.7690  -12.9263   20.9007 N   0  0  0  0  0  0  0  0  0  0  0  0
  -30.0798  -20.9558   19.2663 N   0  0  0  0  0  0  0  0  0  0  0  0
  -29.9686  -15.9121   20.0686 N   0  0  0  0  0  0  0  0  0  0  0  0
  -25.4470  -33.4803   22.2945 N   0  0  0  0  0  0  0  0  0  0  0  0
  -20.7344  -29.6111   23.2391 N   0  0  0  0  0  0  0  0  0  0  0  0
  -18.9468  -27.2006   21.2238 N   0  3  0  0  0  0  0  0  0  0  0  0
  -22.6317  -14.5450   19.5244 O   0  0  0  0  0  0  0  0  0  0  0  0
  -27.8220  -20.9280   19.9017 O   0  0  0  0  0  0  0  0  0  0  0  0
  -26.4562  -31.3864   22.4336 O   0  0  0  0  0  0  0  0  0  0  0  0
  -22.0456  -32.0758   22.5952 O   0  0  0  0  0  0  0  0  0  0  0  0
  -21.2701  -27.3984   22.7985 O   0  0  0  0  0  0  0  0  0  0  0  0
  -31.8950  -14.6664   19.7241 O   0  0  0  0  0  0  0  0  0  0  0  0
  -26.5533  -23.2823   19.8815 O   0  0  0  0  0  0  0  0  0  0  0  0
  -21.3410   -8.4709   24.2177 O   0  0  0  0  0  0  0  0  0  0  0  0
  -27.4857  -25.9456   20.4306 O   0  0  0  0  0  0  0  0  0  1  0  0
  -22.0432   -3.0283   23.6803 F   0  0  0  0  0  0  0  0  0  0  0  0
  -19.2608   -6.8469   23.3944 F   0  0  0  0  0  0  0  0  0  0  0  0
  -32.8252  -20.9336   18.5493 F   0  0  0  0  0  0  0  0  0  0  0  0
  -29.2611  -18.4684   19.8737 S   0  0  0  0  0  0  0  0  0  0  0  0
  1  2  1  0  0  0  0
  1  5  2  0  0  0  0
  2  6  2  0  0  0  0
  3  8  2  0  0  0  0
  3 15  1  0  0  0  0
  4  9  1  0  0  0  0
  4 15  2  0  0  0  0
  5 17  1  0  0  0  0
  6 19  1  0  0  0  0
  7 10  2  0  0  0  0
  7 18  1  0  0  0  0
  8 21  1  0  0  0  0
  9 21  2  0  0  0  0
 10 22  1  0  0  0  0
 11 12  2  0  0  0  0
 11 23  1  0  0  0  0
 12 24  1  0  0  0  0
 13 20  1  0  0  0  0
 13 22  2  0  0  0  0
 14 24  2  0  0  0  0
 14 25  1  0  0  0  0
 15 26  1  0  0  0  0
 16 26  1  0  0  0  0
 16 28  2  0  0  0  0
 16 32  1  0  0  0  0
 17 19  2  0  0  0  0
 17 39  1  0  0  0  0
 18 20  2  0  0  0  0
 18 40  1  0  0  0  0
 19 48  1  0  0  0  0
 20 41  1  0  0  0  0
 21 82  1  0  0  0  0
 22 83  1  0  0  0  0
 23 25  2  0  0  0  0
 23 82  1  0  0  0  0
 24 84  1  0  0  0  0
 25 85  1  0  0  0  0
 26 63  2  0  0  0  0
 27 29  2  0  0  0  0
 27 61  1  0  0  0  0
 27 64  1  0  0  0  0
 28 65  1  0  0  0  0
 28 68  1  0  0  0  0
 29 70  1  0  0  0  0
 29 87  1  0  0  0  0
 30 64  2  0  0  0  0
 30 71  1  0  0  0  0
 30 87  1  0  0  0  0
 31 33  2  0  0  0  0
 31 34  1  0  0  0  0
 32 69  1  0  0  0  0
 32 75  2  0  0  0  0
 33 58  1  0  0  0  0
 33 81  1  0  0  0  0
 34 70  1  0  0  0  0
 34 76  2  0  0  0  0
 35 49  1  0  0  0  0
 35 72  1  0  0  0  0
 35 77  2  0  0  0  0
 36 59  1  0  0  0  0
 36 66  1  0  0  0  0
 36 78  2  0  0  0  0
 37 60  1  0  0  0  0
 37 73  1  0  0  0  0
 37 79  2  0  0  0  0
 38 67  1  0  0  0  0
 38 71  1  0  0  0  0
 38 80  2  0  0  0  0
 39 42  1  0  0  0  0
 40 49  1  0  0  0  0
 41 66  1  0  0  0  0
 42 44  1  0  0  0  0
 43 45  1  0  0  0  0
 43 46  1  0  0  0  0
 44 48  1  0  0  0  0
 45 50  1  0  0  0  0
 46 67  1  0  0  0  0
 47 50  1  0  0  0  0
 47 67  1  0  0  0  0
 48 72  1  0  0  0  0
 49 66  1  0  0  0  0
 50 65  1  0  0  0  0
 51 60  1  0  0  0  0
 52 61  1  0  0  0  0
 53 61  1  0  0  0  0
 54 62  1  0  0  0  0
 55 62  1  0  0  0  0
 56 62  1  0  0  0  0
 57 74  1  0  0  0  0
 58 83  1  0  0  0  0
 59 62  1  0  0  0  0
 59 73  1  0  0  0  0
 60 74  1  0  0  0  0
 61 86  1  0  0  0  0
 63 65  1  0  0  0  0
M  CHG  1  74   1
M  ISO  4  38 100  58 101  71 100  83 101
M  END
> <Batch ID>
0180

> <Smiles>
CNC(C)C(=O)NC(C(=O)N1Cc2cc([101O:1][101CH2:1]C(=O)CC(=O)Nc3sc([100NH:0][100C:0](=O)N4CCCC(n5nc(-c6ccc(Oc7ccc(F)cc7F)cc6)c(C(N)=O)c5N)C4)nc3C(C)(C)F)ccc2CC1C(=O)NC1CCCc2ccccc21)C(C)(C)C

> <Shape>
0.355

> <Color>
0.144

> <Negative vol penalty>
0.000

$$$$

  -OEChem-04052304503D

 84 92  0     1  0  0  0  0  0999 V2000
  -26.0291  -35.8666   14.7399 C   0  0  0  0  0  0  0  0  0  0  0  0
  -26.7234  -34.7281   15.1363 C   0  0  0  0  0  0  0  0  0  0  0  0
  -27.5525  -12.7134   18.7475 C   0  0  0  0  0  0  0  0  0  0  0  0
  -28.3101  -14.2863   20.4176 C   0  0  0  0  0  0  0  0  0  0  0  0
  -25.1519  -36.4905   15.6259 C   0  0  0  0  0  0  0  0  0  0  0  0
  -26.5417  -34.2134   16.4195 C   0  0  0  0  0  0  0  0  0  0  0  0
  -26.6147  -28.3148   18.0647 C   0  0  0  0  0  0  0  0  0  0  0  0
  -28.8536  -12.2287   18.6139 C   0  0  0  0  0  0  0  0  0  0  0  0
  -29.6112  -13.8016   20.2840 C   0  0  0  0  0  0  0  0  0  0  0  0
  -27.6039  -27.5106   18.6289 C   0  0  0  0  0  0  0  0  0  0  0  0
  -30.9189  -10.1417   20.2908 C   0  0  0  0  0  0  0  0  0  0  0  0
  -31.0946   -8.7585   20.2526 C   0  0  0  0  0  0  0  0  0  0  0  0
  -26.6809  -27.9220   20.8193 C   0  0  0  0  0  0  0  0  0  0  0  0
  -32.0867   -8.9452   18.0576 C   0  0  0  0  0  0  0  0  0  0  0  0
  -27.2808  -13.7423   19.6494 C   0  0  0  0  0  0  0  0  0  0  0  0
  -24.9443  -13.7825   20.6726 C   0  0  0  0  0  0  0  0  0  0  0  0
  -24.9519  -35.9777   16.9173 C   0  0  0  0  0  0  0  0  0  0  0  0
  -25.6560  -28.9386   18.8761 C   0  0  0  0  0  0  0  0  0  0  0  0
  -25.6619  -34.8319   17.3241 C   0  0  0  0  0  0  0  0  0  0  0  0
  -25.6790  -28.7317   20.2627 C   0  0  0  0  0  0  0  0  0  0  0  0
  -29.8829  -12.7728   19.3821 C   0  0  0  0  0  0  0  0  0  0  0  0
  -27.6389  -27.3164   20.0066 C   0  0  0  0  0  0  0  0  0  0  0  0
  -31.3270  -10.9267   19.2124 C   0  0  0  0  0  0  0  0  0  0  0  0
  -31.6785   -8.1602   19.1361 C   0  0  0  0  0  0  0  0  0  0  0  0
  -31.9110  -10.3284   18.0958 C   0  0  0  0  0  0  0  0  0  0  0  0
  -25.9371  -14.2438   19.7875 C   0  0  0  0  0  0  0  0  0  0  0  0
  -24.5401  -23.3248   21.6707 C   0  0  0  0  0  0  0  0  0  0  0  0
  -23.6679  -23.7063   20.6728 C   0  0  0  0  0  0  0  0  0  0  0  0
  -23.8568  -14.5810   20.4151 C   0  0  0  0  0  0  0  0  0  0  0  0
  -24.0134  -21.6365   20.0353 C   0  0  0  0  0  0  0  0  0  0  0  0
  -25.0001  -12.7267   21.6410 C   0  0  0  0  0  0  0  0  0  0  0  0
  -25.0691  -24.0865   22.8116 C   0  0  0  0  0  0  0  0  0  0  0  0
  -24.8629  -31.9531   19.4983 C   0  0  0  0  0  0  0  0  0  0  0  0
  -22.4429  -30.5654   21.1537 C   0  0  0  0  0  0  0  0  0  0  0  0
  -21.2609  -27.8209   22.8022 C   0  0  0  0  0  0  0  0  0  0  0  0
  -27.0792  -24.9241   21.4971 C   0  0  0  0  0  0  0  0  0  0  0  0
  -23.2772  -20.0941   18.1845 C   0  0  0  0  0  0  0  0  0  0  0  0
  -24.0291  -36.7139   17.8559 C   0  0  0  0  0  0  0  0  0  0  0  0
  -24.5793  -29.7815   18.2495 C   0  0  0  0  0  0  0  0  0  0  0  0
  -24.6605  -29.3624   21.1756 C   0  0  0  0  0  0  0  0  0  0  0  0
  -23.6100  -35.8887   19.0699 C   0  0  0  0  0  0  0  0  0  0  0  0
  -21.8185  -17.1120   16.8975 C   0  0  0  0  0  0  0  0  0  0  0  0
  -24.8211  -35.2002   19.6912 C   0  0  0  0  0  0  0  0  0  0  0  0
  -22.6147  -15.9960   17.5777 C   0  0  0  0  0  0  0  0  0  0  0  0
  -22.7016  -18.3101   16.5533 C   0  0  0  0  0  0  0  0  0  0  0  0
  -24.2797  -17.7315   18.3544 C   0  0  0  0  0  0  0  0  0  0  0  0
  -25.4728  -34.2292   18.6992 C   0  0  1  0  0  0  0  0  0  0  0  0
  -23.9625  -30.7825   19.2215 C   0  0  1  0  0  0  0  0  0  0  0  0
  -23.4198  -16.5298   18.7788 C   0  0  2  0  0  0  0  0  0  0  0  0
  -19.6197  -26.3618   24.0166 C   0  0  0  0  0  0  0  0  0  0  0  0
  -29.4838  -25.0421   22.2058 C   0  0  0  0  0  0  0  0  0  0  0  0
  -23.3152  -32.2152   23.5677 C   0  0  0  0  0  0  0  0  0  0  0  0
  -21.9509  -30.6930   25.0133 C   0  0  0  0  0  0  0  0  0  0  0  0
  -20.8395  -32.0617   23.2485 C   0  0  0  0  0  0  0  0  0  0  0  0
  -20.2340  -26.6735   20.2748 C   0  0  0  0  0  0  0  0  0  0  0  0
  -22.2574  -30.0810   22.5714 C   0  0  1  0  0  0  0  0  0  0  0  0
  -19.9328  -27.0904   22.7190 C   0  0  2  0  0  0  0  0  0  0  0  0
  -28.2681  -25.8399   21.7616 C   0  0  1  0  0  0  0  0  0  1  0  0
  -22.1112  -31.2523   23.5835 C   0  0  0  0  0  0  0  0  0  0  0  0
  -25.5175  -15.2567   19.0246 N   0  0  0  0  0  0  0  0  0  0  0  0
  -23.3650  -22.7396   19.7339 N   0  0  0  0  0  0  0  0  0  0  0  0
  -24.2490  -15.4384   19.4295 N   0  0  0  0  0  0  0  0  0  0  0  0
  -23.6315  -30.1830   20.5159 N   0  0  0  0  0  0  0  0  0  0  0  0
  -23.4303  -18.7638   17.7399 N   0  0  0  0  0  0  0  0  0  0  0  0
  -22.6129  -14.6262   20.9377 N   0  0  0  0  0  0  0  0  0  0  0  0
  -26.1949  -12.0066   21.7762 N   0  0  0  0  0  0  0  0  0  0  0  0
  -23.9934  -20.4015   19.3409 N   0  0  0  0  0  0  0  0  0  0  0  0
  -26.2576  -24.7996   22.6326 N   0  0  0  0  0  0  0  0  0  0  0  0
  -24.7074  -33.0039   18.6144 N   0  0  0  0  0  0  0  0  0  0  0  0
  -21.1196  -29.1683   22.5454 N   0  0  0  0  0  0  0  0  0  0  0  0
  -19.9596  -26.0912   21.6136 N   0  3  0  0  0  0  0  0  0  0  0  0
  -24.0144  -12.4198   22.3535 O   0  0  0  0  0  0  0  0  0  0  0  0
  -25.6401  -31.9071   20.4447 O   0  0  0  0  0  0  0  0  0  0  0  0
  -21.5623  -31.2516   20.6290 O   0  0  0  0  0  0  0  0  0  0  0  0
  -22.3173  -27.2538   23.0720 O   0  0  0  0  0  0  0  0  0  0  0  0
  -26.8887  -24.4009   20.4026 O   0  0  0  0  0  0  0  0  0  0  0  0
  -22.5421  -20.8934   17.5993 O   0  0  0  0  0  0  0  0  0  0  0  0
  -31.1526  -12.2999   19.2521 O   0  0  0  0  0  0  0  0  0  0  0  0
  -28.6038  -26.5324   20.5599 O   0  0  0  0  0  0  0  0  0  1  0  0
  -31.8486   -6.8321   19.1002 F   0  0  0  0  0  0  0  0  0  0  0  0
  -32.3062  -11.0774   17.0573 F   0  0  0  0  0  0  0  0  0  0  0  0
  -23.1443  -24.9357   20.6107 F   0  0  0  0  0  0  0  0  0  0  0  0
  -24.2825  -24.1020   24.2956 S   0  0  0  0  0  0  0  0  0  0  0  0
  -25.0049  -21.6909   21.4349 S   0  0  0  0  0  0  0  0  0  0  0  0
  1  2  1  0  0  0  0
  1  5  2  0  0  0  0
  2  6  2  0  0  0  0
  3  8  2  0  0  0  0
  3 15  1  0  0  0  0
  4  9  1  0  0  0  0
  4 15  2  0  0  0  0
  5 17  1  0  0  0  0
  6 19  1  0  0  0  0
  7 10  2  0  0  0  0
  7 18  1  0  0  0  0
  8 21  1  0  0  0  0
  9 21  2  0  0  0  0
 10 22  1  0  0  0  0
 11 12  2  0  0  0  0
 11 23  1  0  0  0  0
 12 24  1  0  0  0  0
 13 20  1  0  0  0  0
 13 22  2  0  0  0  0
 14 24  2  0  0  0  0
 14 25  1  0  0  0  0
 15 26  1  0  0  0  0
 16 26  1  0  0  0  0
 16 29  2  0  0  0  0
 16 31  1  0  0  0  0
 17 19  2  0  0  0  0
 17 38  1  0  0  0  0
 18 20  2  0  0  0  0
 18 39  1  0  0  0  0
 19 47  1  0  0  0  0
 20 40  1  0  0  0  0
 21 78  1  0  0  0  0
 22 79  1  0  0  0  0
 23 25  2  0  0  0  0
 23 78  1  0  0  0  0
 24 80  1  0  0  0  0
 25 81  1  0  0  0  0
 26 60  2  0  0  0  0
 27 28  2  0  0  0  0
 27 32  1  0  0  0  0
 27 84  1  0  0  0  0
 28 61  1  0  0  0  0
 28 82  1  0  0  0  0
 29 62  1  0  0  0  0
 29 65  1  0  0  0  0
 30 61  2  0  0  0  0
 30 67  1  0  0  0  0
 30 84  1  0  0  0  0
 31 66  1  0  0  0  0
 31 72  2  0  0  0  0
 32 68  1  0  0  0  0
 32 83  2  0  0  0  0
 33 48  1  0  0  0  0
 33 69  1  0  0  0  0
 33 73  2  0  0  0  0
 34 56  1  0  0  0  0
 34 63  1  0  0  0  0
 34 74  2  0  0  0  0
 35 57  1  0  0  0  0
 35 70  1  0  0  0  0
 35 75  2  0  0  0  0
 36 58  1  0  0  0  0
 36 68  1  0  0  0  0
 36 76  2  0  0  0  0
 37 64  1  0  0  0  0
 37 67  1  0  0  0  0
 37 77  2  0  0  0  0
 38 41  1  0  0  0  0
 39 48  1  0  0  0  0
 40 63  1  0  0  0  0
 41 43  1  0  0  0  0
 42 44  1  0  0  0  0
 42 45  1  0  0  0  0
 43 47  1  0  0  0  0
 44 49  1  0  0  0  0
 45 64  1  0  0  0  0
 46 49  1  0  0  0  0
 46 64  1  0  0  0  0
 47 69  1  0  0  0  0
 48 63  1  0  0  0  0
 49 62  1  0  0  0  0
 50 57  1  0  0  0  0
 51 58  1  0  0  0  0
 52 59  1  0  0  0  0
 53 59  1  0  0  0  0
 54 59  1  0  0  0  0
 55 71  1  0  0  0  0
 56 59  1  0  0  0  0
 56 70  1  0  0  0  0
 57 71  1  0  0  0  0
 58 79  1  0  0  0  0
 60 62  1  0  0  0  0
M  CHG  1  71   1
M  ISO  4  37 100  58 101  67 100  79 101
M  END
> <Batch ID>
0180

> <Smiles>
CNC(C)C(=O)NC(C(=O)N1Cc2cc([101O:1][101CH:1](C)C(=O)NC(=S)c3sc([100NH:0][100C:0](=O)N4CCCC(n5nc(-c6ccc(Oc7ccc(F)cc7F)cc6)c(C(N)=O)c5N)C4)nc3F)ccc2CC1C(=O)NC1CCCc2ccccc21)C(C)(C)C

> <Shape>
0.192

> <Color>
0.071

> <Negative vol penalty>
0.000

$$$$

  -OEChem-04052304503D

 83 91  0     1  0  0  0  0  0999 V2000
  -25.7956  -37.7718   26.8729 C   0  0  0  0  0  0  0  0  0  0  0  0
  -25.1262  -36.6388   27.3243 C   0  0  0  0  0  0  0  0  0  0  0  0
  -24.4728   -9.2720   21.5700 C   0  0  0  0  0  0  0  0  0  0  0  0
  -22.6360  -10.3388   20.4189 C   0  0  0  0  0  0  0  0  0  0  0  0
  -26.0642  -37.9260   25.5135 C   0  0  0  0  0  0  0  0  0  0  0  0
  -24.7242  -35.6598   26.4164 C   0  0  0  0  0  0  0  0  0  0  0  0
  -23.7864  -28.5772   25.8943 C   0  0  0  0  0  0  0  0  0  0  0  0
  -23.7086   -8.1144   21.7168 C   0  0  0  0  0  0  0  0  0  0  0  0
  -21.8717   -9.1812   20.5657 C   0  0  0  0  0  0  0  0  0  0  0  0
  -22.8223  -27.6432   25.5175 C   0  0  0  0  0  0  0  0  0  0  0  0
  -21.2226   -7.0093   23.7225 C   0  0  0  0  0  0  0  0  0  0  0  0
  -21.2265   -6.3849   24.9697 C   0  0  0  0  0  0  0  0  0  0  0  0
  -23.4107  -27.9790   23.2022 C   0  0  0  0  0  0  0  0  0  0  0  0
  -22.1172   -4.3778   23.9621 C   0  0  0  0  0  0  0  0  0  0  0  0
  -23.9365  -10.3842   20.9210 C   0  0  0  0  0  0  0  0  0  0  0  0
  -25.5825  -11.9038   19.7008 C   0  0  0  0  0  0  0  0  0  0  0  0
  -25.6738  -36.9439   24.5896 C   0  0  0  0  0  0  0  0  0  0  0  0
  -24.5637  -29.2281   24.9255 C   0  0  0  0  0  0  0  0  0  0  0  0
  -24.9867  -35.8017   25.0431 C   0  0  0  0  0  0  0  0  0  0  0  0
  -24.3857  -28.9189   23.5695 C   0  0  0  0  0  0  0  0  0  0  0  0
  -22.4080   -8.0690   21.2147 C   0  0  0  0  0  0  0  0  0  0  0  0
  -22.6323  -27.3461   24.1711 C   0  0  0  0  0  0  0  0  0  0  0  0
  -21.6659   -6.3180   22.5950 C   0  0  0  0  0  0  0  0  0  0  0  0
  -21.6738   -5.0692   25.0896 C   0  0  0  0  0  0  0  0  0  0  0  0
  -22.1132   -5.0022   22.7148 C   0  0  0  0  0  0  0  0  0  0  0  0
  -24.7253  -11.5804   20.7696 C   0  0  0  0  0  0  0  0  0  0  0  0
  -20.5372  -19.9705   21.0076 C   0  0  0  0  0  0  0  0  0  0  0  0
  -21.2617  -20.6377   21.9730 C   0  0  0  0  0  0  0  0  0  0  0  0
  -26.0913  -13.1365   20.0295 C   0  0  0  0  0  0  0  0  0  0  0  0
  -22.2388  -18.6799   22.1217 C   0  0  0  0  0  0  0  0  0  0  0  0
  -22.0674  -25.1251   23.7036 C   0  0  0  0  0  0  0  0  0  1  0  0
  -25.8913  -11.1567   18.5166 C   0  0  0  0  0  0  0  0  0  0  0  0
  -21.2257  -24.1469   23.3482 C   0  0  0  0  0  0  0  0  0  0  0  0
  -21.7367  -22.7393   23.2723 C   0  0  0  0  0  0  0  0  0  0  0  0
  -24.9533  -32.2507   24.0222 C   0  0  0  0  0  0  0  0  0  0  0  0
  -27.2734  -30.9819   22.1435 C   0  0  0  0  0  0  0  0  0  0  0  0
  -28.5145  -28.2490   20.5195 C   0  0  0  0  0  0  0  0  0  0  0  0
  -24.0822  -17.6001   23.4567 C   0  0  0  0  0  0  0  0  0  0  0  0
  -25.9445  -37.1771   23.1243 C   0  0  0  0  0  0  0  0  0  0  0  0
  -25.6180  -30.2134   25.3501 C   0  0  0  0  0  0  0  0  0  0  0  0
  -25.2083  -29.5750   22.4919 C   0  0  0  0  0  0  0  0  0  0  0  0
  -25.8162  -35.9164   22.2731 C   0  0  0  0  0  0  0  0  0  0  0  0
  -27.1637  -15.8544   23.8238 C   0  0  0  0  0  0  0  0  0  0  0  0
  -24.5397  -35.1604   22.6276 C   0  0  0  0  0  0  0  0  0  0  0  0
  -26.9683  -14.5927   22.9801 C   0  0  0  0  0  0  0  0  0  0  0  0
  -25.8768  -16.2640   24.5380 C   0  0  0  0  0  0  0  0  0  0  0  0
  -24.5067  -15.1432   22.8246 C   0  0  0  0  0  0  0  0  0  0  0  0
  -24.5564  -34.7060   24.0921 C   0  0  1  0  0  0  0  0  0  0  0  0
  -25.9984  -31.1945   24.2456 C   0  0  1  0  0  0  0  0  0  0  0  0
  -25.7587  -14.7287   22.0346 C   0  0  2  0  0  0  0  0  0  0  0  0
  -19.4372  -20.4426   20.1420 C   0  0  0  0  0  0  0  0  0  0  0  0
  -30.4057  -27.5301   19.0349 C   0  0  0  0  0  0  0  0  0  0  0  0
  -25.9337  -32.3599   19.7736 C   0  0  0  0  0  0  0  0  0  0  0  0
  -27.2533  -30.8725   18.2522 C   0  0  0  0  0  0  0  0  0  0  0  0
  -28.4323  -32.4664   19.7662 C   0  0  0  0  0  0  0  0  0  0  0  0
  -29.4806  -26.2812   22.5078 C   0  0  0  0  0  0  0  0  0  0  0  0
  -27.3259  -30.4148   20.7455 C   0  0  1  0  0  0  0  0  0  0  0  0
  -29.9110  -27.6563   20.4675 C   0  0  2  0  0  0  0  0  0  0  0  0
  -27.2193  -31.5173   19.6543 C   0  0  0  0  0  0  0  0  0  0  0  0
  -24.6891  -12.5310   21.7072 N   0  0  0  0  0  0  0  0  0  0  0  0
  -22.2377  -19.8991   22.6132 N   0  0  0  0  0  0  0  0  0  0  0  0
  -25.5300  -13.4636   21.2287 N   0  0  0  0  0  0  0  0  0  0  0  0
  -26.2221  -30.5360   22.9570 N   0  0  0  0  0  0  0  0  0  0  0  0
  -24.7757  -16.3774   23.5792 N   0  0  0  0  0  0  0  0  0  0  0  0
  -26.9597  -13.9616   19.4070 N   0  0  0  0  0  0  0  0  0  0  0  0
  -25.2804   -9.9083   18.3360 N   0  0  0  0  0  0  0  0  0  0  0  0
  -21.0546  -21.9946   22.3198 N   0  0  0  0  0  0  0  0  0  0  0  0
  -23.0770  -17.5985   22.4902 N   0  0  0  0  0  0  0  0  0  0  0  0
  -25.3978  -33.5391   24.2497 N   0  0  0  0  0  0  0  0  0  0  0  0
  -28.5465  -29.6189   20.6734 N   0  0  0  0  0  0  0  0  0  0  0  0
  -29.9225  -26.3021   21.0896 N   0  3  0  0  0  0  0  0  0  0  0  0
  -26.6979  -11.5762   17.6524 O   0  0  0  0  0  0  0  0  0  0  0  0
  -22.6513  -22.3612   23.9964 O   0  0  0  0  0  0  0  0  0  0  0  0
  -23.8273  -31.9212   23.6682 O   0  0  0  0  0  0  0  0  0  0  0  0
  -28.1376  -31.7854   22.5031 O   0  0  0  0  0  0  0  0  0  0  0  0
  -27.4970  -27.5656   20.4286 O   0  0  0  0  0  0  0  0  0  0  0  0
  -24.3778  -18.5848   24.1384 O   0  0  0  0  0  0  0  0  0  0  0  0
  -19.8992  -24.3818   23.0484 O   0  0  0  0  0  0  0  0  0  0  0  0
  -21.6621   -6.9395   21.3575 O   0  0  0  0  0  0  0  0  0  0  0  0
  -21.6915  -26.4354   23.8005 O   0  0  0  0  0  0  0  0  0  1  0  0
  -21.6790   -4.4702   26.2876 F   0  0  0  0  0  0  0  0  0  0  0  0
  -22.5414   -4.3334   21.6354 F   0  0  0  0  0  0  0  0  0  0  0  0
  -21.0931  -18.3526   20.8867 S   0  0  0  0  0  0  0  0  0  0  0  0
  1  2  1  0  0  0  0
  1  5  2  0  0  0  0
  2  6  2  0  0  0  0
  3  8  2  0  0  0  0
  3 15  1  0  0  0  0
  4  9  1  0  0  0  0
  4 15  2  0  0  0  0
  5 17  1  0  0  0  0
  6 19  1  0  0  0  0
  7 10  2  0  0  0  0
  7 18  1  0  0  0  0
  8 21  1  0  0  0  0
  9 21  2  0  0  0  0
 10 22  1  0  0  0  0
 11 12  2  0  0  0  0
 11 23  1  0  0  0  0
 12 24  1  0  0  0  0
 13 20  1  0  0  0  0
 13 22  2  0  0  0  0
 14 24  2  0  0  0  0
 14 25  1  0  0  0  0
 15 26  1  0  0  0  0
 16 26  1  0  0  0  0
 16 29  2  0  0  0  0
 16 32  1  0  0  0  0
 17 19  2  0  0  0  0
 17 39  1  0  0  0  0
 18 20  2  0  0  0  0
 18 40  1  0  0  0  0
 19 48  1  0  0  0  0
 20 41  1  0  0  0  0
 21 79  1  0  0  0  0
 22 80  1  0  0  0  0
 23 25  2  0  0  0  0
 23 79  1  0  0  0  0
 24 81  1  0  0  0  0
 25 82  1  0  0  0  0
 26 60  2  0  0  0  0
 27 28  2  0  0  0  0
 27 51  1  0  0  0  0
 27 83  1  0  0  0  0
 28 61  1  0  0  0  0
 28 67  1  0  0  0  0
 29 62  1  0  0  0  0
 29 65  1  0  0  0  0
 30 61  2  0  0  0  0
 30 68  1  0  0  0  0
 30 83  1  0  0  0  0
 31 33  2  0  0  0  0
 31 80  1  0  0  0  0
 32 66  1  0  0  0  0
 32 72  2  0  0  0  0
 33 34  1  0  0  0  0
 33 78  1  0  0  0  0
 34 67  1  0  0  0  0
 34 73  2  0  0  0  0
 35 49  1  0  0  0  0
 35 69  1  0  0  0  0
 35 74  2  0  0  0  0
 36 57  1  0  0  0  0
 36 63  1  0  0  0  0
 36 75  2  0  0  0  0
 37 58  1  0  0  0  0
 37 70  1  0  0  0  0
 37 76  2  0  0  0  0
 38 64  1  0  0  0  0
 38 68  1  0  0  0  0
 38 77  2  0  0  0  0
 39 42  1  0  0  0  0
 40 49  1  0  0  0  0
 41 63  1  0  0  0  0
 42 44  1  0  0  0  0
 43 45  1  0  0  0  0
 43 46  1  0  0  0  0
 44 48  1  0  0  0  0
 45 50  1  0  0  0  0
 46 64  1  0  0  0  0
 47 50  1  0  0  0  0
 47 64  1  0  0  0  0
 48 69  1  0  0  0  0
 49 63  1  0  0  0  0
 50 62  1  0  0  0  0
 52 58  1  0  0  0  0
 53 59  1  0  0  0  0
 54 59  1  0  0  0  0
 55 59  1  0  0  0  0
 56 71  1  0  0  0  0
 57 59  1  0  0  0  0
 57 70  1  0  0  0  0
 58 71  1  0  0  0  0
 60 62  1  0  0  0  0
M  CHG  1  71   1
M  ISO  4  31 101  38 100  68 100  80 101
M  END
> <Batch ID>
0180

> <Smiles>
CNC(C)C(=O)NC(C(=O)N1Cc2cc([101O:1][101CH2:1]C(=O)C(=O)Nc3nc([100NH:0][100C:0](=O)N4CCCC(n5nc(-c6ccc(Oc7ccc(F)cc7F)cc6)c(C(N)=O)c5N)C4)sc3C)ccc2CC1C(=O)NC1CCCc2ccccc21)C(C)(C)C

> <Shape>
0.253

> <Color>
0.108

> <Negative vol penalty>
0.000

$$$$

  -OEChem-04052304503D

 86 94  0     1  0  0  0  0  0999 V2000
  -30.9372  -18.7081   14.8324 C   0  0  0  0  0  0  0  0  0  0  0  0
  -30.7313  -19.0971   16.1521 C   0  0  0  0  0  0  0  0  0  0  0  0
  -23.0016   -9.8892   19.9818 C   0  0  0  0  0  0  0  0  0  0  0  0
  -23.7270   -9.9436   22.2857 C   0  0  0  0  0  0  0  0  0  0  0  0
  -31.8691  -19.3832   14.0452 C   0  0  0  0  0  0  0  0  0  0  0  0
  -31.4581  -20.1608   16.6857 C   0  0  0  0  0  0  0  0  0  0  0  0
  -28.5636  -23.3471   19.3530 C   0  0  0  0  0  0  0  0  0  0  0  0
  -22.2365   -8.7541   20.2495 C   0  0  0  0  0  0  0  0  0  0  0  0
  -22.9618   -8.8085   22.5534 C   0  0  0  0  0  0  0  0  0  0  0  0
  -28.2054  -22.9546   20.6420 C   0  0  0  0  0  0  0  0  0  0  0  0
  -23.2102   -5.4693   22.0852 C   0  0  0  0  0  0  0  0  0  0  0  0
  -23.7990   -4.4537   22.8383 C   0  0  0  0  0  0  0  0  0  0  0  0
  -29.9434  -24.3615   21.5469 C   0  0  0  0  0  0  0  0  0  0  0  0
  -22.0750   -4.6963   24.5135 C   0  0  0  0  0  0  0  0  0  0  0  0
  -23.7469  -10.4840   21.0000 C   0  0  0  0  0  0  0  0  0  0  0  0
  -24.1291  -12.9998   20.8211 C   0  0  0  0  0  0  0  0  0  0  0  0
  -32.6008  -20.4618   14.5665 C   0  0  0  0  0  0  0  0  0  0  0  0
  -29.6233  -24.2428   19.1504 C   0  0  0  0  0  0  0  0  0  0  0  0
  -32.4016  -20.8500   15.9052 C   0  0  0  0  0  0  0  0  0  0  0  0
  -30.3115  -24.7658   20.2545 C   0  0  0  0  0  0  0  0  0  0  0  0
  -22.2166   -8.2137   21.5353 C   0  0  0  0  0  0  0  0  0  0  0  0
  -28.8972  -23.4596   21.7390 C   0  0  0  0  0  0  0  0  0  0  0  0
  -22.0538   -6.0986   22.5462 C   0  0  0  0  0  0  0  0  0  0  0  0
  -23.2314   -4.0671   24.0525 C   0  0  0  0  0  0  0  0  0  0  0  0
  -21.4862   -5.7120   23.7603 C   0  0  0  0  0  0  0  0  0  0  0  0
  -24.5379  -11.6562   20.7240 C   0  0  0  0  0  0  0  0  0  0  0  0
  -31.8366  -18.6721   22.2004 C   0  0  0  0  0  0  0  0  0  0  0  0
  -25.2380  -13.7234   20.4558 C   0  0  0  0  0  0  0  0  0  0  0  0
  -30.7298  -19.0746   22.9180 C   0  0  0  0  0  0  0  0  0  0  0  0
  -30.5764  -16.9057   21.8812 C   0  0  0  0  0  0  0  0  0  0  0  0
  -22.8605  -13.5451   21.2072 C   0  0  0  0  0  0  0  0  0  0  0  0
  -32.4319  -24.0966   17.6692 C   0  0  0  0  0  0  0  0  0  0  0  0
  -32.5394  -27.2566   18.3942 C   0  0  0  0  0  0  0  0  0  0  0  0
  -31.4853  -29.8054   20.4040 C   0  0  0  0  0  0  0  0  0  0  0  0
  -29.2760  -20.5587   24.3467 C   0  0  0  0  0  0  0  0  0  0  0  0
  -30.7163  -14.6913   20.6883 C   0  0  0  0  0  0  0  0  0  0  0  0
  -33.6312  -21.1306   13.6915 C   0  0  0  0  0  0  0  0  0  0  0  0
  -29.9800  -24.6769   17.7551 C   0  0  0  0  0  0  0  0  0  0  0  0
  -31.4435  -25.7458   20.0919 C   0  0  0  0  0  0  0  0  0  0  0  0
  -34.0904  -22.4874   14.2193 C   0  0  0  0  0  0  0  0  0  0  0  0
  -29.6008  -12.2347   18.3650 C   0  0  0  0  0  0  0  0  0  0  0  0
  -34.4008  -22.4029   15.7104 C   0  0  0  0  0  0  0  0  0  0  0  0
  -28.1505  -11.9757   18.7796 C   0  0  0  0  0  0  0  0  0  0  0  0
  -30.5011  -12.4804   19.5745 C   0  0  0  0  0  0  0  0  0  0  0  0
  -28.5849  -13.2683   20.9074 C   0  0  0  0  0  0  0  0  0  0  0  0
  -33.1528  -22.0149   16.5126 C   0  0  1  0  0  0  0  0  0  0  0  0
  -31.4094  -25.1972   17.6383 C   0  0  1  0  0  0  0  0  0  0  0  0
  -27.6274  -13.0796   19.7195 C   0  0  2  0  0  0  0  0  0  0  0  0
  -33.3612  -19.7992   20.5394 C   0  0  0  0  0  0  0  0  0  0  0  0
  -34.3220  -18.7405   22.6157 C   0  0  0  0  0  0  0  0  0  0  0  0
  -31.7757  -32.2701   20.7754 C   0  0  0  0  0  0  0  0  0  0  0  0
  -30.4809  -21.9793   26.0461 C   0  0  0  0  0  0  0  0  0  0  0  0
  -27.9902  -22.2349   25.7492 C   0  0  0  0  0  0  0  0  0  0  0  0
  -35.2540  -26.7394   19.6878 C   0  0  0  0  0  0  0  0  0  0  0  0
  -35.0486  -28.9527   20.8400 C   0  0  0  0  0  0  0  0  0  0  0  0
  -35.1211  -28.8474   18.3487 C   0  0  0  0  0  0  0  0  0  0  0  0
  -28.6196  -30.3378   19.8915 C   0  0  0  0  0  0  0  0  0  0  0  0
  -29.5873  -23.0501   23.9778 C   0  0  0  0  0  0  0  0  0  1  0  0
  -33.0825  -19.4449   22.0181 C   0  0  0  0  0  0  0  0  0  0  0  0
  -33.0443  -28.0688   19.5622 C   0  0  1  0  0  0  0  0  0  0  0  0
  -30.9592  -31.1919   20.0801 C   0  0  2  0  0  0  0  0  0  0  0  0
  -29.3225  -21.9501   25.0333 C   0  0  0  0  0  0  0  0  0  0  0  0
  -34.5970  -28.1322   19.6130 C   0  0  0  0  0  0  0  0  0  0  0  0
  -25.8073  -11.5308   20.3278 N   0  0  0  0  0  0  0  0  0  0  0  0
  -31.7507  -17.4285   21.6056 N   0  0  0  0  0  0  0  0  0  0  0  0
  -26.2057  -12.8049   20.1728 N   0  0  0  0  0  0  0  0  0  0  0  0
  -31.7588  -26.1348   18.7074 N   0  0  0  0  0  0  0  0  0  0  0  0
  -29.9449  -13.5416   20.4167 N   0  0  0  0  0  0  0  0  0  0  0  0
  -25.4698  -15.0492   20.3523 N   0  0  0  0  0  0  0  0  0  0  0  0
  -21.8299  -12.6601   21.5518 N   0  0  0  0  0  0  0  0  0  0  0  0
  -30.4418  -20.2521   23.6506 N   0  0  0  0  0  0  0  0  0  0  0  0
  -30.0710  -15.6465   21.4729 N   0  0  0  0  0  0  0  0  0  0  0  0
  -32.2770  -23.1565   16.6683 N   0  0  0  0  0  0  0  0  0  0  0  0
  -32.3960  -29.3721   19.4637 N   0  0  0  0  0  0  0  0  0  0  0  0
  -29.5401  -31.3224   20.5162 N   0  3  0  0  0  0  0  0  0  0  0  0
  -22.6423  -14.7802   21.2296 O   0  0  0  0  0  0  0  0  0  0  0  0
  -33.2982  -24.1010   18.5359 O   0  0  0  0  0  0  0  0  0  0  0  0
  -32.8211  -27.6086   17.2460 O   0  0  0  0  0  0  0  0  0  0  0  0
  -31.1273  -29.1716   21.3944 O   0  0  0  0  0  0  0  0  0  0  0  0
  -28.2803  -19.8423   24.4322 O   0  0  0  0  0  0  0  0  0  0  0  0
  -31.8548  -14.8311   20.2340 O   0  0  0  0  0  0  0  0  0  0  0  0
  -21.4699   -7.1062   21.7969 O   0  0  0  0  0  0  0  0  0  0  0  0
  -28.5500  -23.0777   22.9982 O   0  0  0  0  0  0  0  0  0  1  0  0
  -23.7962   -3.0907   24.7749 F   0  0  0  0  0  0  0  0  0  0  0  0
  -20.3746   -6.3120   24.2077 F   0  0  0  0  0  0  0  0  0  0  0  0
  -29.5257  -17.8552   22.8504 S   0  0  0  0  0  0  0  0  0  0  0  0
  1  2  1  0  0  0  0
  1  5  2  0  0  0  0
  2  6  2  0  0  0  0
  3  8  2  0  0  0  0
  3 15  1  0  0  0  0
  4  9  1  0  0  0  0
  4 15  2  0  0  0  0
  5 17  1  0  0  0  0
  6 19  1  0  0  0  0
  7 10  2  0  0  0  0
  7 18  1  0  0  0  0
  8 21  1  0  0  0  0
  9 21  2  0  0  0  0
 10 22  1  0  0  0  0
 11 12  2  0  0  0  0
 11 23  1  0  0  0  0
 12 24  1  0  0  0  0
 13 20  1  0  0  0  0
 13 22  2  0  0  0  0
 14 24  2  0  0  0  0
 14 25  1  0  0  0  0
 15 26  1  0  0  0  0
 16 26  1  0  0  0  0
 16 28  2  0  0  0  0
 16 31  1  0  0  0  0
 17 19  2  0  0  0  0
 17 37  1  0  0  0  0
 18 20  2  0  0  0  0
 18 38  1  0  0  0  0
 19 46  1  0  0  0  0
 20 39  1  0  0  0  0
 21 82  1  0  0  0  0
 22 83  1  0  0  0  0
 23 25  2  0  0  0  0
 23 82  1  0  0  0  0
 24 84  1  0  0  0  0
 25 85  1  0  0  0  0
 26 64  2  0  0  0  0
 27 29  2  0  0  0  0
 27 59  1  0  0  0  0
 27 65  1  0  0  0  0
 28 66  1  0  0  0  0
 28 69  1  0  0  0  0
 29 71  1  0  0  0  0
 29 86  1  0  0  0  0
 30 65  2  0  0  0  0
 30 72  1  0  0  0  0
 30 86  1  0  0  0  0
 31 70  1  0  0  0  0
 31 76  2  0  0  0  0
 32 47  1  0  0  0  0
 32 73  1  0  0  0  0
 32 77  2  0  0  0  0
 33 60  1  0  0  0  0
 33 67  1  0  0  0  0
 33 78  2  0  0  0  0
 34 61  1  0  0  0  0
 34 74  1  0  0  0  0
 34 79  2  0  0  0  0
 35 62  1  0  0  0  0
 35 71  1  0  0  0  0
 35 80  2  0  0  0  0
 36 68  1  0  0  0  0
 36 72  1  0  0  0  0
 36 81  2  0  0  0  0
 37 40  1  0  0  0  0
 38 47  1  0  0  0  0
 39 67  1  0  0  0  0
 40 42  1  0  0  0  0
 41 43  1  0  0  0  0
 41 44  1  0  0  0  0
 42 46  1  0  0  0  0
 43 48  1  0  0  0  0
 44 68  1  0  0  0  0
 45 48  1  0  0  0  0
 45 68  1  0  0  0  0
 46 73  1  0  0  0  0
 47 67  1  0  0  0  0
 48 66  1  0  0  0  0
 49 59  1  0  0  0  0
 50 59  1  0  0  0  0
 51 61  1  0  0  0  0
 52 62  1  0  0  0  0
 53 62  1  0  0  0  0
 54 63  1  0  0  0  0
 55 63  1  0  0  0  0
 56 63  1  0  0  0  0
 57 75  1  0  0  0  0
 58 62  1  0  0  0  0
 58 83  1  0  0  0  0
 60 63  1  0  0  0  0
 60 74  1  0  0  0  0
 61 75  1  0  0  0  0
 64 66  1  0  0  0  0
M  CHG  1  75   1
M  ISO  4  36 100  58 101  72 100  83 101
M  END
> <Batch ID>
0180

> <Smiles>
CNC(C)C(=O)NC(C(=O)N1Cc2cc([101O:1][101CH2:1]C(C)(C)C(=O)Nc3sc([100NH:0][100C:0](=O)N4CCCC(n5nc(-c6ccc(Oc7ccc(F)cc7F)cc6)c(C(N)=O)c5N)C4)nc3C(C)C)ccc2CC1C(=O)NC1CCCc2ccccc21)C(C)(C)C

> <Shape>
0.233

> <Color>
0.186

> <Negative vol penalty>
0.000

$$$$

  -OEChem-04052304503D

 84 92  0     1  0  0  0  0  0999 V2000
  -16.6570  -30.5470   20.2290 C   0  0  0  0  0  0  0  0  0  0  0  0
  -17.9097  -30.0359   19.9051 C   0  0  0  0  0  0  0  0  0  0  0  0
  -22.9999   -9.9171   20.4383 C   0  0  0  0  0  0  0  0  0  0  0  0
  -23.7036  -10.3190   22.7143 C   0  0  0  0  0  0  0  0  0  0  0  0
  -16.1755  -30.4351   21.5326 C   0  0  0  0  0  0  0  0  0  0  0  0
  -18.6822  -29.4136   20.8851 C   0  0  0  0  0  0  0  0  0  0  0  0
  -22.4676  -24.6604   20.1213 C   0  0  0  0  0  0  0  0  0  0  0  0
  -22.2126   -8.8498   20.8701 C   0  0  0  0  0  0  0  0  0  0  0  0
  -22.9162   -9.2517   23.1462 C   0  0  0  0  0  0  0  0  0  0  0  0
  -23.8497  -24.5789   19.9575 C   0  0  0  0  0  0  0  0  0  0  0  0
  -19.6499   -8.6672   23.7862 C   0  0  0  0  0  0  0  0  0  0  0  0
  -18.8638   -8.8616   24.9219 C   0  0  0  0  0  0  0  0  0  0  0  0
  -24.0992  -24.1644   22.3208 C   0  0  0  0  0  0  0  0  0  0  0  0
  -20.0224   -7.0561   26.0330 C   0  0  0  0  0  0  0  0  0  0  0  0
  -31.9648  -17.5115   21.0179 C   0  0  0  0  0  0  0  0  0  0  0  0
  -23.7454  -10.6517   21.3604 C   0  0  0  0  0  0  0  0  0  0  0  0
  -24.1731  -13.1026   20.7963 C   0  0  0  0  0  0  0  0  0  0  0  0
  -16.9384  -29.8025   22.5269 C   0  0  0  0  0  0  0  0  0  0  0  0
  -21.8908  -24.5051   21.3899 C   0  0  0  0  0  0  0  0  0  0  0  0
  -18.2111  -29.2944   22.2036 C   0  0  0  0  0  0  0  0  0  0  0  0
  -22.7093  -24.2418   22.4976 C   0  0  0  0  0  0  0  0  0  0  0  0
  -30.6872  -17.0160   21.3403 C   0  0  0  0  0  0  0  0  0  0  0  0
  -22.1707   -8.5171   22.2241 C   0  0  0  0  0  0  0  0  0  0  0  0
  -24.6660  -24.3338   21.0578 C   0  0  0  0  0  0  0  0  0  0  0  0
  -20.6222   -7.6671   23.7739 C   0  0  0  0  0  0  0  0  0  0  0  0
  -19.0500   -8.0561   26.0453 C   0  0  0  0  0  0  0  0  0  0  0  0
  -20.8085   -6.8616   24.8973 C   0  0  0  0  0  0  0  0  0  0  0  0
  -24.5594  -11.7541   20.9148 C   0  0  0  0  0  0  0  0  0  0  0  0
  -30.0530  -18.0715   21.9488 C   0  0  0  0  0  0  0  0  0  0  0  0
  -25.2978  -13.7428   20.3364 C   0  0  0  0  0  0  0  0  0  0  0  0
  -28.8080  -21.9579   21.9914 C   0  0  0  0  0  0  0  0  0  0  0  0
  -22.9104  -13.7212   21.0770 C   0  0  0  0  0  0  0  0  0  0  0  0
  -29.9510  -21.3724   21.5936 C   0  0  0  0  0  0  0  0  0  0  0  0
  -27.9741  -22.8584   21.1413 C   0  0  0  0  0  0  0  0  0  0  0  0
  -20.1594  -26.3557   23.3086 C   0  0  0  0  0  0  0  0  0  0  0  0
  -19.9626  -23.6542   25.0934 C   0  0  0  0  0  0  0  0  0  0  0  0
  -21.3076  -20.6322   25.9332 C   0  0  0  0  0  0  0  0  0  0  0  0
  -30.7896  -14.6496   20.4825 C   0  0  0  0  0  0  0  0  0  0  0  0
  -16.3959  -29.7474   23.9330 C   0  0  0  0  0  0  0  0  0  0  0  0
  -20.3961  -24.5693   21.5455 C   0  0  0  0  0  0  0  0  0  0  0  0
  -22.1379  -24.0474   23.8775 C   0  0  0  0  0  0  0  0  0  0  0  0
  -17.1180  -28.7413   24.8255 C   0  0  0  0  0  0  0  0  0  0  0  0
  -29.6543  -11.8779   18.5573 C   0  0  0  0  0  0  0  0  0  0  0  0
  -18.6294  -28.8812   24.6735 C   0  0  0  0  0  0  0  0  0  0  0  0
  -28.1958  -11.7095   18.9893 C   0  0  0  0  0  0  0  0  0  0  0  0
  -30.5469  -12.2954   19.7246 C   0  0  0  0  0  0  0  0  0  0  0  0
  -28.6318  -13.3117   20.8945 C   0  0  0  0  0  0  0  0  0  0  0  0
  -19.0682  -28.5905   23.2332 C   0  0  1  0  0  0  0  0  0  0  0  0
  -19.9572  -24.9065   22.9671 C   0  0  1  0  0  0  0  0  0  0  0  0
  -27.6827  -12.9547   19.7389 C   0  0  2  0  0  0  0  0  0  0  0  0
  -28.6971  -18.1999   22.5172 C   0  0  0  0  0  0  0  0  0  0  0  0
  -20.9426  -18.6666   27.4500 C   0  0  0  0  0  0  0  0  0  0  0  0
  -20.9885  -25.2900   27.4560 C   0  0  0  0  0  0  0  0  0  0  0  0
  -21.5004  -23.1401   28.6325 C   0  0  0  0  0  0  0  0  0  0  0  0
  -19.1475  -23.6921   28.0145 C   0  0  0  0  0  0  0  0  0  0  0  0
  -21.0407  -18.7706   23.6479 C   0  0  0  0  0  0  0  0  0  0  0  0
  -30.7494  -20.4829   22.5112 C   0  0  0  0  0  0  0  0  0  0  0  0
  -26.7251  -23.4047   21.8013 C   0  0  0  0  0  0  0  0  0  1  0  0
  -20.7855  -23.0425   26.2014 C   0  0  1  0  0  0  0  0  0  0  0  0
  -20.6834  -19.2554   26.0720 C   0  0  2  0  0  0  0  0  0  0  0  0
  -20.6167  -23.7967   27.5505 C   0  0  0  0  0  0  0  0  0  0  0  0
  -32.1339  -18.7829   21.3905 N   0  0  0  0  0  0  0  0  0  0  0  0
  -25.8302  -11.5485   20.5587 N   0  0  0  0  0  0  0  0  0  0  0  0
  -30.9541  -19.0953   21.9533 N   0  0  0  0  0  0  0  0  0  0  0  0
  -26.2522  -12.7764   20.2119 N   0  0  0  0  0  0  0  0  0  0  0  0
  -20.6713  -24.1256   23.9793 N   0  0  0  0  0  0  0  0  0  0  0  0
  -30.0010  -13.4837   20.3841 N   0  0  0  0  0  0  0  0  0  0  0  0
  -25.5537  -15.0325   20.0303 N   0  0  0  0  0  0  0  0  0  0  0  0
  -21.8612  -12.9170   21.5426 N   0  0  0  0  0  0  0  0  0  0  0  0
  -30.1532  -15.7256   21.1005 N   0  0  0  0  0  0  0  0  0  0  0  0
  -19.0856  -27.1643   22.9883 N   0  0  0  0  0  0  0  0  0  0  0  0
  -20.4147  -21.6325   26.2546 N   0  0  0  0  0  0  0  0  0  0  0  0
  -21.2451  -18.3266   25.0508 N   0  3  0  0  0  0  0  0  0  0  0  0
  -22.7135  -14.9479   20.9039 O   0  0  0  0  0  0  0  0  0  0  0  0
  -28.2800  -23.1360   19.9855 O   0  0  0  0  0  0  0  0  0  0  0  0
  -21.2111  -26.7135   23.8259 O   0  0  0  0  0  0  0  0  0  0  0  0
  -18.7355  -23.7051   25.2090 O   0  0  0  0  0  0  0  0  0  0  0  0
  -22.4720  -20.8030   25.5789 O   0  0  0  0  0  0  0  0  0  0  0  0
  -31.9346  -14.6989   20.0260 O   0  0  0  0  0  0  0  0  0  0  0  0
  -30.5207  -21.5399   20.3480 O   0  0  0  0  0  0  0  0  0  0  0  0
  -21.4024   -7.4758   22.6459 O   0  0  0  0  0  0  0  0  0  0  0  0
  -26.0154  -24.2544   20.9009 O   0  0  0  0  0  0  0  0  0  1  0  0
  -18.2961   -8.2440   27.1364 F   0  0  0  0  0  0  0  0  0  0  0  0
  -21.7418   -5.9000   24.8919 F   0  0  0  0  0  0  0  0  0  0  0  0
  1  2  1  0  0  0  0
  1  5  2  0  0  0  0
  2  6  2  0  0  0  0
  3  8  2  0  0  0  0
  3 16  1  0  0  0  0
  4  9  1  0  0  0  0
  4 16  2  0  0  0  0
  5 18  1  0  0  0  0
  6 20  1  0  0  0  0
  7 10  2  0  0  0  0
  7 19  1  0  0  0  0
  8 23  1  0  0  0  0
  9 23  2  0  0  0  0
 10 24  1  0  0  0  0
 11 12  2  0  0  0  0
 11 25  1  0  0  0  0
 12 26  1  0  0  0  0
 13 21  1  0  0  0  0
 13 24  2  0  0  0  0
 14 26  2  0  0  0  0
 14 27  1  0  0  0  0
 15 22  1  0  0  0  0
 15 62  2  0  0  0  0
 16 28  1  0  0  0  0
 17 28  1  0  0  0  0
 17 30  2  0  0  0  0
 17 32  1  0  0  0  0
 18 20  2  0  0  0  0
 18 39  1  0  0  0  0
 19 21  2  0  0  0  0
 19 40  1  0  0  0  0
 20 48  1  0  0  0  0
 21 41  1  0  0  0  0
 22 29  2  0  0  0  0
 22 70  1  0  0  0  0
 23 81  1  0  0  0  0
 24 82  1  0  0  0  0
 25 27  2  0  0  0  0
 25 81  1  0  0  0  0
 26 83  1  0  0  0  0
 27 84  1  0  0  0  0
 28 63  2  0  0  0  0
 29 51  1  0  0  0  0
 29 64  1  0  0  0  0
 30 65  1  0  0  0  0
 30 68  1  0  0  0  0
 31 33  2  0  0  0  0
 31 34  1  0  0  0  0
 32 69  1  0  0  0  0
 32 74  2  0  0  0  0
 33 57  1  0  0  0  0
 33 80  1  0  0  0  0
 34 58  1  0  0  0  0
 34 75  2  0  0  0  0
 35 49  1  0  0  0  0
 35 71  1  0  0  0  0
 35 76  2  0  0  0  0
 36 59  1  0  0  0  0
 36 66  1  0  0  0  0
 36 77  2  0  0  0  0
 37 60  1  0  0  0  0
 37 72  1  0  0  0  0
 37 78  2  0  0  0  0
 38 67  1  0  0  0  0
 38 70  1  0  0  0  0
 38 79  2  0  0  0  0
 39 42  1  0  0  0  0
 40 49  1  0  0  0  0
 41 66  1  0  0  0  0
 42 44  1  0  0  0  0
 43 45  1  0  0  0  0
 43 46  1  0  0  0  0
 44 48  1  0  0  0  0
 45 50  1  0  0  0  0
 46 67  1  0  0  0  0
 47 50  1  0  0  0  0
 47 67  1  0  0  0  0
 48 71  1  0  0  0  0
 49 66  1  0  0  0  0
 50 65  1  0  0  0  0
 52 60  1  0  0  0  0
 53 61  1  0  0  0  0
 54 61  1  0  0  0  0
 55 61  1  0  0  0  0
 56 73  1  0  0  0  0
 57 64  1  0  0  0  0
 58 82  1  0  0  0  0
 59 61  1  0  0  0  0
 59 72  1  0  0  0  0
 60 73  1  0  0  0  0
 62 64  1  0  0  0  0
 63 65  1  0  0  0  0
M  CHG  1  73   1
M  ISO  4  38 100  58 101  70 100  82 101
M  END
> <Batch ID>
0180

> <Smiles>
CNC(C)C(=O)NC(C(=O)N1Cc2cc([101O:1][101CH2:1]C(=O)CC(=O)Cn3ncc([100NH:0][100C:0](=O)N4CCCC(n5nc(-c6ccc(Oc7ccc(F)cc7F)cc6)c(C(N)=O)c5N)C4)c3C)ccc2CC1C(=O)NC1CCCc2ccccc21)C(C)(C)C

> <Shape>
0.234

> <Color>
0.185

> <Negative vol penalty>
0.000

$$$$

  -OEChem-04052304503D

 85 93  0     1  0  0  0  0  0999 V2000
  -27.9032  -24.9443   16.2039 C   0  0  0  0  0  0  0  0  0  0  0  0
  -26.7341  -25.1021   16.9413 C   0  0  0  0  0  0  0  0  0  0  0  0
  -26.6604  -12.9186   20.9109 C   0  0  0  0  0  0  0  0  0  0  0  0
  -24.6014  -13.9766   20.2193 C   0  0  0  0  0  0  0  0  0  0  0  0
  -29.1143  -25.4137   16.7107 C   0  0  0  0  0  0  0  0  0  0  0  0
  -26.7757  -25.7285   18.1864 C   0  0  0  0  0  0  0  0  0  0  0  0
  -23.0338  -29.0854   18.7982 C   0  0  0  0  0  0  0  0  0  0  0  0
  -25.9519  -11.7698   21.2629 C   0  0  0  0  0  0  0  0  0  0  0  0
  -23.8929  -12.8277   20.5712 C   0  0  0  0  0  0  0  0  0  0  0  0
  -21.7698  -28.5816   19.1019 C   0  0  0  0  0  0  0  0  0  0  0  0
  -21.5872  -10.0424   20.9507 C   0  0  0  0  0  0  0  0  0  0  0  0
  -20.6220   -9.5760   20.0583 C   0  0  0  0  0  0  0  0  0  0  0  0
  -22.1250  -29.1094   21.4288 C   0  0  0  0  0  0  0  0  0  0  0  0
  -22.3210   -9.3063   18.3618 C   0  0  0  0  0  0  0  0  0  0  0  0
  -25.9851  -14.0220   20.3892 C   0  0  0  0  0  0  0  0  0  0  0  0
  -27.2888  -15.5054   18.7744 C   0  0  0  0  0  0  0  0  0  0  0  0
  -29.1692  -26.0547   17.9583 C   0  0  0  0  0  0  0  0  0  0  0  0
  -23.8587  -29.5958   19.8108 C   0  0  0  0  0  0  0  0  0  0  0  0
  -27.9889  -26.2057   18.7109 C   0  0  0  0  0  0  0  0  0  0  0  0
  -23.3981  -29.6214   21.1350 C   0  0  0  0  0  0  0  0  0  0  0  0
  -24.5681  -11.7243   21.0930 C   0  0  0  0  0  0  0  0  0  0  0  0
  -21.3164  -28.5909   20.4177 C   0  0  0  0  0  0  0  0  0  0  0  0
  -22.9193  -10.1409   20.5487 C   0  0  0  0  0  0  0  0  0  0  0  0
  -20.9889   -9.2079   18.7639 C   0  0  0  0  0  0  0  0  0  0  0  0
  -23.2862   -9.7728   19.2543 C   0  0  0  0  0  0  0  0  0  0  0  0
  -26.7164  -15.2092   20.0260 C   0  0  0  0  0  0  0  0  0  0  0  0
  -22.7314  -23.6318   21.1043 C   0  0  0  0  0  0  0  0  0  0  0  0
  -23.6709  -24.3128   21.8497 C   0  0  0  0  0  0  0  0  0  0  0  0
  -27.8654  -16.7404   18.9442 C   0  0  0  0  0  0  0  0  0  0  0  0
  -24.6513  -22.3517   21.7958 C   0  0  0  0  0  0  0  0  0  0  0  0
  -27.2984  -14.7333   17.5663 C   0  0  0  0  0  0  0  0  0  0  0  0
  -21.4743  -24.1881   20.5651 C   0  0  0  0  0  0  0  0  0  0  0  0
  -26.7098  -28.8227   20.9843 C   0  0  0  0  0  0  0  0  0  0  0  0
  -26.3090  -31.5459   22.7007 C   0  0  0  0  0  0  0  0  0  0  0  0
  -24.1631  -33.8340   24.0448 C   0  0  0  0  0  0  0  0  0  0  0  0
  -26.7613  -21.2842   22.6645 C   0  0  0  0  0  0  0  0  0  0  0  0
  -30.5091  -26.5032   18.4858 C   0  0  0  0  0  0  0  0  0  0  0  0
  -25.2089  -30.1601   19.4630 C   0  0  0  0  0  0  0  0  0  0  0  0
  -24.2369  -30.1770   22.2558 C   0  0  0  0  0  0  0  0  0  0  0  0
  -30.4077  -27.4900   19.6460 C   0  0  0  0  0  0  0  0  0  0  0  0
  -29.8351  -19.5232   22.3074 C   0  0  0  0  0  0  0  0  0  0  0  0
  -29.3891  -27.0044   20.6724 C   0  0  0  0  0  0  0  0  0  0  0  0
  -29.4373  -18.2468   21.5625 C   0  0  0  0  0  0  0  0  0  0  0  0
  -28.7616  -19.9560   23.3044 C   0  0  0  0  0  0  0  0  0  0  0  0
  -27.0131  -18.8126   21.9988 C   0  0  0  0  0  0  0  0  0  0  0  0
  -27.9893  -26.9019   20.0546 C   0  0  1  0  0  0  0  0  0  0  0  0
  -26.1698  -30.1838   20.6476 C   0  0  1  0  0  0  0  0  0  0  0  0
  -28.0344  -18.3735   20.9368 C   0  0  2  0  0  0  0  0  0  0  0  0
  -24.1291  -35.9285   25.4265 C   0  0  0  0  0  0  0  0  0  0  0  0
  -26.8583  -29.8974   25.2088 C   0  0  0  0  0  0  0  0  0  0  0  0
  -25.8928  -31.7674   26.5649 C   0  0  0  0  0  0  0  0  0  0  0  0
  -27.9359  -32.1541   25.1869 C   0  0  0  0  0  0  0  0  0  0  0  0
  -17.5144  -26.9381   21.4936 C   0  0  0  0  0  0  0  0  0  0  0  0
  -18.6920  -25.8297   23.4018 C   0  0  0  0  0  0  0  0  0  0  0  0
  -22.8965  -35.3880   21.8677 C   0  0  0  0  0  0  0  0  0  0  0  0
  -19.2956  -25.2602   21.0130 C   0  0  0  0  0  0  0  0  0  0  0  0
  -19.9091  -27.5268   22.0125 C   0  0  0  0  0  0  0  0  0  1  0  0
  -25.6992  -31.8860   24.0392 C   0  0  1  0  0  0  0  0  0  0  0  0
  -24.1639  -35.3518   24.0197 C   0  0  2  0  0  0  0  0  0  0  0  0
  -26.5813  -31.4139   25.2294 C   0  0  0  0  0  0  0  0  0  0  0  0
  -18.8695  -26.3857   21.9777 C   0  0  0  0  0  0  0  0  0  0  0  0
  -26.9117  -16.1779   20.9246 N   0  0  0  0  0  0  0  0  0  0  0  0
  -24.7723  -23.5803   22.2474 N   0  0  0  0  0  0  0  0  0  0  0  0
  -27.6134  -17.0949   20.2369 N   0  0  0  0  0  0  0  0  0  0  0  0
  -25.5521  -30.7115   21.8660 N   0  0  0  0  0  0  0  0  0  0  0  0
  -27.4606  -20.0590   22.6398 N   0  0  0  0  0  0  0  0  0  0  0  0
  -23.5634  -25.6187   22.1951 N   0  0  0  0  0  0  0  0  0  0  0  0
  -28.5583  -17.5469   18.1124 N   0  0  0  0  0  0  0  0  0  0  0  0
  -26.6588  -13.4862   17.5653 N   0  0  0  0  0  0  0  0  0  0  0  0
  -21.2947  -24.1693   19.2444 N   0  0  0  0  0  0  0  0  0  0  0  0
  -25.5512  -21.2714   21.9716 N   0  0  0  0  0  0  0  0  0  0  0  0
  -27.3878  -28.2137   19.9456 N   0  0  0  0  0  0  0  0  0  0  0  0
  -25.4431  -33.3221   24.0180 N   0  0  0  0  0  0  0  0  0  0  0  0
  -20.5789  -24.6855   21.4261 N   0  3  0  0  0  0  0  0  0  0  0  0
  -22.9767  -35.8582   23.2746 N   0  3  0  0  0  0  0  0  0  0  0  0
  -27.8718  -15.1301   16.5235 O   0  0  0  0  0  0  0  0  0  0  0  0
  -26.5263  -28.3599   22.1040 O   0  0  0  0  0  0  0  0  0  0  0  0
  -27.4129  -32.0094   22.4037 O   0  0  0  0  0  0  0  0  0  0  0  0
  -23.1304  -33.1690   24.0878 O   0  0  0  0  0  0  0  0  0  0  0  0
  -27.2162  -22.2798   23.2336 O   0  0  0  0  0  0  0  0  0  0  0  0
  -23.8765  -10.6034   21.4361 O   0  0  0  0  0  0  0  0  0  0  0  0
  -20.0833  -28.0992   20.7169 O   0  0  0  0  0  0  0  0  0  1  0  0
  -20.0622   -8.7585   17.9075 F   0  0  0  0  0  0  0  0  0  0  0  0
  -24.5645   -9.8641   18.8627 F   0  0  0  0  0  0  0  0  0  0  0  0
  -23.2381  -22.0080   20.8848 S   0  0  0  0  0  0  0  0  0  0  0  0
  1  2  1  0  0  0  0
  1  5  2  0  0  0  0
  2  6  2  0  0  0  0
  3  8  2  0  0  0  0
  3 15  1  0  0  0  0
  4  9  1  0  0  0  0
  4 15  2  0  0  0  0
  5 17  1  0  0  0  0
  6 19  1  0  0  0  0
  7 10  2  0  0  0  0
  7 18  1  0  0  0  0
  8 21  1  0  0  0  0
  9 21  2  0  0  0  0
 10 22  1  0  0  0  0
 11 12  2  0  0  0  0
 11 23  1  0  0  0  0
 12 24  1  0  0  0  0
 13 20  1  0  0  0  0
 13 22  2  0  0  0  0
 14 24  2  0  0  0  0
 14 25  1  0  0  0  0
 15 26  1  0  0  0  0
 16 26  1  0  0  0  0
 16 29  2  0  0  0  0
 16 31  1  0  0  0  0
 17 19  2  0  0  0  0
 17 37  1  0  0  0  0
 18 20  2  0  0  0  0
 18 38  1  0  0  0  0
 19 46  1  0  0  0  0
 20 39  1  0  0  0  0
 21 81  1  0  0  0  0
 22 82  1  0  0  0  0
 23 25  2  0  0  0  0
 23 81  1  0  0  0  0
 24 83  1  0  0  0  0
 25 84  1  0  0  0  0
 26 62  2  0  0  0  0
 27 28  2  0  0  0  0
 27 32  1  0  0  0  0
 27 85  1  0  0  0  0
 28 63  1  0  0  0  0
 28 67  1  0  0  0  0
 29 64  1  0  0  0  0
 29 68  1  0  0  0  0
 30 63  2  0  0  0  0
 30 71  1  0  0  0  0
 30 85  1  0  0  0  0
 31 69  1  0  0  0  0
 31 76  2  0  0  0  0
 32 70  1  0  0  0  0
 32 74  2  0  0  0  0
 33 47  1  0  0  0  0
 33 72  1  0  0  0  0
 33 77  2  0  0  0  0
 34 58  1  0  0  0  0
 34 65  1  0  0  0  0
 34 78  2  0  0  0  0
 35 59  1  0  0  0  0
 35 73  1  0  0  0  0
 35 79  2  0  0  0  0
 36 66  1  0  0  0  0
 36 71  1  0  0  0  0
 36 80  2  0  0  0  0
 37 40  1  0  0  0  0
 38 47  1  0  0  0  0
 39 65  1  0  0  0  0
 40 42  1  0  0  0  0
 41 43  1  0  0  0  0
 41 44  1  0  0  0  0
 42 46  1  0  0  0  0
 43 48  1  0  0  0  0
 44 66  1  0  0  0  0
 45 48  1  0  0  0  0
 45 66  1  0  0  0  0
 46 72  1  0  0  0  0
 47 65  1  0  0  0  0
 48 64  1  0  0  0  0
 49 59  1  0  0  0  0
 50 60  1  0  0  0  0
 51 60  1  0  0  0  0
 52 60  1  0  0  0  0
 53 61  1  0  0  0  0
 54 61  1  0  0  0  0
 55 75  1  0  0  0  0
 56 61  1  0  0  0  0
 56 74  1  0  0  0  0
 57 61  1  0  0  0  0
 57 82  1  0  0  0  0
 58 60  1  0  0  0  0
 58 73  1  0  0  0  0
 59 75  1  0  0  0  0
 62 64  1  0  0  0  0
M  CHG  2  74   1  75   1
M  ISO  4  36 100  57 101  71 100  82 101
M  END
> <Batch ID>
0180

> <Smiles>
CNC(C)C(=O)NC(C(=O)N1Cc2cc([101O:1][101CH2:1]C(C)(C)CNC(=N)c3sc([100NH:0][100C:0](=O)N4CCCC(n5nc(-c6ccc(Oc7ccc(F)cc7F)cc6)c(C(N)=O)c5N)C4)nc3N)ccc2CC1C(=O)NC1CCCc2ccccc21)C(C)(C)C

> <Shape>
0.301

> <Color>
0.067

> <Negative vol penalty>
0.000

$$$$

  -OEChem-04052304503D

 85 93  0     1  0  0  0  0  0999 V2000
  -28.8300  -10.2731   16.9341 C   0  0  0  0  0  0  0  0  0  0  0  0
  -27.9928  -11.2256   16.3622 C   0  0  0  0  0  0  0  0  0  0  0  0
  -25.0794  -30.4759   20.5855 C   0  0  0  0  0  0  0  0  0  0  0  0
  -24.4842  -28.7865   22.2068 C   0  0  0  0  0  0  0  0  0  0  0  0
  -29.3658  -10.4894   18.2029 C   0  0  0  0  0  0  0  0  0  0  0  0
  -27.6899  -12.3946   17.0594 C   0  0  0  0  0  0  0  0  0  0  0  0
  -26.7915  -17.9685   14.6865 C   0  0  0  0  0  0  0  0  0  0  0  0
  -24.5821  -31.4652   21.4338 C   0  0  0  0  0  0  0  0  0  0  0  0
  -23.9869  -29.7758   23.0551 C   0  0  0  0  0  0  0  0  0  0  0  0
  -25.6337  -18.6773   14.3690 C   0  0  0  0  0  0  0  0  0  0  0  0
  -23.7979  -34.4680   23.3268 C   0  0  0  0  0  0  0  0  0  0  0  0
  -24.5681  -35.6173   23.5043 C   0  0  0  0  0  0  0  0  0  0  0  0
  -25.7449  -19.8017   16.5004 C   0  0  0  0  0  0  0  0  0  0  0  0
  -26.3752  -34.2716   24.3766 C   0  0  0  0  0  0  0  0  0  0  0  0
  -25.0304  -29.1365   20.9720 C   0  0  0  0  0  0  0  0  0  0  0  0
  -26.8576  -27.6110   20.0544 C   0  0  0  0  0  0  0  0  0  0  0  0
  -29.0771  -11.6660   18.9120 C   0  0  0  0  0  0  0  0  0  0  0  0
  -27.4296  -18.1633   15.9199 C   0  0  0  0  0  0  0  0  0  0  0  0
  -28.2213  -12.6263   18.3395 C   0  0  0  0  0  0  0  0  0  0  0  0
  -26.9121  -19.0959   16.8300 C   0  0  0  0  0  0  0  0  0  0  0  0
  -24.0359  -31.1152   22.6686 C   0  0  0  0  0  0  0  0  0  0  0  0
  -25.1085  -19.5919   15.2772 C   0  0  0  0  0  0  0  0  0  0  0  0
  -24.3163  -33.2205   23.6743 C   0  0  0  0  0  0  0  0  0  0  0  0
  -25.8567  -35.5191   24.0292 C   0  0  0  0  0  0  0  0  0  0  0  0
  -25.6050  -33.1223   24.1991 C   0  0  0  0  0  0  0  0  0  0  0  0
  -25.5434  -28.1141   20.0959 C   0  0  0  0  0  0  0  0  0  0  0  0
  -21.4486  -19.6774   19.8974 C   0  0  0  0  0  0  0  0  0  0  0  0
  -21.1901  -19.5032   18.5539 C   0  0  0  0  0  0  0  0  0  0  0  0
  -26.8316  -26.6643   19.0596 C   0  0  0  0  0  0  0  0  0  0  0  0
  -22.0004  -21.5396   18.4725 C   0  0  0  0  0  0  0  0  0  0  0  0
  -27.9996  -27.9675   20.8446 C   0  0  0  0  0  0  0  0  0  0  0  0
  -28.0815  -16.3177   18.4243 C   0  0  0  0  0  0  0  0  0  0  0  0
  -21.6721  -18.3512   15.8287 C   0  0  0  0  0  0  0  0  0  0  0  0
  -29.7039  -18.9368   19.4394 C   0  0  0  0  0  0  0  0  0  0  0  0
  -30.1129  -22.3224   19.3084 C   0  0  0  0  0  0  0  0  0  0  0  0
  -22.4718  -23.3029   16.7362 C   0  0  0  0  0  0  0  0  0  0  0  0
  -29.6419  -11.8340   20.3004 C   0  0  0  0  0  0  0  0  0  0  0  0
  -28.6928  -17.4104   16.2361 C   0  0  0  0  0  0  0  0  0  0  0  0
  -27.5708  -19.3566   18.1592 C   0  0  0  0  0  0  0  0  0  0  0  0
  -29.5720  -13.2688   20.8169 C   0  0  0  0  0  0  0  0  0  0  0  0
  -24.5704  -25.5806   14.9797 C   0  0  0  0  0  0  0  0  0  0  0  0
  -28.1916  -13.8633   20.5565 C   0  0  0  0  0  0  0  0  0  0  0  0
  -25.1823  -26.4390   16.0890 C   0  0  0  0  0  0  0  0  0  0  0  0
  -23.1192  -25.2119   15.2831 C   0  0  0  0  0  0  0  0  0  0  0  0
  -23.5100  -25.4480   17.7040 C   0  0  0  0  0  0  0  0  0  0  0  0
  -27.8891  -13.9183   19.0541 C   0  0  1  0  0  0  0  0  0  0  0  0
  -28.9709  -17.3120   17.7329 C   0  0  1  0  0  0  0  0  0  0  0  0
  -24.9910  -25.7903   17.4740 C   0  0  2  0  0  0  0  0  0  0  0  0
  -21.2403  -18.7617   21.0380 C   0  0  0  0  0  0  0  0  0  0  0  0
  -19.8006  -16.7806   16.3773 C   0  0  0  0  0  0  0  0  0  0  0  0
  -31.4952  -24.1787   20.2785 C   0  0  0  0  0  0  0  0  0  0  0  0
  -22.9026  -20.4711   12.8386 C   0  0  0  0  0  0  0  0  0  0  0  0
  -28.1104  -18.7633   22.0357 C   0  0  0  0  0  0  0  0  0  0  0  0
  -28.8134  -21.1121   22.5426 C   0  0  0  0  0  0  0  0  0  0  0  0
  -30.5314  -19.3157   22.3325 C   0  0  0  0  0  0  0  0  0  0  0  0
  -31.1703  -23.0806   16.6502 C   0  0  0  0  0  0  0  0  0  0  0  0
  -21.6947  -19.5046   14.8308 C   0  0  0  0  0  0  0  0  0  0  0  0
  -20.3769  -18.1672   16.6098 C   0  0  1  0  0  0  0  0  0  0  0  0
  -29.3585  -20.1579   20.2571 C   0  0  1  0  0  0  0  0  0  0  0  0
  -31.3531  -23.1814   19.1392 C   0  0  2  0  0  0  0  0  0  0  0  0
  -23.0370  -19.6436   14.1102 C   0  0  2  0  0  0  0  0  0  1  0  0
  -29.1897  -19.8312   21.7678 C   0  0  0  0  0  0  0  0  0  0  0  0
  -24.7411  -27.5351   19.1987 N   0  0  0  0  0  0  0  0  0  0  0  0
  -21.5056  -20.5701   17.7354 N   0  0  0  0  0  0  0  0  0  0  0  0
  -25.5534  -26.6584   18.5840 N   0  0  0  0  0  0  0  0  0  0  0  0
  -28.8000  -18.5912   18.4248 N   0  0  0  0  0  0  0  0  0  0  0  0
  -23.0157  -24.5986   16.6090 N   0  0  0  0  0  0  0  0  0  0  0  0
  -27.7777  -25.8448   18.5541 N   0  0  0  0  0  0  0  0  0  0  0  0
  -27.8516  -28.9598   21.8232 N   0  0  0  0  0  0  0  0  0  0  0  0
  -20.6471  -18.3476   18.0195 N   0  0  0  0  0  0  0  0  0  0  0  0
  -22.4544  -22.8105   18.0408 N   0  0  0  0  0  0  0  0  0  0  0  0
  -28.5825  -15.0299   18.4394 N   0  0  0  0  0  0  0  0  0  0  0  0
  -30.3928  -21.1464   19.9715 N   0  0  0  0  0  0  0  0  0  0  0  0
  -31.2878  -23.9386   17.8572 N   0  3  0  0  0  0  0  0  0  0  0  0
  -29.1223  -27.4338   20.6763 O   0  0  0  0  0  0  0  0  0  0  0  0
  -27.0202  -16.6914   18.9097 O   0  0  0  0  0  0  0  0  0  0  0  0
  -22.6354  -17.5999   15.9821 O   0  0  0  0  0  0  0  0  0  0  0  0
  -30.7412  -18.3168   19.6869 O   0  0  0  0  0  0  0  0  0  0  0  0
  -29.0058  -22.6625   18.8970 O   0  0  0  0  0  0  0  0  0  0  0  0
  -22.0775  -22.6655   15.7563 O   0  0  0  0  0  0  0  0  0  0  0  0
  -23.5508  -32.0803   23.4967 O   0  0  0  0  0  0  0  0  0  0  0  0
  -23.9782  -20.2847   14.9702 O   0  0  0  0  0  0  0  0  0  1  0  0
  -26.5968  -36.6227   24.1981 F   0  0  0  0  0  0  0  0  0  0  0  0
  -26.1089  -31.9265   24.5336 F   0  0  0  0  0  0  0  0  0  0  0  0
  -22.1154  -21.2359   20.1576 S   0  0  0  0  0  0  0  0  0  0  0  0
  1  2  1  0  0  0  0
  1  5  2  0  0  0  0
  2  6  2  0  0  0  0
  3  8  2  0  0  0  0
  3 15  1  0  0  0  0
  4  9  1  0  0  0  0
  4 15  2  0  0  0  0
  5 17  1  0  0  0  0
  6 19  1  0  0  0  0
  7 10  2  0  0  0  0
  7 18  1  0  0  0  0
  8 21  1  0  0  0  0
  9 21  2  0  0  0  0
 10 22  1  0  0  0  0
 11 12  2  0  0  0  0
 11 23  1  0  0  0  0
 12 24  1  0  0  0  0
 13 20  1  0  0  0  0
 13 22  2  0  0  0  0
 14 24  2  0  0  0  0
 14 25  1  0  0  0  0
 15 26  1  0  0  0  0
 16 26  1  0  0  0  0
 16 29  2  0  0  0  0
 16 31  1  0  0  0  0
 17 19  2  0  0  0  0
 17 37  1  0  0  0  0
 18 20  2  0  0  0  0
 18 38  1  0  0  0  0
 19 46  1  0  0  0  0
 20 39  1  0  0  0  0
 21 81  1  0  0  0  0
 22 82  1  0  0  0  0
 23 25  2  0  0  0  0
 23 81  1  0  0  0  0
 24 83  1  0  0  0  0
 25 84  1  0  0  0  0
 26 63  2  0  0  0  0
 27 28  2  0  0  0  0
 27 49  1  0  0  0  0
 27 85  1  0  0  0  0
 28 64  1  0  0  0  0
 28 70  1  0  0  0  0
 29 65  1  0  0  0  0
 29 68  1  0  0  0  0
 30 64  2  0  0  0  0
 30 71  1  0  0  0  0
 30 85  1  0  0  0  0
 31 69  1  0  0  0  0
 31 75  2  0  0  0  0
 32 47  1  0  0  0  0
 32 72  1  0  0  0  0
 32 76  2  0  0  0  0
 33 57  1  0  0  0  0
 33 58  1  0  0  0  0
 33 77  2  0  0  0  0
 34 59  1  0  0  0  0
 34 66  1  0  0  0  0
 34 78  2  0  0  0  0
 35 60  1  0  0  0  0
 35 73  1  0  0  0  0
 35 79  2  0  0  0  0
 36 67  1  0  0  0  0
 36 71  1  0  0  0  0
 36 80  2  0  0  0  0
 37 40  1  0  0  0  0
 38 47  1  0  0  0  0
 39 66  1  0  0  0  0
 40 42  1  0  0  0  0
 41 43  1  0  0  0  0
 41 44  1  0  0  0  0
 42 46  1  0  0  0  0
 43 48  1  0  0  0  0
 44 67  1  0  0  0  0
 45 48  1  0  0  0  0
 45 67  1  0  0  0  0
 46 72  1  0  0  0  0
 47 66  1  0  0  0  0
 48 65  1  0  0  0  0
 50 58  1  0  0  0  0
 51 60  1  0  0  0  0
 52 61  1  0  0  0  0
 53 62  1  0  0  0  0
 54 62  1  0  0  0  0
 55 62  1  0  0  0  0
 56 74  1  0  0  0  0
 57 61  1  0  0  0  0
 58 70  1  0  0  0  0
 59 62  1  0  0  0  0
 59 73  1  0  0  0  0
 60 74  1  0  0  0  0
 61 82  1  0  0  0  0
 63 65  1  0  0  0  0
M  CHG  1  74   1
M  ISO  4  36 100  61 101  71 100  82 101
M  END
> <Batch ID>
0180

> <Smiles>
CNC(C)C(=O)NC(C(=O)N1Cc2cc([101O:1][101CH:1](C)CC(=O)C(C)Nc3nc([100NH:0][100C:0](=O)N4CCCC(n5nc(-c6ccc(Oc7ccc(F)cc7F)cc6)c(C(N)=O)c5N)C4)sc3C)ccc2CC1C(=O)NC1CCCc2ccccc21)C(C)(C)C

> <Shape>
0.236

> <Color>
0.081

> <Negative vol penalty>
0.000

$$$$

  -OEChem-04052304503D

 84 92  0     1  0  0  0  0  0999 V2000
  -24.8780  -20.0640   23.9427 C   0  0  0  0  0  0  0  0  0  0  0  0
  -25.9763  -20.7746   23.4693 C   0  0  0  0  0  0  0  0  0  0  0  0
  -26.4331  -12.7568   21.6054 C   0  0  0  0  0  0  0  0  0  0  0  0
  -25.7856  -13.8191   19.5343 C   0  0  0  0  0  0  0  0  0  0  0  0
  -23.5872  -20.5186   23.6756 C   0  0  0  0  0  0  0  0  0  0  0  0
  -25.7845  -21.9397   22.7275 C   0  0  0  0  0  0  0  0  0  0  0  0
  -29.3130  -26.9451   22.7565 C   0  0  0  0  0  0  0  0  0  0  0  0
  -25.1931  -12.1210   21.6669 C   0  0  0  0  0  0  0  0  0  0  0  0
  -24.5457  -13.1833   19.5958 C   0  0  0  0  0  0  0  0  0  0  0  0
  -30.3201  -27.3878   21.9000 C   0  0  0  0  0  0  0  0  0  0  0  0
  -23.6913   -9.4474   20.2425 C   0  0  0  0  0  0  0  0  0  0  0  0
  -23.6735   -8.0916   20.5696 C   0  0  0  0  0  0  0  0  0  0  0  0
  -28.7130  -28.7491   20.7239 C   0  0  0  0  0  0  0  0  0  0  0  0
  -22.3161   -8.5772   22.5083 C   0  0  0  0  0  0  0  0  0  0  0  0
  -26.7293  -13.6059   20.5391 C   0  0  0  0  0  0  0  0  0  0  0  0
  -29.1825  -13.7831   19.8621 C   0  0  0  0  0  0  0  0  0  0  0  0
  -23.3797  -21.6951   22.9384 C   0  0  0  0  0  0  0  0  0  0  0  0
  -27.9940  -27.3935   22.5961 C   0  0  0  0  0  0  0  0  0  0  0  0
  -24.4898  -22.4097   22.4492 C   0  0  0  0  0  0  0  0  0  0  0  0
  -27.6915  -28.3126   21.5813 C   0  0  0  0  0  0  0  0  0  0  0  0
  -24.2494  -12.3342   20.6621 C   0  0  0  0  0  0  0  0  0  0  0  0
  -30.0196  -28.2877   20.8817 C   0  0  0  0  0  0  0  0  0  0  0  0
  -23.0215  -10.3681   21.0483 C   0  0  0  0  0  0  0  0  0  0  0  0
  -22.9859   -7.6564   21.7025 C   0  0  0  0  0  0  0  0  0  0  0  0
  -22.3339   -9.9330   22.1812 C   0  0  0  0  0  0  0  0  0  0  0  0
  -28.0098  -14.2635   20.4753 C   0  0  0  0  0  0  0  0  0  0  0  0
  -27.5201  -23.3954   17.5866 C   0  0  0  0  0  0  0  0  0  0  0  0
  -28.6849  -23.8354   18.1796 C   0  0  0  0  0  0  0  0  0  0  0  0
  -30.1120  -14.7711   20.0773 C   0  0  0  0  0  0  0  0  0  0  0  0
  -28.4554  -21.9446   19.2668 C   0  0  0  0  0  0  0  0  0  0  0  0
  -29.4111  -12.5537   19.1606 C   0  0  0  0  0  0  0  0  0  0  0  0
  -25.2141  -25.9974   21.9428 C   0  0  0  0  0  0  0  0  0  0  0  0
  -24.0360  -28.9688   22.4952 C   0  0  0  0  0  0  0  0  0  0  0  0
  -30.5003  -25.5673   18.3974 C   0  0  0  0  0  0  0  0  0  0  0  0
  -24.5930  -32.3344   22.5921 C   0  0  0  0  0  0  0  0  0  0  0  0
  -29.6691  -20.6495   21.0545 C   0  0  0  0  0  0  0  0  0  0  0  0
  -21.9652  -22.1214   22.6347 C   0  0  0  0  0  0  0  0  0  0  0  0
  -26.9243  -26.9270   23.5450 C   0  0  0  0  0  0  0  0  0  0  0  0
  -26.2952  -28.8400   21.3795 C   0  0  0  0  0  0  0  0  0  0  0  0
  -21.8536  -23.5682   22.1608 C   0  0  0  0  0  0  0  0  0  0  0  0
  -31.2304  -18.2505   23.1721 C   0  0  0  0  0  0  0  0  0  0  0  0
  -22.9073  -23.8648   21.0985 C   0  0  0  0  0  0  0  0  0  0  0  0
  -30.6932  -16.9117   22.6611 C   0  0  0  0  0  0  0  0  0  0  0  0
  -30.1694  -19.3478   23.1113 C   0  0  0  0  0  0  0  0  0  0  0  0
  -28.9900  -18.1799   21.2907 C   0  0  0  0  0  0  0  0  0  0  0  0
  -24.3229  -23.6914   21.6621 C   0  0  1  0  0  0  0  0  0  0  0  0
  -25.5176  -27.0529   22.9682 C   0  0  1  0  0  0  0  0  0  0  0  0
  -30.0421  -17.0590   21.2719 C   0  0  2  0  0  0  0  0  0  0  0  0
  -26.6875  -24.0186   16.5376 C   0  0  0  0  0  0  0  0  0  0  0  0
  -23.4285  -34.5117   23.0401 C   0  0  0  0  0  0  0  0  0  0  0  0
  -33.3748  -28.4636   20.2761 C   0  0  0  0  0  0  0  0  0  0  0  0
  -22.6802  -28.8024   19.7669 C   0  0  0  0  0  0  0  0  0  0  0  0
  -22.3514  -31.2828   19.8566 C   0  0  0  0  0  0  0  0  0  0  0  0
  -21.2768  -29.8212   21.5688 C   0  0  0  0  0  0  0  0  0  0  0  0
  -26.3947  -32.9659   24.8535 C   0  0  0  0  0  0  0  0  0  0  0  0
  -30.8598  -26.8945   17.7405 C   0  0  0  0  0  0  0  0  0  0  0  0
  -32.1433  -27.5259   18.2865 C   0  0  0  0  0  0  0  0  0  0  0  0
  -23.7766  -30.1907   21.6474 C   0  0  1  0  0  0  0  0  0  0  0  0
  -24.2533  -33.3820   23.6369 C   0  0  2  0  0  0  0  0  0  0  0  0
  -32.0807  -27.8237   19.7897 C   0  0  2  0  0  0  0  0  0  1  0  0
  -22.5473  -30.0130   20.7122 C   0  0  0  0  0  0  0  0  0  0  0  0
  -28.1765  -15.4633   21.0380 N   0  0  0  0  0  0  0  0  0  0  0  0
  -29.2225  -23.0050   19.1435 N   0  0  0  0  0  0  0  0  0  0  0  0
  -29.4648  -15.7451   20.7793 N   0  0  0  0  0  0  0  0  0  0  0  0
  -25.2828  -28.3493   22.3290 N   0  0  0  0  0  0  0  0  0  0  0  0
  -29.6000  -19.4322   21.7646 N   0  0  0  0  0  0  0  0  0  0  0  0
  -31.4115  -14.8931   19.7328 N   0  0  0  0  0  0  0  0  0  0  0  0
  -28.3472  -11.6507   19.0309 N   0  0  0  0  0  0  0  0  0  0  0  0
  -29.3264  -25.0539   17.8529 N   0  0  0  0  0  0  0  0  0  0  0  0
  -28.6352  -20.8423   20.1388 N   0  0  0  0  0  0  0  0  0  0  0  0
  -24.6881  -24.8341   22.4716 N   0  0  0  0  0  0  0  0  0  0  0  0
  -23.6664  -31.3135   22.5724 N   0  0  0  0  0  0  0  0  0  0  0  0
  -25.4993  -33.9629   24.2122 N   0  3  0  0  0  0  0  0  0  0  0  0
  -30.5303  -12.2573   18.6778 O   0  0  0  0  0  0  0  0  0  0  0  0
  -25.4390  -26.2223   20.7594 O   0  0  0  0  0  0  0  0  0  0  0  0
  -23.1674  -28.5827   23.2813 O   0  0  0  0  0  0  0  0  0  0  0  0
  -31.2018  -25.0587   19.2655 O   0  0  0  0  0  0  0  0  0  0  0  0
  -25.5794  -32.4158   21.8634 O   0  0  0  0  0  0  0  0  0  0  0  0
  -30.5933  -21.4487   21.2250 O   0  0  0  0  0  0  0  0  0  0  0  0
  -23.0394  -11.7138   20.7217 O   0  0  0  0  0  0  0  0  0  0  0  0
  -31.0005  -28.7209   20.0438 O   0  0  0  0  0  0  0  0  0  1  0  0
  -22.9676   -6.3542   22.0157 F   0  0  0  0  0  0  0  0  0  0  0  0
  -21.6876  -10.8127   22.9585 F   0  0  0  0  0  0  0  0  0  0  0  0
  -27.0715  -21.8806   18.2540 S   0  0  0  0  0  0  0  0  0  0  0  0
  1  2  1  0  0  0  0
  1  5  2  0  0  0  0
  2  6  2  0  0  0  0
  3  8  2  0  0  0  0
  3 15  1  0  0  0  0
  4  9  1  0  0  0  0
  4 15  2  0  0  0  0
  5 17  1  0  0  0  0
  6 19  1  0  0  0  0
  7 10  2  0  0  0  0
  7 18  1  0  0  0  0
  8 21  1  0  0  0  0
  9 21  2  0  0  0  0
 10 22  1  0  0  0  0
 11 12  2  0  0  0  0
 11 23  1  0  0  0  0
 12 24  1  0  0  0  0
 13 20  1  0  0  0  0
 13 22  2  0  0  0  0
 14 24  2  0  0  0  0
 14 25  1  0  0  0  0
 15 26  1  0  0  0  0
 16 26  1  0  0  0  0
 16 29  2  0  0  0  0
 16 31  1  0  0  0  0
 17 19  2  0  0  0  0
 17 37  1  0  0  0  0
 18 20  2  0  0  0  0
 18 38  1  0  0  0  0
 19 46  1  0  0  0  0
 20 39  1  0  0  0  0
 21 80  1  0  0  0  0
 22 81  1  0  0  0  0
 23 25  2  0  0  0  0
 23 80  1  0  0  0  0
 24 82  1  0  0  0  0
 25 83  1  0  0  0  0
 26 62  2  0  0  0  0
 27 28  2  0  0  0  0
 27 49  1  0  0  0  0
 27 84  1  0  0  0  0
 28 63  1  0  0  0  0
 28 69  1  0  0  0  0
 29 64  1  0  0  0  0
 29 67  1  0  0  0  0
 30 63  2  0  0  0  0
 30 70  1  0  0  0  0
 30 84  1  0  0  0  0
 31 68  1  0  0  0  0
 31 74  2  0  0  0  0
 32 47  1  0  0  0  0
 32 71  1  0  0  0  0
 32 75  2  0  0  0  0
 33 58  1  0  0  0  0
 33 65  1  0  0  0  0
 33 76  2  0  0  0  0
 34 56  1  0  0  0  0
 34 69  1  0  0  0  0
 34 77  2  0  0  0  0
 35 59  1  0  0  0  0
 35 72  1  0  0  0  0
 35 78  2  0  0  0  0
 36 66  1  0  0  0  0
 36 70  1  0  0  0  0
 36 79  2  0  0  0  0
 37 40  1  0  0  0  0
 38 47  1  0  0  0  0
 39 65  1  0  0  0  0
 40 42  1  0  0  0  0
 41 43  1  0  0  0  0
 41 44  1  0  0  0  0
 42 46  1  0  0  0  0
 43 48  1  0  0  0  0
 44 66  1  0  0  0  0
 45 48  1  0  0  0  0
 45 66  1  0  0  0  0
 46 71  1  0  0  0  0
 47 65  1  0  0  0  0
 48 64  1  0  0  0  0
 50 59  1  0  0  0  0
 51 60  1  0  0  0  0
 52 61  1  0  0  0  0
 53 61  1  0  0  0  0
 54 61  1  0  0  0  0
 55 73  1  0  0  0  0
 56 57  1  0  0  0  0
 57 60  1  0  0  0  0
 58 61  1  0  0  0  0
 58 72  1  0  0  0  0
 59 73  1  0  0  0  0
 60 81  1  0  0  0  0
 62 64  1  0  0  0  0
M  CHG  1  73   1
M  ISO  4  36 100  60 101  70 100  81 101
M  END
> <Batch ID>
0180

> <Smiles>
CNC(C)C(=O)NC(C(=O)N1Cc2cc([101O:1][101CH:1](C)CCC(=O)Nc3nc([100NH:0][100C:0](=O)N4CCCC(n5nc(-c6ccc(Oc7ccc(F)cc7F)cc6)c(C(N)=O)c5N)C4)sc3C)ccc2CC1C(=O)NC1CCCc2ccccc21)C(C)(C)C

> <Shape>
0.297

> <Color>
0.118

> <Negative vol penalty>
0.000

$$$$

  -OEChem-04052304503D

 84 92  0     1  0  0  0  0  0999 V2000
  -27.9201  -33.9748   24.7245 C   0  0  0  0  0  0  0  0  0  0  0  0
  -28.1586  -32.6218   24.5057 C   0  0  0  0  0  0  0  0  0  0  0  0
  -23.2379  -11.8070   23.1027 C   0  0  0  0  0  0  0  0  0  0  0  0
  -23.2593  -14.2142   22.8973 C   0  0  0  0  0  0  0  0  0  0  0  0
  -26.6106  -34.4461   24.8079 C   0  0  0  0  0  0  0  0  0  0  0  0
  -27.0875  -31.7391   24.3713 C   0  0  0  0  0  0  0  0  0  0  0  0
  -27.7014  -28.5124   20.5169 C   0  0  0  0  0  0  0  0  0  0  0  0
  -22.4262  -11.9106   24.2322 C   0  0  0  0  0  0  0  0  0  0  0  0
  -22.4475  -14.3178   24.0269 C   0  0  0  0  0  0  0  0  0  0  0  0
  -28.5575  -27.4312   20.7218 C   0  0  0  0  0  0  0  0  0  0  0  0
  -20.0846  -15.2010   26.6450 C   0  0  0  0  0  0  0  0  0  0  0  0
  -19.0053  -16.0829   26.5903 C   0  0  0  0  0  0  0  0  0  0  0  0
  -26.6526  -26.0074   21.1262 C   0  0  0  0  0  0  0  0  0  0  0  0
  -18.0906  -14.8478   24.7262 C   0  0  0  0  0  0  0  0  0  0  0  0
  -23.6545  -12.9588   22.4352 C   0  0  0  0  0  0  0  0  0  0  0  0
  -24.0763  -12.7421   19.9286 C   0  0  0  0  0  0  0  0  0  0  0  0
  -25.5229  -33.5703   24.6649 C   0  0  0  0  0  0  0  0  0  0  0  0
  -26.3127  -28.3513   20.6260 C   0  0  0  0  0  0  0  0  0  0  0  0
  -25.7622  -32.1989   24.4542 C   0  0  0  0  0  0  0  0  0  0  0  0
  -25.7810  -27.0875   20.9197 C   0  0  0  0  0  0  0  0  0  0  0  0
  -22.0310  -13.1659   24.6943 C   0  0  0  0  0  0  0  0  0  0  0  0
  -28.0333  -26.1791   21.0294 C   0  0  0  0  0  0  0  0  0  0  0  0
  -20.1669  -14.1425   25.7403 C   0  0  0  0  0  0  0  0  0  0  0  0
  -18.0083  -15.9063   25.6309 C   0  0  0  0  0  0  0  0  0  0  0  0
  -19.1699  -13.9659   24.7809 C   0  0  0  0  0  0  0  0  0  0  0  0
  -24.4935  -12.8525   21.2686 C   0  0  0  0  0  0  0  0  0  0  0  0
  -32.0915  -18.7089   19.4117 C   0  0  0  0  0  0  0  0  0  0  0  0
  -25.2446  -12.6712   19.2100 C   0  0  0  0  0  0  0  0  0  0  0  0
  -30.9388  -19.4505   19.5651 C   0  0  0  0  0  0  0  0  0  0  0  0
  -30.7195  -17.0807   19.9378 C   0  0  0  0  0  0  0  0  0  0  0  0
  -22.7511  -12.7068   19.3824 C   0  0  0  0  0  0  0  0  0  0  0  0
  -29.5472  -22.9422   19.3968 C   0  0  0  0  0  0  0  0  0  0  0  0
  -29.4565  -21.4609   19.6242 C   0  0  0  0  0  0  0  0  0  0  0  0
  -24.0549  -29.5635   22.5066 C   0  0  0  0  0  0  0  0  0  0  0  0
  -22.0731  -27.9362   20.5201 C   0  0  0  0  0  0  0  0  0  0  0  0
  -21.6516  -25.3647   18.3163 C   0  0  0  0  0  0  0  0  0  0  0  0
  -30.8069  -14.5841   20.2623 C   0  0  0  0  0  0  0  0  0  0  0  0
  -24.1254  -34.1186   24.8098 C   0  0  0  0  0  0  0  0  0  0  0  0
  -25.4016  -29.5216   20.3757 C   0  0  0  0  0  0  0  0  0  0  0  0
  -24.2965  -26.8575   21.0283 C   0  0  0  0  0  0  0  0  0  0  0  0
  -23.0445  -33.1783   24.2827 C   0  0  0  0  0  0  0  0  0  0  0  0
  -29.7970  -11.2356   19.5954 C   0  0  0  0  0  0  0  0  0  0  0  0
  -23.2837  -31.7568   24.7819 C   0  0  0  0  0  0  0  0  0  0  0  0
  -28.2835  -11.2616   19.8209 C   0  0  0  0  0  0  0  0  0  0  0  0
  -30.5336  -12.1355   20.5860 C   0  0  0  0  0  0  0  0  0  0  0  0
  -28.5341  -13.5459   20.8726 C   0  0  0  0  0  0  0  0  0  0  0  0
  -24.6267  -31.2141   24.2785 C   0  0  1  0  0  0  0  0  0  0  0  0
  -24.0278  -29.3575   21.0185 C   0  0  1  0  0  0  0  0  0  0  0  0
  -27.7439  -12.7049   19.8569 C   0  0  2  0  0  0  0  0  0  0  0  0
  -33.4219  -19.2363   19.0448 C   0  0  0  0  0  0  0  0  0  0  0  0
  -19.9098  -24.2625   16.8850 C   0  0  0  0  0  0  0  0  0  0  0  0
  -20.8709  -26.6235   22.9983 C   0  0  0  0  0  0  0  0  0  0  0  0
  -19.8511  -24.8943   21.5022 C   0  0  0  0  0  0  0  0  0  0  0  0
  -19.2031  -27.2908   21.2583 C   0  0  0  0  0  0  0  0  0  0  0  0
  -23.1583  -25.9422   15.8352 C   0  0  0  0  0  0  0  0  0  0  0  0
  -30.5407  -23.6940   20.2552 C   0  0  0  0  0  0  0  0  0  0  0  0
  -30.1045  -25.1269   20.5206 C   0  0  0  0  0  0  0  0  0  1  0  0
  -21.4939  -26.5423   20.4940 C   0  0  1  0  0  0  0  0  0  0  0  0
  -21.0097  -25.3112   16.9417 C   0  0  2  0  0  0  0  0  0  0  0  0
  -20.3828  -26.3422   21.5631 C   0  0  0  0  0  0  0  0  0  0  0  0
  -25.8230  -12.8521   21.3964 N   0  0  0  0  0  0  0  0  0  0  0  0
  -31.9678  -17.3499   19.6254 N   0  0  0  0  0  0  0  0  0  0  0  0
  -26.2514  -12.7405   20.1275 N   0  0  0  0  0  0  0  0  0  0  0  0
  -23.4472  -28.0344   20.7812 N   0  0  0  0  0  0  0  0  0  0  0  0
  -29.9711  -13.4875   20.5620 N   0  0  0  0  0  0  0  0  0  0  0  0
  -25.4987  -12.5570   17.8891 N   0  0  0  0  0  0  0  0  0  0  0  0
  -21.6633  -12.7908   20.2622 N   0  0  0  0  0  0  0  0  0  0  0  0
  -30.6683  -20.8325   19.4342 N   0  0  0  0  0  0  0  0  0  0  0  0
  -30.1544  -15.8162   20.2365 N   0  0  0  0  0  0  0  0  0  0  0  0
  -24.5199  -30.8057   22.8942 N   0  0  0  0  0  0  0  0  0  0  0  0
  -21.0529  -26.3091   19.1231 N   0  0  0  0  0  0  0  0  0  0  0  0
  -22.0292  -24.9794   15.9065 N   0  3  0  0  0  0  0  0  0  0  0  0
  -22.5378  -12.5873   18.1521 O   0  0  0  0  0  0  0  0  0  0  0  0
  -28.8256  -23.4211   18.5350 O   0  0  0  0  0  0  0  0  0  0  0  0
  -28.3680  -21.0256   19.9611 O   0  0  0  0  0  0  0  0  0  0  0  0
  -23.6803  -28.6628   23.2482 O   0  0  0  0  0  0  0  0  0  0  0  0
  -21.3350  -28.9018   20.3092 O   0  0  0  0  0  0  0  0  0  0  0  0
  -22.5879  -24.6386   18.6429 O   0  0  0  0  0  0  0  0  0  0  0  0
  -32.0072  -14.4374   20.0178 O   0  0  0  0  0  0  0  0  0  0  0  0
  -21.2387  -13.2674   25.7964 O   0  0  0  0  0  0  0  0  0  0  0  0
  -28.8666  -25.1222   21.2305 O   0  0  0  0  0  0  0  0  0  1  0  0
  -16.9711  -16.7524   25.5794 F   0  0  0  0  0  0  0  0  0  0  0  0
  -19.2429  -12.9501   23.9099 F   0  0  0  0  0  0  0  0  0  0  0  0
  -29.6407  -18.4142   19.9923 S   0  0  0  0  0  0  0  0  0  0  0  0
  1  2  1  0  0  0  0
  1  5  2  0  0  0  0
  2  6  2  0  0  0  0
  3  8  2  0  0  0  0
  3 15  1  0  0  0  0
  4  9  1  0  0  0  0
  4 15  2  0  0  0  0
  5 17  1  0  0  0  0
  6 19  1  0  0  0  0
  7 10  2  0  0  0  0
  7 18  1  0  0  0  0
  8 21  1  0  0  0  0
  9 21  2  0  0  0  0
 10 22  1  0  0  0  0
 11 12  2  0  0  0  0
 11 23  1  0  0  0  0
 12 24  1  0  0  0  0
 13 20  1  0  0  0  0
 13 22  2  0  0  0  0
 14 24  2  0  0  0  0
 14 25  1  0  0  0  0
 15 26  1  0  0  0  0
 16 26  1  0  0  0  0
 16 28  2  0  0  0  0
 16 31  1  0  0  0  0
 17 19  2  0  0  0  0
 17 38  1  0  0  0  0
 18 20  2  0  0  0  0
 18 39  1  0  0  0  0
 19 47  1  0  0  0  0
 20 40  1  0  0  0  0
 21 80  1  0  0  0  0
 22 81  1  0  0  0  0
 23 25  2  0  0  0  0
 23 80  1  0  0  0  0
 24 82  1  0  0  0  0
 25 83  1  0  0  0  0
 26 61  2  0  0  0  0
 27 29  2  0  0  0  0
 27 50  1  0  0  0  0
 27 62  1  0  0  0  0
 28 63  1  0  0  0  0
 28 66  1  0  0  0  0
 29 68  1  0  0  0  0
 29 84  1  0  0  0  0
 30 62  2  0  0  0  0
 30 69  1  0  0  0  0
 30 84  1  0  0  0  0
 31 67  1  0  0  0  0
 31 73  2  0  0  0  0
 32 33  1  0  0  0  0
 32 56  1  0  0  0  0
 32 74  2  0  0  0  0
 33 68  1  0  0  0  0
 33 75  2  0  0  0  0
 34 48  1  0  0  0  0
 34 70  1  0  0  0  0
 34 76  2  0  0  0  0
 35 58  1  0  0  0  0
 35 64  1  0  0  0  0
 35 77  2  0  0  0  0
 36 59  1  0  0  0  0
 36 71  1  0  0  0  0
 36 78  2  0  0  0  0
 37 65  1  0  0  0  0
 37 69  1  0  0  0  0
 37 79  2  0  0  0  0
 38 41  1  0  0  0  0
 39 48  1  0  0  0  0
 40 64  1  0  0  0  0
 41 43  1  0  0  0  0
 42 44  1  0  0  0  0
 42 45  1  0  0  0  0
 43 47  1  0  0  0  0
 44 49  1  0  0  0  0
 45 65  1  0  0  0  0
 46 49  1  0  0  0  0
 46 65  1  0  0  0  0
 47 70  1  0  0  0  0
 48 64  1  0  0  0  0
 49 63  1  0  0  0  0
 51 59  1  0  0  0  0
 52 60  1  0  0  0  0
 53 60  1  0  0  0  0
 54 60  1  0  0  0  0
 55 72  1  0  0  0  0
 56 57  1  0  0  0  0
 57 81  1  0  0  0  0
 58 60  1  0  0  0  0
 58 71  1  0  0  0  0
 59 72  1  0  0  0  0
 61 63  1  0  0  0  0
M  CHG  1  72   1
M  ISO  4  37 100  57 101  69 100  81 101
M  END
> <Batch ID>
0180

> <Smiles>
CNC(C)C(=O)NC(C(=O)N1Cc2cc([101O:1][101CH2:1]CC(=O)C(=O)Nc3sc([100NH:0][100C:0](=O)N4CCCC(n5nc(-c6ccc(Oc7ccc(F)cc7F)cc6)c(C(N)=O)c5N)C4)nc3C)ccc2CC1C(=O)NC1CCCc2ccccc21)C(C)(C)C

> <Shape>
0.269

> <Color>
0.090

> <Negative vol penalty>
0.000

$$$$

  -OEChem-04052304503D

 86 94  0     1  0  0  0  0  0999 V2000
  -30.4679  -21.7036   16.0484 C   0  0  0  0  0  0  0  0  0  0  0  0
  -29.9143  -21.2306   17.2339 C   0  0  0  0  0  0  0  0  0  0  0  0
  -23.0794   -9.8646   19.9438 C   0  0  0  0  0  0  0  0  0  0  0  0
  -23.8336   -9.8802   22.2390 C   0  0  0  0  0  0  0  0  0  0  0  0
  -30.7343  -23.0639   15.8990 C   0  0  0  0  0  0  0  0  0  0  0  0
  -29.6279  -22.1176   18.2710 C   0  0  0  0  0  0  0  0  0  0  0  0
  -25.0775  -21.2903   20.3338 C   0  0  0  0  0  0  0  0  0  0  0  0
  -22.3356   -8.7119   20.1961 C   0  0  0  0  0  0  0  0  0  0  0  0
  -23.0897   -8.7276   22.4913 C   0  0  0  0  0  0  0  0  0  0  0  0
  -24.9668  -20.2239   21.2250 C   0  0  0  0  0  0  0  0  0  0  0  0
  -19.8605   -7.9301   23.0887 C   0  0  0  0  0  0  0  0  0  0  0  0
  -19.1007   -7.8939   24.2578 C   0  0  0  0  0  0  0  0  0  0  0  0
  -25.1161  -21.7633   23.0762 C   0  0  0  0  0  0  0  0  0  0  0  0
  -30.1360  -19.3898   21.8919 C   0  0  0  0  0  0  0  0  0  0  0  0
  -20.3413   -5.9599   25.0043 C   0  0  0  0  0  0  0  0  0  0  0  0
  -23.8285  -10.4487   20.9653 C   0  0  0  0  0  0  0  0  0  0  0  0
  -24.1692  -12.9736   20.8370 C   0  0  0  0  0  0  0  0  0  0  0  0
  -30.4421  -23.9694   16.9311 C   0  0  0  0  0  0  0  0  0  0  0  0
  -25.2196  -22.6023   20.8079 C   0  0  0  0  0  0  0  0  0  0  0  0
  -29.8919  -23.4911   18.1356 C   0  0  0  0  0  0  0  0  0  0  0  0
  -25.2259  -22.8449   22.1890 C   0  0  0  0  0  0  0  0  0  0  0  0
  -29.6560  -18.0925   22.2333 C   0  0  0  0  0  0  0  0  0  0  0  0
  -22.3407   -8.1434   21.4698 C   0  0  0  0  0  0  0  0  0  0  0  0
  -24.9890  -20.4599   22.5964 C   0  0  0  0  0  0  0  0  0  0  0  0
  -20.8607   -6.9811   22.8773 C   0  0  0  0  0  0  0  0  0  0  0  0
  -19.3411   -6.9089   25.2157 C   0  0  0  0  0  0  0  0  0  0  0  0
  -21.1011   -5.9960   23.8351 C   0  0  0  0  0  0  0  0  0  0  0  0
  -24.5975  -11.6391   20.7052 C   0  0  0  0  0  0  0  0  0  0  0  0
  -25.2618  -13.7224   20.4738 C   0  0  0  0  0  0  0  0  0  0  0  0
  -30.2469  -17.1059   21.4749 C   0  0  0  0  0  0  0  0  0  0  0  0
  -31.0759  -19.3454   20.8855 C   0  0  0  0  0  0  0  0  0  0  0  0
  -22.8974  -13.4902   21.2509 C   0  0  0  0  0  0  0  0  0  0  0  0
  -27.4581  -24.8457   20.5636 C   0  0  0  0  0  0  0  0  0  0  0  0
  -25.2465  -26.6681   22.0834 C   0  0  0  0  0  0  0  0  0  0  0  0
  -22.5102  -26.8073   24.1182 C   0  0  0  0  0  0  0  0  0  0  0  0
  -28.0380  -18.7580   24.0444 C   0  0  0  0  0  0  0  0  0  0  0  0
  -30.7270  -14.7716   20.6583 C   0  0  0  0  0  0  0  0  0  0  0  0
  -30.7915  -25.4242   16.7411 C   0  0  0  0  0  0  0  0  0  0  0  0
  -25.3110  -23.7445   19.8335 C   0  0  0  0  0  0  0  0  0  0  0  0
  -25.3559  -24.2369   22.7490 C   0  0  0  0  0  0  0  0  0  0  0  0
  -30.1114  -26.3503   17.7461 C   0  0  0  0  0  0  0  0  0  0  0  0
  -29.6198  -12.3488   18.2959 C   0  0  0  0  0  0  0  0  0  0  0  0
  -30.2365  -25.7889   19.1589 C   0  0  0  0  0  0  0  0  0  0  0  0
  -28.1792  -12.0580   18.7229 C   0  0  0  0  0  0  0  0  0  0  0  0
  -30.5318  -12.5824   19.4990 C   0  0  0  0  0  0  0  0  0  0  0  0
  -28.6210  -13.3107   20.8729 C   0  0  0  0  0  0  0  0  0  0  0  0
  -29.5442  -24.4255   19.2741 C   0  0  1  0  0  0  0  0  0  0  0  0
  -25.9683  -24.9861   20.4282 C   0  0  1  0  0  0  0  0  0  0  0  0
  -27.6512  -13.1327   19.6933 C   0  0  2  0  0  0  0  0  0  0  0  0
  -28.8162  -17.7073   26.8576 C   0  0  0  0  0  0  0  0  0  0  0  0
  -20.9509  -28.4402   25.2134 C   0  0  0  0  0  0  0  0  0  0  0  0
  -27.3931  -27.3291   24.1486 C   0  0  0  0  0  0  0  0  0  0  0  0
  -25.5795  -28.1425   25.6709 C   0  0  0  0  0  0  0  0  0  0  0  0
  -25.9606  -29.2657   23.4764 C   0  0  0  0  0  0  0  0  0  0  0  0
  -20.1657  -25.7067   22.6861 C   0  0  0  0  0  0  0  0  0  0  0  0
  -27.7275  -17.1018   25.9765 C   0  0  0  0  0  0  0  0  0  0  0  0
  -25.8960  -17.3953   24.2652 C   0  0  0  0  0  0  0  0  0  0  0  0
  -25.3922  -18.1587   23.0408 C   0  0  0  0  0  0  0  0  0  1  0  0
  -24.9141  -26.9647   23.5258 C   0  0  1  0  0  0  0  0  0  0  0  0
  -21.2008  -27.5653   23.9949 C   0  0  2  0  0  0  0  0  0  0  0  0
  -27.0392  -18.1045   25.0231 C   0  0  2  0  0  0  0  0  0  0  0  0
  -25.9613  -27.8990   24.1952 C   0  0  0  0  0  0  0  0  0  0  0  0
  -25.8635  -11.5425   20.2904 N   0  0  0  0  0  0  0  0  0  0  0  0
  -26.2400  -12.8258   20.1584 N   0  0  0  0  0  0  0  0  0  0  0  0
  -25.4485  -25.3198   21.7559 N   0  0  0  0  0  0  0  0  0  0  0  0
  -29.9701  -13.6160   20.3713 N   0  0  0  0  0  0  0  0  0  0  0  0
  -25.4716  -15.0537   20.3965 N   0  0  0  0  0  0  0  0  0  0  0  0
  -21.8851  -12.5817   21.5889 N   0  0  0  0  0  0  0  0  0  0  0  0
  -28.6868  -17.8348   23.2323 N   0  0  0  0  0  0  0  0  0  0  0  0
  -30.0771  -15.6992   21.4719 N   0  0  0  0  0  0  0  0  0  0  0  0
  -28.1101  -24.5935   19.3716 N   0  0  0  0  0  0  0  0  0  0  0  0
  -23.5536  -27.4914   23.5312 N   0  0  0  0  0  0  0  0  0  0  0  0
  -20.0622  -26.6135   23.8582 N   0  3  0  0  0  0  0  0  0  0  0  0
  -22.6603  -14.7209   21.3032 O   0  0  0  0  0  0  0  0  0  0  0  0
  -27.9779  -24.9593   21.6675 O   0  0  0  0  0  0  0  0  0  0  0  0
  -25.3169  -27.5976   21.2755 O   0  0  0  0  0  0  0  0  0  0  0  0
  -22.5993  -25.7190   24.6823 O   0  0  0  0  0  0  0  0  0  0  0  0
  -28.1956  -19.9774   24.0363 O   0  0  0  0  0  0  0  0  0  0  0  0
  -31.8571  -14.9393   20.1929 O   0  0  0  0  0  0  0  0  0  0  0  0
  -26.4418  -19.1412   25.8012 O   0  0  0  0  0  0  0  0  0  0  0  0
  -21.6147   -7.0188   21.7164 O   0  0  0  0  0  0  0  0  0  0  0  0
  -24.8818  -19.4208   23.4685 O   0  0  0  0  0  0  0  0  0  1  0  0
  -18.6124   -6.8752   26.3391 F   0  0  0  0  0  0  0  0  0  0  0  0
  -22.0615   -5.0823   23.6382 F   0  0  0  0  0  0  0  0  0  0  0  0
  -31.6823  -20.4253   20.3822 F   0  0  0  0  0  0  0  0  0  0  0  0
  -31.3756  -17.7446   20.3566 S   0  0  0  0  0  0  0  0  0  0  0  0
  1  2  1  0  0  0  0
  1  5  2  0  0  0  0
  2  6  2  0  0  0  0
  3  8  2  0  0  0  0
  3 16  1  0  0  0  0
  4  9  1  0  0  0  0
  4 16  2  0  0  0  0
  5 18  1  0  0  0  0
  6 20  1  0  0  0  0
  7 10  2  0  0  0  0
  7 19  1  0  0  0  0
  8 23  1  0  0  0  0
  9 23  2  0  0  0  0
 10 24  1  0  0  0  0
 11 12  2  0  0  0  0
 11 25  1  0  0  0  0
 12 26  1  0  0  0  0
 13 21  1  0  0  0  0
 13 24  2  0  0  0  0
 14 22  1  0  0  0  0
 14 31  2  0  0  0  0
 15 26  2  0  0  0  0
 15 27  1  0  0  0  0
 16 28  1  0  0  0  0
 17 28  1  0  0  0  0
 17 29  2  0  0  0  0
 17 32  1  0  0  0  0
 18 20  2  0  0  0  0
 18 38  1  0  0  0  0
 19 21  2  0  0  0  0
 19 39  1  0  0  0  0
 20 47  1  0  0  0  0
 21 40  1  0  0  0  0
 22 30  2  0  0  0  0
 22 69  1  0  0  0  0
 23 81  1  0  0  0  0
 24 82  1  0  0  0  0
 25 27  2  0  0  0  0
 25 81  1  0  0  0  0
 26 83  1  0  0  0  0
 27 84  1  0  0  0  0
 28 63  2  0  0  0  0
 29 64  1  0  0  0  0
 29 67  1  0  0  0  0
 30 70  1  0  0  0  0
 30 86  1  0  0  0  0
 31 85  1  0  0  0  0
 31 86  1  0  0  0  0
 32 68  1  0  0  0  0
 32 74  2  0  0  0  0
 33 48  1  0  0  0  0
 33 71  1  0  0  0  0
 33 75  2  0  0  0  0
 34 59  1  0  0  0  0
 34 65  1  0  0  0  0
 34 76  2  0  0  0  0
 35 60  1  0  0  0  0
 35 72  1  0  0  0  0
 35 77  2  0  0  0  0
 36 61  1  0  0  0  0
 36 69  1  0  0  0  0
 36 78  2  0  0  0  0
 37 66  1  0  0  0  0
 37 70  1  0  0  0  0
 37 79  2  0  0  0  0
 38 41  1  0  0  0  0
 39 48  1  0  0  0  0
 40 65  1  0  0  0  0
 41 43  1  0  0  0  0
 42 44  1  0  0  0  0
 42 45  1  0  0  0  0
 43 47  1  0  0  0  0
 44 49  1  0  0  0  0
 45 66  1  0  0  0  0
 46 49  1  0  0  0  0
 46 66  1  0  0  0  0
 47 71  1  0  0  0  0
 48 65  1  0  0  0  0
 49 64  1  0  0  0  0
 50 56  1  0  0  0  0
 51 60  1  0  0  0  0
 52 62  1  0  0  0  0
 53 62  1  0  0  0  0
 54 62  1  0  0  0  0
 55 73  1  0  0  0  0
 56 61  1  0  0  0  0
 57 58  1  0  0  0  0
 57 61  1  0  0  0  0
 58 82  1  0  0  0  0
 59 62  1  0  0  0  0
 59 72  1  0  0  0  0
 60 73  1  0  0  0  0
 61 80  1  0  0  0  0
 63 64  1  0  0  0  0
M  CHG  1  73   1
M  ISO  4  37 100  58 101  70 100  82 101
M  END
> <Batch ID>
0180

> <Smiles>
CCC(O)(C[101CH2:1][101O:1]c1ccc2c(c1)CN(C(=O)C(NC(=O)C(C)NC)C(C)(C)C)C(C(=O)NC1CCCc3ccccc31)C2)C(=O)Nc1cc(F)sc1[100NH:0][100C:0](=O)N1CCCC(n2nc(-c3ccc(Oc4ccc(F)cc4F)cc3)c(C(N)=O)c2N)C1

> <Shape>
0.257

> <Color>
0.180

> <Negative vol penalty>
0.000

$$$$

  -OEChem-04052304503D

 86 94  0     1  0  0  0  0  0999 V2000
  -29.8000  -36.5902   20.2986 C   0  0  0  0  0  0  0  0  0  0  0  0
  -29.7836  -35.2803   19.8304 C   0  0  0  0  0  0  0  0  0  0  0  0
  -19.9376  -15.9766   19.1020 C   0  0  0  0  0  0  0  0  0  0  0  0
  -19.2810  -15.2646   21.3153 C   0  0  0  0  0  0  0  0  0  0  0  0
  -29.3136  -36.8800   21.5727 C   0  0  0  0  0  0  0  0  0  0  0  0
  -29.2818  -34.2592   20.6365 C   0  0  0  0  0  0  0  0  0  0  0  0
  -26.2080  -29.2913   18.7984 C   0  0  0  0  0  0  0  0  0  0  0  0
  -18.6019  -15.9610   18.7006 C   0  0  0  0  0  0  0  0  0  0  0  0
  -17.9452  -15.2491   20.9141 C   0  0  0  0  0  0  0  0  0  0  0  0
  -26.6050  -27.9751   18.5666 C   0  0  0  0  0  0  0  0  0  0  0  0
  -15.8938  -13.2113   19.1619 C   0  0  0  0  0  0  0  0  0  0  0  0
  -15.1193  -12.1113   19.5304 C   0  0  0  0  0  0  0  0  0  0  0  0
  -25.8871  -27.3735   20.7896 C   0  0  0  0  0  0  0  0  0  0  0  0
  -30.5298  -18.8398   19.2590 C   0  0  0  0  0  0  0  0  0  0  0  0
  -13.6218  -13.5711   20.7403 C   0  0  0  0  0  0  0  0  0  0  0  0
  -20.2772  -15.6283   20.4093 C   0  0  0  0  0  0  0  0  0  0  0  0
  -22.3649  -16.7250   21.3823 C   0  0  0  0  0  0  0  0  0  0  0  0
  -28.7967  -35.8634   22.3911 C   0  0  0  0  0  0  0  0  0  0  0  0
  -25.6567  -29.6615   20.0334 C   0  0  0  0  0  0  0  0  0  0  0  0
  -28.7892  -34.5354   21.9233 C   0  0  0  0  0  0  0  0  0  0  0  0
  -25.4815  -28.6945   21.0336 C   0  0  0  0  0  0  0  0  0  0  0  0
  -30.8086  -17.4432   19.2169 C   0  0  0  0  0  0  0  0  0  0  0  0
  -17.6056  -15.5973   19.6067 C   0  0  0  0  0  0  0  0  0  0  0  0
  -26.4473  -27.0166   19.5633 C   0  0  0  0  0  0  0  0  0  0  0  0
  -15.5325  -14.4911   19.5827 C   0  0  0  0  0  0  0  0  0  0  0  0
  -13.9832  -12.2912   20.3195 C   0  0  0  0  0  0  0  0  0  0  0  0
  -14.3964  -14.6710   20.3719 C   0  0  0  0  0  0  0  0  0  0  0  0
  -21.6570  -15.6437   20.8243 C   0  0  0  0  0  0  0  0  0  0  0  0
  -29.7951  -16.6961   19.7759 C   0  0  0  0  0  0  0  0  0  0  0  0
  -23.6285  -16.2326   21.5997 C   0  0  0  0  0  0  0  0  0  0  0  0
  -29.3136  -19.1071   19.8484 C   0  0  0  0  0  0  0  0  0  0  0  0
  -28.1077  -22.6478   20.2056 C   0  0  0  0  0  0  0  0  0  0  0  0
  -21.9200  -18.0556   21.6778 C   0  0  0  0  0  0  0  0  0  0  0  0
  -29.6892  -15.2226   19.9316 C   0  0  0  0  0  0  0  0  0  0  0  0
  -28.2864  -23.9665   20.0249 C   0  0  0  0  0  0  0  0  0  0  0  0
  -29.1023  -21.6129   19.7803 C   0  0  0  0  0  0  0  0  0  0  0  0
  -26.4876  -31.6761   22.3474 C   0  0  0  0  0  0  0  0  0  0  0  0
  -23.5986  -30.8508   23.5701 C   0  0  0  0  0  0  0  0  0  0  0  0
  -21.0719  -28.5633   23.7421 C   0  0  0  0  0  0  0  0  0  0  0  0
  -28.0776  -13.3459   19.9962 C   0  0  0  0  0  0  0  0  0  0  0  0
  -28.3256  -36.2180   23.7793 C   0  0  0  0  0  0  0  0  0  0  0  0
  -25.2088  -31.0797   20.2582 C   0  0  0  0  0  0  0  0  0  0  0  0
  -24.8761  -29.0363   22.3697 C   0  0  0  0  0  0  0  0  0  0  0  0
  -27.4656  -35.1352   24.4259 C   0  0  0  0  0  0  0  0  0  0  0  0
  -25.4034  -11.4938   21.3804 C   0  0  0  0  0  0  0  0  0  0  0  0
  -28.1082  -33.7638   24.2442 C   0  0  0  0  0  0  0  0  0  0  0  0
  -24.2480  -12.4979   21.4138 C   0  0  0  0  0  0  0  0  0  0  0  0
  -26.2641  -11.6607   20.1289 C   0  0  0  0  0  0  0  0  0  0  0  0
  -25.6007  -14.0217   19.9197 C   0  0  0  0  0  0  0  0  0  0  0  0
  -28.2300  -33.4041   22.7585 C   0  0  1  0  0  0  0  0  0  0  0  0
  -25.1335  -31.4556   21.7348 C   0  0  1  0  0  0  0  0  0  0  0  0
  -24.7458  -13.9407   21.1947 C   0  0  1  0  0  0  0  0  0  0  0  0
  -32.0490  -16.8748   18.6357 C   0  0  0  0  0  0  0  0  0  0  0  0
  -18.8605  -28.1507   24.8543 C   0  0  0  0  0  0  0  0  0  0  0  0
  -25.0386  -30.1460   26.1661 C   0  0  0  0  0  0  0  0  0  0  0  0
  -22.9970  -28.8813   26.8736 C   0  0  0  0  0  0  0  0  0  0  0  0
  -22.8622  -31.3394   26.4713 C   0  0  0  0  0  0  0  0  0  0  0  0
  -19.6522  -28.4728   21.1468 C   0  0  0  0  0  0  0  0  0  0  0  0
  -27.2735  -24.9794   20.4706 C   0  0  0  0  0  0  0  0  0  1  0  0
  -23.1006  -29.7724   24.5017 C   0  0  1  0  0  0  0  0  0  0  0  0
  -19.5656  -28.7160   23.6312 C   0  0  2  0  0  0  0  0  0  0  0  0
  -23.5128  -30.0284   25.9788 C   0  0  0  0  0  0  0  0  0  0  0  0
  -22.4085  -14.5471   20.6951 N   0  0  0  0  0  0  0  0  0  0  0  0
  -23.6018  -14.9368   21.1749 N   0  0  0  0  0  0  0  0  0  0  0  0
  -24.4596  -30.4377   22.5435 N   0  0  0  0  0  0  0  0  0  0  0  0
  -26.7029  -13.0514   19.9992 N   0  0  0  0  0  0  0  0  0  0  0  0
  -24.7488  -16.7859   22.1108 N   0  0  0  0  0  0  0  0  0  0  0  0
  -20.5905  -18.3946   21.3916 N   0  0  0  0  0  0  0  0  0  0  0  0
  -28.6524  -20.3358   20.0937 N   0  0  0  0  0  0  0  0  0  0  0  0
  -28.3932  -14.7064   19.9108 N   0  0  0  0  0  0  0  0  0  0  0  0
  -26.9510  -32.9732   22.2362 N   0  0  0  0  0  0  0  0  0  0  0  0
  -21.6598  -29.6837   24.2902 N   0  0  0  0  0  0  0  0  0  0  0  0
  -19.0599  -28.0015   22.4251 N   0  3  0  0  0  0  0  0  0  0  0  0
  -22.6834  -18.9232   22.1655 O   0  0  0  0  0  0  0  0  0  0  0  0
  -30.7160  -14.5559   20.0268 O   0  0  0  0  0  0  0  0  0  0  0  0
  -30.1544  -21.9186   19.2328 O   0  0  0  0  0  0  0  0  0  0  0  0
  -27.0685  -30.7392   22.8827 O   0  0  0  0  0  0  0  0  0  0  0  0
  -23.2314  -32.0158   23.7424 O   0  0  0  0  0  0  0  0  0  0  0  0
  -21.6670  -27.5500   23.3822 O   0  0  0  0  0  0  0  0  0  0  0  0
  -28.9483  -12.4761   20.0992 O   0  0  0  0  0  0  0  0  0  0  0  0
  -29.4225  -24.4831   19.4342 O   0  0  0  0  0  0  0  0  0  0  0  0
  -16.3021  -15.5822   19.2155 O   0  0  0  0  0  0  0  0  0  0  0  0
  -26.8345  -25.7313   19.3400 O   0  0  0  0  0  0  0  0  0  1  0  0
  -13.2386  -11.2350   20.6719 F   0  0  0  0  0  0  0  0  0  0  0  0
  -14.0436  -15.8983   20.7782 F   0  0  0  0  0  0  0  0  0  0  0  0
  -28.5139  -17.6777   20.3481 S   0  0  0  0  0  0  0  0  0  0  0  0
  1  2  1  0  0  0  0
  1  5  2  0  0  0  0
  2  6  2  0  0  0  0
  3  8  2  0  0  0  0
  3 16  1  0  0  0  0
  4  9  1  0  0  0  0
  4 16  2  0  0  0  0
  5 18  1  0  0  0  0
  6 20  1  0  0  0  0
  7 10  2  0  0  0  0
  7 19  1  0  0  0  0
  8 23  1  0  0  0  0
  9 23  2  0  0  0  0
 10 24  1  0  0  0  0
 11 12  2  0  0  0  0
 11 25  1  0  0  0  0
 12 26  1  0  0  0  0
 13 21  1  0  0  0  0
 13 24  2  0  0  0  0
 14 22  1  0  0  0  0
 14 31  2  0  0  0  0
 15 26  2  0  0  0  0
 15 27  1  0  0  0  0
 16 28  1  0  0  0  0
 17 28  1  0  0  0  0
 17 30  2  0  0  0  0
 17 33  1  0  0  0  0
 18 20  2  0  0  0  0
 18 41  1  0  0  0  0
 19 21  2  0  0  0  0
 19 42  1  0  0  0  0
 20 50  1  0  0  0  0
 21 43  1  0  0  0  0
 22 29  2  0  0  0  0
 22 53  1  0  0  0  0
 23 82  1  0  0  0  0
 24 83  1  0  0  0  0
 25 27  2  0  0  0  0
 25 82  1  0  0  0  0
 26 84  1  0  0  0  0
 27 85  1  0  0  0  0
 28 63  2  0  0  0  0
 29 34  1  0  0  0  0
 29 86  1  0  0  0  0
 30 64  1  0  0  0  0
 30 67  1  0  0  0  0
 31 69  1  0  0  0  0
 31 86  1  0  0  0  0
 32 35  2  0  0  0  0
 32 36  1  0  0  0  0
 33 68  1  0  0  0  0
 33 74  2  0  0  0  0
 34 70  1  0  0  0  0
 34 75  2  0  0  0  0
 35 59  1  0  0  0  0
 35 81  1  0  0  0  0
 36 69  1  0  0  0  0
 36 76  2  0  0  0  0
 37 51  1  0  0  0  0
 37 71  1  0  0  0  0
 37 77  2  0  0  0  0
 38 60  1  0  0  0  0
 38 65  1  0  0  0  0
 38 78  2  0  0  0  0
 39 61  1  0  0  0  0
 39 72  1  0  0  0  0
 39 79  2  0  0  0  0
 40 66  1  0  0  0  0
 40 70  1  0  0  0  0
 40 80  2  0  0  0  0
 41 44  1  0  0  0  0
 42 51  1  0  0  0  0
 43 65  1  0  0  0  0
 44 46  1  0  0  0  0
 45 47  1  0  0  0  0
 45 48  1  0  0  0  0
 46 50  1  0  0  0  0
 47 52  1  0  0  0  0
 48 66  1  0  0  0  0
 49 52  1  0  0  0  0
 49 66  1  0  0  0  0
 50 71  1  0  0  0  0
 51 65  1  0  0  0  0
 52 64  1  0  0  0  0
 54 61  1  0  0  0  0
 55 62  1  0  0  0  0
 56 62  1  0  0  0  0
 57 62  1  0  0  0  0
 58 73  1  0  0  0  0
 59 83  1  0  0  0  0
 60 62  1  0  0  0  0
 60 72  1  0  0  0  0
 61 73  1  0  0  0  0
 63 64  1  0  0  0  0
M  CHG  1  73   1
M  ISO  4  40 100  59 101  70 100  83 101
M  END
> <Batch ID>
0180

> <Smiles>
CNC(C)C(=O)NC(C(=O)N1Cc2cc([101O:1][101CH2:1]C(=O)CC(=O)Nc3cc(C)c(C(=O)[100NH:0][100C:0](=O)N4CCCC(n5nc(-c6ccc(Oc7ccc(F)cc7F)cc6)c(C(N)=O)c5N)C4)s3)ccc2CC1C(=O)NC1CCCc2ccccc21)C(C)(C)C

> <Shape>
0.242

> <Color>
0.093

> <Negative vol penalty>
0.000

$$$$

  -OEChem-04052304503D

 87 95  0     1  0  0  0  0  0999 V2000
  -16.5954  -29.5043   24.0776 C   0  0  0  0  0  0  0  0  0  0  0  0
  -16.6208  -28.4161   23.2112 C   0  0  0  0  0  0  0  0  0  0  0  0
  -24.4929  -14.4696   21.1309 C   0  0  0  0  0  0  0  0  0  0  0  0
  -25.9303  -14.2934   19.1970 C   0  0  0  0  0  0  0  0  0  0  0  0
  -17.7635  -30.2242   24.3252 C   0  0  0  0  0  0  0  0  0  0  0  0
  -17.8142  -28.0479   22.5909 C   0  0  0  0  0  0  0  0  0  0  0  0
  -21.3321  -22.2674   20.2399 C   0  0  0  0  0  0  0  0  0  0  0  0
  -23.8658  -13.2760   20.7736 C   0  0  0  0  0  0  0  0  0  0  0  0
  -25.3033  -13.0997   18.8397 C   0  0  0  0  0  0  0  0  0  0  0  0
  -21.9661  -21.7837   19.0964 C   0  0  0  0  0  0  0  0  0  0  0  0
  -22.1295  -10.0888   20.5683 C   0  0  0  0  0  0  0  0  0  0  0  0
  -21.8988   -9.1509   21.5747 C   0  0  0  0  0  0  0  0  0  0  0  0
  -23.9388  -23.0523   19.6608 C   0  0  0  0  0  0  0  0  0  0  0  0
  -24.2736   -9.0241   22.0008 C   0  0  0  0  0  0  0  0  0  0  0  0
  -25.5251  -14.9783   20.3425 C   0  0  0  0  0  0  0  0  0  0  0  0
  -25.5737  -17.4778   20.8502 C   0  0  0  0  0  0  0  0  0  0  0  0
  -18.9738  -29.8587   23.7152 C   0  0  0  0  0  0  0  0  0  0  0  0
  -21.9938  -23.1574   21.0982 C   0  0  0  0  0  0  0  0  0  0  0  0
  -18.9993  -28.7644   22.8296 C   0  0  0  0  0  0  0  0  0  0  0  0
  -23.3118  -23.5439   20.8159 C   0  0  0  0  0  0  0  0  0  0  0  0
  -24.2710  -12.5910   19.6280 C   0  0  0  0  0  0  0  0  0  0  0  0
  -23.2686  -22.1783   18.8051 C   0  0  0  0  0  0  0  0  0  0  0  0
  -23.4322  -10.4943   20.2781 C   0  0  0  0  0  0  0  0  0  0  0  0
  -22.9709   -8.6186   22.2909 C   0  0  0  0  0  0  0  0  0  0  0  0
  -24.5043   -9.9620   20.9944 C   0  0  0  0  0  0  0  0  0  0  0  0
  -26.1729  -16.2116   20.7108 C   0  0  0  0  0  0  0  0  0  0  0  0
  -30.2296  -23.2758   19.2697 C   0  0  0  0  0  0  0  0  0  0  0  0
  -26.6064  -18.3085   21.2110 C   0  0  0  0  0  0  0  0  0  0  0  0
  -30.3613  -24.6238   19.0098 C   0  0  0  0  0  0  0  0  0  0  0  0
  -28.2820  -23.6207   18.3222 C   0  0  0  0  0  0  0  0  0  0  0  0
  -24.2060  -17.8683   20.6699 C   0  0  0  0  0  0  0  0  0  0  0  0
  -31.2715  -22.4472   19.9291 C   0  0  0  0  0  0  0  0  0  0  0  0
  -21.4889  -26.1469   22.0527 C   0  0  0  0  0  0  0  0  0  0  0  0
  -24.0043  -25.5349   24.0073 C   0  0  0  0  0  0  0  0  0  0  0  0
  -31.4237  -26.9022   18.9418 C   0  0  0  0  0  0  0  0  0  0  0  0
  -27.2431  -24.1204   24.7332 C   0  0  0  0  0  0  0  0  0  0  0  0
  -26.2234  -22.3018   17.7208 C   0  0  0  0  0  0  0  0  0  0  0  0
  -31.8051  -20.1442   20.6604 C   0  0  0  0  0  0  0  0  0  0  0  0
  -20.2006  -30.6961   23.9770 C   0  0  0  0  0  0  0  0  0  0  0  0
  -21.3055  -23.6492   22.3418 C   0  0  0  0  0  0  0  0  0  0  0  0
  -24.0732  -24.4814   21.7158 C   0  0  0  0  0  0  0  0  0  0  0  0
  -21.5032  -30.0119   23.5706 C   0  0  0  0  0  0  0  0  0  0  0  0
  -31.3502  -17.2456   22.6322 C   0  0  0  0  0  0  0  0  0  0  0  0
  -21.3716  -29.3953   22.1816 C   0  0  0  0  0  0  0  0  0  0  0  0
  -29.9101  -16.8239   22.3276 C   0  0  0  0  0  0  0  0  0  0  0  0
  -32.0570  -17.7887   21.3911 C   0  0  0  0  0  0  0  0  0  0  0  0
  -29.9074  -18.4357   20.3818 C   0  0  0  0  0  0  0  0  0  0  0  0
  -20.2796  -28.3189   22.1570 C   0  0  1  0  0  0  0  0  0  0  0  0
  -21.8913  -24.9539   22.8727 C   0  0  1  0  0  0  0  0  0  0  0  0
  -29.1305  -17.9473   21.6151 C   0  0  1  0  0  0  0  0  0  0  0  0
  -32.7233  -27.5388   19.3661 C   0  0  0  0  0  0  0  0  0  0  0  0
  -28.5672  -24.0847   26.8646 C   0  0  0  0  0  0  0  0  0  0  0  0
  -24.8883  -22.2970   15.5814 C   0  0  0  0  0  0  0  0  0  0  0  0
  -25.3235  -28.0491   22.8900 C   0  0  0  0  0  0  0  0  0  0  0  0
  -27.4981  -27.2431   23.8333 C   0  0  0  0  0  0  0  0  0  0  0  0
  -25.5875  -27.7413   25.3577 C   0  0  0  0  0  0  0  0  0  0  0  0
  -27.4821  -21.1712   24.6714 C   0  0  0  0  0  0  0  0  0  0  0  0
  -25.5031  -25.6789   23.8978 C   0  0  1  0  0  0  0  0  0  0  0  0
  -27.6263  -23.3079   25.9569 C   0  0  2  0  0  0  0  0  0  0  0  0
  -24.8615  -22.5572   17.0803 C   0  0  1  0  0  0  0  0  0  1  0  0
  -25.9633  -27.1620   23.9765 C   0  0  0  0  0  0  0  0  0  0  0  0
  -27.4845  -16.2313   20.9622 N   0  0  0  0  0  0  0  0  0  0  0  0
  -29.0377  -22.6989   18.8765 N   0  0  0  0  0  0  0  0  0  0  0  0
  -27.7181  -17.5200   21.2633 N   0  0  0  0  0  0  0  0  0  0  0  0
  -23.3549  -24.9399   22.9164 N   0  0  0  0  0  0  0  0  0  0  0  0
  -31.2595  -18.8541   20.7811 N   0  0  0  0  0  0  0  0  0  0  0  0
  -26.6629  -19.6291   21.4853 N   0  0  0  0  0  0  0  0  0  0  0  0
  -23.7929  -18.2872   19.3978 N   0  0  0  0  0  0  0  0  0  0  0  0
  -31.3684  -25.5165   19.2444 N   0  0  0  0  0  0  0  0  0  0  0  0
  -26.9831  -23.4654   17.7821 N   0  0  0  0  0  0  0  0  0  0  0  0
  -30.9492  -21.1011   20.1038 N   0  0  0  0  0  0  0  0  0  0  0  0
  -20.7650  -27.0928   22.7532 N   0  0  0  0  0  0  0  0  0  0  0  0
  -26.0721  -24.8210   24.9315 N   0  0  0  0  0  0  0  0  0  0  0  0
  -28.3034  -22.0446   25.5486 N   0  3  0  0  0  0  0  0  0  0  0  0
  -23.3787  -17.8620   21.6129 O   0  0  0  0  0  0  0  0  0  0  0  0
  -32.3407  -22.9658   20.2385 O   0  0  0  0  0  0  0  0  0  0  0  0
  -21.8125  -26.2056   20.8722 O   0  0  0  0  0  0  0  0  0  0  0  0
  -23.4317  -25.9292   25.0263 O   0  0  0  0  0  0  0  0  0  0  0  0
  -30.5460  -27.5667   18.4005 O   0  0  0  0  0  0  0  0  0  0  0  0
  -27.9171  -24.1352   23.7056 O   0  0  0  0  0  0  0  0  0  0  0  0
  -26.5374  -21.1859   18.1249 O   0  0  0  0  0  0  0  0  0  0  0  0
  -32.9421  -20.4288   21.0494 O   0  0  0  0  0  0  0  0  0  0  0  0
  -23.6595  -11.4261   19.2793 O   0  0  0  0  0  0  0  0  0  0  0  0
  -23.8896  -21.7081   17.6893 O   0  0  0  0  0  0  0  0  0  1  0  0
  -22.7491   -7.7191   23.2584 F   0  0  0  0  0  0  0  0  0  0  0  0
  -25.7579  -10.3486   20.7210 F   0  0  0  0  0  0  0  0  0  0  0  0
  -28.9421  -25.2027   18.2403 S   0  0  0  0  0  0  0  0  0  0  0  0
  1  2  1  0  0  0  0
  1  5  2  0  0  0  0
  2  6  2  0  0  0  0
  3  8  2  0  0  0  0
  3 15  1  0  0  0  0
  4  9  1  0  0  0  0
  4 15  2  0  0  0  0
  5 17  1  0  0  0  0
  6 19  1  0  0  0  0
  7 10  2  0  0  0  0
  7 18  1  0  0  0  0
  8 21  1  0  0  0  0
  9 21  2  0  0  0  0
 10 22  1  0  0  0  0
 11 12  2  0  0  0  0
 11 23  1  0  0  0  0
 12 24  1  0  0  0  0
 13 20  1  0  0  0  0
 13 22  2  0  0  0  0
 14 24  2  0  0  0  0
 14 25  1  0  0  0  0
 15 26  1  0  0  0  0
 16 26  1  0  0  0  0
 16 28  2  0  0  0  0
 16 31  1  0  0  0  0
 17 19  2  0  0  0  0
 17 39  1  0  0  0  0
 18 20  2  0  0  0  0
 18 40  1  0  0  0  0
 19 48  1  0  0  0  0
 20 41  1  0  0  0  0
 21 83  1  0  0  0  0
 22 84  1  0  0  0  0
 23 25  2  0  0  0  0
 23 83  1  0  0  0  0
 24 85  1  0  0  0  0
 25 86  1  0  0  0  0
 26 62  2  0  0  0  0
 27 29  2  0  0  0  0
 27 32  1  0  0  0  0
 27 63  1  0  0  0  0
 28 64  1  0  0  0  0
 28 67  1  0  0  0  0
 29 69  1  0  0  0  0
 29 87  1  0  0  0  0
 30 63  2  0  0  0  0
 30 70  1  0  0  0  0
 30 87  1  0  0  0  0
 31 68  1  0  0  0  0
 31 75  2  0  0  0  0
 32 71  1  0  0  0  0
 32 76  2  0  0  0  0
 33 49  1  0  0  0  0
 33 72  1  0  0  0  0
 33 77  2  0  0  0  0
 34 58  1  0  0  0  0
 34 65  1  0  0  0  0
 34 78  2  0  0  0  0
 35 51  1  0  0  0  0
 35 69  1  0  0  0  0
 35 79  2  0  0  0  0
 36 59  1  0  0  0  0
 36 73  1  0  0  0  0
 36 80  2  0  0  0  0
 37 60  1  0  0  0  0
 37 70  1  0  0  0  0
 37 81  2  0  0  0  0
 38 66  1  0  0  0  0
 38 71  1  0  0  0  0
 38 82  2  0  0  0  0
 39 42  1  0  0  0  0
 40 49  1  0  0  0  0
 41 65  1  0  0  0  0
 42 44  1  0  0  0  0
 43 45  1  0  0  0  0
 43 46  1  0  0  0  0
 44 48  1  0  0  0  0
 45 50  1  0  0  0  0
 46 66  1  0  0  0  0
 47 50  1  0  0  0  0
 47 66  1  0  0  0  0
 48 72  1  0  0  0  0
 49 65  1  0  0  0  0
 50 64  1  0  0  0  0
 52 59  1  0  0  0  0
 53 60  1  0  0  0  0
 54 61  1  0  0  0  0
 55 61  1  0  0  0  0
 56 61  1  0  0  0  0
 57 74  1  0  0  0  0
 58 61  1  0  0  0  0
 58 73  1  0  0  0  0
 59 74  1  0  0  0  0
 60 84  1  0  0  0  0
 62 64  1  0  0  0  0
M  CHG  1  74   1
M  ISO  4  38 100  60 101  71 100  84 101
M  END
> <Batch ID>
0180

> <Smiles>
CNC(C)C(=O)NC(C(=O)N1Cc2cc([101O:1][101CH:1](C)C(=O)Nc3nc(C(=O)[100NH:0][100C:0](=O)N4CCCC(n5nc(-c6ccc(Oc7ccc(F)cc7F)cc6)c(C(N)=O)c5N)C4)c(NC(C)=O)s3)ccc2CC1C(=O)NC1CCCc2ccccc21)C(C)(C)C

> <Shape>
0.213

> <Color>
0.051

> <Negative vol penalty>
0.000

$$$$

  -OEChem-04052304503D

 84 92  0     1  0  0  0  0  0999 V2000
  -30.8240  -34.7121   28.4248 C   0  0  0  0  0  0  0  0  0  0  0  0
  -31.1188  -33.3884   28.1144 C   0  0  0  0  0  0  0  0  0  0  0  0
  -24.5119   -9.7058   21.4800 C   0  0  0  0  0  0  0  0  0  0  0  0
  -24.8619  -10.8165   23.5968 C   0  0  0  0  0  0  0  0  0  0  0  0
  -29.5326  -35.2011   28.2320 C   0  0  0  0  0  0  0  0  0  0  0  0
  -30.1221  -32.5527   27.6120 C   0  0  0  0  0  0  0  0  0  0  0  0
  -30.8068  -28.0646   23.5017 C   0  0  0  0  0  0  0  0  0  0  0  0
  -24.2077   -8.5217   22.1515 C   0  0  0  0  0  0  0  0  0  0  0  0
  -24.5577   -9.6324   24.2684 C   0  0  0  0  0  0  0  0  0  0  0  0
  -30.9373  -26.6829   23.6346 C   0  0  0  0  0  0  0  0  0  0  0  0
  -22.9875   -5.3017   23.3167 C   0  0  0  0  0  0  0  0  0  0  0  0
  -21.8777   -4.5767   22.8827 C   0  0  0  0  0  0  0  0  0  0  0  0
  -28.5698  -26.4282   23.2483 C   0  0  0  0  0  0  0  0  0  0  0  0
  -20.4546   -6.4703   23.3583 C   0  0  0  0  0  0  0  0  0  0  0  0
  -24.8390  -10.8532   22.2026 C   0  0  0  0  0  0  0  0  0  0  0  0
  -24.2566  -13.0912   21.1256 C   0  0  0  0  0  0  0  0  0  0  0  0
  -28.5219  -34.3736   27.7179 C   0  0  0  0  0  0  0  0  0  0  0  0
  -29.5529  -28.6403   23.2516 C   0  0  0  0  0  0  0  0  0  0  0  0
  -28.8156  -33.0307   27.4134 C   0  0  0  0  0  0  0  0  0  0  0  0
  -28.4265  -27.8173   23.1102 C   0  0  0  0  0  0  0  0  0  0  0  0
  -24.2306   -8.4850   23.5457 C   0  0  0  0  0  0  0  0  0  0  0  0
  -29.8183  -25.8647   23.5108 C   0  0  0  0  0  0  0  0  0  0  0  0
  -22.8308   -6.6110   23.7716 C   0  0  0  0  0  0  0  0  0  0  0  0
  -20.6113   -5.1610   22.9035 C   0  0  0  0  0  0  0  0  0  0  0  0
  -21.5644   -7.1953   23.7924 C   0  0  0  0  0  0  0  0  0  0  0  0
  -25.1538  -12.0766   21.5095 C   0  0  0  0  0  0  0  0  0  0  0  0
  -28.9876  -21.4756   20.2329 C   0  0  0  0  0  0  0  0  0  0  0  0
  -25.0444  -14.0291   20.5042 C   0  0  0  0  0  0  0  0  0  0  0  0
  -27.7290  -21.6162   20.7792 C   0  0  0  0  0  0  0  0  0  0  0  0
  -28.5455  -19.3577   20.5918 C   0  0  0  0  0  0  0  0  0  0  0  0
  -22.8379  -13.1782   21.3141 C   0  0  0  0  0  0  0  0  0  0  0  0
  -27.6717  -30.6802   24.8020 C   0  0  0  0  0  0  0  0  0  0  0  0
  -25.8994  -30.5012   22.0910 C   0  0  0  0  0  0  0  0  0  0  0  0
  -25.0354  -28.7276   19.3063 C   0  0  0  0  0  0  0  0  0  0  0  0
  -29.6668  -17.1247   20.2707 C   0  0  0  0  0  0  0  0  0  0  0  0
  -27.1294  -34.9340   27.5712 C   0  0  0  0  0  0  0  0  0  0  0  0
  -29.4334  -30.1304   23.0844 C   0  0  0  0  0  0  0  0  0  0  0  0
  -27.0613  -28.3842   22.8215 C   0  0  0  0  0  0  0  0  0  0  0  0
  -26.2224  -34.0870   26.6823 C   0  0  0  0  0  0  0  0  0  0  0  0
  -29.8739  -13.8032   19.0053 C   0  0  0  0  0  0  0  0  0  0  0  0
  -26.3375  -32.6120   27.0537 C   0  0  0  0  0  0  0  0  0  0  0  0
  -28.5906  -13.1413   19.5124 C   0  0  0  0  0  0  0  0  0  0  0  0
  -30.4512  -14.7793   20.0288 C   0  0  0  0  0  0  0  0  0  0  0  0
  -28.2263  -15.1322   21.0259 C   0  0  0  0  0  0  0  0  0  0  0  0
  -27.7675  -32.0999   26.8431 C   0  0  1  0  0  0  0  0  0  0  0  0
  -28.0219  -30.6491   23.3411 C   0  0  1  0  0  0  0  0  0  0  0  0
  -27.5721  -14.1890   20.0031 C   0  0  2  0  0  0  0  0  0  0  0  0
  -23.5331  -28.8216   17.2984 C   0  0  0  0  0  0  0  0  0  0  0  0
  -31.8155  -23.2610   24.4636 C   0  0  0  0  0  0  0  0  0  0  0  0
  -31.2131  -21.9909   19.2082 C   0  0  0  0  0  0  0  0  0  0  0  0
  -29.3011  -23.4348   18.5730 C   0  0  0  0  0  0  0  0  0  0  0  0
  -23.5084  -29.7947   23.8500 C   0  0  0  0  0  0  0  0  0  0  0  0
  -22.3255  -28.9861   21.7969 C   0  0  0  0  0  0  0  0  0  0  0  0
  -22.9988  -31.3807   21.9847 C   0  0  0  0  0  0  0  0  0  0  0  0
  -27.3314  -28.6514   17.4403 C   0  0  0  0  0  0  0  0  0  0  0  0
  -30.9468  -22.9339   22.1187 C   0  0  0  0  0  0  0  0  0  0  0  0
  -30.2656  -23.5916   20.9052 C   0  0  0  0  0  0  0  0  0  0  0  0
  -24.7735  -29.6203   21.6061 C   0  0  1  0  0  0  0  0  0  0  0  0
  -24.9154  -29.1358   17.8491 C   0  0  2  0  0  0  0  0  0  0  0  0
  -31.1884  -23.9381   23.2520 C   0  0  1  0  0  0  0  0  0  1  0  0
  -29.8991  -22.6153   19.7420 C   0  0  0  0  0  0  0  0  0  0  0  0
  -23.4268  -29.9346   22.3168 C   0  0  0  0  0  0  0  0  0  0  0  0
  -26.4150  -12.3445   21.1609 N   0  0  0  0  0  0  0  0  0  0  0  0
  -29.4575  -20.1813   20.1250 N   0  0  0  0  0  0  0  0  0  0  0  0
  -26.3160  -13.5382   20.5514 N   0  0  0  0  0  0  0  0  0  0  0  0
  -26.9948  -29.8474   22.6728 N   0  0  0  0  0  0  0  0  0  0  0  0
  -29.4312  -15.7445   20.4444 N   0  0  0  0  0  0  0  0  0  0  0  0
  -24.7666  -15.2176   19.9274 N   0  0  0  0  0  0  0  0  0  0  0  0
  -27.0359  -22.7599   20.9985 N   0  0  0  0  0  0  0  0  0  0  0  0
  -22.1857  -12.1269   21.9727 N   0  0  0  0  0  0  0  0  0  0  0  0
  -28.6126  -17.9446   20.6722 N   0  0  0  0  0  0  0  0  0  0  0  0
  -28.0158  -31.8577   25.4380 N   0  0  0  0  0  0  0  0  0  0  0  0
  -24.7330  -29.7710   20.1555 N   0  0  0  0  0  0  0  0  0  0  0  0
  -25.9252  -28.4142   17.0241 N   0  3  0  0  0  0  0  0  0  0  0  0
  -22.1661  -14.1515   20.8958 O   0  0  0  0  0  0  0  0  0  0  0  0
  -27.1282  -29.7085   25.3138 O   0  0  0  0  0  0  0  0  0  0  0  0
  -25.8134  -31.7239   21.9521 O   0  0  0  0  0  0  0  0  0  0  0  0
  -25.3610  -27.5953   19.6562 O   0  0  0  0  0  0  0  0  0  0  0  0
  -30.7147  -17.5469   19.7751 O   0  0  0  0  0  0  0  0  0  0  0  0
  -23.9337   -7.3298   24.2014 O   0  0  0  0  0  0  0  0  0  0  0  0
  -29.9427  -24.5158   23.6406 O   0  0  0  0  0  0  0  0  0  1  0  0
  -19.5459   -4.4651   22.4853 F   0  0  0  0  0  0  0  0  0  0  0  0
  -21.4078   -8.4532   24.2271 F   0  0  0  0  0  0  0  0  0  0  0  0
  -27.0983  -20.0715   21.1759 S   0  0  0  0  0  0  0  0  0  0  0  0
  1  2  1  0  0  0  0
  1  5  2  0  0  0  0
  2  6  2  0  0  0  0
  3  8  2  0  0  0  0
  3 15  1  0  0  0  0
  4  9  1  0  0  0  0
  4 15  2  0  0  0  0
  5 17  1  0  0  0  0
  6 19  1  0  0  0  0
  7 10  2  0  0  0  0
  7 18  1  0  0  0  0
  8 21  1  0  0  0  0
  9 21  2  0  0  0  0
 10 22  1  0  0  0  0
 11 12  2  0  0  0  0
 11 23  1  0  0  0  0
 12 24  1  0  0  0  0
 13 20  1  0  0  0  0
 13 22  2  0  0  0  0
 14 24  2  0  0  0  0
 14 25  1  0  0  0  0
 15 26  1  0  0  0  0
 16 26  1  0  0  0  0
 16 28  2  0  0  0  0
 16 31  1  0  0  0  0
 17 19  2  0  0  0  0
 17 36  1  0  0  0  0
 18 20  2  0  0  0  0
 18 37  1  0  0  0  0
 19 45  1  0  0  0  0
 20 38  1  0  0  0  0
 21 80  1  0  0  0  0
 22 81  1  0  0  0  0
 23 25  2  0  0  0  0
 23 80  1  0  0  0  0
 24 82  1  0  0  0  0
 25 83  1  0  0  0  0
 26 63  2  0  0  0  0
 27 29  2  0  0  0  0
 27 61  1  0  0  0  0
 27 64  1  0  0  0  0
 28 65  1  0  0  0  0
 28 68  1  0  0  0  0
 29 69  1  0  0  0  0
 29 84  1  0  0  0  0
 30 64  2  0  0  0  0
 30 71  1  0  0  0  0
 30 84  1  0  0  0  0
 31 70  1  0  0  0  0
 31 75  2  0  0  0  0
 32 46  1  0  0  0  0
 32 72  1  0  0  0  0
 32 76  2  0  0  0  0
 33 58  1  0  0  0  0
 33 66  1  0  0  0  0
 33 77  2  0  0  0  0
 34 59  1  0  0  0  0
 34 73  1  0  0  0  0
 34 78  2  0  0  0  0
 35 67  1  0  0  0  0
 35 71  1  0  0  0  0
 35 79  2  0  0  0  0
 36 39  1  0  0  0  0
 37 46  1  0  0  0  0
 38 66  1  0  0  0  0
 39 41  1  0  0  0  0
 40 42  1  0  0  0  0
 40 43  1  0  0  0  0
 41 45  1  0  0  0  0
 42 47  1  0  0  0  0
 43 67  1  0  0  0  0
 44 47  1  0  0  0  0
 44 67  1  0  0  0  0
 45 72  1  0  0  0  0
 46 66  1  0  0  0  0
 47 65  1  0  0  0  0
 48 59  1  0  0  0  0
 49 60  1  0  0  0  0
 50 61  1  0  0  0  0
 51 61  1  0  0  0  0
 52 62  1  0  0  0  0
 53 62  1  0  0  0  0
 54 62  1  0  0  0  0
 55 74  1  0  0  0  0
 56 57  1  0  0  0  0
 56 60  1  0  0  0  0
 57 61  1  0  0  0  0
 58 62  1  0  0  0  0
 58 73  1  0  0  0  0
 59 74  1  0  0  0  0
 60 81  1  0  0  0  0
 63 65  1  0  0  0  0
M  CHG  1  74   1
M  ISO  4  35 100  60 101  71 100  81 101
M  END
> <Batch ID>
0180

> <Smiles>
CNC(C)C(=O)NC(C(=O)N1Cc2cc([101O:1][101CH:1](C)CCC(C)(C)c3nc([100NH:0][100C:0](=O)N4CCCC(n5nc(-c6ccc(Oc7ccc(F)cc7F)cc6)c(C(N)=O)c5N)C4)sc3N)ccc2CC1C(=O)NC1CCCc2ccccc21)C(C)(C)C

> <Shape>
0.301

> <Color>
0.113

> <Negative vol penalty>
0.000

$$$$

  -OEChem-04052304503D

 83 91  0     1  0  0  0  0  0999 V2000
  -23.1163  -18.1496   37.0692 C   0  0  0  0  0  0  0  0  0  0  0  0
  -23.9432  -17.8298   35.9971 C   0  0  0  0  0  0  0  0  0  0  0  0
  -23.0753   -9.8683   19.9403 C   0  0  0  0  0  0  0  0  0  0  0  0
  -23.8345   -9.8747   22.2339 C   0  0  0  0  0  0  0  0  0  0  0  0
  -21.8641  -18.7170   36.8372 C   0  0  0  0  0  0  0  0  0  0  0  0
  -23.5179  -18.0763   34.6922 C   0  0  0  0  0  0  0  0  0  0  0  0
  -26.9943  -19.7780   29.9463 C   0  0  0  0  0  0  0  0  0  0  0  0
  -22.3310   -8.7153   20.1899 C   0  0  0  0  0  0  0  0  0  0  0  0
  -23.0901   -8.7217   22.4835 C   0  0  0  0  0  0  0  0  0  0  0  0
  -27.5592  -19.0609   28.8925 C   0  0  0  0  0  0  0  0  0  0  0  0
  -19.8615   -7.9249   23.0850 C   0  0  0  0  0  0  0  0  0  0  0  0
  -19.1042   -7.8851   24.2556 C   0  0  0  0  0  0  0  0  0  0  0  0
  -25.6828  -19.6482   27.4949 C   0  0  0  0  0  0  0  0  0  0  0  0
  -20.3447   -5.9471   24.9922 C   0  0  0  0  0  0  0  0  0  0  0  0
  -31.9367  -18.6559   22.2636 C   0  0  0  0  0  0  0  0  0  0  0  0
  -23.8271  -10.4479   20.9623 C   0  0  0  0  0  0  0  0  0  0  0  0
  -24.1698  -12.9730   20.8427 C   0  0  0  0  0  0  0  0  0  0  0  0
  -21.4271  -18.9795   35.5292 C   0  0  0  0  0  0  0  0  0  0  0  0
  -25.7620  -20.4277   29.7853 C   0  0  0  0  0  0  0  0  0  0  0  0
  -22.2580  -18.6465   34.4424 C   0  0  0  0  0  0  0  0  0  0  0  0
  -25.1057  -20.3750   28.5473 C   0  0  0  0  0  0  0  0  0  0  0  0
  -22.3383   -8.1421   21.4615 C   0  0  0  0  0  0  0  0  0  0  0  0
  -26.9021  -18.9935   27.6675 C   0  0  0  0  0  0  0  0  0  0  0  0
  -20.8604   -6.9758   22.8679 C   0  0  0  0  0  0  0  0  0  0  0  0
  -19.3458   -6.8962   25.2093 C   0  0  0  0  0  0  0  0  0  0  0  0
  -21.1020   -5.9870   23.8215 C   0  0  0  0  0  0  0  0  0  0  0  0
  -24.5966  -11.6386   20.7050 C   0  0  0  0  0  0  0  0  0  0  0  0
  -30.7740  -18.8951   22.9403 C   0  0  0  0  0  0  0  0  0  0  0  0
  -25.2623  -13.7221   20.4799 C   0  0  0  0  0  0  0  0  0  0  0  0
  -30.5866  -16.9330   21.9327 C   0  0  0  0  0  0  0  0  0  0  0  0
  -22.8994  -13.4892   21.2613 C   0  0  0  0  0  0  0  0  0  0  0  0
  -22.8968  -20.1697   31.1371 C   0  0  0  0  0  0  0  0  0  0  0  0
  -22.2407  -22.7841   29.3326 C   0  0  0  0  0  0  0  0  0  0  0  0
  -22.9750  -24.6631   26.5800 C   0  0  0  0  0  0  0  0  0  0  0  0
  -30.7289  -14.7656   20.6566 C   0  0  0  0  0  0  0  0  0  0  0  0
  -20.0460  -19.5504   35.3260 C   0  0  0  0  0  0  0  0  0  0  0  0
  -25.1790  -21.2194   30.9236 C   0  0  0  0  0  0  0  0  0  0  0  0
  -23.7904  -21.0718   28.3169 C   0  0  0  0  0  0  0  0  0  0  0  0
  -19.8239  -20.1252   33.9294 C   0  0  0  0  0  0  0  0  0  0  0  0
  -29.6142  -12.3529   18.2873 C   0  0  0  0  0  0  0  0  0  0  0  0
  -20.3342  -19.1575   32.8665 C   0  0  0  0  0  0  0  0  0  0  0  0
  -28.1743  -12.0617   18.7164 C   0  0  0  0  0  0  0  0  0  0  0  0
  -30.5291  -12.5810   19.4893 C   0  0  0  0  0  0  0  0  0  0  0  0
  -28.6220  -13.3058   20.8702 C   0  0  0  0  0  0  0  0  0  0  0  0
  -21.8423  -18.9216   33.0136 C   0  0  1  0  0  0  0  0  0  0  0  0
  -23.6706  -21.4141   30.8050 C   0  0  1  0  0  0  0  0  0  0  0  0
  -27.6495  -13.1332   19.6921 C   0  0  2  0  0  0  0  0  0  0  0  0
  -22.2414  -26.7224   25.3476 C   0  0  0  0  0  0  0  0  0  0  0  0
  -19.8375  -21.2634   28.2272 C   0  0  0  0  0  0  0  0  0  0  0  0
  -19.7203  -22.9380   26.3697 C   0  0  0  0  0  0  0  0  0  0  0  0
  -19.4042  -23.6742   28.7321 C   0  0  0  0  0  0  0  0  0  0  0  0
  -26.1805  -15.7887   24.1216 C   0  0  0  0  0  0  0  0  0  0  0  0
  -25.6059  -25.9657   26.9549 C   0  0  0  0  0  0  0  0  0  0  0  0
  -28.5514  -16.6579   24.4501 C   0  0  0  0  0  0  0  0  0  0  0  0
  -28.5629  -17.6289   23.2654 C   0  0  0  0  0  0  0  0  0  0  0  0
  -26.5507  -17.7025   25.7013 C   0  0  0  0  0  0  0  0  0  1  0  0
  -21.7121  -23.0150   27.9375 C   0  0  1  0  0  0  0  0  0  0  0  0
  -23.1770  -26.1575   26.4051 C   0  0  2  0  0  0  0  0  0  0  0  0
  -20.1923  -22.7078   27.8213 C   0  0  0  0  0  0  0  0  0  0  0  0
  -27.1679  -16.4330   25.0976 C   0  0  1  0  0  0  0  0  0  0  0  0
  -25.8616  -11.5424   20.2871 N   0  0  0  0  0  0  0  0  0  0  0  0
  -29.9568  -17.8132   22.7176 N   0  0  0  0  0  0  0  0  0  0  0  0
  -26.2390  -12.8258   20.1590 N   0  0  0  0  0  0  0  0  0  0  0  0
  -31.7929  -17.4350   21.6497 N   0  3  0  0  0  0  0  0  0  0  0  0
  -23.2579  -21.8279   29.4624 N   0  0  0  0  0  0  0  0  0  0  0  0
  -29.9703  -13.6118   20.3668 N   0  0  0  0  0  0  0  0  0  0  0  0
  -30.3517  -19.9530   23.7287 N   0  0  0  0  0  0  0  0  0  0  0  0
  -25.4732  -15.0535   20.4071 N   0  0  0  0  0  0  0  0  0  0  0  0
  -21.8870  -12.5803   21.5982 N   0  0  0  0  0  0  0  0  0  0  0  0
  -30.0817  -15.6907   21.4751 N   0  0  0  0  0  0  0  0  0  0  0  0
  -22.5839  -20.0425   32.4771 N   0  0  0  0  0  0  0  0  0  0  0  0
  -22.0736  -24.3838   27.5853 N   0  0  0  0  0  0  0  0  0  0  0  0
  -24.5800  -26.4459   25.9937 N   0  3  0  0  0  0  0  0  0  0  0  0
  -22.6635  -14.7198   21.3188 O   0  0  0  0  0  0  0  0  0  0  0  0
  -22.6040  -19.3837   30.2437 O   0  0  0  0  0  0  0  0  0  0  0  0
  -21.7735  -23.4336   30.2715 O   0  0  0  0  0  0  0  0  0  0  0  0
  -23.5558  -23.8273   25.8910 O   0  0  0  0  0  0  0  0  0  0  0  0
  -31.8582  -14.9340   20.1893 O   0  0  0  0  0  0  0  0  0  0  0  0
  -27.3516  -15.4887   26.1634 O   0  0  0  0  0  0  0  0  0  0  0  0
  -21.6119   -7.0172   21.7055 O   0  0  0  0  0  0  0  0  0  0  0  0
  -27.4509  -18.2936   26.6375 O   0  0  0  0  0  0  0  0  0  1  0  0
  -18.6195   -6.8590   26.3341 F   0  0  0  0  0  0  0  0  0  0  0  0
  -22.0611   -5.0732   23.6190 F   0  0  0  0  0  0  0  0  0  0  0  0
  1  2  1  0  0  0  0
  1  5  2  0  0  0  0
  2  6  2  0  0  0  0
  3  8  2  0  0  0  0
  3 16  1  0  0  0  0
  4  9  1  0  0  0  0
  4 16  2  0  0  0  0
  5 18  1  0  0  0  0
  6 20  1  0  0  0  0
  7 10  2  0  0  0  0
  7 19  1  0  0  0  0
  8 22  1  0  0  0  0
  9 22  2  0  0  0  0
 10 23  1  0  0  0  0
 11 12  2  0  0  0  0
 11 24  1  0  0  0  0
 12 25  1  0  0  0  0
 13 21  1  0  0  0  0
 13 23  2  0  0  0  0
 14 25  2  0  0  0  0
 14 26  1  0  0  0  0
 15 28  2  0  0  0  0
 15 64  1  0  0  0  0
 16 27  1  0  0  0  0
 17 27  1  0  0  0  0
 17 29  2  0  0  0  0
 17 31  1  0  0  0  0
 18 20  2  0  0  0  0
 18 36  1  0  0  0  0
 19 21  2  0  0  0  0
 19 37  1  0  0  0  0
 20 45  1  0  0  0  0
 21 38  1  0  0  0  0
 22 80  1  0  0  0  0
 23 81  1  0  0  0  0
 24 26  2  0  0  0  0
 24 80  1  0  0  0  0
 25 82  1  0  0  0  0
 26 83  1  0  0  0  0
 27 61  2  0  0  0  0
 28 62  1  0  0  0  0
 28 67  1  0  0  0  0
 29 63  1  0  0  0  0
 29 68  1  0  0  0  0
 30 62  1  0  0  0  0
 30 64  2  0  0  0  0
 30 70  1  0  0  0  0
 31 69  1  0  0  0  0
 31 74  2  0  0  0  0
 32 46  1  0  0  0  0
 32 71  1  0  0  0  0
 32 75  2  0  0  0  0
 33 57  1  0  0  0  0
 33 65  1  0  0  0  0
 33 76  2  0  0  0  0
 34 58  1  0  0  0  0
 34 72  1  0  0  0  0
 34 77  2  0  0  0  0
 35 66  1  0  0  0  0
 35 70  1  0  0  0  0
 35 78  2  0  0  0  0
 36 39  1  0  0  0  0
 37 46  1  0  0  0  0
 38 65  1  0  0  0  0
 39 41  1  0  0  0  0
 40 42  1  0  0  0  0
 40 43  1  0  0  0  0
 41 45  1  0  0  0  0
 42 47  1  0  0  0  0
 43 66  1  0  0  0  0
 44 47  1  0  0  0  0
 44 66  1  0  0  0  0
 45 71  1  0  0  0  0
 46 65  1  0  0  0  0
 47 63  1  0  0  0  0
 48 58  1  0  0  0  0
 49 59  1  0  0  0  0
 50 59  1  0  0  0  0
 51 59  1  0  0  0  0
 52 60  1  0  0  0  0
 53 73  1  0  0  0  0
 54 55  1  0  0  0  0
 54 60  1  0  0  0  0
 55 62  1  0  0  0  0
 56 60  1  0  0  0  0
 56 81  1  0  0  0  0
 57 59  1  0  0  0  0
 57 72  1  0  0  0  0
 58 73  1  0  0  0  0
 60 79  1  0  0  0  0
 61 63  1  0  0  0  0
M  CHG  2  64   1  73   1
M  ISO  4  35 100  56 101  70 100  81 101
M  END
> <Batch ID>
0180

> <Smiles>
CNC(C)C(=O)NC(C(=O)N1Cc2cc([101O:1][101CH2:1]C(C)(O)CCn3c(N)cnc3[100NH:0][100C:0](=O)N3CCCC(n4nc(-c5ccc(Oc6ccc(F)cc6F)cc5)c(C(N)=O)c4N)C3)ccc2CC1C(=O)NC1CCCc2ccccc21)C(C)(C)C

> <Shape>
0.171

> <Color>
0.176

> <Negative vol penalty>
0.000

$$$$

  -OEChem-04052304503D

 91 99  0     1  0  0  0  0  0999 V2000
  -25.8712  -35.5127   15.7832 C   0  0  0  0  0  0  0  0  0  0  0  0
  -26.5966  -34.5064   16.4129 C   0  0  0  0  0  0  0  0  0  0  0  0
  -24.2780   -9.0894   21.4368 C   0  0  0  0  0  0  0  0  0  0  0  0
  -24.8507  -10.3090   23.4422 C   0  0  0  0  0  0  0  0  0  0  0  0
  -24.9163  -36.2342   16.4985 C   0  0  0  0  0  0  0  0  0  0  0  0
  -26.3683  -34.2218   17.7588 C   0  0  0  0  0  0  0  0  0  0  0  0
  -26.0639  -29.2493   18.6683 C   0  0  0  0  0  0  0  0  0  0  0  0
  -30.2797  -20.2852   20.5752 C   0  0  0  0  0  0  0  0  0  0  0  0
  -30.0866  -18.9635   20.1736 C   0  0  0  0  0  0  0  0  0  0  0  0
  -23.9843   -7.9632   22.2055 C   0  0  0  0  0  0  0  0  0  0  0  0
  -24.5569   -9.1827   24.2110 C   0  0  0  0  0  0  0  0  0  0  0  0
  -27.2618  -28.5386   18.7286 C   0  0  0  0  0  0  0  0  0  0  0  0
  -21.4395   -6.8629   24.1410 C   0  0  0  0  0  0  0  0  0  0  0  0
  -20.2666   -6.1667   23.8490 C   0  0  0  0  0  0  0  0  0  0  0  0
  -27.1756  -28.6094   21.1383 C   0  0  0  0  0  0  0  0  0  0  0  0
  -27.9100  -20.5051   20.9913 C   0  0  0  0  0  0  0  0  0  0  0  0
  -21.5618   -4.1820   23.3793 C   0  0  0  0  0  0  0  0  0  0  0  0
  -24.7113  -10.2623   22.0551 C   0  0  0  0  0  0  0  0  0  0  0  0
  -24.1306  -12.4553   20.8884 C   0  0  0  0  0  0  0  0  0  0  0  0
  -24.6695  -35.9517   17.8513 C   0  0  0  0  0  0  0  0  0  0  0  0
  -25.4174  -29.6556   19.8445 C   0  0  0  0  0  0  0  0  0  0  0  0
  -25.4103  -34.9410   18.4932 C   0  0  0  0  0  0  0  0  0  0  0  0
  -25.9683  -29.3230   21.0903 C   0  0  0  0  0  0  0  0  0  0  0  0
  -29.1914  -21.0560   20.9841 C   0  0  0  0  0  0  0  0  0  0  0  0
  -28.8052  -18.4125   20.1808 C   0  0  0  0  0  0  0  0  0  0  0  0
  -24.1237   -8.0098   23.5926 C   0  0  0  0  0  0  0  0  0  0  0  0
  -27.8193  -28.2210   19.9637 C   0  0  0  0  0  0  0  0  0  0  0  0
  -22.6735   -6.2187   24.0520 C   0  0  0  0  0  0  0  0  0  0  0  0
  -27.7169  -19.1833   20.5897 C   0  0  0  0  0  0  0  0  0  0  0  0
  -20.3278   -4.8262   23.4682 C   0  0  0  0  0  0  0  0  0  0  0  0
  -22.7346   -4.8782   23.6712 C   0  0  0  0  0  0  0  0  0  0  0  0
  -25.0154  -11.4259   21.2616 C   0  0  0  0  0  0  0  0  0  0  0  0
  -24.9002  -13.3170   20.1457 C   0  0  0  0  0  0  0  0  0  0  0  0
  -22.7377  -12.6181   21.1866 C   0  0  0  0  0  0  0  0  0  0  0  0
  -24.6313  -32.4599   21.1181 C   0  0  0  0  0  0  0  0  0  0  0  0
  -30.0686  -25.5036   20.8031 C   0  0  0  0  0  0  0  0  0  0  0  0
  -23.1313  -30.6021   23.3138 C   0  0  0  0  0  0  0  0  0  0  0  0
  -30.5865  -23.1003   21.4441 C   0  0  0  0  0  0  0  0  0  0  0  0
  -22.9006  -27.5772   24.8770 C   0  0  0  0  0  0  0  0  0  0  0  0
  -29.6073  -16.1789   19.3359 C   0  0  0  0  0  0  0  0  0  0  0  0
  -23.6608  -36.7903   18.5956 C   0  0  0  0  0  0  0  0  0  0  0  0
  -24.1121  -30.3985   19.7627 C   0  0  0  0  0  0  0  0  0  0  0  0
  -25.3032  -29.7183   22.3825 C   0  0  0  0  0  0  0  0  0  0  0  0
  -23.2149  -36.1745   19.9193 C   0  0  0  0  0  0  0  0  0  0  0  0
  -29.5723  -12.7809   18.2733 C   0  0  0  0  0  0  0  0  0  0  0  0
  -24.4212  -35.6805   20.7115 C   0  0  0  0  0  0  0  0  0  0  0  0
  -28.3109  -12.2101   18.9253 C   0  0  0  0  0  0  0  0  0  0  0  0
  -30.2732  -13.7898   19.1813 C   0  0  0  0  0  0  0  0  0  0  0  0
  -28.1567  -14.3034   20.3329 C   0  0  0  0  0  0  0  0  0  0  0  0
  -25.1739  -34.5861   19.9452 C   0  0  1  0  0  0  0  0  0  0  0  0
  -23.8057  -31.2084   21.0188 C   0  0  1  0  0  0  0  0  0  0  0  0
  -27.3808  -13.3309   19.4297 C   0  0  2  0  0  0  0  0  0  0  0  0
  -31.6055  -24.9774   22.7295 C   0  0  0  0  0  0  0  0  0  0  0  0
  -21.6014  -26.3721   26.6539 C   0  0  0  0  0  0  0  0  0  0  0  0
  -23.5335  -18.7100   23.0189 C   0  0  0  0  0  0  0  0  0  0  0  0
  -25.2131  -16.9063   22.5626 C   0  0  0  0  0  0  0  0  0  0  0  0
  -23.6899  -17.6975   20.7358 C   0  0  0  0  0  0  0  0  0  0  0  0
  -24.6726  -32.1191   25.4662 C   0  0  0  0  0  0  0  0  0  0  0  0
  -24.0845  -30.2936   27.0755 C   0  0  0  0  0  0  0  0  0  0  0  0
  -22.2792  -31.6582   26.0261 C   0  0  0  0  0  0  0  0  0  0  0  0
  -21.9259  -25.5505   22.9531 C   0  0  0  0  0  0  0  0  0  0  0  0
  -29.1851  -26.6848   21.1599 C   0  0  0  0  0  0  0  0  0  1  0  0
  -25.5527  -19.1845   21.5756 C   0  0  0  0  0  0  0  0  0  0  0  0
  -30.3778  -24.5297   21.9384 C   0  0  1  0  0  0  0  0  0  0  0  0
  -23.5266  -29.9643   24.6237 C   0  0  1  0  0  0  0  0  0  0  0  0
  -21.7095  -26.6825   25.1691 C   0  0  2  0  0  0  0  0  0  0  0  0
  -24.4983  -18.1311   21.9704 C   0  0  0  0  0  0  0  0  0  0  0  0
  -23.6545  -31.0029   25.7737 C   0  0  0  0  0  0  0  0  0  0  0  0
  -26.2523  -11.6145   20.7943 N   0  0  0  0  0  0  0  0  0  0  0  0
  -26.1503  -12.7724   20.1198 N   0  0  0  0  0  0  0  0  0  0  0  0
  -24.0318  -30.4488   22.2501 N   0  0  0  0  0  0  0  0  0  0  0  0
  -29.3318  -14.8239   19.6165 N   0  0  0  0  0  0  0  0  0  0  0  0
  -24.6227  -14.4799   19.5186 N   0  0  0  0  0  0  0  0  0  0  0  0
  -22.1017  -11.6395   21.9625 N   0  0  0  0  0  0  0  0  0  0  0  0
  -29.3876  -22.3973   21.3908 N   0  0  0  0  0  0  0  0  0  0  0  0
  -28.6249  -17.0688   19.7691 N   0  0  0  0  0  0  0  0  0  0  0  0
  -24.4748  -33.3233   20.0507 N   0  0  0  0  0  0  0  0  0  0  0  0
  -22.5496  -28.9107   24.8760 N   0  0  0  0  0  0  0  0  0  0  0  0
  -21.8341  -25.3957   24.4278 N   0  3  0  0  0  0  0  0  0  0  0  0
  -22.0727  -13.5940   20.7634 O   0  0  0  0  0  0  0  0  0  0  0  0
  -25.3555  -32.6302   22.0919 O   0  0  0  0  0  0  0  0  0  0  0  0
  -30.4938  -25.3369   19.6604 O   0  0  0  0  0  0  0  0  0  0  0  0
  -22.0595  -31.2076   23.2351 O   0  0  0  0  0  0  0  0  0  0  0  0
  -31.7058  -22.6854   21.1568 O   0  0  0  0  0  0  0  0  0  0  0  0
  -24.0301  -27.1374   24.6741 O   0  0  0  0  0  0  0  0  0  0  0  0
  -30.6257  -16.5221   18.7300 O   0  0  0  0  0  0  0  0  0  0  0  0
  -23.8369   -6.9111   24.3430 O   0  0  0  0  0  0  0  0  0  0  0  0
  -28.9888  -27.5279   20.0254 O   0  0  0  0  0  0  0  0  0  1  0  0
  -26.4562  -18.6649   20.6026 O   0  0  0  0  0  0  0  0  0  0  0  0
  -19.2013   -4.1573   23.1893 F   0  0  0  0  0  0  0  0  0  0  0  0
  -23.9172   -4.2537   23.5852 F   0  0  0  0  0  0  0  0  0  0  0  0
  1  2  1  0  0  0  0
  1  5  2  0  0  0  0
  2  6  2  0  0  0  0
  3 10  2  0  0  0  0
  3 18  1  0  0  0  0
  4 11  1  0  0  0  0
  4 18  2  0  0  0  0
  5 20  1  0  0  0  0
  6 22  1  0  0  0  0
  7 12  2  0  0  0  0
  7 21  1  0  0  0  0
  8  9  2  0  0  0  0
  8 24  1  0  0  0  0
  9 25  1  0  0  0  0
 10 26  1  0  0  0  0
 11 26  2  0  0  0  0
 12 27  1  0  0  0  0
 13 14  2  0  0  0  0
 13 28  1  0  0  0  0
 14 30  1  0  0  0  0
 15 23  1  0  0  0  0
 15 27  2  0  0  0  0
 16 24  2  0  0  0  0
 16 29  1  0  0  0  0
 17 30  2  0  0  0  0
 17 31  1  0  0  0  0
 18 32  1  0  0  0  0
 19 32  1  0  0  0  0
 19 33  2  0  0  0  0
 19 34  1  0  0  0  0
 20 22  2  0  0  0  0
 20 41  1  0  0  0  0
 21 23  2  0  0  0  0
 21 42  1  0  0  0  0
 22 50  1  0  0  0  0
 23 43  1  0  0  0  0
 24 75  1  0  0  0  0
 25 29  2  0  0  0  0
 25 76  1  0  0  0  0
 26 87  1  0  0  0  0
 27 88  1  0  0  0  0
 28 31  2  0  0  0  0
 28 87  1  0  0  0  0
 29 89  1  0  0  0  0
 30 90  1  0  0  0  0
 31 91  1  0  0  0  0
 32 69  2  0  0  0  0
 33 70  1  0  0  0  0
 33 73  1  0  0  0  0
 34 74  1  0  0  0  0
 34 80  2  0  0  0  0
 35 51  1  0  0  0  0
 35 77  1  0  0  0  0
 35 81  2  0  0  0  0
 36 62  1  0  0  0  0
 36 64  1  0  0  0  0
 36 82  2  0  0  0  0
 37 65  1  0  0  0  0
 37 71  1  0  0  0  0
 37 83  2  0  0  0  0
 38 64  1  0  0  0  0
 38 75  1  0  0  0  0
 38 84  2  0  0  0  0
 39 66  1  0  0  0  0
 39 78  1  0  0  0  0
 39 85  2  0  0  0  0
 40 72  1  0  0  0  0
 40 76  1  0  0  0  0
 40 86  2  0  0  0  0
 41 44  1  0  0  0  0
 42 51  1  0  0  0  0
 43 71  1  0  0  0  0
 44 46  1  0  0  0  0
 45 47  1  0  0  0  0
 45 48  1  0  0  0  0
 46 50  1  0  0  0  0
 47 52  1  0  0  0  0
 48 72  1  0  0  0  0
 49 52  1  0  0  0  0
 49 72  1  0  0  0  0
 50 77  1  0  0  0  0
 51 71  1  0  0  0  0
 52 70  1  0  0  0  0
 53 64  1  0  0  0  0
 54 66  1  0  0  0  0
 55 67  1  0  0  0  0
 56 67  1  0  0  0  0
 57 67  1  0  0  0  0
 58 68  1  0  0  0  0
 59 68  1  0  0  0  0
 60 68  1  0  0  0  0
 61 79  1  0  0  0  0
 62 88  1  0  0  0  0
 63 67  1  0  0  0  0
 63 89  1  0  0  0  0
 65 68  1  0  0  0  0
 65 78  1  0  0  0  0
 66 79  1  0  0  0  0
 69 70  1  0  0  0  0
M  CHG  1  79   1
M  ISO  4  40 100  62 101  76 100  88 101
M  END
> <Batch ID>
0180

> <Smiles>
CNC(C)C(=O)NC(C(=O)N1Cc2cc([101O:1][101CH2:1]C(=O)C(C)C(=O)Nc3ccc([100NH:0][100C:0](=O)N4CCCC(n5nc(-c6ccc(Oc7ccc(F)cc7F)cc6)c(C(N)=O)c5N)C4)c(OCC(C)(C)C)c3)ccc2CC1C(=O)NC1CCCc2ccccc21)C(C)(C)C

> <Shape>
0.280

> <Color>
0.126

> <Negative vol penalty>
0.000

$$$$

  -OEChem-04052304503D

 86 94  0     1  0  0  0  0  0999 V2000
  -25.3555  -22.1530   20.7089 C   0  0  0  0  0  0  0  0  0  0  0  0
  -26.4700  -21.3636   20.4443 C   0  0  0  0  0  0  0  0  0  0  0  0
  -23.1885   -9.8193   19.9334 C   0  0  0  0  0  0  0  0  0  0  0  0
  -23.5685  -10.0011   22.3124 C   0  0  0  0  0  0  0  0  0  0  0  0
  -25.5166  -23.5020   21.0221 C   0  0  0  0  0  0  0  0  0  0  0  0
  -27.7464  -21.9232   20.4916 C   0  0  0  0  0  0  0  0  0  0  0  0
  -31.0618  -18.9938   22.9556 C   0  0  0  0  0  0  0  0  0  0  0  0
  -22.4218   -8.6731   20.1434 C   0  0  0  0  0  0  0  0  0  0  0  0
  -22.8018   -8.8549   22.5224 C   0  0  0  0  0  0  0  0  0  0  0  0
  -31.5764  -17.8962   22.2669 C   0  0  0  0  0  0  0  0  0  0  0  0
  -23.2012   -5.5078   22.2602 C   0  0  0  0  0  0  0  0  0  0  0  0
  -23.6998   -4.5468   23.1397 C   0  0  0  0  0  0  0  0  0  0  0  0
  -33.5884  -19.1415   21.7976 C   0  0  0  0  0  0  0  0  0  0  0  0
  -21.7443   -4.8085   24.5342 C   0  0  0  0  0  0  0  0  0  0  0  0
  -30.6812  -13.0227   25.2807 C   0  0  0  0  0  0  0  0  0  0  0  0
  -23.7618  -10.4833   21.0180 C   0  0  0  0  0  0  0  0  0  0  0  0
  -24.1015  -12.9996   20.7724 C   0  0  0  0  0  0  0  0  0  0  0  0
  -26.7961  -24.0761   21.0827 C   0  0  0  0  0  0  0  0  0  0  0  0
  -31.8034  -20.1792   23.0613 C   0  0  0  0  0  0  0  0  0  0  0  0
  -27.9247  -23.2815   20.8045 C   0  0  0  0  0  0  0  0  0  0  0  0
  -33.0820  -20.2519   22.4903 C   0  0  0  0  0  0  0  0  0  0  0  0
  -22.2285   -8.1909   21.4379 C   0  0  0  0  0  0  0  0  0  0  0  0
  -32.8386  -17.9709   21.6853 C   0  0  0  0  0  0  0  0  0  0  0  0
  -21.9742   -6.1193   22.5177 C   0  0  0  0  0  0  0  0  0  0  0  0
  -22.9713   -4.1972   24.2766 C   0  0  0  0  0  0  0  0  0  0  0  0
  -21.2457   -5.7696   23.6547 C   0  0  0  0  0  0  0  0  0  0  0  0
  -24.5543  -11.6670   20.8016 C   0  0  0  0  0  0  0  0  0  0  0  0
  -31.3214  -13.0772   24.0622 C   0  0  0  0  0  0  0  0  0  0  0  0
  -33.2651  -13.6719   25.1103 C   0  0  0  0  0  0  0  0  0  0  0  0
  -32.6245  -13.6181   26.3286 C   0  0  0  0  0  0  0  0  0  0  0  0
  -25.2328  -13.7416   20.5359 C   0  0  0  0  0  0  0  0  0  0  0  0
  -22.7766  -13.5202   20.9438 C   0  0  0  0  0  0  0  0  0  0  0  0
  -31.3803  -23.1822   22.1091 C   0  0  0  0  0  0  0  0  0  0  0  0
  -35.0616  -15.4175   23.1656 C   0  0  0  0  0  0  0  0  0  0  0  0
  -34.0901  -23.6946   23.8168 C   0  0  0  0  0  0  0  0  0  0  0  0
  -36.9648  -22.4184   25.1413 C   0  0  0  0  0  0  0  0  0  0  0  0
  -31.0376  -12.7792   21.5769 C   0  0  0  0  0  0  0  0  0  0  0  0
  -26.9172  -25.5499   21.3790 C   0  0  0  0  0  0  0  0  0  0  0  0
  -31.2453  -21.3451   23.8304 C   0  0  0  0  0  0  0  0  0  0  0  0
  -33.9268  -21.4946   22.5926 C   0  0  0  0  0  0  0  0  0  0  0  0
  -28.3279  -25.9775   21.7757 C   0  0  0  0  0  0  0  0  0  0  0  0
  -29.5233  -13.4594   18.4271 C   0  0  0  0  0  0  0  0  0  0  0  0
  -29.3557  -25.3785   20.8209 C   0  0  0  0  0  0  0  0  0  0  0  0
  -28.0352  -13.2041   18.6775 C   0  0  0  0  0  0  0  0  0  0  0  0
  -30.4045  -12.4745   19.1933 C   0  0  0  0  0  0  0  0  0  0  0  0
  -28.6457  -12.1349   20.8846 C   0  0  0  0  0  0  0  0  0  0  0  0
  -29.3272  -23.8461   20.8702 C   0  0  1  0  0  0  0  0  0  0  0  0
  -31.8743  -22.6777   23.4354 C   0  0  1  0  0  0  0  0  0  0  0  0
  -27.7198  -13.1433   20.1850 C   0  0  2  0  0  0  0  0  0  0  0  0
  -36.8638  -14.0231   24.2038 C   0  0  0  0  0  0  0  0  0  0  0  0
  -38.9971  -23.0887   26.4520 C   0  0  0  0  0  0  0  0  0  0  0  0
  -35.2582  -16.8392   19.5756 C   0  0  0  0  0  0  0  0  0  0  0  0
  -35.2681  -24.9951   21.3206 C   0  0  0  0  0  0  0  0  0  0  0  0
  -37.5348  -24.7762   22.3611 C   0  0  0  0  0  0  0  0  0  0  0  0
  -35.7904  -26.1806   23.4599 C   0  0  0  0  0  0  0  0  0  0  0  0
  -36.2902  -20.5713   27.3532 C   0  0  0  0  0  0  0  0  0  0  0  0
  -35.1283  -15.3987   21.6419 C   0  0  0  0  0  0  0  0  0  0  0  0
  -35.3844  -14.1035   23.8661 C   0  0  1  0  0  0  0  0  0  0  0  0
  -35.5682  -23.6626   23.5116 C   0  0  1  0  0  0  0  0  0  0  0  0
  -37.5792  -22.5435   26.5238 C   0  0  2  0  0  0  0  0  0  0  0  0
  -34.7613  -16.7436   21.0121 C   0  0  2  0  0  0  0  0  0  1  0  0
  -36.0239  -24.8807   22.6595 C   0  0  0  0  0  0  0  0  0  0  0  0
  -31.3212  -13.2922   26.4357 N   0  0  0  0  0  0  0  0  0  0  0  0
  -25.8707  -11.5652   20.5997 N   0  0  0  0  0  0  0  0  0  0  0  0
  -32.6249  -13.4027   23.9552 N   0  0  0  0  0  0  0  0  0  0  0  0
  -26.2547  -12.8433   20.4411 N   0  0  0  0  0  0  0  0  0  0  0  0
  -33.3345  -22.6100   23.3494 N   0  0  0  0  0  0  0  0  0  0  0  0
  -30.0517  -12.4741   20.6147 N   0  0  0  0  0  0  0  0  0  0  0  0
  -25.4432  -15.0683   20.4016 N   0  0  0  0  0  0  0  0  0  0  0  0
  -21.7297  -12.6186   21.1791 N   0  0  0  0  0  0  0  0  0  0  0  0
  -30.5777  -12.7800   22.8934 N   0  0  0  0  0  0  0  0  0  0  0  0
  -34.6060  -14.0140   25.0821 N   0  0  0  0  0  0  0  0  0  0  0  0
  -30.0119  -23.3656   22.0512 N   0  0  0  0  0  0  0  0  0  0  0  0
  -36.2480  -23.5449   24.7971 N   0  0  0  0  0  0  0  0  0  0  0  0
  -37.6205  -21.2133   27.1946 N   0  3  0  0  0  0  0  0  0  0  0  0
  -22.5259  -14.7473   20.8735 O   0  0  0  0  0  0  0  0  0  0  0  0
  -32.1814  -23.3911   21.2056 O   0  0  0  0  0  0  0  0  0  0  0  0
  -34.7823  -16.4378   23.7957 O   0  0  0  0  0  0  0  0  0  0  0  0
  -33.6243  -24.6433   24.4529 O   0  0  0  0  0  0  0  0  0  0  0  0
  -37.1096  -21.4226   24.4357 O   0  0  0  0  0  0  0  0  0  0  0  0
  -32.1975  -13.0485   21.2546 O   0  0  0  0  0  0  0  0  0  0  0  0
  -21.4802   -7.0726   21.6432 O   0  0  0  0  0  0  0  0  0  0  0  0
  -33.3430  -16.9013   21.0120 O   0  0  0  0  0  0  0  0  0  1  0  0
  -23.4494   -3.2732   25.1203 F   0  0  0  0  0  0  0  0  0  0  0  0
  -20.0658   -6.3527   23.9068 F   0  0  0  0  0  0  0  0  0  0  0  0
  -33.2955  -13.8932   27.4574 F   0  0  0  0  0  0  0  0  0  0  0  0
  1  2  1  0  0  0  0
  1  5  2  0  0  0  0
  2  6  2  0  0  0  0
  3  8  2  0  0  0  0
  3 16  1  0  0  0  0
  4  9  1  0  0  0  0
  4 16  2  0  0  0  0
  5 18  1  0  0  0  0
  6 20  1  0  0  0  0
  7 10  2  0  0  0  0
  7 19  1  0  0  0  0
  8 22  1  0  0  0  0
  9 22  2  0  0  0  0
 10 23  1  0  0  0  0
 11 12  2  0  0  0  0
 11 24  1  0  0  0  0
 12 25  1  0  0  0  0
 13 21  1  0  0  0  0
 13 23  2  0  0  0  0
 14 25  2  0  0  0  0
 14 26  1  0  0  0  0
 15 28  1  0  0  0  0
 15 63  2  0  0  0  0
 16 27  1  0  0  0  0
 17 27  1  0  0  0  0
 17 31  2  0  0  0  0
 17 32  1  0  0  0  0
 18 20  2  0  0  0  0
 18 38  1  0  0  0  0
 19 21  2  0  0  0  0
 19 39  1  0  0  0  0
 20 47  1  0  0  0  0
 21 40  1  0  0  0  0
 22 82  1  0  0  0  0
 23 83  1  0  0  0  0
 24 26  2  0  0  0  0
 24 82  1  0  0  0  0
 25 84  1  0  0  0  0
 26 85  1  0  0  0  0
 27 64  2  0  0  0  0
 28 65  2  0  0  0  0
 28 71  1  0  0  0  0
 29 30  2  0  0  0  0
 29 65  1  0  0  0  0
 29 72  1  0  0  0  0
 30 63  1  0  0  0  0
 30 86  1  0  0  0  0
 31 66  1  0  0  0  0
 31 69  1  0  0  0  0
 32 70  1  0  0  0  0
 32 76  2  0  0  0  0
 33 48  1  0  0  0  0
 33 73  1  0  0  0  0
 33 77  2  0  0  0  0
 34 57  1  0  0  0  0
 34 58  1  0  0  0  0
 34 78  2  0  0  0  0
 35 59  1  0  0  0  0
 35 67  1  0  0  0  0
 35 79  2  0  0  0  0
 36 60  1  0  0  0  0
 36 74  1  0  0  0  0
 36 80  2  0  0  0  0
 37 68  1  0  0  0  0
 37 71  1  0  0  0  0
 37 81  2  0  0  0  0
 38 41  1  0  0  0  0
 39 48  1  0  0  0  0
 40 67  1  0  0  0  0
 41 43  1  0  0  0  0
 42 44  1  0  0  0  0
 42 45  1  0  0  0  0
 43 47  1  0  0  0  0
 44 49  1  0  0  0  0
 45 68  1  0  0  0  0
 46 49  1  0  0  0  0
 46 68  1  0  0  0  0
 47 73  1  0  0  0  0
 48 67  1  0  0  0  0
 49 66  1  0  0  0  0
 50 58  1  0  0  0  0
 51 60  1  0  0  0  0
 52 61  1  0  0  0  0
 53 62  1  0  0  0  0
 54 62  1  0  0  0  0
 55 62  1  0  0  0  0
 56 75  1  0  0  0  0
 57 61  1  0  0  0  0
 58 72  1  0  0  0  0
 59 62  1  0  0  0  0
 59 74  1  0  0  0  0
 60 75  1  0  0  0  0
 61 83  1  0  0  0  0
 64 66  1  0  0  0  0
M  CHG  1  75   1
M  ISO  4  37 100  61 101  71 100  83 101
M  END
> <Batch ID>
0180

> <Smiles>
CNC(C)C(=O)NC(C(=O)N1Cc2cc([101O:1][101CH:1](C)CC(=O)C(C)Nc3nc([100NH:0][100C:0](=O)N4CCCC(n5nc(-c6ccc(Oc7ccc(F)cc7F)cc6)c(C(N)=O)c5N)C4)cnc3F)ccc2CC1C(=O)NC1CCCc2ccccc21)C(C)(C)C

> <Shape>
0.172

> <Color>
0.175

> <Negative vol penalty>
0.000

$$$$

  -OEChem-04052304503D

 88 96  0     1  0  0  0  0  0999 V2000
  -16.8806  -13.2322   21.6258 C   0  0  0  0  0  0  0  0  0  0  0  0
  -17.7324  -14.3305   21.6849 C   0  0  0  0  0  0  0  0  0  0  0  0
  -29.2887  -25.4852   20.9695 C   0  0  0  0  0  0  0  0  0  0  0  0
  -27.4161  -24.0779   21.5611 C   0  0  0  0  0  0  0  0  0  0  0  0
  -17.3493  -11.9680   21.9809 C   0  0  0  0  0  0  0  0  0  0  0  0
  -19.0533  -14.1654   22.1002 C   0  0  0  0  0  0  0  0  0  0  0  0
  -22.3403  -16.6507   19.1568 C   0  0  0  0  0  0  0  0  0  0  0  0
  -30.1458  -24.6418   21.6763 C   0  0  0  0  0  0  0  0  0  0  0  0
  -28.2732  -23.2344   22.2678 C   0  0  0  0  0  0  0  0  0  0  0  0
  -22.4578  -18.0259   19.3537 C   0  0  0  0  0  0  0  0  0  0  0  0
  -30.0216  -20.5126   23.9269 C   0  0  0  0  0  0  0  0  0  0  0  0
  -29.8717  -19.1373   23.7490 C   0  0  0  0  0  0  0  0  0  0  0  0
  -24.4600  -17.6631   20.6494 C   0  0  0  0  0  0  0  0  0  0  0  0
  -30.3284  -19.3927   21.3903 C   0  0  0  0  0  0  0  0  0  0  0  0
  -17.6989  -28.0819   23.4096 C   0  0  0  0  0  0  0  0  0  0  0  0
  -27.9238  -25.2033   20.9119 C   0  0  0  0  0  0  0  0  0  0  0  0
  -26.6800  -25.9793   18.8242 C   0  0  0  0  0  0  0  0  0  0  0  0
  -18.6793  -11.7858   22.3915 C   0  0  0  0  0  0  0  0  0  0  0  0
  -23.2772  -15.7691   19.7148 C   0  0  0  0  0  0  0  0  0  0  0  0
  -19.5399  -12.8979   22.4625 C   0  0  0  0  0  0  0  0  0  0  0  0
  -24.3536  -16.2774   20.4560 C   0  0  0  0  0  0  0  0  0  0  0  0
  -19.8807  -27.2804   22.7919 C   0  0  0  0  0  0  0  0  0  0  0  0
  -29.6381  -23.5164   22.3254 C   0  0  0  0  0  0  0  0  0  0  0  0
  -23.5162  -18.5321   20.1025 C   0  0  0  0  0  0  0  0  0  0  0  0
  -30.3249  -21.3280   22.8366 C   0  0  0  0  0  0  0  0  0  0  0  0
  -30.0251  -18.5773   22.4807 C   0  0  0  0  0  0  0  0  0  0  0  0
  -30.4783  -20.7680   21.5683 C   0  0  0  0  0  0  0  0  0  0  0  0
  -18.5595  -27.0235   23.1408 C   0  0  0  0  0  0  0  0  0  0  0  0
  -27.0377  -26.0745   20.1825 C   0  0  0  0  0  0  0  0  0  0  0  0
  -20.2887  -28.6029   22.7262 C   0  0  0  0  0  0  0  0  0  0  0  0
  -18.2046  -29.3685   23.3165 C   0  0  0  0  0  0  0  0  0  0  0  0
  -25.8227  -27.0329   18.6204 C   0  0  0  0  0  0  0  0  0  0  0  0
  -27.0861  -25.0239   17.8353 C   0  0  0  0  0  0  0  0  0  0  0  0
  -21.6185  -24.0811   21.8410 C   0  0  0  0  0  0  0  0  0  0  0  0
  -20.4218  -24.9747   21.9961 C   0  0  0  0  0  0  0  0  0  0  0  0
  -23.1455  -13.3993   21.8291 C   0  0  0  0  0  0  0  0  0  0  0  0
  -26.2550  -13.0028   20.9948 C   0  0  0  0  0  0  0  0  0  0  0  0
  -29.1106  -14.3719   19.7228 C   0  0  0  0  0  0  0  0  0  0  0  0
  -22.2313  -30.1350   22.2513 C   0  0  0  0  0  0  0  0  0  0  0  0
  -19.1272  -10.4080   22.8108 C   0  0  0  0  0  0  0  0  0  0  0  0
  -23.1513  -14.2903   19.4707 C   0  0  0  0  0  0  0  0  0  0  0  0
  -25.3975  -15.3747   21.0593 C   0  0  0  0  0  0  0  0  0  0  0  0
  -20.6445  -10.2561   22.8815 C   0  0  0  0  0  0  0  0  0  0  0  0
  -24.8553  -31.4388   20.2285 C   0  0  0  0  0  0  0  0  0  0  0  0
  -21.2656  -11.4383   23.6188 C   0  0  0  0  0  0  0  0  0  0  0  0
  -25.6767  -30.2017   19.8585 C   0  0  0  0  0  0  0  0  0  0  0  0
  -24.3128  -31.3538   21.6541 C   0  0  0  0  0  0  0  0  0  0  0  0
  -24.3841  -28.8921   21.5910 C   0  0  0  0  0  0  0  0  0  0  0  0
  -20.9862  -12.7551   22.8842 C   0  0  1  0  0  0  0  0  0  0  0  0
  -23.8754  -13.4482   20.5167 C   0  0  1  0  0  0  0  0  0  0  0  0
  -24.8975  -28.9024   20.1418 C   0  0  2  0  0  0  0  0  0  0  0  0
  -31.5000  -13.8117   19.1990 C   0  0  0  0  0  0  0  0  0  0  0  0
  -26.9428  -13.1719   23.9627 C   0  0  0  0  0  0  0  0  0  0  0  0
  -29.3297  -13.5623   23.3159 C   0  0  0  0  0  0  0  0  0  0  0  0
  -28.2056  -11.4231   22.6972 C   0  0  0  0  0  0  0  0  0  0  0  0
  -28.7313  -14.9310   16.8415 C   0  0  0  0  0  0  0  0  0  0  0  0
  -21.3530  -22.6881   21.3117 C   0  0  0  0  0  0  0  0  0  0  0  0
  -22.4253  -20.6337   20.3239 C   0  0  0  0  0  0  0  0  0  1  0  0
  -27.5724  -13.5511   21.4877 C   0  0  1  0  0  0  0  0  0  0  0  0
  -30.0785  -13.8787   18.6625 C   0  0  2  0  0  0  0  0  0  0  0  0
  -22.6287  -21.8516   21.2201 C   0  0  2  0  0  0  0  0  0  0  0  0
  -27.9920  -12.9443   22.8563 C   0  0  0  0  0  0  0  0  0  0  0  0
  -26.4555  -27.1070   20.7979 N   0  0  0  0  0  0  0  0  0  0  0  0
  -19.4818  -29.6574   22.9804 N   0  0  0  0  0  0  0  0  0  0  0  0
  -25.7233  -27.6704   19.8220 N   0  0  0  0  0  0  0  0  0  0  0  0
  -25.2272  -13.9359   20.7979 N   0  0  0  0  0  0  0  0  0  0  0  0
  -23.5828  -30.0991   21.8477 N   0  0  0  0  0  0  0  0  0  0  0  0
  -25.1518  -27.4669   17.5323 N   0  0  0  0  0  0  0  0  0  0  0  0
  -27.9718  -24.0058   18.2140 N   0  0  0  0  0  0  0  0  0  0  0  0
  -20.7578  -26.2053   22.5179 N   0  0  0  0  0  0  0  0  0  0  0  0
  -21.6319  -28.8816   22.3713 N   0  0  0  0  0  0  0  0  0  0  0  0
  -21.8631  -12.8921   21.7411 N   0  0  0  0  0  0  0  0  0  0  0  0
  -28.5348  -13.3271   20.4144 N   0  0  0  0  0  0  0  0  0  0  0  0
  -30.0636  -14.7900   17.4834 N   0  3  0  0  0  0  0  0  0  0  0  0
  -26.6887  -25.0813   16.6469 O   0  0  0  0  0  0  0  0  0  0  0  0
  -22.7051  -24.5413   22.1576 O   0  0  0  0  0  0  0  0  0  0  0  0
  -19.3432  -24.5032   21.6765 O   0  0  0  0  0  0  0  0  0  0  0  0
  -23.7048  -13.7913   22.8466 O   0  0  0  0  0  0  0  0  0  0  0  0
  -26.1442  -11.7923   20.7854 O   0  0  0  0  0  0  0  0  0  0  0  0
  -28.8903  -15.5647   19.9205 O   0  0  0  0  0  0  0  0  0  0  0  0
  -21.6408  -31.2002   22.4478 O   0  0  0  0  0  0  0  0  0  0  0  0
  -22.9606  -21.3980   22.5341 O   0  0  0  0  0  0  0  0  0  0  0  0
  -30.4743  -22.6931   23.0150 O   0  0  0  0  0  0  0  0  0  0  0  0
  -23.6329  -19.8739   20.2968 O   0  0  0  0  0  0  0  0  0  1  0  0
  -29.8825  -17.2564   22.3102 F   0  0  0  0  0  0  0  0  0  0  0  0
  -30.7709  -21.5461   20.5172 F   0  0  0  0  0  0  0  0  0  0  0  0
  -18.1054  -25.7647   23.2203 F   0  0  0  0  0  0  0  0  0  0  0  0
  -17.3845  -30.3992   23.5732 F   0  0  0  0  0  0  0  0  0  0  0  0
  1  2  1  0  0  0  0
  1  5  2  0  0  0  0
  2  6  2  0  0  0  0
  3  8  2  0  0  0  0
  3 16  1  0  0  0  0
  4  9  1  0  0  0  0
  4 16  2  0  0  0  0
  5 18  1  0  0  0  0
  6 20  1  0  0  0  0
  7 10  2  0  0  0  0
  7 19  1  0  0  0  0
  8 23  1  0  0  0  0
  9 23  2  0  0  0  0
 10 24  1  0  0  0  0
 11 12  2  0  0  0  0
 11 25  1  0  0  0  0
 12 26  1  0  0  0  0
 13 21  1  0  0  0  0
 13 24  2  0  0  0  0
 14 26  2  0  0  0  0
 14 27  1  0  0  0  0
 15 28  2  0  0  0  0
 15 31  1  0  0  0  0
 16 29  1  0  0  0  0
 17 29  1  0  0  0  0
 17 32  2  0  0  0  0
 17 33  1  0  0  0  0
 18 20  2  0  0  0  0
 18 40  1  0  0  0  0
 19 21  2  0  0  0  0
 19 41  1  0  0  0  0
 20 49  1  0  0  0  0
 21 42  1  0  0  0  0
 22 28  1  0  0  0  0
 22 30  2  0  0  0  0
 22 70  1  0  0  0  0
 23 83  1  0  0  0  0
 24 84  1  0  0  0  0
 25 27  2  0  0  0  0
 25 83  1  0  0  0  0
 26 85  1  0  0  0  0
 27 86  1  0  0  0  0
 28 87  1  0  0  0  0
 29 63  2  0  0  0  0
 30 64  1  0  0  0  0
 30 71  1  0  0  0  0
 31 64  2  0  0  0  0
 31 88  1  0  0  0  0
 32 65  1  0  0  0  0
 32 68  1  0  0  0  0
 33 69  1  0  0  0  0
 33 75  2  0  0  0  0
 34 35  1  0  0  0  0
 34 57  1  0  0  0  0
 34 76  2  0  0  0  0
 35 70  1  0  0  0  0
 35 77  2  0  0  0  0
 36 50  1  0  0  0  0
 36 72  1  0  0  0  0
 36 78  2  0  0  0  0
 37 59  1  0  0  0  0
 37 66  1  0  0  0  0
 37 79  2  0  0  0  0
 38 60  1  0  0  0  0
 38 73  1  0  0  0  0
 38 80  2  0  0  0  0
 39 67  1  0  0  0  0
 39 71  1  0  0  0  0
 39 81  2  0  0  0  0
 40 43  1  0  0  0  0
 41 50  1  0  0  0  0
 42 66  1  0  0  0  0
 43 45  1  0  0  0  0
 44 46  1  0  0  0  0
 44 47  1  0  0  0  0
 45 49  1  0  0  0  0
 46 51  1  0  0  0  0
 47 67  1  0  0  0  0
 48 51  1  0  0  0  0
 48 67  1  0  0  0  0
 49 72  1  0  0  0  0
 50 66  1  0  0  0  0
 51 65  1  0  0  0  0
 52 60  1  0  0  0  0
 53 62  1  0  0  0  0
 54 62  1  0  0  0  0
 55 62  1  0  0  0  0
 56 74  1  0  0  0  0
 57 61  1  0  0  0  0
 58 61  1  0  0  0  0
 58 84  1  0  0  0  0
 59 62  1  0  0  0  0
 59 73  1  0  0  0  0
 60 74  1  0  0  0  0
 61 82  1  0  0  0  0
 63 65  1  0  0  0  0
M  CHG  1  74   1
M  ISO  4  39 100  58 101  71 100  84 101
M  END
> <Batch ID>
0180

> <Smiles>
CNC(C)C(=O)NC(C(=O)N1Cc2cc([101O:1][101CH2:1]C(O)CC(=O)C(=O)Nc3c(F)cc(F)nc3[100NH:0][100C:0](=O)N3CCCC(n4nc(-c5ccc(Oc6ccc(F)cc6F)cc5)c(C(N)=O)c4N)C3)ccc2CC1C(=O)NC1CCCc2ccccc21)C(C)(C)C

> <Shape>
0.239

> <Color>
0.074

> <Negative vol penalty>
0.000

$$$$

  -OEChem-04052304503D

 82 90  0     1  0  0  0  0  0999 V2000
  -29.9913  -31.6479   24.4571 C   0  0  0  0  0  0  0  0  0  0  0  0
  -29.7876  -30.2931   24.2155 C   0  0  0  0  0  0  0  0  0  0  0  0
  -22.9829  -10.0004   19.9495 C   0  0  0  0  0  0  0  0  0  0  0  0
  -23.7849   -9.9173   22.2269 C   0  0  0  0  0  0  0  0  0  0  0  0
  -28.9186  -32.5359   24.3896 C   0  0  0  0  0  0  0  0  0  0  0  0
  -28.5106  -29.8253   23.9072 C   0  0  0  0  0  0  0  0  0  0  0  0
  -28.5194  -26.5616   20.0351 C   0  0  0  0  0  0  0  0  0  0  0  0
  -22.2160   -8.8579   20.1779 C   0  0  0  0  0  0  0  0  0  0  0  0
  -23.0180   -8.7748   22.4554 C   0  0  0  0  0  0  0  0  0  0  0  0
  -28.9250  -25.2552   20.3044 C   0  0  0  0  0  0  0  0  0  0  0  0
  -23.2178   -5.4660   21.7900 C   0  0  0  0  0  0  0  0  0  0  0  0
  -23.8214   -4.4044   22.4640 C   0  0  0  0  0  0  0  0  0  0  0  0
  -26.6158  -24.5642   20.3998 C   0  0  0  0  0  0  0  0  0  0  0  0
  -22.1565   -4.5646   24.2074 C   0  0  0  0  0  0  0  0  0  0  0  0
  -31.9570  -17.3947   21.7522 C   0  0  0  0  0  0  0  0  0  0  0  0
  -30.0833  -17.7128   22.8582 C   0  0  0  0  0  0  0  0  0  0  0  0
  -23.7674  -10.5301   20.9740 C   0  0  0  0  0  0  0  0  0  0  0  0
  -24.1682  -13.0489   20.9256 C   0  0  0  0  0  0  0  0  0  0  0  0
  -27.6296  -32.0802   24.0709 C   0  0  0  0  0  0  0  0  0  0  0  0
  -27.1564  -26.8818   19.9568 C   0  0  0  0  0  0  0  0  0  0  0  0
  -27.4194  -30.7079   23.8367 C   0  0  0  0  0  0  0  0  0  0  0  0
  -26.1955  -25.8749   20.1268 C   0  0  0  0  0  0  0  0  0  0  0  0
  -30.6969  -16.8227   22.0110 C   0  0  0  0  0  0  0  0  0  0  0  0
  -22.2335   -8.2451   21.4308 C   0  0  0  0  0  0  0  0  0  0  0  0
  -27.9732  -24.2569   20.4897 C   0  0  0  0  0  0  0  0  0  0  0  0
  -22.0836   -6.0771   22.3248 C   0  0  0  0  0  0  0  0  0  0  0  0
  -23.2907   -3.9537   23.6726 C   0  0  0  0  0  0  0  0  0  0  0  0
  -21.5529   -5.6263   23.5334 C   0  0  0  0  0  0  0  0  0  0  0  0
  -24.5603  -11.7099   20.7385 C   0  0  0  0  0  0  0  0  0  0  0  0
  -25.2714  -13.7833   20.5648 C   0  0  0  0  0  0  0  0  0  0  0  0
  -22.9186  -13.5813   21.3846 C   0  0  0  0  0  0  0  0  0  0  0  0
  -25.2056  -28.7979   21.5775 C   0  0  0  0  0  0  0  0  0  0  0  0
  -29.5778  -21.5382   22.2770 C   0  0  0  0  0  0  0  0  0  0  0  0
  -23.0807  -27.9290   19.2857 C   0  0  0  0  0  0  0  0  0  0  0  0
  -22.1213  -25.6416   16.9418 C   0  0  0  0  0  0  0  0  0  0  0  0
  -30.7636  -14.6933   20.6667 C   0  0  0  0  0  0  0  0  0  0  0  0
  -26.4925  -33.0709   24.0561 C   0  0  0  0  0  0  0  0  0  0  0  0
  -26.7356  -28.2905   19.6390 C   0  0  0  0  0  0  0  0  0  0  0  0
  -24.7201  -26.1627   20.0327 C   0  0  0  0  0  0  0  0  0  0  0  0
  -25.2403  -32.5503   23.3553 C   0  0  0  0  0  0  0  0  0  0  0  0
  -29.5475  -12.3818   18.2469 C   0  0  0  0  0  0  0  0  0  0  0  0
  -24.9167  -31.1346   23.8222 C   0  0  0  0  0  0  0  0  0  0  0  0
  -28.1093  -12.1111   18.6948 C   0  0  0  0  0  0  0  0  0  0  0  0
  -30.4899  -12.5512   19.4372 C   0  0  0  0  0  0  0  0  0  0  0  0
  -28.6268  -13.2770   20.8765 C   0  0  0  0  0  0  0  0  0  0  0  0
  -26.0535  -30.1658   23.4750 C   0  0  1  0  0  0  0  0  0  0  0  0
  -25.3130  -28.6055   20.0912 C   0  0  1  0  0  0  0  0  0  0  0  0
  -27.6285  -13.1638   19.7128 C   0  0  2  0  0  0  0  0  0  0  0  0
  -20.3215  -25.1882   15.2528 C   0  0  0  0  0  0  0  0  0  0  0  0
  -31.7864  -19.9812   25.0638 C   0  0  0  0  0  0  0  0  0  0  0  0
  -21.1820  -27.1151   21.5312 C   0  0  0  0  0  0  0  0  0  0  0  0
  -19.8526  -25.8266   19.8457 C   0  0  0  0  0  0  0  0  0  0  0  0
  -20.0891  -28.2995   19.6188 C   0  0  0  0  0  0  0  0  0  0  0  0
  -24.0565  -25.6607   14.7027 C   0  0  0  0  0  0  0  0  0  0  0  0
  -30.8481  -21.2432   23.0635 C   0  0  0  0  0  0  0  0  0  0  0  0
  -29.5970  -22.8128   21.4560 C   0  0  0  0  0  0  0  0  0  1  0  0
  -22.0752  -26.8142   19.1275 C   0  0  1  0  0  0  0  0  0  0  0  0
  -21.6918  -25.8018   15.4946 C   0  0  2  0  0  0  0  0  0  0  0  0
  -30.7740  -19.9597   23.9112 C   0  0  1  0  0  0  0  0  0  0  0  0
  -20.8274  -27.0085   20.0345 C   0  0  0  0  0  0  0  0  0  0  0  0
  -32.1346  -18.5582   22.3837 N   0  0  0  0  0  0  0  0  0  0  0  0
  -25.8146  -11.5973   20.2932 N   0  0  0  0  0  0  0  0  0  0  0  0
  -30.9781  -18.7246   23.0476 N   0  0  0  0  0  0  0  0  0  0  0  0
  -26.2201  -12.8749   20.1975 N   0  0  0  0  0  0  0  0  0  0  0  0
  -24.3586  -27.5566   19.7263 N   0  0  0  0  0  0  0  0  0  0  0  0
  -29.9723  -13.5670   20.3566 N   0  0  0  0  0  0  0  0  0  0  0  0
  -25.5127  -15.1111   20.5290 N   0  0  0  0  0  0  0  0  0  0  0  0
  -21.8913  -12.6862   21.7130 N   0  0  0  0  0  0  0  0  0  0  0  0
  -30.1540  -15.6073   21.5255 N   0  0  0  0  0  0  0  0  0  0  0  0
  -26.0045  -29.8107   22.0729 N   0  0  0  0  0  0  0  0  0  0  0  0
  -21.7719  -26.7373   17.7025 N   0  0  0  0  0  0  0  0  0  0  0  0
  -22.6705  -25.1385   14.5874 N   0  3  0  0  0  0  0  0  0  0  0  0
  -22.7134  -14.8148   21.4845 O   0  0  0  0  0  0  0  0  0  0  0  0
  -24.4524  -28.0816   22.2266 O   0  0  0  0  0  0  0  0  0  0  0  0
  -28.6053  -20.7854   22.2781 O   0  0  0  0  0  0  0  0  0  0  0  0
  -22.7469  -29.0867   19.0210 O   0  0  0  0  0  0  0  0  0  0  0  0
  -22.7048  -24.6427   17.3568 O   0  0  0  0  0  0  0  0  0  0  0  0
  -31.8876  -14.8498   20.1829 O   0  0  0  0  0  0  0  0  0  0  0  0
  -21.4851   -7.1304   21.6541 O   0  0  0  0  0  0  0  0  0  0  0  0
  -28.3664  -22.9811   20.7533 O   0  0  0  0  0  0  0  0  0  1  0  0
  -23.8695   -2.9331   24.3189 F   0  0  0  0  0  0  0  0  0  0  0  0
  -20.4628   -6.2086   24.0516 F   0  0  0  0  0  0  0  0  0  0  0  0
  1  2  1  0  0  0  0
  1  5  2  0  0  0  0
  2  6  2  0  0  0  0
  3  8  2  0  0  0  0
  3 17  1  0  0  0  0
  4  9  1  0  0  0  0
  4 17  2  0  0  0  0
  5 19  1  0  0  0  0
  6 21  1  0  0  0  0
  7 10  2  0  0  0  0
  7 20  1  0  0  0  0
  8 24  1  0  0  0  0
  9 24  2  0  0  0  0
 10 25  1  0  0  0  0
 11 12  2  0  0  0  0
 11 26  1  0  0  0  0
 12 27  1  0  0  0  0
 13 22  1  0  0  0  0
 13 25  2  0  0  0  0
 14 27  2  0  0  0  0
 14 28  1  0  0  0  0
 15 23  1  0  0  0  0
 15 61  2  0  0  0  0
 16 23  2  0  0  0  0
 16 63  1  0  0  0  0
 17 29  1  0  0  0  0
 18 29  1  0  0  0  0
 18 30  2  0  0  0  0
 18 31  1  0  0  0  0
 19 21  2  0  0  0  0
 19 37  1  0  0  0  0
 20 22  2  0  0  0  0
 20 38  1  0  0  0  0
 21 46  1  0  0  0  0
 22 39  1  0  0  0  0
 23 69  1  0  0  0  0
 24 79  1  0  0  0  0
 25 80  1  0  0  0  0
 26 28  2  0  0  0  0
 26 79  1  0  0  0  0
 27 81  1  0  0  0  0
 28 82  1  0  0  0  0
 29 62  2  0  0  0  0
 30 64  1  0  0  0  0
 30 67  1  0  0  0  0
 31 68  1  0  0  0  0
 31 73  2  0  0  0  0
 32 47  1  0  0  0  0
 32 70  1  0  0  0  0
 32 74  2  0  0  0  0
 33 55  1  0  0  0  0
 33 56  1  0  0  0  0
 33 75  2  0  0  0  0
 34 57  1  0  0  0  0
 34 65  1  0  0  0  0
 34 76  2  0  0  0  0
 35 58  1  0  0  0  0
 35 71  1  0  0  0  0
 35 77  2  0  0  0  0
 36 66  1  0  0  0  0
 36 69  1  0  0  0  0
 36 78  2  0  0  0  0
 37 40  1  0  0  0  0
 38 47  1  0  0  0  0
 39 65  1  0  0  0  0
 40 42  1  0  0  0  0
 41 43  1  0  0  0  0
 41 44  1  0  0  0  0
 42 46  1  0  0  0  0
 43 48  1  0  0  0  0
 44 66  1  0  0  0  0
 45 48  1  0  0  0  0
 45 66  1  0  0  0  0
 46 70  1  0  0  0  0
 47 65  1  0  0  0  0
 48 64  1  0  0  0  0
 49 58  1  0  0  0  0
 50 59  1  0  0  0  0
 51 60  1  0  0  0  0
 52 60  1  0  0  0  0
 53 60  1  0  0  0  0
 54 72  1  0  0  0  0
 55 59  1  0  0  0  0
 56 80  1  0  0  0  0
 57 60  1  0  0  0  0
 57 71  1  0  0  0  0
 58 72  1  0  0  0  0
 59 63  1  0  0  0  0
 61 63  1  0  0  0  0
 62 64  1  0  0  0  0
M  CHG  1  72   1
M  ISO  4  36 100  56 101  69 100  80 101
M  END
> <Batch ID>
0180

> <Smiles>
CNC(C)C(=O)NC(C(=O)N1Cc2cc([101O:1][101CH2:1]C(=O)CC(C)n3cc([100NH:0][100C:0](=O)N4CCCC(n5nc(-c6ccc(Oc7ccc(F)cc7F)cc6)c(C(N)=O)c5N)C4)cn3)ccc2CC1C(=O)NC1CCCc2ccccc21)C(C)(C)C

> <Shape>
0.331

> <Color>
0.205

> <Negative vol penalty>
0.000

$$$$

  -OEChem-04052304503D

 87 95  0     1  0  0  0  0  0999 V2000
  -29.6847  -36.5306   19.4303 C   0  0  0  0  0  0  0  0  0  0  0  0
  -29.7270  -35.1574   19.2112 C   0  0  0  0  0  0  0  0  0  0  0  0
  -23.2694   -9.1970   20.5934 C   0  0  0  0  0  0  0  0  0  0  0  0
  -23.0989  -10.8176   22.3771 C   0  0  0  0  0  0  0  0  0  0  0  0
  -29.1238  -37.0310   20.6045 C   0  0  0  0  0  0  0  0  0  0  0  0
  -29.2095  -34.2837   20.1669 C   0  0  0  0  0  0  0  0  0  0  0  0
  -26.3672  -28.9588   19.1315 C   0  0  0  0  0  0  0  0  0  0  0  0
  -22.4541   -8.3216   21.3108 C   0  0  0  0  0  0  0  0  0  0  0  0
  -22.2836   -9.9423   23.0945 C   0  0  0  0  0  0  0  0  0  0  0  0
  -26.8098  -27.6372   19.1654 C   0  0  0  0  0  0  0  0  0  0  0  0
  -22.7785   -6.1725   23.8993 C   0  0  0  0  0  0  0  0  0  0  0  0
  -23.1685   -4.8352   23.9693 C   0  0  0  0  0  0  0  0  0  0  0  0
  -25.9903  -27.4270   21.4245 C   0  0  0  0  0  0  0  0  0  0  0  0
  -21.1031   -4.1770   22.9025 C   0  0  0  0  0  0  0  0  0  0  0  0
  -23.5919  -10.4450   21.1265 C   0  0  0  0  0  0  0  0  0  0  0  0
  -24.0249  -12.3267   19.4594 C   0  0  0  0  0  0  0  0  0  0  0  0
  -28.5904  -36.1635   21.5708 C   0  0  0  0  0  0  0  0  0  0  0  0
  -25.7415  -29.5288   20.2495 C   0  0  0  0  0  0  0  0  0  0  0  0
  -28.6422  -34.7730   21.3558 C   0  0  0  0  0  0  0  0  0  0  0  0
  -25.5384  -28.7553   21.4013 C   0  0  0  0  0  0  0  0  0  0  0  0
  -21.9612   -8.6943   22.5613 C   0  0  0  0  0  0  0  0  0  0  0  0
  -26.6240  -26.8719   20.3130 C   0  0  0  0  0  0  0  0  0  0  0  0
  -21.5508   -6.5122   23.3310 C   0  0  0  0  0  0  0  0  0  0  0  0
  -22.3308   -3.8374   23.4709 C   0  0  0  0  0  0  0  0  0  0  0  0
  -20.7131   -5.5145   22.8325 C   0  0  0  0  0  0  0  0  0  0  0  0
  -24.4345  -11.3494   20.3862 C   0  0  0  0  0  0  0  0  0  0  0  0
  -29.4251  -19.7608   18.7945 C   0  0  0  0  0  0  0  0  0  0  0  0
  -30.7160  -19.2807   18.8664 C   0  0  0  0  0  0  0  0  0  0  0  0
  -25.1938  -12.9130   19.0395 C   0  0  0  0  0  0  0  0  0  0  0  0
  -29.6518  -17.4536   19.4489 C   0  0  0  0  0  0  0  0  0  0  0  0
  -22.7057  -12.6735   19.0176 C   0  0  0  0  0  0  0  0  0  0  0  0
  -28.9101  -21.1063   18.4320 C   0  0  0  0  0  0  0  0  0  0  0  0
  -26.3959  -31.9602   22.1896 C   0  0  0  0  0  0  0  0  0  0  0  0
  -26.8711  -23.3821   19.3518 C   0  0  0  0  0  0  0  0  0  0  0  0
  -23.4681  -31.2712   23.4045 C   0  0  0  0  0  0  0  0  0  0  0  0
  -20.9957  -28.9662   23.8746 C   0  0  0  0  0  0  0  0  0  0  0  0
  -30.2092  -15.0854   20.1025 C   0  0  0  0  0  0  0  0  0  0  0  0
  -28.0372  -36.7491   22.8458 C   0  0  0  0  0  0  0  0  0  0  0  0
  -25.2458  -30.9475   20.1876 C   0  0  0  0  0  0  0  0  0  0  0  0
  -24.8541  -29.3139   22.6212 C   0  0  0  0  0  0  0  0  0  0  0  0
  -27.1722  -35.7730   23.6392 C   0  0  0  0  0  0  0  0  0  0  0  0
  -30.0124  -11.5459   19.7702 C   0  0  0  0  0  0  0  0  0  0  0  0
  -27.8587  -34.4149   23.7441 C   0  0  0  0  0  0  0  0  0  0  0  0
  -28.5100  -11.2596   19.8246 C   0  0  0  0  0  0  0  0  0  0  0  0
  -30.4073  -12.6839   20.7097 C   0  0  0  0  0  0  0  0  0  0  0  0
  -28.1394  -13.6390   20.5918 C   0  0  0  0  0  0  0  0  0  0  0  0
  -28.0687  -33.7944   22.3576 C   0  0  1  0  0  0  0  0  0  0  0  0
  -25.0824  -31.5840   21.5644 C   0  0  1  0  0  0  0  0  0  0  0  0
  -27.6837  -12.5436   19.6140 C   0  0  2  0  0  0  0  0  0  0  0  0
  -18.7397  -28.6863   24.9373 C   0  0  0  0  0  0  0  0  0  0  0  0
  -24.4750  -21.6844   18.5099 C   0  0  0  0  0  0  0  0  0  0  0  0
  -25.5167  -21.4673   16.2411 C   0  0  0  0  0  0  0  0  0  0  0  0
  -24.7856  -31.1036   26.1515 C   0  0  0  0  0  0  0  0  0  0  0  0
  -22.7425  -29.9185   26.9819 C   0  0  0  0  0  0  0  0  0  0  0  0
  -22.5659  -32.2555   26.1276 C   0  0  0  0  0  0  0  0  0  0  0  0
  -19.7191  -28.3532   21.2759 C   0  0  0  0  0  0  0  0  0  0  0  0
  -27.0703  -24.8672   19.1139 C   0  0  0  0  0  0  0  0  0  1  0  0
  -26.8788  -22.4943   18.1104 C   0  0  2  0  0  0  0  0  0  0  0  0
  -22.9492  -30.3643   24.4940 C   0  0  1  0  0  0  0  0  0  0  0  0
  -19.4940  -29.0430   23.6659 C   0  0  2  0  0  0  0  0  0  0  0  0
  -25.4679  -22.3057   17.5223 C   0  0  0  0  0  0  0  0  0  0  0  0
  -23.2755  -30.9002   25.9166 C   0  0  0  0  0  0  0  0  0  0  0  0
  -25.7601  -11.3137   20.5460 N   0  0  0  0  0  0  0  0  0  0  0  0
  -30.8479  -17.9580   19.2419 N   0  0  0  0  0  0  0  0  0  0  0  0
  -26.1936  -12.2758   19.7138 N   0  0  0  0  0  0  0  0  0  0  0  0
  -24.3930  -30.7079   22.5138 N   0  0  0  0  0  0  0  0  0  0  0  0
  -29.5858  -13.8681   20.4494 N   0  0  0  0  0  0  0  0  0  0  0  0
  -31.8145  -20.0247   18.5932 N   0  0  0  0  0  0  0  0  0  0  0  0
  -25.4537  -13.9062   18.1629 N   0  0  0  0  0  0  0  0  0  0  0  0
  -21.6163  -11.9711   19.5507 N   0  0  0  0  0  0  0  0  0  0  0  0
  -29.3255  -16.1332   19.8462 N   0  0  0  0  0  0  0  0  0  0  0  0
  -27.5301  -21.2583   18.4597 N   0  0  0  0  0  0  0  0  0  0  0  0
  -26.8308  -33.2306   21.8634 N   0  0  0  0  0  0  0  0  0  0  0  0
  -21.5245  -30.1878   24.2342 N   0  0  0  0  0  0  0  0  0  0  0  0
  -19.0719  -28.1028   22.5895 N   0  3  0  0  0  0  0  0  0  0  0  0
  -22.5003  -13.5683   18.1628 O   0  0  0  0  0  0  0  0  0  0  0  0
  -29.7047  -21.9874   18.1147 O   0  0  0  0  0  0  0  0  0  0  0  0
  -26.9714  -31.1579   22.9153 O   0  0  0  0  0  0  0  0  0  0  0  0
  -26.6840  -22.9294   20.4815 O   0  0  0  0  0  0  0  0  0  0  0  0
  -23.0623  -32.4343   23.3415 O   0  0  0  0  0  0  0  0  0  0  0  0
  -21.6351  -27.9257   23.7364 O   0  0  0  0  0  0  0  0  0  0  0  0
  -31.4356  -15.1835   20.0110 O   0  0  0  0  0  0  0  0  0  0  0  0
  -21.1654   -7.8405   23.2615 O   0  0  0  0  0  0  0  0  0  0  0  0
  -27.0557  -25.5819   20.3490 O   0  0  0  0  0  0  0  0  0  1  0  0
  -22.7061   -2.5533   23.5368 F   0  0  0  0  0  0  0  0  0  0  0  0
  -19.5330   -5.8347   22.2843 F   0  0  0  0  0  0  0  0  0  0  0  0
  -28.3235  -18.5137   19.2100 S   0  0  0  0  0  0  0  0  0  0  0  0
  1  2  1  0  0  0  0
  1  5  2  0  0  0  0
  2  6  2  0  0  0  0
  3  8  2  0  0  0  0
  3 15  1  0  0  0  0
  4  9  1  0  0  0  0
  4 15  2  0  0  0  0
  5 17  1  0  0  0  0
  6 19  1  0  0  0  0
  7 10  2  0  0  0  0
  7 18  1  0  0  0  0
  8 21  1  0  0  0  0
  9 21  2  0  0  0  0
 10 22  1  0  0  0  0
 11 12  2  0  0  0  0
 11 23  1  0  0  0  0
 12 24  1  0  0  0  0
 13 20  1  0  0  0  0
 13 22  2  0  0  0  0
 14 24  2  0  0  0  0
 14 25  1  0  0  0  0
 15 26  1  0  0  0  0
 16 26  1  0  0  0  0
 16 29  2  0  0  0  0
 16 31  1  0  0  0  0
 17 19  2  0  0  0  0
 17 38  1  0  0  0  0
 18 20  2  0  0  0  0
 18 39  1  0  0  0  0
 19 47  1  0  0  0  0
 20 40  1  0  0  0  0
 21 83  1  0  0  0  0
 22 84  1  0  0  0  0
 23 25  2  0  0  0  0
 23 83  1  0  0  0  0
 24 85  1  0  0  0  0
 25 86  1  0  0  0  0
 26 63  2  0  0  0  0
 27 28  2  0  0  0  0
 27 32  1  0  0  0  0
 27 87  1  0  0  0  0
 28 64  1  0  0  0  0
 28 68  1  0  0  0  0
 29 65  1  0  0  0  0
 29 69  1  0  0  0  0
 30 64  2  0  0  0  0
 30 71  1  0  0  0  0
 30 87  1  0  0  0  0
 31 70  1  0  0  0  0
 31 76  2  0  0  0  0
 32 72  1  0  0  0  0
 32 77  2  0  0  0  0
 33 48  1  0  0  0  0
 33 73  1  0  0  0  0
 33 78  2  0  0  0  0
 34 57  1  0  0  0  0
 34 58  1  0  0  0  0
 34 79  2  0  0  0  0
 35 59  1  0  0  0  0
 35 66  1  0  0  0  0
 35 80  2  0  0  0  0
 36 60  1  0  0  0  0
 36 74  1  0  0  0  0
 36 81  2  0  0  0  0
 37 67  1  0  0  0  0
 37 71  1  0  0  0  0
 37 82  2  0  0  0  0
 38 41  1  0  0  0  0
 39 48  1  0  0  0  0
 40 66  1  0  0  0  0
 41 43  1  0  0  0  0
 42 44  1  0  0  0  0
 42 45  1  0  0  0  0
 43 47  1  0  0  0  0
 44 49  1  0  0  0  0
 45 67  1  0  0  0  0
 46 49  1  0  0  0  0
 46 67  1  0  0  0  0
 47 73  1  0  0  0  0
 48 66  1  0  0  0  0
 49 65  1  0  0  0  0
 50 60  1  0  0  0  0
 51 61  1  0  0  0  0
 52 61  1  0  0  0  0
 53 62  1  0  0  0  0
 54 62  1  0  0  0  0
 55 62  1  0  0  0  0
 56 75  1  0  0  0  0
 57 84  1  0  0  0  0
 58 61  1  0  0  0  0
 58 72  1  0  0  0  0
 59 62  1  0  0  0  0
 59 74  1  0  0  0  0
 60 75  1  0  0  0  0
 63 65  1  0  0  0  0
M  CHG  1  75   1
M  ISO  4  37 100  57 101  71 100  84 101
M  END
> <Batch ID>
0180

> <Smiles>
CNC(C)C(=O)NC(C(=O)N1Cc2cc([101O:1][101CH2:1]C(=O)C(NC(=O)c3sc([100NH:0][100C:0](=O)N4CCCC(n5nc(-c6ccc(Oc7ccc(F)cc7F)cc6)c(C(N)=O)c5N)C4)nc3N)C(C)C)ccc2CC1C(=O)NC1CCCc2ccccc21)C(C)(C)C

> <Shape>
0.289

> <Color>
0.127

> <Negative vol penalty>
0.000

$$$$

  -OEChem-04052304503D

 83 91  0     1  0  0  0  0  0999 V2000
  -30.1042  -25.6748   16.7844 C   0  0  0  0  0  0  0  0  0  0  0  0
  -28.7186  -25.7018   16.9068 C   0  0  0  0  0  0  0  0  0  0  0  0
  -30.4022  -19.9467   23.4366 C   0  0  0  0  0  0  0  0  0  0  0  0
  -28.9338  -21.2187   22.0003 C   0  0  0  0  0  0  0  0  0  0  0  0
  -30.9054  -26.0558   17.8599 C   0  0  0  0  0  0  0  0  0  0  0  0
  -28.1335  -26.1090   18.1053 C   0  0  0  0  0  0  0  0  0  0  0  0
  -22.8993  -29.2165   18.7777 C   0  0  0  0  0  0  0  0  0  0  0  0
  -30.6222  -19.0349   22.4043 C   0  0  0  0  0  0  0  0  0  0  0  0
  -29.1539  -20.3069   20.9679 C   0  0  0  0  0  0  0  0  0  0  0  0
  -21.6001  -28.8112   19.0804 C   0  0  0  0  0  0  0  0  0  0  0  0
  -31.2873  -16.1746   20.2596 C   0  0  0  0  0  0  0  0  0  0  0  0
  -31.2421  -14.8159   20.5718 C   0  0  0  0  0  0  0  0  0  0  0  0
  -21.9895  -29.3208   21.4059 C   0  0  0  0  0  0  0  0  0  0  0  0
  -22.0445  -24.8118   24.8744 C   0  0  0  0  0  0  0  0  0  0  0  0
  -28.9553  -15.0618   21.3113 C   0  0  0  0  0  0  0  0  0  0  0  0
  -21.1405  -23.8648   26.7064 C   0  0  0  0  0  0  0  0  0  0  0  0
  -29.5579  -21.0386   23.2347 C   0  0  0  0  0  0  0  0  0  0  0  0
  -30.0686  -23.1465   24.5778 C   0  0  0  0  0  0  0  0  0  0  0  0
  -30.3297  -26.4771   19.0690 C   0  0  0  0  0  0  0  0  0  0  0  0
  -23.7584  -29.6674   19.7902 C   0  0  0  0  0  0  0  0  0  0  0  0
  -28.9278  -26.4947   19.1985 C   0  0  0  0  0  0  0  0  0  0  0  0
  -23.2982  -29.7337   21.1130 C   0  0  0  0  0  0  0  0  0  0  0  0
  -22.3402  -24.1838   26.1095 C   0  0  0  0  0  0  0  0  0  0  0  0
  -29.9981  -19.2150   21.1699 C   0  0  0  0  0  0  0  0  0  0  0  0
  -21.1460  -28.8606   20.3951 C   0  0  0  0  0  0  0  0  0  0  0  0
  -30.1665  -16.9770   20.4734 C   0  0  0  0  0  0  0  0  0  0  0  0
  -30.0761  -14.2595   21.0976 C   0  0  0  0  0  0  0  0  0  0  0  0
  -29.0005  -16.4206   20.9992 C   0  0  0  0  0  0  0  0  0  0  0  0
  -29.3298  -21.9806   24.3009 C   0  0  0  0  0  0  0  0  0  0  0  0
  -20.6730  -24.8577   24.7543 C   0  0  0  0  0  0  0  0  0  0  0  0
  -29.4558  -23.6872   25.6817 C   0  0  0  0  0  0  0  0  0  0  0  0
  -31.2070  -23.6919   23.8979 C   0  0  0  0  0  0  0  0  0  0  0  0
  -26.5403  -28.6858   20.9738 C   0  0  0  0  0  0  0  0  0  0  0  0
  -26.3433  -31.4390   22.6776 C   0  0  0  0  0  0  0  0  0  0  0  0
  -20.3110  -25.9877   22.5325 C   0  0  0  0  0  0  0  0  0  0  0  0
  -24.3741  -33.8890   24.0068 C   0  0  0  0  0  0  0  0  0  0  0  0
  -23.9095  -23.3009   27.8713 C   0  0  0  0  0  0  0  0  0  0  0  0
  -31.2372  -26.8345   20.2194 C   0  0  0  0  0  0  0  0  0  0  0  0
  -25.1481  -30.1263   19.4432 C   0  0  0  0  0  0  0  0  0  0  0  0
  -24.1743  -30.2291   22.2335 C   0  0  0  0  0  0  0  0  0  0  0  0
  -30.5351  -27.6107   21.3306 C   0  0  0  0  0  0  0  0  0  0  0  0
  -26.9270  -22.4344   29.5508 C   0  0  0  0  0  0  0  0  0  0  0  0
  -29.2028  -26.9553   21.6800 C   0  0  0  0  0  0  0  0  0  0  0  0
  -27.9542  -22.3318   28.4210 C   0  0  0  0  0  0  0  0  0  0  0  0
  -25.5554  -21.9190   29.1188 C   0  0  0  0  0  0  0  0  0  0  0  0
  -26.0531  -22.4170   26.7580 C   0  0  0  0  0  0  0  0  0  0  0  0
  -28.2555  -26.9540   20.4741 C   0  0  1  0  0  0  0  0  0  0  0  0
  -26.1056  -30.0824   20.6301 C   0  0  1  0  0  0  0  0  0  0  0  0
  -27.4339  -22.9845   27.1253 C   0  0  2  0  0  0  0  0  0  0  0  0
  -24.4959  -35.9862   25.3794 C   0  0  0  0  0  0  0  0  0  0  0  0
  -18.3863  -27.1278   19.3799 C   0  0  0  0  0  0  0  0  0  0  0  0
  -26.7608  -29.7648   25.1941 C   0  0  0  0  0  0  0  0  0  0  0  0
  -25.9369  -31.7085   26.5399 C   0  0  0  0  0  0  0  0  0  0  0  0
  -28.0064  -31.9332   25.1652 C   0  0  0  0  0  0  0  0  0  0  0  0
  -18.7233  -24.1201   26.1540 C   0  0  0  0  0  0  0  0  0  0  0  0
  -23.2334  -35.5249   21.8200 C   0  0  0  0  0  0  0  0  0  0  0  0
  -19.1197  -26.4114   21.6789 C   0  0  0  0  0  0  0  0  0  0  0  0
  -25.7582  -31.8302   24.0132 C   0  0  1  0  0  0  0  0  0  0  0  0
  -24.4899  -35.4023   23.9753 C   0  0  2  0  0  0  0  0  0  0  0  0
  -19.5298  -27.1159   20.3857 C   0  0  2  0  0  0  0  0  0  1  0  0
  -26.5995  -31.2980   25.2075 C   0  0  0  0  0  0  0  0  0  0  0  0
  -28.3246  -21.7910   25.1598 N   0  0  0  0  0  0  0  0  0  0  0  0
  -20.1339  -24.2795   25.8738 N   0  0  0  0  0  0  0  0  0  0  0  0
  -28.4275  -22.8449   25.9872 N   0  0  0  0  0  0  0  0  0  0  0  0
  -25.5271  -30.6607   21.8446 N   0  0  0  0  0  0  0  0  0  0  0  0
  -25.1253  -22.5850   27.8875 N   0  0  0  0  0  0  0  0  0  0  0  0
  -29.7017  -24.7962   26.4111 N   0  0  0  0  0  0  0  0  0  0  0  0
  -31.7088  -23.0092   22.7815 N   0  0  0  0  0  0  0  0  0  0  0  0
  -23.6208  -23.9193   26.6552 N   0  0  0  0  0  0  0  0  0  0  0  0
  -19.8766  -25.3830   23.7091 N   0  0  0  0  0  0  0  0  0  0  0  0
  -27.6661  -28.2633   20.2930 N   0  0  0  0  0  0  0  0  0  0  0  0
  -25.6117  -33.2815   23.9853 N   0  0  0  0  0  0  0  0  0  0  0  0
  -23.3460  -35.9938   23.2252 N   0  3  0  0  0  0  0  0  0  0  0  0
  -31.7727  -24.7446   24.2792 O   0  0  0  0  0  0  0  0  0  0  0  0
  -25.9024  -28.0398   21.7969 O   0  0  0  0  0  0  0  0  0  0  0  0
  -27.4797  -31.8163   22.3814 O   0  0  0  0  0  0  0  0  0  0  0  0
  -21.4696  -26.1793   22.1787 O   0  0  0  0  0  0  0  0  0  0  0  0
  -23.2938  -33.3044   24.0501 O   0  0  0  0  0  0  0  0  0  0  0  0
  -23.1918  -23.3837   28.8712 O   0  0  0  0  0  0  0  0  0  0  0  0
  -30.2127  -18.3256   20.1623 O   0  0  0  0  0  0  0  0  0  0  0  0
  -19.8785  -28.4650   20.6934 O   0  0  0  0  0  0  0  0  0  1  0  0
  -30.0324  -12.9544   21.3958 F   0  0  0  0  0  0  0  0  0  0  0  0
  -27.9202  -17.1862   21.2056 F   0  0  0  0  0  0  0  0  0  0  0  0
  1  2  1  0  0  0  0
  1  5  2  0  0  0  0
  2  6  2  0  0  0  0
  3  8  2  0  0  0  0
  3 17  1  0  0  0  0
  4  9  1  0  0  0  0
  4 17  2  0  0  0  0
  5 19  1  0  0  0  0
  6 21  1  0  0  0  0
  7 10  2  0  0  0  0
  7 20  1  0  0  0  0
  8 24  1  0  0  0  0
  9 24  2  0  0  0  0
 10 25  1  0  0  0  0
 11 12  2  0  0  0  0
 11 26  1  0  0  0  0
 12 27  1  0  0  0  0
 13 22  1  0  0  0  0
 13 25  2  0  0  0  0
 14 23  1  0  0  0  0
 14 30  2  0  0  0  0
 15 27  2  0  0  0  0
 15 28  1  0  0  0  0
 16 23  2  0  0  0  0
 16 63  1  0  0  0  0
 17 29  1  0  0  0  0
 18 29  1  0  0  0  0
 18 31  2  0  0  0  0
 18 32  1  0  0  0  0
 19 21  2  0  0  0  0
 19 38  1  0  0  0  0
 20 22  2  0  0  0  0
 20 39  1  0  0  0  0
 21 47  1  0  0  0  0
 22 40  1  0  0  0  0
 23 69  1  0  0  0  0
 24 80  1  0  0  0  0
 25 81  1  0  0  0  0
 26 28  2  0  0  0  0
 26 80  1  0  0  0  0
 27 82  1  0  0  0  0
 28 83  1  0  0  0  0
 29 62  2  0  0  0  0
 30 63  1  0  0  0  0
 30 70  1  0  0  0  0
 31 64  1  0  0  0  0
 31 67  1  0  0  0  0
 32 68  1  0  0  0  0
 32 74  2  0  0  0  0
 33 48  1  0  0  0  0
 33 71  1  0  0  0  0
 33 75  2  0  0  0  0
 34 58  1  0  0  0  0
 34 65  1  0  0  0  0
 34 76  2  0  0  0  0
 35 57  1  0  0  0  0
 35 70  1  0  0  0  0
 35 77  2  0  0  0  0
 36 59  1  0  0  0  0
 36 72  1  0  0  0  0
 36 78  2  0  0  0  0
 37 66  1  0  0  0  0
 37 69  1  0  0  0  0
 37 79  2  0  0  0  0
 38 41  1  0  0  0  0
 39 48  1  0  0  0  0
 40 65  1  0  0  0  0
 41 43  1  0  0  0  0
 42 44  1  0  0  0  0
 42 45  1  0  0  0  0
 43 47  1  0  0  0  0
 44 49  1  0  0  0  0
 45 66  1  0  0  0  0
 46 49  1  0  0  0  0
 46 66  1  0  0  0  0
 47 71  1  0  0  0  0
 48 65  1  0  0  0  0
 49 64  1  0  0  0  0
 50 59  1  0  0  0  0
 51 60  1  0  0  0  0
 52 61  1  0  0  0  0
 53 61  1  0  0  0  0
 54 61  1  0  0  0  0
 55 63  1  0  0  0  0
 56 73  1  0  0  0  0
 57 60  1  0  0  0  0
 58 61  1  0  0  0  0
 58 72  1  0  0  0  0
 59 73  1  0  0  0  0
 60 81  1  0  0  0  0
 62 64  1  0  0  0  0
M  CHG  1  73   1
M  ISO  4  37 100  60 101  69 100  81 101
M  END
> <Batch ID>
0180

> <Smiles>
CNC(C)C(=O)NC(C(=O)N1Cc2cc([101O:1][101CH:1](C)CC(=O)Nc3cc([100NH:0][100C:0](=O)N4CCCC(n5nc(-c6ccc(Oc7ccc(F)cc7F)cc6)c(C(N)=O)c5N)C4)cn3C)ccc2CC1C(=O)NC1CCCc2ccccc21)C(C)(C)C

> <Shape>
0.266

> <Color>
0.064

> <Negative vol penalty>
0.000

$$$$

  -OEChem-04052304503D

 86 94  0     1  0  0  0  0  0999 V2000
  -28.4033  -32.0562   13.3684 C   0  0  0  0  0  0  0  0  0  0  0  0
  -28.0942  -30.7435   13.0268 C   0  0  0  0  0  0  0  0  0  0  0  0
  -23.2941   -9.8238   19.9226 C   0  0  0  0  0  0  0  0  0  0  0  0
  -23.7203   -9.9846   22.2952 C   0  0  0  0  0  0  0  0  0  0  0  0
  -29.1567  -32.3188   14.5118 C   0  0  0  0  0  0  0  0  0  0  0  0
  -28.5391  -29.6925   13.8280 C   0  0  0  0  0  0  0  0  0  0  0  0
  -24.9345  -26.2395   14.6817 C   0  0  0  0  0  0  0  0  0  0  0  0
  -22.5593   -8.6571   20.1336 C   0  0  0  0  0  0  0  0  0  0  0  0
  -22.9854   -8.8179   22.5063 C   0  0  0  0  0  0  0  0  0  0  0  0
  -24.6645  -25.3341   13.6564 C   0  0  0  0  0  0  0  0  0  0  0  0
  -20.8728   -5.4379   20.0080 C   0  0  0  0  0  0  0  0  0  0  0  0
  -21.1012   -4.3617   19.1505 C   0  0  0  0  0  0  0  0  0  0  0  0
  -26.0048  -23.6722   14.7793 C   0  0  0  0  0  0  0  0  0  0  0  0
  -26.1955  -18.4084   15.1114 C   0  0  0  0  0  0  0  0  0  0  0  0
  -23.4167   -4.3056   19.8379 C   0  0  0  0  0  0  0  0  0  0  0  0
  -23.8746  -10.4875   21.0034 C   0  0  0  0  0  0  0  0  0  0  0  0
  -24.1497  -13.0141   20.7837 C   0  0  0  0  0  0  0  0  0  0  0  0
  -29.6029  -31.2710   15.3327 C   0  0  0  0  0  0  0  0  0  0  0  0
  -25.7520  -25.8710   15.7598 C   0  0  0  0  0  0  0  0  0  0  0  0
  -29.3003  -29.9412   14.9828 C   0  0  0  0  0  0  0  0  0  0  0  0
  -26.2816  -24.5739   15.8182 C   0  0  0  0  0  0  0  0  0  0  0  0
  -26.8291  -17.3559   15.8331 C   0  0  0  0  0  0  0  0  0  0  0  0
  -22.4049   -8.1542   21.4255 C   0  0  0  0  0  0  0  0  0  0  0  0
  -25.2020  -24.0512   13.7037 C   0  0  0  0  0  0  0  0  0  0  0  0
  -21.9163   -5.9480   20.7804 C   0  0  0  0  0  0  0  0  0  0  0  0
  -22.3731   -3.7955   19.0655 C   0  0  0  0  0  0  0  0  0  0  0  0
  -23.1883   -5.3818   20.6953 C   0  0  0  0  0  0  0  0  0  0  0  0
  -24.6343  -11.6924   20.7860 C   0  0  0  0  0  0  0  0  0  0  0  0
  -28.2015  -17.4087   15.7267 C   0  0  0  0  0  0  0  0  0  0  0  0
  -25.2579  -13.7857   20.5331 C   0  0  0  0  0  0  0  0  0  0  0  0
  -27.1079  -19.2257   14.4809 C   0  0  0  0  0  0  0  0  0  0  0  0
  -29.2175  -16.5172   16.3140 C   0  0  0  0  0  0  0  0  0  0  0  0
  -22.8169  -13.5008   20.9896 C   0  0  0  0  0  0  0  0  0  0  0  0
  -28.5323  -26.8881   16.9170 C   0  0  0  0  0  0  0  0  0  0  0  0
  -27.8727  -24.7774   19.2903 C   0  0  0  0  0  0  0  0  0  0  0  0
  -26.2155  -21.9664   20.2897 C   0  0  0  0  0  0  0  0  0  0  0  0
  -25.7167  -20.9684   13.3119 C   0  0  0  0  0  0  0  0  0  0  0  0
  -29.8978  -14.7170   17.5740 C   0  0  0  0  0  0  0  0  0  0  0  0
  -30.4545  -31.6014   16.5328 C   0  0  0  0  0  0  0  0  0  0  0  0
  -26.0119  -26.8506   16.8711 C   0  0  0  0  0  0  0  0  0  0  0  0
  -27.1486  -24.1223   16.9639 C   0  0  0  0  0  0  0  0  0  0  0  0
  -30.5697  -30.4535   17.5325 C   0  0  0  0  0  0  0  0  0  0  0  0
  -30.1677  -12.6001   20.4810 C   0  0  0  0  0  0  0  0  0  0  0  0
  -30.8728  -29.1447   16.8099 C   0  0  0  0  0  0  0  0  0  0  0  0
  -28.7121  -12.2564   20.7964 C   0  0  0  0  0  0  0  0  0  0  0  0
  -30.4024  -12.7176   18.9781 C   0  0  0  0  0  0  0  0  0  0  0  0
  -28.0319  -13.3473   18.6131 C   0  0  0  0  0  0  0  0  0  0  0  0
  -29.7438  -28.7757   15.8400 C   0  0  1  0  0  0  0  0  0  0  0  0
  -27.2769  -26.5342   17.6629 C   0  0  1  0  0  0  0  0  0  0  0  0
  -27.7505  -13.2513   20.1223 C   0  0  1  0  0  0  0  0  0  0  0  0
  -25.9040  -20.4647   22.2760 C   0  0  0  0  0  0  0  0  0  0  0  0
  -25.8905  -21.8254   10.9465 C   0  0  0  0  0  0  0  0  0  0  0  0
  -30.6161  -23.5417   18.7833 C   0  0  0  0  0  0  0  0  0  0  0  0
  -29.8736  -21.5328   20.0799 C   0  0  0  0  0  0  0  0  0  0  0  0
  -30.0000  -23.7594   21.1973 C   0  0  0  0  0  0  0  0  0  0  0  0
  -23.3121  -22.5282   20.4051 C   0  0  0  0  0  0  0  0  0  0  0  0
  -28.1545  -23.3135   19.5278 C   0  0  1  0  0  0  0  0  0  0  0  0
  -25.3774  -21.6756   21.5215 C   0  0  2  0  0  0  0  0  0  0  0  0
  -25.9422  -22.1889   12.4231 C   0  0  1  0  0  0  0  0  0  1  0  0
  -26.0850  -16.3309   16.6046 C   0  0  0  0  0  0  0  0  0  0  0  0
  -29.6463  -23.0457   19.8744 C   0  0  0  0  0  0  0  0  0  0  0  0
  -25.9481  -11.6245   20.5551 N   0  0  0  0  0  0  0  0  0  0  0  0
  -28.8917  -15.5096   17.0556 N   0  0  0  0  0  0  0  0  0  0  0  0
  -26.2984  -12.9133   20.4053 N   0  0  0  0  0  0  0  0  0  0  0  0
  -27.3789  -25.1185   18.0231 N   0  0  0  0  0  0  0  0  0  0  0  0
  -29.4492  -13.6455   18.3679 N   0  0  0  0  0  0  0  0  0  0  0  0
  -25.4342  -15.1187   20.4119 N   0  0  0  0  0  0  0  0  0  0  0  0
  -21.7967  -12.5716   21.2351 N   0  0  0  0  0  0  0  0  0  0  0  0
  -26.9205  -20.3707   13.6704 N   0  0  0  0  0  0  0  0  0  0  0  0
  -28.6188  -28.2206   16.5617 N   0  0  0  0  0  0  0  0  0  0  0  0
  -27.2149  -22.8785   20.5556 N   0  0  0  0  0  0  0  0  0  0  0  0
  -23.9629  -21.4097   21.1347 N   0  3  0  0  0  0  0  0  0  0  0  0
  -22.5359  -14.7224   20.9407 O   0  0  0  0  0  0  0  0  0  0  0  0
  -29.3617  -26.0170   16.6825 O   0  0  0  0  0  0  0  0  0  0  0  0
  -28.0763  -25.5875   20.1980 O   0  0  0  0  0  0  0  0  0  0  0  0
  -26.0071  -21.4347   19.2015 O   0  0  0  0  0  0  0  0  0  0  0  0
  -24.5864  -20.6234   13.6443 O   0  0  0  0  0  0  0  0  0  0  0  0
  -31.0987  -14.9081   17.3679 O   0  0  0  0  0  0  0  0  0  0  0  0
  -21.6877   -7.0159   21.6318 O   0  0  0  0  0  0  0  0  0  0  0  0
  -24.9406  -23.1657   12.7039 O   0  0  0  0  0  0  0  0  0  1  0  0
  -22.5920   -2.7611   18.2431 F   0  0  0  0  0  0  0  0  0  0  0  0
  -24.1945   -5.8667   21.4357 F   0  0  0  0  0  0  0  0  0  0  0  0
  -24.7248  -16.4836   16.5639 F   0  0  0  0  0  0  0  0  0  0  0  0
  -26.3045  -15.0481   16.1790 F   0  0  0  0  0  0  0  0  0  0  0  0
  -26.4056  -16.3274   17.9346 F   0  0  0  0  0  0  0  0  0  0  0  0
  -28.7209  -18.7231   14.7599 S   0  0  0  0  0  0  0  0  0  0  0  0
  1  2  1  0  0  0  0
  1  5  2  0  0  0  0
  2  6  2  0  0  0  0
  3  8  2  0  0  0  0
  3 16  1  0  0  0  0
  4  9  1  0  0  0  0
  4 16  2  0  0  0  0
  5 18  1  0  0  0  0
  6 20  1  0  0  0  0
  7 10  2  0  0  0  0
  7 19  1  0  0  0  0
  8 23  1  0  0  0  0
  9 23  2  0  0  0  0
 10 24  1  0  0  0  0
 11 12  2  0  0  0  0
 11 25  1  0  0  0  0
 12 26  1  0  0  0  0
 13 21  1  0  0  0  0
 13 24  2  0  0  0  0
 14 22  1  0  0  0  0
 14 31  2  0  0  0  0
 15 26  2  0  0  0  0
 15 27  1  0  0  0  0
 16 28  1  0  0  0  0
 17 28  1  0  0  0  0
 17 30  2  0  0  0  0
 17 33  1  0  0  0  0
 18 20  2  0  0  0  0
 18 39  1  0  0  0  0
 19 21  2  0  0  0  0
 19 40  1  0  0  0  0
 20 48  1  0  0  0  0
 21 41  1  0  0  0  0
 22 29  2  0  0  0  0
 22 60  1  0  0  0  0
 23 79  1  0  0  0  0
 24 80  1  0  0  0  0
 25 27  2  0  0  0  0
 25 79  1  0  0  0  0
 26 81  1  0  0  0  0
 27 82  1  0  0  0  0
 28 62  2  0  0  0  0
 29 32  1  0  0  0  0
 29 86  1  0  0  0  0
 30 64  1  0  0  0  0
 30 67  1  0  0  0  0
 31 69  1  0  0  0  0
 31 86  1  0  0  0  0
 32 63  2  0  0  0  0
 33 68  1  0  0  0  0
 33 73  2  0  0  0  0
 34 49  1  0  0  0  0
 34 70  1  0  0  0  0
 34 74  2  0  0  0  0
 35 57  1  0  0  0  0
 35 65  1  0  0  0  0
 35 75  2  0  0  0  0
 36 58  1  0  0  0  0
 36 71  1  0  0  0  0
 36 76  2  0  0  0  0
 37 59  1  0  0  0  0
 37 69  1  0  0  0  0
 37 77  2  0  0  0  0
 38 63  1  0  0  0  0
 38 66  1  0  0  0  0
 38 78  2  0  0  0  0
 39 42  1  0  0  0  0
 40 49  1  0  0  0  0
 41 65  1  0  0  0  0
 42 44  1  0  0  0  0
 43 45  1  0  0  0  0
 43 46  1  0  0  0  0
 44 48  1  0  0  0  0
 45 50  1  0  0  0  0
 46 66  1  0  0  0  0
 47 50  1  0  0  0  0
 47 66  1  0  0  0  0
 48 70  1  0  0  0  0
 49 65  1  0  0  0  0
 50 64  1  0  0  0  0
 51 58  1  0  0  0  0
 52 59  1  0  0  0  0
 53 61  1  0  0  0  0
 54 61  1  0  0  0  0
 55 61  1  0  0  0  0
 56 72  1  0  0  0  0
 57 61  1  0  0  0  0
 57 71  1  0  0  0  0
 58 72  1  0  0  0  0
 59 80  1  0  0  0  0
 60 83  1  0  0  0  0
 60 84  1  0  0  0  0
 60 85  1  0  0  0  0
 62 64  1  0  0  0  0
M  CHG  1  72   1
M  ISO  4  38 100  59 101  63 100  80 101
M  END
> <Batch ID>
0180

> <Smiles>
CNC(C)C(=O)NC(C(=O)N1Cc2cc([101O:1][101CH:1](C)C(=O)Nc3cc(C(F)(F)F)c(C=[100N:0][100C:0](=O)N4CCCC(n5nc(-c6ccc(Oc7ccc(F)cc7F)cc6)c(C(N)=O)c5N)C4)s3)ccc2CC1C(=O)NC1CCCc2ccccc21)C(C)(C)C

> <Shape>
0.159

> <Color>
0.175

> <Negative vol penalty>
0.000

$$$$

  -OEChem-04052304503D

 85 93  0     1  0  0  0  0  0999 V2000
  -19.8611  -23.8681   21.8514 C   0  0  0  0  0  0  0  0  0  0  0  0
  -21.0463  -24.3036   21.2675 C   0  0  0  0  0  0  0  0  0  0  0  0
  -26.1175  -12.8515   21.5095 C   0  0  0  0  0  0  0  0  0  0  0  0
  -25.8709  -13.2060   19.1325 C   0  0  0  0  0  0  0  0  0  0  0  0
  -18.9409  -24.7973   22.3348 C   0  0  0  0  0  0  0  0  0  0  0  0
  -21.3116  -25.6687   21.1657 C   0  0  0  0  0  0  0  0  0  0  0  0
  -26.0582  -26.8299   22.4948 C   0  0  0  0  0  0  0  0  0  0  0  0
  -24.9322  -12.1164   21.5229 C   0  0  0  0  0  0  0  0  0  0  0  0
  -24.6856  -12.4709   19.1458 C   0  0  0  0  0  0  0  0  0  0  0  0
  -27.0617  -26.5726   21.5618 C   0  0  0  0  0  0  0  0  0  0  0  0
  -23.9292   -8.9924   20.7056 C   0  0  0  0  0  0  0  0  0  0  0  0
  -23.9197   -7.7906   21.4134 C   0  0  0  0  0  0  0  0  0  0  0  0
  -27.0623  -28.9006   20.9296 C   0  0  0  0  0  0  0  0  0  0  0  0
  -22.1510   -8.6361   22.8255 C   0  0  0  0  0  0  0  0  0  0  0  0
  -26.5869  -13.3964   20.3143 C   0  0  0  0  0  0  0  0  0  0  0  0
  -29.1138  -13.6656   20.0914 C   0  0  0  0  0  0  0  0  0  0  0  0
  -19.1994  -26.1744   22.2476 C   0  0  0  0  0  0  0  0  0  0  0  0
  -25.5407  -28.1245   22.6448 C   0  0  0  0  0  0  0  0  0  0  0  0
  -20.3934  -26.6173   21.6472 C   0  0  0  0  0  0  0  0  0  0  0  0
  -26.0541  -29.1721   21.8670 C   0  0  0  0  0  0  0  0  0  0  0  0
  -24.2162  -11.9260   20.3410 C   0  0  0  0  0  0  0  0  0  0  0  0
  -27.5619  -27.6075   20.7769 C   0  0  0  0  0  0  0  0  0  0  0  0
  -23.0496  -10.0162   21.0578 C   0  0  0  0  0  0  0  0  0  0  0  0
  -23.0306   -7.6124   22.4734 C   0  0  0  0  0  0  0  0  0  0  0  0
  -22.1605   -9.8380   22.1177 C   0  0  0  0  0  0  0  0  0  0  0  0
  -27.8110  -14.1563   20.3000 C   0  0  0  0  0  0  0  0  0  0  0  0
  -29.0949  -22.4163   15.2404 C   0  0  0  0  0  0  0  0  0  0  0  0
  -28.7236  -21.3894   14.3979 C   0  0  0  0  0  0  0  0  0  0  0  0
  -29.9166  -14.7771   20.1731 C   0  0  0  0  0  0  0  0  0  0  0  0
  -28.7807  -20.8524   16.7454 C   0  0  0  0  0  0  0  0  0  0  0  0
  -28.2791  -26.4612   18.8685 C   0  0  0  0  0  0  0  0  0  1  0  0
  -29.5587  -12.3249   19.8458 C   0  0  0  0  0  0  0  0  0  0  0  0
  -29.4500  -23.7895   14.7810 C   0  0  0  0  0  0  0  0  0  0  0  0
  -29.1675  -26.1417   17.9201 C   0  0  0  0  0  0  0  0  0  0  0  0
  -28.7883  -25.1445   16.8697 C   0  0  0  0  0  0  0  0  0  0  0  0
  -22.6790  -29.4544   22.2635 C   0  0  0  0  0  0  0  0  0  0  0  0
  -24.1571  -32.0624   23.5029 C   0  0  0  0  0  0  0  0  0  0  0  0
  -27.0710  -33.7484   24.0629 C   0  0  0  0  0  0  0  0  0  0  0  0
  -28.9352  -20.5981   19.2470 C   0  0  0  0  0  0  0  0  0  0  0  0
  -18.1533  -27.1421   22.7413 C   0  0  0  0  0  0  0  0  0  0  0  0
  -24.4771  -28.3907   23.6746 C   0  0  0  0  0  0  0  0  0  0  0  0
  -25.5467  -30.5836   22.0037 C   0  0  0  0  0  0  0  0  0  0  0  0
  -18.6794  -28.5621   22.9336 C   0  0  0  0  0  0  0  0  0  0  0  0
  -30.1399  -19.0914   22.2396 C   0  0  0  0  0  0  0  0  0  0  0  0
  -19.5040  -28.9940   21.7251 C   0  0  0  0  0  0  0  0  0  0  0  0
  -29.8034  -17.6093   22.0602 C   0  0  0  0  0  0  0  0  0  0  0  0
  -29.0552  -19.9941   21.6544 C   0  0  0  0  0  0  0  0  0  0  0  0
  -28.3649  -18.2316   20.0777 C   0  0  0  0  0  0  0  0  0  0  0  0
  -20.7284  -28.0893   21.5408 C   0  0  1  0  0  0  0  0  0  0  0  0
  -23.6635  -29.6476   23.3820 C   0  0  1  0  0  0  0  0  0  0  0  0
  -29.4593  -17.2831   20.5937 C   0  0  2  0  0  0  0  0  0  0  0  0
  -28.5827  -21.3633   12.9278 C   0  0  0  0  0  0  0  0  0  0  0  0
  -27.9571  -35.8712   25.0658 C   0  0  0  0  0  0  0  0  0  0  0  0
  -23.1837  -33.6177   21.0650 C   0  0  0  0  0  0  0  0  0  0  0  0
  -24.8491  -35.4013   21.6247 C   0  0  0  0  0  0  0  0  0  0  0  0
  -23.0175  -34.8597   23.2293 C   0  0  0  0  0  0  0  0  0  0  0  0
  -28.6938  -32.2699   26.0477 C   0  0  0  0  0  0  0  0  0  0  0  0
  -29.8413  -24.8247   15.8211 C   0  0  0  0  0  0  0  0  0  0  0  0
  -24.9259  -33.2286   22.9302 C   0  0  1  0  0  0  0  0  0  0  0  0
  -27.6300  -34.4065   25.3115 C   0  0  2  0  0  0  0  0  0  0  0  0
  -24.0024  -34.2499   22.2081 C   0  0  0  0  0  0  0  0  0  0  0  0
  -27.7831  -15.4767   20.4993 N   0  0  0  0  0  0  0  0  0  0  0  0
  -29.1278  -22.1104   16.5869 N   0  0  0  0  0  0  0  0  0  0  0  0
  -29.0784  -15.8251   20.4165 N   0  0  0  0  0  0  0  0  0  0  0  0
  -24.5020  -30.7921   23.0199 N   0  0  0  0  0  0  0  0  0  0  0  0
  -28.7852  -19.6296   20.2620 N   0  0  0  0  0  0  0  0  0  0  0  0
  -31.2506  -14.9504   20.0598 N   0  0  0  0  0  0  0  0  0  0  0  0
  -28.6016  -11.3024   19.7933 N   0  0  0  0  0  0  0  0  0  0  0  0
  -28.6827  -20.1274   17.9589 N   0  0  0  0  0  0  0  0  0  0  0  0
  -21.7649  -28.4426   22.4870 N   0  0  0  0  0  0  0  0  0  0  0  0
  -25.6931  -33.7937   24.0350 N   0  0  0  0  0  0  0  0  0  0  0  0
  -28.8749  -33.7138   25.7490 N   0  3  0  0  0  0  0  0  0  0  0  0
  -30.7708  -12.0396   19.6941 O   0  0  0  0  0  0  0  0  0  0  0  0
  -29.3902  -24.0492   13.5819 O   0  0  0  0  0  0  0  0  0  0  0  0
  -27.6661  -24.6427   16.8501 O   0  0  0  0  0  0  0  0  0  0  0  0
  -22.7430  -30.1714   21.2717 O   0  0  0  0  0  0  0  0  0  0  0  0
  -23.2876  -32.2702   24.3529 O   0  0  0  0  0  0  0  0  0  0  0  0
  -27.7853  -33.2477   23.1971 O   0  0  0  0  0  0  0  0  0  0  0  0
  -29.2899  -21.7526   19.4989 O   0  0  0  0  0  0  0  0  0  0  0  0
  -30.4302  -26.6913   17.8649 O   0  0  0  0  0  0  0  0  0  0  0  0
  -23.0597  -11.2086   20.3536 O   0  0  0  0  0  0  0  0  0  0  0  0
  -28.5409  -27.3590   19.8650 O   0  0  0  0  0  0  0  0  0  1  0  0
  -23.0205   -6.4576   23.1520 F   0  0  0  0  0  0  0  0  0  0  0  0
  -21.3123  -10.8175   22.4599 F   0  0  0  0  0  0  0  0  0  0  0  0
  -28.4021  -19.9782   15.3180 S   0  0  0  0  0  0  0  0  0  0  0  0
  1  2  1  0  0  0  0
  1  5  2  0  0  0  0
  2  6  2  0  0  0  0
  3  8  2  0  0  0  0
  3 15  1  0  0  0  0
  4  9  1  0  0  0  0
  4 15  2  0  0  0  0
  5 17  1  0  0  0  0
  6 19  1  0  0  0  0
  7 10  2  0  0  0  0
  7 18  1  0  0  0  0
  8 21  1  0  0  0  0
  9 21  2  0  0  0  0
 10 22  1  0  0  0  0
 11 12  2  0  0  0  0
 11 23  1  0  0  0  0
 12 24  1  0  0  0  0
 13 20  1  0  0  0  0
 13 22  2  0  0  0  0
 14 24  2  0  0  0  0
 14 25  1  0  0  0  0
 15 26  1  0  0  0  0
 16 26  1  0  0  0  0
 16 29  2  0  0  0  0
 16 32  1  0  0  0  0
 17 19  2  0  0  0  0
 17 40  1  0  0  0  0
 18 20  2  0  0  0  0
 18 41  1  0  0  0  0
 19 49  1  0  0  0  0
 20 42  1  0  0  0  0
 21 81  1  0  0  0  0
 22 82  1  0  0  0  0
 23 25  2  0  0  0  0
 23 81  1  0  0  0  0
 24 83  1  0  0  0  0
 25 84  1  0  0  0  0
 26 62  2  0  0  0  0
 27 28  2  0  0  0  0
 27 33  1  0  0  0  0
 27 63  1  0  0  0  0
 28 52  1  0  0  0  0
 28 85  1  0  0  0  0
 29 64  1  0  0  0  0
 29 67  1  0  0  0  0
 30 63  2  0  0  0  0
 30 69  1  0  0  0  0
 30 85  1  0  0  0  0
 31 34  2  0  0  0  0
 31 82  1  0  0  0  0
 32 68  1  0  0  0  0
 32 73  2  0  0  0  0
 33 58  1  0  0  0  0
 33 74  2  0  0  0  0
 34 35  1  0  0  0  0
 34 80  1  0  0  0  0
 35 58  1  0  0  0  0
 35 75  2  0  0  0  0
 36 50  1  0  0  0  0
 36 70  1  0  0  0  0
 36 76  2  0  0  0  0
 37 59  1  0  0  0  0
 37 65  1  0  0  0  0
 37 77  2  0  0  0  0
 38 60  1  0  0  0  0
 38 71  1  0  0  0  0
 38 78  2  0  0  0  0
 39 66  1  0  0  0  0
 39 69  1  0  0  0  0
 39 79  2  0  0  0  0
 40 43  1  0  0  0  0
 41 50  1  0  0  0  0
 42 65  1  0  0  0  0
 43 45  1  0  0  0  0
 44 46  1  0  0  0  0
 44 47  1  0  0  0  0
 45 49  1  0  0  0  0
 46 51  1  0  0  0  0
 47 66  1  0  0  0  0
 48 51  1  0  0  0  0
 48 66  1  0  0  0  0
 49 70  1  0  0  0  0
 50 65  1  0  0  0  0
 51 64  1  0  0  0  0
 53 60  1  0  0  0  0
 54 61  1  0  0  0  0
 55 61  1  0  0  0  0
 56 61  1  0  0  0  0
 57 72  1  0  0  0  0
 59 61  1  0  0  0  0
 59 71  1  0  0  0  0
 60 72  1  0  0  0  0
 62 64  1  0  0  0  0
M  CHG  1  72   1
M  ISO  4  31 101  39 100  69 100  82 101
M  END
> <Batch ID>
0180

> <Smiles>
CNC(C)C(=O)NC(C(=O)N1Cc2cc([101O:1][101CH2:1]C(=O)C(=O)CC(=O)c3nc([100NH:0][100C:0](=O)N4CCCC(n5nc(-c6ccc(Oc7ccc(F)cc7F)cc6)c(C(N)=O)c5N)C4)sc3C)ccc2CC1C(=O)NC1CCCc2ccccc21)C(C)(C)C

> <Shape>
0.334

> <Color>
0.113

> <Negative vol penalty>
0.000

$$$$

  -OEChem-04052304503D

 87 95  0     1  0  0  0  0  0999 V2000
  -22.4480  -11.7092   25.2538 C   0  0  0  0  0  0  0  0  0  0  0  0
  -23.0566  -12.9463   25.4397 C   0  0  0  0  0  0  0  0  0  0  0  0
  -23.1976   -9.7680   19.9027 C   0  0  0  0  0  0  0  0  0  0  0  0
  -23.8057   -9.8993   22.2373 C   0  0  0  0  0  0  0  0  0  0  0  0
  -21.1398  -11.6418   24.7761 C   0  0  0  0  0  0  0  0  0  0  0  0
  -22.3577  -14.1169   25.1469 C   0  0  0  0  0  0  0  0  0  0  0  0
  -22.8867  -17.6457   28.7403 C   0  0  0  0  0  0  0  0  0  0  0  0
  -22.4729   -8.6037   20.1569 C   0  0  0  0  0  0  0  0  0  0  0  0
  -23.0810   -8.7349   22.4915 C   0  0  0  0  0  0  0  0  0  0  0  0
  -24.0786  -18.3688   28.7520 C   0  0  0  0  0  0  0  0  0  0  0  0
  -21.0936   -5.9965   23.8218 C   0  0  0  0  0  0  0  0  0  0  0  0
  -20.2642   -5.9798   24.9431 C   0  0  0  0  0  0  0  0  0  0  0  0
  -22.9720  -20.1993   27.6367 C   0  0  0  0  0  0  0  0  0  0  0  0
  -31.5570  -17.7979   21.8714 C   0  0  0  0  0  0  0  0  0  0  0  0
  -19.0141   -7.8425   24.0460 C   0  0  0  0  0  0  0  0  0  0  0  0
  -23.8641  -10.4158   20.9429 C   0  0  0  0  0  0  0  0  0  0  0  0
  -24.1393  -12.9430   20.7301 C   0  0  0  0  0  0  0  0  0  0  0  0
  -20.4212  -12.8124   24.4865 C   0  0  0  0  0  0  0  0  0  0  0  0
  -21.7292  -18.1905   28.1660 C   0  0  0  0  0  0  0  0  0  0  0  0
  -21.0391  -14.0651   24.6636 C   0  0  0  0  0  0  0  0  0  0  0  0
  -21.7660  -19.4820   27.6212 C   0  0  0  0  0  0  0  0  0  0  0  0
  -31.5649  -19.0871   22.4780 C   0  0  0  0  0  0  0  0  0  0  0  0
  -22.4146   -8.0871   21.4513 C   0  0  0  0  0  0  0  0  0  0  0  0
  -24.1222  -19.6446   28.1976 C   0  0  0  0  0  0  0  0  0  0  0  0
  -20.8834   -6.9362   22.8127 C   0  0  0  0  0  0  0  0  0  0  0  0
  -19.2244   -6.9028   25.0552 C   0  0  0  0  0  0  0  0  0  0  0  0
  -19.8436   -7.8592   22.9248 C   0  0  0  0  0  0  0  0  0  0  0  0
  -24.6133  -11.6183   20.6809 C   0  0  0  0  0  0  0  0  0  0  0  0
  -25.2306  -13.7105   20.4036 C   0  0  0  0  0  0  0  0  0  0  0  0
  -30.3522  -17.1525   22.0433 C   0  0  0  0  0  0  0  0  0  0  0  0
  -30.3656  -19.3781   23.0904 C   0  0  0  0  0  0  0  0  0  0  0  0
  -22.8297  -13.4356   21.0430 C   0  0  0  0  0  0  0  0  0  0  0  0
  -19.8402  -17.3910   25.7378 C   0  0  0  0  0  0  0  0  0  0  0  0
  -26.9715  -21.4413   26.8507 C   0  0  0  0  0  0  0  0  0  0  0  0
  -18.0429  -19.8600   26.8313 C   0  0  0  0  0  0  0  0  0  0  0  0
  -28.6967  -20.7390   24.3959 C   0  0  0  0  0  0  0  0  0  0  0  0
  -17.8998  -22.7890   28.5770 C   0  0  0  0  0  0  0  0  0  0  0  0
  -30.6410  -14.9370   20.8794 C   0  0  0  0  0  0  0  0  0  0  0  0
  -19.0260  -12.6881   23.9274 C   0  0  0  0  0  0  0  0  0  0  0  0
  -20.4447  -17.4082   28.1853 C   0  0  0  0  0  0  0  0  0  0  0  0
  -20.5460  -20.1202   27.0106 C   0  0  0  0  0  0  0  0  0  0  0  0
  -18.2243  -13.9854   23.9965 C   0  0  0  0  0  0  0  0  0  0  0  0
  -29.7542  -12.3881   18.5571 C   0  0  0  0  0  0  0  0  0  0  0  0
  -19.0641  -15.1589   23.5023 C   0  0  0  0  0  0  0  0  0  0  0  0
  -28.2987  -12.0695   18.9066 C   0  0  0  0  0  0  0  0  0  0  0  0
  -30.5819  -12.6981   19.8030 C   0  0  0  0  0  0  0  0  0  0  0  0
  -28.5686  -13.4206   21.0253 C   0  0  0  0  0  0  0  0  0  0  0  0
  -20.3051  -15.3579   24.3809 C   0  0  1  0  0  0  0  0  0  0  0  0
  -19.4558  -17.8567   27.1136 C   0  0  1  0  0  0  0  0  0  0  0  0
  -27.6802  -13.1652   19.7968 C   0  0  2  0  0  0  0  0  0  0  0  0
  -33.1201  -20.4272   21.0154 C   0  0  0  0  0  0  0  0  0  0  0  0
  -33.9694  -19.4126   23.1611 C   0  0  0  0  0  0  0  0  0  0  0  0
  -16.2999  -24.5954   29.2660 C   0  0  0  0  0  0  0  0  0  0  0  0
  -18.1269  -21.0088   24.0059 C   0  0  0  0  0  0  0  0  0  0  0  0
  -17.3672  -23.2000   24.9492 C   0  0  0  0  0  0  0  0  0  0  0  0
  -15.9048  -21.1881   25.1393 C   0  0  0  0  0  0  0  0  0  0  0  0
  -18.3365  -22.2397   31.4521 C   0  0  0  0  0  0  0  0  0  0  0  0
  -27.3191  -22.4152   25.7344 C   0  0  0  0  0  0  0  0  0  0  0  0
  -25.4921  -21.2746   27.1380 C   0  0  0  0  0  0  0  0  0  1  0  0
  -28.6535  -22.1104   25.0605 C   0  0  0  0  0  0  0  0  0  0  0  0
  -32.7328  -19.9999   22.4474 C   0  0  0  0  0  0  0  0  0  0  0  0
  -17.9888  -21.3445   26.5621 C   0  0  1  0  0  0  0  0  0  0  0  0
  -16.9460  -23.2744   29.6536 C   0  0  2  0  0  0  0  0  0  0  0  0
  -17.3706  -21.6729   25.1738 C   0  0  0  0  0  0  0  0  0  0  0  0
  -25.9050  -11.5449   20.3491 N   0  0  0  0  0  0  0  0  0  0  0  0
  -26.2520  -12.8331   20.1867 N   0  0  0  0  0  0  0  0  0  0  0  0
  -19.3155  -19.3128   27.0479 N   0  0  0  0  0  0  0  0  0  0  0  0
  -29.9371  -13.7477   20.5951 N   0  0  0  0  0  0  0  0  0  0  0  0
  -25.4064  -15.0436   20.2836 N   0  0  0  0  0  0  0  0  0  0  0  0
  -21.8249  -12.5101   21.3560 N   0  0  0  0  0  0  0  0  0  0  0  0
  -29.9371  -20.5240   23.8017 N   0  0  0  0  0  0  0  0  0  0  0  0
  -29.9149  -15.8756   21.6119 N   0  0  0  0  0  0  0  0  0  0  0  0
  -19.9479  -16.0186   25.6179 N   0  0  0  0  0  0  0  0  0  0  0  0
  -17.2769  -21.9380   27.6887 N   0  0  0  0  0  0  0  0  0  0  0  0
  -17.6721  -23.4662   30.9408 N   0  3  0  0  0  0  0  0  0  0  0  0
  -22.5545  -14.6594   21.0291 O   0  0  0  0  0  0  0  0  0  0  0  0
  -20.0241  -18.2157   24.8502 O   0  0  0  0  0  0  0  0  0  0  0  0
  -27.8269  -20.8224   27.4816 O   0  0  0  0  0  0  0  0  0  0  0  0
  -16.9940  -19.2113   26.8558 O   0  0  0  0  0  0  0  0  0  0  0  0
  -27.7396  -19.9724   24.4183 O   0  0  0  0  0  0  0  0  0  0  0  0
  -19.0784  -23.1336   28.5267 O   0  0  0  0  0  0  0  0  0  0  0  0
  -31.7928  -15.1213   20.4777 O   0  0  0  0  0  0  0  0  0  0  0  0
  -21.7073   -6.9510   21.6997 O   0  0  0  0  0  0  0  0  0  0  0  0
  -25.2844  -20.3524   28.2071 O   0  0  0  0  0  0  0  0  0  1  0  0
  -18.4269   -6.8856   26.1313 F   0  0  0  0  0  0  0  0  0  0  0  0
  -19.6360   -8.7637   21.9580 F   0  0  0  0  0  0  0  0  0  0  0  0
  -29.2371  -18.0999   22.9330 S   0  0  0  0  0  0  0  0  0  0  0  0
  1  2  1  0  0  0  0
  1  5  2  0  0  0  0
  2  6  2  0  0  0  0
  3  8  2  0  0  0  0
  3 16  1  0  0  0  0
  4  9  1  0  0  0  0
  4 16  2  0  0  0  0
  5 18  1  0  0  0  0
  6 20  1  0  0  0  0
  7 10  2  0  0  0  0
  7 19  1  0  0  0  0
  8 23  1  0  0  0  0
  9 23  2  0  0  0  0
 10 24  1  0  0  0  0
 11 12  2  0  0  0  0
 11 25  1  0  0  0  0
 12 26  1  0  0  0  0
 13 21  1  0  0  0  0
 13 24  2  0  0  0  0
 14 22  1  0  0  0  0
 14 30  2  0  0  0  0
 15 26  2  0  0  0  0
 15 27  1  0  0  0  0
 16 28  1  0  0  0  0
 17 28  1  0  0  0  0
 17 29  2  0  0  0  0
 17 32  1  0  0  0  0
 18 20  2  0  0  0  0
 18 39  1  0  0  0  0
 19 21  2  0  0  0  0
 19 40  1  0  0  0  0
 20 48  1  0  0  0  0
 21 41  1  0  0  0  0
 22 31  2  0  0  0  0
 22 61  1  0  0  0  0
 23 83  1  0  0  0  0
 24 84  1  0  0  0  0
 25 27  2  0  0  0  0
 25 83  1  0  0  0  0
 26 85  1  0  0  0  0
 27 86  1  0  0  0  0
 28 65  2  0  0  0  0
 29 66  1  0  0  0  0
 29 69  1  0  0  0  0
 30 72  1  0  0  0  0
 30 87  1  0  0  0  0
 31 71  1  0  0  0  0
 31 87  1  0  0  0  0
 32 70  1  0  0  0  0
 32 76  2  0  0  0  0
 33 49  1  0  0  0  0
 33 73  1  0  0  0  0
 33 77  2  0  0  0  0
 34 58  1  0  0  0  0
 34 59  1  0  0  0  0
 34 78  2  0  0  0  0
 35 62  1  0  0  0  0
 35 67  1  0  0  0  0
 35 79  2  0  0  0  0
 36 60  1  0  0  0  0
 36 71  1  0  0  0  0
 36 80  2  0  0  0  0
 37 63  1  0  0  0  0
 37 74  1  0  0  0  0
 37 81  2  0  0  0  0
 38 68  1  0  0  0  0
 38 72  1  0  0  0  0
 38 82  2  0  0  0  0
 39 42  1  0  0  0  0
 40 49  1  0  0  0  0
 41 67  1  0  0  0  0
 42 44  1  0  0  0  0
 43 45  1  0  0  0  0
 43 46  1  0  0  0  0
 44 48  1  0  0  0  0
 45 50  1  0  0  0  0
 46 68  1  0  0  0  0
 47 50  1  0  0  0  0
 47 68  1  0  0  0  0
 48 73  1  0  0  0  0
 49 67  1  0  0  0  0
 50 66  1  0  0  0  0
 51 61  1  0  0  0  0
 52 61  1  0  0  0  0
 53 63  1  0  0  0  0
 54 64  1  0  0  0  0
 55 64  1  0  0  0  0
 56 64  1  0  0  0  0
 57 75  1  0  0  0  0
 58 60  1  0  0  0  0
 59 84  1  0  0  0  0
 62 64  1  0  0  0  0
 62 74  1  0  0  0  0
 63 75  1  0  0  0  0
 65 66  1  0  0  0  0
M  CHG  1  75   1
M  ISO  4  38 100  59 101  72 100  84 101
M  END
> <Batch ID>
0180

> <Smiles>
CNC(C)C(=O)NC(C(=O)N1Cc2cc([101O:1][101CH2:1]C(=O)CCC(=O)Nc3sc([100NH:0][100C:0](=O)N4CCCC(n5nc(-c6ccc(Oc7ccc(F)cc7F)cc6)c(C(N)=O)c5N)C4)cc3C(C)C)ccc2CC1C(=O)NC1CCCc2ccccc21)C(C)(C)C

> <Shape>
0.158

> <Color>
0.178

> <Negative vol penalty>
0.000

$$$$

  -OEChem-04052304503D

 83 91  0     1  0  0  0  0  0999 V2000
  -36.6612  -26.8520   16.1610 C   0  0  0  0  0  0  0  0  0  0  0  0
  -35.6070  -26.4674   16.9832 C   0  0  0  0  0  0  0  0  0  0  0  0
  -23.0755   -9.8692   19.9468 C   0  0  0  0  0  0  0  0  0  0  0  0
  -23.8351   -9.8828   22.2403 C   0  0  0  0  0  0  0  0  0  0  0  0
  -36.8899  -28.2042   15.9093 C   0  0  0  0  0  0  0  0  0  0  0  0
  -34.7814  -27.4347   17.5551 C   0  0  0  0  0  0  0  0  0  0  0  0
  -29.8708  -26.2451   17.2157 C   0  0  0  0  0  0  0  0  0  0  0  0
  -22.3318   -8.7166   20.1999 C   0  0  0  0  0  0  0  0  0  0  0  0
  -23.0914   -8.7302   22.4934 C   0  0  0  0  0  0  0  0  0  0  0  0
  -29.3800  -25.3029   18.1186 C   0  0  0  0  0  0  0  0  0  0  0  0
  -19.8633   -7.9335   23.0977 C   0  0  0  0  0  0  0  0  0  0  0  0
  -19.1062   -7.8967   24.2686 C   0  0  0  0  0  0  0  0  0  0  0  0
  -28.4755  -27.0817   19.4739 C   0  0  0  0  0  0  0  0  0  0  0  0
  -20.3478   -5.9616   25.0107 C   0  0  0  0  0  0  0  0  0  0  0  0
  -31.8097  -18.7351   22.2333 C   0  0  0  0  0  0  0  0  0  0  0  0
  -23.8272  -10.4523   20.9670 C   0  0  0  0  0  0  0  0  0  0  0  0
  -24.1686  -12.9771   20.8399 C   0  0  0  0  0  0  0  0  0  0  0  0
  -36.0609  -29.1882   16.4707 C   0  0  0  0  0  0  0  0  0  0  0  0
  -29.6767  -27.6155   17.4412 C   0  0  0  0  0  0  0  0  0  0  0  0
  -35.0001  -28.8014   17.3118 C   0  0  0  0  0  0  0  0  0  0  0  0
  -28.9625  -28.0391   18.5711 C   0  0  0  0  0  0  0  0  0  0  0  0
  -22.3397   -8.1471   21.4732 C   0  0  0  0  0  0  0  0  0  0  0  0
  -28.6847  -25.7212   19.2494 C   0  0  0  0  0  0  0  0  0  0  0  0
  -20.8626   -6.9843   22.8832 C   0  0  0  0  0  0  0  0  0  0  0  0
  -19.3485   -6.9108   25.2251 C   0  0  0  0  0  0  0  0  0  0  0  0
  -21.1049   -5.9983   23.8397 C   0  0  0  0  0  0  0  0  0  0  0  0
  -24.5961  -11.6425   20.7060 C   0  0  0  0  0  0  0  0  0  0  0  0
  -30.7079  -19.1039   22.9765 C   0  0  0  0  0  0  0  0  0  0  0  0
  -25.2607  -13.7258   20.4747 C   0  0  0  0  0  0  0  0  0  0  0  0
  -30.5717  -16.9572   21.8924 C   0  0  0  0  0  0  0  0  0  0  0  0
  -29.0997  -23.9712   20.7446 C   0  0  0  0  0  0  0  0  0  1  0  0
  -22.8980  -13.4939   21.2572 C   0  0  0  0  0  0  0  0  0  0  0  0
  -28.8195  -23.0098   21.6384 C   0  0  0  0  0  0  0  0  0  0  0  0
  -29.9598  -22.2097   22.1894 C   0  0  0  0  0  0  0  0  0  0  0  0
  -31.5958  -30.1045   17.9163 C   0  0  0  0  0  0  0  0  0  0  0  0
  -28.8199  -31.7766   17.7713 C   0  0  0  0  0  0  0  0  0  0  0  0
  -25.4252  -31.7919   18.1216 C   0  0  0  0  0  0  0  0  0  0  0  0
  -30.7267  -14.7727   20.6473 C   0  0  0  0  0  0  0  0  0  0  0  0
  -36.3762  -30.6394   16.2078 C   0  0  0  0  0  0  0  0  0  0  0  0
  -30.1892  -28.6180   16.4439 C   0  0  0  0  0  0  0  0  0  0  0  0
  -28.7097  -29.4978   18.8485 C   0  0  0  0  0  0  0  0  0  0  0  0
  -35.2272  -31.5842   16.5508 C   0  0  0  0  0  0  0  0  0  0  0  0
  -29.6130  -12.3522   18.2855 C   0  0  0  0  0  0  0  0  0  0  0  0
  -34.6438  -31.2410   17.9178 C   0  0  0  0  0  0  0  0  0  0  0  0
  -28.1733  -12.0616   18.7157 C   0  0  0  0  0  0  0  0  0  0  0  0
  -30.5279  -12.5844   19.4866 C   0  0  0  0  0  0  0  0  0  0  0  0
  -28.6207  -13.3124   20.8657 C   0  0  0  0  0  0  0  0  0  0  0  0
  -34.0675  -29.8200   17.9306 C   0  0  1  0  0  0  0  0  0  0  0  0
  -30.3793  -30.0097   17.0394 C   0  0  1  0  0  0  0  0  0  0  0  0
  -27.6480  -13.1358   19.6882 C   0  0  2  0  0  0  0  0  0  0  0  0
  -23.4365  -33.3152   17.9740 C   0  0  0  0  0  0  0  0  0  0  0  0
  -29.5682  -33.0102   20.4598 C   0  0  0  0  0  0  0  0  0  0  0  0
  -27.1890  -33.7505   20.7036 C   0  0  0  0  0  0  0  0  0  0  0  0
  -28.5747  -34.6129   18.8171 C   0  0  0  0  0  0  0  0  0  0  0  0
  -24.2083  -30.1836   15.9557 C   0  0  0  0  0  0  0  0  0  0  0  0
  -30.4594  -20.3525   23.7724 C   0  0  0  0  0  0  0  0  0  0  0  0
  -27.7809  -32.2128   18.7759 C   0  0  1  0  0  0  0  0  0  0  0  0
  -24.3227  -32.3302   17.2276 C   0  0  2  0  0  0  0  0  0  0  0  0
  -28.2845  -33.3691   19.6852 C   0  0  0  0  0  0  0  0  0  0  0  0
  -31.7335  -17.5043   21.6113 N   0  0  0  0  0  0  0  0  0  0  0  0
  -25.8611  -11.5457   20.2882 N   0  0  0  0  0  0  0  0  0  0  0  0
  -26.2378  -12.8290   20.1563 N   0  0  0  0  0  0  0  0  0  0  0  0
  -29.2361  -30.4399   17.8470 N   0  0  0  0  0  0  0  0  0  0  0  0
  -29.9687  -13.6176   20.3611 N   0  0  0  0  0  0  0  0  0  0  0  0
  -25.4709  -15.0571   20.3980 N   0  0  0  0  0  0  0  0  0  0  0  0
  -21.8862  -12.5855   21.5969 N   0  0  0  0  0  0  0  0  0  0  0  0
  -30.0791  -15.6999   21.4631 N   0  0  0  0  0  0  0  0  0  0  0  0
  -29.5485  -21.2509   23.0992 N   0  0  0  0  0  0  0  0  0  0  0  0
  -32.7783  -29.7914   17.2737 N   0  0  0  0  0  0  0  0  0  0  0  0
  -26.5818  -32.5342   18.0095 N   0  0  0  0  0  0  0  0  0  0  0  0
  -23.4694  -31.2148   16.7288 N   0  3  0  0  0  0  0  0  0  0  0  0
  -22.6615  -14.7246   21.3111 O   0  0  0  0  0  0  0  0  0  0  0  0
  -31.1231  -22.4092   21.8509 O   0  0  0  0  0  0  0  0  0  0  0  0
  -31.4709  -30.4385   19.0887 O   0  0  0  0  0  0  0  0  0  0  0  0
  -29.2412  -32.5899   16.9451 O   0  0  0  0  0  0  0  0  0  0  0  0
  -25.2742  -30.8132   18.8496 O   0  0  0  0  0  0  0  0  0  0  0  0
  -31.8559  -14.9403   20.1793 O   0  0  0  0  0  0  0  0  0  0  0  0
  -27.5510  -22.7103   22.0843 O   0  0  0  0  0  0  0  0  0  0  0  0
  -21.6139   -7.0226   21.7206 O   0  0  0  0  0  0  0  0  0  0  0  0
  -28.2052  -24.8037   20.1326 O   0  0  0  0  0  0  0  0  0  1  0  0
  -18.6224   -6.8765   26.3502 F   0  0  0  0  0  0  0  0  0  0  0  0
  -22.0644   -5.0844   23.6398 F   0  0  0  0  0  0  0  0  0  0  0  0
  -29.5216  -17.8678   22.8989 S   0  0  0  0  0  0  0  0  0  0  0  0
  1  2  1  0  0  0  0
  1  5  2  0  0  0  0
  2  6  2  0  0  0  0
  3  8  2  0  0  0  0
  3 16  1  0  0  0  0
  4  9  1  0  0  0  0
  4 16  2  0  0  0  0
  5 18  1  0  0  0  0
  6 20  1  0  0  0  0
  7 10  2  0  0  0  0
  7 19  1  0  0  0  0
  8 22  1  0  0  0  0
  9 22  2  0  0  0  0
 10 23  1  0  0  0  0
 11 12  2  0  0  0  0
 11 24  1  0  0  0  0
 12 25  1  0  0  0  0
 13 21  1  0  0  0  0
 13 23  2  0  0  0  0
 14 25  2  0  0  0  0
 14 26  1  0  0  0  0
 15 28  2  0  0  0  0
 15 60  1  0  0  0  0
 16 27  1  0  0  0  0
 17 27  1  0  0  0  0
 17 29  2  0  0  0  0
 17 32  1  0  0  0  0
 18 20  2  0  0  0  0
 18 39  1  0  0  0  0
 19 21  2  0  0  0  0
 19 40  1  0  0  0  0
 20 48  1  0  0  0  0
 21 41  1  0  0  0  0
 22 79  1  0  0  0  0
 23 80  1  0  0  0  0
 24 26  2  0  0  0  0
 24 79  1  0  0  0  0
 25 81  1  0  0  0  0
 26 82  1  0  0  0  0
 27 61  2  0  0  0  0
 28 56  1  0  0  0  0
 28 83  1  0  0  0  0
 29 62  1  0  0  0  0
 29 65  1  0  0  0  0
 30 60  2  0  0  0  0
 30 67  1  0  0  0  0
 30 83  1  0  0  0  0
 31 33  2  0  0  0  0
 31 80  1  0  0  0  0
 32 66  1  0  0  0  0
 32 72  2  0  0  0  0
 33 34  1  0  0  0  0
 33 78  1  0  0  0  0
 34 68  1  0  0  0  0
 34 73  2  0  0  0  0
 35 49  1  0  0  0  0
 35 69  1  0  0  0  0
 35 74  2  0  0  0  0
 36 57  1  0  0  0  0
 36 63  1  0  0  0  0
 36 75  2  0  0  0  0
 37 58  1  0  0  0  0
 37 70  1  0  0  0  0
 37 76  2  0  0  0  0
 38 64  1  0  0  0  0
 38 67  1  0  0  0  0
 38 77  2  0  0  0  0
 39 42  1  0  0  0  0
 40 49  1  0  0  0  0
 41 63  1  0  0  0  0
 42 44  1  0  0  0  0
 43 45  1  0  0  0  0
 43 46  1  0  0  0  0
 44 48  1  0  0  0  0
 45 50  1  0  0  0  0
 46 64  1  0  0  0  0
 47 50  1  0  0  0  0
 47 64  1  0  0  0  0
 48 69  1  0  0  0  0
 49 63  1  0  0  0  0
 50 62  1  0  0  0  0
 51 58  1  0  0  0  0
 52 59  1  0  0  0  0
 53 59  1  0  0  0  0
 54 59  1  0  0  0  0
 55 71  1  0  0  0  0
 56 68  1  0  0  0  0
 57 59  1  0  0  0  0
 57 70  1  0  0  0  0
 58 71  1  0  0  0  0
 61 62  1  0  0  0  0
M  CHG  1  71   1
M  ISO  4  31 101  38 100  67 100  80 101
M  END
> <Batch ID>
0180

> <Smiles>
CNC(C)C(=O)NC(C(=O)N1Cc2cc([101O:1][101CH2:1]C(=O)C(=O)NCc3cnc([100NH:0][100C:0](=O)N4CCCC(n5nc(-c6ccc(Oc7ccc(F)cc7F)cc6)c(C(N)=O)c5N)C4)s3)ccc2CC1C(=O)NC1CCCc2ccccc21)C(C)(C)C

> <Shape>
0.215

> <Color>
0.185

> <Negative vol penalty>
0.000

$$$$

  -OEChem-04052304503D

 86 94  0     1  0  0  0  0  0999 V2000
  -19.5082  -28.7431   26.3642 C   0  0  0  0  0  0  0  0  0  0  0  0
  -20.8660  -28.5836   26.1066 C   0  0  0  0  0  0  0  0  0  0  0  0
  -25.8909  -13.1514   21.8381 C   0  0  0  0  0  0  0  0  0  0  0  0
  -25.9710  -13.7195   19.4912 C   0  0  0  0  0  0  0  0  0  0  0  0
  -18.5728  -28.4527   25.3719 C   0  0  0  0  0  0  0  0  0  0  0  0
  -21.2892  -28.1324   24.8568 C   0  0  0  0  0  0  0  0  0  0  0  0
  -26.3813  -29.7784   21.8791 C   0  0  0  0  0  0  0  0  0  0  0  0
  -24.7437  -12.3901   21.6147 C   0  0  0  0  0  0  0  0  0  0  0  0
  -24.8238  -12.9581   19.2678 C   0  0  0  0  0  0  0  0  0  0  0  0
  -27.6315  -29.1742   21.7539 C   0  0  0  0  0  0  0  0  0  0  0  0
  -23.9831   -9.3326   20.3874 C   0  0  0  0  0  0  0  0  0  0  0  0
  -23.9178   -8.0703   20.9771 C   0  0  0  0  0  0  0  0  0  0  0  0
  -26.9417  -28.1944   19.6602 C   0  0  0  0  0  0  0  0  0  0  0  0
  -21.9366   -8.7383   22.1878 C   0  0  0  0  0  0  0  0  0  0  0  0
  -29.0365  -21.8732   15.8756 C   0  0  0  0  0  0  0  0  0  0  0  0
  -26.5045  -13.8162   20.7764 C   0  0  0  0  0  0  0  0  0  0  0  0
  -29.0258  -14.1653   20.9460 C   0  0  0  0  0  0  0  0  0  0  0  0
  -18.9852  -28.0070   24.1062 C   0  0  0  0  0  0  0  0  0  0  0  0
  -25.3965  -29.5860   20.8995 C   0  0  0  0  0  0  0  0  0  0  0  0
  -20.3583  -27.8345   23.8472 C   0  0  0  0  0  0  0  0  0  0  0  0
  -25.6807  -28.7994   19.7740 C   0  0  0  0  0  0  0  0  0  0  0  0
  -24.2102  -12.2935   20.3295 C   0  0  0  0  0  0  0  0  0  0  0  0
  -27.9109  -28.3797   20.6458 C   0  0  0  0  0  0  0  0  0  0  0  0
  -23.0251  -10.2979   20.6980 C   0  0  0  0  0  0  0  0  0  0  0  0
  -22.8946   -7.7731   21.8773 C   0  0  0  0  0  0  0  0  0  0  0  0
  -22.0019  -10.0007   21.5981 C   0  0  0  0  0  0  0  0  0  0  0  0
  -29.3652  -23.2106   16.0668 C   0  0  0  0  0  0  0  0  0  0  0  0
  -28.8003  -21.0570   16.9762 C   0  0  0  0  0  0  0  0  0  0  0  0
  -27.6893  -14.6032   21.0066 C   0  0  0  0  0  0  0  0  0  0  0  0
  -29.4445  -23.6794   17.3682 C   0  0  0  0  0  0  0  0  0  0  0  0
  -28.9051  -21.6221   18.2370 C   0  0  0  0  0  0  0  0  0  0  0  0
  -29.7672  -15.2833   21.2411 C   0  0  0  0  0  0  0  0  0  0  0  0
  -29.5504  -12.8643   20.6495 C   0  0  0  0  0  0  0  0  0  0  0  0
  -30.2768  -27.1601   18.5485 C   0  0  0  0  0  0  0  0  0  0  0  0
  -29.8885  -28.1010   19.4284 C   0  0  0  0  0  0  0  0  0  1  0  0
  -29.9138  -25.7190   18.7613 C   0  0  0  0  0  0  0  0  0  0  0  0
  -22.4877  -28.3048   20.8643 C   0  0  0  0  0  0  0  0  0  0  0  0
  -22.4525  -29.4315   17.8227 C   0  0  0  0  0  0  0  0  0  0  0  0
  -24.2242  -30.4097   15.0747 C   0  0  0  0  0  0  0  0  0  0  0  0
  -28.7124  -21.1401   20.7021 C   0  0  0  0  0  0  0  0  0  0  0  0
  -17.9348  -27.6606   23.0809 C   0  0  0  0  0  0  0  0  0  0  0  0
  -24.0620  -30.2664   21.0360 C   0  0  0  0  0  0  0  0  0  0  0  0
  -24.6648  -28.5778   18.6844 C   0  0  0  0  0  0  0  0  0  0  0  0
  -18.4840  -27.5453   21.6613 C   0  0  0  0  0  0  0  0  0  0  0  0
  -29.5351  -19.3909   23.6922 C   0  0  0  0  0  0  0  0  0  0  0  0
  -19.7618  -26.7124   21.6493 C   0  0  0  0  0  0  0  0  0  0  0  0
  -29.2826  -17.9243   23.3354 C   0  0  0  0  0  0  0  0  0  0  0  0
  -28.5118  -20.3179   23.0385 C   0  0  0  0  0  0  0  0  0  0  0  0
  -28.1179  -18.6937   21.2286 C   0  0  0  0  0  0  0  0  0  0  0  0
  -20.8577  -27.3711   22.4959 C   0  0  1  0  0  0  0  0  0  0  0  0
  -22.9586  -29.5844   20.2330 C   0  0  1  0  0  0  0  0  0  0  0  0
  -29.1624  -17.7277   21.8114 C   0  0  2  0  0  0  0  0  0  0  0  0
  -30.2211  -29.5585   19.2951 C   0  0  0  0  0  0  0  0  0  0  0  0
  -23.9181  -31.2433   12.7277 C   0  0  0  0  0  0  0  0  0  0  0  0
  -21.7172  -26.6112   16.9194 C   0  0  0  0  0  0  0  0  0  0  0  0
  -22.3529  -27.2672   14.5884 C   0  0  0  0  0  0  0  0  0  0  0  0
  -20.4788  -28.4390   15.7448 C   0  0  0  0  0  0  0  0  0  0  0  0
  -25.6337  -32.9436   15.6673 C   0  0  0  0  0  0  0  0  0  0  0  0
  -22.8578  -28.8845   16.4752 C   0  0  1  0  0  0  0  0  0  0  0  0
  -24.1084  -31.6342   14.1850 C   0  0  2  0  0  0  0  0  0  0  0  0
  -21.8704  -27.8029   15.9533 C   0  0  0  0  0  0  0  0  0  0  0  0
  -27.5845  -15.8983   21.3160 N   0  0  0  0  0  0  0  0  0  0  0  0
  -29.2221  -22.9168   18.4622 N   0  0  0  0  0  0  0  0  0  0  0  0
  -28.8647  -16.2838   21.4526 N   0  0  0  0  0  0  0  0  0  0  0  0
  -23.3725  -29.2593   18.8666 N   0  0  0  0  0  0  0  0  0  0  0  0
  -28.4558  -20.0780   21.5948 N   0  0  0  0  0  0  0  0  0  0  0  0
  -31.0964  -15.4983   21.3378 N   0  0  0  0  0  0  0  0  0  0  0  0
  -28.6489  -11.8285   20.3688 N   0  0  0  0  0  0  0  0  0  0  0  0
  -29.7798  -25.0425   17.5563 N   0  0  0  0  0  0  0  0  0  0  0  0
  -28.6628  -20.7852   19.3544 N   0  0  0  0  0  0  0  0  0  0  0  0
  -21.4613  -28.4709   21.7744 N   0  0  0  0  0  0  0  0  0  0  0  0
  -23.0019  -30.0376   15.5932 N   0  0  0  0  0  0  0  0  0  0  0  0
  -25.3380  -32.4695   14.2908 N   0  3  0  0  0  0  0  0  0  0  0  0
  -30.7814  -12.6234   20.6500 O   0  0  0  0  0  0  0  0  0  0  0  0
  -29.7682  -25.2683   19.8920 O   0  0  0  0  0  0  0  0  0  0  0  0
  -23.0155  -27.2450   20.5480 O   0  0  0  0  0  0  0  0  0  0  0  0
  -21.3629  -29.9971   17.9428 O   0  0  0  0  0  0  0  0  0  0  0  0
  -25.2916  -29.8380   15.2856 O   0  0  0  0  0  0  0  0  0  0  0  0
  -28.9848  -22.2742   21.1040 O   0  0  0  0  0  0  0  0  0  0  0  0
  -31.0252  -27.4875   17.4335 O   0  0  0  0  0  0  0  0  0  0  0  0
  -23.0909  -11.5505   20.1111 O   0  0  0  0  0  0  0  0  0  0  0  0
  -29.1301  -27.7882   20.5215 O   0  0  0  0  0  0  0  0  0  1  0  0
  -22.8311   -6.5603   22.4423 F   0  0  0  0  0  0  0  0  0  0  0  0
  -21.0781  -10.9235   21.8995 F   0  0  0  0  0  0  0  0  0  0  0  0
  -29.5954  -24.0084   15.0159 F   0  0  0  0  0  0  0  0  0  0  0  0
  -28.4822  -19.7671   16.8068 F   0  0  0  0  0  0  0  0  0  0  0  0
  1  2  1  0  0  0  0
  1  5  2  0  0  0  0
  2  6  2  0  0  0  0
  3  8  2  0  0  0  0
  3 16  1  0  0  0  0
  4  9  1  0  0  0  0
  4 16  2  0  0  0  0
  5 18  1  0  0  0  0
  6 20  1  0  0  0  0
  7 10  2  0  0  0  0
  7 19  1  0  0  0  0
  8 22  1  0  0  0  0
  9 22  2  0  0  0  0
 10 23  1  0  0  0  0
 11 12  2  0  0  0  0
 11 24  1  0  0  0  0
 12 25  1  0  0  0  0
 13 21  1  0  0  0  0
 13 23  2  0  0  0  0
 14 25  2  0  0  0  0
 14 26  1  0  0  0  0
 15 27  1  0  0  0  0
 15 28  2  0  0  0  0
 16 29  1  0  0  0  0
 17 29  1  0  0  0  0
 17 32  2  0  0  0  0
 17 33  1  0  0  0  0
 18 20  2  0  0  0  0
 18 41  1  0  0  0  0
 19 21  2  0  0  0  0
 19 42  1  0  0  0  0
 20 50  1  0  0  0  0
 21 43  1  0  0  0  0
 22 81  1  0  0  0  0
 23 82  1  0  0  0  0
 24 26  2  0  0  0  0
 24 81  1  0  0  0  0
 25 83  1  0  0  0  0
 26 84  1  0  0  0  0
 27 30  2  0  0  0  0
 27 85  1  0  0  0  0
 28 31  1  0  0  0  0
 28 86  1  0  0  0  0
 29 62  2  0  0  0  0
 30 63  1  0  0  0  0
 30 69  1  0  0  0  0
 31 63  2  0  0  0  0
 31 70  1  0  0  0  0
 32 64  1  0  0  0  0
 32 67  1  0  0  0  0
 33 68  1  0  0  0  0
 33 74  2  0  0  0  0
 34 35  2  0  0  0  0
 34 36  1  0  0  0  0
 34 80  1  0  0  0  0
 35 53  1  0  0  0  0
 35 82  1  0  0  0  0
 36 69  1  0  0  0  0
 36 75  2  0  0  0  0
 37 51  1  0  0  0  0
 37 71  1  0  0  0  0
 37 76  2  0  0  0  0
 38 59  1  0  0  0  0
 38 65  1  0  0  0  0
 38 77  2  0  0  0  0
 39 60  1  0  0  0  0
 39 72  1  0  0  0  0
 39 78  2  0  0  0  0
 40 66  1  0  0  0  0
 40 70  1  0  0  0  0
 40 79  2  0  0  0  0
 41 44  1  0  0  0  0
 42 51  1  0  0  0  0
 43 65  1  0  0  0  0
 44 46  1  0  0  0  0
 45 47  1  0  0  0  0
 45 48  1  0  0  0  0
 46 50  1  0  0  0  0
 47 52  1  0  0  0  0
 48 66  1  0  0  0  0
 49 52  1  0  0  0  0
 49 66  1  0  0  0  0
 50 71  1  0  0  0  0
 51 65  1  0  0  0  0
 52 64  1  0  0  0  0
 54 60  1  0  0  0  0
 55 61  1  0  0  0  0
 56 61  1  0  0  0  0
 57 61  1  0  0  0  0
 58 73  1  0  0  0  0
 59 61  1  0  0  0  0
 59 72  1  0  0  0  0
 60 73  1  0  0  0  0
 62 64  1  0  0  0  0
M  CHG  1  73   1
M  ISO  4  35 101  40 100  70 100  82 101
M  END
> <Batch ID>
0180

> <Smiles>
CNC(C)C(=O)NC(C(=O)N1Cc2cc([101O:1][101CH:1](C)C(=O)C(=O)Nc3nc([100NH:0][100C:0](=O)N4CCCC(n5nc(-c6ccc(Oc7ccc(F)cc7F)cc6)c(C(N)=O)c5N)C4)c(F)cc3F)ccc2CC1C(=O)NC1CCCc2ccccc21)C(C)(C)C

> <Shape>
0.305

> <Color>
0.090

> <Negative vol penalty>
0.000

$$$$
