
  -OEChem-04052304533D

 83 91  0     1  0  0  0  0  0999 V2000
  -30.5899  -22.3114   25.2713 C   0  0  0  0  0  0  0  0  0  0  0  0
  -30.5289  -22.2087   23.8853 C   0  0  0  0  0  0  0  0  0  0  0  0
  -23.0573   -9.8421   20.0209 C   0  0  0  0  0  0  0  0  0  0  0  0
  -23.7121  -10.0226   22.3395 C   0  0  0  0  0  0  0  0  0  0  0  0
  -30.0096  -23.4039   25.9144 C   0  0  0  0  0  0  0  0  0  0  0  0
  -29.8866  -23.1980   23.1415 C   0  0  0  0  0  0  0  0  0  0  0  0
  -32.5392  -24.5885   19.0580 C   0  0  0  0  0  0  0  0  0  0  0  0
  -22.3066   -8.7056   20.3215 C   0  0  0  0  0  0  0  0  0  0  0  0
  -22.9613   -8.8861   22.6400 C   0  0  0  0  0  0  0  0  0  0  0  0
  -32.4973  -23.7402   17.9523 C   0  0  0  0  0  0  0  0  0  0  0  0
  -23.2879   -5.5341   22.3429 C   0  0  0  0  0  0  0  0  0  0  0  0
  -23.8734   -4.5684   23.1615 C   0  0  0  0  0  0  0  0  0  0  0  0
  -30.8577  -25.1771   16.9197 C   0  0  0  0  0  0  0  0  0  0  0  0
  -22.0956   -4.8559   24.7721 C   0  0  0  0  0  0  0  0  0  0  0  0
  -23.7602  -10.5006   21.0300 C   0  0  0  0  0  0  0  0  0  0  0  0
  -24.0990  -13.0122   20.7396 C   0  0  0  0  0  0  0  0  0  0  0  0
  -29.3682  -24.4120   25.1775 C   0  0  0  0  0  0  0  0  0  0  0  0
  -31.7312  -25.7335   19.1076 C   0  0  0  0  0  0  0  0  0  0  0  0
  -29.2960  -24.3043   23.7755 C   0  0  0  0  0  0  0  0  0  0  0  0
  -30.8931  -26.0396   18.0260 C   0  0  0  0  0  0  0  0  0  0  0  0
  -22.2585   -8.2276   21.6310 C   0  0  0  0  0  0  0  0  0  0  0  0
  -31.6543  -24.0329   16.8842 C   0  0  0  0  0  0  0  0  0  0  0  0
  -22.1063   -6.1608   22.7389 C   0  0  0  0  0  0  0  0  0  0  0  0
  -23.2773   -4.2293   24.3761 C   0  0  0  0  0  0  0  0  0  0  0  0
  -21.5101   -5.8217   23.9535 C   0  0  0  0  0  0  0  0  0  0  0  0
  -24.5364  -11.6743   20.7201 C   0  0  0  0  0  0  0  0  0  0  0  0
  -29.4269  -18.8350   20.4155 C   0  0  0  0  0  0  0  0  0  0  0  0
  -30.5197  -18.0649   20.7543 C   0  0  0  0  0  0  0  0  0  0  0  0
  -25.2041  -13.7401   20.3717 C   0  0  0  0  0  0  0  0  0  0  0  0
  -30.8422  -19.5964   18.9232 C   0  0  0  0  0  0  0  0  0  0  0  0
  -22.8091  -13.5491   21.0616 C   0  0  0  0  0  0  0  0  0  0  0  0
  -29.3901  -26.7464   21.0042 C   0  0  0  0  0  0  0  0  0  0  0  0
  -29.6507  -29.4503   19.2311 C   0  0  0  0  0  0  0  0  0  0  0  0
  -30.5995  -30.9097   16.2957 C   0  0  0  0  0  0  0  0  0  0  0  0
  -30.8768  -21.2836   17.0548 C   0  0  0  0  0  0  0  0  0  0  0  0
  -30.6704  -14.8061   20.7315 C   0  0  0  0  0  0  0  0  0  0  0  0
  -28.7144  -25.5501   25.9204 C   0  0  0  0  0  0  0  0  0  0  0  0
  -31.8078  -26.6526   20.2958 C   0  0  0  0  0  0  0  0  0  0  0  0
  -30.0208  -27.2674   18.0213 C   0  0  0  0  0  0  0  0  0  0  0  0
  -28.3791  -26.7449   25.0315 C   0  0  0  0  0  0  0  0  0  0  0  0
  -29.6501  -12.2452   18.4782 C   0  0  0  0  0  0  0  0  0  0  0  0
  -27.7024  -26.2805   23.7458 C   0  0  0  0  0  0  0  0  0  0  0  0
  -28.1954  -11.9747   18.8664 C   0  0  0  0  0  0  0  0  0  0  0  0
  -30.5110  -12.5597   19.6997 C   0  0  0  0  0  0  0  0  0  0  0  0
  -28.5458  -13.3783   20.9414 C   0  0  0  0  0  0  0  0  0  0  0  0
  -28.6297  -25.3697   22.9322 C   0  0  1  0  0  0  0  0  0  0  0  0
  -30.5618  -27.5166   20.4642 C   0  0  1  0  0  0  0  0  0  0  0  0
  -27.6268  -13.1112   19.7371 C   0  0  2  0  0  0  0  0  0  0  0  0
  -28.1023  -18.7999   21.0684 C   0  0  0  0  0  0  0  0  0  0  0  0
  -30.6535  -33.1295   15.1266 C   0  0  0  0  0  0  0  0  0  0  0  0
  -31.7923  -21.0690   14.7149 C   0  0  0  0  0  0  0  0  0  0  0  0
  -26.6544  -29.2382   18.6953 C   0  0  0  0  0  0  0  0  0  0  0  0
  -26.9466  -30.8633   16.8133 C   0  0  0  0  0  0  0  0  0  0  0  0
  -27.4711  -31.5576   19.1512 C   0  0  0  0  0  0  0  0  0  0  0  0
  -33.5509  -30.8564   16.0827 C   0  0  0  0  0  0  0  0  0  0  0  0
  -30.6730  -17.0422   21.8082 C   0  0  0  0  0  0  0  0  0  0  0  0
  -29.0214  -29.9575   17.9561 C   0  0  1  0  0  0  0  0  0  0  0  0
  -31.4186  -32.1551   16.0086 C   0  0  2  0  0  0  0  0  0  0  0  0
  -31.8754  -21.8229   16.0339 C   0  0  1  0  0  0  0  0  0  1  0  0
  -27.5383  -30.3799   18.1546 C   0  0  0  0  0  0  0  0  0  0  0  0
  -25.8192  -11.5562   20.3675 N   0  0  0  0  0  0  0  0  0  0  0  0
  -29.6101  -19.7140   19.3660 N   0  0  0  0  0  0  0  0  0  0  0  0
  -26.1975  -12.8293   20.1620 N   0  0  0  0  0  0  0  0  0  0  0  0
  -30.1265  -28.1316   19.2086 N   0  0  0  0  0  0  0  0  0  0  0  0
  -29.9174  -13.6470   20.4817 N   0  0  0  0  0  0  0  0  0  0  0  0
  -25.4134  -15.0640   20.2102 N   0  0  0  0  0  0  0  0  0  0  0  0
  -21.7859  -12.6606   21.4190 N   0  0  0  0  0  0  0  0  0  0  0  0
  -31.4511  -20.3064   17.8611 N   0  0  0  0  0  0  0  0  0  0  0  0
  -29.6226  -26.1556   22.2315 N   0  0  0  0  0  0  0  0  0  0  0  0
  -29.8873  -31.0265   17.4706 N   0  0  0  0  0  0  0  0  0  0  0  0
  -30.0306  -15.7904   21.4749 N   0  0  0  0  0  0  0  0  0  0  0  0
  -32.6879  -31.7923   15.3170 N   0  3  0  0  0  0  0  0  0  0  0  0
  -22.5666  -14.7791   21.0173 O   0  0  0  0  0  0  0  0  0  0  0  0
  -28.3515  -26.6934   20.3560 O   0  0  0  0  0  0  0  0  0  0  0  0
  -29.7242  -30.1990   20.2087 O   0  0  0  0  0  0  0  0  0  0  0  0
  -30.5894  -29.9326   15.5503 O   0  0  0  0  0  0  0  0  0  0  0  0
  -29.7293  -21.7162   17.1125 O   0  0  0  0  0  0  0  0  0  0  0  0
  -31.8252  -14.9552   20.3179 O   0  0  0  0  0  0  0  0  0  0  0  0
  -21.5258   -7.1188   21.9246 O   0  0  0  0  0  0  0  0  0  0  0  0
  -31.6110  -23.2063   15.8041 O   0  0  0  0  0  0  0  0  0  1  0  0
  -23.8388   -3.3008   25.1615 F   0  0  0  0  0  0  0  0  0  0  0  0
  -20.3743   -6.4194   24.3387 F   0  0  0  0  0  0  0  0  0  0  0  0
  -31.8351  -18.4472   19.7223 S   0  0  0  0  0  0  0  0  0  0  0  0
  1  2  1  0  0  0  0
  1  5  2  0  0  0  0
  2  6  2  0  0  0  0
  3  8  2  0  0  0  0
  3 15  1  0  0  0  0
  4  9  1  0  0  0  0
  4 15  2  0  0  0  0
  5 17  1  0  0  0  0
  6 19  1  0  0  0  0
  7 10  2  0  0  0  0
  7 18  1  0  0  0  0
  8 21  1  0  0  0  0
  9 21  2  0  0  0  0
 10 22  1  0  0  0  0
 11 12  2  0  0  0  0
 11 23  1  0  0  0  0
 12 24  1  0  0  0  0
 13 20  1  0  0  0  0
 13 22  2  0  0  0  0
 14 24  2  0  0  0  0
 14 25  1  0  0  0  0
 15 26  1  0  0  0  0
 16 26  1  0  0  0  0
 16 29  2  0  0  0  0
 16 31  1  0  0  0  0
 17 19  2  0  0  0  0
 17 37  1  0  0  0  0
 18 20  2  0  0  0  0
 18 38  1  0  0  0  0
 19 46  1  0  0  0  0
 20 39  1  0  0  0  0
 21 79  1  0  0  0  0
 22 80  1  0  0  0  0
 23 25  2  0  0  0  0
 23 79  1  0  0  0  0
 24 81  1  0  0  0  0
 25 82  1  0  0  0  0
 26 61  2  0  0  0  0
 27 28  2  0  0  0  0
 27 49  1  0  0  0  0
 27 62  1  0  0  0  0
 28 56  1  0  0  0  0
 28 83  1  0  0  0  0
 29 63  1  0  0  0  0
 29 66  1  0  0  0  0
 30 62  2  0  0  0  0
 30 68  1  0  0  0  0
 30 83  1  0  0  0  0
 31 67  1  0  0  0  0
 31 73  2  0  0  0  0
 32 47  1  0  0  0  0
 32 69  1  0  0  0  0
 32 74  2  0  0  0  0
 33 57  1  0  0  0  0
 33 64  1  0  0  0  0
 33 75  2  0  0  0  0
 34 58  1  0  0  0  0
 34 70  1  0  0  0  0
 34 76  2  0  0  0  0
 35 59  1  0  0  0  0
 35 68  1  0  0  0  0
 35 77  2  0  0  0  0
 36 65  1  0  0  0  0
 36 71  1  0  0  0  0
 36 78  2  0  0  0  0
 37 40  1  0  0  0  0
 38 47  1  0  0  0  0
 39 64  1  0  0  0  0
 40 42  1  0  0  0  0
 41 43  1  0  0  0  0
 41 44  1  0  0  0  0
 42 46  1  0  0  0  0
 43 48  1  0  0  0  0
 44 65  1  0  0  0  0
 45 48  1  0  0  0  0
 45 65  1  0  0  0  0
 46 69  1  0  0  0  0
 47 64  1  0  0  0  0
 48 63  1  0  0  0  0
 50 58  1  0  0  0  0
 51 59  1  0  0  0  0
 52 60  1  0  0  0  0
 53 60  1  0  0  0  0
 54 60  1  0  0  0  0
 55 72  1  0  0  0  0
 56 71  1  0  0  0  0
 57 60  1  0  0  0  0
 57 70  1  0  0  0  0
 58 72  1  0  0  0  0
 59 80  1  0  0  0  0
 61 63  1  0  0  0  0
M  CHG  1  72   1
M  ISO  4  36 100  59 101  71 100  80 101
M  END
> <Batch ID>
0181

> <Smiles>
CNC(C)C(=O)NC(C(=O)N1Cc2cc([101O:1][101CH:1](C)C(=O)Nc3nc(C)c(C[100NH:0][100C:0](=O)N4CCCC(n5nc(-c6ccc(Oc7ccc(F)cc7F)cc6)c(C(N)=O)c5N)C4)s3)ccc2CC1C(=O)NC1CCCc2ccccc21)C(C)(C)C

> <Shape>
0.256

> <Color>
0.223

> <Negative vol penalty>
0.000

$$$$

  -OEChem-04052304533D

 84 92  0     1  0  0  0  0  0999 V2000
  -16.4531  -29.8180   23.4551 C   0  0  0  0  0  0  0  0  0  0  0  0
  -17.4860  -30.6216   23.9270 C   0  0  0  0  0  0  0  0  0  0  0  0
  -26.9077  -21.1220   19.0096 C   0  0  0  0  0  0  0  0  0  0  0  0
  -28.8007  -19.6261   19.1357 C   0  0  0  0  0  0  0  0  0  0  0  0
  -16.7371  -28.5620   22.9205 C   0  0  0  0  0  0  0  0  0  0  0  0
  -18.8035  -30.1692   23.8656 C   0  0  0  0  0  0  0  0  0  0  0  0
  -25.4940  -32.5681   22.9715 C   0  0  0  0  0  0  0  0  0  0  0  0
  -26.0451  -20.0497   19.2371 C   0  0  0  0  0  0  0  0  0  0  0  0
  -27.9381  -18.5538   19.3632 C   0  0  0  0  0  0  0  0  0  0  0  0
  -26.7493  -32.5082   23.5750 C   0  0  0  0  0  0  0  0  0  0  0  0
  -25.9107  -16.5566   17.5378 C   0  0  0  0  0  0  0  0  0  0  0  0
  -26.1401  -15.3784   16.8274 C   0  0  0  0  0  0  0  0  0  0  0  0
  -27.1287  -30.3538   22.5582 C   0  0  0  0  0  0  0  0  0  0  0  0
  -26.4430  -14.1842   18.9056 C   0  0  0  0  0  0  0  0  0  0  0  0
  -28.2855  -20.9102   18.9589 C   0  0  0  0  0  0  0  0  0  0  0  0
  -29.7714  -22.8507   19.6898 C   0  0  0  0  0  0  0  0  0  0  0  0
  -18.0598  -28.0980   22.8437 C   0  0  0  0  0  0  0  0  0  0  0  0
  -25.0413  -31.5146   22.1642 C   0  0  0  0  0  0  0  0  0  0  0  0
  -19.1054  -28.9053   23.3307 C   0  0  0  0  0  0  0  0  0  0  0  0
  -25.8682  -30.4040   21.9435 C   0  0  0  0  0  0  0  0  0  0  0  0
  -26.5603  -18.7656   19.4139 C   0  0  0  0  0  0  0  0  0  0  0  0
  -27.5657  -31.3997   23.3708 C   0  0  0  0  0  0  0  0  0  0  0  0
  -25.9476  -16.5487   18.9322 C   0  0  0  0  0  0  0  0  0  0  0  0
  -26.4062  -14.1922   17.5112 C   0  0  0  0  0  0  0  0  0  0  0  0
  -26.2137  -15.3625   19.6161 C   0  0  0  0  0  0  0  0  0  0  0  0
  -29.1770  -22.0174   18.7233 C   0  0  0  0  0  0  0  0  0  0  0  0
  -31.0850  -29.9326   17.2587 C   0  0  0  0  0  0  0  0  0  0  0  0
  -30.8249  -31.2541   17.5556 C   0  0  0  0  0  0  0  0  0  0  0  0
  -30.5234  -23.7395   18.9612 C   0  0  0  0  0  0  0  0  0  0  0  0
  -30.5685  -30.4084   19.5629 C   0  0  0  0  0  0  0  0  0  0  0  0
  -29.6543  -22.8237   21.1186 C   0  0  0  0  0  0  0  0  0  0  0  0
  -31.4319  -29.2846   15.9677 C   0  0  0  0  0  0  0  0  0  0  0  0
  -22.6054  -29.4767   22.2932 C   0  0  0  0  0  0  0  0  0  0  0  0
  -23.6955  -28.5943   19.3682 C   0  0  0  0  0  0  0  0  0  0  0  0
  -26.3079  -28.4294   17.1785 C   0  0  0  0  0  0  0  0  0  0  0  0
  -30.0027  -31.2094   21.8818 C   0  0  0  0  0  0  0  0  0  0  0  0
  -31.2002  -27.1864   14.6764 C   0  0  0  0  0  0  0  0  0  0  0  0
  -18.3131  -26.7138   22.3010 C   0  0  0  0  0  0  0  0  0  0  0  0
  -23.6955  -31.6066   21.4988 C   0  0  0  0  0  0  0  0  0  0  0  0
  -25.4373  -29.2557   21.0693 C   0  0  0  0  0  0  0  0  0  0  0  0
  -19.7721  -26.4632   21.9284 C   0  0  0  0  0  0  0  0  0  0  0  0
  -31.7718  -23.7541   14.0525 C   0  0  0  0  0  0  0  0  0  0  0  0
  -20.6978  -26.9495   23.0390 C   0  0  0  0  0  0  0  0  0  0  0  0
  -31.2043  -23.0618   15.2947 C   0  0  0  0  0  0  0  0  0  0  0  0
  -30.9234  -24.9541   13.6342 C   0  0  0  0  0  0  0  0  0  0  0  0
  -30.0932  -25.2392   15.9337 C   0  0  0  0  0  0  0  0  0  0  0  0
  -20.5499  -28.4599   23.2586 C   0  0  1  0  0  0  0  0  0  0  0  0
  -23.1261  -30.2452   21.1117 C   0  0  1  0  0  0  0  0  0  0  0  0
  -30.9511  -24.0669   16.4363 C   0  0  1  0  0  0  0  0  0  0  0  0
  -30.8370  -32.3796   16.5986 C   0  0  0  0  0  0  0  0  0  0  0  0
  -26.9027  -27.6196   14.8789 C   0  0  0  0  0  0  0  0  0  0  0  0
  -31.0912  -30.6444   24.0853 C   0  0  0  0  0  0  0  0  0  0  0  0
  -23.7766  -25.7248   20.4023 C   0  0  0  0  0  0  0  0  0  0  0  0
  -25.2350  -25.1376   18.4539 C   0  0  0  0  0  0  0  0  0  0  0  0
  -22.9148  -25.9682   18.0672 C   0  0  0  0  0  0  0  0  0  0  0  0
  -27.0000  -31.1597   16.2699 C   0  0  0  0  0  0  0  0  0  0  0  0
  -24.6928  -27.5814   18.8598 C   0  0  1  0  0  0  0  0  0  0  0  0
  -26.4157  -28.7968   15.7095 C   0  0  2  0  0  0  0  0  0  0  0  0
  -29.8063  -30.6084   23.2712 C   0  0  1  0  0  0  0  0  0  1  0  0
  -24.1624  -26.1236   18.9639 C   0  0  0  0  0  0  0  0  0  0  0  0
  -29.5216  -22.3475   17.4758 N   0  0  0  0  0  0  0  0  0  0  0  0
  -30.5281  -31.5287   18.8763 N   0  0  0  0  0  0  0  0  0  0  0  0
  -30.3405  -23.3981   17.6534 N   0  0  0  0  0  0  0  0  0  0  0  0
  -24.1103  -29.3895   20.4458 N   0  0  0  0  0  0  0  0  0  0  0  0
  -30.7383  -25.8618   14.7679 N   0  0  0  0  0  0  0  0  0  0  0  0
  -31.3165  -24.7720   19.3179 N   0  0  0  0  0  0  0  0  0  0  0  0
  -28.8403  -21.8442   21.7038 N   0  0  0  0  0  0  0  0  0  0  0  0
  -30.3309  -30.2330   20.9470 N   0  0  0  0  0  0  0  0  0  0  0  0
  -31.0145  -27.9608   15.8270 N   0  0  0  0  0  0  0  0  0  0  0  0
  -21.2548  -29.1918   22.2281 N   0  0  0  0  0  0  0  0  0  0  0  0
  -25.0404  -27.9955   17.5047 N   0  0  0  0  0  0  0  0  0  0  0  0
  -27.3693  -29.9273   15.5269 N   0  3  0  0  0  0  0  0  0  0  0  0
  -30.2407  -23.6540   21.8535 O   0  0  0  0  0  0  0  0  0  0  0  0
  -32.0128  -29.9398   15.1068 O   0  0  0  0  0  0  0  0  0  0  0  0
  -23.3725  -29.1639   23.1962 O   0  0  0  0  0  0  0  0  0  0  0  0
  -22.5917  -28.6817   18.8244 O   0  0  0  0  0  0  0  0  0  0  0  0
  -27.2545  -28.5150   17.9577 O   0  0  0  0  0  0  0  0  0  0  0  0
  -29.8567  -32.4118   21.6820 O   0  0  0  0  0  0  0  0  0  0  0  0
  -31.7636  -27.6305   13.6711 O   0  0  0  0  0  0  0  0  0  0  0  0
  -25.7189  -17.7191   19.6361 O   0  0  0  0  0  0  0  0  0  0  0  0
  -28.7912  -31.3384   23.9592 O   0  0  0  0  0  0  0  0  0  1  0  0
  -26.6249  -13.0605   16.8289 F   0  0  0  0  0  0  0  0  0  0  0  0
  -26.2493  -15.3484   20.9556 F   0  0  0  0  0  0  0  0  0  0  0  0
  -30.9576  -28.9869   18.6837 S   0  0  0  0  0  0  0  0  0  0  0  0
  1  2  1  0  0  0  0
  1  5  2  0  0  0  0
  2  6  2  0  0  0  0
  3  8  2  0  0  0  0
  3 15  1  0  0  0  0
  4  9  1  0  0  0  0
  4 15  2  0  0  0  0
  5 17  1  0  0  0  0
  6 19  1  0  0  0  0
  7 10  2  0  0  0  0
  7 18  1  0  0  0  0
  8 21  1  0  0  0  0
  9 21  2  0  0  0  0
 10 22  1  0  0  0  0
 11 12  2  0  0  0  0
 11 23  1  0  0  0  0
 12 24  1  0  0  0  0
 13 20  1  0  0  0  0
 13 22  2  0  0  0  0
 14 24  2  0  0  0  0
 14 25  1  0  0  0  0
 15 26  1  0  0  0  0
 16 26  1  0  0  0  0
 16 29  2  0  0  0  0
 16 31  1  0  0  0  0
 17 19  2  0  0  0  0
 17 38  1  0  0  0  0
 18 20  2  0  0  0  0
 18 39  1  0  0  0  0
 19 47  1  0  0  0  0
 20 40  1  0  0  0  0
 21 80  1  0  0  0  0
 22 81  1  0  0  0  0
 23 25  2  0  0  0  0
 23 80  1  0  0  0  0
 24 82  1  0  0  0  0
 25 83  1  0  0  0  0
 26 61  2  0  0  0  0
 27 28  2  0  0  0  0
 27 32  1  0  0  0  0
 27 84  1  0  0  0  0
 28 50  1  0  0  0  0
 28 62  1  0  0  0  0
 29 63  1  0  0  0  0
 29 66  1  0  0  0  0
 30 62  2  0  0  0  0
 30 68  1  0  0  0  0
 30 84  1  0  0  0  0
 31 67  1  0  0  0  0
 31 73  2  0  0  0  0
 32 69  1  0  0  0  0
 32 74  2  0  0  0  0
 33 48  1  0  0  0  0
 33 70  1  0  0  0  0
 33 75  2  0  0  0  0
 34 57  1  0  0  0  0
 34 64  1  0  0  0  0
 34 76  2  0  0  0  0
 35 58  1  0  0  0  0
 35 71  1  0  0  0  0
 35 77  2  0  0  0  0
 36 59  1  0  0  0  0
 36 68  1  0  0  0  0
 36 78  2  0  0  0  0
 37 65  1  0  0  0  0
 37 69  1  0  0  0  0
 37 79  2  0  0  0  0
 38 41  1  0  0  0  0
 39 48  1  0  0  0  0
 40 64  1  0  0  0  0
 41 43  1  0  0  0  0
 42 44  1  0  0  0  0
 42 45  1  0  0  0  0
 43 47  1  0  0  0  0
 44 49  1  0  0  0  0
 45 65  1  0  0  0  0
 46 49  1  0  0  0  0
 46 65  1  0  0  0  0
 47 70  1  0  0  0  0
 48 64  1  0  0  0  0
 49 63  1  0  0  0  0
 51 58  1  0  0  0  0
 52 59  1  0  0  0  0
 53 60  1  0  0  0  0
 54 60  1  0  0  0  0
 55 60  1  0  0  0  0
 56 72  1  0  0  0  0
 57 60  1  0  0  0  0
 57 71  1  0  0  0  0
 58 72  1  0  0  0  0
 59 81  1  0  0  0  0
 61 63  1  0  0  0  0
M  CHG  1  72   1
M  ISO  4  37 100  59 101  69 100  81 101
M  END
> <Batch ID>
0181

> <Smiles>
CNC(C)C(=O)NC(C(=O)N1Cc2cc([101O:1][101CH:1](C)C(=O)Nc3nc(C)c(C(=O)[100NH:0][100C:0](=O)N4CCCC(n5nc(-c6ccc(Oc7ccc(F)cc7F)cc6)c(C(N)=O)c5N)C4)s3)ccc2CC1C(=O)NC1CCCc2ccccc21)C(C)(C)C

> <Shape>
0.244

> <Color>
0.098

> <Negative vol penalty>
0.000

$$$$

  -OEChem-04052304533D

 87 95  0     1  0  0  0  0  0999 V2000
  -18.4212  -31.9919   19.9613 C   0  0  0  0  0  0  0  0  0  0  0  0
  -19.6894  -31.6144   19.5318 C   0  0  0  0  0  0  0  0  0  0  0  0
  -25.9921  -13.0412   21.4964 C   0  0  0  0  0  0  0  0  0  0  0  0
  -25.8155  -13.4864   19.1283 C   0  0  0  0  0  0  0  0  0  0  0  0
  -18.0643  -31.8345   21.2999 C   0  0  0  0  0  0  0  0  0  0  0  0
  -20.6019  -31.0802   20.4409 C   0  0  0  0  0  0  0  0  0  0  0  0
  -24.7894  -26.7491   19.3400 C   0  0  0  0  0  0  0  0  0  0  0  0
  -24.8173  -12.2912   21.4430 C   0  0  0  0  0  0  0  0  0  0  0  0
  -24.6407  -12.7363   19.0749 C   0  0  0  0  0  0  0  0  0  0  0  0
  -26.1540  -26.8129   19.0616 C   0  0  0  0  0  0  0  0  0  0  0  0
  -23.8841   -9.1896   20.4724 C   0  0  0  0  0  0  0  0  0  0  0  0
  -23.8691   -7.9606   21.1320 C   0  0  0  0  0  0  0  0  0  0  0  0
  -31.2295  -19.9587   15.8597 C   0  0  0  0  0  0  0  0  0  0  0  0
  -32.4026  -21.8517   14.9515 C   0  0  0  0  0  0  0  0  0  0  0  0
  -26.6413  -26.4351   21.3937 C   0  0  0  0  0  0  0  0  0  0  0  0
  -22.0452   -8.7271   22.5188 C   0  0  0  0  0  0  0  0  0  0  0  0
  -26.4912  -13.6389   20.3390 C   0  0  0  0  0  0  0  0  0  0  0  0
  -31.9711  -20.5351   14.8345 C   0  0  0  0  0  0  0  0  0  0  0  0
  -29.0199  -13.9488   20.2077 C   0  0  0  0  0  0  0  0  0  0  0  0
  -18.9695  -31.2892   22.2239 C   0  0  0  0  0  0  0  0  0  0  0  0
  -24.3396  -26.5383   20.6514 C   0  0  0  0  0  0  0  0  0  0  0  0
  -20.2572  -30.9166   21.7934 C   0  0  0  0  0  0  0  0  0  0  0  0
  -25.2705  -26.3665   21.6858 C   0  0  0  0  0  0  0  0  0  0  0  0
  -24.1416  -12.1387   20.2323 C   0  0  0  0  0  0  0  0  0  0  0  0
  -27.0802  -26.6588   20.0890 C   0  0  0  0  0  0  0  0  0  0  0  0
  -22.9797  -10.1874   20.8361 C   0  0  0  0  0  0  0  0  0  0  0  0
  -22.9497   -7.7294   22.1551 C   0  0  0  0  0  0  0  0  0  0  0  0
  -22.0603   -9.9561   21.8592 C   0  0  0  0  0  0  0  0  0  0  0  0
  -27.7044  -14.4143   20.3936 C   0  0  0  0  0  0  0  0  0  0  0  0
  -30.9483  -20.7351   16.9724 C   0  0  0  0  0  0  0  0  0  0  0  0
  -32.0687  -22.5434   16.1047 C   0  0  0  0  0  0  0  0  0  0  0  0
  -29.8041  -15.0663   20.3585 C   0  0  0  0  0  0  0  0  0  0  0  0
  -32.2939  -19.7641   13.6446 C   0  0  0  0  0  0  0  0  0  0  0  0
  -29.4909  -12.6246   19.9241 C   0  0  0  0  0  0  0  0  0  0  0  0
  -22.5888  -28.2031   22.7171 C   0  0  0  0  0  0  0  0  0  0  0  0
  -30.2475  -25.7453   18.5742 C   0  0  0  0  0  0  0  0  0  0  0  0
  -22.8263  -25.5021   24.4977 C   0  0  0  0  0  0  0  0  0  0  0  0
  -24.5468  -22.6413   25.2067 C   0  0  0  0  0  0  0  0  0  0  0  0
  -29.7959  -20.7273   19.2125 C   0  0  0  0  0  0  0  0  0  0  0  0
  -18.5546  -31.1822   23.6700 C   0  0  0  0  0  0  0  0  0  0  0  0
  -22.8646  -26.4454   20.9309 C   0  0  0  0  0  0  0  0  0  0  0  0
  -24.8396  -26.1178   23.1073 C   0  0  0  0  0  0  0  0  0  0  0  0
  -19.4503  -30.2607   24.4940 C   0  0  0  0  0  0  0  0  0  0  0  0
  -29.1968  -19.4873   22.4959 C   0  0  0  0  0  0  0  0  0  0  0  0
  -20.9206  -30.5583   24.2177 C   0  0  0  0  0  0  0  0  0  0  0  0
  -28.8794  -18.0070   22.2721 C   0  0  0  0  0  0  0  0  0  0  0  0
  -28.6334  -20.3634   21.3784 C   0  0  0  0  0  0  0  0  0  0  0  0
  -28.6959  -18.4766   19.7957 C   0  0  0  0  0  0  0  0  0  0  0  0
  -21.2663  -30.3104   22.7444 C   0  0  1  0  0  0  0  0  0  0  0  0
  -22.5125  -26.7395   22.3858 C   0  0  1  0  0  0  0  0  0  0  0  0
  -29.2989  -17.5476   20.8620 C   0  0  2  0  0  0  0  0  0  0  0  0
  -24.5179  -20.6536   26.7382 C   0  0  0  0  0  0  0  0  0  0  0  0
  -33.2673  -25.8181   17.3943 C   0  0  0  0  0  0  0  0  0  0  0  0
  -23.8675  -27.2449   26.7755 C   0  0  0  0  0  0  0  0  0  0  0  0
  -24.6986  -25.1650   27.8940 C   0  0  0  0  0  0  0  0  0  0  0  0
  -22.2576  -25.4641   27.4765 C   0  0  0  0  0  0  0  0  0  0  0  0
  -24.2879  -20.7541   22.9417 C   0  0  0  0  0  0  0  0  0  0  0  0
  -30.8144  -25.2685   17.2434 C   0  0  0  0  0  0  0  0  0  0  0  0
  -28.8348  -26.2941   18.5256 C   0  0  0  0  0  0  0  0  0  1  0  0
  -23.7983  -24.9843   25.5302 C   0  0  1  0  0  0  0  0  0  0  0  0
  -24.0845  -21.2070   25.3896 C   0  0  2  0  0  0  0  0  0  0  0  0
  -32.2317  -24.6990   17.3507 C   0  0  1  0  0  0  0  0  0  0  0  0
  -23.6639  -25.7212   26.8927 C   0  0  0  0  0  0  0  0  0  0  0  0
  -27.6519  -15.7253   20.6435 N   0  0  0  0  0  0  0  0  0  0  0  0
  -31.3502  -22.0172   17.1218 N   0  0  0  0  0  0  0  0  0  0  0  0
  -28.9442  -16.0931   20.6158 N   0  0  0  0  0  0  0  0  0  0  0  0
  -23.3864  -26.0416   23.3310 N   0  0  0  0  0  0  0  0  0  0  0  0
  -29.0761  -19.8708   20.0723 N   0  0  0  0  0  0  0  0  0  0  0  0
  -31.1385  -15.2608   20.2948 N   0  0  0  0  0  0  0  0  0  0  0  0
  -31.8368  -18.4510   13.5797 N   0  0  0  0  0  0  0  0  0  0  0  0
  -28.5502  -11.5929   19.8011 N   0  0  0  0  0  0  0  0  0  0  0  0
  -30.1924  -20.1389   18.0120 N   0  0  0  0  0  0  0  0  0  0  0  0
  -32.5046  -23.8515   16.2071 N   0  0  0  0  0  0  0  0  0  0  0  0
  -21.4131  -28.8931   22.4913 N   0  0  0  0  0  0  0  0  0  0  0  0
  -23.5835  -23.5433   25.6065 N   0  0  0  0  0  0  0  0  0  0  0  0
  -24.6539  -20.3389   24.3204 N   0  3  0  0  0  0  0  0  0  0  0  0
  -32.9695  -20.2502   12.7205 O   0  0  0  0  0  0  0  0  0  0  0  0
  -30.7110  -12.3609   19.8002 O   0  0  0  0  0  0  0  0  0  0  0  0
  -23.6364  -28.6714   23.1471 O   0  0  0  0  0  0  0  0  0  0  0  0
  -30.8896  -25.7048   19.6225 O   0  0  0  0  0  0  0  0  0  0  0  0
  -21.6145  -25.4240   24.7150 O   0  0  0  0  0  0  0  0  0  0  0  0
  -25.6532  -22.9324   24.7578 O   0  0  0  0  0  0  0  0  0  0  0  0
  -30.0660  -21.8883   19.5303 O   0  0  0  0  0  0  0  0  0  0  0  0
  -22.9953  -11.4067   20.1798 O   0  0  0  0  0  0  0  0  0  0  0  0
  -28.4127  -26.7213   19.8201 O   0  0  0  0  0  0  0  0  0  1  0  0
  -22.9344   -6.5486   22.7873 F   0  0  0  0  0  0  0  0  0  0  0  0
  -21.1882  -10.9104   22.2122 F   0  0  0  0  0  0  0  0  0  0  0  0
  1  2  1  0  0  0  0
  1  5  2  0  0  0  0
  2  6  2  0  0  0  0
  3  8  2  0  0  0  0
  3 17  1  0  0  0  0
  4  9  1  0  0  0  0
  4 17  2  0  0  0  0
  5 20  1  0  0  0  0
  6 22  1  0  0  0  0
  7 10  2  0  0  0  0
  7 21  1  0  0  0  0
  8 24  1  0  0  0  0
  9 24  2  0  0  0  0
 10 25  1  0  0  0  0
 11 12  2  0  0  0  0
 11 26  1  0  0  0  0
 12 27  1  0  0  0  0
 13 18  1  0  0  0  0
 13 30  2  0  0  0  0
 14 18  2  0  0  0  0
 14 31  1  0  0  0  0
 15 23  1  0  0  0  0
 15 25  2  0  0  0  0
 16 27  2  0  0  0  0
 16 28  1  0  0  0  0
 17 29  1  0  0  0  0
 18 33  1  0  0  0  0
 19 29  1  0  0  0  0
 19 32  2  0  0  0  0
 19 34  1  0  0  0  0
 20 22  2  0  0  0  0
 20 40  1  0  0  0  0
 21 23  2  0  0  0  0
 21 41  1  0  0  0  0
 22 49  1  0  0  0  0
 23 42  1  0  0  0  0
 24 84  1  0  0  0  0
 25 85  1  0  0  0  0
 26 28  2  0  0  0  0
 26 84  1  0  0  0  0
 27 86  1  0  0  0  0
 28 87  1  0  0  0  0
 29 64  2  0  0  0  0
 30 65  1  0  0  0  0
 30 72  1  0  0  0  0
 31 65  2  0  0  0  0
 31 73  1  0  0  0  0
 32 66  1  0  0  0  0
 32 69  1  0  0  0  0
 33 70  1  0  0  0  0
 33 77  2  0  0  0  0
 34 71  1  0  0  0  0
 34 78  2  0  0  0  0
 35 50  1  0  0  0  0
 35 74  1  0  0  0  0
 35 79  2  0  0  0  0
 36 58  1  0  0  0  0
 36 59  1  0  0  0  0
 36 80  2  0  0  0  0
 37 60  1  0  0  0  0
 37 67  1  0  0  0  0
 37 81  2  0  0  0  0
 38 61  1  0  0  0  0
 38 75  1  0  0  0  0
 38 82  2  0  0  0  0
 39 68  1  0  0  0  0
 39 72  1  0  0  0  0
 39 83  2  0  0  0  0
 40 43  1  0  0  0  0
 41 50  1  0  0  0  0
 42 67  1  0  0  0  0
 43 45  1  0  0  0  0
 44 46  1  0  0  0  0
 44 47  1  0  0  0  0
 45 49  1  0  0  0  0
 46 51  1  0  0  0  0
 47 68  1  0  0  0  0
 48 51  1  0  0  0  0
 48 68  1  0  0  0  0
 49 74  1  0  0  0  0
 50 67  1  0  0  0  0
 51 66  1  0  0  0  0
 52 61  1  0  0  0  0
 53 62  1  0  0  0  0
 54 63  1  0  0  0  0
 55 63  1  0  0  0  0
 56 63  1  0  0  0  0
 57 76  1  0  0  0  0
 58 62  1  0  0  0  0
 59 85  1  0  0  0  0
 60 63  1  0  0  0  0
 60 75  1  0  0  0  0
 61 76  1  0  0  0  0
 62 73  1  0  0  0  0
 64 66  1  0  0  0  0
M  CHG  1  76   1
M  ISO  4  39 100  59 101  72 100  85 101
M  END
> <Batch ID>
0181

> <Smiles>
CNC(C)C(=O)NC(C(=O)N1Cc2cc([101O:1][101CH2:1]C(=O)CC(C)Nc3cc(C(N)=O)cc([100NH:0][100C:0](=O)N4CCCC(n5nc(-c6ccc(Oc7ccc(F)cc7F)cc6)c(C(N)=O)c5N)C4)n3)ccc2CC1C(=O)NC1CCCc2ccccc21)C(C)(C)C

> <Shape>
0.229

> <Color>
0.108

> <Negative vol penalty>
0.000

$$$$

  -OEChem-04052304533D

 84 92  0     1  0  0  0  0  0999 V2000
  -18.7084  -26.8875   18.8903 C   0  0  0  0  0  0  0  0  0  0  0  0
  -20.0596  -27.2165   18.8503 C   0  0  0  0  0  0  0  0  0  0  0  0
  -25.7063  -14.3480   21.5561 C   0  0  0  0  0  0  0  0  0  0  0  0
  -25.2028  -15.1257   19.3248 C   0  0  0  0  0  0  0  0  0  0  0  0
  -18.0365  -26.8527   20.1115 C   0  0  0  0  0  0  0  0  0  0  0  0
  -20.7393  -27.5120   20.0314 C   0  0  0  0  0  0  0  0  0  0  0  0
  -25.2619  -25.2481   20.2886 C   0  0  0  0  0  0  0  0  0  0  0  0
  -24.6548  -13.4351   21.4753 C   0  0  0  0  0  0  0  0  0  0  0  0
  -24.1513  -14.2127   19.2439 C   0  0  0  0  0  0  0  0  0  0  0  0
  -26.3019  -25.8183   19.5559 C   0  0  0  0  0  0  0  0  0  0  0  0
  -24.0809  -10.4150   20.0671 C   0  0  0  0  0  0  0  0  0  0  0  0
  -24.3191   -9.1117   20.5031 C   0  0  0  0  0  0  0  0  0  0  0  0
  -32.8960  -22.8797   17.1424 C   0  0  0  0  0  0  0  0  0  0  0  0
  -33.1841  -24.1898   17.5082 C   0  0  0  0  0  0  0  0  0  0  0  0
  -27.1285  -26.8733   21.5616 C   0  0  0  0  0  0  0  0  0  0  0  0
  -22.5698   -9.3440   22.1533 C   0  0  0  0  0  0  0  0  0  0  0  0
  -25.9802  -15.1934   20.4809 C   0  0  0  0  0  0  0  0  0  0  0  0
  -28.4060  -15.9264   20.1880 C   0  0  0  0  0  0  0  0  0  0  0  0
  -18.7106  -27.1385   21.3091 C   0  0  0  0  0  0  0  0  0  0  0  0
  -25.1409  -25.4954   21.6636 C   0  0  0  0  0  0  0  0  0  0  0  0
  -20.0754  -27.4823   21.2696 C   0  0  0  0  0  0  0  0  0  0  0  0
  -26.0875  -26.3030   22.3100 C   0  0  0  0  0  0  0  0  0  0  0  0
  -23.8773  -13.3674   20.3192 C   0  0  0  0  0  0  0  0  0  0  0  0
  -27.2338  -26.6334   20.1918 C   0  0  0  0  0  0  0  0  0  0  0  0
  -23.0872  -11.1829   20.6743 C   0  0  0  0  0  0  0  0  0  0  0  0
  -23.5636   -8.5761   21.5462 C   0  0  0  0  0  0  0  0  0  0  0  0
  -31.8426  -22.2088   17.7537 C   0  0  0  0  0  0  0  0  0  0  0  0
  -22.3317  -10.6474   21.7173 C   0  0  0  0  0  0  0  0  0  0  0  0
  -27.0659  -16.1371   20.5641 C   0  0  0  0  0  0  0  0  0  0  0  0
  -32.3953  -24.7796   18.4827 C   0  0  0  0  0  0  0  0  0  0  0  0
  -31.1139  -22.8871   18.7174 C   0  0  0  0  0  0  0  0  0  0  0  0
  -29.0309  -17.1185   20.4616 C   0  0  0  0  0  0  0  0  0  0  0  0
  -29.0303  -14.7576   19.6403 C   0  0  0  0  0  0  0  0  0  0  0  0
  -22.9459  -26.8623   23.5122 C   0  0  0  0  0  0  0  0  0  0  0  0
  -30.6549  -27.3227   19.2262 C   0  0  0  0  0  0  0  0  0  0  0  0
  -24.8724  -25.8184   25.9040 C   0  0  0  0  0  0  0  0  0  0  0  0
  -27.6371  -24.4802   26.5938 C   0  0  0  0  0  0  0  0  0  0  0  0
  -29.1827  -22.6828   20.3221 C   0  0  0  0  0  0  0  0  0  0  0  0
  -17.9307  -27.1343   22.6000 C   0  0  0  0  0  0  0  0  0  0  0  0
  -24.0286  -24.8512   22.4449 C   0  0  0  0  0  0  0  0  0  0  0  0
  -26.0138  -26.5833   23.7880 C   0  0  0  0  0  0  0  0  0  0  0  0
  -18.8134  -27.0947   23.8448 C   0  0  0  0  0  0  0  0  0  0  0  0
  -27.4110  -21.1760   23.0180 C   0  0  0  0  0  0  0  0  0  0  0  0
  -19.9482  -28.1072   23.7270 C   0  0  0  0  0  0  0  0  0  0  0  0
  -27.2735  -19.7134   22.5889 C   0  0  0  0  0  0  0  0  0  0  0  0
  -27.2872  -22.1293   21.8307 C   0  0  0  0  0  0  0  0  0  0  0  0
  -28.0464  -20.3757   20.2757 C   0  0  0  0  0  0  0  0  0  0  0  0
  -20.8533  -27.7849   22.5319 C   0  0  1  0  0  0  0  0  0  0  0  0
  -23.7058  -25.5866   23.7419 C   0  0  1  0  0  0  0  0  0  0  0  0
  -28.2290  -19.3744   21.4280 C   0  0  2  0  0  0  0  0  0  0  0  0
  -32.8060  -28.0004   20.3132 C   0  0  0  0  0  0  0  0  0  0  0  0
  -29.7149  -23.4438   27.5457 C   0  0  0  0  0  0  0  0  0  0  0  0
  -24.9073  -28.6821   26.9567 C   0  0  0  0  0  0  0  0  0  0  0  0
  -26.8916  -28.0700   28.3552 C   0  0  0  0  0  0  0  0  0  0  0  0
  -24.7070  -26.9236   28.7235 C   0  0  0  0  0  0  0  0  0  0  0  0
  -26.3550  -21.8208   26.8018 C   0  0  0  0  0  0  0  0  0  0  0  0
  -29.4732  -27.4338   20.1720 C   0  0  0  0  0  0  0  0  0  1  0  0
  -31.9614  -26.8317   19.8340 C   0  0  2  0  0  0  0  0  0  0  0  0
  -26.0535  -26.3888   26.6516 C   0  0  1  0  0  0  0  0  0  0  0  0
  -28.1980  -23.3708   27.4650 C   0  0  2  0  0  0  0  0  0  0  0  0
  -25.6404  -27.5126   27.6435 C   0  0  0  0  0  0  0  0  0  0  0  0
  -26.8511  -17.3663   21.0404 N   0  0  0  0  0  0  0  0  0  0  0  0
  -31.3639  -24.1598   19.0989 N   0  0  0  0  0  0  0  0  0  0  0  0
  -28.0647  -17.9387   20.9655 N   0  0  0  0  0  0  0  0  0  0  0  0
  -24.9044  -25.9356   24.5072 N   0  0  0  0  0  0  0  0  0  0  0  0
  -28.2251  -21.7493   20.7720 N   0  0  0  0  0  0  0  0  0  0  0  0
  -30.3070  -17.5347   20.3179 N   0  0  0  0  0  0  0  0  0  0  0  0
  -28.2422  -13.6193   19.4222 N   0  0  0  0  0  0  0  0  0  0  0  0
  -30.0413  -22.1982   19.3359 N   0  0  0  0  0  0  0  0  0  0  0  0
  -32.6946  -26.0840   18.8362 N   0  0  0  0  0  0  0  0  0  0  0  0
  -21.7436  -26.6901   22.8530 N   0  0  0  0  0  0  0  0  0  0  0  0
  -26.7257  -25.2559   27.2784 N   0  0  0  0  0  0  0  0  0  0  0  0
  -27.8203  -22.0385   26.9143 N   0  3  0  0  0  0  0  0  0  0  0  0
  -30.2541  -14.7184   19.3681 O   0  0  0  0  0  0  0  0  0  0  0  0
  -23.4148  -27.9241   23.9052 O   0  0  0  0  0  0  0  0  0  0  0  0
  -30.5567  -27.6246   18.0365 O   0  0  0  0  0  0  0  0  0  0  0  0
  -23.9586  -25.2822   26.5357 O   0  0  0  0  0  0  0  0  0  0  0  0
  -27.9766  -24.6446   25.4240 O   0  0  0  0  0  0  0  0  0  0  0  0
  -29.2546  -23.8189   20.7974 O   0  0  0  0  0  0  0  0  0  0  0  0
  -22.8514  -12.4765   20.2398 O   0  0  0  0  0  0  0  0  0  0  0  0
  -28.2496  -27.1917   19.4788 O   0  0  0  0  0  0  0  0  0  1  0  0
  -23.7914   -7.3239   21.9637 F   0  0  0  0  0  0  0  0  0  0  0  0
  -31.5548  -20.9463   17.4119 F   0  0  0  0  0  0  0  0  0  0  0  0
  -21.3749  -11.3798   22.3037 F   0  0  0  0  0  0  0  0  0  0  0  0
  1  2  1  0  0  0  0
  1  5  2  0  0  0  0
  2  6  2  0  0  0  0
  3  8  2  0  0  0  0
  3 17  1  0  0  0  0
  4  9  1  0  0  0  0
  4 17  2  0  0  0  0
  5 19  1  0  0  0  0
  6 21  1  0  0  0  0
  7 10  2  0  0  0  0
  7 20  1  0  0  0  0
  8 23  1  0  0  0  0
  9 23  2  0  0  0  0
 10 24  1  0  0  0  0
 11 12  2  0  0  0  0
 11 25  1  0  0  0  0
 12 26  1  0  0  0  0
 13 14  2  0  0  0  0
 13 27  1  0  0  0  0
 14 30  1  0  0  0  0
 15 22  1  0  0  0  0
 15 24  2  0  0  0  0
 16 26  2  0  0  0  0
 16 28  1  0  0  0  0
 17 29  1  0  0  0  0
 18 29  1  0  0  0  0
 18 32  2  0  0  0  0
 18 33  1  0  0  0  0
 19 21  2  0  0  0  0
 19 39  1  0  0  0  0
 20 22  2  0  0  0  0
 20 40  1  0  0  0  0
 21 48  1  0  0  0  0
 22 41  1  0  0  0  0
 23 80  1  0  0  0  0
 24 81  1  0  0  0  0
 25 28  2  0  0  0  0
 25 80  1  0  0  0  0
 26 82  1  0  0  0  0
 27 31  2  0  0  0  0
 27 83  1  0  0  0  0
 28 84  1  0  0  0  0
 29 62  2  0  0  0  0
 30 63  2  0  0  0  0
 30 70  1  0  0  0  0
 31 63  1  0  0  0  0
 31 69  1  0  0  0  0
 32 64  1  0  0  0  0
 32 67  1  0  0  0  0
 33 68  1  0  0  0  0
 33 74  2  0  0  0  0
 34 49  1  0  0  0  0
 34 71  1  0  0  0  0
 34 75  2  0  0  0  0
 35 57  1  0  0  0  0
 35 58  1  0  0  0  0
 35 76  2  0  0  0  0
 36 59  1  0  0  0  0
 36 65  1  0  0  0  0
 36 77  2  0  0  0  0
 37 60  1  0  0  0  0
 37 72  1  0  0  0  0
 37 78  2  0  0  0  0
 38 66  1  0  0  0  0
 38 69  1  0  0  0  0
 38 79  2  0  0  0  0
 39 42  1  0  0  0  0
 40 49  1  0  0  0  0
 41 65  1  0  0  0  0
 42 44  1  0  0  0  0
 43 45  1  0  0  0  0
 43 46  1  0  0  0  0
 44 48  1  0  0  0  0
 45 50  1  0  0  0  0
 46 66  1  0  0  0  0
 47 50  1  0  0  0  0
 47 66  1  0  0  0  0
 48 71  1  0  0  0  0
 49 65  1  0  0  0  0
 50 64  1  0  0  0  0
 51 58  1  0  0  0  0
 52 60  1  0  0  0  0
 53 61  1  0  0  0  0
 54 61  1  0  0  0  0
 55 61  1  0  0  0  0
 56 73  1  0  0  0  0
 57 81  1  0  0  0  0
 58 70  1  0  0  0  0
 59 61  1  0  0  0  0
 59 72  1  0  0  0  0
 60 73  1  0  0  0  0
 62 64  1  0  0  0  0
M  CHG  1  73   1
M  ISO  4  38 100  57 101  69 100  81 101
M  END
> <Batch ID>
0181

> <Smiles>
CNC(C)C(=O)NC(C(=O)N1Cc2cc([101O:1][101CH2:1]C(=O)C(C)Nc3ccc(F)c([100NH:0][100C:0](=O)N4CCCC(n5nc(-c6ccc(Oc7ccc(F)cc7F)cc6)c(C(N)=O)c5N)C4)n3)ccc2CC1C(=O)NC1CCCc2ccccc21)C(C)(C)C

> <Shape>
0.228

> <Color>
0.069

> <Negative vol penalty>
0.000

$$$$

  -OEChem-04052304533D

 84 92  0     1  0  0  0  0  0999 V2000
  -29.5005  -12.4020   19.3438 C   0  0  0  0  0  0  0  0  0  0  0  0
  -29.1630  -13.6059   18.7337 C   0  0  0  0  0  0  0  0  0  0  0  0
  -30.3879  -23.7277   19.4605 C   0  0  0  0  0  0  0  0  0  0  0  0
  -28.5463  -23.7632   17.8971 C   0  0  0  0  0  0  0  0  0  0  0  0
  -28.5476  -11.7076   20.0878 C   0  0  0  0  0  0  0  0  0  0  0  0
  -27.8719  -14.1155   18.8664 C   0  0  0  0  0  0  0  0  0  0  0  0
  -24.3410  -20.3337   19.2946 C   0  0  0  0  0  0  0  0  0  0  0  0
  -30.6444  -22.3976   19.1282 C   0  0  0  0  0  0  0  0  0  0  0  0
  -28.8028  -22.4331   17.5647 C   0  0  0  0  0  0  0  0  0  0  0  0
  -23.2736  -21.0091   18.7044 C   0  0  0  0  0  0  0  0  0  0  0  0
  -31.5582  -18.8822   18.9534 C   0  0  0  0  0  0  0  0  0  0  0  0
  -31.8024  -17.9873   19.9951 C   0  0  0  0  0  0  0  0  0  0  0  0
  -21.7325  -19.7626   20.0794 C   0  0  0  0  0  0  0  0  0  0  0  0
  -29.6170  -18.4577   20.9116 C   0  0  0  0  0  0  0  0  0  0  0  0
  -19.9776  -27.7441   22.0036 C   0  0  0  0  0  0  0  0  0  0  0  0
  -29.3388  -24.4106   18.8450 C   0  0  0  0  0  0  0  0  0  0  0  0
  -29.6125  -26.9328   18.5785 C   0  0  0  0  0  0  0  0  0  0  0  0
  -27.2468  -12.2138   20.2377 C   0  0  0  0  0  0  0  0  0  0  0  0
  -24.1112  -19.3583   20.2755 C   0  0  0  0  0  0  0  0  0  0  0  0
  -26.9002  -13.4266   19.6120 C   0  0  0  0  0  0  0  0  0  0  0  0
  -22.7989  -19.0781   20.6823 C   0  0  0  0  0  0  0  0  0  0  0  0
  -29.8519  -21.7502   18.1803 C   0  0  0  0  0  0  0  0  0  0  0  0
  -21.9690  -20.7215   19.0947 C   0  0  0  0  0  0  0  0  0  0  0  0
  -30.3434  -19.5649   18.8908 C   0  0  0  0  0  0  0  0  0  0  0  0
  -30.8319  -17.7751   20.9742 C   0  0  0  0  0  0  0  0  0  0  0  0
  -29.3728  -19.3526   19.8699 C   0  0  0  0  0  0  0  0  0  0  0  0
  -29.0729  -25.7844   19.1883 C   0  0  0  0  0  0  0  0  0  0  0  0
  -21.0418  -27.6339   21.1333 C   0  0  0  0  0  0  0  0  0  0  0  0
  -29.0500  -27.9819   19.2636 C   0  0  0  0  0  0  0  0  0  0  0  0
  -20.1903  -25.6302   20.8684 C   0  0  0  0  0  0  0  0  0  0  0  0
  -30.5393  -27.0415   17.4899 C   0  0  0  0  0  0  0  0  0  0  0  0
  -24.6832  -16.2409   20.5163 C   0  0  0  0  0  0  0  0  0  0  0  0
  -23.6043  -16.6727   23.5448 C   0  0  0  0  0  0  0  0  0  0  0  0
  -21.7291  -18.5204   25.7164 C   0  0  0  0  0  0  0  0  0  0  0  0
  -20.6681  -23.5442   19.5430 C   0  0  0  0  0  0  0  0  0  0  0  0
  -23.9776  -28.5567   22.3927 C   0  0  0  0  0  0  0  0  0  0  0  0
  -26.2374  -11.4039   21.0121 C   0  0  0  0  0  0  0  0  0  0  0  0
  -25.2750  -18.6578   20.9215 C   0  0  0  0  0  0  0  0  0  0  0  0
  -22.4998  -18.0542   21.7456 C   0  0  0  0  0  0  0  0  0  0  0  0
  -24.9985  -12.1993   21.4153 C   0  0  0  0  0  0  0  0  0  0  0  0
  -27.2908  -29.1343   23.5611 C   0  0  0  0  0  0  0  0  0  0  0  0
  -24.4743  -13.0070   20.2322 C   0  0  0  0  0  0  0  0  0  0  0  0
  -28.1720  -28.4449   22.5179 C   0  0  0  0  0  0  0  0  0  0  0  0
  -25.9993  -28.3586   23.8104 C   0  0  0  0  0  0  0  0  0  0  0  0
  -26.0950  -27.3684   21.5556 C   0  0  0  0  0  0  0  0  0  0  0  0
  -25.5171  -14.0242   19.7534 C   0  0  1  0  0  0  0  0  0  0  0  0
  -24.8953  -17.3173   21.5429 C   0  0  1  0  0  0  0  0  0  0  0  0
  -27.3835  -28.1427   21.2294 C   0  0  2  0  0  0  0  0  0  0  0  0
  -21.0090  -18.6044   28.1189 C   0  0  0  0  0  0  0  0  0  0  0  0
  -18.5579  -22.8455   17.4552 C   0  0  0  0  0  0  0  0  0  0  0  0
  -18.0772  -20.7490   18.7291 C   0  0  0  0  0  0  0  0  0  0  0  0
  -21.6202  -14.4133   23.0266 C   0  0  0  0  0  0  0  0  0  0  0  0
  -20.3392  -15.1701   25.0401 C   0  0  0  0  0  0  0  0  0  0  0  0
  -22.6876  -14.3662   25.2877 C   0  0  0  0  0  0  0  0  0  0  0  0
  -23.0176  -21.1522   26.1314 C   0  0  0  0  0  0  0  0  0  0  0  0
  -22.0373  -28.6869   20.8508 C   0  0  0  0  0  0  0  0  0  0  0  0
  -22.2538  -16.6150   24.2170 C   0  0  1  0  0  0  0  0  0  0  0  0
  -22.0364  -19.0687   27.0982 C   0  0  2  0  0  0  0  0  0  0  0  0
  -20.0821  -22.1401   19.3834 C   0  0  1  0  0  0  0  0  0  1  0  0
  -18.6428  -22.1694   18.8283 C   0  0  0  0  0  0  0  0  0  0  0  0
  -21.7304  -15.1591   24.3714 C   0  0  0  0  0  0  0  0  0  0  0  0
  -28.2323  -26.0763   20.1844 N   0  0  0  0  0  0  0  0  0  0  0  0
  -21.1656  -26.4223   20.4818 N   0  0  0  0  0  0  0  0  0  0  0  0
  -28.2395  -27.4200   20.2058 N   0  0  0  0  0  0  0  0  0  0  0  0
  -23.6711  -17.3916   22.3429 N   0  0  0  0  0  0  0  0  0  0  0  0
  -25.2988  -28.1061   22.5489 N   0  0  0  0  0  0  0  0  0  0  0  0
  -29.1746  -29.3210   19.1462 N   0  0  0  0  0  0  0  0  0  0  0  0
  -31.0183  -25.8637   16.9001 N   0  0  0  0  0  0  0  0  0  0  0  0
  -19.9377  -24.3014   20.4526 N   0  0  0  0  0  0  0  0  0  0  0  0
  -25.5483  -15.1701   20.6368 N   0  0  0  0  0  0  0  0  0  0  0  0
  -22.3940  -17.3364   25.4772 N   0  0  0  0  0  0  0  0  0  0  0  0
  -23.3894  -28.2816   21.1642 N   0  0  0  0  0  0  0  0  0  0  0  0
  -22.0365  -20.5588   27.0760 N   0  3  0  0  0  0  0  0  0  0  0  0
  -30.9437  -28.1499   17.0640 O   0  0  0  0  0  0  0  0  0  0  0  0
  -23.7992  -16.3715   19.6778 O   0  0  0  0  0  0  0  0  0  0  0  0
  -24.5662  -16.1070   24.0705 O   0  0  0  0  0  0  0  0  0  0  0  0
  -20.9717  -19.0841   24.9294 O   0  0  0  0  0  0  0  0  0  0  0  0
  -21.6733  -23.8875   18.9273 O   0  0  0  0  0  0  0  0  0  0  0  0
  -23.3691  -29.1642   23.2803 O   0  0  0  0  0  0  0  0  0  0  0  0
  -30.1021  -20.4524   17.8555 O   0  0  0  0  0  0  0  0  0  0  0  0
  -20.9252  -21.3787   18.5198 O   0  0  0  0  0  0  0  0  0  1  0  0
  -31.0659  -16.9146   21.9737 F   0  0  0  0  0  0  0  0  0  0  0  0
  -28.2034  -20.0047   19.8144 F   0  0  0  0  0  0  0  0  0  0  0  0
  -19.0880  -26.2779   22.0131 S   0  0  0  0  0  0  0  0  0  0  0  0
  1  2  1  0  0  0  0
  1  5  2  0  0  0  0
  2  6  2  0  0  0  0
  3  8  2  0  0  0  0
  3 16  1  0  0  0  0
  4  9  1  0  0  0  0
  4 16  2  0  0  0  0
  5 18  1  0  0  0  0
  6 20  1  0  0  0  0
  7 10  2  0  0  0  0
  7 19  1  0  0  0  0
  8 22  1  0  0  0  0
  9 22  2  0  0  0  0
 10 23  1  0  0  0  0
 11 12  2  0  0  0  0
 11 24  1  0  0  0  0
 12 25  1  0  0  0  0
 13 21  1  0  0  0  0
 13 23  2  0  0  0  0
 14 25  2  0  0  0  0
 14 26  1  0  0  0  0
 15 28  2  0  0  0  0
 15 84  1  0  0  0  0
 16 27  1  0  0  0  0
 17 27  1  0  0  0  0
 17 29  2  0  0  0  0
 17 31  1  0  0  0  0
 18 20  2  0  0  0  0
 18 37  1  0  0  0  0
 19 21  2  0  0  0  0
 19 38  1  0  0  0  0
 20 46  1  0  0  0  0
 21 39  1  0  0  0  0
 22 80  1  0  0  0  0
 23 81  1  0  0  0  0
 24 26  2  0  0  0  0
 24 80  1  0  0  0  0
 25 82  1  0  0  0  0
 26 83  1  0  0  0  0
 27 62  2  0  0  0  0
 28 56  1  0  0  0  0
 28 63  1  0  0  0  0
 29 64  1  0  0  0  0
 29 67  1  0  0  0  0
 30 63  2  0  0  0  0
 30 69  1  0  0  0  0
 30 84  1  0  0  0  0
 31 68  1  0  0  0  0
 31 74  2  0  0  0  0
 32 47  1  0  0  0  0
 32 70  1  0  0  0  0
 32 75  2  0  0  0  0
 33 57  1  0  0  0  0
 33 65  1  0  0  0  0
 33 76  2  0  0  0  0
 34 58  1  0  0  0  0
 34 71  1  0  0  0  0
 34 77  2  0  0  0  0
 35 59  1  0  0  0  0
 35 69  1  0  0  0  0
 35 78  2  0  0  0  0
 36 66  1  0  0  0  0
 36 72  1  0  0  0  0
 36 79  2  0  0  0  0
 37 40  1  0  0  0  0
 38 47  1  0  0  0  0
 39 65  1  0  0  0  0
 40 42  1  0  0  0  0
 41 43  1  0  0  0  0
 41 44  1  0  0  0  0
 42 46  1  0  0  0  0
 43 48  1  0  0  0  0
 44 66  1  0  0  0  0
 45 48  1  0  0  0  0
 45 66  1  0  0  0  0
 46 70  1  0  0  0  0
 47 65  1  0  0  0  0
 48 64  1  0  0  0  0
 49 58  1  0  0  0  0
 50 60  1  0  0  0  0
 51 60  1  0  0  0  0
 52 61  1  0  0  0  0
 53 61  1  0  0  0  0
 54 61  1  0  0  0  0
 55 73  1  0  0  0  0
 56 72  1  0  0  0  0
 57 61  1  0  0  0  0
 57 71  1  0  0  0  0
 58 73  1  0  0  0  0
 59 60  1  0  0  0  0
 59 81  1  0  0  0  0
 62 64  1  0  0  0  0
M  CHG  1  73   1
M  ISO  4  36 100  59 101  72 100  81 101
M  END
> <Batch ID>
0181

> <Smiles>
CNC(C)C(=O)NC(C(=O)N1Cc2cc([101O:1][101CH:1](C(=O)Nc3nc(C[100NH:0][100C:0](=O)N4CCCC(n5nc(-c6ccc(Oc7ccc(F)cc7F)cc6)c(C(N)=O)c5N)C4)cs3)C(C)C)ccc2CC1C(=O)NC1CCCc2ccccc21)C(C)(C)C

> <Shape>
0.207

> <Color>
0.066

> <Negative vol penalty>
0.000

$$$$

  -OEChem-04052304533D

 86 94  0     1  0  0  0  0  0999 V2000
  -26.5735  -21.2326   29.0687 C   0  0  0  0  0  0  0  0  0  0  0  0
  -27.3016  -21.7759   28.0150 C   0  0  0  0  0  0  0  0  0  0  0  0
  -25.9873  -12.8963   21.7526 C   0  0  0  0  0  0  0  0  0  0  0  0
  -25.5194  -13.8042   19.5632 C   0  0  0  0  0  0  0  0  0  0  0  0
  -25.1871  -21.1213   28.9722 C   0  0  0  0  0  0  0  0  0  0  0  0
  -26.6437  -22.2070   26.8637 C   0  0  0  0  0  0  0  0  0  0  0  0
  -28.1567  -26.9703   23.3242 C   0  0  0  0  0  0  0  0  0  0  0  0
  -24.8300  -12.1212   21.6785 C   0  0  0  0  0  0  0  0  0  0  0  0
  -24.3621  -13.0291   19.4890 C   0  0  0  0  0  0  0  0  0  0  0  0
  -28.8604  -27.0609   22.1240 C   0  0  0  0  0  0  0  0  0  0  0  0
  -22.1899   -9.6332   21.9131 C   0  0  0  0  0  0  0  0  0  0  0  0
  -22.2778   -8.2975   22.3052 C   0  0  0  0  0  0  0  0  0  0  0  0
  -26.7766  -27.0526   20.9087 C   0  0  0  0  0  0  0  0  0  0  0  0
  -23.9380   -7.9045   20.5945 C   0  0  0  0  0  0  0  0  0  0  0  0
  -26.3320  -13.7378   20.6949 C   0  0  0  0  0  0  0  0  0  0  0  0
  -28.8200  -14.1800   20.3456 C   0  0  0  0  0  0  0  0  0  0  0  0
  -24.5109  -21.5602   27.8230 C   0  0  0  0  0  0  0  0  0  0  0  0
  -26.7558  -26.9090   23.3250 C   0  0  0  0  0  0  0  0  0  0  0  0
  -25.2470  -22.1002   26.7511 C   0  0  0  0  0  0  0  0  0  0  0  0
  -26.0575  -26.9638   22.1103 C   0  0  0  0  0  0  0  0  0  0  0  0
  -24.0174  -12.1875   20.5468 C   0  0  0  0  0  0  0  0  0  0  0  0
  -28.1705  -27.0992   20.9159 C   0  0  0  0  0  0  0  0  0  0  0  0
  -22.9760  -10.1046   20.8616 C   0  0  0  0  0  0  0  0  0  0  0  0
  -23.1518   -7.4332   21.6459 C   0  0  0  0  0  0  0  0  0  0  0  0
  -23.8501   -9.2403   20.2024 C   0  0  0  0  0  0  0  0  0  0  0  0
  -27.5270  -14.5392   20.7711 C   0  0  0  0  0  0  0  0  0  0  0  0
  -31.0137  -22.1455   16.4196 C   0  0  0  0  0  0  0  0  0  0  0  0
  -31.1505  -23.1575   17.3403 C   0  0  0  0  0  0  0  0  0  0  0  0
  -29.5937  -15.2774   20.6344 C   0  0  0  0  0  0  0  0  0  0  0  0
  -30.2086  -21.5605   18.3858 C   0  0  0  0  0  0  0  0  0  0  0  0
  -29.2804  -12.9632   19.7431 C   0  0  0  0  0  0  0  0  0  0  0  0
  -31.3973  -22.1054   15.0434 C   0  0  0  0  0  0  0  0  0  0  0  0
  -24.6044  -24.7746   24.2838 C   0  0  0  0  0  0  0  0  0  0  0  0
  -30.4753  -26.0997   18.3081 C   0  0  0  0  0  0  0  0  0  0  0  0
  -22.5044  -27.1249   23.5168 C   0  0  0  0  0  0  0  0  0  0  0  0
  -21.8388  -29.9356   21.6992 C   0  0  0  0  0  0  0  0  0  0  0  0
  -29.3334  -21.0472   20.6916 C   0  0  0  0  0  0  0  0  0  0  0  0
  -23.0160  -21.3758   27.7455 C   0  0  0  0  0  0  0  0  0  0  0  0
  -26.0105  -26.8384   24.6296 C   0  0  0  0  0  0  0  0  0  0  0  0
  -24.5528  -26.9216   22.0580 C   0  0  0  0  0  0  0  0  0  0  0  0
  -22.3569  -22.2009   26.6432 C   0  0  0  0  0  0  0  0  0  0  0  0
  -29.1572  -19.1416   23.6941 C   0  0  0  0  0  0  0  0  0  0  0  0
  -23.1373  -22.0697   25.3391 C   0  0  0  0  0  0  0  0  0  0  0  0
  -28.8453  -17.7248   23.2065 C   0  0  0  0  0  0  0  0  0  0  0  0
  -28.4463  -20.2002   22.8528 C   0  0  0  0  0  0  0  0  0  0  0  0
  -28.3570  -18.6783   20.9176 C   0  0  0  0  0  0  0  0  0  0  0  0
  -24.5669  -22.6019   25.4958 C   0  0  1  0  0  0  0  0  0  0  0  0
  -24.6048  -26.2637   24.4843 C   0  0  1  0  0  0  0  0  0  0  0  0
  -29.1022  -17.5801   21.6937 C   0  0  2  0  0  0  0  0  0  0  0  0
  -31.3993  -23.3997   14.2599 C   0  0  0  0  0  0  0  0  0  0  0  0
  -32.8822  -26.4377   17.7077 C   0  0  0  0  0  0  0  0  0  0  0  0
  -20.0235  -31.6104   21.2551 C   0  0  0  0  0  0  0  0  0  0  0  0
  -21.0567  -25.0880   21.7661 C   0  0  0  0  0  0  0  0  0  0  0  0
  -19.8797  -26.9921   20.6449 C   0  0  0  0  0  0  0  0  0  0  0  0
  -19.5509  -26.5878   23.0844 C   0  0  0  0  0  0  0  0  0  0  0  0
  -30.0499  -19.8367   16.5639 C   0  0  0  0  0  0  0  0  0  0  0  0
  -23.4948  -32.1713   22.7081 C   0  0  0  0  0  0  0  0  0  0  0  0
  -30.1555  -26.6010   19.7044 C   0  0  0  0  0  0  0  0  0  1  0  0
  -31.8285  -25.4263   18.1267 C   0  0  2  0  0  0  0  0  0  0  0  0
  -21.7539  -27.5225   22.2687 C   0  0  1  0  0  0  0  0  0  0  0  0
  -21.2451  -31.2750   22.0966 C   0  0  2  0  0  0  0  0  0  0  0  0
  -20.5887  -26.5465   21.9416 C   0  0  0  0  0  0  0  0  0  0  0  0
  -27.4782  -15.7686   21.2908 N   0  0  0  0  0  0  0  0  0  0  0  0
  -30.6477  -22.7869   18.5624 N   0  0  0  0  0  0  0  0  0  0  0  0
  -30.4092  -21.1291   17.1040 N   0  0  0  0  0  0  0  0  0  0  0  0
  -28.7501  -16.1915   21.1939 N   0  0  0  0  0  0  0  0  0  0  0  0
  -23.8695  -26.8461   23.3599 N   0  0  0  0  0  0  0  0  0  0  0  0
  -28.7393  -20.0029   21.4315 N   0  0  0  0  0  0  0  0  0  0  0  0
  -30.9066  -15.5400   20.4620 N   0  0  0  0  0  0  0  0  0  0  0  0
  -28.3529  -11.9371   19.5167 N   0  0  0  0  0  0  0  0  0  0  0  0
  -31.7135  -24.4013   17.1125 N   0  0  0  0  0  0  0  0  0  0  0  0
  -29.5950  -20.7327   19.3585 N   0  0  0  0  0  0  0  0  0  0  0  0
  -24.5745  -24.0486   25.4593 N   0  0  0  0  0  0  0  0  0  0  0  0
  -21.3364  -28.9063   22.4669 N   0  0  0  0  0  0  0  0  0  0  0  0
  -22.2506  -32.3605   21.9188 N   0  3  0  0  0  0  0  0  0  0  0  0
  -30.4819  -12.7846   19.4303 O   0  0  0  0  0  0  0  0  0  0  0  0
  -31.7339  -21.0867   14.4071 O   0  0  0  0  0  0  0  0  0  0  0  0
  -24.6279  -24.3180   23.1469 O   0  0  0  0  0  0  0  0  0  0  0  0
  -29.6827  -26.2426   17.3766 O   0  0  0  0  0  0  0  0  0  0  0  0
  -21.9032  -27.0708   24.5926 O   0  0  0  0  0  0  0  0  0  0  0  0
  -22.6628  -29.8140   20.7954 O   0  0  0  0  0  0  0  0  0  0  0  0
  -29.6159  -22.1305   21.2099 O   0  0  0  0  0  0  0  0  0  0  0  0
  -22.8882  -11.4311   20.4740 O   0  0  0  0  0  0  0  0  0  0  0  0
  -28.8549  -27.1870   19.7429 O   0  0  0  0  0  0  0  0  0  1  0  0
  -23.2373   -6.1509   22.0236 F   0  0  0  0  0  0  0  0  0  0  0  0
  -24.6087   -9.6876   19.1923 F   0  0  0  0  0  0  0  0  0  0  0  0
  1  2  1  0  0  0  0
  1  5  2  0  0  0  0
  2  6  2  0  0  0  0
  3  8  2  0  0  0  0
  3 15  1  0  0  0  0
  4  9  1  0  0  0  0
  4 15  2  0  0  0  0
  5 17  1  0  0  0  0
  6 19  1  0  0  0  0
  7 10  2  0  0  0  0
  7 18  1  0  0  0  0
  8 21  1  0  0  0  0
  9 21  2  0  0  0  0
 10 22  1  0  0  0  0
 11 12  2  0  0  0  0
 11 23  1  0  0  0  0
 12 24  1  0  0  0  0
 13 20  1  0  0  0  0
 13 22  2  0  0  0  0
 14 24  2  0  0  0  0
 14 25  1  0  0  0  0
 15 26  1  0  0  0  0
 16 26  1  0  0  0  0
 16 29  2  0  0  0  0
 16 31  1  0  0  0  0
 17 19  2  0  0  0  0
 17 38  1  0  0  0  0
 18 20  2  0  0  0  0
 18 39  1  0  0  0  0
 19 47  1  0  0  0  0
 20 40  1  0  0  0  0
 21 83  1  0  0  0  0
 22 84  1  0  0  0  0
 23 25  2  0  0  0  0
 23 83  1  0  0  0  0
 24 85  1  0  0  0  0
 25 86  1  0  0  0  0
 26 63  2  0  0  0  0
 27 28  2  0  0  0  0
 27 32  1  0  0  0  0
 27 65  1  0  0  0  0
 28 64  1  0  0  0  0
 28 71  1  0  0  0  0
 29 66  1  0  0  0  0
 29 69  1  0  0  0  0
 30 64  2  0  0  0  0
 30 65  1  0  0  0  0
 30 72  1  0  0  0  0
 31 70  1  0  0  0  0
 31 76  2  0  0  0  0
 32 50  1  0  0  0  0
 32 77  2  0  0  0  0
 33 48  1  0  0  0  0
 33 73  1  0  0  0  0
 33 78  2  0  0  0  0
 34 58  1  0  0  0  0
 34 59  1  0  0  0  0
 34 79  2  0  0  0  0
 35 60  1  0  0  0  0
 35 67  1  0  0  0  0
 35 80  2  0  0  0  0
 36 61  1  0  0  0  0
 36 74  1  0  0  0  0
 36 81  2  0  0  0  0
 37 68  1  0  0  0  0
 37 72  1  0  0  0  0
 37 82  2  0  0  0  0
 38 41  1  0  0  0  0
 39 48  1  0  0  0  0
 40 67  1  0  0  0  0
 41 43  1  0  0  0  0
 42 44  1  0  0  0  0
 42 45  1  0  0  0  0
 43 47  1  0  0  0  0
 44 49  1  0  0  0  0
 45 68  1  0  0  0  0
 46 49  1  0  0  0  0
 46 68  1  0  0  0  0
 47 73  1  0  0  0  0
 48 67  1  0  0  0  0
 49 66  1  0  0  0  0
 51 59  1  0  0  0  0
 52 61  1  0  0  0  0
 53 62  1  0  0  0  0
 54 62  1  0  0  0  0
 55 62  1  0  0  0  0
 56 65  1  0  0  0  0
 57 75  1  0  0  0  0
 58 84  1  0  0  0  0
 59 71  1  0  0  0  0
 60 62  1  0  0  0  0
 60 74  1  0  0  0  0
 61 75  1  0  0  0  0
 63 66  1  0  0  0  0
M  CHG  1  75   1
M  ISO  4  37 100  58 101  72 100  84 101
M  END
> <Batch ID>
0181

> <Smiles>
CNC(C)C(=O)NC(C(=O)N1Cc2cc([101O:1][101CH2:1]C(=O)C(C)Nc3nc([100NH:0][100C:0](=O)N4CCCC(n5nc(-c6ccc(Oc7ccc(F)cc7F)cc6)c(C(N)=O)c5N)C4)n(C)c3C(C)=O)ccc2CC1C(=O)NC1CCCc2ccccc21)C(C)(C)C

> <Shape>
0.249

> <Color>
0.061

> <Negative vol penalty>
0.000

$$$$

  -OEChem-04052304533D

 84 92  0     1  0  0  0  0  0999 V2000
  -31.4274  -34.4777   23.2803 C   0  0  0  0  0  0  0  0  0  0  0  0
  -31.2252  -33.3103   22.5512 C   0  0  0  0  0  0  0  0  0  0  0  0
  -23.2470  -10.3901   22.3217 C   0  0  0  0  0  0  0  0  0  0  0  0
  -24.2378  -11.8201   23.9982 C   0  0  0  0  0  0  0  0  0  0  0  0
  -30.6340  -34.7488   24.3943 C   0  0  0  0  0  0  0  0  0  0  0  0
  -30.2300  -32.4126   22.9364 C   0  0  0  0  0  0  0  0  0  0  0  0
  -26.7631  -28.9578   19.2552 C   0  0  0  0  0  0  0  0  0  0  0  0
  -22.5987   -9.6662   23.3223 C   0  0  0  0  0  0  0  0  0  0  0  0
  -23.5894  -11.0962   24.9988 C   0  0  0  0  0  0  0  0  0  0  0  0
  -26.8528  -27.6229   18.8631 C   0  0  0  0  0  0  0  0  0  0  0  0
  -19.8652  -10.0213   25.2806 C   0  0  0  0  0  0  0  0  0  0  0  0
  -18.5199   -9.7083   25.0862 C   0  0  0  0  0  0  0  0  0  0  0  0
  -25.2944  -27.0140   20.6009 C   0  0  0  0  0  0  0  0  0  0  0  0
  -19.0483   -7.3545   25.2184 C   0  0  0  0  0  0  0  0  0  0  0  0
  -24.0666  -11.4671   22.6597 C   0  0  0  0  0  0  0  0  0  0  0  0
  -24.2521  -13.3483   20.9467 C   0  0  0  0  0  0  0  0  0  0  0  0
  -29.6222  -33.8587   24.7876 C   0  0  0  0  0  0  0  0  0  0  0  0
  -25.9454  -29.3299   20.3319 C   0  0  0  0  0  0  0  0  0  0  0  0
  -29.4232  -32.6714   24.0574 C   0  0  0  0  0  0  0  0  0  0  0  0
  -25.1941  -28.3546   21.0031 C   0  0  0  0  0  0  0  0  0  0  0  0
  -22.7699  -10.0192   24.6609 C   0  0  0  0  0  0  0  0  0  0  0  0
  -26.1207  -26.6503   19.5378 C   0  0  0  0  0  0  0  0  0  0  0  0
  -20.8021   -9.0008   25.4438 C   0  0  0  0  0  0  0  0  0  0  0  0
  -18.1114   -8.3750   25.0551 C   0  0  0  0  0  0  0  0  0  0  0  0
  -20.3936   -7.6675   25.4128 C   0  0  0  0  0  0  0  0  0  0  0  0
  -24.7370  -12.2149   21.6266 C   0  0  0  0  0  0  0  0  0  0  0  0
  -30.6258  -19.3199   18.0166 C   0  0  0  0  0  0  0  0  0  0  0  0
  -31.6640  -18.5430   17.5468 C   0  0  0  0  0  0  0  0  0  0  0  0
  -25.2572  -13.6797   20.0713 C   0  0  0  0  0  0  0  0  0  0  0  0
  -30.4984  -16.9716   18.5377 C   0  0  0  0  0  0  0  0  0  0  0  0
  -23.0047  -14.0397   21.0935 C   0  0  0  0  0  0  0  0  0  0  0  0
  -30.3709  -20.7853   17.8893 C   0  0  0  0  0  0  0  0  0  0  0  0
  -26.4460  -30.6709   23.1700 C   0  0  0  0  0  0  0  0  0  0  0  0
  -27.6853  -23.4487   18.8708 C   0  0  0  0  0  0  0  0  0  0  0  0
  -23.2051  -30.6707   23.3069 C   0  0  0  0  0  0  0  0  0  0  0  0
  -20.2606  -29.3105   22.2457 C   0  0  0  0  0  0  0  0  0  0  0  0
  -30.6451  -14.4859   18.9205 C   0  0  0  0  0  0  0  0  0  0  0  0
  -28.8213  -34.1717   26.0266 C   0  0  0  0  0  0  0  0  0  0  0  0
  -25.8390  -30.7778   20.7254 C   0  0  0  0  0  0  0  0  0  0  0  0
  -24.2860  -28.7050   22.1524 C   0  0  0  0  0  0  0  0  0  0  0  0
  -27.5401  -33.3505   26.1473 C   0  0  0  0  0  0  0  0  0  0  0  0
  -29.4293  -11.1446   18.7339 C   0  0  0  0  0  0  0  0  0  0  0  0
  -27.8202  -31.8789   25.8597 C   0  0  0  0  0  0  0  0  0  0  0  0
  -28.0603  -11.2184   19.4139 C   0  0  0  0  0  0  0  0  0  0  0  0
  -30.4493  -12.0579   19.4117 C   0  0  0  0  0  0  0  0  0  0  0  0
  -28.6574  -13.5298   20.2435 C   0  0  0  0  0  0  0  0  0  0  0  0
  -28.3373  -31.6851   24.4291 C   0  0  1  0  0  0  0  0  0  0  0  0
  -25.3713  -30.9731   22.1644 C   0  0  1  0  0  0  0  0  0  0  0  0
  -27.5795  -12.6759   19.5559 C   0  0  2  0  0  0  0  0  0  0  0  0
  -17.7781  -29.4943   22.5631 C   0  0  0  0  0  0  0  0  0  0  0  0
  -23.4431  -29.2275   25.9847 C   0  0  0  0  0  0  0  0  0  0  0  0
  -21.0258  -28.6066   25.7858 C   0  0  0  0  0  0  0  0  0  0  0  0
  -21.6885  -31.0082   25.9116 C   0  0  0  0  0  0  0  0  0  0  0  0
  -19.8309  -29.9999   19.3998 C   0  0  0  0  0  0  0  0  0  0  0  0
  -29.1150  -21.3670   18.5258 C   0  0  0  0  0  0  0  0  0  0  0  0
  -28.9682  -22.8698   18.2915 C   0  0  0  0  0  0  0  0  0  0  0  0
  -27.4413  -24.9174   18.5844 C   0  0  0  0  0  0  0  0  0  1  0  0
  -22.1558  -29.7026   23.7976 C   0  0  1  0  0  0  0  0  0  0  0  0
  -18.9775  -29.9501   21.7467 C   0  0  2  0  0  0  0  0  0  0  0  0
  -22.0968  -29.6290   25.3496 C   0  0  0  0  0  0  0  0  0  0  0  0
  -25.9553  -11.8506   21.2180 N   0  0  0  0  0  0  0  0  0  0  0  0
  -31.5929  -17.1962   17.8451 N   0  0  0  0  0  0  0  0  0  0  0  0
  -26.2444  -12.7603   20.2719 N   0  0  0  0  0  0  0  0  0  0  0  0
  -24.2208  -30.1332   22.5036 N   0  0  0  0  0  0  0  0  0  0  0  0
  -29.9269  -13.4227   19.5075 N   0  0  0  0  0  0  0  0  0  0  0  0
  -32.7074  -19.0289   16.8325 N   0  0  0  0  0  0  0  0  0  0  0  0
  -25.3840  -14.6648   19.1570 N   0  0  0  0  0  0  0  0  0  0  0  0
  -22.0855  -13.5661   22.0396 N   0  0  0  0  0  0  0  0  0  0  0  0
  -30.0347  -15.7333   19.0473 N   0  0  0  0  0  0  0  0  0  0  0  0
  -27.2444  -31.7545   23.4830 N   0  0  0  0  0  0  0  0  0  0  0  0
  -20.9022  -30.1069   23.1705 N   0  0  0  0  0  0  0  0  0  0  0  0
  -18.7395  -29.5895   20.3204 N   0  3  0  0  0  0  0  0  0  0  0  0
  -22.7070  -15.0379   20.3945 O   0  0  0  0  0  0  0  0  0  0  0  0
  -31.1787  -21.4825   17.2799 O   0  0  0  0  0  0  0  0  0  0  0  0
  -26.5427  -29.5389   23.6293 O   0  0  0  0  0  0  0  0  0  0  0  0
  -26.8948  -22.7789   19.5335 O   0  0  0  0  0  0  0  0  0  0  0  0
  -23.1225  -31.8613   23.6189 O   0  0  0  0  0  0  0  0  0  0  0  0
  -20.6524  -28.2123   21.8569 O   0  0  0  0  0  0  0  0  0  0  0  0
  -31.7087  -14.2993   18.3239 O   0  0  0  0  0  0  0  0  0  0  0  0
  -22.1372   -9.3132   25.6375 O   0  0  0  0  0  0  0  0  0  0  0  0
  -26.2069  -25.3466   19.1576 O   0  0  0  0  0  0  0  0  0  1  0  0
  -16.8192   -8.0747   24.8700 F   0  0  0  0  0  0  0  0  0  0  0  0
  -21.2889   -6.6829   25.5702 F   0  0  0  0  0  0  0  0  0  0  0  0
  -29.5084  -18.3343   18.8660 S   0  0  0  0  0  0  0  0  0  0  0  0
  1  2  1  0  0  0  0
  1  5  2  0  0  0  0
  2  6  2  0  0  0  0
  3  8  2  0  0  0  0
  3 15  1  0  0  0  0
  4  9  1  0  0  0  0
  4 15  2  0  0  0  0
  5 17  1  0  0  0  0
  6 19  1  0  0  0  0
  7 10  2  0  0  0  0
  7 18  1  0  0  0  0
  8 21  1  0  0  0  0
  9 21  2  0  0  0  0
 10 22  1  0  0  0  0
 11 12  2  0  0  0  0
 11 23  1  0  0  0  0
 12 24  1  0  0  0  0
 13 20  1  0  0  0  0
 13 22  2  0  0  0  0
 14 24  2  0  0  0  0
 14 25  1  0  0  0  0
 15 26  1  0  0  0  0
 16 26  1  0  0  0  0
 16 29  2  0  0  0  0
 16 31  1  0  0  0  0
 17 19  2  0  0  0  0
 17 38  1  0  0  0  0
 18 20  2  0  0  0  0
 18 39  1  0  0  0  0
 19 47  1  0  0  0  0
 20 40  1  0  0  0  0
 21 80  1  0  0  0  0
 22 81  1  0  0  0  0
 23 25  2  0  0  0  0
 23 80  1  0  0  0  0
 24 82  1  0  0  0  0
 25 83  1  0  0  0  0
 26 61  2  0  0  0  0
 27 28  2  0  0  0  0
 27 32  1  0  0  0  0
 27 84  1  0  0  0  0
 28 62  1  0  0  0  0
 28 66  1  0  0  0  0
 29 63  1  0  0  0  0
 29 67  1  0  0  0  0
 30 62  2  0  0  0  0
 30 69  1  0  0  0  0
 30 84  1  0  0  0  0
 31 68  1  0  0  0  0
 31 73  2  0  0  0  0
 32 55  1  0  0  0  0
 32 74  2  0  0  0  0
 33 48  1  0  0  0  0
 33 70  1  0  0  0  0
 33 75  2  0  0  0  0
 34 56  1  0  0  0  0
 34 57  1  0  0  0  0
 34 76  2  0  0  0  0
 35 58  1  0  0  0  0
 35 64  1  0  0  0  0
 35 77  2  0  0  0  0
 36 59  1  0  0  0  0
 36 71  1  0  0  0  0
 36 78  2  0  0  0  0
 37 65  1  0  0  0  0
 37 69  1  0  0  0  0
 37 79  2  0  0  0  0
 38 41  1  0  0  0  0
 39 48  1  0  0  0  0
 40 64  1  0  0  0  0
 41 43  1  0  0  0  0
 42 44  1  0  0  0  0
 42 45  1  0  0  0  0
 43 47  1  0  0  0  0
 44 49  1  0  0  0  0
 45 65  1  0  0  0  0
 46 49  1  0  0  0  0
 46 65  1  0  0  0  0
 47 70  1  0  0  0  0
 48 64  1  0  0  0  0
 49 63  1  0  0  0  0
 50 59  1  0  0  0  0
 51 60  1  0  0  0  0
 52 60  1  0  0  0  0
 53 60  1  0  0  0  0
 54 72  1  0  0  0  0
 55 56  1  0  0  0  0
 57 81  1  0  0  0  0
 58 60  1  0  0  0  0
 58 71  1  0  0  0  0
 59 72  1  0  0  0  0
 61 63  1  0  0  0  0
M  CHG  1  72   1
M  ISO  4  37 100  57 101  69 100  81 101
M  END
> <Batch ID>
0181

> <Smiles>
CNC(C)C(=O)NC(C(=O)N1Cc2cc([101O:1][101CH2:1]C(=O)CCC(=O)c3sc([100NH:0][100C:0](=O)N4CCCC(n5nc(-c6ccc(Oc7ccc(F)cc7F)cc6)c(C(N)=O)c5N)C4)nc3N)ccc2CC1C(=O)NC1CCCc2ccccc21)C(C)(C)C

> <Shape>
0.249

> <Color>
0.124

> <Negative vol penalty>
0.000

$$$$

  -OEChem-04052304533D

 84 92  0     1  0  0  0  0  0999 V2000
  -19.2328  -31.2463   15.1460 C   0  0  0  0  0  0  0  0  0  0  0  0
  -20.2719  -30.3479   15.3664 C   0  0  0  0  0  0  0  0  0  0  0  0
  -24.1340   -9.9060   20.5856 C   0  0  0  0  0  0  0  0  0  0  0  0
  -24.7911  -10.5279   22.8259 C   0  0  0  0  0  0  0  0  0  0  0  0
  -19.3260  -32.5505   15.6299 C   0  0  0  0  0  0  0  0  0  0  0  0
  -21.4054  -30.7536   16.0699 C   0  0  0  0  0  0  0  0  0  0  0  0
  -24.7961  -27.3491   19.8670 C   0  0  0  0  0  0  0  0  0  0  0  0
  -23.7880   -8.6336   21.0403 C   0  0  0  0  0  0  0  0  0  0  0  0
  -24.4449   -9.2555   23.2806 C   0  0  0  0  0  0  0  0  0  0  0  0
  -25.9962  -26.6614   19.6917 C   0  0  0  0  0  0  0  0  0  0  0  0
  -22.3927   -5.3380   21.6783 C   0  0  0  0  0  0  0  0  0  0  0  0
  -21.1831   -4.7993   21.2396 C   0  0  0  0  0  0  0  0  0  0  0  0
  -27.2009  -28.5451   20.5970 C   0  0  0  0  0  0  0  0  0  0  0  0
  -19.9959   -6.6506   22.2398 C   0  0  0  0  0  0  0  0  0  0  0  0
  -27.9764  -19.9306   21.8462 C   0  0  0  0  0  0  0  0  0  0  0  0
  -24.6356  -10.8532   21.4784 C   0  0  0  0  0  0  0  0  0  0  0  0
  -24.1619  -13.3011   20.9387 C   0  0  0  0  0  0  0  0  0  0  0  0
  -20.4571  -32.9696   16.3481 C   0  0  0  0  0  0  0  0  0  0  0  0
  -24.7904  -28.6464   20.3994 C   0  0  0  0  0  0  0  0  0  0  0  0
  -21.5145  -32.0651   16.5627 C   0  0  0  0  0  0  0  0  0  0  0  0
  -25.9992  -29.2461   20.7804 C   0  0  0  0  0  0  0  0  0  0  0  0
  -23.9434   -8.3083   22.3878 C   0  0  0  0  0  0  0  0  0  0  0  0
  -27.1991  -27.2605   20.0540 C   0  0  0  0  0  0  0  0  0  0  0  0
  -22.4038   -6.5330   22.3978 C   0  0  0  0  0  0  0  0  0  0  0  0
  -19.9847   -5.4556   21.5204 C   0  0  0  0  0  0  0  0  0  0  0  0
  -21.2055   -7.1893   22.6785 C   0  0  0  0  0  0  0  0  0  0  0  0
  -24.9938  -12.1676   21.0092 C   0  0  0  0  0  0  0  0  0  0  0  0
  -28.9429  -19.2204   21.1653 C   0  0  0  0  0  0  0  0  0  0  0  0
  -24.9692  -14.2883   20.4288 C   0  0  0  0  0  0  0  0  0  0  0  0
  -29.8281  -21.2204   21.0036 C   0  0  0  0  0  0  0  0  0  0  0  0
  -22.7827  -13.4484   21.3019 C   0  0  0  0  0  0  0  0  0  0  0  0
  -23.8907  -31.5036   19.3360 C   0  0  0  0  0  0  0  0  0  0  0  0
  -29.6829  -24.6828   19.1735 C   0  0  0  0  0  0  0  0  0  0  0  0
  -24.5708  -32.4163   22.3735 C   0  0  0  0  0  0  0  0  0  0  0  0
  -26.2931  -31.8244   25.2597 C   0  0  0  0  0  0  0  0  0  0  0  0
  -29.8147  -17.0275   20.2834 C   0  0  0  0  0  0  0  0  0  0  0  0
  -20.5332  -34.4031   16.8107 C   0  0  0  0  0  0  0  0  0  0  0  0
  -23.4851  -29.3644   20.6071 C   0  0  0  0  0  0  0  0  0  0  0  0
  -26.0455  -30.6291   21.3753 C   0  0  0  0  0  0  0  0  0  0  0  0
  -21.6049  -34.6451   17.8704 C   0  0  0  0  0  0  0  0  0  0  0  0
  -29.5871  -14.0323   18.3719 C   0  0  0  0  0  0  0  0  0  0  0  0
  -22.9164  -33.9798   17.4650 C   0  0  0  0  0  0  0  0  0  0  0  0
  -28.3034  -13.3734   18.8818 C   0  0  0  0  0  0  0  0  0  0  0  0
  -30.3500  -14.7326   19.4950 C   0  0  0  0  0  0  0  0  0  0  0  0
  -28.2756  -15.0300   20.7902 C   0  0  0  0  0  0  0  0  0  0  0  0
  -22.7495  -32.4604   17.3428 C   0  0  1  0  0  0  0  0  0  0  0  0
  -23.6420  -30.8801   20.6803 C   0  0  1  0  0  0  0  0  0  0  0  0
  -27.4397  -14.3673   19.6830 C   0  0  2  0  0  0  0  0  0  0  0  0
  -32.1857  -22.1119   21.2033 C   0  0  0  0  0  0  0  0  0  0  0  0
  -29.9342  -23.3043   17.0680 C   0  0  0  0  0  0  0  0  0  0  0  0
  -26.6737  -32.7652   27.5548 C   0  0  0  0  0  0  0  0  0  0  0  0
  -26.3794  -34.5691   21.1885 C   0  0  0  0  0  0  0  0  0  0  0  0
  -27.4326  -34.8281   23.4451 C   0  0  0  0  0  0  0  0  0  0  0  0
  -25.0059  -35.3185   23.1395 C   0  0  0  0  0  0  0  0  0  0  0  0
  -25.2204  -29.3923   26.5610 C   0  0  0  0  0  0  0  0  0  0  0  0
  -28.2964  -25.2796   19.3275 C   0  0  0  0  0  0  0  0  0  1  0  0
  -30.7822  -22.3366   20.6463 C   0  0  1  0  0  0  0  0  0  0  0  0
  -29.7534  -23.2863   18.5778 C   0  0  1  0  0  0  0  0  0  0  0  0
  -25.8016  -32.9192   23.0885 C   0  0  1  0  0  0  0  0  0  0  0  0
  -25.8496  -31.8048   26.7114 C   0  0  2  0  0  0  0  0  0  0  0  0
  -26.1545  -34.3834   22.7024 C   0  0  0  0  0  0  0  0  0  0  0  0
  -26.2344  -12.4110   20.5783 N   0  0  0  0  0  0  0  0  0  0  0  0
  -30.0052  -19.9584   20.6810 N   0  0  0  0  0  0  0  0  0  0  0  0
  -26.1880  -13.7087   20.2321 N   0  0  0  0  0  0  0  0  0  0  0  0
  -24.7434  -31.2929   21.5527 N   0  0  0  0  0  0  0  0  0  0  0  0
  -29.4697  -15.6615   20.2070 N   0  0  0  0  0  0  0  0  0  0  0  0
  -24.7483  -15.5870   20.1339 N   0  0  0  0  0  0  0  0  0  0  0  0
  -22.1028  -12.3331   21.8101 N   0  0  0  0  0  0  0  0  0  0  0  0
  -28.8857  -17.8200   20.9569 N   0  0  0  0  0  0  0  0  0  0  0  0
  -22.7393  -31.8461   18.6531 N   0  0  0  0  0  0  0  0  0  0  0  0
  -25.5567  -32.7193   24.5127 N   0  0  0  0  0  0  0  0  0  0  0  0
  -25.9971  -30.4350   27.2797 N   0  3  0  0  0  0  0  0  0  0  0  0
  -30.8959  -22.5465   19.1790 N   0  3  0  0  0  0  0  0  0  0  0  0
  -22.1669  -14.5324   21.1639 O   0  0  0  0  0  0  0  0  0  0  0  0
  -25.0419  -31.6634   18.9478 O   0  0  0  0  0  0  0  0  0  0  0  0
  -30.6910  -25.2935   19.5284 O   0  0  0  0  0  0  0  0  0  0  0  0
  -23.4944  -32.9946   22.5429 O   0  0  0  0  0  0  0  0  0  0  0  0
  -27.2044  -31.1193   24.8321 O   0  0  0  0  0  0  0  0  0  0  0  0
  -30.8440  -17.4669   19.7644 O   0  0  0  0  0  0  0  0  0  0  0  0
  -23.6056   -7.0669   22.8319 O   0  0  0  0  0  0  0  0  0  0  0  0
  -28.3719  -26.5918   19.8833 O   0  0  0  0  0  0  0  0  0  1  0  0
  -18.8234   -4.9390   21.0977 F   0  0  0  0  0  0  0  0  0  0  0  0
  -21.2100   -8.3382   23.3683 F   0  0  0  0  0  0  0  0  0  0  0  0
  -28.4058  -21.5904   21.8897 S   0  0  0  0  0  0  0  0  0  0  0  0
  1  2  1  0  0  0  0
  1  5  2  0  0  0  0
  2  6  2  0  0  0  0
  3  8  2  0  0  0  0
  3 16  1  0  0  0  0
  4  9  1  0  0  0  0
  4 16  2  0  0  0  0
  5 18  1  0  0  0  0
  6 20  1  0  0  0  0
  7 10  2  0  0  0  0
  7 19  1  0  0  0  0
  8 22  1  0  0  0  0
  9 22  2  0  0  0  0
 10 23  1  0  0  0  0
 11 12  2  0  0  0  0
 11 24  1  0  0  0  0
 12 25  1  0  0  0  0
 13 21  1  0  0  0  0
 13 23  2  0  0  0  0
 14 25  2  0  0  0  0
 14 26  1  0  0  0  0
 15 28  2  0  0  0  0
 15 84  1  0  0  0  0
 16 27  1  0  0  0  0
 17 27  1  0  0  0  0
 17 29  2  0  0  0  0
 17 31  1  0  0  0  0
 18 20  2  0  0  0  0
 18 37  1  0  0  0  0
 19 21  2  0  0  0  0
 19 38  1  0  0  0  0
 20 46  1  0  0  0  0
 21 39  1  0  0  0  0
 22 80  1  0  0  0  0
 23 81  1  0  0  0  0
 24 26  2  0  0  0  0
 24 80  1  0  0  0  0
 25 82  1  0  0  0  0
 26 83  1  0  0  0  0
 27 62  2  0  0  0  0
 28 63  1  0  0  0  0
 28 69  1  0  0  0  0
 29 64  1  0  0  0  0
 29 67  1  0  0  0  0
 30 57  1  0  0  0  0
 30 63  2  0  0  0  0
 30 84  1  0  0  0  0
 31 68  1  0  0  0  0
 31 74  2  0  0  0  0
 32 47  1  0  0  0  0
 32 70  1  0  0  0  0
 32 75  2  0  0  0  0
 33 56  1  0  0  0  0
 33 58  1  0  0  0  0
 33 76  2  0  0  0  0
 34 59  1  0  0  0  0
 34 65  1  0  0  0  0
 34 77  2  0  0  0  0
 35 60  1  0  0  0  0
 35 71  1  0  0  0  0
 35 78  2  0  0  0  0
 36 66  1  0  0  0  0
 36 69  1  0  0  0  0
 36 79  2  0  0  0  0
 37 40  1  0  0  0  0
 38 47  1  0  0  0  0
 39 65  1  0  0  0  0
 40 42  1  0  0  0  0
 41 43  1  0  0  0  0
 41 44  1  0  0  0  0
 42 46  1  0  0  0  0
 43 48  1  0  0  0  0
 44 66  1  0  0  0  0
 45 48  1  0  0  0  0
 45 66  1  0  0  0  0
 46 70  1  0  0  0  0
 47 65  1  0  0  0  0
 48 64  1  0  0  0  0
 49 57  1  0  0  0  0
 50 58  1  0  0  0  0
 51 60  1  0  0  0  0
 52 61  1  0  0  0  0
 53 61  1  0  0  0  0
 54 61  1  0  0  0  0
 55 72  1  0  0  0  0
 56 81  1  0  0  0  0
 57 73  1  0  0  0  0
 58 73  1  0  0  0  0
 59 61  1  0  0  0  0
 59 71  1  0  0  0  0
 60 72  1  0  0  0  0
 62 64  1  0  0  0  0
M  CHG  2  72   1  73   1
M  ISO  4  36 100  56 101  69 100  81 101
M  END
> <Batch ID>
0181

> <Smiles>
CNC(C)C(=O)NC(C(=O)N1Cc2cc([101O:1][101CH2:1]C(=O)C(C)NC(C)c3nc([100NH:0][100C:0](=O)N4CCCC(n5nc(-c6ccc(Oc7ccc(F)cc7F)cc6)c(C(N)=O)c5N)C4)cs3)ccc2CC1C(=O)NC1CCCc2ccccc21)C(C)(C)C

> <Shape>
0.355

> <Color>
0.189

> <Negative vol penalty>
0.000

$$$$

  -OEChem-04052304533D

 84 92  0     1  0  0  0  0  0999 V2000
  -27.4320  -35.7153   28.2164 C   0  0  0  0  0  0  0  0  0  0  0  0
  -26.2406  -35.0089   28.3472 C   0  0  0  0  0  0  0  0  0  0  0  0
  -22.7826  -10.4073   22.1931 C   0  0  0  0  0  0  0  0  0  0  0  0
  -23.1589   -9.9576   19.8494 C   0  0  0  0  0  0  0  0  0  0  0  0
  -27.9902  -35.9107   26.9538 C   0  0  0  0  0  0  0  0  0  0  0  0
  -25.6061  -34.4985   27.2153 C   0  0  0  0  0  0  0  0  0  0  0  0
  -21.5904  -28.9617   25.0858 C   0  0  0  0  0  0  0  0  0  0  0  0
  -22.4586   -9.0663   22.3985 C   0  0  0  0  0  0  0  0  0  0  0  0
  -22.8349   -8.6165   20.0547 C   0  0  0  0  0  0  0  0  0  0  0  0
  -20.3917  -28.6909   24.4274 C   0  0  0  0  0  0  0  0  0  0  0  0
  -19.7980   -7.0424   21.8994 C   0  0  0  0  0  0  0  0  0  0  0  0
  -18.6722   -6.7595   22.6727 C   0  0  0  0  0  0  0  0  0  0  0  0
  -21.4895  -29.0217   22.3051 C   0  0  0  0  0  0  0  0  0  0  0  0
  -20.0547   -5.5514   24.2433 C   0  0  0  0  0  0  0  0  0  0  0  0
  -23.1327  -10.8530   20.9185 C   0  0  0  0  0  0  0  0  0  0  0  0
  -24.7415  -12.8290   20.7968 C   0  0  0  0  0  0  0  0  0  0  0  0
  -27.3672  -35.3940   25.8067 C   0  0  0  0  0  0  0  0  0  0  0  0
  -22.7470  -29.2759   24.3578 C   0  0  0  0  0  0  0  0  0  0  0  0
  -26.1558  -34.6883   25.9360 C   0  0  0  0  0  0  0  0  0  0  0  0
  -22.7023  -29.2937   22.9565 C   0  0  0  0  0  0  0  0  0  0  0  0
  -22.4848   -8.1708   21.3293 C   0  0  0  0  0  0  0  0  0  0  0  0
  -20.3404  -28.7237   23.0370 C   0  0  0  0  0  0  0  0  0  0  0  0
  -21.0521   -6.5797   22.2979 C   0  0  0  0  0  0  0  0  0  0  0  0
  -18.8005   -6.0140   23.8447 C   0  0  0  0  0  0  0  0  0  0  0  0
  -21.1805   -5.8343   23.4698 C   0  0  0  0  0  0  0  0  0  0  0  0
  -23.4669  -12.2383   20.7057 C   0  0  0  0  0  0  0  0  0  0  0  0
  -20.7675  -22.3976   20.6199 C   0  0  0  0  0  0  0  0  0  0  0  0
  -21.2863  -23.6717   20.5226 C   0  0  0  0  0  0  0  0  0  0  0  0
  -24.5271  -14.1544   20.5072 C   0  0  0  0  0  0  0  0  0  0  0  0
  -19.1960  -24.1290   20.0412 C   0  0  0  0  0  0  0  0  0  0  0  0
  -21.3995  -21.1775   20.9342 C   0  0  0  0  0  0  0  0  0  0  0  0
  -20.8146  -19.9326   20.9920 C   0  0  0  0  0  0  0  0  0  0  0  0
  -26.0061  -12.2329   21.1147 C   0  0  0  0  0  0  0  0  0  0  0  0
  -21.6183  -18.7402   21.3283 C   0  0  0  0  0  0  0  0  0  0  0  0
  -24.6619  -31.8061   24.1713 C   0  0  0  0  0  0  0  0  0  0  0  0
  -18.0621  -26.9838   20.8247 C   0  0  0  0  0  0  0  0  0  0  0  0
  -26.4276  -29.8431   22.2867 C   0  0  0  0  0  0  0  0  0  0  0  0
  -26.5298  -27.1203   20.2318 C   0  0  0  0  0  0  0  0  0  0  0  0
  -27.9838  -35.6714   24.4586 C   0  0  0  0  0  0  0  0  0  0  0  0
  -24.0387  -29.5394   25.0821 C   0  0  0  0  0  0  0  0  0  0  0  0
  -23.9208  -29.6055   22.1280 C   0  0  0  0  0  0  0  0  0  0  0  0
  -27.4442  -34.7760   23.3462 C   0  0  0  0  0  0  0  0  0  0  0  0
  -20.4812  -16.5188   18.6443 C   0  0  0  0  0  0  0  0  0  0  0  0
  -25.9216  -34.7066   23.4081 C   0  0  0  0  0  0  0  0  0  0  0  0
  -21.2341  -15.2358   18.9862 C   0  0  0  0  0  0  0  0  0  0  0  0
  -20.0763  -17.2952   19.8964 C   0  0  0  0  0  0  0  0  0  0  0  0
  -21.9712  -16.3078   21.1513 C   0  0  0  0  0  0  0  0  0  0  0  0
  -25.4505  -34.0978   24.7343 C   0  0  1  0  0  0  0  0  0  0  0  0
  -25.0314  -30.3522   24.2568 C   0  0  1  0  0  0  0  0  0  0  0  0
  -22.4294  -15.5345   19.9049 C   0  0  1  0  0  0  0  0  0  0  0  0
  -22.6961  -24.0617   20.7378 C   0  0  0  0  0  0  0  0  0  0  0  0
  -16.7990  -26.6434   18.6901 C   0  0  0  0  0  0  0  0  0  0  0  0
  -28.1073  -25.7839   18.8095 C   0  0  0  0  0  0  0  0  0  0  0  0
  -26.3544  -32.0274   20.1575 C   0  0  0  0  0  0  0  0  0  0  0  0
  -27.0862  -30.3194   18.4796 C   0  0  0  0  0  0  0  0  0  0  0  0
  -28.5660  -30.8865   20.4061 C   0  0  0  0  0  0  0  0  0  0  0  0
  -26.0763  -24.6694   21.8275 C   0  0  0  0  0  0  0  0  0  0  0  0
  -19.2635  -27.8707   21.0956 C   0  0  0  0  0  0  0  0  0  1  0  0
  -18.0411  -26.2686   19.4810 C   0  0  2  0  0  0  0  0  0  0  0  0
  -26.4697  -29.5320   20.8101 C   0  0  1  0  0  0  0  0  0  0  0  0
  -27.4708  -25.9300   20.1828 C   0  0  2  0  0  0  0  0  0  0  0  0
  -27.0955  -30.6873   19.9787 C   0  0  0  0  0  0  0  0  0  0  0  0
  -22.5134  -13.1165   20.3836 N   0  0  0  0  0  0  0  0  0  0  0  0
  -20.3867  -24.6658   20.1904 N   0  0  0  0  0  0  0  0  0  0  0  0
  -23.1893  -14.2725   20.2698 N   0  0  0  0  0  0  0  0  0  0  0  0
  -21.2254  -17.5175   20.7869 N   0  0  0  0  0  0  0  0  0  0  0  0
  -25.1586  -29.8624   22.8827 N   0  0  0  0  0  0  0  0  0  0  0  0
  -25.3545  -15.2187   20.4350 N   0  0  0  0  0  0  0  0  0  0  0  0
  -26.0476  -10.8585   21.3858 N   0  0  0  0  0  0  0  0  0  0  0  0
  -18.0565  -24.8399   19.7063 N   0  0  0  0  0  0  0  0  0  0  0  0
  -25.6046  -32.6590   24.7130 N   0  0  0  0  0  0  0  0  0  0  0  0
  -27.1675  -28.2573   20.6812 N   0  0  0  0  0  0  0  0  0  0  0  0
  -26.7330  -24.6734   20.4950 N   0  3  0  0  0  0  0  0  0  0  0  0
  -27.0653  -12.9024   21.1731 O   0  0  0  0  0  0  0  0  0  0  0  0
  -22.5871  -18.8991   22.0732 O   0  0  0  0  0  0  0  0  0  0  0  0
  -23.6009  -32.1302   23.6510 O   0  0  0  0  0  0  0  0  0  0  0  0
  -17.1540  -26.8626   21.6474 O   0  0  0  0  0  0  0  0  0  0  0  0
  -27.4823  -30.0539   22.8907 O   0  0  0  0  0  0  0  0  0  0  0  0
  -25.3484  -27.0495   19.9006 O   0  0  0  0  0  0  0  0  0  0  0  0
  -22.1690   -6.8621   21.5294 O   0  0  0  0  0  0  0  0  0  0  0  0
  -19.1714  -28.4603   22.3919 O   0  0  0  0  0  0  0  0  0  1  0  0
  -17.7195   -5.7437   24.5881 F   0  0  0  0  0  0  0  0  0  0  0  0
  -22.3829   -5.3882   23.8584 F   0  0  0  0  0  0  0  0  0  0  0  0
  -19.0857  -22.4341   20.2859 S   0  0  0  0  0  0  0  0  0  0  0  0
  1  2  1  0  0  0  0
  1  5  2  0  0  0  0
  2  6  2  0  0  0  0
  3  8  2  0  0  0  0
  3 15  1  0  0  0  0
  4  9  1  0  0  0  0
  4 15  2  0  0  0  0
  5 17  1  0  0  0  0
  6 19  1  0  0  0  0
  7 10  2  0  0  0  0
  7 18  1  0  0  0  0
  8 21  1  0  0  0  0
  9 21  2  0  0  0  0
 10 22  1  0  0  0  0
 11 12  2  0  0  0  0
 11 23  1  0  0  0  0
 12 24  1  0  0  0  0
 13 20  1  0  0  0  0
 13 22  2  0  0  0  0
 14 24  2  0  0  0  0
 14 25  1  0  0  0  0
 15 26  1  0  0  0  0
 16 26  1  0  0  0  0
 16 29  2  0  0  0  0
 16 33  1  0  0  0  0
 17 19  2  0  0  0  0
 17 39  1  0  0  0  0
 18 20  2  0  0  0  0
 18 40  1  0  0  0  0
 19 48  1  0  0  0  0
 20 41  1  0  0  0  0
 21 80  1  0  0  0  0
 22 81  1  0  0  0  0
 23 25  2  0  0  0  0
 23 80  1  0  0  0  0
 24 82  1  0  0  0  0
 25 83  1  0  0  0  0
 26 63  2  0  0  0  0
 27 28  2  0  0  0  0
 27 31  1  0  0  0  0
 27 84  1  0  0  0  0
 28 51  1  0  0  0  0
 28 64  1  0  0  0  0
 29 65  1  0  0  0  0
 29 68  1  0  0  0  0
 30 64  2  0  0  0  0
 30 70  1  0  0  0  0
 30 84  1  0  0  0  0
 31 32  2  0  0  0  0
 32 34  1  0  0  0  0
 33 69  1  0  0  0  0
 33 74  2  0  0  0  0
 34 66  1  0  0  0  0
 34 75  2  0  0  0  0
 35 49  1  0  0  0  0
 35 71  1  0  0  0  0
 35 76  2  0  0  0  0
 36 58  1  0  0  0  0
 36 59  1  0  0  0  0
 36 77  2  0  0  0  0
 37 60  1  0  0  0  0
 37 67  1  0  0  0  0
 37 78  2  0  0  0  0
 38 61  1  0  0  0  0
 38 72  1  0  0  0  0
 38 79  2  0  0  0  0
 39 42  1  0  0  0  0
 40 49  1  0  0  0  0
 41 67  1  0  0  0  0
 42 44  1  0  0  0  0
 43 45  1  0  0  0  0
 43 46  1  0  0  0  0
 44 48  1  0  0  0  0
 45 50  1  0  0  0  0
 46 66  1  0  0  0  0
 47 50  1  0  0  0  0
 47 66  1  0  0  0  0
 48 71  1  0  0  0  0
 49 67  1  0  0  0  0
 50 65  1  0  0  0  0
 52 59  1  0  0  0  0
 53 61  1  0  0  0  0
 54 62  1  0  0  0  0
 55 62  1  0  0  0  0
 56 62  1  0  0  0  0
 57 73  1  0  0  0  0
 58 81  1  0  0  0  0
 59 70  1  0  0  0  0
 60 62  1  0  0  0  0
 60 72  1  0  0  0  0
 61 73  1  0  0  0  0
 63 65  1  0  0  0  0
M  CHG  1  73   1
M  ISO  4  32 100  34 100  58 101  81 101
M  END
> <Batch ID>
0181

> <Smiles>
CNC(C)C(=O)NC(C(=O)N1Cc2cc([101O:1][101CH2:1]C(=O)C(C)Nc3nc(C)c(C=[100CH:0][100C:0](=O)N4CCCC(n5nc(-c6ccc(Oc7ccc(F)cc7F)cc6)c(C(N)=O)c5N)C4)s3)ccc2CC1C(=O)NC1CCCc2ccccc21)C(C)(C)C

> <Shape>
0.251

> <Color>
0.097

> <Negative vol penalty>
0.000

$$$$

  -OEChem-04052304533D

 90 98  0     1  0  0  0  0  0999 V2000
  -20.6834  -25.3416   18.5401 C   0  0  0  0  0  0  0  0  0  0  0  0
  -21.3520  -24.1424   18.3155 C   0  0  0  0  0  0  0  0  0  0  0  0
  -26.3518  -27.8491   18.8612 C   0  0  0  0  0  0  0  0  0  0  0  0
  -26.1097  -26.8414   21.0436 C   0  0  0  0  0  0  0  0  0  0  0  0
  -20.5503  -25.8314   19.8387 C   0  0  0  0  0  0  0  0  0  0  0  0
  -21.8888  -23.4330   19.3892 C   0  0  0  0  0  0  0  0  0  0  0  0
  -22.2620  -17.3471   19.9625 C   0  0  0  0  0  0  0  0  0  0  0  0
  -25.7879  -29.0300   19.3439 C   0  0  0  0  0  0  0  0  0  0  0  0
  -25.5458  -28.0223   21.5264 C   0  0  0  0  0  0  0  0  0  0  0  0
  -23.3021  -16.4460   19.7392 C   0  0  0  0  0  0  0  0  0  0  0  0
  -24.3736  -30.8919   23.4262 C   0  0  0  0  0  0  0  0  0  0  0  0
  -24.8164  -31.3654   24.6612 C   0  0  0  0  0  0  0  0  0  0  0  0
  -29.6325  -17.7426   19.8300 C   0  0  0  0  0  0  0  0  0  0  0  0
  -23.8607  -16.5189   22.0849 C   0  0  0  0  0  0  0  0  0  0  0  0
  -27.0643  -31.5317   23.7915 C   0  0  0  0  0  0  0  0  0  0  0  0
  -26.5127  -26.7547   19.7110 C   0  0  0  0  0  0  0  0  0  0  0  0
  -30.4531  -16.6384   20.0318 C   0  0  0  0  0  0  0  0  0  0  0  0
  -28.4583  -25.1850   19.2029 C   0  0  0  0  0  0  0  0  0  0  0  0
  -21.0773  -25.1228   20.9298 C   0  0  0  0  0  0  0  0  0  0  0  0
  -22.0199  -17.8501   21.2489 C   0  0  0  0  0  0  0  0  0  0  0  0
  -21.7637  -23.9145   20.7034 C   0  0  0  0  0  0  0  0  0  0  0  0
  -22.8153  -17.4243   22.3222 C   0  0  0  0  0  0  0  0  0  0  0  0
  -30.1193  -15.4169   19.4575 C   0  0  0  0  0  0  0  0  0  0  0  0
  -25.3849  -29.1166   20.6765 C   0  0  0  0  0  0  0  0  0  0  0  0
  -24.1035  -16.0339   20.8000 C   0  0  0  0  0  0  0  0  0  0  0  0
  -25.2762  -30.7383   22.3738 C   0  0  0  0  0  0  0  0  0  0  0  0
  -26.1618  -31.6853   24.8439 C   0  0  0  0  0  0  0  0  0  0  0  0
  -26.6215  -31.0582   22.5564 C   0  0  0  0  0  0  0  0  0  0  0  0
  -27.0946  -25.5344   19.2128 C   0  0  0  0  0  0  0  0  0  0  0  0
  -28.4985  -17.5743   19.0519 C   0  0  0  0  0  0  0  0  0  0  0  0
  -28.9634  -15.3527   18.6962 C   0  0  0  0  0  0  0  0  0  0  0  0
  -28.4887  -23.9367   18.6308 C   0  0  0  0  0  0  0  0  0  0  0  0
  -29.5957  -25.9228   19.6693 C   0  0  0  0  0  0  0  0  0  0  0  0
  -31.6510  -16.7909   20.8468 C   0  0  0  0  0  0  0  0  0  0  0  0
  -22.0599  -20.7403   22.5714 C   0  0  0  0  0  0  0  0  0  0  0  0
  -26.4838  -13.7379   19.1711 C   0  0  0  0  0  0  0  0  0  0  0  0
  -20.9040  -19.1488   25.1509 C   0  0  0  0  0  0  0  0  0  0  0  0
  -20.6012  -16.1977   26.8379 C   0  0  0  0  0  0  0  0  0  0  0  0
  -26.4883  -18.7664   18.1116 C   0  0  0  0  0  0  0  0  0  0  0  0
  -20.9496  -25.7159   22.3106 C   0  0  0  0  0  0  0  0  0  0  0  0
  -20.8771  -18.8010   21.4778 C   0  0  0  0  0  0  0  0  0  0  0  0
  -22.5839  -17.9191   23.7259 C   0  0  0  0  0  0  0  0  0  0  0  0
  -21.2209  -24.7151   23.4309 C   0  0  0  0  0  0  0  0  0  0  0  0
  -24.8784  -21.3247   16.2299 C   0  0  0  0  0  0  0  0  0  0  0  0
  -22.4861  -23.9152   23.1373 C   0  0  0  0  0  0  0  0  0  0  0  0
  -25.4236  -22.6192   16.8374 C   0  0  0  0  0  0  0  0  0  0  0  0
  -24.6680  -20.2452   17.2902 C   0  0  0  0  0  0  0  0  0  0  0  0
  -26.3840  -21.2588   18.7384 C   0  0  0  0  0  0  0  0  0  0  0  0
  -22.3382  -23.1036   21.8447 C   0  0  1  0  0  0  0  0  0  0  0  0
  -21.0451  -19.6447   22.7377 C   0  0  1  0  0  0  0  0  0  0  0  0
  -26.6735  -22.3544   17.6995 C   0  0  2  0  0  0  0  0  0  0  0  0
  -27.2610  -12.3404   17.2448 C   0  0  0  0  0  0  0  0  0  0  0  0
  -19.6331  -15.2182   28.9357 C   0  0  0  0  0  0  0  0  0  0  0  0
  -23.1790  -20.3770   26.7714 C   0  0  0  0  0  0  0  0  0  0  0  0
  -22.7430  -18.6678   28.5481 C   0  0  0  0  0  0  0  0  0  0  0  0
  -20.9728  -20.3197   27.9478 C   0  0  0  0  0  0  0  0  0  0  0  0
  -18.8423  -14.3713   25.3117 C   0  0  0  0  0  0  0  0  0  0  0  0
  -25.3086  -14.6953   19.2470 C   0  0  0  0  0  0  0  0  0  1  0  0
  -27.2625  -13.7283   17.8631 C   0  0  2  0  0  0  0  0  0  0  0  0
  -21.5185  -18.4479   26.3383 C   0  0  1  0  0  0  0  0  0  0  0  0
  -19.3987  -15.5132   27.4623 C   0  0  2  0  0  0  0  0  0  0  0  0
  -30.9857  -14.2173   19.6616 C   0  0  0  0  0  0  0  0  0  0  0  0
  -22.1092  -19.4451   27.3747 C   0  0  0  0  0  0  0  0  0  0  0  0
  -26.3152  -24.5849   18.6884 N   0  0  0  0  0  0  0  0  0  0  0  0
  -28.1415  -16.4036   18.4778 N   0  0  0  0  0  0  0  0  0  0  0  0
  -27.1920  -23.6265   18.3436 N   0  0  0  0  0  0  0  0  0  0  0  0
  -21.4583  -18.8523   23.8977 N   0  0  0  0  0  0  0  0  0  0  0  0
  -25.8948  -20.0456   18.0648 N   0  0  0  0  0  0  0  0  0  0  0  0
  -29.4980  -23.0852   18.3503 N   0  0  0  0  0  0  0  0  0  0  0  0
  -29.3860  -27.1899   20.2303 N   0  0  0  0  0  0  0  0  0  0  0  0
  -27.6685  -18.7052   18.8518 N   0  0  0  0  0  0  0  0  0  0  0  0
  -28.6249  -14.1396   18.1217 N   0  0  0  0  0  0  0  0  0  0  0  0
  -21.5375  -21.9211   22.0792 N   0  0  0  0  0  0  0  0  0  0  0  0
  -20.4836  -17.5710   26.8753 N   0  0  0  0  0  0  0  0  0  0  0  0
  -19.1148  -14.2271   26.7649 N   0  3  0  0  0  0  0  0  0  0  0  0
  -30.7652  -25.4787   19.5759 O   0  0  0  0  0  0  0  0  0  0  0  0
  -32.5766  -17.5586   20.6029 O   0  0  0  0  0  0  0  0  0  0  0  0
  -23.2299  -20.5303   22.8692 O   0  0  0  0  0  0  0  0  0  0  0  0
  -26.7783  -13.0055   20.1161 O   0  0  0  0  0  0  0  0  0  0  0  0
  -19.9619  -19.9253   25.3280 O   0  0  0  0  0  0  0  0  0  0  0  0
  -21.5516  -15.5764   26.3676 O   0  0  0  0  0  0  0  0  0  0  0  0
  -26.0012  -17.8028   17.5148 O   0  0  0  0  0  0  0  0  0  0  0  0
  -24.8348  -30.2689   21.1480 O   0  0  0  0  0  0  0  0  0  0  0  0
  -25.1198  -15.1550   20.5847 O   0  0  0  0  0  0  0  0  0  1  0  0
  -26.5866  -32.1414   26.0295 F   0  0  0  0  0  0  0  0  0  0  0  0
  -27.4930  -30.9139   21.5487 F   0  0  0  0  0  0  0  0  0  0  0  0
  -31.7722  -16.0420   21.9593 F   0  0  0  0  0  0  0  0  0  0  0  0
  -32.0812  -14.4619   20.4383 F   0  0  0  0  0  0  0  0  0  0  0  0
  -30.3418  -13.1776   20.2678 F   0  0  0  0  0  0  0  0  0  0  0  0
  -31.4703  -13.7168   18.4889 F   0  0  0  0  0  0  0  0  0  0  0  0
  1  2  1  0  0  0  0
  1  5  2  0  0  0  0
  2  6  2  0  0  0  0
  3  8  2  0  0  0  0
  3 16  1  0  0  0  0
  4  9  1  0  0  0  0
  4 16  2  0  0  0  0
  5 19  1  0  0  0  0
  6 21  1  0  0  0  0
  7 10  2  0  0  0  0
  7 20  1  0  0  0  0
  8 24  1  0  0  0  0
  9 24  2  0  0  0  0
 10 25  1  0  0  0  0
 11 12  2  0  0  0  0
 11 26  1  0  0  0  0
 12 27  1  0  0  0  0
 13 17  2  0  0  0  0
 13 30  1  0  0  0  0
 14 22  1  0  0  0  0
 14 25  2  0  0  0  0
 15 27  2  0  0  0  0
 15 28  1  0  0  0  0
 16 29  1  0  0  0  0
 17 23  1  0  0  0  0
 17 34  1  0  0  0  0
 18 29  1  0  0  0  0
 18 32  2  0  0  0  0
 18 33  1  0  0  0  0
 19 21  2  0  0  0  0
 19 40  1  0  0  0  0
 20 22  2  0  0  0  0
 20 41  1  0  0  0  0
 21 49  1  0  0  0  0
 22 42  1  0  0  0  0
 23 31  2  0  0  0  0
 23 62  1  0  0  0  0
 24 83  1  0  0  0  0
 25 84  1  0  0  0  0
 26 28  2  0  0  0  0
 26 83  1  0  0  0  0
 27 85  1  0  0  0  0
 28 86  1  0  0  0  0
 29 64  2  0  0  0  0
 30 65  2  0  0  0  0
 30 71  1  0  0  0  0
 31 65  1  0  0  0  0
 31 72  1  0  0  0  0
 32 66  1  0  0  0  0
 32 69  1  0  0  0  0
 33 70  1  0  0  0  0
 33 76  2  0  0  0  0
 34 77  2  0  0  0  0
 34 87  1  0  0  0  0
 35 50  1  0  0  0  0
 35 73  1  0  0  0  0
 35 78  2  0  0  0  0
 36 58  1  0  0  0  0
 36 59  1  0  0  0  0
 36 79  2  0  0  0  0
 37 60  1  0  0  0  0
 37 67  1  0  0  0  0
 37 80  2  0  0  0  0
 38 61  1  0  0  0  0
 38 74  1  0  0  0  0
 38 81  2  0  0  0  0
 39 68  1  0  0  0  0
 39 71  1  0  0  0  0
 39 82  2  0  0  0  0
 40 43  1  0  0  0  0
 41 50  1  0  0  0  0
 42 67  1  0  0  0  0
 43 45  1  0  0  0  0
 44 46  1  0  0  0  0
 44 47  1  0  0  0  0
 45 49  1  0  0  0  0
 46 51  1  0  0  0  0
 47 68  1  0  0  0  0
 48 51  1  0  0  0  0
 48 68  1  0  0  0  0
 49 73  1  0  0  0  0
 50 67  1  0  0  0  0
 51 66  1  0  0  0  0
 52 59  1  0  0  0  0
 53 61  1  0  0  0  0
 54 63  1  0  0  0  0
 55 63  1  0  0  0  0
 56 63  1  0  0  0  0
 57 75  1  0  0  0  0
 58 84  1  0  0  0  0
 59 72  1  0  0  0  0
 60 63  1  0  0  0  0
 60 74  1  0  0  0  0
 61 75  1  0  0  0  0
 62 88  1  0  0  0  0
 62 89  1  0  0  0  0
 62 90  1  0  0  0  0
 64 66  1  0  0  0  0
M  CHG  1  75   1
M  ISO  4  39 100  58 101  71 100  84 101
M  END
> <Batch ID>
0181

> <Smiles>
CNC(C)C(=O)NC(C(=O)N1Cc2cc([101O:1][101CH2:1]C(=O)C(C)Nc3nc([100NH:0][100C:0](=O)N4CCCC(n5nc(-c6ccc(Oc7ccc(F)cc7F)cc6)c(C(N)=O)c5N)C4)cc(C(=O)F)c3C(F)(F)F)ccc2CC1C(=O)NC1CCCc2ccccc21)C(C)(C)C

> <Shape>
0.201

> <Color>
0.064

> <Negative vol penalty>
0.000

$$$$

  -OEChem-04052304533D

 88 96  0     1  0  0  0  0  0999 V2000
  -23.9783  -16.4268   25.4864 C   0  0  0  0  0  0  0  0  0  0  0  0
  -24.8339  -17.5206   25.5533 C   0  0  0  0  0  0  0  0  0  0  0  0
  -25.6673  -13.2572   21.5814 C   0  0  0  0  0  0  0  0  0  0  0  0
  -25.3624  -13.7963   19.2461 C   0  0  0  0  0  0  0  0  0  0  0  0
  -22.8247  -16.4956   24.7082 C   0  0  0  0  0  0  0  0  0  0  0  0
  -24.5301  -18.6877   24.8515 C   0  0  0  0  0  0  0  0  0  0  0  0
  -27.6966  -23.8518   24.1933 C   0  0  0  0  0  0  0  0  0  0  0  0
  -24.6224  -12.3364   21.5053 C   0  0  0  0  0  0  0  0  0  0  0  0
  -24.3174  -12.8755   19.1700 C   0  0  0  0  0  0  0  0  0  0  0  0
  -28.6278  -24.3813   23.3010 C   0  0  0  0  0  0  0  0  0  0  0  0
  -24.1576   -9.1839   20.3746 C   0  0  0  0  0  0  0  0  0  0  0  0
  -24.3509   -7.9340   20.9628 C   0  0  0  0  0  0  0  0  0  0  0  0
  -26.8534  -25.5339   22.1424 C   0  0  0  0  0  0  0  0  0  0  0  0
  -22.4666   -8.3294   22.4223 C   0  0  0  0  0  0  0  0  0  0  0  0
  -29.6182  -21.2029   16.2618 C   0  0  0  0  0  0  0  0  0  0  0  0
  -26.0373  -13.9872   20.4518 C   0  0  0  0  0  0  0  0  0  0  0  0
  -28.4829  -14.6958   20.2951 C   0  0  0  0  0  0  0  0  0  0  0  0
  -22.5138  -17.6601   23.9870 C   0  0  0  0  0  0  0  0  0  0  0  0
  -26.3331  -24.1512   24.0600 C   0  0  0  0  0  0  0  0  0  0  0  0
  -23.3582  -18.7852   24.0797 C   0  0  0  0  0  0  0  0  0  0  0  0
  -25.9072  -25.0090   23.0359 C   0  0  0  0  0  0  0  0  0  0  0  0
  -23.9474  -12.1455   20.2996 C   0  0  0  0  0  0  0  0  0  0  0  0
  -28.2060  -25.2201   22.2736 C   0  0  0  0  0  0  0  0  0  0  0  0
  -23.1189  -10.0066   20.8104 C   0  0  0  0  0  0  0  0  0  0  0  0
  -23.5054   -7.5067   21.9866 C   0  0  0  0  0  0  0  0  0  0  0  0
  -22.2734   -9.5794   21.8342 C   0  0  0  0  0  0  0  0  0  0  0  0
  -30.2341  -21.9424   15.2583 C   0  0  0  0  0  0  0  0  0  0  0  0
  -30.4586  -23.3022   15.4426 C   0  0  0  0  0  0  0  0  0  0  0  0
  -27.1163  -14.9389   20.5299 C   0  0  0  0  0  0  0  0  0  0  0  0
  -29.2488  -21.8650   17.4216 C   0  0  0  0  0  0  0  0  0  0  0  0
  -30.0515  -23.8703   16.6390 C   0  0  0  0  0  0  0  0  0  0  0  0
  -29.0876  -15.9126   20.4962 C   0  0  0  0  0  0  0  0  0  0  0  0
  -29.1464  -13.4790   19.9280 C   0  0  0  0  0  0  0  0  0  0  0  0
  -23.7059  -22.4483   23.5107 C   0  0  0  0  0  0  0  0  0  0  0  0
  -29.7902  -25.8373   19.0764 C   0  0  0  0  0  0  0  0  0  0  0  0
  -22.2260  -25.2866   24.0361 C   0  0  0  0  0  0  0  0  0  0  0  0
  -22.4161  -28.6940   24.0510 C   0  0  0  0  0  0  0  0  0  0  0  0
  -28.1701  -21.5559   19.6771 C   0  0  0  0  0  0  0  0  0  0  0  0
  -21.2482  -17.6830   23.1667 C   0  0  0  0  0  0  0  0  0  0  0  0
  -25.3444  -23.5934   25.0469 C   0  0  0  0  0  0  0  0  0  0  0  0
  -24.4572  -25.3776   22.8619 C   0  0  0  0  0  0  0  0  0  0  0  0
  -21.2403  -18.7890   22.1164 C   0  0  0  0  0  0  0  0  0  0  0  0
  -27.8562  -20.0622   22.8938 C   0  0  0  0  0  0  0  0  0  0  0  0
  -21.6321  -20.1137   22.7538 C   0  0  0  0  0  0  0  0  0  0  0  0
  -27.7670  -18.5647   22.5909 C   0  0  0  0  0  0  0  0  0  0  0  0
  -27.1348  -20.8982   21.8382 C   0  0  0  0  0  0  0  0  0  0  0  0
  -27.4487  -19.1326   20.1490 C   0  0  0  0  0  0  0  0  0  0  0  0
  -23.0640  -20.0544   23.3006 C   0  0  1  0  0  0  0  0  0  0  0  0
  -23.9184  -23.5534   24.5063 C   0  0  1  0  0  0  0  0  0  0  0  0
  -28.2161  -18.2534   21.1498 C   0  0  2  0  0  0  0  0  0  0  0  0
  -21.0335  -30.7422   24.4875 C   0  0  0  0  0  0  0  0  0  0  0  0
  -20.8285  -24.9128   21.3496 C   0  0  0  0  0  0  0  0  0  0  0  0
  -20.2345  -27.3445   21.3991 C   0  0  0  0  0  0  0  0  0  0  0  0
  -19.3682  -25.8144   23.1686 C   0  0  0  0  0  0  0  0  0  0  0  0
  -24.1945  -29.5677   26.2495 C   0  0  0  0  0  0  0  0  0  0  0  0
  -28.6585  -26.0052   20.0748 C   0  0  0  0  0  0  0  0  0  1  0  0
  -29.4426  -26.0845   17.6148 C   0  0  1  0  0  0  0  0  0  0  0  0
  -21.8143  -26.4538   23.1716 C   0  0  1  0  0  0  0  0  0  0  0  0
  -21.9908  -29.7221   25.0838 C   0  0  2  0  0  0  0  0  0  0  0  0
  -20.5885  -26.1231   22.2741 C   0  0  0  0  0  0  0  0  0  0  0  0
  -29.6430  -27.5296   17.2031 C   0  0  0  0  0  0  0  0  0  0  0  0
  -26.8672  -16.2101   20.8554 N   0  0  0  0  0  0  0  0  0  0  0  0
  -29.4503  -23.1843   17.6368 N   0  0  0  0  0  0  0  0  0  0  0  0
  -28.0855  -16.7767   20.8267 N   0  0  0  0  0  0  0  0  0  0  0  0
  -23.5282  -24.8019   23.8482 N   0  0  0  0  0  0  0  0  0  0  0  0
  -27.6147  -20.5522   20.4985 N   0  0  0  0  0  0  0  0  0  0  0  0
  -30.3734  -16.3169   20.4209 N   0  0  0  0  0  0  0  0  0  0  0  0
  -28.3746  -12.3209   19.7622 N   0  0  0  0  0  0  0  0  0  0  0  0
  -28.6220  -21.1025   18.4382 N   0  0  0  0  0  0  0  0  0  0  0  0
  -30.2804  -25.2260   16.8110 N   0  0  0  0  0  0  0  0  0  0  0  0
  -23.3228  -21.2472   24.0765 N   0  0  0  0  0  0  0  0  0  0  0  0
  -21.6058  -27.5787   24.0769 N   0  0  0  0  0  0  0  0  0  0  0  0
  -23.1803  -30.4472   25.6132 N   0  3  0  0  0  0  0  0  0  0  0  0
  -30.3891  -13.4167   19.7683 O   0  0  0  0  0  0  0  0  0  0  0  0
  -23.8754  -22.6693   22.3174 O   0  0  0  0  0  0  0  0  0  0  0  0
  -30.9226  -25.5159   19.4368 O   0  0  0  0  0  0  0  0  0  0  0  0
  -21.4244  -24.8267   24.8531 O   0  0  0  0  0  0  0  0  0  0  0  0
  -23.3693  -28.8650   23.2943 O   0  0  0  0  0  0  0  0  0  0  0  0
  -28.2646  -22.7261   20.0562 O   0  0  0  0  0  0  0  0  0  0  0  0
  -22.9278  -11.2470   20.2249 O   0  0  0  0  0  0  0  0  0  0  0  0
  -29.1127  -25.7378   21.4009 O   0  0  0  0  0  0  0  0  0  1  0  0
  -23.6901   -6.3057   22.5502 F   0  0  0  0  0  0  0  0  0  0  0  0
  -21.2730  -10.3649   22.2563 F   0  0  0  0  0  0  0  0  0  0  0  0
  -30.6097  -21.3475   14.1187 F   0  0  0  0  0  0  0  0  0  0  0  0
  -31.0508  -24.0267   14.4847 F   0  0  0  0  0  0  0  0  0  0  0  0
  -28.8687  -28.3526   17.9465 F   0  0  0  0  0  0  0  0  0  0  0  0
  -29.3325  -27.7364   15.9055 F   0  0  0  0  0  0  0  0  0  0  0  0
  -30.9263  -27.9122   17.3885 F   0  0  0  0  0  0  0  0  0  0  0  0
  1  2  1  0  0  0  0
  1  5  2  0  0  0  0
  2  6  2  0  0  0  0
  3  8  2  0  0  0  0
  3 16  1  0  0  0  0
  4  9  1  0  0  0  0
  4 16  2  0  0  0  0
  5 18  1  0  0  0  0
  6 20  1  0  0  0  0
  7 10  2  0  0  0  0
  7 19  1  0  0  0  0
  8 22  1  0  0  0  0
  9 22  2  0  0  0  0
 10 23  1  0  0  0  0
 11 12  2  0  0  0  0
 11 24  1  0  0  0  0
 12 25  1  0  0  0  0
 13 21  1  0  0  0  0
 13 23  2  0  0  0  0
 14 25  2  0  0  0  0
 14 26  1  0  0  0  0
 15 27  2  0  0  0  0
 15 30  1  0  0  0  0
 16 29  1  0  0  0  0
 17 29  1  0  0  0  0
 17 32  2  0  0  0  0
 17 33  1  0  0  0  0
 18 20  2  0  0  0  0
 18 39  1  0  0  0  0
 19 21  2  0  0  0  0
 19 40  1  0  0  0  0
 20 48  1  0  0  0  0
 21 41  1  0  0  0  0
 22 80  1  0  0  0  0
 23 81  1  0  0  0  0
 24 26  2  0  0  0  0
 24 80  1  0  0  0  0
 25 82  1  0  0  0  0
 26 83  1  0  0  0  0
 27 28  1  0  0  0  0
 27 84  1  0  0  0  0
 28 31  2  0  0  0  0
 28 85  1  0  0  0  0
 29 62  2  0  0  0  0
 30 63  2  0  0  0  0
 30 69  1  0  0  0  0
 31 63  1  0  0  0  0
 31 70  1  0  0  0  0
 32 64  1  0  0  0  0
 32 67  1  0  0  0  0
 33 68  1  0  0  0  0
 33 74  2  0  0  0  0
 34 49  1  0  0  0  0
 34 71  1  0  0  0  0
 34 75  2  0  0  0  0
 35 56  1  0  0  0  0
 35 57  1  0  0  0  0
 35 76  2  0  0  0  0
 36 58  1  0  0  0  0
 36 65  1  0  0  0  0
 36 77  2  0  0  0  0
 37 59  1  0  0  0  0
 37 72  1  0  0  0  0
 37 78  2  0  0  0  0
 38 66  1  0  0  0  0
 38 69  1  0  0  0  0
 38 79  2  0  0  0  0
 39 42  1  0  0  0  0
 40 49  1  0  0  0  0
 41 65  1  0  0  0  0
 42 44  1  0  0  0  0
 43 45  1  0  0  0  0
 43 46  1  0  0  0  0
 44 48  1  0  0  0  0
 45 50  1  0  0  0  0
 46 66  1  0  0  0  0
 47 50  1  0  0  0  0
 47 66  1  0  0  0  0
 48 71  1  0  0  0  0
 49 65  1  0  0  0  0
 50 64  1  0  0  0  0
 51 59  1  0  0  0  0
 52 60  1  0  0  0  0
 53 60  1  0  0  0  0
 54 60  1  0  0  0  0
 55 73  1  0  0  0  0
 56 81  1  0  0  0  0
 57 61  1  0  0  0  0
 57 70  1  0  0  0  0
 58 60  1  0  0  0  0
 58 72  1  0  0  0  0
 59 73  1  0  0  0  0
 61 86  1  0  0  0  0
 61 87  1  0  0  0  0
 61 88  1  0  0  0  0
 62 64  1  0  0  0  0
M  CHG  1  73   1
M  ISO  4  38 100  56 101  69 100  81 101
M  END
> <Batch ID>
0181

> <Smiles>
CNC(C)C(=O)NC(C(=O)N1Cc2cc([101O:1][101CH2:1]C(=O)C(Nc3nc([100NH:0][100C:0](=O)N4CCCC(n5nc(-c6ccc(Oc7ccc(F)cc7F)cc6)c(C(N)=O)c5N)C4)cc(F)c3F)C(F)(F)F)ccc2CC1C(=O)NC1CCCc2ccccc21)C(C)(C)C

> <Shape>
0.205

> <Color>
0.074

> <Negative vol penalty>
0.000

$$$$

  -OEChem-04052304533D

 86 94  0     1  0  0  0  0  0999 V2000
  -28.0629  -37.4008   25.8897 C   0  0  0  0  0  0  0  0  0  0  0  0
  -28.6784  -36.6032   24.9303 C   0  0  0  0  0  0  0  0  0  0  0  0
  -24.6038   -8.6744   21.4173 C   0  0  0  0  0  0  0  0  0  0  0  0
  -23.3141  -10.4468   22.4332 C   0  0  0  0  0  0  0  0  0  0  0  0
  -27.0404  -36.8761   26.6791 C   0  0  0  0  0  0  0  0  0  0  0  0
  -28.2725  -35.2800   24.7606 C   0  0  0  0  0  0  0  0  0  0  0  0
  -27.5535  -30.2671   19.6940 C   0  0  0  0  0  0  0  0  0  0  0  0
  -24.1034   -7.7722   22.3559 C   0  0  0  0  0  0  0  0  0  0  0  0
  -22.8135   -9.5446   23.3719 C   0  0  0  0  0  0  0  0  0  0  0  0
  -27.9159  -28.9480   19.4249 C   0  0  0  0  0  0  0  0  0  0  0  0
  -21.2536   -6.0224   22.8561 C   0  0  0  0  0  0  0  0  0  0  0  0
  -20.8166   -4.7813   22.3934 C   0  0  0  0  0  0  0  0  0  0  0  0
  -26.0853  -28.1728   20.7914 C   0  0  0  0  0  0  0  0  0  0  0  0
  -25.8561  -19.5104   23.0008 C   0  0  0  0  0  0  0  0  0  0  0  0
  -22.4466   -3.6834   23.7986 C   0  0  0  0  0  0  0  0  0  0  0  0
  -24.2092  -10.0118   21.4560 C   0  0  0  0  0  0  0  0  0  0  0  0
  -24.1725  -11.2610   19.2321 C   0  0  0  0  0  0  0  0  0  0  0  0
  -26.6152  -35.5487   26.5124 C   0  0  0  0  0  0  0  0  0  0  0  0
  -26.4591  -30.5494   20.5241 C   0  0  0  0  0  0  0  0  0  0  0  0
  -27.2443  -34.7367   25.5495 C   0  0  0  0  0  0  0  0  0  0  0  0
  -25.7096  -29.4963   21.0674 C   0  0  0  0  0  0  0  0  0  0  0  0
  -26.8564  -20.4732   22.9251 C   0  0  0  0  0  0  0  0  0  0  0  0
  -23.2082   -8.2072   23.3332 C   0  0  0  0  0  0  0  0  0  0  0  0
  -27.1835  -27.9006   19.9760 C   0  0  0  0  0  0  0  0  0  0  0  0
  -22.2872   -6.0941   23.7901 C   0  0  0  0  0  0  0  0  0  0  0  0
  -21.4131   -3.6117   22.8646 C   0  0  0  0  0  0  0  0  0  0  0  0
  -26.1166  -18.2108   22.5807 C   0  0  0  0  0  0  0  0  0  0  0  0
  -22.8837   -4.9246   24.2614 C   0  0  0  0  0  0  0  0  0  0  0  0
  -24.7263  -10.9444   20.4870 C   0  0  0  0  0  0  0  0  0  0  0  0
  -27.3835  -17.9274   22.0966 C   0  0  0  0  0  0  0  0  0  0  0  0
  -28.0902  -20.0885   22.4258 C   0  0  0  0  0  0  0  0  0  0  0  0
  -25.0325  -12.1917   18.7022 C   0  0  0  0  0  0  0  0  0  0  0  0
  -26.3926  -22.7974   22.1954 C   0  0  0  0  0  0  0  0  0  0  0  0
  -22.9867  -10.7587   18.6017 C   0  0  0  0  0  0  0  0  0  0  0  0
  -26.0784  -32.0445   23.3032 C   0  0  0  0  0  0  0  0  0  0  0  0
  -26.9197  -24.6161   20.9184 C   0  0  0  0  0  0  0  0  0  0  0  0
  -22.9301  -31.5668   22.6848 C   0  0  0  0  0  0  0  0  0  0  0  0
  -20.5391  -29.7487   21.0648 C   0  0  0  0  0  0  0  0  0  0  0  0
  -28.8341  -16.0976   21.1509 C   0  0  0  0  0  0  0  0  0  0  0  0
  -25.5383  -35.0118   27.4216 C   0  0  0  0  0  0  0  0  0  0  0  0
  -26.0650  -31.9777   20.7830 C   0  0  0  0  0  0  0  0  0  0  0  0
  -24.5138  -29.7460   21.9484 C   0  0  0  0  0  0  0  0  0  0  0  0
  -24.9120  -33.7122   26.9226 C   0  0  0  0  0  0  0  0  0  0  0  0
  -29.6282  -13.5338   18.8114 C   0  0  0  0  0  0  0  0  0  0  0  0
  -25.9949  -32.7326   26.4815 C   0  0  0  0  0  0  0  0  0  0  0  0
  -28.4083  -12.6109   18.8569 C   0  0  0  0  0  0  0  0  0  0  0  0
  -29.9610  -14.1023   20.1897 C   0  0  0  0  0  0  0  0  0  0  0  0
  -27.6230  -13.8402   20.9207 C   0  0  0  0  0  0  0  0  0  0  0  0
  -26.8151  -33.3040   25.3186 C   0  0  1  0  0  0  0  0  0  0  0  0
  -25.2445  -32.1495   22.0577 C   0  0  1  0  0  0  0  0  0  0  0  0
  -27.2099  -13.2944   19.5441 C   0  0  2  0  0  0  0  0  0  0  0  0
  -29.3132  -25.3191   20.6471 C   0  0  0  0  0  0  0  0  0  0  0  0
  -18.0515  -29.5718   20.7850 C   0  0  0  0  0  0  0  0  0  0  0  0
  -22.7155  -30.2658   25.4365 C   0  0  0  0  0  0  0  0  0  0  0  0
  -20.5241  -29.2859   24.7253 C   0  0  0  0  0  0  0  0  0  0  0  0
  -20.8031  -31.7622   24.8380 C   0  0  0  0  0  0  0  0  0  0  0  0
  -20.7125  -30.2706   18.1568 C   0  0  0  0  0  0  0  0  0  0  0  0
  -26.6005  -21.8863   23.3731 C   0  0  0  0  0  0  0  0  0  0  0  0
  -27.8818  -25.7948   20.8327 C   0  0  1  0  0  0  0  0  0  1  0  0
  -21.9363  -30.4703   22.9835 C   0  0  1  0  0  0  0  0  0  0  0  0
  -19.3376  -30.1732   20.2398 C   0  0  2  0  0  0  0  0  0  0  0  0
  -21.5184  -30.4410   24.4808 C   0  0  0  0  0  0  0  0  0  0  0  0
  -25.8512  -11.6191   20.7392 N   0  0  0  0  0  0  0  0  0  0  0  0
  -28.3806  -18.8360   22.0080 N   0  0  0  0  0  0  0  0  0  0  0  0
  -27.1533  -23.8271   22.0253 N   0  0  0  0  0  0  0  0  0  0  0  0
  -26.0112  -12.3688   19.6354 N   0  0  0  0  0  0  0  0  0  0  0  0
  -24.1720  -31.1597   22.1772 N   0  0  0  0  0  0  0  0  0  0  0  0
  -28.7798  -14.7380   20.7776 N   0  0  0  0  0  0  0  0  0  0  0  0
  -25.0394  -12.8675   17.5336 N   0  0  0  0  0  0  0  0  0  0  0  0
  -22.2185   -9.8067   19.2857 N   0  0  0  0  0  0  0  0  0  0  0  0
  -27.6412  -16.6015   21.6683 N   0  0  0  0  0  0  0  0  0  0  0  0
  -26.0800  -33.1892   24.0773 N   0  0  0  0  0  0  0  0  0  0  0  0
  -20.8259  -30.6623   22.0569 N   0  0  0  0  0  0  0  0  0  0  0  0
  -19.4992  -29.7335   18.8251 N   0  3  0  0  0  0  0  0  0  0  0  0
  -22.6281  -11.1307   17.4587 O   0  0  0  0  0  0  0  0  0  0  0  0
  -26.6749  -31.0017   23.5448 O   0  0  0  0  0  0  0  0  0  0  0  0
  -26.0288  -24.4543   20.0862 O   0  0  0  0  0  0  0  0  0  0  0  0
  -22.6135  -32.7416   22.8875 O   0  0  0  0  0  0  0  0  0  0  0  0
  -21.1587  -28.7087   20.8529 O   0  0  0  0  0  0  0  0  0  0  0  0
  -29.8548  -16.7730   20.9959 O   0  0  0  0  0  0  0  0  0  0  0  0
  -22.7194   -7.3270   24.2491 O   0  0  0  0  0  0  0  0  0  0  0  0
  -27.5354  -26.6121   19.7154 O   0  0  0  0  0  0  0  0  0  1  0  0
  -20.9923   -2.4199   22.4213 F   0  0  0  0  0  0  0  0  0  0  0  0
  -25.1626  -17.2736   22.6486 F   0  0  0  0  0  0  0  0  0  0  0  0
  -23.8762   -4.9870   25.1595 F   0  0  0  0  0  0  0  0  0  0  0  0
  -29.0711  -21.0021   22.3440 F   0  0  0  0  0  0  0  0  0  0  0  0
  1  2  1  0  0  0  0
  1  5  2  0  0  0  0
  2  6  2  0  0  0  0
  3  8  2  0  0  0  0
  3 16  1  0  0  0  0
  4  9  1  0  0  0  0
  4 16  2  0  0  0  0
  5 18  1  0  0  0  0
  6 20  1  0  0  0  0
  7 10  2  0  0  0  0
  7 19  1  0  0  0  0
  8 23  1  0  0  0  0
  9 23  2  0  0  0  0
 10 24  1  0  0  0  0
 11 12  2  0  0  0  0
 11 25  1  0  0  0  0
 12 26  1  0  0  0  0
 13 21  1  0  0  0  0
 13 24  2  0  0  0  0
 14 22  1  0  0  0  0
 14 27  2  0  0  0  0
 15 26  2  0  0  0  0
 15 28  1  0  0  0  0
 16 29  1  0  0  0  0
 17 29  1  0  0  0  0
 17 32  2  0  0  0  0
 17 34  1  0  0  0  0
 18 20  2  0  0  0  0
 18 40  1  0  0  0  0
 19 21  2  0  0  0  0
 19 41  1  0  0  0  0
 20 49  1  0  0  0  0
 21 42  1  0  0  0  0
 22 31  2  0  0  0  0
 22 58  1  0  0  0  0
 23 81  1  0  0  0  0
 24 82  1  0  0  0  0
 25 28  2  0  0  0  0
 25 81  1  0  0  0  0
 26 83  1  0  0  0  0
 27 30  1  0  0  0  0
 27 84  1  0  0  0  0
 28 85  1  0  0  0  0
 29 63  2  0  0  0  0
 30 64  2  0  0  0  0
 30 71  1  0  0  0  0
 31 64  1  0  0  0  0
 31 86  1  0  0  0  0
 32 66  1  0  0  0  0
 32 69  1  0  0  0  0
 33 58  1  0  0  0  0
 33 65  2  0  0  0  0
 34 70  1  0  0  0  0
 34 75  2  0  0  0  0
 35 50  1  0  0  0  0
 35 72  1  0  0  0  0
 35 76  2  0  0  0  0
 36 59  1  0  0  0  0
 36 65  1  0  0  0  0
 36 77  2  0  0  0  0
 37 60  1  0  0  0  0
 37 67  1  0  0  0  0
 37 78  2  0  0  0  0
 38 61  1  0  0  0  0
 38 73  1  0  0  0  0
 38 79  2  0  0  0  0
 39 68  1  0  0  0  0
 39 71  1  0  0  0  0
 39 80  2  0  0  0  0
 40 43  1  0  0  0  0
 41 50  1  0  0  0  0
 42 67  1  0  0  0  0
 43 45  1  0  0  0  0
 44 46  1  0  0  0  0
 44 47  1  0  0  0  0
 45 49  1  0  0  0  0
 46 51  1  0  0  0  0
 47 68  1  0  0  0  0
 48 51  1  0  0  0  0
 48 68  1  0  0  0  0
 49 72  1  0  0  0  0
 50 67  1  0  0  0  0
 51 66  1  0  0  0  0
 52 59  1  0  0  0  0
 53 61  1  0  0  0  0
 54 62  1  0  0  0  0
 55 62  1  0  0  0  0
 56 62  1  0  0  0  0
 57 74  1  0  0  0  0
 59 82  1  0  0  0  0
 60 62  1  0  0  0  0
 60 73  1  0  0  0  0
 61 74  1  0  0  0  0
 63 66  1  0  0  0  0
M  CHG  1  74   1
M  ISO  4  39 100  59 101  71 100  82 101
M  END
> <Batch ID>
0181

> <Smiles>
CNC(C)C(=O)NC(C(=O)N1Cc2cc([101O:1][101CH:1](C)C(=O)NC=Cc3cc(F)c([100NH:0][100C:0](=O)N4CCCC(n5nc(-c6ccc(Oc7ccc(F)cc7F)cc6)c(C(N)=O)c5N)C4)nc3F)ccc2CC1C(=O)NC1CCCc2ccccc21)C(C)(C)C

> <Shape>
0.275

> <Color>
0.079

> <Negative vol penalty>
0.000

$$$$

  -OEChem-04052304533D

 87 95  0     1  0  0  0  0  0999 V2000
  -32.8553  -21.2765   23.7386 C   0  0  0  0  0  0  0  0  0  0  0  0
  -31.6371  -21.9195   23.9331 C   0  0  0  0  0  0  0  0  0  0  0  0
  -27.0617  -25.5135   16.9306 C   0  0  0  0  0  0  0  0  0  0  0  0
  -29.0192  -25.6886   18.3357 C   0  0  0  0  0  0  0  0  0  0  0  0
  -33.0127  -20.3911   22.6731 C   0  0  0  0  0  0  0  0  0  0  0  0
  -30.5757  -21.6783   23.0614 C   0  0  0  0  0  0  0  0  0  0  0  0
  -23.4256  -21.2533   22.9542 C   0  0  0  0  0  0  0  0  0  0  0  0
  -27.8666  -25.1347   15.8563 C   0  0  0  0  0  0  0  0  0  0  0  0
  -29.8242  -25.3097   17.2615 C   0  0  0  0  0  0  0  0  0  0  0  0
  -22.3265  -21.7640   22.2651 C   0  0  0  0  0  0  0  0  0  0  0  0
  -29.3688  -23.7718   12.8395 C   0  0  0  0  0  0  0  0  0  0  0  0
  -28.9456  -22.6954   12.0599 C   0  0  0  0  0  0  0  0  0  0  0  0
  -22.6893  -20.1541   20.5056 C   0  0  0  0  0  0  0  0  0  0  0  0
  -18.5181  -27.6657   23.6980 C   0  0  0  0  0  0  0  0  0  0  0  0
  -29.0132  -21.2614   14.0032 C   0  0  0  0  0  0  0  0  0  0  0  0
  -27.6379  -25.7905   18.1703 C   0  0  0  0  0  0  0  0  0  0  0  0
  -26.2017  -25.3369   20.2292 C   0  0  0  0  0  0  0  0  0  0  0  0
  -31.9497  -20.1316   21.7937 C   0  0  0  0  0  0  0  0  0  0  0  0
  -24.1726  -20.1946   22.4181 C   0  0  0  0  0  0  0  0  0  0  0  0
  -30.7194  -20.7897   21.9824 C   0  0  0  0  0  0  0  0  0  0  0  0
  -23.7959  -19.6301   21.1911 C   0  0  0  0  0  0  0  0  0  0  0  0
  -18.1901  -26.2927   23.5045 C   0  0  0  0  0  0  0  0  0  0  0  0
  -29.2479  -25.0328   16.0217 C   0  0  0  0  0  0  0  0  0  0  0  0
  -21.9599  -21.2164   21.0392 C   0  0  0  0  0  0  0  0  0  0  0  0
  -29.6143  -23.5931   14.2010 C   0  0  0  0  0  0  0  0  0  0  0  0
  -28.7677  -21.4402   12.6418 C   0  0  0  0  0  0  0  0  0  0  0  0
  -29.4365  -22.3379   14.7828 C   0  0  0  0  0  0  0  0  0  0  0  0
  -26.8070  -26.1824   19.2803 C   0  0  0  0  0  0  0  0  0  0  0  0
  -19.6609  -28.0255   23.0183 C   0  0  0  0  0  0  0  0  0  0  0  0
  -25.5252  -26.1896   21.0669 C   0  0  0  0  0  0  0  0  0  0  0  0
  -19.0948  -25.6554   22.6838 C   0  0  0  0  0  0  0  0  0  0  0  0
  -26.2470  -23.9084   20.3434 C   0  0  0  0  0  0  0  0  0  0  0  0
  -20.3321  -29.3495   22.9595 C   0  0  0  0  0  0  0  0  0  0  0  0
  -27.1878  -19.8248   21.4825 C   0  0  0  0  0  0  0  0  0  0  0  0
  -26.2875  -16.7292   21.1236 C   0  0  0  0  0  0  0  0  0  0  0  0
  -23.7654  -14.4844   20.6270 C   0  0  0  0  0  0  0  0  0  0  0  0
  -20.1193  -23.7468   21.4006 C   0  0  0  0  0  0  0  0  0  0  0  0
  -22.2408  -30.5625   21.9550 C   0  0  0  0  0  0  0  0  0  0  0  0
  -32.1819  -19.2026   20.6284 C   0  0  0  0  0  0  0  0  0  0  0  0
  -25.3394  -19.6374   23.1867 C   0  0  0  0  0  0  0  0  0  0  0  0
  -24.5526  -18.4790   20.5821 C   0  0  0  0  0  0  0  0  0  0  0  0
  -30.8930  -18.7166   19.9707 C   0  0  0  0  0  0  0  0  0  0  0  0
  -25.6747  -31.2374   21.4553 C   0  0  0  0  0  0  0  0  0  0  0  0
  -29.9366  -19.8831   19.7438 C   0  0  0  0  0  0  0  0  0  0  0  0
  -26.2307  -29.9111   20.9300 C   0  0  0  0  0  0  0  0  0  0  0  0
  -24.2751  -31.5211   20.9117 C   0  0  0  0  0  0  0  0  0  0  0  0
  -23.8576  -29.1187   20.5771 C   0  0  0  0  0  0  0  0  0  0  0  0
  -29.5369  -20.5353   21.0729 C   0  0  1  0  0  0  0  0  0  0  0  0
  -26.3379  -18.8962   22.3029 C   0  0  1  0  0  0  0  0  0  0  0  0
  -25.2362  -28.7537   21.1510 C   0  0  1  0  0  0  0  0  0  0  0  0
  -23.3433  -12.0274   20.3394 C   0  0  0  0  0  0  0  0  0  0  0  0
  -18.5101  -22.0748   20.4134 C   0  0  0  0  0  0  0  0  0  0  0  0
  -27.3373  -16.8861   18.2629 C   0  0  0  0  0  0  0  0  0  0  0  0
  -26.0578  -14.7954   17.7527 C   0  0  0  0  0  0  0  0  0  0  0  0
  -27.8786  -14.7567   19.4574 C   0  0  0  0  0  0  0  0  0  0  0  0
  -22.0583  -14.3769   23.0422 C   0  0  0  0  0  0  0  0  0  0  0  0
  -25.6960  -15.9111   20.0012 C   0  0  1  0  0  0  0  0  0  0  0  0
  -23.4246  -13.1811   21.3269 C   0  0  2  0  0  0  0  0  0  0  0  0
  -19.8304  -22.2700   21.1440 C   0  0  1  0  0  0  0  0  0  1  0  0
  -17.0098  -25.6385   24.1190 C   0  0  0  0  0  0  0  0  0  0  0  0
  -26.7291  -15.6103   18.8788 C   0  0  0  0  0  0  0  0  0  0  0  0
  -26.5385  -27.4732   19.4943 N   0  0  0  0  0  0  0  0  0  0  0  0
  -25.7570  -27.4451   20.5872 N   0  0  0  0  0  0  0  0  0  0  0  0
  -25.6896  -17.9734   21.3688 N   0  0  0  0  0  0  0  0  0  0  0  0
  -23.3925  -30.3819   21.1693 N   0  0  0  0  0  0  0  0  0  0  0  0
  -24.7604  -25.9804   22.1595 N   0  0  0  0  0  0  0  0  0  0  0  0
  -26.9887  -23.1858   19.3988 N   0  0  0  0  0  0  0  0  0  0  0  0
  -19.1584  -24.3166   22.2295 N   0  0  0  0  0  0  0  0  0  0  0  0
  -21.4867  -29.4051   22.1784 N   0  0  0  0  0  0  0  0  0  0  0  0
  -28.5405  -19.7333   21.7499 N   0  0  0  0  0  0  0  0  0  0  0  0
  -25.1238  -14.7209   20.6212 N   0  0  0  0  0  0  0  0  0  0  0  0
  -22.1128  -13.2957   22.0248 N   0  3  0  0  0  0  0  0  0  0  0  0
  -25.6341  -23.2898   21.2462 O   0  0  0  0  0  0  0  0  0  0  0  0
  -19.8291  -30.3017   23.5495 O   0  0  0  0  0  0  0  0  0  0  0  0
  -26.6560  -20.5681   20.6662 O   0  0  0  0  0  0  0  0  0  0  0  0
  -27.2402  -16.2776   21.7639 O   0  0  0  0  0  0  0  0  0  0  0  0
  -22.9123  -15.2173   20.1315 O   0  0  0  0  0  0  0  0  0  0  0  0
  -21.1051  -24.2958   20.9171 O   0  0  0  0  0  0  0  0  0  0  0  0
  -21.9308  -31.6521   22.4471 O   0  0  0  0  0  0  0  0  0  0  0  0
  -30.0337  -24.6629   14.9737 O   0  0  0  0  0  0  0  0  0  0  0  0
  -20.8879  -21.7134   20.3641 O   0  0  0  0  0  0  0  0  0  1  0  0
  -28.3598  -20.4069   11.8933 F   0  0  0  0  0  0  0  0  0  0  0  0
  -29.6696  -22.1603   16.0905 F   0  0  0  0  0  0  0  0  0  0  0  0
  -16.2532  -26.4739   24.8968 F   0  0  0  0  0  0  0  0  0  0  0  0
  -16.1287  -25.1158   23.2104 F   0  0  0  0  0  0  0  0  0  0  0  0
  -17.3442  -24.5933   24.9362 F   0  0  0  0  0  0  0  0  0  0  0  0
  -20.3333  -26.7110   22.1509 S   0  0  0  0  0  0  0  0  0  0  0  0
  1  2  1  0  0  0  0
  1  5  2  0  0  0  0
  2  6  2  0  0  0  0
  3  8  2  0  0  0  0
  3 16  1  0  0  0  0
  4  9  1  0  0  0  0
  4 16  2  0  0  0  0
  5 18  1  0  0  0  0
  6 20  1  0  0  0  0
  7 10  2  0  0  0  0
  7 19  1  0  0  0  0
  8 23  1  0  0  0  0
  9 23  2  0  0  0  0
 10 24  1  0  0  0  0
 11 12  2  0  0  0  0
 11 25  1  0  0  0  0
 12 26  1  0  0  0  0
 13 21  1  0  0  0  0
 13 24  2  0  0  0  0
 14 22  1  0  0  0  0
 14 29  2  0  0  0  0
 15 26  2  0  0  0  0
 15 27  1  0  0  0  0
 16 28  1  0  0  0  0
 17 28  1  0  0  0  0
 17 30  2  0  0  0  0
 17 32  1  0  0  0  0
 18 20  2  0  0  0  0
 18 39  1  0  0  0  0
 19 21  2  0  0  0  0
 19 40  1  0  0  0  0
 20 48  1  0  0  0  0
 21 41  1  0  0  0  0
 22 31  2  0  0  0  0
 22 60  1  0  0  0  0
 23 80  1  0  0  0  0
 24 81  1  0  0  0  0
 25 27  2  0  0  0  0
 25 80  1  0  0  0  0
 26 82  1  0  0  0  0
 27 83  1  0  0  0  0
 28 62  2  0  0  0  0
 29 33  1  0  0  0  0
 29 87  1  0  0  0  0
 30 63  1  0  0  0  0
 30 66  1  0  0  0  0
 31 68  1  0  0  0  0
 31 87  1  0  0  0  0
 32 67  1  0  0  0  0
 32 73  2  0  0  0  0
 33 69  1  0  0  0  0
 33 74  2  0  0  0  0
 34 49  1  0  0  0  0
 34 70  1  0  0  0  0
 34 75  2  0  0  0  0
 35 57  1  0  0  0  0
 35 64  1  0  0  0  0
 35 76  2  0  0  0  0
 36 58  1  0  0  0  0
 36 71  1  0  0  0  0
 36 77  2  0  0  0  0
 37 59  1  0  0  0  0
 37 68  1  0  0  0  0
 37 78  2  0  0  0  0
 38 65  1  0  0  0  0
 38 69  1  0  0  0  0
 38 79  2  0  0  0  0
 39 42  1  0  0  0  0
 40 49  1  0  0  0  0
 41 64  1  0  0  0  0
 42 44  1  0  0  0  0
 43 45  1  0  0  0  0
 43 46  1  0  0  0  0
 44 48  1  0  0  0  0
 45 50  1  0  0  0  0
 46 65  1  0  0  0  0
 47 50  1  0  0  0  0
 47 65  1  0  0  0  0
 48 70  1  0  0  0  0
 49 64  1  0  0  0  0
 50 63  1  0  0  0  0
 51 58  1  0  0  0  0
 52 59  1  0  0  0  0
 53 61  1  0  0  0  0
 54 61  1  0  0  0  0
 55 61  1  0  0  0  0
 56 72  1  0  0  0  0
 57 61  1  0  0  0  0
 57 71  1  0  0  0  0
 58 72  1  0  0  0  0
 59 81  1  0  0  0  0
 60 84  1  0  0  0  0
 60 85  1  0  0  0  0
 60 86  1  0  0  0  0
 62 63  1  0  0  0  0
M  CHG  1  72   1
M  ISO  4  38 100  59 101  69 100  81 101
M  END
> <Batch ID>
0181

> <Smiles>
CNC(C)C(=O)NC(C(=O)N1Cc2cc([101O:1][101CH:1](C)C(=O)Nc3sc(C(=O)[100NH:0][100C:0](=O)N4CCCC(n5nc(-c6ccc(Oc7ccc(F)cc7F)cc6)c(C(N)=O)c5N)C4)cc3C(F)(F)F)ccc2CC1C(=O)NC1CCCc2ccccc21)C(C)(C)C

> <Shape>
0.182

> <Color>
0.083

> <Negative vol penalty>
0.000

$$$$

  -OEChem-04052304533D

 87 95  0     1  0  0  0  0  0999 V2000
  -29.2461  -35.3927   18.3106 C   0  0  0  0  0  0  0  0  0  0  0  0
  -29.3545  -34.0655   18.7133 C   0  0  0  0  0  0  0  0  0  0  0  0
  -24.8078   -9.0448   21.6384 C   0  0  0  0  0  0  0  0  0  0  0  0
  -23.1888  -10.5184   20.6164 C   0  0  0  0  0  0  0  0  0  0  0  0
  -28.3480  -36.2439   18.9531 C   0  0  0  0  0  0  0  0  0  0  0  0
  -28.5656  -33.5890   19.7598 C   0  0  0  0  0  0  0  0  0  0  0  0
  -26.5060  -29.0762   18.7409 C   0  0  0  0  0  0  0  0  0  0  0  0
  -23.8078   -8.5086   22.4496 C   0  0  0  0  0  0  0  0  0  0  0  0
  -22.1887   -9.9823   21.4276 C   0  0  0  0  0  0  0  0  0  0  0  0
  -27.3300  -27.9582   18.8625 C   0  0  0  0  0  0  0  0  0  0  0  0
  -21.6112   -6.4995   24.5361 C   0  0  0  0  0  0  0  0  0  0  0  0
  -21.5646   -5.1126   24.6771 C   0  0  0  0  0  0  0  0  0  0  0  0
  -26.3706  -27.4940   21.0266 C   0  0  0  0  0  0  0  0  0  0  0  0
  -21.2452   -4.8810   22.2935 C   0  0  0  0  0  0  0  0  0  0  0  0
  -25.3538  -18.2040   18.0107 C   0  0  0  0  0  0  0  0  0  0  0  0
  -24.4983  -10.0497   20.7218 C   0  0  0  0  0  0  0  0  0  0  0  0
  -25.9252  -10.1540   18.6097 C   0  0  0  0  0  0  0  0  0  0  0  0
  -27.5408  -35.7750   20.0016 C   0  0  0  0  0  0  0  0  0  0  0  0
  -25.6144  -29.4184   19.7676 C   0  0  0  0  0  0  0  0  0  0  0  0
  -27.6569  -34.4350   20.4179 C   0  0  0  0  0  0  0  0  0  0  0  0
  -25.5345  -28.6154   20.9144 C   0  0  0  0  0  0  0  0  0  0  0  0
  -22.4982   -8.9774   22.3442 C   0  0  0  0  0  0  0  0  0  0  0  0
  -27.2644  -27.1686   20.0067 C   0  0  0  0  0  0  0  0  0  0  0  0
  -21.4748   -7.0772   23.2738 C   0  0  0  0  0  0  0  0  0  0  0  0
  -21.3816   -4.3033   23.5558 C   0  0  0  0  0  0  0  0  0  0  0  0
  -21.2918   -6.2680   22.1525 C   0  0  0  0  0  0  0  0  0  0  0  0
  -25.5311  -10.6043   19.8839 C   0  0  0  0  0  0  0  0  0  0  0  0
  -26.5996  -18.0597   18.5844 C   0  0  0  0  0  0  0  0  0  0  0  0
  -26.9350  -11.0088   18.2406 C   0  0  0  0  0  0  0  0  0  0  0  0
  -26.7623  -20.1577   17.9662 C   0  0  0  0  0  0  0  0  0  0  0  0
  -25.4233   -9.0608   17.8294 C   0  0  0  0  0  0  0  0  0  0  0  0
  -27.3454  -21.5112   17.7657 C   0  0  0  0  0  0  0  0  0  0  0  0
  -25.2628  -31.9248   21.6906 C   0  0  0  0  0  0  0  0  0  0  0  0
  -28.6780  -23.9319   19.1847 C   0  0  0  0  0  0  0  0  0  0  0  0
  -22.5772  -30.3529   22.6066 C   0  0  0  0  0  0  0  0  0  0  0  0
  -20.9052  -27.3905   22.8809 C   0  0  0  0  0  0  0  0  0  0  0  0
  -28.2948  -16.6225   19.7706 C   0  0  0  0  0  0  0  0  0  0  0  0
  -26.6186  -36.7448   20.6972 C   0  0  0  0  0  0  0  0  0  0  0  0
  -24.7133  -30.6123   19.6094 C   0  0  0  0  0  0  0  0  0  0  0  0
  -24.5797  -28.9281   22.0365 C   0  0  0  0  0  0  0  0  0  0  0  0
  -25.5500  -36.0648   21.5491 C   0  0  0  0  0  0  0  0  0  0  0  0
  -30.3831  -13.7585   20.1071 C   0  0  0  0  0  0  0  0  0  0  0  0
  -26.1700  -34.9657   22.4061 C   0  0  0  0  0  0  0  0  0  0  0  0
  -29.4126  -12.5836   19.9660 C   0  0  0  0  0  0  0  0  0  0  0  0
  -29.7514  -14.9287   20.8589 C   0  0  0  0  0  0  0  0  0  0  0  0
  -27.4933  -14.2134   20.1820 C   0  0  0  0  0  0  0  0  0  0  0  0
  -26.8005  -33.8745   21.5326 C   0  0  1  0  0  0  0  0  0  0  0  0
  -24.2087  -31.1606   20.9407 C   0  0  1  0  0  0  0  0  0  0  0  0
  -28.0629  -13.0354   19.3748 C   0  0  2  0  0  0  0  0  0  0  0  0
  -18.7439  -26.4173   23.7047 C   0  0  0  0  0  0  0  0  0  0  0  0
  -23.5680  -30.5931   25.4825 C   0  0  0  0  0  0  0  0  0  0  0  0
  -21.9142  -28.8271   26.1261 C   0  0  0  0  0  0  0  0  0  0  0  0
  -21.1177  -30.9961   25.1863 C   0  0  0  0  0  0  0  0  0  0  0  0
  -20.1785  -26.4207   20.1808 C   0  0  0  0  0  0  0  0  0  0  0  0
  -28.4406  -25.4075   18.9245 C   0  0  0  0  0  0  0  0  0  1  0  0
  -29.0908  -23.0939   17.9861 C   0  0  1  0  0  0  0  0  0  0  0  0
  -22.2474  -29.3251   23.6620 C   0  0  1  0  0  0  0  0  0  0  0  0
  -19.4867  -26.9964   22.5108 C   0  0  2  0  0  0  0  0  0  0  0  0
  -22.2313  -29.9303   25.0941 C   0  0  0  0  0  0  0  0  0  0  0  0
  -30.5950  -22.9968   17.8736 C   0  0  0  0  0  0  0  0  0  0  0  0
  -26.2333  -11.6629   20.2967 N   0  0  0  0  0  0  0  0  0  0  0  0
  -27.4088  -19.1788   18.5594 N   0  0  0  0  0  0  0  0  0  0  0  0
  -28.5360  -21.7523   18.1861 N   0  0  0  0  0  0  0  0  0  0  0  0
  -27.0789  -11.8848   19.2760 N   0  0  0  0  0  0  0  0  0  0  0  0
  -23.7239  -30.1095   21.8376 N   0  0  0  0  0  0  0  0  0  0  0  0
  -28.4785  -15.3046   20.2399 N   0  0  0  0  0  0  0  0  0  0  0  0
  -27.7050  -11.0889   17.1347 N   0  0  0  0  0  0  0  0  0  0  0  0
  -24.3835   -8.2842   18.3586 N   0  0  0  0  0  0  0  0  0  0  0  0
  -26.5311  -22.4310   17.1365 N   0  0  0  0  0  0  0  0  0  0  0  0
  -27.0570  -16.8541   19.1717 N   0  0  0  0  0  0  0  0  0  0  0  0
  -25.7775  -33.0027   20.9959 N   0  0  0  0  0  0  0  0  0  0  0  0
  -20.9858  -28.7146   23.2571 N   0  0  0  0  0  0  0  0  0  0  0  0
  -19.4992  -25.9758   21.4249 N   0  3  0  0  0  0  0  0  0  0  0  0
  -25.8945   -8.7709   16.7036 O   0  0  0  0  0  0  0  0  0  0  0  0
  -25.5842  -31.5641   22.8168 O   0  0  0  0  0  0  0  0  0  0  0  0
  -28.5577  -23.4491   20.3110 O   0  0  0  0  0  0  0  0  0  0  0  0
  -21.8403  -31.3320   22.4649 O   0  0  0  0  0  0  0  0  0  0  0  0
  -21.8469  -26.6016   22.8438 O   0  0  0  0  0  0  0  0  0  0  0  0
  -29.1814  -17.4751   19.8667 O   0  0  0  0  0  0  0  0  0  0  0  0
  -21.5221   -8.4543   23.1354 O   0  0  0  0  0  0  0  0  0  0  0  0
  -28.0681  -26.0771   20.1283 O   0  0  0  0  0  0  0  0  0  1  0  0
  -21.3384   -2.9714   23.6911 F   0  0  0  0  0  0  0  0  0  0  0  0
  -21.1613   -6.8172   20.9372 F   0  0  0  0  0  0  0  0  0  0  0  0
  -31.1639  -24.2075   17.6885 F   0  0  0  0  0  0  0  0  0  0  0  0
  -31.1265  -22.4602   18.9955 F   0  0  0  0  0  0  0  0  0  0  0  0
  -30.9604  -22.2062   16.8411 F   0  0  0  0  0  0  0  0  0  0  0  0
  -25.1767  -19.8022   17.4142 S   0  0  0  0  0  0  0  0  0  0  0  0
  1  2  1  0  0  0  0
  1  5  2  0  0  0  0
  2  6  2  0  0  0  0
  3  8  2  0  0  0  0
  3 16  1  0  0  0  0
  4  9  1  0  0  0  0
  4 16  2  0  0  0  0
  5 18  1  0  0  0  0
  6 20  1  0  0  0  0
  7 10  2  0  0  0  0
  7 19  1  0  0  0  0
  8 22  1  0  0  0  0
  9 22  2  0  0  0  0
 10 23  1  0  0  0  0
 11 12  2  0  0  0  0
 11 24  1  0  0  0  0
 12 25  1  0  0  0  0
 13 21  1  0  0  0  0
 13 23  2  0  0  0  0
 14 25  2  0  0  0  0
 14 26  1  0  0  0  0
 15 28  2  0  0  0  0
 15 87  1  0  0  0  0
 16 27  1  0  0  0  0
 17 27  1  0  0  0  0
 17 29  2  0  0  0  0
 17 31  1  0  0  0  0
 18 20  2  0  0  0  0
 18 38  1  0  0  0  0
 19 21  2  0  0  0  0
 19 39  1  0  0  0  0
 20 47  1  0  0  0  0
 21 40  1  0  0  0  0
 22 80  1  0  0  0  0
 23 81  1  0  0  0  0
 24 26  2  0  0  0  0
 24 80  1  0  0  0  0
 25 82  1  0  0  0  0
 26 83  1  0  0  0  0
 27 61  2  0  0  0  0
 28 62  1  0  0  0  0
 28 70  1  0  0  0  0
 29 64  1  0  0  0  0
 29 67  1  0  0  0  0
 30 32  1  0  0  0  0
 30 62  2  0  0  0  0
 30 87  1  0  0  0  0
 31 68  1  0  0  0  0
 31 74  2  0  0  0  0
 32 63  2  0  0  0  0
 32 69  1  0  0  0  0
 33 48  1  0  0  0  0
 33 71  1  0  0  0  0
 33 75  2  0  0  0  0
 34 55  1  0  0  0  0
 34 56  1  0  0  0  0
 34 76  2  0  0  0  0
 35 57  1  0  0  0  0
 35 65  1  0  0  0  0
 35 77  2  0  0  0  0
 36 58  1  0  0  0  0
 36 72  1  0  0  0  0
 36 78  2  0  0  0  0
 37 66  1  0  0  0  0
 37 70  1  0  0  0  0
 37 79  2  0  0  0  0
 38 41  1  0  0  0  0
 39 48  1  0  0  0  0
 40 65  1  0  0  0  0
 41 43  1  0  0  0  0
 42 44  1  0  0  0  0
 42 45  1  0  0  0  0
 43 47  1  0  0  0  0
 44 49  1  0  0  0  0
 45 66  1  0  0  0  0
 46 49  1  0  0  0  0
 46 66  1  0  0  0  0
 47 71  1  0  0  0  0
 48 65  1  0  0  0  0
 49 64  1  0  0  0  0
 50 58  1  0  0  0  0
 51 59  1  0  0  0  0
 52 59  1  0  0  0  0
 53 59  1  0  0  0  0
 54 73  1  0  0  0  0
 55 81  1  0  0  0  0
 56 60  1  0  0  0  0
 56 63  1  0  0  0  0
 57 59  1  0  0  0  0
 57 72  1  0  0  0  0
 58 73  1  0  0  0  0
 60 84  1  0  0  0  0
 60 85  1  0  0  0  0
 60 86  1  0  0  0  0
 61 64  1  0  0  0  0
M  CHG  1  73   1
M  ISO  4  37 100  55 101  70 100  81 101
M  END
> <Batch ID>
0181

> <Smiles>
CNC(C)C(=O)NC(C(=O)N1Cc2cc([101O:1][101CH2:1]C(=O)C(NC(=N)c3nc([100NH:0][100C:0](=O)N4CCCC(n5nc(-c6ccc(Oc7ccc(F)cc7F)cc6)c(C(N)=O)c5N)C4)cs3)C(F)(F)F)ccc2CC1C(=O)NC1CCCc2ccccc21)C(C)(C)C

> <Shape>
0.310

> <Color>
0.101

> <Negative vol penalty>
0.000

$$$$

  -OEChem-04052304533D

 85 93  0     1  0  0  0  0  0999 V2000
  -25.1158  -32.1509   25.4570 C   0  0  0  0  0  0  0  0  0  0  0  0
  -25.5484  -31.2388   24.4997 C   0  0  0  0  0  0  0  0  0  0  0  0
  -23.0441   -9.9160   19.9063 C   0  0  0  0  0  0  0  0  0  0  0  0
  -23.8763   -9.8416   22.1732 C   0  0  0  0  0  0  0  0  0  0  0  0
  -23.9781  -31.8770   26.2151 C   0  0  0  0  0  0  0  0  0  0  0  0
  -24.8442  -30.0519   24.3007 C   0  0  0  0  0  0  0  0  0  0  0  0
  -24.0314  -27.0985   18.9976 C   0  0  0  0  0  0  0  0  0  0  0  0
  -29.8858  -17.2054   19.7423 C   0  0  0  0  0  0  0  0  0  0  0  0
  -29.2128  -18.2321   19.0801 C   0  0  0  0  0  0  0  0  0  0  0  0
  -22.3063   -8.7554   20.1390 C   0  0  0  0  0  0  0  0  0  0  0  0
  -23.1385   -8.6810   22.4060 C   0  0  0  0  0  0  0  0  0  0  0  0
  -24.6777  -26.0040   18.4249 C   0  0  0  0  0  0  0  0  0  0  0  0
  -19.9295   -7.8650   23.0822 C   0  0  0  0  0  0  0  0  0  0  0  0
  -19.2100   -7.7844   24.2744 C   0  0  0  0  0  0  0  0  0  0  0  0
  -22.9625  -24.5455   19.2909 C   0  0  0  0  0  0  0  0  0  0  0  0
  -27.6086  -18.3435   20.8833 C   0  0  0  0  0  0  0  0  0  0  0  0
  -20.4705   -5.8212   24.9025 C   0  0  0  0  0  0  0  0  0  0  0  0
  -23.8291  -10.4591   20.9234 C   0  0  0  0  0  0  0  0  0  0  0  0
  -24.1718  -12.9867   20.8815 C   0  0  0  0  0  0  0  0  0  0  0  0
  -23.2541  -30.6905   26.0186 C   0  0  0  0  0  0  0  0  0  0  0  0
  -22.8495  -26.9230   19.7318 C   0  0  0  0  0  0  0  0  0  0  0  0
  -23.6966  -29.7613   25.0578 C   0  0  0  0  0  0  0  0  0  0  0  0
  -22.3017  -25.6397   19.8698 C   0  0  0  0  0  0  0  0  0  0  0  0
  -29.4202  -16.7476   20.9749 C   0  0  0  0  0  0  0  0  0  0  0  0
  -28.0742  -18.8012   19.6506 C   0  0  0  0  0  0  0  0  0  0  0  0
  -22.3535   -8.1378   21.3889 C   0  0  0  0  0  0  0  0  0  0  0  0
  -24.1449  -24.7269   18.5739 C   0  0  0  0  0  0  0  0  0  0  0  0
  -20.9195   -6.9236   22.8001 C   0  0  0  0  0  0  0  0  0  0  0  0
  -19.4805   -6.7626   25.1846 C   0  0  0  0  0  0  0  0  0  0  0  0
  -21.1900   -5.9018   23.7102 C   0  0  0  0  0  0  0  0  0  0  0  0
  -28.2817  -17.3167   21.5454 C   0  0  0  0  0  0  0  0  0  0  0  0
  -24.5919  -11.6578   20.6834 C   0  0  0  0  0  0  0  0  0  0  0  0
  -25.2533  -13.7476   20.5103 C   0  0  0  0  0  0  0  0  0  0  0  0
  -25.1987  -22.6565   18.8452 C   0  0  0  0  0  0  0  0  0  1  0  0
  -22.9162  -13.4884   21.3584 C   0  0  0  0  0  0  0  0  0  0  0  0
  -25.8276  -21.5598   18.4056 C   0  0  0  0  0  0  0  0  0  0  0  0
  -26.2529  -20.5184   19.3970 C   0  0  0  0  0  0  0  0  0  0  0  0
  -21.9821  -27.4453   22.7448 C   0  0  0  0  0  0  0  0  0  0  0  0
  -30.7660  -14.6853   20.6541 C   0  0  0  0  0  0  0  0  0  0  0  0
  -19.0507  -26.6086   21.6363 C   0  0  0  0  0  0  0  0  0  0  0  0
  -17.2039  -24.9431   19.2991 C   0  0  0  0  0  0  0  0  0  0  0  0
  -22.0576  -30.4167   26.8949 C   0  0  0  0  0  0  0  0  0  0  0  0
  -22.1501  -28.1173   20.3207 C   0  0  0  0  0  0  0  0  0  0  0  0
  -21.0244  -25.4004   20.6312 C   0  0  0  0  0  0  0  0  0  0  0  0
  -21.1533  -29.3081   26.3621 C   0  0  0  0  0  0  0  0  0  0  0  0
  -29.5184  -12.4788   18.1214 C   0  0  0  0  0  0  0  0  0  0  0  0
  -21.9834  -28.1033   25.9306 C   0  0  0  0  0  0  0  0  0  0  0  0
  -28.1020  -12.1539   18.5942 C   0  0  0  0  0  0  0  0  0  0  0  0
  -30.4768  -12.6384   19.2974 C   0  0  0  0  0  0  0  0  0  0  0  0
  -28.6202  -13.3249   20.7818 C   0  0  0  0  0  0  0  0  0  0  0  0
  -22.9453  -28.4741   24.7954 C   0  0  1  0  0  0  0  0  0  0  0  0
  -21.2292  -27.7575   21.4826 C   0  0  1  0  0  0  0  0  0  0  0  0
  -27.6134  -13.1858   19.6261 C   0  0  2  0  0  0  0  0  0  0  0  0
  -31.2756  -16.1531   22.5862 C   0  0  0  0  0  0  0  0  0  0  0  0
  -14.8321  -24.4092   18.6773 C   0  0  0  0  0  0  0  0  0  0  0  0
  -18.9300  -24.5433   23.8792 C   0  0  0  0  0  0  0  0  0  0  0  0
  -17.0431  -23.4351   22.6627 C   0  0  0  0  0  0  0  0  0  0  0  0
  -16.7917  -25.7779   23.4817 C   0  0  0  0  0  0  0  0  0  0  0  0
  -17.4572  -26.3150   16.6890 C   0  0  0  0  0  0  0  0  0  0  0  0
  -30.1700  -15.6460   21.6521 C   0  0  1  0  0  0  0  0  0  0  0  0
  -18.2897  -25.3120   21.4990 C   0  0  1  0  0  0  0  0  0  0  0  0
  -15.9977  -25.3658   18.4801 C   0  0  2  0  0  0  0  0  0  0  0  0
  -17.7887  -24.7710   22.8679 C   0  0  0  0  0  0  0  0  0  0  0  0
  -25.8427  -11.5757   20.2221 N   0  0  0  0  0  0  0  0  0  0  0  0
  -26.2178  -12.8627   20.1271 N   0  0  0  0  0  0  0  0  0  0  0  0
  -20.3810  -26.5992   21.1938 N   0  0  0  0  0  0  0  0  0  0  0  0
  -29.9663  -13.6102   20.2659 N   0  0  0  0  0  0  0  0  0  0  0  0
  -25.4638  -15.0807   20.4775 N   0  0  0  0  0  0  0  0  0  0  0  0
  -21.9137  -12.5687   21.6954 N   0  0  0  0  0  0  0  0  0  0  0  0
  -27.3906  -19.8426   18.9778 N   0  0  0  0  0  0  0  0  0  0  0  0
  -22.2359  -28.5493   23.5362 N   0  0  0  0  0  0  0  0  0  0  0  0
  -17.2276  -25.5627   20.5307 N   0  0  0  0  0  0  0  0  0  0  0  0
  -16.3409  -25.3960   17.0302 N   0  3  0  0  0  0  0  0  0  0  0  0
  -22.6842  -14.7164   21.4665 O   0  0  0  0  0  0  0  0  0  0  0  0
  -25.6222  -20.3406   20.4336 O   0  0  0  0  0  0  0  0  0  0  0  0
  -22.3074  -26.2883   22.9839 O   0  0  0  0  0  0  0  0  0  0  0  0
  -31.9071  -14.8877   20.2311 O   0  0  0  0  0  0  0  0  0  0  0  0
  -18.4834  -27.5953   22.1119 O   0  0  0  0  0  0  0  0  0  0  0  0
  -18.0394  -24.1404   18.8890 O   0  0  0  0  0  0  0  0  0  0  0  0
  -26.1011  -21.3463   17.0698 O   0  0  0  0  0  0  0  0  0  0  0  0
  -21.6335   -7.0054   21.6164 O   0  0  0  0  0  0  0  0  0  0  0  0
  -24.7741  -23.6568   18.0164 O   0  0  0  0  0  0  0  0  0  1  0  0
  -18.7905   -6.6862   26.3301 F   0  0  0  0  0  0  0  0  0  0  0  0
  -22.1407   -4.9953   23.4453 F   0  0  0  0  0  0  0  0  0  0  0  0
  -27.6761  -16.7757   23.0687 Cl  0  0  0  0  0  0  0  0  0  0  0  0
  1  2  1  0  0  0  0
  1  5  2  0  0  0  0
  2  6  2  0  0  0  0
  3 10  2  0  0  0  0
  3 18  1  0  0  0  0
  4 11  1  0  0  0  0
  4 18  2  0  0  0  0
  5 20  1  0  0  0  0
  6 22  1  0  0  0  0
  7 12  2  0  0  0  0
  7 21  1  0  0  0  0
  8  9  2  0  0  0  0
  8 24  1  0  0  0  0
  9 25  1  0  0  0  0
 10 26  1  0  0  0  0
 11 26  2  0  0  0  0
 12 27  1  0  0  0  0
 13 14  2  0  0  0  0
 13 28  1  0  0  0  0
 14 29  1  0  0  0  0
 15 23  1  0  0  0  0
 15 27  2  0  0  0  0
 16 25  2  0  0  0  0
 16 31  1  0  0  0  0
 17 29  2  0  0  0  0
 17 30  1  0  0  0  0
 18 32  1  0  0  0  0
 19 32  1  0  0  0  0
 19 33  2  0  0  0  0
 19 35  1  0  0  0  0
 20 22  2  0  0  0  0
 20 42  1  0  0  0  0
 21 23  2  0  0  0  0
 21 43  1  0  0  0  0
 22 51  1  0  0  0  0
 23 44  1  0  0  0  0
 24 31  2  0  0  0  0
 24 60  1  0  0  0  0
 25 70  1  0  0  0  0
 26 81  1  0  0  0  0
 27 82  1  0  0  0  0
 28 30  2  0  0  0  0
 28 81  1  0  0  0  0
 29 83  1  0  0  0  0
 30 84  1  0  0  0  0
 31 85  1  0  0  0  0
 32 64  2  0  0  0  0
 33 65  1  0  0  0  0
 33 68  1  0  0  0  0
 34 36  2  0  0  0  0
 34 82  1  0  0  0  0
 35 69  1  0  0  0  0
 35 74  2  0  0  0  0
 36 37  1  0  0  0  0
 36 80  1  0  0  0  0
 37 70  1  0  0  0  0
 37 75  2  0  0  0  0
 38 52  1  0  0  0  0
 38 71  1  0  0  0  0
 38 76  2  0  0  0  0
 39 60  1  0  0  0  0
 39 67  1  0  0  0  0
 39 77  2  0  0  0  0
 40 61  1  0  0  0  0
 40 66  1  0  0  0  0
 40 78  2  0  0  0  0
 41 62  1  0  0  0  0
 41 72  1  0  0  0  0
 41 79  2  0  0  0  0
 42 45  1  0  0  0  0
 43 52  1  0  0  0  0
 44 66  1  0  0  0  0
 45 47  1  0  0  0  0
 46 48  1  0  0  0  0
 46 49  1  0  0  0  0
 47 51  1  0  0  0  0
 48 53  1  0  0  0  0
 49 67  1  0  0  0  0
 50 53  1  0  0  0  0
 50 67  1  0  0  0  0
 51 71  1  0  0  0  0
 52 66  1  0  0  0  0
 53 65  1  0  0  0  0
 54 60  1  0  0  0  0
 55 62  1  0  0  0  0
 56 63  1  0  0  0  0
 57 63  1  0  0  0  0
 58 63  1  0  0  0  0
 59 73  1  0  0  0  0
 61 63  1  0  0  0  0
 61 72  1  0  0  0  0
 62 73  1  0  0  0  0
 64 65  1  0  0  0  0
M  CHG  1  73   1
M  ISO  4  34 101  39 100  60 100  82 101
M  END
> <Batch ID>
0181

> <Smiles>
CNC(C)C(=O)NC(C(=O)N1Cc2cc([101O:1][101CH2:1]C(=O)C(=O)Nc3ccc([100CH:0](C)[100C:0](=O)N4CCCC(n5nc(-c6ccc(Oc7ccc(F)cc7F)cc6)c(C(N)=O)c5N)C4)c(Cl)c3)ccc2CC1C(=O)NC1CCCc2ccccc21)C(C)(C)C

> <Shape>
0.301

> <Color>
0.187

> <Negative vol penalty>
0.000

$$$$

  -OEChem-04052304533D

 84 92  0     1  0  0  0  0  0999 V2000
  -28.4900  -32.8367   25.8453 C   0  0  0  0  0  0  0  0  0  0  0  0
  -28.4945  -31.6263   25.1595 C   0  0  0  0  0  0  0  0  0  0  0  0
  -24.6823   -9.2282   21.9395 C   0  0  0  0  0  0  0  0  0  0  0  0
  -23.2975  -10.0780   20.1514 C   0  0  0  0  0  0  0  0  0  0  0  0
  -27.2867  -33.3747   26.2995 C   0  0  0  0  0  0  0  0  0  0  0  0
  -27.2957  -30.9526   24.9285 C   0  0  0  0  0  0  0  0  0  0  0  0
  -26.9271  -29.2132   20.1868 C   0  0  0  0  0  0  0  0  0  0  0  0
  -23.5561   -8.6750   22.5488 C   0  0  0  0  0  0  0  0  0  0  0  0
  -22.1713   -9.5248   20.7607 C   0  0  0  0  0  0  0  0  0  0  0  0
  -27.6316  -28.0502   19.8787 C   0  0  0  0  0  0  0  0  0  0  0  0
  -21.6017   -5.9435   22.1589 C   0  0  0  0  0  0  0  0  0  0  0  0
  -21.7004   -4.6380   22.6400 C   0  0  0  0  0  0  0  0  0  0  0  0
  -25.6030  -26.7662   20.1139 C   0  0  0  0  0  0  0  0  0  0  0  0
  -21.1952   -5.4212   24.8690 C   0  0  0  0  0  0  0  0  0  0  0  0
  -24.5530   -9.9297   20.7408 C   0  0  0  0  0  0  0  0  0  0  0  0
  -26.5594   -9.8881   19.1659 C   0  0  0  0  0  0  0  0  0  0  0  0
  -26.0714  -32.7121   26.0655 C   0  0  0  0  0  0  0  0  0  0  0  0
  -25.5552  -29.1598   20.4720 C   0  0  0  0  0  0  0  0  0  0  0  0
  -26.0751  -31.4816   25.3812 C   0  0  0  0  0  0  0  0  0  0  0  0
  -24.8829  -27.9303   20.4229 C   0  0  0  0  0  0  0  0  0  0  0  0
  -22.3006   -8.8233   21.9594 C   0  0  0  0  0  0  0  0  0  0  0  0
  -26.9702  -26.8261   19.8450 C   0  0  0  0  0  0  0  0  0  0  0  0
  -21.2999   -6.9880   23.0329 C   0  0  0  0  0  0  0  0  0  0  0  0
  -21.4971   -4.3768   23.9950 C   0  0  0  0  0  0  0  0  0  0  0  0
  -21.0966   -6.7268   24.3879 C   0  0  0  0  0  0  0  0  0  0  0  0
  -25.7159  -10.5019   20.1112 C   0  0  0  0  0  0  0  0  0  0  0  0
  -27.5079  -10.8402   18.8827 C   0  0  0  0  0  0  0  0  0  0  0  0
  -26.2468  -19.4893   16.2151 C   0  0  0  0  0  0  0  0  0  0  0  0
  -26.1221  -17.5721   17.2370 C   0  0  0  0  0  0  0  0  0  0  0  0
  -27.2636  -24.9716   18.4502 C   0  0  0  0  0  0  0  0  0  1  0  0
  -26.4916   -8.5747   18.5949 C   0  0  0  0  0  0  0  0  0  0  0  0
  -27.3704  -23.6445   18.2802 C   0  0  0  0  0  0  0  0  0  0  0  0
  -26.8760  -23.0597   16.9927 C   0  0  0  0  0  0  0  0  0  0  0  0
  -23.7607  -29.8604   23.0004 C   0  0  0  0  0  0  0  0  0  0  0  0
  -21.3223  -29.2200   20.9592 C   0  0  0  0  0  0  0  0  0  0  0  0
  -20.2459  -27.6222   18.1423 C   0  0  0  0  0  0  0  0  0  0  0  0
  -27.5201  -16.8077   19.1883 C   0  0  0  0  0  0  0  0  0  0  0  0
  -24.8010  -33.3093   26.6171 C   0  0  0  0  0  0  0  0  0  0  0  0
  -24.8042  -30.4270   20.7764 C   0  0  0  0  0  0  0  0  0  0  0  0
  -23.4066  -27.8220   20.7013 C   0  0  0  0  0  0  0  0  0  0  0  0
  -23.5340  -32.7186   26.0039 C   0  0  0  0  0  0  0  0  0  0  0  0
  -29.7559  -14.5862   20.8445 C   0  0  0  0  0  0  0  0  0  0  0  0
  -23.6203  -31.1962   25.9632 C   0  0  0  0  0  0  0  0  0  0  0  0
  -29.0532  -13.2297   20.7531 C   0  0  0  0  0  0  0  0  0  0  0  0
  -28.7614  -15.7274   21.0503 C   0  0  0  0  0  0  0  0  0  0  0  0
  -26.9645  -14.4247   19.9810 C   0  0  0  0  0  0  0  0  0  0  0  0
  -24.7925  -30.7333   25.0895 C   0  0  1  0  0  0  0  0  0  0  0  0
  -23.5142  -30.1849   21.5542 C   0  0  1  0  0  0  0  0  0  0  0  0
  -27.9199  -13.2514   19.7087 C   0  0  2  0  0  0  0  0  0  0  0  0
  -27.7366  -20.8910   14.7293 C   0  0  0  0  0  0  0  0  0  0  0  0
  -18.1917  -27.2569   16.7479 C   0  0  0  0  0  0  0  0  0  0  0  0
  -20.2629  -27.2551   23.0393 C   0  0  0  0  0  0  0  0  0  0  0  0
  -18.8152  -26.2569   21.2572 C   0  0  0  0  0  0  0  0  0  0  0  0
  -18.5056  -28.6409   21.9230 C   0  0  0  0  0  0  0  0  0  0  0  0
  -21.4940  -28.8724   15.7678 C   0  0  0  0  0  0  0  0  0  0  0  0
  -26.6421  -20.8884   15.7945 C   0  0  2  0  0  0  0  0  0  0  0  0
  -20.5434  -27.9842   20.5784 C   0  0  1  0  0  0  0  0  0  0  0  0
  -19.4337  -28.1095   16.9559 C   0  0  2  0  0  0  0  0  0  0  0  0
  -19.5600  -27.5357   21.6961 C   0  0  0  0  0  0  0  0  0  0  0  0
  -26.0952  -11.7475   20.4087 N   0  0  0  0  0  0  0  0  0  0  0  0
  -26.7750  -18.7924   17.1972 N   0  0  0  0  0  0  0  0  0  0  0  0
  -25.1503  -17.2894   16.3697 N   0  0  0  0  0  0  0  0  0  0  0  0
  -27.1876  -11.9241   19.6460 N   0  0  0  0  0  0  0  0  0  0  0  0
  -22.7176  -29.0882   21.0002 N   0  0  0  0  0  0  0  0  0  0  0  0
  -27.7193  -15.6870   20.0220 N   0  0  0  0  0  0  0  0  0  0  0  0
  -28.5765  -10.8476   18.0577 N   0  0  0  0  0  0  0  0  0  0  0  0
  -25.4524   -7.7243   18.9965 N   0  0  0  0  0  0  0  0  0  0  0  0
  -26.5240  -16.6412   18.2267 N   0  0  0  0  0  0  0  0  0  0  0  0
  -27.0384  -21.6863   16.9331 N   0  0  0  0  0  0  0  0  0  0  0  0
  -24.4510  -30.8408   23.6873 N   0  0  0  0  0  0  0  0  0  0  0  0
  -19.9019  -28.2829   19.3026 N   0  0  0  0  0  0  0  0  0  0  0  0
  -20.2524  -28.0586   15.7117 N   0  3  0  0  0  0  0  0  0  0  0  0
  -27.3372   -8.1614   17.7656 O   0  0  0  0  0  0  0  0  0  0  0  0
  -26.3860  -23.7521   16.1048 O   0  0  0  0  0  0  0  0  0  0  0  0
  -23.3534  -28.7997   23.4595 O   0  0  0  0  0  0  0  0  0  0  0  0
  -20.7156  -30.2657   21.2040 O   0  0  0  0  0  0  0  0  0  0  0  0
  -21.0974  -26.7409   18.0496 O   0  0  0  0  0  0  0  0  0  0  0  0
  -28.2027  -17.8293   19.3002 O   0  0  0  0  0  0  0  0  0  0  0  0
  -27.9064  -22.7832   19.2121 O   0  0  0  0  0  0  0  0  0  0  0  0
  -21.2015   -8.2834   22.5536 O   0  0  0  0  0  0  0  0  0  0  0  0
  -27.6555  -25.6893   19.5452 O   0  0  0  0  0  0  0  0  0  1  0  0
  -21.5904   -3.1229   24.4566 F   0  0  0  0  0  0  0  0  0  0  0  0
  -20.8052   -7.7259   25.2321 F   0  0  0  0  0  0  0  0  0  0  0  0
  -24.9997  -18.6419   15.3957 S   0  0  0  0  0  0  0  0  0  0  0  0
  1  2  1  0  0  0  0
  1  5  2  0  0  0  0
  2  6  2  0  0  0  0
  3  8  2  0  0  0  0
  3 15  1  0  0  0  0
  4  9  1  0  0  0  0
  4 15  2  0  0  0  0
  5 17  1  0  0  0  0
  6 19  1  0  0  0  0
  7 10  2  0  0  0  0
  7 18  1  0  0  0  0
  8 21  1  0  0  0  0
  9 21  2  0  0  0  0
 10 22  1  0  0  0  0
 11 12  2  0  0  0  0
 11 23  1  0  0  0  0
 12 24  1  0  0  0  0
 13 20  1  0  0  0  0
 13 22  2  0  0  0  0
 14 24  2  0  0  0  0
 14 25  1  0  0  0  0
 15 26  1  0  0  0  0
 16 26  1  0  0  0  0
 16 27  2  0  0  0  0
 16 31  1  0  0  0  0
 17 19  2  0  0  0  0
 17 38  1  0  0  0  0
 18 20  2  0  0  0  0
 18 39  1  0  0  0  0
 19 47  1  0  0  0  0
 20 40  1  0  0  0  0
 21 80  1  0  0  0  0
 22 81  1  0  0  0  0
 23 25  2  0  0  0  0
 23 80  1  0  0  0  0
 24 82  1  0  0  0  0
 25 83  1  0  0  0  0
 26 60  2  0  0  0  0
 27 63  1  0  0  0  0
 27 66  1  0  0  0  0
 28 56  1  0  0  0  0
 28 61  2  0  0  0  0
 28 84  1  0  0  0  0
 29 61  1  0  0  0  0
 29 62  2  0  0  0  0
 29 68  1  0  0  0  0
 30 32  2  0  0  0  0
 30 81  1  0  0  0  0
 31 67  1  0  0  0  0
 31 73  2  0  0  0  0
 32 33  1  0  0  0  0
 32 79  1  0  0  0  0
 33 69  1  0  0  0  0
 33 74  2  0  0  0  0
 34 48  1  0  0  0  0
 34 70  1  0  0  0  0
 34 75  2  0  0  0  0
 35 57  1  0  0  0  0
 35 64  1  0  0  0  0
 35 76  2  0  0  0  0
 36 58  1  0  0  0  0
 36 71  1  0  0  0  0
 36 77  2  0  0  0  0
 37 65  1  0  0  0  0
 37 68  1  0  0  0  0
 37 78  2  0  0  0  0
 38 41  1  0  0  0  0
 39 48  1  0  0  0  0
 40 64  1  0  0  0  0
 41 43  1  0  0  0  0
 42 44  1  0  0  0  0
 42 45  1  0  0  0  0
 43 47  1  0  0  0  0
 44 49  1  0  0  0  0
 45 65  1  0  0  0  0
 46 49  1  0  0  0  0
 46 65  1  0  0  0  0
 47 70  1  0  0  0  0
 48 64  1  0  0  0  0
 49 63  1  0  0  0  0
 50 56  1  0  0  0  0
 51 58  1  0  0  0  0
 52 59  1  0  0  0  0
 53 59  1  0  0  0  0
 54 59  1  0  0  0  0
 55 72  1  0  0  0  0
 56 69  1  0  0  0  0
 57 59  1  0  0  0  0
 57 71  1  0  0  0  0
 58 72  1  0  0  0  0
 60 63  1  0  0  0  0
 62 84  1  0  0  0  0
M  CHG  1  72   1
M  ISO  4  30 101  37 100  68 100  81 101
M  END
> <Batch ID>
0181

> <Smiles>
CNC(C)C(=O)NC(C(=O)N1Cc2cc([101O:1][101CH2:1]C(=O)C(=O)NC(C)c3nc([100NH:0][100C:0](=O)N4CCCC(n5nc(-c6ccc(Oc7ccc(F)cc7F)cc6)c(C(N)=O)c5N)C4)ns3)ccc2CC1C(=O)NC1CCCc2ccccc21)C(C)(C)C

> <Shape>
0.298

> <Color>
0.091

> <Negative vol penalty>
0.000

$$$$

  -OEChem-04052304533D

 87 95  0     1  0  0  0  0  0999 V2000
  -21.6894  -28.1272   25.4481 C   0  0  0  0  0  0  0  0  0  0  0  0
  -21.8553  -26.7503   25.3386 C   0  0  0  0  0  0  0  0  0  0  0  0
  -29.8487  -23.6041   20.4528 C   0  0  0  0  0  0  0  0  0  0  0  0
  -27.4873  -23.0942   20.4818 C   0  0  0  0  0  0  0  0  0  0  0  0
  -20.9806  -28.8227   24.4694 C   0  0  0  0  0  0  0  0  0  0  0  0
  -21.3115  -26.0679   24.2510 C   0  0  0  0  0  0  0  0  0  0  0  0
  -23.6840  -21.1922   21.4041 C   0  0  0  0  0  0  0  0  0  0  0  0
  -29.5607  -24.9166   20.0789 C   0  0  0  0  0  0  0  0  0  0  0  0
  -27.1993  -24.4068   20.1079 C   0  0  0  0  0  0  0  0  0  0  0  0
  -23.4251  -19.8263   21.5097 C   0  0  0  0  0  0  0  0  0  0  0  0
  -27.0194  -27.4361   21.5950 C   0  0  0  0  0  0  0  0  0  0  0  0
  -25.9928  -28.0916   22.2747 C   0  0  0  0  0  0  0  0  0  0  0  0
  -21.9270  -19.9706   19.6245 C   0  0  0  0  0  0  0  0  0  0  0  0
  -24.7970  -28.3755   20.1946 C   0  0  0  0  0  0  0  0  0  0  0  0
  -25.6769  -11.8668   19.7949 C   0  0  0  0  0  0  0  0  0  0  0  0
  -28.8119  -22.6928   20.6543 C   0  0  0  0  0  0  0  0  0  0  0  0
  -29.2334  -20.8330   22.3486 C   0  0  0  0  0  0  0  0  0  0  0  0
  -20.4361  -28.1499   23.3642 C   0  0  0  0  0  0  0  0  0  0  0  0
  -23.0569  -21.9609   20.4130 C   0  0  0  0  0  0  0  0  0  0  0  0
  -20.5936  -26.7548   23.2573 C   0  0  0  0  0  0  0  0  0  0  0  0
  -22.1816  -21.3455   19.5068 C   0  0  0  0  0  0  0  0  0  0  0  0
  -28.2360  -25.3180   19.9065 C   0  0  0  0  0  0  0  0  0  0  0  0
  -22.5443  -19.2159   20.6217 C   0  0  0  0  0  0  0  0  0  0  0  0
  -26.9349  -27.2504   20.2151 C   0  0  0  0  0  0  0  0  0  0  0  0
  -24.8816  -28.5612   21.5745 C   0  0  0  0  0  0  0  0  0  0  0  0
  -25.8237  -27.7201   19.5149 C   0  0  0  0  0  0  0  0  0  0  0  0
  -24.6518  -12.0380   20.7027 C   0  0  0  0  0  0  0  0  0  0  0  0
  -29.1088  -21.3367   21.0400 C   0  0  0  0  0  0  0  0  0  0  0  0
  -24.5239  -13.3084   21.2261 C   0  0  0  0  0  0  0  0  0  0  0  0
  -29.5182  -19.5002   22.1779 C   0  0  0  0  0  0  0  0  0  0  0  0
  -26.2904  -14.0459   20.0003 C   0  0  0  0  0  0  0  0  0  0  0  0
  -29.1033  -21.5093   23.6061 C   0  0  0  0  0  0  0  0  0  0  0  0
  -21.0587  -24.4329   20.4209 C   0  0  0  0  0  0  0  0  0  0  0  0
  -22.5986  -15.6974   21.7199 C   0  0  0  0  0  0  0  0  0  0  0  0
  -21.5527  -24.3432   17.2162 C   0  0  0  0  0  0  0  0  0  0  0  0
  -22.4454  -22.5210   14.4722 C   0  0  0  0  0  0  0  0  0  0  0  0
  -28.2193  -15.0520   18.7302 C   0  0  0  0  0  0  0  0  0  0  0  0
  -19.6373  -28.9376   22.3561 C   0  0  0  0  0  0  0  0  0  0  0  0
  -23.3674  -23.4280   20.2955 C   0  0  0  0  0  0  0  0  0  0  0  0
  -21.4984  -22.1224   18.4122 C   0  0  0  0  0  0  0  0  0  0  0  0
  -19.4135  -28.1945   21.0416 C   0  0  0  0  0  0  0  0  0  0  0  0
  -31.3266  -16.7705   18.4682 C   0  0  0  0  0  0  0  0  0  0  0  0
  -18.9667  -26.7606   21.3082 C   0  0  0  0  0  0  0  0  0  0  0  0
  -31.0854  -18.0744   19.2323 C   0  0  0  0  0  0  0  0  0  0  0  0
  -30.0849  -16.3273   17.6966 C   0  0  0  0  0  0  0  0  0  0  0  0
  -28.6160  -17.5373   19.2610 C   0  0  0  0  0  0  0  0  0  0  0  0
  -20.0398  -25.9827   22.0794 C   0  0  1  0  0  0  0  0  0  0  0  0
  -22.2782  -24.2131   19.5712 C   0  0  1  0  0  0  0  0  0  0  0  0
  -29.8183  -17.9895   20.1058 C   0  0  2  0  0  0  0  0  0  0  0  0
  -22.7180  -22.7108   11.9848 C   0  0  0  0  0  0  0  0  0  0  0  0
  -22.2387  -16.0351   24.7338 C   0  0  0  0  0  0  0  0  0  0  0  0
  -21.0416  -14.0725   23.7744 C   0  0  0  0  0  0  0  0  0  0  0  0
  -23.1257  -13.7283   25.1119 C   0  0  0  0  0  0  0  0  0  0  0  0
  -18.5222  -24.2343   16.8782 C   0  0  0  0  0  0  0  0  0  0  0  0
  -18.8824  -23.4782   14.5188 C   0  0  0  0  0  0  0  0  0  0  0  0
  -19.7010  -25.7192   15.2473 C   0  0  0  0  0  0  0  0  0  0  0  0
  -25.3288  -21.8710   14.6220 C   0  0  0  0  0  0  0  0  0  0  0  0
  -22.9588  -17.1708   21.7626 C   0  0  0  0  0  0  0  0  0  1  0  0
  -23.2585  -14.8053   22.7701 C   0  0  1  0  0  0  0  0  0  0  0  0
  -20.8955  -23.6414   16.0524 C   0  0  1  0  0  0  0  0  0  0  0  0
  -23.4078  -22.8169   13.3361 C   0  0  2  0  0  0  0  0  0  0  0  0
  -22.4384  -14.6478   24.0837 C   0  0  0  0  0  0  0  0  0  0  0  0
  -19.5115  -24.2537   15.6959 C   0  0  0  0  0  0  0  0  0  0  0  0
  -26.5182  -12.8525   19.4194 N   0  0  0  0  0  0  0  0  0  0  0  0
  -29.2990  -20.4002   20.1067 N   0  0  0  0  0  0  0  0  0  0  0  0
  -25.3288  -14.3397   20.8961 N   0  0  0  0  0  0  0  0  0  0  0  0
  -29.5462  -19.2947   20.8299 N   0  0  0  0  0  0  0  0  0  0  0  0
  -21.8296  -23.5552   18.3423 N   0  0  0  0  0  0  0  0  0  0  0  0
  -28.9254  -16.2655   18.5890 N   0  0  0  0  0  0  0  0  0  0  0  0
  -29.7451  -18.4958   23.0508 N   0  0  0  0  0  0  0  0  0  0  0  0
  -28.8082  -22.8794   23.6005 N   0  0  0  0  0  0  0  0  0  0  0  0
  -23.5098  -13.5232   22.1402 N   0  0  0  0  0  0  0  0  0  0  0  0
  -27.1556  -15.1053   19.6303 N   0  0  0  0  0  0  0  0  0  0  0  0
  -21.1084  -25.5794   21.1906 N   0  0  0  0  0  0  0  0  0  0  0  0
  -21.8615  -23.6712   14.9595 N   0  0  0  0  0  0  0  0  0  0  0  0
  -24.5470  -21.8564   13.3588 N   0  3  0  0  0  0  0  0  0  0  0  0
  -29.2608  -20.9197   24.7021 O   0  0  0  0  0  0  0  0  0  0  0  0
  -20.1399  -23.6230   20.3800 O   0  0  0  0  0  0  0  0  0  0  0  0
  -21.8277  -15.2472   20.8720 O   0  0  0  0  0  0  0  0  0  0  0  0
  -21.8173  -25.5447   17.1266 O   0  0  0  0  0  0  0  0  0  0  0  0
  -22.2303  -21.3831   14.8837 O   0  0  0  0  0  0  0  0  0  0  0  0
  -28.5519  -14.0329   18.1196 O   0  0  0  0  0  0  0  0  0  0  0  0
  -27.9546  -26.5988   19.5418 O   0  0  0  0  0  0  0  0  0  0  0  0
  -22.2892  -17.8830   20.7230 O   0  0  0  0  0  0  0  0  0  1  0  0
  -23.8950  -29.1893   22.2276 F   0  0  0  0  0  0  0  0  0  0  0  0
  -25.7363  -27.5436   18.1894 F   0  0  0  0  0  0  0  0  0  0  0  0
  -23.8429  -11.0295   21.0442 F   0  0  0  0  0  0  0  0  0  0  0  0
  1  2  1  0  0  0  0
  1  5  2  0  0  0  0
  2  6  2  0  0  0  0
  3  8  2  0  0  0  0
  3 16  1  0  0  0  0
  4  9  1  0  0  0  0
  4 16  2  0  0  0  0
  5 18  1  0  0  0  0
  6 20  1  0  0  0  0
  7 10  2  0  0  0  0
  7 19  1  0  0  0  0
  8 22  1  0  0  0  0
  9 22  2  0  0  0  0
 10 23  1  0  0  0  0
 11 12  2  0  0  0  0
 11 24  1  0  0  0  0
 12 25  1  0  0  0  0
 13 21  1  0  0  0  0
 13 23  2  0  0  0  0
 14 25  2  0  0  0  0
 14 26  1  0  0  0  0
 15 27  1  0  0  0  0
 15 64  2  0  0  0  0
 16 28  1  0  0  0  0
 17 28  1  0  0  0  0
 17 30  2  0  0  0  0
 17 32  1  0  0  0  0
 18 20  2  0  0  0  0
 18 38  1  0  0  0  0
 19 21  2  0  0  0  0
 19 39  1  0  0  0  0
 20 47  1  0  0  0  0
 21 40  1  0  0  0  0
 22 83  1  0  0  0  0
 23 84  1  0  0  0  0
 24 26  2  0  0  0  0
 24 83  1  0  0  0  0
 25 85  1  0  0  0  0
 26 86  1  0  0  0  0
 27 29  2  0  0  0  0
 27 87  1  0  0  0  0
 28 65  2  0  0  0  0
 29 66  1  0  0  0  0
 29 72  1  0  0  0  0
 30 67  1  0  0  0  0
 30 70  1  0  0  0  0
 31 64  1  0  0  0  0
 31 66  2  0  0  0  0
 31 73  1  0  0  0  0
 32 71  1  0  0  0  0
 32 77  2  0  0  0  0
 33 48  1  0  0  0  0
 33 74  1  0  0  0  0
 33 78  2  0  0  0  0
 34 58  1  0  0  0  0
 34 59  1  0  0  0  0
 34 79  2  0  0  0  0
 35 60  1  0  0  0  0
 35 68  1  0  0  0  0
 35 80  2  0  0  0  0
 36 61  1  0  0  0  0
 36 75  1  0  0  0  0
 36 81  2  0  0  0  0
 37 69  1  0  0  0  0
 37 73  1  0  0  0  0
 37 82  2  0  0  0  0
 38 41  1  0  0  0  0
 39 48  1  0  0  0  0
 40 68  1  0  0  0  0
 41 43  1  0  0  0  0
 42 44  1  0  0  0  0
 42 45  1  0  0  0  0
 43 47  1  0  0  0  0
 44 49  1  0  0  0  0
 45 69  1  0  0  0  0
 46 49  1  0  0  0  0
 46 69  1  0  0  0  0
 47 74  1  0  0  0  0
 48 68  1  0  0  0  0
 49 67  1  0  0  0  0
 50 61  1  0  0  0  0
 51 62  1  0  0  0  0
 52 62  1  0  0  0  0
 53 62  1  0  0  0  0
 54 63  1  0  0  0  0
 55 63  1  0  0  0  0
 56 63  1  0  0  0  0
 57 76  1  0  0  0  0
 58 84  1  0  0  0  0
 59 62  1  0  0  0  0
 59 72  1  0  0  0  0
 60 63  1  0  0  0  0
 60 75  1  0  0  0  0
 61 76  1  0  0  0  0
 65 67  1  0  0  0  0
M  CHG  1  76   1
M  ISO  4  37 100  58 101  73 100  84 101
M  END
> <Batch ID>
0181

> <Smiles>
CNC(C)C(=O)NC(C(=O)N1Cc2cc([101O:1][101CH2:1]C(=O)C(Nc3nc([100NH:0][100C:0](=O)N4CCCC(n5nc(-c6ccc(Oc7ccc(F)cc7F)cc6)c(C(N)=O)c5N)C4)ncc3F)C(C)(C)C)ccc2CC1C(=O)NC1CCCc2ccccc21)C(C)(C)C

> <Shape>
0.195

> <Color>
0.082

> <Negative vol penalty>
0.000

$$$$

  -OEChem-04052304533D

 83 91  0     1  0  0  0  0  0999 V2000
  -24.6677  -37.1251   22.0476 C   0  0  0  0  0  0  0  0  0  0  0  0
  -25.5525  -36.0990   21.7319 C   0  0  0  0  0  0  0  0  0  0  0  0
  -22.9340  -10.1650   22.9205 C   0  0  0  0  0  0  0  0  0  0  0  0
  -23.9390  -10.0191   20.7283 C   0  0  0  0  0  0  0  0  0  0  0  0
  -23.5331  -36.8553   22.8115 C   0  0  0  0  0  0  0  0  0  0  0  0
  -25.3036  -34.8025   22.1809 C   0  0  0  0  0  0  0  0  0  0  0  0
  -26.5864  -29.5811   19.2488 C   0  0  0  0  0  0  0  0  0  0  0  0
  -22.2740   -8.9564   22.6984 C   0  0  0  0  0  0  0  0  0  0  0  0
  -23.2790   -8.8105   20.5062 C   0  0  0  0  0  0  0  0  0  0  0  0
  -27.6427  -28.6779   19.3601 C   0  0  0  0  0  0  0  0  0  0  0  0
  -23.0229   -5.6599   22.7674 C   0  0  0  0  0  0  0  0  0  0  0  0
  -23.0329   -4.7173   23.7955 C   0  0  0  0  0  0  0  0  0  0  0  0
  -26.3101  -27.3103   20.8342 C   0  0  0  0  0  0  0  0  0  0  0  0
  -20.6193   -4.7839   23.8800 C   0  0  0  0  0  0  0  0  0  0  0  0
  -23.7665  -10.6963   21.9355 C   0  0  0  0  0  0  0  0  0  0  0  0
  -25.7218  -12.1260   22.7357 C   0  0  0  0  0  0  0  0  0  0  0  0
  -23.2651  -35.5530   23.2620 C   0  0  0  0  0  0  0  0  0  0  0  0
  -25.3859  -29.3608   19.9392 C   0  0  0  0  0  0  0  0  0  0  0  0
  -24.1649  -34.5152   22.9527 C   0  0  0  0  0  0  0  0  0  0  0  0
  -25.2392  -28.2108   20.7279 C   0  0  0  0  0  0  0  0  0  0  0  0
  -22.4465   -8.2791   21.4913 C   0  0  0  0  0  0  0  0  0  0  0  0
  -27.5057  -27.5438   20.1551 C   0  0  0  0  0  0  0  0  0  0  0  0
  -21.8111   -6.1645   22.2956 C   0  0  0  0  0  0  0  0  0  0  0  0
  -21.8311   -4.2793   24.3518 C   0  0  0  0  0  0  0  0  0  0  0  0
  -20.6093   -5.7265   22.8519 C   0  0  0  0  0  0  0  0  0  0  0  0
  -24.4482  -11.9450   22.1641 C   0  0  0  0  0  0  0  0  0  0  0  0
  -29.4809  -20.5214   19.7581 C   0  0  0  0  0  0  0  0  0  0  0  0
  -25.9103  -13.4865   22.7306 C   0  0  0  0  0  0  0  0  0  0  0  0
  -30.4144  -19.5108   19.8551 C   0  0  0  0  0  0  0  0  0  0  0  0
  -28.1105  -18.8324   20.0402 C   0  0  0  0  0  0  0  0  0  0  0  0
  -28.9813  -22.9171   20.0349 C   0  0  0  0  0  0  0  0  0  0  0  0
  -26.6515  -11.1515   23.2273 C   0  0  0  0  0  0  0  0  0  0  0  0
  -29.7840  -21.9515   19.5522 C   0  0  0  0  0  0  0  0  0  0  0  0
  -29.2314  -24.3809   19.8687 C   0  0  0  0  0  0  0  0  0  0  0  0
  -23.7759  -30.9201   22.1931 C   0  0  0  0  0  0  0  0  0  0  0  0
  -21.5484  -28.6278   21.6403 C   0  0  0  0  0  0  0  0  0  0  0  0
  -20.8434  -25.4854   20.5112 C   0  0  0  0  0  0  0  0  0  0  0  0
  -25.6277  -18.4335   20.1909 C   0  0  0  0  0  0  0  0  0  0  0  0
  -22.0504  -35.3189   24.1248 C   0  0  0  0  0  0  0  0  0  0  0  0
  -24.2464  -30.3309   19.7874 C   0  0  0  0  0  0  0  0  0  0  0  0
  -23.9637  -27.9180   21.4734 C   0  0  0  0  0  0  0  0  0  0  0  0
  -21.6635  -33.8471   24.2455 C   0  0  0  0  0  0  0  0  0  0  0  0
  -22.6689  -17.2574   21.7844 C   0  0  0  0  0  0  0  0  0  0  0  0
  -22.8936  -32.9941   24.5388 C   0  0  0  0  0  0  0  0  0  0  0  0
  -22.9728  -15.7854   22.0723 C   0  0  0  0  0  0  0  0  0  0  0  0
  -23.2649  -17.7096   20.4525 C   0  0  0  0  0  0  0  0  0  0  0  0
  -25.0035  -15.9687   20.5790 C   0  0  0  0  0  0  0  0  0  0  0  0
  -23.9165  -33.0912   23.4005 C   0  0  1  0  0  0  0  0  0  0  0  0
  -23.2526  -30.2708   20.9433 C   0  0  1  0  0  0  0  0  0  0  0  0
  -24.4787  -15.4846   21.9406 C   0  0  2  0  0  0  0  0  0  0  0  0
  -18.9385  -23.8778   20.2204 C   0  0  0  0  0  0  0  0  0  0  0  0
  -21.5853  -28.0460   24.6353 C   0  0  0  0  0  0  0  0  0  0  0  0
  -20.4331  -25.8753   24.1572 C   0  0  0  0  0  0  0  0  0  0  0  0
  -19.3099  -28.0313   23.5978 C   0  0  0  0  0  0  0  0  0  0  0  0
  -21.2196  -25.3899   17.5772 C   0  0  0  0  0  0  0  0  0  0  0  0
  -28.1968  -25.2936   20.4939 C   0  0  0  0  0  0  0  0  0  1  0  0
  -21.2670  -27.2538   22.1987 C   0  0  1  0  0  0  0  0  0  0  0  0
  -19.7708  -24.9709   19.5682 C   0  0  2  0  0  0  0  0  0  0  0  0
  -20.6737  -27.3078   23.6349 C   0  0  0  0  0  0  0  0  0  0  0  0
  -23.8684  -13.0983   21.8210 N   0  0  0  0  0  0  0  0  0  0  0  0
  -28.1592  -20.1342   19.8636 N   0  0  0  0  0  0  0  0  0  0  0  0
  -24.7818  -14.0171   22.1781 N   0  0  0  0  0  0  0  0  0  0  0  0
  -22.8806  -28.8997   21.2981 N   0  0  0  0  0  0  0  0  0  0  0  0
  -24.6946  -17.3963   20.4013 N   0  0  0  0  0  0  0  0  0  0  0  0
  -26.9295  -14.2688   23.1450 N   0  0  0  0  0  0  0  0  0  0  0  0
  -31.7661  -19.6006   19.7857 N   0  0  0  0  0  0  0  0  0  0  0  0
  -26.2992   -9.7968   23.1567 N   0  0  0  0  0  0  0  0  0  0  0  0
  -26.9596  -18.0204   20.1942 N   0  0  0  0  0  0  0  0  0  0  0  0
  -23.5052  -32.2724   22.2803 N   0  0  0  0  0  0  0  0  0  0  0  0
  -20.4125  -26.5842   21.2240 N   0  0  0  0  0  0  0  0  0  0  0  0
  -20.3908  -24.4152   18.3322 N   0  3  0  0  0  0  0  0  0  0  0  0
  -27.7549  -11.4735   23.7297 O   0  0  0  0  0  0  0  0  0  0  0  0
  -30.2088  -24.8144   19.2659 O   0  0  0  0  0  0  0  0  0  0  0  0
  -24.3793  -30.2441   23.0181 O   0  0  0  0  0  0  0  0  0  0  0  0
  -20.6192  -29.4279   21.5058 O   0  0  0  0  0  0  0  0  0  0  0  0
  -21.9514  -24.9624   20.6086 O   0  0  0  0  0  0  0  0  0  0  0  0
  -25.2728  -19.6063   20.0474 O   0  0  0  0  0  0  0  0  0  0  0  0
  -30.9517  -22.1777   18.8544 O   0  0  0  0  0  0  0  0  0  0  0  0
  -21.8028   -7.0997   21.2743 O   0  0  0  0  0  0  0  0  0  0  0  0
  -28.5353  -26.6610   20.2660 O   0  0  0  0  0  0  0  0  0  1  0  0
  -21.8408   -3.3730   25.3381 F   0  0  0  0  0  0  0  0  0  0  0  0
  -19.4420   -6.2068   22.4020 F   0  0  0  0  0  0  0  0  0  0  0  0
  -29.6164  -18.0110   20.0898 S   0  0  0  0  0  0  0  0  0  0  0  0
  1  2  1  0  0  0  0
  1  5  2  0  0  0  0
  2  6  2  0  0  0  0
  3  8  2  0  0  0  0
  3 15  1  0  0  0  0
  4  9  1  0  0  0  0
  4 15  2  0  0  0  0
  5 17  1  0  0  0  0
  6 19  1  0  0  0  0
  7 10  2  0  0  0  0
  7 18  1  0  0  0  0
  8 21  1  0  0  0  0
  9 21  2  0  0  0  0
 10 22  1  0  0  0  0
 11 12  2  0  0  0  0
 11 23  1  0  0  0  0
 12 24  1  0  0  0  0
 13 20  1  0  0  0  0
 13 22  2  0  0  0  0
 14 24  2  0  0  0  0
 14 25  1  0  0  0  0
 15 26  1  0  0  0  0
 16 26  1  0  0  0  0
 16 28  2  0  0  0  0
 16 32  1  0  0  0  0
 17 19  2  0  0  0  0
 17 39  1  0  0  0  0
 18 20  2  0  0  0  0
 18 40  1  0  0  0  0
 19 48  1  0  0  0  0
 20 41  1  0  0  0  0
 21 79  1  0  0  0  0
 22 80  1  0  0  0  0
 23 25  2  0  0  0  0
 23 79  1  0  0  0  0
 24 81  1  0  0  0  0
 25 82  1  0  0  0  0
 26 60  2  0  0  0  0
 27 29  2  0  0  0  0
 27 33  1  0  0  0  0
 27 61  1  0  0  0  0
 28 62  1  0  0  0  0
 28 65  1  0  0  0  0
 29 66  1  0  0  0  0
 29 83  1  0  0  0  0
 30 61  2  0  0  0  0
 30 68  1  0  0  0  0
 30 83  1  0  0  0  0
 31 33  2  0  0  0  0
 31 34  1  0  0  0  0
 32 67  1  0  0  0  0
 32 72  2  0  0  0  0
 33 78  1  0  0  0  0
 34 56  1  0  0  0  0
 34 73  2  0  0  0  0
 35 49  1  0  0  0  0
 35 69  1  0  0  0  0
 35 74  2  0  0  0  0
 36 57  1  0  0  0  0
 36 63  1  0  0  0  0
 36 75  2  0  0  0  0
 37 58  1  0  0  0  0
 37 70  1  0  0  0  0
 37 76  2  0  0  0  0
 38 64  1  0  0  0  0
 38 68  1  0  0  0  0
 38 77  2  0  0  0  0
 39 42  1  0  0  0  0
 40 49  1  0  0  0  0
 41 63  1  0  0  0  0
 42 44  1  0  0  0  0
 43 45  1  0  0  0  0
 43 46  1  0  0  0  0
 44 48  1  0  0  0  0
 45 50  1  0  0  0  0
 46 64  1  0  0  0  0
 47 50  1  0  0  0  0
 47 64  1  0  0  0  0
 48 69  1  0  0  0  0
 49 63  1  0  0  0  0
 50 62  1  0  0  0  0
 51 58  1  0  0  0  0
 52 59  1  0  0  0  0
 53 59  1  0  0  0  0
 54 59  1  0  0  0  0
 55 71  1  0  0  0  0
 56 80  1  0  0  0  0
 57 59  1  0  0  0  0
 57 70  1  0  0  0  0
 58 71  1  0  0  0  0
 60 62  1  0  0  0  0
M  CHG  1  71   1
M  ISO  4  38 100  56 101  68 100  80 101
M  END
> <Batch ID>
0181

> <Smiles>
CNC(C)C(=O)NC(C(=O)N1Cc2cc([101O:1][101CH2:1]C(=O)CC(=O)c3nc([100NH:0][100C:0](=O)N4CCCC(n5nc(-c6ccc(Oc7ccc(F)cc7F)cc6)c(C(N)=O)c5N)C4)sc3N)ccc2CC1C(=O)NC1CCCc2ccccc21)C(C)(C)C

> <Shape>
0.286

> <Color>
0.101

> <Negative vol penalty>
0.000

$$$$

  -OEChem-04052304533D

 85 93  0     1  0  0  0  0  0999 V2000
  -41.7133  -26.4504   19.3760 C   0  0  0  0  0  0  0  0  0  0  0  0
  -41.0187  -25.5226   20.1457 C   0  0  0  0  0  0  0  0  0  0  0  0
  -23.0735   -9.8537   19.9328 C   0  0  0  0  0  0  0  0  0  0  0  0
  -23.8317   -9.8531   22.2268 C   0  0  0  0  0  0  0  0  0  0  0  0
  -41.0269  -27.4938   18.7564 C   0  0  0  0  0  0  0  0  0  0  0  0
  -39.6373  -25.6385   20.2969 C   0  0  0  0  0  0  0  0  0  0  0  0
  -37.2452  -21.2080   19.7560 C   0  0  0  0  0  0  0  0  0  0  0  0
  -22.3351   -8.6957   20.1765 C   0  0  0  0  0  0  0  0  0  0  0  0
  -23.0932   -8.6951   22.4705 C   0  0  0  0  0  0  0  0  0  0  0  0
  -37.2825  -20.3281   20.8369 C   0  0  0  0  0  0  0  0  0  0  0  0
  -19.3897   -7.8776   21.6215 C   0  0  0  0  0  0  0  0  0  0  0  0
  -18.0834   -7.8274   21.1350 C   0  0  0  0  0  0  0  0  0  0  0  0
  -35.0636  -21.0271   21.4747 C   0  0  0  0  0  0  0  0  0  0  0  0
  -32.0260  -16.6241   22.5798 C   0  0  0  0  0  0  0  0  0  0  0  0
  -18.6536   -5.8936   19.8037 C   0  0  0  0  0  0  0  0  0  0  0  0
  -30.4240  -18.3428   24.0839 C   0  0  0  0  0  0  0  0  0  0  0  0
  -23.8219  -10.4324   20.9579 C   0  0  0  0  0  0  0  0  0  0  0  0
  -24.1515  -12.9597   20.8506 C   0  0  0  0  0  0  0  0  0  0  0  0
  -39.6351  -27.6170   18.8923 C   0  0  0  0  0  0  0  0  0  0  0  0
  -36.1192  -22.0133   19.5324 C   0  0  0  0  0  0  0  0  0  0  0  0
  -38.9319  -26.6854   19.6796 C   0  0  0  0  0  0  0  0  0  0  0  0
  -35.0135  -21.9145   20.3889 C   0  0  0  0  0  0  0  0  0  0  0  0
  -32.6108  -17.5055   23.4890 C   0  0  0  0  0  0  0  0  0  0  0  0
  -30.6401  -16.6021   22.4225 C   0  0  0  0  0  0  0  0  0  0  0  0
  -22.3449   -8.1164   21.4453 C   0  0  0  0  0  0  0  0  0  0  0  0
  -36.1928  -20.2397   21.6981 C   0  0  0  0  0  0  0  0  0  0  0  0
  -20.3280   -6.9359   21.1990 C   0  0  0  0  0  0  0  0  0  0  0  0
  -17.7154   -6.8354   20.2261 C   0  0  0  0  0  0  0  0  0  0  0  0
  -31.8098  -18.3648   24.2411 C   0  0  0  0  0  0  0  0  0  0  0  0
  -29.8392  -17.4614   23.1746 C   0  0  0  0  0  0  0  0  0  0  0  0
  -19.9599   -5.9439   20.2901 C   0  0  0  0  0  0  0  0  0  0  0  0
  -24.5853  -11.6282   20.7067 C   0  0  0  0  0  0  0  0  0  0  0  0
  -25.2402  -13.7163   20.4919 C   0  0  0  0  0  0  0  0  0  0  0  0
  -22.8782  -13.4673   21.2711 C   0  0  0  0  0  0  0  0  0  0  0  0
  -35.5807  -25.1450   19.4560 C   0  0  0  0  0  0  0  0  0  0  0  0
  -32.6269  -24.2194   18.4862 C   0  0  0  0  0  0  0  0  0  0  0  0
  -34.9584  -16.7454   22.9804 C   0  0  0  0  0  0  0  0  0  0  0  0
  -30.2305  -21.7907   18.4124 C   0  0  0  0  0  0  0  0  0  0  0  0
  -30.7011  -14.7877   20.6760 C   0  0  0  0  0  0  0  0  0  0  0  0
  -38.9432  -28.7890   18.2423 C   0  0  0  0  0  0  0  0  0  0  0  0
  -36.0840  -22.9379   18.3465 C   0  0  0  0  0  0  0  0  0  0  0  0
  -33.7727  -22.7425   20.1807 C   0  0  0  0  0  0  0  0  0  0  0  0
  -37.4286  -28.6250   18.1457 C   0  0  0  0  0  0  0  0  0  0  0  0
  -29.6003  -12.3802   18.2950 C   0  0  0  0  0  0  0  0  0  0  0  0
  -36.8587  -28.1364   19.4736 C   0  0  0  0  0  0  0  0  0  0  0  0
  -28.1618  -12.0794   18.7220 C   0  0  0  0  0  0  0  0  0  0  0  0
  -30.5134  -12.6075   19.4985 C   0  0  0  0  0  0  0  0  0  0  0  0
  -28.6019  -13.3158   20.8818 C   0  0  0  0  0  0  0  0  0  0  0  0
  -37.4299  -26.7632   19.8472 C   0  0  1  0  0  0  0  0  0  0  0  0
  -35.0908  -24.0840   18.5117 C   0  0  1  0  0  0  0  0  0  0  0  0
  -27.6308  -13.1436   19.7024 C   0  0  2  0  0  0  0  0  0  0  0  0
  -37.2475  -15.8156   23.3598 C   0  0  0  0  0  0  0  0  0  0  0  0
  -27.9072  -21.3405   17.5778 C   0  0  0  0  0  0  0  0  0  0  0  0
  -31.4876  -25.9254   20.7448 C   0  0  0  0  0  0  0  0  0  0  0  0
  -29.3145  -24.7126   20.4710 C   0  0  0  0  0  0  0  0  0  0  0  0
  -30.2279  -26.0720   18.5894 C   0  0  0  0  0  0  0  0  0  0  0  0
  -31.1519  -19.5551   16.7060 C   0  0  0  0  0  0  0  0  0  0  0  0
  -37.0043  -18.1953   22.6024 C   0  0  0  0  0  0  0  0  0  1  0  0
  -31.3320  -23.8762   19.1820 C   0  0  1  0  0  0  0  0  0  0  0  0
  -36.3852  -17.0746   23.4412 C   0  0  1  0  0  0  0  0  0  0  0  0
  -29.3936  -21.2357   17.2741 C   0  0  2  0  0  0  0  0  0  0  0  0
  -30.6145  -25.1322   19.7521 C   0  0  0  0  0  0  0  0  0  0  0  0
  -25.8510  -11.5406   20.2889 N   0  0  0  0  0  0  0  0  0  0  0  0
  -26.2217  -12.8267   20.1672 N   0  0  0  0  0  0  0  0  0  0  0  0
  -33.7890  -23.6362   19.0108 N   0  0  0  0  0  0  0  0  0  0  0  0
  -29.9487  -13.6312   20.3805 N   0  0  0  0  0  0  0  0  0  0  0  0
  -25.4442  -15.0491   20.4256 N   0  0  0  0  0  0  0  0  0  0  0  0
  -21.8705  -12.5515   21.6031 N   0  0  0  0  0  0  0  0  0  0  0  0
  -34.0171  -17.5255   23.6469 N   0  0  0  0  0  0  0  0  0  0  0  0
  -30.0486  -15.7055   21.4984 N   0  0  0  0  0  0  0  0  0  0  0  0
  -36.7802  -25.7205   19.0823 N   0  0  0  0  0  0  0  0  0  0  0  0
  -30.5387  -23.1207   18.2185 N   0  0  0  0  0  0  0  0  0  0  0  0
  -29.7252  -19.8020   17.0386 N   0  3  0  0  0  0  0  0  0  0  0  0
  -22.6359  -14.6964   21.3343 O   0  0  0  0  0  0  0  0  0  0  0  0
  -34.9188  -25.4222   20.4494 O   0  0  0  0  0  0  0  0  0  0  0  0
  -32.6073  -24.9715   17.5086 O   0  0  0  0  0  0  0  0  0  0  0  0
  -34.7369  -15.8850   22.1333 O   0  0  0  0  0  0  0  0  0  0  0  0
  -30.5733  -21.1133   19.3790 O   0  0  0  0  0  0  0  0  0  0  0  0
  -31.8297  -14.9642   20.2101 O   0  0  0  0  0  0  0  0  0  0  0  0
  -21.6243   -6.9866   21.6835 O   0  0  0  0  0  0  0  0  0  0  0  0
  -36.2268  -19.3822   22.7543 O   0  0  0  0  0  0  0  0  0  1  0  0
  -16.4605   -6.7864   19.7602 F   0  0  0  0  0  0  0  0  0  0  0  0
  -32.3606  -19.2162   25.1181 F   0  0  0  0  0  0  0  0  0  0  0  0
  -28.5062  -17.4492   23.0320 F   0  0  0  0  0  0  0  0  0  0  0  0
  -20.8566   -5.0357   19.8815 F   0  0  0  0  0  0  0  0  0  0  0  0
  1  2  1  0  0  0  0
  1  5  2  0  0  0  0
  2  6  2  0  0  0  0
  3  8  2  0  0  0  0
  3 17  1  0  0  0  0
  4  9  1  0  0  0  0
  4 17  2  0  0  0  0
  5 19  1  0  0  0  0
  6 21  1  0  0  0  0
  7 10  2  0  0  0  0
  7 20  1  0  0  0  0
  8 25  1  0  0  0  0
  9 25  2  0  0  0  0
 10 26  1  0  0  0  0
 11 12  2  0  0  0  0
 11 27  1  0  0  0  0
 12 28  1  0  0  0  0
 13 22  1  0  0  0  0
 13 26  2  0  0  0  0
 14 23  1  0  0  0  0
 14 24  2  0  0  0  0
 15 28  2  0  0  0  0
 15 31  1  0  0  0  0
 16 29  1  0  0  0  0
 16 30  2  0  0  0  0
 17 32  1  0  0  0  0
 18 32  1  0  0  0  0
 18 33  2  0  0  0  0
 18 34  1  0  0  0  0
 19 21  2  0  0  0  0
 19 40  1  0  0  0  0
 20 22  2  0  0  0  0
 20 41  1  0  0  0  0
 21 49  1  0  0  0  0
 22 42  1  0  0  0  0
 23 29  2  0  0  0  0
 23 69  1  0  0  0  0
 24 30  1  0  0  0  0
 24 70  1  0  0  0  0
 25 80  1  0  0  0  0
 26 81  1  0  0  0  0
 27 31  2  0  0  0  0
 27 80  1  0  0  0  0
 28 82  1  0  0  0  0
 29 83  1  0  0  0  0
 30 84  1  0  0  0  0
 31 85  1  0  0  0  0
 32 63  2  0  0  0  0
 33 64  1  0  0  0  0
 33 67  1  0  0  0  0
 34 68  1  0  0  0  0
 34 74  2  0  0  0  0
 35 50  1  0  0  0  0
 35 71  1  0  0  0  0
 35 75  2  0  0  0  0
 36 59  1  0  0  0  0
 36 65  1  0  0  0  0
 36 76  2  0  0  0  0
 37 60  1  0  0  0  0
 37 69  1  0  0  0  0
 37 77  2  0  0  0  0
 38 61  1  0  0  0  0
 38 72  1  0  0  0  0
 38 78  2  0  0  0  0
 39 66  1  0  0  0  0
 39 70  1  0  0  0  0
 39 79  2  0  0  0  0
 40 43  1  0  0  0  0
 41 50  1  0  0  0  0
 42 65  1  0  0  0  0
 43 45  1  0  0  0  0
 44 46  1  0  0  0  0
 44 47  1  0  0  0  0
 45 49  1  0  0  0  0
 46 51  1  0  0  0  0
 47 66  1  0  0  0  0
 48 51  1  0  0  0  0
 48 66  1  0  0  0  0
 49 71  1  0  0  0  0
 50 65  1  0  0  0  0
 51 64  1  0  0  0  0
 52 60  1  0  0  0  0
 53 61  1  0  0  0  0
 54 62  1  0  0  0  0
 55 62  1  0  0  0  0
 56 62  1  0  0  0  0
 57 73  1  0  0  0  0
 58 60  1  0  0  0  0
 58 81  1  0  0  0  0
 59 62  1  0  0  0  0
 59 72  1  0  0  0  0
 61 73  1  0  0  0  0
 63 64  1  0  0  0  0
M  CHG  1  73   1
M  ISO  4  39 100  58 101  70 100  81 101
M  END
> <Batch ID>
0181

> <Smiles>
CNC(C)C(=O)NC(C(=O)N1Cc2cc([101O:1][101CH2:1]C(C)C(=O)Nc3cc([100NH:0][100C:0](=O)N4CCCC(n5nc(-c6ccc(Oc7ccc(F)cc7F)cc6)c(C(N)=O)c5N)C4)c(F)cc3F)ccc2CC1C(=O)NC1CCCc2ccccc21)C(C)(C)C

> <Shape>
0.190

> <Color>
0.190

> <Negative vol penalty>
0.000

$$$$

  -OEChem-04052304533D

 84 92  0     1  0  0  0  0  0999 V2000
  -22.6303  -34.5129   14.6821 C   0  0  0  0  0  0  0  0  0  0  0  0
  -23.3538  -33.3450   14.9011 C   0  0  0  0  0  0  0  0  0  0  0  0
  -22.3051  -10.4636   21.1069 C   0  0  0  0  0  0  0  0  0  0  0  0
  -24.3214   -9.4215   21.9350 C   0  0  0  0  0  0  0  0  0  0  0  0
  -22.6663  -35.5406   15.6236 C   0  0  0  0  0  0  0  0  0  0  0  0
  -24.1146  -33.2046   16.0612 C   0  0  0  0  0  0  0  0  0  0  0  0
  -25.0922  -28.0507   19.2215 C   0  0  0  0  0  0  0  0  0  0  0  0
  -21.7062   -9.2096   20.9872 C   0  0  0  0  0  0  0  0  0  0  0  0
  -23.7224   -8.1675   21.8154 C   0  0  0  0  0  0  0  0  0  0  0  0
  -26.1559  -27.1496   19.2406 C   0  0  0  0  0  0  0  0  0  0  0  0
  -21.5077   -6.2914   23.5463 C   0  0  0  0  0  0  0  0  0  0  0  0
  -21.6570   -5.3995   24.6083 C   0  0  0  0  0  0  0  0  0  0  0  0
  -27.0758  -28.2856   21.1596 C   0  0  0  0  0  0  0  0  0  0  0  0
  -22.7484   -3.8269   23.1343 C   0  0  0  0  0  0  0  0  0  0  0  0
  -28.7436  -20.3267   23.0742 C   0  0  0  0  0  0  0  0  0  0  0  0
  -23.6128  -10.5695   21.5808 C   0  0  0  0  0  0  0  0  0  0  0  0
  -24.2105  -12.7139   22.8266 C   0  0  0  0  0  0  0  0  0  0  0  0
  -23.4202  -35.4089   16.8004 C   0  0  0  0  0  0  0  0  0  0  0  0
  -25.0179  -29.0843   20.1662 C   0  0  0  0  0  0  0  0  0  0  0  0
  -24.1618  -34.2321   17.0186 C   0  0  0  0  0  0  0  0  0  0  0  0
  -26.0088  -29.1969   21.1519 C   0  0  0  0  0  0  0  0  0  0  0  0
  -29.4565  -20.6847   21.9512 C   0  0  0  0  0  0  0  0  0  0  0  0
  -22.4148   -8.0615   21.3415 C   0  0  0  0  0  0  0  0  0  0  0  0
  -27.1495  -27.2687   20.2080 C   0  0  0  0  0  0  0  0  0  0  0  0
  -21.9788   -5.9509   22.2782 C   0  0  0  0  0  0  0  0  0  0  0  0
  -22.2774   -4.1673   24.4024 C   0  0  0  0  0  0  0  0  0  0  0  0
  -22.5991   -4.7187   22.0723 C   0  0  0  0  0  0  0  0  0  0  0  0
  -30.1850  -19.5876   21.4074 C   0  0  0  0  0  0  0  0  0  0  0  0
  -24.2323  -11.8646   21.7041 C   0  0  0  0  0  0  0  0  0  0  0  0
  -30.0014  -18.4327   22.1357 C   0  0  0  0  0  0  0  0  0  0  0  0
  -24.9382  -13.8127   22.4399 C   0  0  0  0  0  0  0  0  0  0  0  0
  -28.0544  -25.2512   20.9706 C   0  0  0  0  0  0  0  0  0  1  0  0
  -23.5881  -12.5264   24.1045 C   0  0  0  0  0  0  0  0  0  0  0  0
  -29.0120  -24.3205   21.0622 C   0  0  0  0  0  0  0  0  0  0  0  0
  -28.7656  -23.1035   21.9027 C   0  0  0  0  0  0  0  0  0  0  0  0
  -25.0235  -32.2597   20.0219 C   0  0  0  0  0  0  0  0  0  0  0  0
  -24.4368  -32.0165   23.2030 C   0  0  0  0  0  0  0  0  0  0  0  0
  -24.6616  -30.1586   26.0568 C   0  0  0  0  0  0  0  0  0  0  0  0
  -29.4040  -16.0682   19.9671 C   0  0  0  0  0  0  0  0  0  0  0  0
  -23.4659  -36.5660   17.7666 C   0  0  0  0  0  0  0  0  0  0  0  0
  -23.8500  -30.0319   20.1484 C   0  0  0  0  0  0  0  0  0  0  0  0
  -25.9647  -30.2766   22.2010 C   0  0  0  0  0  0  0  0  0  0  0  0
  -23.9980  -36.1869   19.1462 C   0  0  0  0  0  0  0  0  0  0  0  0
  -26.6532  -15.1890   17.8846 C   0  0  0  0  0  0  0  0  0  0  0  0
  -25.2631  -35.3444   19.0175 C   0  0  0  0  0  0  0  0  0  0  0  0
  -25.7802  -14.3112   18.7830 C   0  0  0  0  0  0  0  0  0  0  0  0
  -28.1404  -14.9614   18.1464 C   0  0  0  0  0  0  0  0  0  0  0  0
  -27.6776  -14.2300   20.4539 C   0  0  0  0  0  0  0  0  0  0  0  0
  -24.9791  -34.0323   18.2765 C   0  0  1  0  0  0  0  0  0  0  0  0
  -24.1457  -31.3578   20.8427 C   0  0  1  0  0  0  0  0  0  0  0  0
  -26.1690  -14.4649   20.2657 C   0  0  2  0  0  0  0  0  0  0  0  0
  -24.1301  -30.2409   28.5079 C   0  0  0  0  0  0  0  0  0  0  0  0
  -26.8296  -33.8544   23.6576 C   0  0  0  0  0  0  0  0  0  0  0  0
  -26.8320  -33.1424   26.0579 C   0  0  0  0  0  0  0  0  0  0  0  0
  -24.8541  -34.3341   25.1143 C   0  0  0  0  0  0  0  0  0  0  0  0
  -22.8424  -27.8326   25.8588 C   0  0  0  0  0  0  0  0  0  0  0  0
  -30.5796  -17.0925   21.8979 C   0  0  0  0  0  0  0  0  0  0  0  0
  -25.2917  -31.9357   24.4446 C   0  0  1  0  0  0  0  0  0  0  0  0
  -23.6378  -29.8309   27.1287 C   0  0  2  0  0  0  0  0  0  0  0  0
  -25.9540  -33.2974   24.7978 C   0  0  0  0  0  0  0  0  0  0  0  0
  -24.9193  -12.3796   20.6810 N   0  0  0  0  0  0  0  0  0  0  0  0
  -25.3359  -13.5645   21.1591 N   0  0  0  0  0  0  0  0  0  0  0  0
  -24.8059  -31.1826   22.1380 N   0  0  0  0  0  0  0  0  0  0  0  0
  -28.4431  -15.1235   19.5705 N   0  0  0  0  0  0  0  0  0  0  0  0
  -25.2702  -14.9574   23.0739 N   0  0  0  0  0  0  0  0  0  0  0  0
  -22.8792  -11.3394   24.3347 N   0  0  0  0  0  0  0  0  0  0  0  0
  -29.4498  -21.9967   21.4192 N   0  0  0  0  0  0  0  0  0  0  0  0
  -24.3302  -33.0848   19.1571 N   0  0  0  0  0  0  0  0  0  0  0  0
  -24.4350  -31.3975   25.4957 N   0  0  0  0  0  0  0  0  0  0  0  0
  -29.6259  -16.1624   21.3355 N   0  0  0  0  0  0  0  0  0  0  0  0
  -23.3561  -28.3676   27.1459 N   0  3  0  0  0  0  0  0  0  0  0  0
  -23.6447  -13.3930   25.0096 O   0  0  0  0  0  0  0  0  0  0  0  0
  -28.0347  -23.1544   22.8861 O   0  0  0  0  0  0  0  0  0  0  0  0
  -26.2397  -32.2116   20.1639 O   0  0  0  0  0  0  0  0  0  0  0  0
  -23.4728  -32.7858   23.1815 O   0  0  0  0  0  0  0  0  0  0  0  0
  -25.5735  -29.3936   25.7506 O   0  0  0  0  0  0  0  0  0  0  0  0
  -30.0149  -16.7789   19.1617 O   0  0  0  0  0  0  0  0  0  0  0  0
  -30.2230  -24.4349   20.4102 O   0  0  0  0  0  0  0  0  0  0  0  0
  -21.8305   -6.8377   21.2250 O   0  0  0  0  0  0  0  0  0  0  0  0
  -28.1891  -26.3909   20.2285 O   0  0  0  0  0  0  0  0  0  1  0  0
  -22.4220   -3.3116   25.4227 F   0  0  0  0  0  0  0  0  0  0  0  0
  -23.0547   -4.3866   20.8566 F   0  0  0  0  0  0  0  0  0  0  0  0
  -30.9552  -19.6680   20.3198 F   0  0  0  0  0  0  0  0  0  0  0  0
  -28.9541  -18.6737   23.4689 S   0  0  0  0  0  0  0  0  0  0  0  0
  1  2  1  0  0  0  0
  1  5  2  0  0  0  0
  2  6  2  0  0  0  0
  3  8  2  0  0  0  0
  3 16  1  0  0  0  0
  4  9  1  0  0  0  0
  4 16  2  0  0  0  0
  5 18  1  0  0  0  0
  6 20  1  0  0  0  0
  7 10  2  0  0  0  0
  7 19  1  0  0  0  0
  8 23  1  0  0  0  0
  9 23  2  0  0  0  0
 10 24  1  0  0  0  0
 11 12  2  0  0  0  0
 11 25  1  0  0  0  0
 12 26  1  0  0  0  0
 13 21  1  0  0  0  0
 13 24  2  0  0  0  0
 14 26  2  0  0  0  0
 14 27  1  0  0  0  0
 15 22  2  0  0  0  0
 15 84  1  0  0  0  0
 16 29  1  0  0  0  0
 17 29  1  0  0  0  0
 17 31  2  0  0  0  0
 17 33  1  0  0  0  0
 18 20  2  0  0  0  0
 18 40  1  0  0  0  0
 19 21  2  0  0  0  0
 19 41  1  0  0  0  0
 20 49  1  0  0  0  0
 21 42  1  0  0  0  0
 22 28  1  0  0  0  0
 22 67  1  0  0  0  0
 23 79  1  0  0  0  0
 24 80  1  0  0  0  0
 25 27  2  0  0  0  0
 25 79  1  0  0  0  0
 26 81  1  0  0  0  0
 27 82  1  0  0  0  0
 28 30  2  0  0  0  0
 28 83  1  0  0  0  0
 29 61  2  0  0  0  0
 30 57  1  0  0  0  0
 30 84  1  0  0  0  0
 31 62  1  0  0  0  0
 31 65  1  0  0  0  0
 32 34  2  0  0  0  0
 32 80  1  0  0  0  0
 33 66  1  0  0  0  0
 33 72  2  0  0  0  0
 34 35  1  0  0  0  0
 34 78  1  0  0  0  0
 35 67  1  0  0  0  0
 35 73  2  0  0  0  0
 36 50  1  0  0  0  0
 36 68  1  0  0  0  0
 36 74  2  0  0  0  0
 37 58  1  0  0  0  0
 37 63  1  0  0  0  0
 37 75  2  0  0  0  0
 38 59  1  0  0  0  0
 38 69  1  0  0  0  0
 38 76  2  0  0  0  0
 39 64  1  0  0  0  0
 39 70  1  0  0  0  0
 39 77  2  0  0  0  0
 40 43  1  0  0  0  0
 41 50  1  0  0  0  0
 42 63  1  0  0  0  0
 43 45  1  0  0  0  0
 44 46  1  0  0  0  0
 44 47  1  0  0  0  0
 45 49  1  0  0  0  0
 46 51  1  0  0  0  0
 47 64  1  0  0  0  0
 48 51  1  0  0  0  0
 48 64  1  0  0  0  0
 49 68  1  0  0  0  0
 50 63  1  0  0  0  0
 51 62  1  0  0  0  0
 52 59  1  0  0  0  0
 53 60  1  0  0  0  0
 54 60  1  0  0  0  0
 55 60  1  0  0  0  0
 56 71  1  0  0  0  0
 57 70  1  0  0  0  0
 58 60  1  0  0  0  0
 58 69  1  0  0  0  0
 59 71  1  0  0  0  0
 61 62  1  0  0  0  0
M  CHG  1  71   1
M  ISO  4  32 101  39 100  70 100  80 101
M  END
> <Batch ID>
0181

> <Smiles>
CNC(C)C(=O)NC(C(=O)N1Cc2cc([101O:1][101CH2:1]C(=O)C(=O)Nc3csc(C[100NH:0][100C:0](=O)N4CCCC(n5nc(-c6ccc(Oc7ccc(F)cc7F)cc6)c(C(N)=O)c5N)C4)c3F)ccc2CC1C(=O)NC1CCCc2ccccc21)C(C)(C)C

> <Shape>
0.287

> <Color>
0.126

> <Negative vol penalty>
0.000

$$$$

  -OEChem-04052304533D

 84 92  0     1  0  0  0  0  0999 V2000
  -26.9350  -34.9017   24.4969 C   0  0  0  0  0  0  0  0  0  0  0  0
  -27.3081  -33.6348   24.0597 C   0  0  0  0  0  0  0  0  0  0  0  0
  -24.6588  -13.5350   21.6349 C   0  0  0  0  0  0  0  0  0  0  0  0
  -25.7513  -13.6922   19.4857 C   0  0  0  0  0  0  0  0  0  0  0  0
  -25.6388  -35.1245   24.9596 C   0  0  0  0  0  0  0  0  0  0  0  0
  -26.3855  -32.5896   24.0859 C   0  0  0  0  0  0  0  0  0  0  0  0
  -26.4362  -29.8462   19.8296 C   0  0  0  0  0  0  0  0  0  0  0  0
  -24.0023  -12.3776   21.2165 C   0  0  0  0  0  0  0  0  0  0  0  0
  -25.0948  -12.5347   19.0674 C   0  0  0  0  0  0  0  0  0  0  0  0
  -27.4687  -28.9213   19.6805 C   0  0  0  0  0  0  0  0  0  0  0  0
  -22.3150   -9.1797   20.8401 C   0  0  0  0  0  0  0  0  0  0  0  0
  -22.2752   -8.1013   21.7238 C   0  0  0  0  0  0  0  0  0  0  0  0
  -25.9760  -27.1538   20.3636 C   0  0  0  0  0  0  0  0  0  0  0  0
  -24.6897   -8.0170   21.7298 C   0  0  0  0  0  0  0  0  0  0  0  0
  -25.5332  -14.1924   20.7694 C   0  0  0  0  0  0  0  0  0  0  0  0
  -27.4615  -15.4723   21.8423 C   0  0  0  0  0  0  0  0  0  0  0  0
  -24.6969  -34.0838   24.9824 C   0  0  0  0  0  0  0  0  0  0  0  0
  -25.1666  -29.4327   20.2581 C   0  0  0  0  0  0  0  0  0  0  0  0
  -25.0758  -32.7984   24.5506 C   0  0  0  0  0  0  0  0  0  0  0  0
  -24.9284  -28.0750   20.5149 C   0  0  0  0  0  0  0  0  0  0  0  0
  -24.2203  -11.8774   19.9328 C   0  0  0  0  0  0  0  0  0  0  0  0
  -27.2395  -27.5753   19.9503 C   0  0  0  0  0  0  0  0  0  0  0  0
  -23.5422   -9.6767   20.4011 C   0  0  0  0  0  0  0  0  0  0  0  0
  -23.4625   -7.5200   22.1687 C   0  0  0  0  0  0  0  0  0  0  0  0
  -24.7295   -9.0954   20.8460 C   0  0  0  0  0  0  0  0  0  0  0  0
  -26.2112  -15.3883   21.2008 C   0  0  0  0  0  0  0  0  0  0  0  0
  -28.6162  -21.7353   18.3129 C   0  0  0  0  0  0  0  0  0  0  0  0
  -27.6568  -16.8175   22.0391 C   0  0  0  0  0  0  0  0  0  0  0  0
  -29.5233  -21.6823   17.2754 C   0  0  0  0  0  0  0  0  0  0  0  0
  -29.8676  -23.4445   18.8811 C   0  0  0  0  0  0  0  0  0  0  0  0
  -28.3656  -14.4277   22.2260 C   0  0  0  0  0  0  0  0  0  0  0  0
  -30.3650  -24.6144   19.6595 C   0  0  0  0  0  0  0  0  0  0  0  0
  -23.3312  -30.0681   22.7743 C   0  0  0  0  0  0  0  0  0  0  0  0
  -21.1630  -28.2808   21.1536 C   0  0  0  0  0  0  0  0  0  0  0  0
  -20.5657  -25.8624   18.8209 C   0  0  0  0  0  0  0  0  0  0  0  0
  -25.1041  -21.5135   19.0441 C   0  0  0  0  0  0  0  0  0  0  0  0
  -23.3215  -34.3615   25.5355 C   0  0  0  0  0  0  0  0  0  0  0  0
  -24.0562  -30.4388   20.3883 C   0  0  0  0  0  0  0  0  0  0  0  0
  -23.5778  -27.5768   20.9580 C   0  0  0  0  0  0  0  0  0  0  0  0
  -22.2942  -33.2899   25.1798 C   0  0  0  0  0  0  0  0  0  0  0  0
  -25.2675  -20.9042   22.6915 C   0  0  0  0  0  0  0  0  0  0  0  0
  -22.8684  -31.8979   25.4237 C   0  0  0  0  0  0  0  0  0  0  0  0
  -25.5645  -19.4074   22.7662 C   0  0  0  0  0  0  0  0  0  0  0  0
  -24.4995  -21.2675   21.4243 C   0  0  0  0  0  0  0  0  0  0  0  0
  -25.4549  -19.3159   20.2442 C   0  0  0  0  0  0  0  0  0  0  0  0
  -24.0961  -31.6450   24.5404 C   0  0  1  0  0  0  0  0  0  0  0  0
  -22.9425  -29.9817   21.3254 C   0  0  1  0  0  0  0  0  0  0  0  0
  -26.2685  -18.9233   21.4866 C   0  0  2  0  0  0  0  0  0  0  0  0
  -18.6939  -24.5878   17.7397 C   0  0  0  0  0  0  0  0  0  0  0  0
  -20.8717  -26.5792   23.6695 C   0  0  0  0  0  0  0  0  0  0  0  0
  -19.7650  -24.8232   22.2695 C   0  0  0  0  0  0  0  0  0  0  0  0
  -18.7220  -27.0782   22.4929 C   0  0  0  0  0  0  0  0  0  0  0  0
  -26.1785  -22.1912   16.9308 C   0  0  0  0  0  0  0  0  0  0  0  0
  -21.2570  -26.8974   16.1358 C   0  0  0  0  0  0  0  0  0  0  0  0
  -27.4781  -20.8164   18.5140 C   0  0  0  0  0  0  0  0  0  0  0  0
  -28.2159  -25.5249   20.6564 C   0  0  0  0  0  0  0  0  0  1  0  0
  -29.6358  -25.0435   20.9305 C   0  0  2  0  0  0  0  0  0  0  0  0
  -20.8145  -26.8130   21.0988 C   0  0  1  0  0  0  0  0  0  0  0  0
  -19.5985  -25.8071   17.6522 C   0  0  2  0  0  0  0  0  0  0  0  0
  -20.0694  -26.3327   22.3762 C   0  0  0  0  0  0  0  0  0  0  0  0
  -25.6516  -16.5849   21.0033 N   0  0  0  0  0  0  0  0  0  0  0  0
  -28.8123  -22.7449   19.2349 N   0  0  0  0  0  0  0  0  0  0  0  0
  -26.5544  -17.4335   21.5238 N   0  0  0  0  0  0  0  0  0  0  0  0
  -22.5261  -28.6001   21.0767 N   0  0  0  0  0  0  0  0  0  0  0  0
  -25.1681  -20.7581   20.2265 N   0  0  0  0  0  0  0  0  0  0  0  0
  -28.6622  -17.5218   22.6009 N   0  0  0  0  0  0  0  0  0  0  0  0
  -28.0097  -13.1008   21.9489 N   0  0  0  0  0  0  0  0  0  0  0  0
  -23.6895  -31.3376   23.1859 N   0  0  0  0  0  0  0  0  0  0  0  0
  -20.0667  -26.6169   19.8616 N   0  0  0  0  0  0  0  0  0  0  0  0
  -26.1931  -21.4181   18.1645 N   0  0  0  0  0  0  0  0  0  0  0  0
  -20.3455  -25.7467   16.3640 N   0  3  0  0  0  0  0  0  0  0  0  0
  -29.4492  -14.6630   22.8125 O   0  0  0  0  0  0  0  0  0  0  0  0
  -31.3643  -25.2096   19.2592 O   0  0  0  0  0  0  0  0  0  0  0  0
  -23.3064  -29.0581   23.4677 O   0  0  0  0  0  0  0  0  0  0  0  0
  -20.2586  -29.1138   21.2535 O   0  0  0  0  0  0  0  0  0  0  0  0
  -21.6534  -25.2902   18.8130 O   0  0  0  0  0  0  0  0  0  0  0  0
  -24.1335  -22.2396   18.7937 O   0  0  0  0  0  0  0  0  0  0  0  0
  -30.3569  -26.1199   21.5207 O   0  0  0  0  0  0  0  0  0  0  0  0
  -23.5801  -10.7479   19.5243 O   0  0  0  0  0  0  0  0  0  0  0  0
  -28.2458  -26.6706   19.8061 O   0  0  0  0  0  0  0  0  0  1  0  0
  -23.4241   -6.4854   23.0186 F   0  0  0  0  0  0  0  0  0  0  0  0
  -25.9115   -9.5693   20.4287 F   0  0  0  0  0  0  0  0  0  0  0  0
  -29.5124  -20.7880   16.2837 F   0  0  0  0  0  0  0  0  0  0  0  0
  -30.6716  -22.9440   17.4501 S   0  0  0  0  0  0  0  0  0  0  0  0
  1  2  1  0  0  0  0
  1  5  2  0  0  0  0
  2  6  2  0  0  0  0
  3  8  2  0  0  0  0
  3 15  1  0  0  0  0
  4  9  1  0  0  0  0
  4 15  2  0  0  0  0
  5 17  1  0  0  0  0
  6 19  1  0  0  0  0
  7 10  2  0  0  0  0
  7 18  1  0  0  0  0
  8 21  1  0  0  0  0
  9 21  2  0  0  0  0
 10 22  1  0  0  0  0
 11 12  2  0  0  0  0
 11 23  1  0  0  0  0
 12 24  1  0  0  0  0
 13 20  1  0  0  0  0
 13 22  2  0  0  0  0
 14 24  2  0  0  0  0
 14 25  1  0  0  0  0
 15 26  1  0  0  0  0
 16 26  1  0  0  0  0
 16 28  2  0  0  0  0
 16 31  1  0  0  0  0
 17 19  2  0  0  0  0
 17 37  1  0  0  0  0
 18 20  2  0  0  0  0
 18 38  1  0  0  0  0
 19 46  1  0  0  0  0
 20 39  1  0  0  0  0
 21 79  1  0  0  0  0
 22 80  1  0  0  0  0
 23 25  2  0  0  0  0
 23 79  1  0  0  0  0
 24 81  1  0  0  0  0
 25 82  1  0  0  0  0
 26 61  2  0  0  0  0
 27 29  2  0  0  0  0
 27 55  1  0  0  0  0
 27 62  1  0  0  0  0
 28 63  1  0  0  0  0
 28 66  1  0  0  0  0
 29 83  1  0  0  0  0
 29 84  1  0  0  0  0
 30 32  1  0  0  0  0
 30 62  2  0  0  0  0
 30 84  1  0  0  0  0
 31 67  1  0  0  0  0
 31 72  2  0  0  0  0
 32 57  1  0  0  0  0
 32 73  2  0  0  0  0
 33 47  1  0  0  0  0
 33 68  1  0  0  0  0
 33 74  2  0  0  0  0
 34 58  1  0  0  0  0
 34 64  1  0  0  0  0
 34 75  2  0  0  0  0
 35 59  1  0  0  0  0
 35 69  1  0  0  0  0
 35 76  2  0  0  0  0
 36 65  1  0  0  0  0
 36 70  1  0  0  0  0
 36 77  2  0  0  0  0
 37 40  1  0  0  0  0
 38 47  1  0  0  0  0
 39 64  1  0  0  0  0
 40 42  1  0  0  0  0
 41 43  1  0  0  0  0
 41 44  1  0  0  0  0
 42 46  1  0  0  0  0
 43 48  1  0  0  0  0
 44 65  1  0  0  0  0
 45 48  1  0  0  0  0
 45 65  1  0  0  0  0
 46 68  1  0  0  0  0
 47 64  1  0  0  0  0
 48 63  1  0  0  0  0
 49 59  1  0  0  0  0
 50 60  1  0  0  0  0
 51 60  1  0  0  0  0
 52 60  1  0  0  0  0
 53 70  1  0  0  0  0
 54 71  1  0  0  0  0
 55 70  1  0  0  0  0
 56 57  1  0  0  0  0
 56 80  1  0  0  0  0
 57 78  1  0  0  0  0
 58 60  1  0  0  0  0
 58 69  1  0  0  0  0
 59 71  1  0  0  0  0
 61 63  1  0  0  0  0
M  CHG  1  71   1
M  ISO  4  36 100  56 101  70 100  80 101
M  END
> <Batch ID>
0181

> <Smiles>
CNC(C)C(=O)NC(C(=O)N1Cc2cc([101O:1][101CH2:1]C(O)C(=O)c3nc(C[100N:0](C)[100C:0](=O)N4CCCC(n5nc(-c6ccc(Oc7ccc(F)cc7F)cc6)c(C(N)=O)c5N)C4)c(F)s3)ccc2CC1C(=O)NC1CCCc2ccccc21)C(C)(C)C

> <Shape>
0.281

> <Color>
0.112

> <Negative vol penalty>
0.000

$$$$

  -OEChem-04052304533D

 86 94  0     1  0  0  0  0  0999 V2000
  -17.9525  -22.2949   24.4853 C   0  0  0  0  0  0  0  0  0  0  0  0
  -19.3220  -22.0652   24.5691 C   0  0  0  0  0  0  0  0  0  0  0  0
  -24.3467  -13.7527   21.9955 C   0  0  0  0  0  0  0  0  0  0  0  0
  -26.2380  -13.7691   20.4922 C   0  0  0  0  0  0  0  0  0  0  0  0
  -17.4595  -23.2447   23.5915 C   0  0  0  0  0  0  0  0  0  0  0  0
  -20.1994  -22.7844   23.7584 C   0  0  0  0  0  0  0  0  0  0  0  0
  -26.8083  -25.5482   23.7603 C   0  0  0  0  0  0  0  0  0  0  0  0
  -23.8440  -12.6227   21.3507 C   0  0  0  0  0  0  0  0  0  0  0  0
  -25.7353  -12.6390   19.8474 C   0  0  0  0  0  0  0  0  0  0  0  0
  -27.9750  -25.5505   22.9971 C   0  0  0  0  0  0  0  0  0  0  0  0
  -24.4343   -9.2934   21.3370 C   0  0  0  0  0  0  0  0  0  0  0  0
  -23.9619   -8.2495   22.1325 C   0  0  0  0  0  0  0  0  0  0  0  0
  -27.0158  -27.2225   21.5468 C   0  0  0  0  0  0  0  0  0  0  0  0
  -21.7760   -8.4732   21.1281 C   0  0  0  0  0  0  0  0  0  0  0  0
  -25.5437  -14.3260   21.5662 C   0  0  0  0  0  0  0  0  0  0  0  0
  -26.9390  -15.5253   23.3333 C   0  0  0  0  0  0  0  0  0  0  0  0
  -18.3320  -23.9828   22.7763 C   0  0  0  0  0  0  0  0  0  0  0  0
  -25.7306  -26.3765   23.4155 C   0  0  0  0  0  0  0  0  0  0  0  0
  -19.7176  -23.7440   22.8519 C   0  0  0  0  0  0  0  0  0  0  0  0
  -25.8375  -27.2307   22.3087 C   0  0  0  0  0  0  0  0  0  0  0  0
  -24.5382  -12.0658   20.2767 C   0  0  0  0  0  0  0  0  0  0  0  0
  -28.0779  -26.3856   21.8884 C   0  0  0  0  0  0  0  0  0  0  0  0
  -23.5775   -9.9272   20.4371 C   0  0  0  0  0  0  0  0  0  0  0  0
  -22.6328   -7.8394   22.0280 C   0  0  0  0  0  0  0  0  0  0  0  0
  -22.2484   -9.5171   20.3326 C   0  0  0  0  0  0  0  0  0  0  0  0
  -26.0633  -15.4937   22.2315 C   0  0  0  0  0  0  0  0  0  0  0  0
  -30.7437  -21.9571   17.3016 C   0  0  0  0  0  0  0  0  0  0  0  0
  -30.0740  -23.1192   17.6225 C   0  0  0  0  0  0  0  0  0  0  0  0
  -27.1276  -16.8625   23.5838 C   0  0  0  0  0  0  0  0  0  0  0  0
  -28.8069  -21.6973   18.7101 C   0  0  0  0  0  0  0  0  0  0  0  0
  -27.5293  -14.4427   24.0649 C   0  0  0  0  0  0  0  0  0  0  0  0
  -22.7129  -25.8857   22.5457 C   0  0  0  0  0  0  0  0  0  0  0  0
  -30.1403  -25.9716   18.9409 C   0  0  0  0  0  0  0  0  0  0  0  0
  -22.5397  -29.1190   22.7414 C   0  0  0  0  0  0  0  0  0  0  0  0
  -24.1667  -32.1178   22.6592 C   0  0  0  0  0  0  0  0  0  0  0  0
  -26.7510  -21.7489   20.1651 C   0  0  0  0  0  0  0  0  0  0  0  0
  -17.7489  -24.9652   21.7917 C   0  0  0  0  0  0  0  0  0  0  0  0
  -24.4892  -26.3818   24.2647 C   0  0  0  0  0  0  0  0  0  0  0  0
  -24.7168  -28.1539   21.9083 C   0  0  0  0  0  0  0  0  0  0  0  0
  -18.7733  -25.9511   21.2357 C   0  0  0  0  0  0  0  0  0  0  0  0
  -24.9340  -21.0981   23.1571 C   0  0  0  0  0  0  0  0  0  0  0  0
  -20.0427  -25.2194   20.8114 C   0  0  0  0  0  0  0  0  0  0  0  0
  -25.1022  -19.5910   23.3629 C   0  0  0  0  0  0  0  0  0  0  0  0
  -24.8015  -21.4573   21.6782 C   0  0  0  0  0  0  0  0  0  0  0  0
  -26.0379  -19.4305   21.0208 C   0  0  0  0  0  0  0  0  0  0  0  0
  -20.7030  -24.5218   22.0068 C   0  0  1  0  0  0  0  0  0  0  0  0
  -23.2584  -26.8906   23.5206 C   0  0  1  0  0  0  0  0  0  0  0  0
  -26.2404  -19.0266   22.4903 C   0  0  2  0  0  0  0  0  0  0  0  0
  -31.9502  -21.7454   16.4755 C   0  0  0  0  0  0  0  0  0  0  0  0
  -23.7529  -34.5883   22.8104 C   0  0  0  0  0  0  0  0  0  0  0  0
  -21.4459  -29.1077   19.8930 C   0  0  0  0  0  0  0  0  0  0  0  0
  -21.9486  -31.5570   19.7645 C   0  0  0  0  0  0  0  0  0  0  0  0
  -20.3079  -30.7085   21.4411 C   0  0  0  0  0  0  0  0  0  0  0  0
  -25.8735  -32.3740   25.0633 C   0  0  0  0  0  0  0  0  0  0  0  0
  -29.0799  -26.6932   19.7537 C   0  0  0  0  0  0  0  0  0  1  0  0
  -29.7567  -25.5918   17.5172 C   0  0  1  0  0  0  0  0  0  0  0  0
  -22.7728  -30.2620   21.7832 C   0  0  1  0  0  0  0  0  0  0  0  0
  -24.1034  -33.3237   23.5790 C   0  0  2  0  0  0  0  0  0  0  0  0
  -21.6393  -30.3901   20.7266 C   0  0  0  0  0  0  0  0  0  0  0  0
  -30.0960  -26.6748   16.5122 C   0  0  0  0  0  0  0  0  0  0  0  0
  -25.7192  -16.7140   21.8112 N   0  0  0  0  0  0  0  0  0  0  0  0
  -28.9628  -22.9722   18.4297 N   0  0  0  0  0  0  0  0  0  0  0  0
  -26.3821  -17.5248   22.6533 N   0  0  0  0  0  0  0  0  0  0  0  0
  -23.5211  -28.1180   22.7665 N   0  0  0  0  0  0  0  0  0  0  0  0
  -25.9166  -20.8929   20.9148 N   0  0  0  0  0  0  0  0  0  0  0  0
  -27.8566  -17.5247   24.5071 N   0  0  0  0  0  0  0  0  0  0  0  0
  -27.2294  -13.1305   23.6744 N   0  0  0  0  0  0  0  0  0  0  0  0
  -30.4580  -24.3752   17.1811 N   0  0  0  0  0  0  0  0  0  0  0  0
  -27.7972  -21.1031   19.5070 N   0  0  0  0  0  0  0  0  0  0  0  0
  -21.4202  -25.4812   22.8189 N   0  0  0  0  0  0  0  0  0  0  0  0
  -22.9603  -31.4524   22.6056 N   0  0  0  0  0  0  0  0  0  0  0  0
  -25.4167  -33.5315   24.2519 N   0  3  0  0  0  0  0  0  0  0  0  0
  -28.2869  -14.6332   25.0463 O   0  0  0  0  0  0  0  0  0  0  0  0
  -23.4126  -25.5066   21.6138 O   0  0  0  0  0  0  0  0  0  0  0  0
  -31.2455  -25.7092   19.4153 O   0  0  0  0  0  0  0  0  0  0  0  0
  -21.5278  -29.1180   23.4468 O   0  0  0  0  0  0  0  0  0  0  0  0
  -25.1836  -31.8002   22.0463 O   0  0  0  0  0  0  0  0  0  0  0  0
  -26.5684  -22.9685   20.1329 O   0  0  0  0  0  0  0  0  0  0  0  0
  -24.0481  -10.9629   19.6474 O   0  0  0  0  0  0  0  0  0  0  0  0
  -29.2153  -26.3893   21.1413 O   0  0  0  0  0  0  0  0  0  1  0  0
  -22.1798   -6.8359   22.7909 F   0  0  0  0  0  0  0  0  0  0  0  0
  -21.4208  -10.1214   19.4690 F   0  0  0  0  0  0  0  0  0  0  0  0
  -29.4511  -27.8258   16.8102 F   0  0  0  0  0  0  0  0  0  0  0  0
  -29.7522  -26.3266   15.2538 F   0  0  0  0  0  0  0  0  0  0  0  0
  -31.4206  -26.9449   16.5205 F   0  0  0  0  0  0  0  0  0  0  0  0
  -29.9604  -20.6200   18.0365 S   0  0  0  0  0  0  0  0  0  0  0  0
  1  2  1  0  0  0  0
  1  5  2  0  0  0  0
  2  6  2  0  0  0  0
  3  8  2  0  0  0  0
  3 15  1  0  0  0  0
  4  9  1  0  0  0  0
  4 15  2  0  0  0  0
  5 17  1  0  0  0  0
  6 19  1  0  0  0  0
  7 10  2  0  0  0  0
  7 18  1  0  0  0  0
  8 21  1  0  0  0  0
  9 21  2  0  0  0  0
 10 22  1  0  0  0  0
 11 12  2  0  0  0  0
 11 23  1  0  0  0  0
 12 24  1  0  0  0  0
 13 20  1  0  0  0  0
 13 22  2  0  0  0  0
 14 24  2  0  0  0  0
 14 25  1  0  0  0  0
 15 26  1  0  0  0  0
 16 26  1  0  0  0  0
 16 29  2  0  0  0  0
 16 31  1  0  0  0  0
 17 19  2  0  0  0  0
 17 37  1  0  0  0  0
 18 20  2  0  0  0  0
 18 38  1  0  0  0  0
 19 46  1  0  0  0  0
 20 39  1  0  0  0  0
 21 79  1  0  0  0  0
 22 80  1  0  0  0  0
 23 25  2  0  0  0  0
 23 79  1  0  0  0  0
 24 81  1  0  0  0  0
 25 82  1  0  0  0  0
 26 61  2  0  0  0  0
 27 28  2  0  0  0  0
 27 49  1  0  0  0  0
 27 86  1  0  0  0  0
 28 62  1  0  0  0  0
 28 68  1  0  0  0  0
 29 63  1  0  0  0  0
 29 66  1  0  0  0  0
 30 62  2  0  0  0  0
 30 69  1  0  0  0  0
 30 86  1  0  0  0  0
 31 67  1  0  0  0  0
 31 73  2  0  0  0  0
 32 47  1  0  0  0  0
 32 70  1  0  0  0  0
 32 74  2  0  0  0  0
 33 55  1  0  0  0  0
 33 56  1  0  0  0  0
 33 75  2  0  0  0  0
 34 57  1  0  0  0  0
 34 64  1  0  0  0  0
 34 76  2  0  0  0  0
 35 58  1  0  0  0  0
 35 71  1  0  0  0  0
 35 77  2  0  0  0  0
 36 65  1  0  0  0  0
 36 69  1  0  0  0  0
 36 78  2  0  0  0  0
 37 40  1  0  0  0  0
 38 47  1  0  0  0  0
 39 64  1  0  0  0  0
 40 42  1  0  0  0  0
 41 43  1  0  0  0  0
 41 44  1  0  0  0  0
 42 46  1  0  0  0  0
 43 48  1  0  0  0  0
 44 65  1  0  0  0  0
 45 48  1  0  0  0  0
 45 65  1  0  0  0  0
 46 70  1  0  0  0  0
 47 64  1  0  0  0  0
 48 63  1  0  0  0  0
 50 58  1  0  0  0  0
 51 59  1  0  0  0  0
 52 59  1  0  0  0  0
 53 59  1  0  0  0  0
 54 72  1  0  0  0  0
 55 80  1  0  0  0  0
 56 60  1  0  0  0  0
 56 68  1  0  0  0  0
 57 59  1  0  0  0  0
 57 71  1  0  0  0  0
 58 72  1  0  0  0  0
 60 83  1  0  0  0  0
 60 84  1  0  0  0  0
 60 85  1  0  0  0  0
 61 63  1  0  0  0  0
M  CHG  1  72   1
M  ISO  4  36 100  55 101  69 100  80 101
M  END
> <Batch ID>
0181

> <Smiles>
CNC(C)C(=O)NC(C(=O)N1Cc2cc([101O:1][101CH2:1]C(=O)C(Nc3nc([100NH:0][100C:0](=O)N4CCCC(n5nc(-c6ccc(Oc7ccc(F)cc7F)cc6)c(C(N)=O)c5N)C4)sc3C)C(F)(F)F)ccc2CC1C(=O)NC1CCCc2ccccc21)C(C)(C)C

> <Shape>
0.228

> <Color>
0.077

> <Negative vol penalty>
0.000

$$$$

  -OEChem-04052304533D

 86 94  0     1  0  0  0  0  0999 V2000
  -21.3790  -30.4827   19.3105 C   0  0  0  0  0  0  0  0  0  0  0  0
  -22.0835  -29.7452   18.3643 C   0  0  0  0  0  0  0  0  0  0  0  0
  -19.7131  -24.2201   20.5933 C   0  0  0  0  0  0  0  0  0  0  0  0
  -21.5815  -24.1310   22.1224 C   0  0  0  0  0  0  0  0  0  0  0  0
  -22.0095  -30.8905   20.4853 C   0  0  0  0  0  0  0  0  0  0  0  0
  -23.4192  -29.4159   18.5919 C   0  0  0  0  0  0  0  0  0  0  0  0
  -26.8998  -22.4228   18.6902 C   0  0  0  0  0  0  0  0  0  0  0  0
  -19.2962  -25.4185   21.1725 C   0  0  0  0  0  0  0  0  0  0  0  0
  -21.1646  -25.3295   22.7016 C   0  0  0  0  0  0  0  0  0  0  0  0
  -27.5974  -21.2313   18.8896 C   0  0  0  0  0  0  0  0  0  0  0  0
  -20.3905  -28.1790   24.8208 C   0  0  0  0  0  0  0  0  0  0  0  0
  -20.3856  -28.2589   26.2134 C   0  0  0  0  0  0  0  0  0  0  0  0
  -29.1378  -22.3678   20.3672 C   0  0  0  0  0  0  0  0  0  0  0  0
  -18.8178  -26.4234   26.3132 C   0  0  0  0  0  0  0  0  0  0  0  0
  -26.5080  -15.6301   21.1865 C   0  0  0  0  0  0  0  0  0  0  0  0
  -20.8557  -23.5763   21.0683 C   0  0  0  0  0  0  0  0  0  0  0  0
  -22.1682  -22.1796   19.3847 C   0  0  0  0  0  0  0  0  0  0  0  0
  -23.3508  -30.5577   20.7318 C   0  0  0  0  0  0  0  0  0  0  0  0
  -27.3099  -23.5895   19.3415 C   0  0  0  0  0  0  0  0  0  0  0  0
  -24.0686  -29.8207   19.7705 C   0  0  0  0  0  0  0  0  0  0  0  0
  -28.4355  -23.5616   20.1812 C   0  0  0  0  0  0  0  0  0  0  0  0
  -20.0219  -25.9733   22.2266 C   0  0  0  0  0  0  0  0  0  0  0  0
  -28.7137  -21.2040   19.7258 C   0  0  0  0  0  0  0  0  0  0  0  0
  -19.6089  -27.2214   24.1744 C   0  0  0  0  0  0  0  0  0  0  0  0
  -19.5993  -27.3811   26.9595 C   0  0  0  0  0  0  0  0  0  0  0  0
  -18.8226  -26.3436   24.9206 C   0  0  0  0  0  0  0  0  0  0  0  0
  -21.2866  -22.3380   20.4708 C   0  0  0  0  0  0  0  0  0  0  0  0
  -27.5419  -14.7596   20.9081 C   0  0  0  0  0  0  0  0  0  0  0  0
  -25.2368  -15.1129   21.0424 C   0  0  0  0  0  0  0  0  0  0  0  0
  -22.2514  -20.8204   19.2053 C   0  0  0  0  0  0  0  0  0  0  0  0
  -26.0744  -13.0950   20.4150 C   0  0  0  0  0  0  0  0  0  0  0  0
  -22.8510  -23.1724   18.6076 C   0  0  0  0  0  0  0  0  0  0  0  0
  -26.7073  -27.2410   19.9574 C   0  0  0  0  0  0  0  0  0  0  0  0
  -29.7675  -17.6761   19.5301 C   0  0  0  0  0  0  0  0  0  0  0  0
  -27.5066  -26.0035   22.6482 C   0  0  0  0  0  0  0  0  0  0  0  0
  -27.4683  -24.1880   25.2183 C   0  0  0  0  0  0  0  0  0  0  0  0
  -22.7859  -15.6631   21.2348 C   0  0  0  0  0  0  0  0  0  0  0  0
  -24.0034  -31.0613   21.9948 C   0  0  0  0  0  0  0  0  0  0  0  0
  -26.6255  -24.9089   19.1080 C   0  0  0  0  0  0  0  0  0  0  0  0
  -28.8610  -24.8484   20.8338 C   0  0  0  0  0  0  0  0  0  0  0  0
  -25.3123  -30.3506   22.3292 C   0  0  0  0  0  0  0  0  0  0  0  0
  -19.5115  -17.0609   21.2004 C   0  0  0  0  0  0  0  0  0  0  0  0
  -26.1954  -30.2473   21.0898 C   0  0  0  0  0  0  0  0  0  0  0  0
  -19.7539  -18.5454   20.9182 C   0  0  0  0  0  0  0  0  0  0  0  0
  -20.5985  -16.4689   22.0957 C   0  0  0  0  0  0  0  0  0  0  0  0
  -22.2161  -18.1688   21.3455 C   0  0  0  0  0  0  0  0  0  0  0  0
  -25.5117  -29.4227   19.9924 C   0  0  1  0  0  0  0  0  0  0  0  0
  -26.5906  -25.8008   20.3620 C   0  0  1  0  0  0  0  0  0  0  0  0
  -21.1821  -18.7935   20.3946 C   0  0  2  0  0  0  0  0  0  0  0  0
  -29.7756  -14.4044   22.0381 C   0  0  0  0  0  0  0  0  0  0  0  0
  -30.0704  -16.1685   17.5222 C   0  0  0  0  0  0  0  0  0  0  0  0
  -27.5070  -23.1000   27.4793 C   0  0  0  0  0  0  0  0  0  0  0  0
  -30.3336  -27.0892   22.2834 C   0  0  0  0  0  0  0  0  0  0  0  0
  -30.8179  -26.4241   24.6480 C   0  0  0  0  0  0  0  0  0  0  0  0
  -29.0543  -28.1217   24.1680 C   0  0  0  0  0  0  0  0  0  0  0  0
  -24.6368  -24.8818   25.7289 C   0  0  0  0  0  0  0  0  0  0  0  0
  -28.8964  -18.8833   19.2371 C   0  0  0  0  0  0  0  0  0  1  0  0
  -28.9709  -15.2333   21.0402 C   0  0  1  0  0  0  0  0  0  0  0  0
  -29.3665  -16.3752   18.8543 C   0  0  1  0  0  0  0  0  0  0  0  0
  -28.6195  -25.6929   23.6168 C   0  0  1  0  0  0  0  0  0  0  0  0
  -26.8625  -24.1687   26.6101 C   0  0  2  0  0  0  0  0  0  0  0  0
  -29.6972  -26.8127   23.6602 C   0  0  0  0  0  0  0  0  0  0  0  0
  -20.8414  -21.1725   20.9477 N   0  0  0  0  0  0  0  0  0  0  0  0
  -27.3605  -13.4807   20.5185 N   0  0  0  0  0  0  0  0  0  0  0  0
  -24.9825  -13.8452   20.6568 N   0  0  0  0  0  0  0  0  0  0  0  0
  -21.4456  -20.2688   20.1575 N   0  0  0  0  0  0  0  0  0  0  0  0
  -27.6809  -25.5761   21.3263 N   0  0  0  0  0  0  0  0  0  0  0  0
  -21.9241  -16.7392   21.5347 N   0  0  0  0  0  0  0  0  0  0  0  0
  -22.9343  -20.0553   18.3275 N   0  0  0  0  0  0  0  0  0  0  0  0
  -25.8465  -11.7617   20.0113 N   0  0  0  0  0  0  0  0  0  0  0  0
  -22.6535  -24.5228   18.9265 N   0  0  0  0  0  0  0  0  0  0  0  0
  -24.1434  -15.9720   21.3147 N   0  0  0  0  0  0  0  0  0  0  0  0
  -25.6076  -28.0093   20.2884 N   0  0  0  0  0  0  0  0  0  0  0  0
  -27.9806  -25.4284   24.9014 N   0  0  0  0  0  0  0  0  0  0  0  0
  -25.3997  -23.8940   26.5346 N   0  3  0  0  0  0  0  0  0  0  0  0
  -29.6986  -15.2297   19.7439 N   0  3  0  0  0  0  0  0  0  0  0  0
  -23.6009  -22.8715   17.6481 O   0  0  0  0  0  0  0  0  0  0  0  0
  -27.7210  -27.6283   19.3879 O   0  0  0  0  0  0  0  0  0  0  0  0
  -30.7351  -17.7477   20.2877 O   0  0  0  0  0  0  0  0  0  0  0  0
  -26.5111  -26.6135   23.0486 O   0  0  0  0  0  0  0  0  0  0  0  0
  -27.4885  -23.2006   24.4868 O   0  0  0  0  0  0  0  0  0  0  0  0
  -22.3518  -14.5570   20.9031 O   0  0  0  0  0  0  0  0  0  0  0  0
  -19.6155  -27.1428   22.7919 O   0  0  0  0  0  0  0  0  0  0  0  0
  -29.3874  -20.0363   19.9196 O   0  0  0  0  0  0  0  0  0  1  0  0
  -19.5959  -27.4570   28.2969 F   0  0  0  0  0  0  0  0  0  0  0  0
  -18.0706  -25.4207   24.3053 F   0  0  0  0  0  0  0  0  0  0  0  0
  1  2  1  0  0  0  0
  1  5  2  0  0  0  0
  2  6  2  0  0  0  0
  3  8  2  0  0  0  0
  3 16  1  0  0  0  0
  4  9  1  0  0  0  0
  4 16  2  0  0  0  0
  5 18  1  0  0  0  0
  6 20  1  0  0  0  0
  7 10  2  0  0  0  0
  7 19  1  0  0  0  0
  8 22  1  0  0  0  0
  9 22  2  0  0  0  0
 10 23  1  0  0  0  0
 11 12  2  0  0  0  0
 11 24  1  0  0  0  0
 12 25  1  0  0  0  0
 13 21  1  0  0  0  0
 13 23  2  0  0  0  0
 14 25  2  0  0  0  0
 14 26  1  0  0  0  0
 15 28  1  0  0  0  0
 15 29  2  0  0  0  0
 16 27  1  0  0  0  0
 17 27  1  0  0  0  0
 17 30  2  0  0  0  0
 17 32  1  0  0  0  0
 18 20  2  0  0  0  0
 18 38  1  0  0  0  0
 19 21  2  0  0  0  0
 19 39  1  0  0  0  0
 20 47  1  0  0  0  0
 21 40  1  0  0  0  0
 22 83  1  0  0  0  0
 23 84  1  0  0  0  0
 24 26  2  0  0  0  0
 24 83  1  0  0  0  0
 25 85  1  0  0  0  0
 26 86  1  0  0  0  0
 27 63  2  0  0  0  0
 28 58  1  0  0  0  0
 28 64  2  0  0  0  0
 29 65  1  0  0  0  0
 29 72  1  0  0  0  0
 30 66  1  0  0  0  0
 30 69  1  0  0  0  0
 31 64  1  0  0  0  0
 31 65  2  0  0  0  0
 31 70  1  0  0  0  0
 32 71  1  0  0  0  0
 32 77  2  0  0  0  0
 33 48  1  0  0  0  0
 33 73  1  0  0  0  0
 33 78  2  0  0  0  0
 34 57  1  0  0  0  0
 34 59  1  0  0  0  0
 34 79  2  0  0  0  0
 35 60  1  0  0  0  0
 35 67  1  0  0  0  0
 35 80  2  0  0  0  0
 36 61  1  0  0  0  0
 36 74  1  0  0  0  0
 36 81  2  0  0  0  0
 37 68  1  0  0  0  0
 37 72  1  0  0  0  0
 37 82  2  0  0  0  0
 38 41  1  0  0  0  0
 39 48  1  0  0  0  0
 40 67  1  0  0  0  0
 41 43  1  0  0  0  0
 42 44  1  0  0  0  0
 42 45  1  0  0  0  0
 43 47  1  0  0  0  0
 44 49  1  0  0  0  0
 45 68  1  0  0  0  0
 46 49  1  0  0  0  0
 46 68  1  0  0  0  0
 47 73  1  0  0  0  0
 48 67  1  0  0  0  0
 49 66  1  0  0  0  0
 50 58  1  0  0  0  0
 51 59  1  0  0  0  0
 52 61  1  0  0  0  0
 53 62  1  0  0  0  0
 54 62  1  0  0  0  0
 55 62  1  0  0  0  0
 56 75  1  0  0  0  0
 57 84  1  0  0  0  0
 58 76  1  0  0  0  0
 59 76  1  0  0  0  0
 60 62  1  0  0  0  0
 60 74  1  0  0  0  0
 61 75  1  0  0  0  0
 63 66  1  0  0  0  0
M  CHG  2  75   1  76   1
M  ISO  4  37 100  57 101  72 100  84 101
M  END
> <Batch ID>
0181

> <Smiles>
CNC(C)C(=O)NC(C(=O)N1Cc2cc([101O:1][101CH2:1]C(=O)C(C)NC(C)c3cc([100NH:0][100C:0](=O)N4CCCC(n5nc(-c6ccc(Oc7ccc(F)cc7F)cc6)c(C(N)=O)c5N)C4)nc(N)n3)ccc2CC1C(=O)NC1CCCc2ccccc21)C(C)(C)C

> <Shape>
0.198

> <Color>
0.083

> <Negative vol penalty>
0.000

$$$$

  -OEChem-04052304533D

 88 96  0     1  0  0  0  0  0999 V2000
  -33.8953  -31.9900   19.8374 C   0  0  0  0  0  0  0  0  0  0  0  0
  -32.8903  -31.2999   20.5076 C   0  0  0  0  0  0  0  0  0  0  0  0
  -23.0726   -9.8638   19.8691 C   0  0  0  0  0  0  0  0  0  0  0  0
  -23.8763   -9.7449   22.1444 C   0  0  0  0  0  0  0  0  0  0  0  0
  -34.4698  -31.4431   18.6908 C   0  0  0  0  0  0  0  0  0  0  0  0
  -32.4583  -30.0628   20.0307 C   0  0  0  0  0  0  0  0  0  0  0  0
  -30.5851  -25.2812   23.3674 C   0  0  0  0  0  0  0  0  0  0  0  0
  -22.3515   -8.6856   20.0622 C   0  0  0  0  0  0  0  0  0  0  0  0
  -23.1551   -8.5666   22.3376 C   0  0  0  0  0  0  0  0  0  0  0  0
  -29.3163  -24.8172   23.7117 C   0  0  0  0  0  0  0  0  0  0  0  0
  -19.9518   -7.6808   22.9495 C   0  0  0  0  0  0  0  0  0  0  0  0
  -19.2182   -7.5578   24.1294 C   0  0  0  0  0  0  0  0  0  0  0  0
  -29.3882  -23.2678   21.8641 C   0  0  0  0  0  0  0  0  0  0  0  0
  -20.5031   -5.6002   24.7242 C   0  0  0  0  0  0  0  0  0  0  0  0
  -23.8351  -10.3935   20.9102 C   0  0  0  0  0  0  0  0  0  0  0  0
  -24.1357  -12.9265   20.9374 C   0  0  0  0  0  0  0  0  0  0  0  0
  -34.0513  -30.1942   18.2052 C   0  0  0  0  0  0  0  0  0  0  0  0
  -31.2616  -24.7487   22.2604 C   0  0  0  0  0  0  0  0  0  0  0  0
  -33.0268  -29.4992   18.8757 C   0  0  0  0  0  0  0  0  0  0  0  0
  -30.6665  -23.7250   21.5094 C   0  0  0  0  0  0  0  0  0  0  0  0
  -22.3927   -8.0370   21.2964 C   0  0  0  0  0  0  0  0  0  0  0  0
  -28.7164  -23.8124   22.9583 C   0  0  0  0  0  0  0  0  0  0  0  0
  -20.9610   -6.7634   22.6568 C   0  0  0  0  0  0  0  0  0  0  0  0
  -19.4939   -6.5175   25.0168 C   0  0  0  0  0  0  0  0  0  0  0  0
  -21.2367   -5.7232   23.5442 C   0  0  0  0  0  0  0  0  0  0  0  0
  -24.5807  -11.6102   20.7112 C   0  0  0  0  0  0  0  0  0  0  0  0
  -29.5468  -17.5018   24.3295 C   0  0  0  0  0  0  0  0  0  0  0  0
  -29.8850  -17.6951   23.0065 C   0  0  0  0  0  0  0  0  0  0  0  0
  -25.2091  -13.7145   20.6003 C   0  0  0  0  0  0  0  0  0  0  0  0
  -28.4440  -19.3643   23.9760 C   0  0  0  0  0  0  0  0  0  0  0  0
  -22.8658  -13.3951   21.4099 C   0  0  0  0  0  0  0  0  0  0  0  0
  -32.3377  -25.9250   19.5105 C   0  0  0  0  0  0  0  0  0  0  0  0
  -33.6062  -22.9572   19.1863 C   0  0  0  0  0  0  0  0  0  0  0  0
  -33.4913  -19.6502   20.0214 C   0  0  0  0  0  0  0  0  0  0  0  0
  -26.9530  -20.9435   25.2566 C   0  0  0  0  0  0  0  0  0  0  0  0
  -30.6791  -14.8106   20.7499 C   0  0  0  0  0  0  0  0  0  0  0  0
  -34.6690  -29.6652   16.9350 C   0  0  0  0  0  0  0  0  0  0  0  0
  -32.6409  -25.2414   21.9182 C   0  0  0  0  0  0  0  0  0  0  0  0
  -31.3593  -23.1059   20.3240 C   0  0  0  0  0  0  0  0  0  0  0  0
  -34.4157  -28.1770   16.7084 C   0  0  0  0  0  0  0  0  0  0  0  0
  -29.5326  -12.5560   18.2441 C   0  0  0  0  0  0  0  0  0  0  0  0
  -32.9480  -27.8418   16.9541 C   0  0  0  0  0  0  0  0  0  0  0  0
  -28.1084  -12.2131   18.6846 C   0  0  0  0  0  0  0  0  0  0  0  0
  -30.4691  -12.7191   19.4392 C   0  0  0  0  0  0  0  0  0  0  0  0
  -28.5834  -13.3337   20.9021 C   0  0  0  0  0  0  0  0  0  0  0  0
  -32.5485  -28.1433   18.4036 C   0  0  1  0  0  0  0  0  0  0  0  0
  -33.0225  -24.9864   20.4633 C   0  0  1  0  0  0  0  0  0  0  0  0
  -27.5896  -13.2144   19.7341 C   0  0  2  0  0  0  0  0  0  0  0  0
  -34.6352  -17.4631   19.5681 C   0  0  0  0  0  0  0  0  0  0  0  0
  -31.2937  -16.6827   25.9221 C   0  0  0  0  0  0  0  0  0  0  0  0
  -25.4272  -22.6358   26.3362 C   0  0  0  0  0  0  0  0  0  0  0  0
  -25.1291  -22.0655   23.8984 C   0  0  0  0  0  0  0  0  0  0  0  0
  -32.2206  -22.7977   16.4725 C   0  0  0  0  0  0  0  0  0  0  0  0
  -32.5914  -20.3219   16.5067 C   0  0  0  0  0  0  0  0  0  0  0  0
  -34.5443  -21.8740   16.5132 C   0  0  0  0  0  0  0  0  0  0  0  0
  -34.2561  -19.3287   22.8623 C   0  0  0  0  0  0  0  0  0  0  0  0
  -30.7357  -16.8834   22.1136 C   0  0  0  0  0  0  0  0  0  0  0  0
  -27.1176  -23.4074   24.6717 C   0  0  0  0  0  0  0  0  0  1  0  0
  -33.1319  -21.6502   18.5982 C   0  0  1  0  0  0  0  0  0  0  0  0
  -34.5750  -18.6862   20.4697 C   0  0  2  0  0  0  0  0  0  0  0  0
  -29.9854  -16.3797   25.1842 C   0  0  0  0  0  0  0  0  0  0  0  0
  -26.1515  -22.2540   25.0331 C   0  0  0  0  0  0  0  0  0  0  0  0
  -33.1079  -21.6737   17.0438 C   0  0  0  0  0  0  0  0  0  0  0  0
  -25.8386  -11.5607   20.2648 N   0  0  0  0  0  0  0  0  0  0  0  0
  -28.7209  -18.4582   24.8872 N   0  0  0  0  0  0  0  0  0  0  0  0
  -26.1932  -12.8557   20.2077 N   0  0  0  0  0  0  0  0  0  0  0  0
  -32.7039  -23.6259   20.0255 N   0  0  0  0  0  0  0  0  0  0  0  0
  -29.9200  -13.6830   20.3959 N   0  0  0  0  0  0  0  0  0  0  0  0
  -25.3976  -15.0512   20.6044 N   0  0  0  0  0  0  0  0  0  0  0  0
  -21.8746  -12.4507   21.7099 N   0  0  0  0  0  0  0  0  0  0  0  0
  -27.6337  -20.5171   24.1198 N   0  0  0  0  0  0  0  0  0  0  0  0
  -33.0270  -27.1016   19.2869 N   0  0  0  0  0  0  0  0  0  0  0  0
  -33.9858  -20.6129   19.1670 N   0  0  0  0  0  0  0  0  0  0  0  0
  -30.0821  -15.6769   21.6576 N   0  0  0  0  0  0  0  0  0  0  0  0
  -34.3172  -18.2296   21.8647 N   0  3  0  0  0  0  0  0  0  0  0  0
  -22.6118  -14.6160   21.5461 O   0  0  0  0  0  0  0  0  0  0  0  0
  -31.2642  -25.6047   19.0139 O   0  0  0  0  0  0  0  0  0  0  0  0
  -34.7384  -23.3660   18.9168 O   0  0  0  0  0  0  0  0  0  0  0  0
  -32.3224  -19.5561   20.3891 O   0  0  0  0  0  0  0  0  0  0  0  0
  -26.9455  -20.3737   26.3462 O   0  0  0  0  0  0  0  0  0  0  0  0
  -31.8033  -15.0318   20.2871 O   0  0  0  0  0  0  0  0  0  0  0  0
  -21.6889   -6.8874   21.4853 O   0  0  0  0  0  0  0  0  0  0  0  0
  -27.4777  -23.3581   23.2918 O   0  0  0  0  0  0  0  0  0  1  0  0
  -18.7904   -6.4004   26.1506 F   0  0  0  0  0  0  0  0  0  0  0  0
  -22.2058   -4.8395   23.2690 F   0  0  0  0  0  0  0  0  0  0  0  0
  -30.1922  -15.2076   24.4909 F   0  0  0  0  0  0  0  0  0  0  0  0
  -29.0663  -16.0304   26.1489 F   0  0  0  0  0  0  0  0  0  0  0  0
  -29.1429  -19.1284   22.4265 S   0  0  0  0  0  0  0  0  0  0  0  0
  1  2  1  0  0  0  0
  1  5  2  0  0  0  0
  2  6  2  0  0  0  0
  3  8  2  0  0  0  0
  3 15  1  0  0  0  0
  4  9  1  0  0  0  0
  4 15  2  0  0  0  0
  5 17  1  0  0  0  0
  6 19  1  0  0  0  0
  7 10  2  0  0  0  0
  7 18  1  0  0  0  0
  8 21  1  0  0  0  0
  9 21  2  0  0  0  0
 10 22  1  0  0  0  0
 11 12  2  0  0  0  0
 11 23  1  0  0  0  0
 12 24  1  0  0  0  0
 13 20  1  0  0  0  0
 13 22  2  0  0  0  0
 14 24  2  0  0  0  0
 14 25  1  0  0  0  0
 15 26  1  0  0  0  0
 16 26  1  0  0  0  0
 16 29  2  0  0  0  0
 16 31  1  0  0  0  0
 17 19  2  0  0  0  0
 17 37  1  0  0  0  0
 18 20  2  0  0  0  0
 18 38  1  0  0  0  0
 19 46  1  0  0  0  0
 20 39  1  0  0  0  0
 21 82  1  0  0  0  0
 22 83  1  0  0  0  0
 23 25  2  0  0  0  0
 23 82  1  0  0  0  0
 24 84  1  0  0  0  0
 25 85  1  0  0  0  0
 26 64  2  0  0  0  0
 27 28  2  0  0  0  0
 27 61  1  0  0  0  0
 27 65  1  0  0  0  0
 28 57  1  0  0  0  0
 28 88  1  0  0  0  0
 29 66  1  0  0  0  0
 29 69  1  0  0  0  0
 30 65  2  0  0  0  0
 30 71  1  0  0  0  0
 30 88  1  0  0  0  0
 31 70  1  0  0  0  0
 31 76  2  0  0  0  0
 32 47  1  0  0  0  0
 32 72  1  0  0  0  0
 32 77  2  0  0  0  0
 33 59  1  0  0  0  0
 33 67  1  0  0  0  0
 33 78  2  0  0  0  0
 34 60  1  0  0  0  0
 34 73  1  0  0  0  0
 34 79  2  0  0  0  0
 35 62  1  0  0  0  0
 35 71  1  0  0  0  0
 35 80  2  0  0  0  0
 36 68  1  0  0  0  0
 36 74  1  0  0  0  0
 36 81  2  0  0  0  0
 37 40  1  0  0  0  0
 38 47  1  0  0  0  0
 39 67  1  0  0  0  0
 40 42  1  0  0  0  0
 41 43  1  0  0  0  0
 41 44  1  0  0  0  0
 42 46  1  0  0  0  0
 43 48  1  0  0  0  0
 44 68  1  0  0  0  0
 45 48  1  0  0  0  0
 45 68  1  0  0  0  0
 46 72  1  0  0  0  0
 47 67  1  0  0  0  0
 48 66  1  0  0  0  0
 49 60  1  0  0  0  0
 50 61  1  0  0  0  0
 51 62  1  0  0  0  0
 52 62  1  0  0  0  0
 53 63  1  0  0  0  0
 54 63  1  0  0  0  0
 55 63  1  0  0  0  0
 56 75  1  0  0  0  0
 57 74  1  0  0  0  0
 58 62  1  0  0  0  0
 58 83  1  0  0  0  0
 59 63  1  0  0  0  0
 59 73  1  0  0  0  0
 60 75  1  0  0  0  0
 61 86  1  0  0  0  0
 61 87  1  0  0  0  0
 64 66  1  0  0  0  0
M  CHG  1  75   1
M  ISO  4  36 100  58 101  74 100  83 101
M  END
> <Batch ID>
0181

> <Smiles>
CNC(C)C(=O)NC(C(=O)N1Cc2cc([101O:1][101CH2:1]C(C)(C)C(=O)Nc3nc(C(C)(F)F)c(C[100NH:0][100C:0](=O)N4CCCC(n5nc(-c6ccc(Oc7ccc(F)cc7F)cc6)c(C(N)=O)c5N)C4)s3)ccc2CC1C(=O)NC1CCCc2ccccc21)C(C)(C)C

> <Shape>
0.188

> <Color>
0.193

> <Negative vol penalty>
0.000

$$$$

  -OEChem-04052304533D

 85 93  0     1  0  0  0  0  0999 V2000
  -16.8952  -29.0829   24.4944 C   0  0  0  0  0  0  0  0  0  0  0  0
  -18.2780  -29.2286   24.5397 C   0  0  0  0  0  0  0  0  0  0  0  0
  -27.0615  -12.8353   21.4642 C   0  0  0  0  0  0  0  0  0  0  0  0
  -26.4602  -13.9607   19.4127 C   0  0  0  0  0  0  0  0  0  0  0  0
  -16.3056  -28.3551   23.4617 C   0  0  0  0  0  0  0  0  0  0  0  0
  -19.0721  -28.6456   23.5528 C   0  0  0  0  0  0  0  0  0  0  0  0
  -24.2783  -30.8754   21.2228 C   0  0  0  0  0  0  0  0  0  0  0  0
  -26.2509  -11.7568   21.1102 C   0  0  0  0  0  0  0  0  0  0  0  0
  -25.6496  -12.8822   19.0586 C   0  0  0  0  0  0  0  0  0  0  0  0
  -25.6189  -30.6027   21.4918 C   0  0  0  0  0  0  0  0  0  0  0  0
  -22.9561  -11.0036   21.1369 C   0  0  0  0  0  0  0  0  0  0  0  0
  -22.1197  -10.4727   22.1188 C   0  0  0  0  0  0  0  0  0  0  0  0
  -25.6684  -29.0533   19.6436 C   0  0  0  0  0  0  0  0  0  0  0  0
  -23.2193   -8.3327   21.8984 C   0  0  0  0  0  0  0  0  0  0  0  0
  -27.1661  -13.9373   20.6155 C   0  0  0  0  0  0  0  0  0  0  0  0
  -29.3662  -15.2270   20.6771 C   0  0  0  0  0  0  0  0  0  0  0  0
  -17.0921  -27.7710   22.4564 C   0  0  0  0  0  0  0  0  0  0  0  0
  -23.6186  -30.2298   20.1671 C   0  0  0  0  0  0  0  0  0  0  0  0
  -18.4925  -27.9081   22.5065 C   0  0  0  0  0  0  0  0  0  0  0  0
  -24.3202  -29.3214   19.3616 C   0  0  0  0  0  0  0  0  0  0  0  0
  -31.1142  -24.1491   18.9503 C   0  0  0  0  0  0  0  0  0  0  0  0
  -30.9610  -22.8410   19.4939 C   0  0  0  0  0  0  0  0  0  0  0  0
  -25.5450  -11.7802   19.9074 C   0  0  0  0  0  0  0  0  0  0  0  0
  -26.3133  -29.6894   20.7040 C   0  0  0  0  0  0  0  0  0  0  0  0
  -23.9240  -10.1990   20.5356 C   0  0  0  0  0  0  0  0  0  0  0  0
  -22.2513   -9.1372   22.4996 C   0  0  0  0  0  0  0  0  0  0  0  0
  -24.0557   -8.8636   20.9164 C   0  0  0  0  0  0  0  0  0  0  0  0
  -28.0028  -15.0520   20.9809 C   0  0  0  0  0  0  0  0  0  0  0  0
  -29.6918  -16.4352   21.2434 C   0  0  0  0  0  0  0  0  0  0  0  0
  -30.2743  -25.0608   19.5510 C   0  0  0  0  0  0  0  0  0  0  0  0
  -30.0098  -22.8028   20.4898 C   0  0  0  0  0  0  0  0  0  0  0  0
  -30.2585  -14.3738   19.9480 C   0  0  0  0  0  0  0  0  0  0  0  0
  -29.3121  -28.7034   19.4716 C   0  0  0  0  0  0  0  0  0  0  0  0
  -28.5389  -29.6777   19.9847 C   0  0  0  0  0  0  0  0  0  1  0  0
  -29.2135  -27.2977   19.9891 C   0  0  0  0  0  0  0  0  0  0  0  0
  -21.1313  -28.2632   19.9445 C   0  0  0  0  0  0  0  0  0  0  0  0
  -21.5954  -28.6643   16.7592 C   0  0  0  0  0  0  0  0  0  0  0  0
  -23.7339  -29.4556   14.2200 C   0  0  0  0  0  0  0  0  0  0  0  0
  -28.5648  -21.7874   22.2863 C   0  0  0  0  0  0  0  0  0  0  0  0
  -16.4129  -26.9535   21.3863 C   0  0  0  0  0  0  0  0  0  0  0  0
  -22.1797  -30.5549   19.8733 C   0  0  0  0  0  0  0  0  0  0  0  0
  -23.6634  -28.6167   18.2038 C   0  0  0  0  0  0  0  0  0  0  0  0
  -17.2982  -26.6830   20.1725 C   0  0  0  0  0  0  0  0  0  0  0  0
  -27.1067  -19.3705   24.4564 C   0  0  0  0  0  0  0  0  0  0  0  0
  -18.6849  -26.2263   20.6143 C   0  0  0  0  0  0  0  0  0  0  0  0
  -27.3220  -18.0459   23.7207 C   0  0  0  0  0  0  0  0  0  0  0  0
  -26.8029  -20.5134   23.4894 C   0  0  0  0  0  0  0  0  0  0  0  0
  -27.9912  -19.3578   21.6669 C   0  0  0  0  0  0  0  0  0  0  0  0
  -19.3858  -27.3114   21.4406 C   0  0  1  0  0  0  0  0  0  0  0  0
  -21.4660  -29.4552   19.0931 C   0  0  1  0  0  0  0  0  0  0  0  0
  -28.3643  -18.1898   22.5944 C   0  0  2  0  0  0  0  0  0  0  0  0
  -32.0659  -24.4922   17.8639 C   0  0  0  0  0  0  0  0  0  0  0  0
  -31.7368  -21.6585   19.0430 C   0  0  0  0  0  0  0  0  0  0  0  0
  -28.5863  -31.1081   19.5325 C   0  0  0  0  0  0  0  0  0  0  0  0
  -23.8348  -29.6593   11.7209 C   0  0  0  0  0  0  0  0  0  0  0  0
  -21.6953  -25.6242   16.5179 C   0  0  0  0  0  0  0  0  0  0  0  0
  -22.7224  -25.9075   14.2523 C   0  0  0  0  0  0  0  0  0  0  0  0
  -20.4257  -26.7742   14.6958 C   0  0  0  0  0  0  0  0  0  0  0  0
  -24.4072  -32.3339   14.3657 C   0  0  0  0  0  0  0  0  0  0  0  0
  -22.4158  -27.9654   15.7020 C   0  0  1  0  0  0  0  0  0  0  0  0
  -23.5853  -30.3886   13.0318 C   0  0  2  0  0  0  0  0  0  0  0  0
  -21.8269  -26.5795   15.3150 C   0  0  0  0  0  0  0  0  0  0  0  0
  -27.4971  -16.0676   21.6857 N   0  0  0  0  0  0  0  0  0  0  0  0
  -28.5483  -16.8924   21.8296 N   0  0  0  0  0  0  0  0  0  0  0  0
  -22.2533  -28.9635   17.9607 N   0  0  0  0  0  0  0  0  0  0  0  0
  -27.8344  -20.5918   22.4527 N   0  0  0  0  0  0  0  0  0  0  0  0
  -30.8419  -17.1404   21.2924 N   0  0  0  0  0  0  0  0  0  0  0  0
  -29.7601  -13.1690   19.4340 N   0  0  0  0  0  0  0  0  0  0  0  0
  -30.0918  -26.4478   19.3303 N   0  0  0  0  0  0  0  0  0  0  0  0
  -29.5410  -21.7329   21.2920 N   0  0  0  0  0  0  0  0  0  0  0  0
  -19.9050  -28.3490   20.5756 N   0  0  0  0  0  0  0  0  0  0  0  0
  -22.5266  -28.9000   14.5873 N   0  0  0  0  0  0  0  0  0  0  0  0
  -24.5544  -31.5161   13.1342 N   0  3  0  0  0  0  0  0  0  0  0  0
  -31.4663  -14.6634   19.7721 O   0  0  0  0  0  0  0  0  0  0  0  0
  -28.4269  -27.0119   20.8849 O   0  0  0  0  0  0  0  0  0  0  0  0
  -21.9261  -27.3337   20.0219 O   0  0  0  0  0  0  0  0  0  0  0  0
  -20.4164  -28.9410   16.5249 O   0  0  0  0  0  0  0  0  0  0  0  0
  -24.8137  -29.2383   14.7653 O   0  0  0  0  0  0  0  0  0  0  0  0
  -28.3594  -22.7772   22.9934 O   0  0  0  0  0  0  0  0  0  0  0  0
  -30.2221  -28.9667   18.4650 O   0  0  0  0  0  0  0  0  0  0  0  0
  -24.7541  -10.7278   19.5615 O   0  0  0  0  0  0  0  0  0  0  0  0
  -27.6217  -29.4210   20.9648 O   0  0  0  0  0  0  0  0  0  1  0  0
  -21.4491   -8.6280   23.4436 F   0  0  0  0  0  0  0  0  0  0  0  0
  -24.9845   -8.0862   20.3432 F   0  0  0  0  0  0  0  0  0  0  0  0
  -29.3062  -24.3394   20.7654 S   0  0  0  0  0  0  0  0  0  0  0  0
  1  2  1  0  0  0  0
  1  5  2  0  0  0  0
  2  6  2  0  0  0  0
  3  8  2  0  0  0  0
  3 15  1  0  0  0  0
  4  9  1  0  0  0  0
  4 15  2  0  0  0  0
  5 17  1  0  0  0  0
  6 19  1  0  0  0  0
  7 10  2  0  0  0  0
  7 18  1  0  0  0  0
  8 23  1  0  0  0  0
  9 23  2  0  0  0  0
 10 24  1  0  0  0  0
 11 12  2  0  0  0  0
 11 25  1  0  0  0  0
 12 26  1  0  0  0  0
 13 20  1  0  0  0  0
 13 24  2  0  0  0  0
 14 26  2  0  0  0  0
 14 27  1  0  0  0  0
 15 28  1  0  0  0  0
 16 28  1  0  0  0  0
 16 29  2  0  0  0  0
 16 32  1  0  0  0  0
 17 19  2  0  0  0  0
 17 40  1  0  0  0  0
 18 20  2  0  0  0  0
 18 41  1  0  0  0  0
 19 49  1  0  0  0  0
 20 42  1  0  0  0  0
 21 22  1  0  0  0  0
 21 30  2  0  0  0  0
 21 52  1  0  0  0  0
 22 31  2  0  0  0  0
 22 53  1  0  0  0  0
 23 81  1  0  0  0  0
 24 82  1  0  0  0  0
 25 27  2  0  0  0  0
 25 81  1  0  0  0  0
 26 83  1  0  0  0  0
 27 84  1  0  0  0  0
 28 63  2  0  0  0  0
 29 64  1  0  0  0  0
 29 67  1  0  0  0  0
 30 69  1  0  0  0  0
 30 85  1  0  0  0  0
 31 70  1  0  0  0  0
 31 85  1  0  0  0  0
 32 68  1  0  0  0  0
 32 74  2  0  0  0  0
 33 34  2  0  0  0  0
 33 35  1  0  0  0  0
 33 80  1  0  0  0  0
 34 54  1  0  0  0  0
 34 82  1  0  0  0  0
 35 69  1  0  0  0  0
 35 75  2  0  0  0  0
 36 50  1  0  0  0  0
 36 71  1  0  0  0  0
 36 76  2  0  0  0  0
 37 60  1  0  0  0  0
 37 65  1  0  0  0  0
 37 77  2  0  0  0  0
 38 61  1  0  0  0  0
 38 72  1  0  0  0  0
 38 78  2  0  0  0  0
 39 66  1  0  0  0  0
 39 70  1  0  0  0  0
 39 79  2  0  0  0  0
 40 43  1  0  0  0  0
 41 50  1  0  0  0  0
 42 65  1  0  0  0  0
 43 45  1  0  0  0  0
 44 46  1  0  0  0  0
 44 47  1  0  0  0  0
 45 49  1  0  0  0  0
 46 51  1  0  0  0  0
 47 66  1  0  0  0  0
 48 51  1  0  0  0  0
 48 66  1  0  0  0  0
 49 71  1  0  0  0  0
 50 65  1  0  0  0  0
 51 64  1  0  0  0  0
 55 61  1  0  0  0  0
 56 62  1  0  0  0  0
 57 62  1  0  0  0  0
 58 62  1  0  0  0  0
 59 73  1  0  0  0  0
 60 62  1  0  0  0  0
 60 72  1  0  0  0  0
 61 73  1  0  0  0  0
 63 64  1  0  0  0  0
M  CHG  1  73   1
M  ISO  4  34 101  39 100  70 100  82 101
M  END
> <Batch ID>
0181

> <Smiles>
CNC(C)C(=O)NC(C(=O)N1Cc2cc([101O:1][101CH:1](C)C(=O)C(=O)Nc3sc([100NH:0][100C:0](=O)N4CCCC(n5nc(-c6ccc(Oc7ccc(F)cc7F)cc6)c(C(N)=O)c5N)C4)c(C)c3C)ccc2CC1C(=O)NC1CCCc2ccccc21)C(C)(C)C

> <Shape>
0.267

> <Color>
0.066

> <Negative vol penalty>
0.000

$$$$

  -OEChem-04052304533D

 87 95  0     1  0  0  0  0  0999 V2000
  -22.4841  -14.1550   35.6726 C   0  0  0  0  0  0  0  0  0  0  0  0
  -23.2308  -15.2541   35.2606 C   0  0  0  0  0  0  0  0  0  0  0  0
  -23.0755   -9.8658   19.9424 C   0  0  0  0  0  0  0  0  0  0  0  0
  -23.8353   -9.8757   22.2358 C   0  0  0  0  0  0  0  0  0  0  0  0
  -22.0817  -13.1984   34.7415 C   0  0  0  0  0  0  0  0  0  0  0  0
  -23.5765  -15.3968   33.9172 C   0  0  0  0  0  0  0  0  0  0  0  0
  -24.6945  -20.4304   28.9444 C   0  0  0  0  0  0  0  0  0  0  0  0
  -22.3321   -8.7126   20.1937 C   0  0  0  0  0  0  0  0  0  0  0  0
  -23.0918   -8.7225   22.4871 C   0  0  0  0  0  0  0  0  0  0  0  0
  -25.6486  -20.8262   28.0081 C   0  0  0  0  0  0  0  0  0  0  0  0
  -21.1079   -5.9862   23.8268 C   0  0  0  0  0  0  0  0  0  0  0  0
  -20.3516   -5.9437   24.9980 C   0  0  0  0  0  0  0  0  0  0  0  0
  -24.8307  -19.1522   26.4758 C   0  0  0  0  0  0  0  0  0  0  0  0
  -19.1063   -7.8797   24.2642 C   0  0  0  0  0  0  0  0  0  0  0  0
  -23.8272  -10.4473   20.9635 C   0  0  0  0  0  0  0  0  0  0  0  0
  -24.1681  -12.9724   20.8406 C   0  0  0  0  0  0  0  0  0  0  0  0
  -22.4144  -13.3344   33.3845 C   0  0  0  0  0  0  0  0  0  0  0  0
  -23.8069  -19.3834   28.6571 C   0  0  0  0  0  0  0  0  0  0  0  0
  -23.1793  -14.4404   32.9673 C   0  0  0  0  0  0  0  0  0  0  0  0
  -23.8646  -18.7466   27.4092 C   0  0  0  0  0  0  0  0  0  0  0  0
  -22.3402   -8.1410   21.4660 C   0  0  0  0  0  0  0  0  0  0  0  0
  -25.7187  -20.1852   26.7747 C   0  0  0  0  0  0  0  0  0  0  0  0
  -20.8635   -6.9755   22.8742 C   0  0  0  0  0  0  0  0  0  0  0  0
  -19.3508   -6.8904   25.2167 C   0  0  0  0  0  0  0  0  0  0  0  0
  -19.8627   -7.9222   23.0929 C   0  0  0  0  0  0  0  0  0  0  0  0
  -24.5959  -11.6381   20.7044 C   0  0  0  0  0  0  0  0  0  0  0  0
  -30.7062  -19.0988   22.9830 C   0  0  0  0  0  0  0  0  0  0  0  0
  -31.8082  -18.7301   22.2402 C   0  0  0  0  0  0  0  0  0  0  0  0
  -25.2600  -13.7219   20.4765 C   0  0  0  0  0  0  0  0  0  0  0  0
  -30.5705  -16.9520   21.8990 C   0  0  0  0  0  0  0  0  0  0  0  0
  -22.8974  -13.4882   21.2588 C   0  0  0  0  0  0  0  0  0  0  0  0
  -30.4373  -20.3273   23.7740 C   0  0  0  0  0  0  0  0  0  0  0  0
  -23.2327  -16.5209   29.9142 C   0  0  0  0  0  0  0  0  0  0  0  0
  -20.7869  -16.5069   27.7834 C   0  0  0  0  0  0  0  0  0  0  0  0
  -19.4876  -17.6866   24.8565 C   0  0  0  0  0  0  0  0  0  0  0  0
  -30.7258  -14.7696   20.6502 C   0  0  0  0  0  0  0  0  0  0  0  0
  -21.9973  -12.2502   32.4226 C   0  0  0  0  0  0  0  0  0  0  0  0
  -22.7660  -18.9861   29.6676 C   0  0  0  0  0  0  0  0  0  0  0  0
  -22.9214  -17.6306   27.0440 C   0  0  0  0  0  0  0  0  0  0  0  0
  -22.0852  -12.6690   30.9573 C   0  0  0  0  0  0  0  0  0  0  0  0
  -29.6123  -12.3528   18.2846 C   0  0  0  0  0  0  0  0  0  0  0  0
  -23.4142  -13.3645   30.6798 C   0  0  0  0  0  0  0  0  0  0  0  0
  -28.1728  -12.0612   18.7144 C   0  0  0  0  0  0  0  0  0  0  0  0
  -30.5273  -12.5832   19.4860 C   0  0  0  0  0  0  0  0  0  0  0  0
  -28.6201  -13.3085   20.8664 C   0  0  0  0  0  0  0  0  0  0  0  0
  -23.5528  -14.6431   31.5149 C   0  0  1  0  0  0  0  0  0  0  0  0
  -22.2494  -17.5649   29.4661 C   0  0  1  0  0  0  0  0  0  0  0  0
  -27.6473  -13.1337   19.6888 C   0  0  2  0  0  0  0  0  0  0  0  0
  -17.4880  -17.4625   23.3569 C   0  0  0  0  0  0  0  0  0  0  0  0
  -28.5244  -20.0647   27.2786 C   0  0  0  0  0  0  0  0  0  0  0  0
  -21.8474  -13.8301   26.7734 C   0  0  0  0  0  0  0  0  0  0  0  0
  -20.4384  -14.1240   24.7248 C   0  0  0  0  0  0  0  0  0  0  0  0
  -19.3574  -13.9597   26.9670 C   0  0  0  0  0  0  0  0  0  0  0  0
  -18.7818  -20.5428   25.1772 C   0  0  0  0  0  0  0  0  0  0  0  0
  -20.6198  -16.0618   26.3506 C   0  0  1  0  0  0  0  0  0  0  0  0
  -18.1129  -18.2303   24.5114 C   0  0  2  0  0  0  0  0  0  0  0  0
  -28.7891  -21.5174   25.1964 C   0  0  2  0  0  0  0  0  0  0  0  0
  -27.8759  -21.0976   26.3623 C   0  0  1  0  0  0  0  0  0  1  0  0
  -20.5849  -14.5136   26.2113 C   0  0  0  0  0  0  0  0  0  0  0  0
  -28.1364  -22.5501   24.2898 C   0  0  0  0  0  0  0  0  0  0  0  0
  -25.8608  -11.5423   20.2863 N   0  0  0  0  0  0  0  0  0  0  0  0
  -31.7323  -17.4992   21.6182 N   0  0  0  0  0  0  0  0  0  0  0  0
  -26.2372  -12.8259   20.1565 N   0  0  0  0  0  0  0  0  0  0  0  0
  -21.9254  -17.2742   28.0680 N   0  0  0  0  0  0  0  0  0  0  0  0
  -29.9680  -13.6148   20.3622 N   0  0  0  0  0  0  0  0  0  0  0  0
  -32.9162  -19.4970   22.1014 N   0  0  0  0  0  0  0  0  0  0  0  0
  -25.4699  -15.0533   20.4019 N   0  0  0  0  0  0  0  0  0  0  0  0
  -21.8858  -12.5791   21.5971 N   0  0  0  0  0  0  0  0  0  0  0  0
  -30.0781  -15.6953   21.4676 N   0  0  0  0  0  0  0  0  0  0  0  0
  -29.2074  -20.3787   24.4101 N   0  0  0  0  0  0  0  0  0  0  0  0
  -22.7694  -15.7129   30.9349 N   0  0  0  0  0  0  0  0  0  0  0  0
  -19.4250  -16.7337   25.8511 N   0  0  0  0  0  0  0  0  0  0  0  0
  -18.2059  -19.6666   24.1248 N   0  3  0  0  0  0  0  0  0  0  0  0
  -22.6607  -14.7188   21.3147 O   0  0  0  0  0  0  0  0  0  0  0  0
  -31.2834  -21.2171   23.8066 O   0  0  0  0  0  0  0  0  0  0  0  0
  -24.3300  -16.4525   29.3728 O   0  0  0  0  0  0  0  0  0  0  0  0
  -19.9349  -16.1917   28.6179 O   0  0  0  0  0  0  0  0  0  0  0  0
  -20.5138  -18.0664   24.2969 O   0  0  0  0  0  0  0  0  0  0  0  0
  -31.8549  -14.9382   20.1825 O   0  0  0  0  0  0  0  0  0  0  0  0
  -21.6147   -7.0159   21.7116 O   0  0  0  0  0  0  0  0  0  0  0  0
  -26.6495  -20.5692   25.8592 O   0  0  0  0  0  0  0  0  0  1  0  0
  -18.6236   -6.8485   26.3408 F   0  0  0  0  0  0  0  0  0  0  0  0
  -19.6224   -8.8743   22.1810 F   0  0  0  0  0  0  0  0  0  0  0  0
  -28.9632  -22.8952   23.2776 F   0  0  0  0  0  0  0  0  0  0  0  0
  -27.0062  -22.0573   23.7337 F   0  0  0  0  0  0  0  0  0  0  0  0
  -27.8070  -23.6775   24.9547 F   0  0  0  0  0  0  0  0  0  0  0  0
  -29.5200  -17.8627   22.9050 S   0  0  0  0  0  0  0  0  0  0  0  0
  1  2  1  0  0  0  0
  1  5  2  0  0  0  0
  2  6  2  0  0  0  0
  3  8  2  0  0  0  0
  3 15  1  0  0  0  0
  4  9  1  0  0  0  0
  4 15  2  0  0  0  0
  5 17  1  0  0  0  0
  6 19  1  0  0  0  0
  7 10  2  0  0  0  0
  7 18  1  0  0  0  0
  8 21  1  0  0  0  0
  9 21  2  0  0  0  0
 10 22  1  0  0  0  0
 11 12  2  0  0  0  0
 11 23  1  0  0  0  0
 12 24  1  0  0  0  0
 13 20  1  0  0  0  0
 13 22  2  0  0  0  0
 14 24  2  0  0  0  0
 14 25  1  0  0  0  0
 15 26  1  0  0  0  0
 16 26  1  0  0  0  0
 16 29  2  0  0  0  0
 16 31  1  0  0  0  0
 17 19  2  0  0  0  0
 17 37  1  0  0  0  0
 18 20  2  0  0  0  0
 18 38  1  0  0  0  0
 19 46  1  0  0  0  0
 20 39  1  0  0  0  0
 21 80  1  0  0  0  0
 22 81  1  0  0  0  0
 23 25  2  0  0  0  0
 23 80  1  0  0  0  0
 24 82  1  0  0  0  0
 25 83  1  0  0  0  0
 26 61  2  0  0  0  0
 27 28  2  0  0  0  0
 27 32  1  0  0  0  0
 27 87  1  0  0  0  0
 28 62  1  0  0  0  0
 28 66  1  0  0  0  0
 29 63  1  0  0  0  0
 29 67  1  0  0  0  0
 30 62  2  0  0  0  0
 30 69  1  0  0  0  0
 30 87  1  0  0  0  0
 31 68  1  0  0  0  0
 31 74  2  0  0  0  0
 32 70  1  0  0  0  0
 32 75  2  0  0  0  0
 33 47  1  0  0  0  0
 33 71  1  0  0  0  0
 33 76  2  0  0  0  0
 34 55  1  0  0  0  0
 34 64  1  0  0  0  0
 34 77  2  0  0  0  0
 35 56  1  0  0  0  0
 35 72  1  0  0  0  0
 35 78  2  0  0  0  0
 36 65  1  0  0  0  0
 36 69  1  0  0  0  0
 36 79  2  0  0  0  0
 37 40  1  0  0  0  0
 38 47  1  0  0  0  0
 39 64  1  0  0  0  0
 40 42  1  0  0  0  0
 41 43  1  0  0  0  0
 41 44  1  0  0  0  0
 42 46  1  0  0  0  0
 43 48  1  0  0  0  0
 44 65  1  0  0  0  0
 45 48  1  0  0  0  0
 45 65  1  0  0  0  0
 46 71  1  0  0  0  0
 47 64  1  0  0  0  0
 48 63  1  0  0  0  0
 49 56  1  0  0  0  0
 50 58  1  0  0  0  0
 51 59  1  0  0  0  0
 52 59  1  0  0  0  0
 53 59  1  0  0  0  0
 54 73  1  0  0  0  0
 55 59  1  0  0  0  0
 55 72  1  0  0  0  0
 56 73  1  0  0  0  0
 57 58  1  0  0  0  0
 57 60  1  0  0  0  0
 57 70  1  0  0  0  0
 58 81  1  0  0  0  0
 60 84  1  0  0  0  0
 60 85  1  0  0  0  0
 60 86  1  0  0  0  0
 61 63  1  0  0  0  0
M  CHG  1  73   1
M  ISO  4  36 100  58 101  69 100  81 101
M  END
> <Batch ID>
0181

> <Smiles>
CNC(C)C(=O)NC(C(=O)N1Cc2cc([101O:1][101CH:1](C)C(NC(=O)c3sc([100NH:0][100C:0](=O)N4CCCC(n5nc(-c6ccc(Oc7ccc(F)cc7F)cc6)c(C(N)=O)c5N)C4)nc3N)C(F)(F)F)ccc2CC1C(=O)NC1CCCc2ccccc21)C(C)(C)C

> <Shape>
0.161

> <Color>
0.180

> <Negative vol penalty>
0.000

$$$$

  -OEChem-04052304533D

 87 95  0     1  0  0  0  0  0999 V2000
  -17.2960  -26.4187   22.5327 C   0  0  0  0  0  0  0  0  0  0  0  0
  -18.5832  -25.9095   22.3939 C   0  0  0  0  0  0  0  0  0  0  0  0
  -25.2087  -16.7373   21.6636 C   0  0  0  0  0  0  0  0  0  0  0  0
  -27.1747  -17.4456   20.4511 C   0  0  0  0  0  0  0  0  0  0  0  0
  -17.0460  -27.7628   22.2592 C   0  0  0  0  0  0  0  0  0  0  0  0
  -19.6210  -26.7440   21.9803 C   0  0  0  0  0  0  0  0  0  0  0  0
  -25.4767  -26.4934   23.7562 C   0  0  0  0  0  0  0  0  0  0  0  0
  -25.3347  -15.4586   21.1209 C   0  0  0  0  0  0  0  0  0  0  0  0
  -27.3007  -16.1669   19.9084 C   0  0  0  0  0  0  0  0  0  0  0  0
  -26.6122  -25.9378   23.1682 C   0  0  0  0  0  0  0  0  0  0  0  0
  -28.3496  -12.9902   18.4848 C   0  0  0  0  0  0  0  0  0  0  0  0
  -29.6200  -12.4146   18.4673 C   0  0  0  0  0  0  0  0  0  0  0  0
  -27.1761  -28.0906   22.2373 C   0  0  0  0  0  0  0  0  0  0  0  0
  -29.7228  -12.5683   20.8762 C   0  0  0  0  0  0  0  0  0  0  0  0
  -27.0313  -27.4557   16.9086 C   0  0  0  0  0  0  0  0  0  0  0  0
  -26.1287  -17.7309   21.3287 C   0  0  0  0  0  0  0  0  0  0  0  0
  -26.5662  -19.5276   23.0859 C   0  0  0  0  0  0  0  0  0  0  0  0
  -18.0831  -28.6164   21.8514 C   0  0  0  0  0  0  0  0  0  0  0  0
  -25.1760  -27.8516   23.5798 C   0  0  0  0  0  0  0  0  0  0  0  0
  -19.3844  -28.1005   21.6998 C   0  0  0  0  0  0  0  0  0  0  0  0
  -26.0376  -28.6615   22.8262 C   0  0  0  0  0  0  0  0  0  0  0  0
  -26.3807  -15.1733   20.2433 C   0  0  0  0  0  0  0  0  0  0  0  0
  -27.4606  -26.7357   22.4063 C   0  0  0  0  0  0  0  0  0  0  0  0
  -27.7658  -13.3549   19.6980 C   0  0  0  0  0  0  0  0  0  0  0  0
  -30.3066  -12.2036   19.6630 C   0  0  0  0  0  0  0  0  0  0  0  0
  -28.4523  -13.1440   20.8937 C   0  0  0  0  0  0  0  0  0  0  0  0
  -25.9988  -19.0522   21.8885 C   0  0  0  0  0  0  0  0  0  0  0  0
  -27.9051  -25.3124   17.5758 C   0  0  0  0  0  0  0  0  0  0  0  0
  -26.6017  -25.5712   17.9449 C   0  0  0  0  0  0  0  0  0  0  0  0
  -26.1482  -20.8333   23.1692 C   0  0  0  0  0  0  0  0  0  0  0  0
  -27.3970  -18.8497   24.0377 C   0  0  0  0  0  0  0  0  0  0  0  0
  -22.7705  -29.4649   22.2704 C   0  0  0  0  0  0  0  0  0  0  0  0
  -24.3473  -32.0302   23.4768 C   0  0  0  0  0  0  0  0  0  0  0  0
  -27.2940  -33.3800   24.5454 C   0  0  0  0  0  0  0  0  0  0  0  0
  -30.0224  -24.6842   19.8675 C   0  0  0  0  0  0  0  0  0  0  0  0
  -24.4696  -24.8512   19.0773 C   0  0  0  0  0  0  0  0  0  0  0  0
  -17.7552  -30.0511   21.5215 C   0  0  0  0  0  0  0  0  0  0  0  0
  -23.9616  -28.4416   24.2428 C   0  0  0  0  0  0  0  0  0  0  0  0
  -25.7704  -30.1298   22.6232 C   0  0  0  0  0  0  0  0  0  0  0  0
  -18.9829  -30.9555   21.4495 C   0  0  0  0  0  0  0  0  0  0  0  0
  -22.5503  -23.7049   21.8485 C   0  0  0  0  0  0  0  0  0  0  0  0
  -20.0862  -30.2935   20.6302 C   0  0  0  0  0  0  0  0  0  0  0  0
  -23.2720  -22.4282   22.2860 C   0  0  0  0  0  0  0  0  0  0  0  0
  -22.5608  -23.8702   20.3298 C   0  0  0  0  0  0  0  0  0  0  0  0
  -24.6094  -22.5146   20.1434 C   0  0  0  0  0  0  0  0  0  0  0  0
  -20.5413  -28.9798   21.2774 C   0  0  1  0  0  0  0  0  0  0  0  0
  -23.4773  -29.7229   23.5710 C   0  0  1  0  0  0  0  0  0  0  0  0
  -24.6815  -22.3379   21.6689 C   0  0  2  0  0  0  0  0  0  0  0  0
  -28.2762  -35.5098   25.4377 C   0  0  0  0  0  0  0  0  0  0  0  0
  -27.9700  -22.8727   15.7191 C   0  0  0  0  0  0  0  0  0  0  0  0
  -29.0681  -21.5758   17.5458 C   0  0  0  0  0  0  0  0  0  0  0  0
  -24.2760  -33.2344   20.6742 C   0  0  0  0  0  0  0  0  0  0  0  0
  -26.0481  -34.8481   21.3980 C   0  0  0  0  0  0  0  0  0  0  0  0
  -23.8200  -34.8594   22.5197 C   0  0  0  0  0  0  0  0  0  0  0  0
  -28.1072  -32.0805   27.0770 C   0  0  0  0  0  0  0  0  0  0  0  0
  -28.8024  -24.8050   22.0489 C   0  0  0  0  0  0  0  0  0  1  0  0
  -28.7699  -24.0883   17.8182 C   0  0  2  0  0  0  0  0  0  0  0  0
  -25.4247  -32.9582   22.9699 C   0  0  1  0  0  0  0  0  0  0  0  0
  -27.6458  -34.1719   25.7918 C   0  0  2  0  0  0  0  0  0  0  0  0
  -28.1703  -22.7824   17.2373 C   0  0  0  0  0  0  0  0  0  0  0  0
  -30.0931  -24.4085   21.3531 C   0  0  0  0  0  0  0  0  0  0  0  0
  -24.8964  -33.9469   21.8925 C   0  0  0  0  0  0  0  0  0  0  0  0
  -26.0990  -26.7999   17.5635 N   0  0  0  0  0  0  0  0  0  0  0  0
  -25.2753  -19.9802   21.2566 N   0  0  0  0  0  0  0  0  0  0  0  0
  -25.3852  -21.0519   22.0601 N   0  0  0  0  0  0  0  0  0  0  0  0
  -24.5671  -30.6586   23.2865 N   0  0  0  0  0  0  0  0  0  0  0  0
  -23.9293  -23.7777   19.8165 N   0  0  0  0  0  0  0  0  0  0  0  0
  -26.3624  -21.8042   24.0824 N   0  0  0  0  0  0  0  0  0  0  0  0
  -27.7311  -17.5098   23.7982 N   0  0  0  0  0  0  0  0  0  0  0  0
  -25.7897  -24.6634   18.6691 N   0  0  0  0  0  0  0  0  0  0  0  0
  -21.4125  -29.2457   22.4020 N   0  0  0  0  0  0  0  0  0  0  0  0
  -29.0015  -23.9919   19.2394 N   0  0  0  0  0  0  0  0  0  0  0  0
  -25.9932  -33.6054   24.1473 N   0  0  0  0  0  0  0  0  0  0  0  0
  -28.6072  -33.4083   26.6365 N   0  3  0  0  0  0  0  0  0  0  0  0
  -27.8167  -19.4105   25.0784 O   0  0  0  0  0  0  0  0  0  0  0  0
  -23.4095  -29.4662   21.2249 O   0  0  0  0  0  0  0  0  0  0  0  0
  -23.3508  -32.5044   24.0280 O   0  0  0  0  0  0  0  0  0  0  0  0
  -28.0942  -32.6386   23.9793 O   0  0  0  0  0  0  0  0  0  0  0  0
  -30.8206  -25.4336   19.3093 O   0  0  0  0  0  0  0  0  0  0  0  0
  -23.8190  -25.8741   18.8484 O   0  0  0  0  0  0  0  0  0  0  0  0
  -26.5041  -13.9256   19.7137 O   0  0  0  0  0  0  0  0  0  0  0  0
  -28.5692  -26.1958   21.8307 O   0  0  0  0  0  0  0  0  0  1  0  0
  -31.5259  -11.6494   19.6462 F   0  0  0  0  0  0  0  0  0  0  0  0
  -27.8961  -13.4912   22.0624 F   0  0  0  0  0  0  0  0  0  0  0  0
  -30.3263  -23.0867   21.5803 F   0  0  0  0  0  0  0  0  0  0  0  0
  -31.1293  -25.0801   21.9253 F   0  0  0  0  0  0  0  0  0  0  0  0
  -28.5362  -26.6542   16.7141 S   0  0  0  0  0  0  0  0  0  0  0  0
  1  2  1  0  0  0  0
  1  5  2  0  0  0  0
  2  6  2  0  0  0  0
  3  8  2  0  0  0  0
  3 16  1  0  0  0  0
  4  9  1  0  0  0  0
  4 16  2  0  0  0  0
  5 18  1  0  0  0  0
  6 20  1  0  0  0  0
  7 10  2  0  0  0  0
  7 19  1  0  0  0  0
  8 22  1  0  0  0  0
  9 22  2  0  0  0  0
 10 23  1  0  0  0  0
 11 12  2  0  0  0  0
 11 24  1  0  0  0  0
 12 25  1  0  0  0  0
 13 21  1  0  0  0  0
 13 23  2  0  0  0  0
 14 25  2  0  0  0  0
 14 26  1  0  0  0  0
 15 63  2  0  0  0  0
 15 87  1  0  0  0  0
 16 27  1  0  0  0  0
 17 27  1  0  0  0  0
 17 30  2  0  0  0  0
 17 31  1  0  0  0  0
 18 20  2  0  0  0  0
 18 37  1  0  0  0  0
 19 21  2  0  0  0  0
 19 38  1  0  0  0  0
 20 46  1  0  0  0  0
 21 39  1  0  0  0  0
 22 81  1  0  0  0  0
 23 82  1  0  0  0  0
 24 26  2  0  0  0  0
 24 81  1  0  0  0  0
 25 83  1  0  0  0  0
 26 84  1  0  0  0  0
 27 64  2  0  0  0  0
 28 29  2  0  0  0  0
 28 57  1  0  0  0  0
 28 87  1  0  0  0  0
 29 63  1  0  0  0  0
 29 70  1  0  0  0  0
 30 65  1  0  0  0  0
 30 68  1  0  0  0  0
 31 69  1  0  0  0  0
 31 75  2  0  0  0  0
 32 47  1  0  0  0  0
 32 71  1  0  0  0  0
 32 76  2  0  0  0  0
 33 58  1  0  0  0  0
 33 66  1  0  0  0  0
 33 77  2  0  0  0  0
 34 59  1  0  0  0  0
 34 73  1  0  0  0  0
 34 78  2  0  0  0  0
 35 61  1  0  0  0  0
 35 72  1  0  0  0  0
 35 79  2  0  0  0  0
 36 67  1  0  0  0  0
 36 70  1  0  0  0  0
 36 80  2  0  0  0  0
 37 40  1  0  0  0  0
 38 47  1  0  0  0  0
 39 66  1  0  0  0  0
 40 42  1  0  0  0  0
 41 43  1  0  0  0  0
 41 44  1  0  0  0  0
 42 46  1  0  0  0  0
 43 48  1  0  0  0  0
 44 67  1  0  0  0  0
 45 48  1  0  0  0  0
 45 67  1  0  0  0  0
 46 71  1  0  0  0  0
 47 66  1  0  0  0  0
 48 65  1  0  0  0  0
 49 59  1  0  0  0  0
 50 60  1  0  0  0  0
 51 60  1  0  0  0  0
 52 62  1  0  0  0  0
 53 62  1  0  0  0  0
 54 62  1  0  0  0  0
 55 74  1  0  0  0  0
 56 61  1  0  0  0  0
 56 82  1  0  0  0  0
 57 60  1  0  0  0  0
 57 72  1  0  0  0  0
 58 62  1  0  0  0  0
 58 73  1  0  0  0  0
 59 74  1  0  0  0  0
 61 85  1  0  0  0  0
 61 86  1  0  0  0  0
 64 65  1  0  0  0  0
M  CHG  1  74   1
M  ISO  4  36 100  56 101  70 100  82 101
M  END
> <Batch ID>
0181

> <Smiles>
CNC(C)C(=O)NC(C(=O)N1Cc2cc([101O:1][101CH2:1]C(F)(F)C(=O)NC(c3scnc3[100NH:0][100C:0](=O)N3CCCC(n4nc(-c5ccc(Oc6ccc(F)cc6F)cc5)c(C(N)=O)c4N)C3)C(C)C)ccc2CC1C(=O)NC1CCCc2ccccc21)C(C)(C)C

> <Shape>
0.235

> <Color>
0.091

> <Negative vol penalty>
0.000

$$$$

  -OEChem-04052304533D

 86 94  0     1  0  0  0  0  0999 V2000
  -25.9474  -36.6314   25.9658 C   0  0  0  0  0  0  0  0  0  0  0  0
  -26.9894  -36.3422   25.0905 C   0  0  0  0  0  0  0  0  0  0  0  0
  -24.5373   -9.7150   21.4514 C   0  0  0  0  0  0  0  0  0  0  0  0
  -24.8783  -10.8074   23.5792 C   0  0  0  0  0  0  0  0  0  0  0  0
  -25.1440  -35.6026   26.4557 C   0  0  0  0  0  0  0  0  0  0  0  0
  -27.2292  -35.0236   24.7055 C   0  0  0  0  0  0  0  0  0  0  0  0
  -29.5559  -31.1703   19.1328 C   0  0  0  0  0  0  0  0  0  0  0  0
  -24.2490   -8.5203   22.1110 C   0  0  0  0  0  0  0  0  0  0  0  0
  -24.5899   -9.6127   24.2388 C   0  0  0  0  0  0  0  0  0  0  0  0
  -30.4914  -30.1849   18.8202 C   0  0  0  0  0  0  0  0  0  0  0  0
  -21.6265   -7.1471   23.7449 C   0  0  0  0  0  0  0  0  0  0  0  0
  -20.5225   -6.4154   23.3077 C   0  0  0  0  0  0  0  0  0  0  0  0
  -27.2917  -20.0180   21.1277 C   0  0  0  0  0  0  0  0  0  0  0  0
  -28.2553  -22.1433   20.5458 C   0  0  0  0  0  0  0  0  0  0  0  0
  -28.9892  -28.4985   19.6679 C   0  0  0  0  0  0  0  0  0  0  0  0
  -21.9628   -4.5413   22.8074 C   0  0  0  0  0  0  0  0  0  0  0  0
  -24.8521  -10.8586   22.1855 C   0  0  0  0  0  0  0  0  0  0  0  0
  -27.1995  -21.4040   21.0673 C   0  0  0  0  0  0  0  0  0  0  0  0
  -24.2404  -13.1006   21.1335 C   0  0  0  0  0  0  0  0  0  0  0  0
  -25.3681  -34.2719   26.0688 C   0  0  0  0  0  0  0  0  0  0  0  0
  -28.3325  -30.8277   19.7263 C   0  0  0  0  0  0  0  0  0  0  0  0
  -26.4290  -33.9758   25.1917 C   0  0  0  0  0  0  0  0  0  0  0  0
  -28.0389  -29.4812   19.9848 C   0  0  0  0  0  0  0  0  0  0  0  0
  -24.2753   -8.4691   23.5046 C   0  0  0  0  0  0  0  0  0  0  0  0
  -30.2093  -28.8491   19.0904 C   0  0  0  0  0  0  0  0  0  0  0  0
  -22.8987   -6.5760   23.7134 C   0  0  0  0  0  0  0  0  0  0  0  0
  -20.6906   -5.1125   22.8389 C   0  0  0  0  0  0  0  0  0  0  0  0
  -23.0668   -5.2731   23.2446 C   0  0  0  0  0  0  0  0  0  0  0  0
  -25.1506  -12.0929   21.5047 C   0  0  0  0  0  0  0  0  0  0  0  0
  -28.4517  -19.4240   20.6574 C   0  0  0  0  0  0  0  0  0  0  0  0
  -29.3724  -21.4542   20.1017 C   0  0  0  0  0  0  0  0  0  0  0  0
  -25.0154  -14.0546   20.5205 C   0  0  0  0  0  0  0  0  0  0  0  0
  -26.0037  -22.0777   21.5477 C   0  0  0  0  0  0  0  0  0  0  0  0
  -22.8211  -13.1684   21.3256 C   0  0  0  0  0  0  0  0  0  0  0  0
  -31.6925  -24.1203   18.8772 C   0  0  0  0  0  0  0  0  0  0  0  0
  -31.8813  -25.6111   18.6758 C   0  0  0  0  0  0  0  0  0  0  0  0
  -26.9122  -31.5035   22.4885 C   0  0  0  0  0  0  0  0  0  0  0  0
  -24.4218  -29.9131   21.1504 C   0  0  0  0  0  0  0  0  0  0  0  0
  -23.3410  -27.6125   18.8731 C   0  0  0  0  0  0  0  0  0  0  0  0
  -29.5994  -17.2084   20.3105 C   0  0  0  0  0  0  0  0  0  0  0  0
  -24.5030  -33.1880   26.6617 C   0  0  0  0  0  0  0  0  0  0  0  0
  -27.3231  -31.8998   20.0329 C   0  0  0  0  0  0  0  0  0  0  0  0
  -26.7317  -29.0589   20.6023 C   0  0  0  0  0  0  0  0  0  0  0  0
  -24.5885  -31.8616   25.9111 C   0  0  0  0  0  0  0  0  0  0  0  0
  -29.8442  -13.9031   19.0098 C   0  0  0  0  0  0  0  0  0  0  0  0
  -26.0432  -31.5038   25.6233 C   0  0  0  0  0  0  0  0  0  0  0  0
  -28.5700  -13.2204   19.5124 C   0  0  0  0  0  0  0  0  0  0  0  0
  -30.4117  -14.8753   20.0424 C   0  0  0  0  0  0  0  0  0  0  0  0
  -28.1847  -15.1906   21.0475 C   0  0  0  0  0  0  0  0  0  0  0  0
  -26.7052  -32.5610   24.7312 C   0  0  1  0  0  0  0  0  0  0  0  0
  -26.3213  -31.4877   21.1071 C   0  0  1  0  0  0  0  0  0  0  0  0
  -27.5400  -14.2503   20.0161 C   0  0  2  0  0  0  0  0  0  0  0  0
  -21.2537  -26.4973   18.0382 C   0  0  0  0  0  0  0  0  0  0  0  0
  -24.3653  -28.1569   23.6449 C   0  0  0  0  0  0  0  0  0  0  0  0
  -22.9564  -26.5214   22.3767 C   0  0  0  0  0  0  0  0  0  0  0  0
  -22.1129  -28.8318   22.7930 C   0  0  0  0  0  0  0  0  0  0  0  0
  -23.7231  -28.6828   16.1404 C   0  0  0  0  0  0  0  0  0  0  0  0
  -30.3995  -23.6434   19.4867 C   0  0  0  0  0  0  0  0  0  0  0  0
  -30.7661  -26.5370   19.0909 C   0  0  0  0  0  0  0  0  0  1  0  0
  -23.9684  -28.4736   21.1134 C   0  0  1  0  0  0  0  0  0  0  0  0
  -22.2196  -27.6569   17.8509 C   0  0  2  0  0  0  0  0  0  0  0  0
  -23.3763  -28.0038   22.4721 C   0  0  0  0  0  0  0  0  0  0  0  0
  -26.4077  -12.3798   21.1565 N   0  0  0  0  0  0  0  0  0  0  0  0
  -29.4982  -20.1089   20.1441 N   0  0  0  0  0  0  0  0  0  0  0  0
  -25.8491  -23.3684   21.5217 N   0  0  0  0  0  0  0  0  0  0  0  0
  -26.2930  -13.5786   20.5600 N   0  0  0  0  0  0  0  0  0  0  0  0
  -25.7798  -30.1447   20.8897 N   0  0  0  0  0  0  0  0  0  0  0  0
  -29.3809  -15.8236   20.4701 N   0  0  0  0  0  0  0  0  0  0  0  0
  -24.7220  -15.2456   19.9568 N   0  0  0  0  0  0  0  0  0  0  0  0
  -22.1831  -12.1024   21.9743 N   0  0  0  0  0  0  0  0  0  0  0  0
  -28.5362  -18.0111   20.7228 N   0  0  0  0  0  0  0  0  0  0  0  0
  -30.4173  -22.2046   19.5842 N   0  0  0  0  0  0  0  0  0  0  0  0
  -26.2965  -32.3876   23.3538 N   0  0  0  0  0  0  0  0  0  0  0  0
  -23.0445  -28.3653   19.9896 N   0  0  0  0  0  0  0  0  0  0  0  0
  -22.7747  -27.5877   16.4696 N   0  3  0  0  0  0  0  0  0  0  0  0
  -22.1367  -14.1378   20.9191 O   0  0  0  0  0  0  0  0  0  0  0  0
  -32.6125  -23.3906   18.5294 O   0  0  0  0  0  0  0  0  0  0  0  0
  -32.9372  -25.9841   18.1807 O   0  0  0  0  0  0  0  0  0  0  0  0
  -27.8559  -30.7670   22.7504 O   0  0  0  0  0  0  0  0  0  0  0  0
  -23.5999  -30.7999   21.3942 O   0  0  0  0  0  0  0  0  0  0  0  0
  -24.3749  -26.9709   18.7001 O   0  0  0  0  0  0  0  0  0  0  0  0
  -30.6411  -17.6484   19.8174 O   0  0  0  0  0  0  0  0  0  0  0  0
  -23.9937   -7.3035   24.1486 O   0  0  0  0  0  0  0  0  0  0  0  0
  -31.1208  -27.8853   18.7869 O   0  0  0  0  0  0  0  0  0  1  0  0
  -19.6301   -4.4093   22.4205 F   0  0  0  0  0  0  0  0  0  0  0  0
  -24.2864   -4.7186   23.2130 F   0  0  0  0  0  0  0  0  0  0  0  0
  1  2  1  0  0  0  0
  1  5  2  0  0  0  0
  2  6  2  0  0  0  0
  3  8  2  0  0  0  0
  3 17  1  0  0  0  0
  4  9  1  0  0  0  0
  4 17  2  0  0  0  0
  5 20  1  0  0  0  0
  6 22  1  0  0  0  0
  7 10  2  0  0  0  0
  7 21  1  0  0  0  0
  8 24  1  0  0  0  0
  9 24  2  0  0  0  0
 10 25  1  0  0  0  0
 11 12  2  0  0  0  0
 11 26  1  0  0  0  0
 12 27  1  0  0  0  0
 13 18  1  0  0  0  0
 13 30  2  0  0  0  0
 14 18  2  0  0  0  0
 14 31  1  0  0  0  0
 15 23  1  0  0  0  0
 15 25  2  0  0  0  0
 16 27  2  0  0  0  0
 16 28  1  0  0  0  0
 17 29  1  0  0  0  0
 18 33  1  0  0  0  0
 19 29  1  0  0  0  0
 19 32  2  0  0  0  0
 19 34  1  0  0  0  0
 20 22  2  0  0  0  0
 20 41  1  0  0  0  0
 21 23  2  0  0  0  0
 21 42  1  0  0  0  0
 22 50  1  0  0  0  0
 23 43  1  0  0  0  0
 24 83  1  0  0  0  0
 25 84  1  0  0  0  0
 26 28  2  0  0  0  0
 26 83  1  0  0  0  0
 27 85  1  0  0  0  0
 28 86  1  0  0  0  0
 29 63  2  0  0  0  0
 30 64  1  0  0  0  0
 30 71  1  0  0  0  0
 31 64  2  0  0  0  0
 31 72  1  0  0  0  0
 32 66  1  0  0  0  0
 32 69  1  0  0  0  0
 33 65  2  0  0  0  0
 34 70  1  0  0  0  0
 34 76  2  0  0  0  0
 35 36  1  0  0  0  0
 35 58  1  0  0  0  0
 35 77  2  0  0  0  0
 36 59  1  0  0  0  0
 36 78  2  0  0  0  0
 37 51  1  0  0  0  0
 37 73  1  0  0  0  0
 37 79  2  0  0  0  0
 38 60  1  0  0  0  0
 38 67  1  0  0  0  0
 38 80  2  0  0  0  0
 39 61  1  0  0  0  0
 39 74  1  0  0  0  0
 39 81  2  0  0  0  0
 40 68  1  0  0  0  0
 40 71  1  0  0  0  0
 40 82  2  0  0  0  0
 41 44  1  0  0  0  0
 42 51  1  0  0  0  0
 43 67  1  0  0  0  0
 44 46  1  0  0  0  0
 45 47  1  0  0  0  0
 45 48  1  0  0  0  0
 46 50  1  0  0  0  0
 47 52  1  0  0  0  0
 48 68  1  0  0  0  0
 49 52  1  0  0  0  0
 49 68  1  0  0  0  0
 50 73  1  0  0  0  0
 51 67  1  0  0  0  0
 52 66  1  0  0  0  0
 53 61  1  0  0  0  0
 54 62  1  0  0  0  0
 55 62  1  0  0  0  0
 56 62  1  0  0  0  0
 57 75  1  0  0  0  0
 58 72  1  0  0  0  0
 59 84  1  0  0  0  0
 60 62  1  0  0  0  0
 60 74  1  0  0  0  0
 61 75  1  0  0  0  0
 63 66  1  0  0  0  0
M  CHG  1  75   1
M  ISO  4  40 100  59 101  71 100  84 101
M  END
> <Batch ID>
0181

> <Smiles>
CNC(C)C(=O)NC(C(=O)N1Cc2cc([101O:1][101CH2:1]C(=O)C(=O)CNc3cc(C=N)cc([100NH:0][100C:0](=O)N4CCCC(n5nc(-c6ccc(Oc7ccc(F)cc7F)cc6)c(C(N)=O)c5N)C4)n3)ccc2CC1C(=O)NC1CCCc2ccccc21)C(C)(C)C

> <Shape>
0.345

> <Color>
0.108

> <Negative vol penalty>
0.000

$$$$

  -OEChem-04052304533D

 89 97  0     1  0  0  0  0  0999 V2000
  -20.5265  -20.8449   20.7407 C   0  0  0  0  0  0  0  0  0  0  0  0
  -21.6897  -20.6670   19.9986 C   0  0  0  0  0  0  0  0  0  0  0  0
  -25.7025  -30.2509   20.1721 C   0  0  0  0  0  0  0  0  0  0  0  0
  -25.1200  -28.6111   21.8482 C   0  0  0  0  0  0  0  0  0  0  0  0
  -20.2135  -19.9555   21.7679 C   0  0  0  0  0  0  0  0  0  0  0  0
  -22.5411  -19.6002   20.2839 C   0  0  0  0  0  0  0  0  0  0  0  0
  -27.0345  -15.0324   17.0806 C   0  0  0  0  0  0  0  0  0  0  0  0
  -28.4398  -19.8042   22.3572 C   0  0  0  0  0  0  0  0  0  0  0  0
  -24.4144  -30.7812   20.2434 C   0  0  0  0  0  0  0  0  0  0  0  0
  -23.8319  -29.1415   21.9195 C   0  0  0  0  0  0  0  0  0  0  0  0
  -28.3433  -14.5621   17.1785 C   0  0  0  0  0  0  0  0  0  0  0  0
  -20.9700  -28.9840   20.1262 C   0  0  0  0  0  0  0  0  0  0  0  0
  -19.9003  -28.0890   20.1360 C   0  0  0  0  0  0  0  0  0  0  0  0
  -28.4165  -21.0465   21.7332 C   0  0  0  0  0  0  0  0  0  0  0  0
  -27.6605  -13.0432   18.9238 C   0  0  0  0  0  0  0  0  0  0  0  0
  -19.2104  -28.9372   22.2905 C   0  0  0  0  0  0  0  0  0  0  0  0
  -26.0553  -29.1657   20.9745 C   0  0  0  0  0  0  0  0  0  0  0  0
  -28.5058  -28.9983   21.6635 C   0  0  0  0  0  0  0  0  0  0  0  0
  -21.0566  -18.8717   22.0596 C   0  0  0  0  0  0  0  0  0  0  0  0
  -26.0294  -14.5185   17.9125 C   0  0  0  0  0  0  0  0  0  0  0  0
  -22.2398  -18.6963   21.3168 C   0  0  0  0  0  0  0  0  0  0  0  0
  -26.3392  -13.5069   18.8327 C   0  0  0  0  0  0  0  0  0  0  0  0
  -29.0837  -18.7358   21.7429 C   0  0  0  0  0  0  0  0  0  0  0  0
  -23.4791  -30.2266   21.1170 C   0  0  0  0  0  0  0  0  0  0  0  0
  -28.6571  -13.5694   18.1022 C   0  0  0  0  0  0  0  0  0  0  0  0
  -21.1601  -29.8556   21.1986 C   0  0  0  0  0  0  0  0  0  0  0  0
  -19.0204  -28.0656   21.2182 C   0  0  0  0  0  0  0  0  0  0  0  0
  -20.2803  -29.8322   22.2807 C   0  0  0  0  0  0  0  0  0  0  0  0
  -27.3856  -28.6170   20.9009 C   0  0  0  0  0  0  0  0  0  0  0  0
  -29.0470  -21.1674   20.5053 C   0  0  0  0  0  0  0  0  0  0  0  0
  -29.6841  -18.9601   20.5145 C   0  0  0  0  0  0  0  0  0  0  0  0
  -29.5176  -28.1830   21.2186 C   0  0  0  0  0  0  0  0  0  0  0  0
  -28.6214  -29.9999   22.6829 C   0  0  0  0  0  0  0  0  0  0  0  0
  -24.1181  -15.7403   20.1391 C   0  0  0  0  0  0  0  0  0  0  0  0
  -22.7958  -12.7789   20.0749 C   0  0  0  0  0  0  0  0  0  0  0  0
  -31.0036  -17.8905   18.6548 C   0  0  0  0  0  0  0  0  0  0  0  0
  -23.1586   -9.4586   19.3743 C   0  0  0  0  0  0  0  0  0  0  0  0
  -29.5825  -22.7874   18.6519 C   0  0  0  0  0  0  0  0  0  0  0  0
  -20.7005  -17.9641   23.2103 C   0  0  0  0  0  0  0  0  0  0  0  0
  -24.6170  -15.0175   17.7759 C   0  0  0  0  0  0  0  0  0  0  0  0
  -25.2924  -12.9077   19.7347 C   0  0  0  0  0  0  0  0  0  0  0  0
  -21.4653  -16.6430   23.2034 C   0  0  0  0  0  0  0  0  0  0  0  0
  -30.9637  -25.7910   17.3300 C   0  0  0  0  0  0  0  0  0  0  0  0
  -22.9497  -16.8869   22.9502 C   0  0  0  0  0  0  0  0  0  0  0  0
  -30.3095  -26.8909   18.1691 C   0  0  0  0  0  0  0  0  0  0  0  0
  -29.9979  -24.6411   17.0499 C   0  0  0  0  0  0  0  0  0  0  0  0
  -28.7015  -25.1660   19.0780 C   0  0  0  0  0  0  0  0  0  0  0  0
  -23.1761  -17.5369   21.5799 C   0  0  1  0  0  0  0  0  0  0  0  0
  -23.7779  -14.7866   19.0289 C   0  0  1  0  0  0  0  0  0  0  0  0
  -29.6554  -26.3158   19.4408 C   0  0  2  0  0  0  0  0  0  0  0  0
  -21.9164   -7.2799   19.4608 C   0  0  0  0  0  0  0  0  0  0  0  0
  -23.2142  -12.6631   23.0950 C   0  0  0  0  0  0  0  0  0  0  0  0
  -22.8605  -10.1873   22.9790 C   0  0  0  0  0  0  0  0  0  0  0  0
  -21.0269  -11.7402   22.3087 C   0  0  0  0  0  0  0  0  0  0  0  0
  -31.2738  -13.8963   16.3883 C   0  0  0  0  0  0  0  0  0  0  0  0
  -32.1989  -13.5944   18.7022 C   0  0  0  0  0  0  0  0  0  0  0  0
  -23.3657   -9.0911   16.4450 C   0  0  0  0  0  0  0  0  0  0  0  0
  -31.5733  -16.5116   18.3437 C   0  0  0  0  0  0  0  0  0  0  0  0
  -30.4896  -15.4356   18.2695 C   0  0  0  0  0  0  0  0  0  0  0  0
  -23.0434  -11.4815   20.8058 C   0  0  1  0  0  0  0  0  0  0  0  0
  -22.2762   -8.4881   18.6102 C   0  0  2  0  0  0  0  0  0  0  0  0
  -29.1068  -17.4053   22.4152 C   0  0  0  0  0  0  0  0  0  0  0  0
  -22.5566  -11.5305   22.2816 C   0  0  0  0  0  0  0  0  0  0  0  0
  -30.9809  -14.0257   17.8845 C   0  0  0  0  0  0  0  0  0  1  0  0
  -27.6596  -27.6359   20.0370 N   0  0  0  0  0  0  0  0  0  0  0  0
  -29.6824  -20.1526   19.8776 N   0  0  0  0  0  0  0  0  0  0  0  0
  -28.9636  -27.3939   20.2540 N   0  0  0  0  0  0  0  0  0  0  0  0
  -23.9274  -13.4333   19.5678 N   0  0  0  0  0  0  0  0  0  0  0  0
  -29.4205  -24.1443   18.3008 N   0  0  0  0  0  0  0  0  0  0  0  0
  -30.8183  -28.0712   21.5624 N   0  0  0  0  0  0  0  0  0  0  0  0
  -27.4838  -30.7470   23.0175 N   0  0  0  0  0  0  0  0  0  0  0  0
  -30.3426  -17.8800   19.8801 N   0  0  0  0  0  0  0  0  0  0  0  0
  -29.0189  -22.4379   19.8786 N   0  0  0  0  0  0  0  0  0  0  0  0
  -23.0673  -16.5491   20.5278 N   0  0  0  0  0  0  0  0  0  0  0  0
  -22.4171  -10.4355   20.0044 N   0  0  0  0  0  0  0  0  0  0  0  0
  -22.9744   -8.0085   17.3840 N   0  3  0  0  0  0  0  0  0  0  0  0
  -29.7054  -30.2368   23.2679 O   0  0  0  0  0  0  0  0  0  0  0  0
  -25.2497  -15.7412   20.6093 O   0  0  0  0  0  0  0  0  0  0  0  0
  -21.6403  -13.1928   19.9519 O   0  0  0  0  0  0  0  0  0  0  0  0
  -31.1408  -18.8404   17.8910 O   0  0  0  0  0  0  0  0  0  0  0  0
  -24.3829   -9.3578   19.4117 O   0  0  0  0  0  0  0  0  0  0  0  0
  -30.2010  -22.0000   17.9311 O   0  0  0  0  0  0  0  0  0  0  0  0
  -22.2222  -30.7441   21.1870 O   0  0  0  0  0  0  0  0  0  0  0  0
  -29.9339  -13.1090   18.2003 O   0  0  0  0  0  0  0  0  0  1  0  0
  -17.9923  -27.2071   21.2267 F   0  0  0  0  0  0  0  0  0  0  0  0
  -20.4570  -30.6679   23.3133 F   0  0  0  0  0  0  0  0  0  0  0  0
  -28.4599  -17.3880   23.6185 F   0  0  0  0  0  0  0  0  0  0  0  0
  -28.5216  -16.4118   21.6827 F   0  0  0  0  0  0  0  0  0  0  0  0
  -30.3741  -16.9698   22.6754 F   0  0  0  0  0  0  0  0  0  0  0  0
  1  2  1  0  0  0  0
  1  5  2  0  0  0  0
  2  6  2  0  0  0  0
  3  9  2  0  0  0  0
  3 17  1  0  0  0  0
  4 10  1  0  0  0  0
  4 17  2  0  0  0  0
  5 19  1  0  0  0  0
  6 21  1  0  0  0  0
  7 11  2  0  0  0  0
  7 20  1  0  0  0  0
  8 14  2  0  0  0  0
  8 23  1  0  0  0  0
  9 24  1  0  0  0  0
 10 24  2  0  0  0  0
 11 25  1  0  0  0  0
 12 13  2  0  0  0  0
 12 26  1  0  0  0  0
 13 27  1  0  0  0  0
 14 30  1  0  0  0  0
 15 22  1  0  0  0  0
 15 25  2  0  0  0  0
 16 27  2  0  0  0  0
 16 28  1  0  0  0  0
 17 29  1  0  0  0  0
 18 29  1  0  0  0  0
 18 32  2  0  0  0  0
 18 33  1  0  0  0  0
 19 21  2  0  0  0  0
 19 39  1  0  0  0  0
 20 22  2  0  0  0  0
 20 40  1  0  0  0  0
 21 48  1  0  0  0  0
 22 41  1  0  0  0  0
 23 31  2  0  0  0  0
 23 62  1  0  0  0  0
 24 83  1  0  0  0  0
 25 84  1  0  0  0  0
 26 28  2  0  0  0  0
 26 83  1  0  0  0  0
 27 85  1  0  0  0  0
 28 86  1  0  0  0  0
 29 65  2  0  0  0  0
 30 66  2  0  0  0  0
 30 73  1  0  0  0  0
 31 66  1  0  0  0  0
 31 72  1  0  0  0  0
 32 67  1  0  0  0  0
 32 70  1  0  0  0  0
 33 71  1  0  0  0  0
 33 77  2  0  0  0  0
 34 49  1  0  0  0  0
 34 74  1  0  0  0  0
 34 78  2  0  0  0  0
 35 60  1  0  0  0  0
 35 68  1  0  0  0  0
 35 79  2  0  0  0  0
 36 58  1  0  0  0  0
 36 72  1  0  0  0  0
 36 80  2  0  0  0  0
 37 61  1  0  0  0  0
 37 75  1  0  0  0  0
 37 81  2  0  0  0  0
 38 69  1  0  0  0  0
 38 73  1  0  0  0  0
 38 82  2  0  0  0  0
 39 42  1  0  0  0  0
 40 49  1  0  0  0  0
 41 68  1  0  0  0  0
 42 44  1  0  0  0  0
 43 45  1  0  0  0  0
 43 46  1  0  0  0  0
 44 48  1  0  0  0  0
 45 50  1  0  0  0  0
 46 69  1  0  0  0  0
 47 50  1  0  0  0  0
 47 69  1  0  0  0  0
 48 74  1  0  0  0  0
 49 68  1  0  0  0  0
 50 67  1  0  0  0  0
 51 61  1  0  0  0  0
 52 63  1  0  0  0  0
 53 63  1  0  0  0  0
 54 63  1  0  0  0  0
 55 64  1  0  0  0  0
 56 64  1  0  0  0  0
 57 76  1  0  0  0  0
 58 59  1  0  0  0  0
 59 64  1  0  0  0  0
 60 63  1  0  0  0  0
 60 75  1  0  0  0  0
 61 76  1  0  0  0  0
 62 87  1  0  0  0  0
 62 88  1  0  0  0  0
 62 89  1  0  0  0  0
 64 84  1  0  0  0  0
 65 67  1  0  0  0  0
M  CHG  1  76   1
M  ISO  4  38 100  64 101  73 100  84 101
M  END
> <Batch ID>
0181

> <Smiles>
CNC(C)C(=O)NC(C(=O)N1Cc2cc([101O:1][101C:1](C)(C)CCC(=O)Nc3nc([100NH:0][100C:0](=O)N4CCCC(n5nc(-c6ccc(Oc7ccc(F)cc7F)cc6)c(C(N)=O)c5N)C4)ccc3C(F)(F)F)ccc2CC1C(=O)NC1CCCc2ccccc21)C(C)(C)C

> <Shape>
0.285

> <Color>
0.050

> <Negative vol penalty>
0.000

$$$$

  -OEChem-04052304533D

 89 97  0     1  0  0  0  0  0999 V2000
  -36.3514  -31.9283   20.7012 C   0  0  0  0  0  0  0  0  0  0  0  0
  -35.2850  -31.0563   20.8962 C   0  0  0  0  0  0  0  0  0  0  0  0
  -23.0799   -9.8249   20.0449 C   0  0  0  0  0  0  0  0  0  0  0  0
  -23.7934   -9.9781   22.3480 C   0  0  0  0  0  0  0  0  0  0  0  0
  -36.1776  -33.2966   20.9046 C   0  0  0  0  0  0  0  0  0  0  0  0
  -34.0445  -31.5522   21.2958 C   0  0  0  0  0  0  0  0  0  0  0  0
  -30.2084  -29.5186   18.6893 C   0  0  0  0  0  0  0  0  0  0  0  0
  -22.3252   -8.6933   20.3539 C   0  0  0  0  0  0  0  0  0  0  0  0
  -23.0386   -8.8465   22.6571 C   0  0  0  0  0  0  0  0  0  0  0  0
  -29.8033  -28.2344   19.0504 C   0  0  0  0  0  0  0  0  0  0  0  0
  -19.3442   -8.0042   21.7931 C   0  0  0  0  0  0  0  0  0  0  0  0
  -18.0471   -7.9316   21.2852 C   0  0  0  0  0  0  0  0  0  0  0  0
  -27.9680  -29.1723   20.3039 C   0  0  0  0  0  0  0  0  0  0  0  0
  -18.6234   -5.9045   20.1036 C   0  0  0  0  0  0  0  0  0  0  0  0
  -31.7944  -17.6017   21.5038 C   0  0  0  0  0  0  0  0  0  0  0  0
  -23.8141  -10.4673   21.0419 C   0  0  0  0  0  0  0  0  0  0  0  0
  -24.1714  -12.9779   20.7652 C   0  0  0  0  0  0  0  0  0  0  0  0
  -34.9318  -33.8106   21.2975 C   0  0  0  0  0  0  0  0  0  0  0  0
  -29.5015  -30.6417   19.1425 C   0  0  0  0  0  0  0  0  0  0  0  0
  -33.8543  -32.9285   21.5059 C   0  0  0  0  0  0  0  0  0  0  0  0
  -28.3647  -30.4695   19.9451 C   0  0  0  0  0  0  0  0  0  0  0  0
  -22.3045   -8.2041   21.6600 C   0  0  0  0  0  0  0  0  0  0  0  0
  -28.6846  -28.0611   19.8602 C   0  0  0  0  0  0  0  0  0  0  0  0
  -20.2809   -7.0270   21.4562 C   0  0  0  0  0  0  0  0  0  0  0  0
  -17.6867   -6.8817   20.4405 C   0  0  0  0  0  0  0  0  0  0  0  0
  -19.9204   -5.9772   20.6115 C   0  0  0  0  0  0  0  0  0  0  0  0
  -24.5944  -11.6359   20.7232 C   0  0  0  0  0  0  0  0  0  0  0  0
  -25.2745  -13.6980   20.3765 C   0  0  0  0  0  0  0  0  0  0  0  0
  -30.5842  -16.9780   21.7241 C   0  0  0  0  0  0  0  0  0  0  0  0
  -30.8162  -19.1818   22.6685 C   0  0  0  0  0  0  0  0  0  0  0  0
  -22.8954  -13.5248   21.1236 C   0  0  0  0  0  0  0  0  0  0  0  0
  -30.2073  -33.1546   20.9566 C   0  0  0  0  0  0  0  0  0  0  0  0
  -27.2319  -34.1195   20.0974 C   0  0  0  0  0  0  0  0  0  0  0  0
  -29.8444  -22.7568   22.6833 C   0  0  0  0  0  0  0  0  0  0  0  0
  -24.1099  -33.2674   19.0141 C   0  0  0  0  0  0  0  0  0  0  0  0
  -30.7414  -14.7315   20.5950 C   0  0  0  0  0  0  0  0  0  0  0  0
  -34.8048  -35.2919   21.5509 C   0  0  0  0  0  0  0  0  0  0  0  0
  -29.9357  -32.0191   18.7221 C   0  0  0  0  0  0  0  0  0  0  0  0
  -27.5594  -31.6416   20.4413 C   0  0  0  0  0  0  0  0  0  0  0  0
  -33.3589  -35.7778   21.6109 C   0  0  0  0  0  0  0  0  0  0  0  0
  -29.6625  -12.1732   18.3660 C   0  0  0  0  0  0  0  0  0  0  0  0
  -32.5209  -34.8530   22.4879 C   0  0  0  0  0  0  0  0  0  0  0  0
  -28.2130  -11.9158   18.7840 C   0  0  0  0  0  0  0  0  0  0  0  0
  -30.5544  -12.4761   19.5688 C   0  0  0  0  0  0  0  0  0  0  0  0
  -28.6237  -13.2962   20.8608 C   0  0  0  0  0  0  0  0  0  0  0  0
  -32.4867  -33.4309   21.9152 C   0  0  1  0  0  0  0  0  0  0  0  0
  -29.4433  -33.1141   19.6634 C   0  0  1  0  0  0  0  0  0  0  0  0
  -27.6740  -13.0505   19.6770 C   0  0  2  0  0  0  0  0  0  0  0  0
  -21.8823  -34.2700   18.4396 C   0  0  0  0  0  0  0  0  0  0  0  0
  -26.6171  -34.4495   23.0677 C   0  0  0  0  0  0  0  0  0  0  0  0
  -24.1831  -34.5162   22.4852 C   0  0  0  0  0  0  0  0  0  0  0  0
  -25.7221  -36.2726   21.6083 C   0  0  0  0  0  0  0  0  0  0  0  0
  -27.6160  -24.0387   20.9754 C   0  0  0  0  0  0  0  0  0  0  0  0
  -24.2692  -32.3088   16.2186 C   0  0  0  0  0  0  0  0  0  0  0  0
  -30.0736  -23.7877   21.5872 C   0  0  0  0  0  0  0  0  0  0  0  0
  -29.3031  -25.8125   20.3262 C   0  0  0  0  0  0  0  0  0  1  0  0
  -30.5802  -20.4919   23.3885 C   0  0  1  0  0  0  0  0  0  0  0  0
  -25.8434  -33.9323   20.6595 C   0  0  1  0  0  0  0  0  0  0  0  0
  -23.2383  -33.8333   17.9074 C   0  0  2  0  0  0  0  0  0  0  0  0
  -25.6075  -34.7704   21.9476 C   0  0  0  0  0  0  0  0  0  0  0  0
  -28.9054  -24.7596   21.3675 C   0  0  1  0  0  0  0  0  0  0  0  0
  -31.5679  -20.7148   24.5242 C   0  0  0  0  0  0  0  0  0  0  0  0
  -31.9291  -18.8657   22.0443 N   0  0  0  0  0  0  0  0  0  0  0  0
  -25.8669  -11.5082   20.3381 N   0  0  0  0  0  0  0  0  0  0  0  0
  -26.2530  -12.7792   20.1344 N   0  0  0  0  0  0  0  0  0  0  0  0
  -28.0277  -32.9685   20.0083 N   0  0  0  0  0  0  0  0  0  0  0  0
  -29.9832  -13.5639   20.3658 N   0  0  0  0  0  0  0  0  0  0  0  0
  -25.4932  -15.0210   20.2215 N   0  0  0  0  0  0  0  0  0  0  0  0
  -21.8721  -12.6434   21.4984 N   0  0  0  0  0  0  0  0  0  0  0  0
  -30.0825  -15.7103   21.3383 N   0  0  0  0  0  0  0  0  0  0  0  0
  -31.5655  -33.3566   20.8015 N   0  0  0  0  0  0  0  0  0  0  0  0
  -30.5899  -21.6061   22.4697 N   0  0  0  0  0  0  0  0  0  0  0  0
  -24.9187  -34.2346   19.5722 N   0  0  0  0  0  0  0  0  0  0  0  0
  -23.0195  -32.8102   16.8461 N   0  3  0  0  0  0  0  0  0  0  0  0
  -22.6644  -14.7574   21.0961 O   0  0  0  0  0  0  0  0  0  0  0  0
  -29.6087  -33.0146   22.0166 O   0  0  0  0  0  0  0  0  0  0  0  0
  -27.5946  -35.2442   19.7436 O   0  0  0  0  0  0  0  0  0  0  0  0
  -29.1133  -22.9506   23.6508 O   0  0  0  0  0  0  0  0  0  0  0  0
  -24.0738  -32.0864   19.3523 O   0  0  0  0  0  0  0  0  0  0  0  0
  -31.8806  -14.8651   20.1407 O   0  0  0  0  0  0  0  0  0  0  0  0
  -21.5679   -7.1001   21.9619 O   0  0  0  0  0  0  0  0  0  0  0  0
  -28.2875  -26.8088   20.2147 O   0  0  0  0  0  0  0  0  0  1  0  0
  -16.4407   -6.8112   19.9540 F   0  0  0  0  0  0  0  0  0  0  0  0
  -20.8156   -5.0348   20.2853 F   0  0  0  0  0  0  0  0  0  0  0  0
  -28.6765  -25.4246   22.5391 F   0  0  0  0  0  0  0  0  0  0  0  0
  -31.4664  -19.7287   25.4453 F   0  0  0  0  0  0  0  0  0  0  0  0
  -32.8419  -20.7069   24.0716 F   0  0  0  0  0  0  0  0  0  0  0  0
  -31.3625  -21.8877   25.1599 F   0  0  0  0  0  0  0  0  0  0  0  0
  -29.5667  -18.0058   22.6458 S   0  0  0  0  0  0  0  0  0  0  0  0
  1  2  1  0  0  0  0
  1  5  2  0  0  0  0
  2  6  2  0  0  0  0
  3  8  2  0  0  0  0
  3 16  1  0  0  0  0
  4  9  1  0  0  0  0
  4 16  2  0  0  0  0
  5 18  1  0  0  0  0
  6 20  1  0  0  0  0
  7 10  2  0  0  0  0
  7 19  1  0  0  0  0
  8 22  1  0  0  0  0
  9 22  2  0  0  0  0
 10 23  1  0  0  0  0
 11 12  2  0  0  0  0
 11 24  1  0  0  0  0
 12 25  1  0  0  0  0
 13 21  1  0  0  0  0
 13 23  2  0  0  0  0
 14 25  2  0  0  0  0
 14 26  1  0  0  0  0
 15 29  2  0  0  0  0
 15 63  1  0  0  0  0
 16 27  1  0  0  0  0
 17 27  1  0  0  0  0
 17 28  2  0  0  0  0
 17 31  1  0  0  0  0
 18 20  2  0  0  0  0
 18 37  1  0  0  0  0
 19 21  2  0  0  0  0
 19 38  1  0  0  0  0
 20 46  1  0  0  0  0
 21 39  1  0  0  0  0
 22 81  1  0  0  0  0
 23 82  1  0  0  0  0
 24 26  2  0  0  0  0
 24 81  1  0  0  0  0
 25 83  1  0  0  0  0
 26 84  1  0  0  0  0
 27 64  2  0  0  0  0
 28 65  1  0  0  0  0
 28 68  1  0  0  0  0
 29 70  1  0  0  0  0
 29 89  1  0  0  0  0
 30 57  1  0  0  0  0
 30 63  2  0  0  0  0
 30 89  1  0  0  0  0
 31 69  1  0  0  0  0
 31 75  2  0  0  0  0
 32 47  1  0  0  0  0
 32 71  1  0  0  0  0
 32 76  2  0  0  0  0
 33 58  1  0  0  0  0
 33 66  1  0  0  0  0
 33 77  2  0  0  0  0
 34 55  1  0  0  0  0
 34 72  1  0  0  0  0
 34 78  2  0  0  0  0
 35 59  1  0  0  0  0
 35 73  1  0  0  0  0
 35 79  2  0  0  0  0
 36 67  1  0  0  0  0
 36 70  1  0  0  0  0
 36 80  2  0  0  0  0
 37 40  1  0  0  0  0
 38 47  1  0  0  0  0
 39 66  1  0  0  0  0
 40 42  1  0  0  0  0
 41 43  1  0  0  0  0
 41 44  1  0  0  0  0
 42 46  1  0  0  0  0
 43 48  1  0  0  0  0
 44 67  1  0  0  0  0
 45 48  1  0  0  0  0
 45 67  1  0  0  0  0
 46 71  1  0  0  0  0
 47 66  1  0  0  0  0
 48 65  1  0  0  0  0
 49 59  1  0  0  0  0
 50 60  1  0  0  0  0
 51 60  1  0  0  0  0
 52 60  1  0  0  0  0
 53 61  1  0  0  0  0
 54 74  1  0  0  0  0
 55 61  1  0  0  0  0
 56 61  1  0  0  0  0
 56 82  1  0  0  0  0
 57 62  1  0  0  0  0
 57 72  1  0  0  0  0
 58 60  1  0  0  0  0
 58 73  1  0  0  0  0
 59 74  1  0  0  0  0
 61 85  1  0  0  0  0
 62 86  1  0  0  0  0
 62 87  1  0  0  0  0
 62 88  1  0  0  0  0
 64 65  1  0  0  0  0
M  CHG  1  74   1
M  ISO  4  36 100  56 101  70 100  82 101
M  END
> <Batch ID>
0181

> <Smiles>
CNC(C)C(=O)NC(C(=O)N1Cc2cc([101O:1][101CH2:1]C(C)(F)CC(=O)NC(c3ncc([100NH:0][100C:0](=O)N4CCCC(n5nc(-c6ccc(Oc7ccc(F)cc7F)cc6)c(C(N)=O)c5N)C4)s3)C(F)(F)F)ccc2CC1C(=O)NC1CCCc2ccccc21)C(C)(C)C

> <Shape>
0.199

> <Color>
0.207

> <Negative vol penalty>
0.000

$$$$

  -OEChem-04052304533D

 83 91  0     1  0  0  0  0  0999 V2000
  -17.5682  -23.2466   26.8185 C   0  0  0  0  0  0  0  0  0  0  0  0
  -18.9077  -22.9030   26.9704 C   0  0  0  0  0  0  0  0  0  0  0  0
  -22.8968   -9.9789   20.0400 C   0  0  0  0  0  0  0  0  0  0  0  0
  -23.6585  -10.0043   22.3327 C   0  0  0  0  0  0  0  0  0  0  0  0
  -17.1684  -24.0259   25.7337 C   0  0  0  0  0  0  0  0  0  0  0  0
  -19.8481  -23.3376   26.0370 C   0  0  0  0  0  0  0  0  0  0  0  0
  -25.6655  -24.9090   27.1295 C   0  0  0  0  0  0  0  0  0  0  0  0
  -22.0858   -8.8795   20.3217 C   0  0  0  0  0  0  0  0  0  0  0  0
  -22.8475   -8.9049   22.6143 C   0  0  0  0  0  0  0  0  0  0  0  0
  -26.8666  -24.2150   26.9900 C   0  0  0  0  0  0  0  0  0  0  0  0
  -22.9392   -5.5573   22.1498 C   0  0  0  0  0  0  0  0  0  0  0  0
  -23.4933   -4.5175   22.8963 C   0  0  0  0  0  0  0  0  0  0  0  0
  -27.1915  -25.2246   24.8234 C   0  0  0  0  0  0  0  0  0  0  0  0
  -21.8074   -4.8396   24.5965 C   0  0  0  0  0  0  0  0  0  0  0  0
  -23.6832  -10.5412   21.0455 C   0  0  0  0  0  0  0  0  0  0  0  0
  -24.1748  -13.0372   20.8554 C   0  0  0  0  0  0  0  0  0  0  0  0
  -18.1058  -24.4783   24.7917 C   0  0  0  0  0  0  0  0  0  0  0  0
  -25.2122  -25.7591   26.1105 C   0  0  0  0  0  0  0  0  0  0  0  0
  -19.4602  -24.1225   24.9378 C   0  0  0  0  0  0  0  0  0  0  0  0
  -25.9856  -25.9302   24.9535 C   0  0  0  0  0  0  0  0  0  0  0  0
  -22.0611   -8.3426   21.6088 C   0  0  0  0  0  0  0  0  0  0  0  0
  -27.6284  -24.3705   25.8357 C   0  0  0  0  0  0  0  0  0  0  0  0
  -21.8191   -6.2384   22.6267 C   0  0  0  0  0  0  0  0  0  0  0  0
  -22.9274   -4.1586   24.1196 C   0  0  0  0  0  0  0  0  0  0  0  0
  -21.2532   -5.8795   23.8500 C   0  0  0  0  0  0  0  0  0  0  0  0
  -24.5216  -11.6765   20.7551 C   0  0  0  0  0  0  0  0  0  0  0  0
  -32.1483  -18.3609   22.1062 C   0  0  0  0  0  0  0  0  0  0  0  0
  -25.3093  -13.7098   20.4719 C   0  0  0  0  0  0  0  0  0  0  0  0
  -31.0715  -18.8137   22.8395 C   0  0  0  0  0  0  0  0  0  0  0  0
  -30.8057  -16.6522   21.8099 C   0  0  0  0  0  0  0  0  0  0  0  0
  -28.7647  -22.4563   25.1178 C   0  0  0  0  0  0  0  0  0  1  0  0
  -22.9379  -13.6393   21.2593 C   0  0  0  0  0  0  0  0  0  0  0  0
  -29.8558  -21.7037   24.9316 C   0  0  0  0  0  0  0  0  0  0  0  0
  -29.7102  -20.3586   24.2853 C   0  0  0  0  0  0  0  0  0  0  0  0
  -22.6563  -25.8331   24.2223 C   0  0  0  0  0  0  0  0  0  0  0  0
  -23.9066  -28.6790   23.2950 C   0  0  0  0  0  0  0  0  0  0  0  0
  -26.6603  -30.6712   22.9872 C   0  0  0  0  0  0  0  0  0  0  0  0
  -30.8283  -14.4319   20.6199 C   0  0  0  0  0  0  0  0  0  0  0  0
  -17.6189  -25.2788   23.6099 C   0  0  0  0  0  0  0  0  0  0  0  0
  -23.9276  -26.5212   26.2878 C   0  0  0  0  0  0  0  0  0  0  0  0
  -25.5532  -26.8465   23.8390 C   0  0  0  0  0  0  0  0  0  0  0  0
  -18.7345  -26.0124   22.8699 C   0  0  0  0  0  0  0  0  0  0  0  0
  -29.5690  -12.0241   18.3191 C   0  0  0  0  0  0  0  0  0  0  0  0
  -19.9195  -25.0818   22.6325 C   0  0  0  0  0  0  0  0  0  0  0  0
  -28.1151  -11.8310   18.7560 C   0  0  0  0  0  0  0  0  0  0  0  0
  -30.4977  -12.2312   19.5144 C   0  0  0  0  0  0  0  0  0  0  0  0
  -28.6390  -13.1061   20.8742 C   0  0  0  0  0  0  0  0  0  0  0  0
  -20.5137  -24.5956   23.9599 C   0  0  1  0  0  0  0  0  0  0  0  0
  -23.3085  -26.9643   24.9658 C   0  0  1  0  0  0  0  0  0  0  0  0
  -27.6561  -12.9586   19.7012 C   0  0  2  0  0  0  0  0  0  0  0  0
  -33.4246  -19.0769   21.9035 C   0  0  0  0  0  0  0  0  0  0  0  0
  -27.3754  -32.9292   22.1581 C   0  0  0  0  0  0  0  0  0  0  0  0
  -23.7391  -27.6734   20.4191 C   0  0  0  0  0  0  0  0  0  0  0  0
  -25.3010  -29.5149   19.7578 C   0  0  0  0  0  0  0  0  0  0  0  0
  -23.0697  -30.0629   20.7293 C   0  0  0  0  0  0  0  0  0  0  0  0
  -27.5799  -31.4960   25.6767 C   0  0  0  0  0  0  0  0  0  0  0  0
  -24.8768  -29.1234   22.2272 C   0  0  1  0  0  0  0  0  0  0  0  0
  -26.8990  -32.1240   23.3570 C   0  0  2  0  0  0  0  0  0  0  0  0
  -24.2541  -29.0748   20.8033 C   0  0  0  0  0  0  0  0  0  0  0  0
  -25.7780  -11.4938   20.3402 N   0  0  0  0  0  0  0  0  0  0  0  0
  -31.9978  -17.1215   21.5155 N   0  0  0  0  0  0  0  0  0  0  0  0
  -26.2306  -12.7486   20.1764 N   0  0  0  0  0  0  0  0  0  0  0  0
  -24.2867  -27.5649   24.0567 N   0  0  0  0  0  0  0  0  0  0  0  0
  -30.0022  -13.3174   20.3625 N   0  0  0  0  0  0  0  0  0  0  0  0
  -25.5986  -15.0238   20.3620 N   0  0  0  0  0  0  0  0  0  0  0  0
  -21.8740  -12.8018   21.6213 N   0  0  0  0  0  0  0  0  0  0  0  0
  -30.8477  -20.0035   23.5734 N   0  0  0  0  0  0  0  0  0  0  0  0
  -30.2383  -15.4163   21.4121 N   0  0  0  0  0  0  0  0  0  0  0  0
  -21.3310  -25.6301   24.5568 N   0  0  0  0  0  0  0  0  0  0  0  0
  -25.3485  -30.4443   22.6284 N   0  0  0  0  0  0  0  0  0  0  0  0
  -27.9293  -32.2231   24.4292 N   0  3  0  0  0  0  0  0  0  0  0  0
  -22.7755  -14.8829   21.2823 O   0  0  0  0  0  0  0  0  0  0  0  0
  -28.6798  -19.7062   24.4137 O   0  0  0  0  0  0  0  0  0  0  0  0
  -23.3068  -25.1929   23.4047 O   0  0  0  0  0  0  0  0  0  0  0  0
  -22.8535  -29.3019   23.4524 O   0  0  0  0  0  0  0  0  0  0  0  0
  -27.5497  -29.8232   23.0105 O   0  0  0  0  0  0  0  0  0  0  0  0
  -31.9649  -14.5200   20.1483 O   0  0  0  0  0  0  0  0  0  0  0  0
  -31.1166  -22.1177   25.3109 O   0  0  0  0  0  0  0  0  0  0  0  0
  -21.2697   -7.2700   21.8840 O   0  0  0  0  0  0  0  0  0  0  0  0
  -28.8008  -23.6937   25.6967 O   0  0  0  0  0  0  0  0  0  1  0  0
  -23.4587   -3.1590   24.8356 F   0  0  0  0  0  0  0  0  0  0  0  0
  -20.1765   -6.5293   24.3128 F   0  0  0  0  0  0  0  0  0  0  0  0
  -29.8132  -17.6493   22.7927 S   0  0  0  0  0  0  0  0  0  0  0  0
  1  2  1  0  0  0  0
  1  5  2  0  0  0  0
  2  6  2  0  0  0  0
  3  8  2  0  0  0  0
  3 15  1  0  0  0  0
  4  9  1  0  0  0  0
  4 15  2  0  0  0  0
  5 17  1  0  0  0  0
  6 19  1  0  0  0  0
  7 10  2  0  0  0  0
  7 18  1  0  0  0  0
  8 21  1  0  0  0  0
  9 21  2  0  0  0  0
 10 22  1  0  0  0  0
 11 12  2  0  0  0  0
 11 23  1  0  0  0  0
 12 24  1  0  0  0  0
 13 20  1  0  0  0  0
 13 22  2  0  0  0  0
 14 24  2  0  0  0  0
 14 25  1  0  0  0  0
 15 26  1  0  0  0  0
 16 26  1  0  0  0  0
 16 28  2  0  0  0  0
 16 32  1  0  0  0  0
 17 19  2  0  0  0  0
 17 39  1  0  0  0  0
 18 20  2  0  0  0  0
 18 40  1  0  0  0  0
 19 48  1  0  0  0  0
 20 41  1  0  0  0  0
 21 79  1  0  0  0  0
 22 80  1  0  0  0  0
 23 25  2  0  0  0  0
 23 79  1  0  0  0  0
 24 81  1  0  0  0  0
 25 82  1  0  0  0  0
 26 60  2  0  0  0  0
 27 29  2  0  0  0  0
 27 51  1  0  0  0  0
 27 61  1  0  0  0  0
 28 62  1  0  0  0  0
 28 65  1  0  0  0  0
 29 67  1  0  0  0  0
 29 83  1  0  0  0  0
 30 61  2  0  0  0  0
 30 68  1  0  0  0  0
 30 83  1  0  0  0  0
 31 33  2  0  0  0  0
 31 80  1  0  0  0  0
 32 66  1  0  0  0  0
 32 72  2  0  0  0  0
 33 34  1  0  0  0  0
 33 78  1  0  0  0  0
 34 67  1  0  0  0  0
 34 73  2  0  0  0  0
 35 49  1  0  0  0  0
 35 69  1  0  0  0  0
 35 74  2  0  0  0  0
 36 57  1  0  0  0  0
 36 63  1  0  0  0  0
 36 75  2  0  0  0  0
 37 58  1  0  0  0  0
 37 70  1  0  0  0  0
 37 76  2  0  0  0  0
 38 64  1  0  0  0  0
 38 68  1  0  0  0  0
 38 77  2  0  0  0  0
 39 42  1  0  0  0  0
 40 49  1  0  0  0  0
 41 63  1  0  0  0  0
 42 44  1  0  0  0  0
 43 45  1  0  0  0  0
 43 46  1  0  0  0  0
 44 48  1  0  0  0  0
 45 50  1  0  0  0  0
 46 64  1  0  0  0  0
 47 50  1  0  0  0  0
 47 64  1  0  0  0  0
 48 69  1  0  0  0  0
 49 63  1  0  0  0  0
 50 62  1  0  0  0  0
 52 58  1  0  0  0  0
 53 59  1  0  0  0  0
 54 59  1  0  0  0  0
 55 59  1  0  0  0  0
 56 71  1  0  0  0  0
 57 59  1  0  0  0  0
 57 70  1  0  0  0  0
 58 71  1  0  0  0  0
 60 62  1  0  0  0  0
M  CHG  1  71   1
M  ISO  4  31 101  38 100  68 100  80 101
M  END
> <Batch ID>
0181

> <Smiles>
CNC(C)C(=O)NC(C(=O)N1Cc2cc([101O:1][101CH2:1]C(=O)C(=O)Nc3sc([100NH:0][100C:0](=O)N4CCCC(n5nc(-c6ccc(Oc7ccc(F)cc7F)cc6)c(C(N)=O)c5N)C4)nc3C)ccc2CC1C(=O)NC1CCCc2ccccc21)C(C)(C)C

> <Shape>
0.273

> <Color>
0.198

> <Negative vol penalty>
0.000

$$$$

  -OEChem-04052304533D

 84 92  0     1  0  0  0  0  0999 V2000
  -28.4268  -36.4987   22.9394 C   0  0  0  0  0  0  0  0  0  0  0  0
  -28.8024  -35.2370   22.4896 C   0  0  0  0  0  0  0  0  0  0  0  0
  -24.7112   -9.3993   21.7867 C   0  0  0  0  0  0  0  0  0  0  0  0
  -23.2588  -10.7779   20.4350 C   0  0  0  0  0  0  0  0  0  0  0  0
  -27.3156  -36.6393   23.7696 C   0  0  0  0  0  0  0  0  0  0  0  0
  -28.0676  -34.1148   22.8708 C   0  0  0  0  0  0  0  0  0  0  0  0
  -26.9832  -29.1094   19.5130 C   0  0  0  0  0  0  0  0  0  0  0  0
  -23.6114   -8.9674   22.5280 C   0  0  0  0  0  0  0  0  0  0  0  0
  -22.1590  -10.3460   21.1763 C   0  0  0  0  0  0  0  0  0  0  0  0
  -27.5842  -27.8518   19.4828 C   0  0  0  0  0  0  0  0  0  0  0  0
  -21.0864   -6.7464   22.1749 C   0  0  0  0  0  0  0  0  0  0  0  0
  -20.9856   -5.3829   22.4507 C   0  0  0  0  0  0  0  0  0  0  0  0
  -25.8771  -27.0070   20.9631 C   0  0  0  0  0  0  0  0  0  0  0  0
  -21.0370   -5.8581   24.8190 C   0  0  0  0  0  0  0  0  0  0  0  0
  -24.5349  -10.3046   20.7402 C   0  0  0  0  0  0  0  0  0  0  0  0
  -26.1954  -10.1617   18.8088 C   0  0  0  0  0  0  0  0  0  0  0  0
  -26.5611  -35.5195   24.1534 C   0  0  0  0  0  0  0  0  0  0  0  0
  -25.8288  -29.3283   20.2784 C   0  0  0  0  0  0  0  0  0  0  0  0
  -26.9460  -34.2404   23.7081 C   0  0  0  0  0  0  0  0  0  0  0  0
  -25.2619  -28.2676   20.9993 C   0  0  0  0  0  0  0  0  0  0  0  0
  -22.3353   -9.4407   22.2228 C   0  0  0  0  0  0  0  0  0  0  0  0
  -27.0329  -26.8011   20.2102 C   0  0  0  0  0  0  0  0  0  0  0  0
  -21.1626   -7.6659   23.2212 C   0  0  0  0  0  0  0  0  0  0  0  0
  -20.9609   -4.9387   23.7728 C   0  0  0  0  0  0  0  0  0  0  0  0
  -21.1378   -7.2217   24.5432 C   0  0  0  0  0  0  0  0  0  0  0  0
  -25.6707  -10.7515   19.9745 C   0  0  0  0  0  0  0  0  0  0  0  0
  -27.0535  -19.9769   17.0668 C   0  0  0  0  0  0  0  0  0  0  0  0
  -27.2629  -10.9575   18.4720 C   0  0  0  0  0  0  0  0  0  0  0  0
  -25.8474  -19.5004   16.5975 C   0  0  0  0  0  0  0  0  0  0  0  0
  -27.0774  -18.0090   18.0347 C   0  0  0  0  0  0  0  0  0  0  0  0
  -25.7569   -8.9985   18.0944 C   0  0  0  0  0  0  0  0  0  0  0  0
  -27.6020  -21.3206   16.7341 C   0  0  0  0  0  0  0  0  0  0  0  0
  -25.0943  -31.1906   22.7475 C   0  0  0  0  0  0  0  0  0  0  0  0
  -22.1046  -30.0479   22.2202 C   0  0  0  0  0  0  0  0  0  0  0  0
  -20.1325  -27.5712   20.9460 C   0  0  0  0  0  0  0  0  0  0  0  0
  -28.5879  -16.6830   19.5533 C   0  0  0  0  0  0  0  0  0  0  0  0
  -25.3958  -35.7157   25.0906 C   0  0  0  0  0  0  0  0  0  0  0  0
  -25.1772  -30.6840   20.2792 C   0  0  0  0  0  0  0  0  0  0  0  0
  -24.0120  -28.4455   21.8206 C   0  0  0  0  0  0  0  0  0  0  0  0
  -24.4492  -34.5193   25.1444 C   0  0  0  0  0  0  0  0  0  0  0  0
  -30.5477  -13.8419   20.4277 C   0  0  0  0  0  0  0  0  0  0  0  0
  -25.2373  -33.2209   25.2851 C   0  0  0  0  0  0  0  0  0  0  0  0
  -29.5688  -12.6726   20.2987 C   0  0  0  0  0  0  0  0  0  0  0  0
  -29.8658  -15.0947   20.9745 C   0  0  0  0  0  0  0  0  0  0  0  0
  -27.6812  -14.3434   20.1188 C   0  0  0  0  0  0  0  0  0  0  0  0
  -26.1596  -33.0020   24.0797 C   0  0  1  0  0  0  0  0  0  0  0  0
  -24.2972  -30.9233   21.5021 C   0  0  1  0  0  0  0  0  0  0  0  0
  -28.3076  -13.0778   19.5109 C   0  0  2  0  0  0  0  0  0  0  0  0
  -30.0534  -21.3172   16.3431 C   0  0  0  0  0  0  0  0  0  0  0  0
  -17.7275  -26.8988   20.6992 C   0  0  0  0  0  0  0  0  0  0  0  0
  -22.0343  -29.2298   25.1588 C   0  0  0  0  0  0  0  0  0  0  0  0
  -20.0784  -27.7589   24.6305 C   0  0  0  0  0  0  0  0  0  0  0  0
  -19.9063  -30.2257   24.3020 C   0  0  0  0  0  0  0  0  0  0  0  0
  -20.3069  -27.6006   17.9917 C   0  0  0  0  0  0  0  0  0  0  0  0
  -28.2762  -23.7010   18.8066 C   0  0  0  0  0  0  0  0  0  0  0  0
  -28.9984  -23.2723   17.5270 C   0  0  0  0  0  0  0  0  0  0  0  0
  -28.3171  -25.2126   18.9922 C   0  0  0  0  0  0  0  0  0  1  0  0
  -28.9518  -21.7484   17.3103 C   0  0  1  0  0  0  0  0  0  0  0  0
  -21.3134  -28.8582   22.7077 C   0  0  1  0  0  0  0  0  0  0  0  0
  -18.9027  -27.6196   20.0573 C   0  0  2  0  0  0  0  0  0  0  0  0
  -20.8577  -29.0150   24.1859 C   0  0  0  0  0  0  0  0  0  0  0  0
  -26.3491  -11.8380   20.3528 N   0  0  0  0  0  0  0  0  0  0  0  0
  -27.7600  -19.1232   17.8914 N   0  0  0  0  0  0  0  0  0  0  0  0
  -27.3111  -11.9373   19.4196 N   0  0  0  0  0  0  0  0  0  0  0  0
  -23.4155  -29.7913   21.7943 N   0  0  0  0  0  0  0  0  0  0  0  0
  -28.6820  -15.4204   20.1760 N   0  0  0  0  0  0  0  0  0  0  0  0
  -28.1557  -10.9078   17.4607 N   0  0  0  0  0  0  0  0  0  0  0  0
  -24.6433   -8.2979   18.5776 N   0  0  0  0  0  0  0  0  0  0  0  0
  -27.4328  -16.8667   18.7940 N   0  0  0  0  0  0  0  0  0  0  0  0
  -25.4015  -32.5235   22.9436 N   0  0  0  0  0  0  0  0  0  0  0  0
  -20.2182  -28.6805   21.7604 N   0  0  0  0  0  0  0  0  0  0  0  0
  -19.1875  -26.9768   18.7433 N   0  3  0  0  0  0  0  0  0  0  0  0
  -26.3454   -8.5830   17.0675 O   0  0  0  0  0  0  0  0  0  0  0  0
  -26.9528  -22.0588   15.9946 O   0  0  0  0  0  0  0  0  0  0  0  0
  -25.4063  -30.2569   23.4772 O   0  0  0  0  0  0  0  0  0  0  0  0
  -21.5765  -31.1626   22.2107 O   0  0  0  0  0  0  0  0  0  0  0  0
  -20.9349  -26.6404   20.9228 O   0  0  0  0  0  0  0  0  0  0  0  0
  -29.4800  -17.5282   19.6619 O   0  0  0  0  0  0  0  0  0  0  0  0
  -21.2618   -9.0194   22.9457 O   0  0  0  0  0  0  0  0  0  0  0  0
  -27.6180  -25.5727   20.1830 O   0  0  0  0  0  0  0  0  0  1  0  0
  -20.8625   -3.6293   24.0375 F   0  0  0  0  0  0  0  0  0  0  0  0
  -21.2095   -8.1003   25.5525 F   0  0  0  0  0  0  0  0  0  0  0  0
  -25.0121  -20.1621   15.7922 F   0  0  0  0  0  0  0  0  0  0  0  0
  -25.5776  -17.9195   17.2055 S   0  0  0  0  0  0  0  0  0  0  0  0
  1  2  1  0  0  0  0
  1  5  2  0  0  0  0
  2  6  2  0  0  0  0
  3  8  2  0  0  0  0
  3 15  1  0  0  0  0
  4  9  1  0  0  0  0
  4 15  2  0  0  0  0
  5 17  1  0  0  0  0
  6 19  1  0  0  0  0
  7 10  2  0  0  0  0
  7 18  1  0  0  0  0
  8 21  1  0  0  0  0
  9 21  2  0  0  0  0
 10 22  1  0  0  0  0
 11 12  2  0  0  0  0
 11 23  1  0  0  0  0
 12 24  1  0  0  0  0
 13 20  1  0  0  0  0
 13 22  2  0  0  0  0
 14 24  2  0  0  0  0
 14 25  1  0  0  0  0
 15 26  1  0  0  0  0
 16 26  1  0  0  0  0
 16 28  2  0  0  0  0
 16 31  1  0  0  0  0
 17 19  2  0  0  0  0
 17 37  1  0  0  0  0
 18 20  2  0  0  0  0
 18 38  1  0  0  0  0
 19 46  1  0  0  0  0
 20 39  1  0  0  0  0
 21 79  1  0  0  0  0
 22 80  1  0  0  0  0
 23 25  2  0  0  0  0
 23 79  1  0  0  0  0
 24 81  1  0  0  0  0
 25 82  1  0  0  0  0
 26 62  2  0  0  0  0
 27 29  2  0  0  0  0
 27 32  1  0  0  0  0
 27 63  1  0  0  0  0
 28 64  1  0  0  0  0
 28 67  1  0  0  0  0
 29 83  1  0  0  0  0
 29 84  1  0  0  0  0
 30 63  2  0  0  0  0
 30 69  1  0  0  0  0
 30 84  1  0  0  0  0
 31 68  1  0  0  0  0
 31 73  2  0  0  0  0
 32 58  1  0  0  0  0
 32 74  2  0  0  0  0
 33 47  1  0  0  0  0
 33 70  1  0  0  0  0
 33 75  2  0  0  0  0
 34 59  1  0  0  0  0
 34 65  1  0  0  0  0
 34 76  2  0  0  0  0
 35 60  1  0  0  0  0
 35 71  1  0  0  0  0
 35 77  2  0  0  0  0
 36 66  1  0  0  0  0
 36 69  1  0  0  0  0
 36 78  2  0  0  0  0
 37 40  1  0  0  0  0
 38 47  1  0  0  0  0
 39 65  1  0  0  0  0
 40 42  1  0  0  0  0
 41 43  1  0  0  0  0
 41 44  1  0  0  0  0
 42 46  1  0  0  0  0
 43 48  1  0  0  0  0
 44 66  1  0  0  0  0
 45 48  1  0  0  0  0
 45 66  1  0  0  0  0
 46 70  1  0  0  0  0
 47 65  1  0  0  0  0
 48 64  1  0  0  0  0
 49 58  1  0  0  0  0
 50 60  1  0  0  0  0
 51 61  1  0  0  0  0
 52 61  1  0  0  0  0
 53 61  1  0  0  0  0
 54 72  1  0  0  0  0
 55 56  1  0  0  0  0
 55 57  1  0  0  0  0
 56 58  1  0  0  0  0
 57 80  1  0  0  0  0
 59 61  1  0  0  0  0
 59 71  1  0  0  0  0
 60 72  1  0  0  0  0
 62 64  1  0  0  0  0
M  CHG  1  72   1
M  ISO  4  36 100  57 101  69 100  80 101
M  END
> <Batch ID>
0181

> <Smiles>
CNC(C)C(=O)NC(C(=O)N1Cc2cc([101O:1][101CH2:1]CCC(C)C(=O)c3nc([100NH:0][100C:0](=O)N4CCCC(n5nc(-c6ccc(Oc7ccc(F)cc7F)cc6)c(C(N)=O)c5N)C4)sc3F)ccc2CC1C(=O)NC1CCCc2ccccc21)C(C)(C)C

> <Shape>
0.317

> <Color>
0.074

> <Negative vol penalty>
0.000

$$$$

  -OEChem-04052304533D

 87 95  0     1  0  0  0  0  0999 V2000
  -17.1736  -29.9153   22.7082 C   0  0  0  0  0  0  0  0  0  0  0  0
  -18.3977  -30.0004   22.0526 C   0  0  0  0  0  0  0  0  0  0  0  0
  -26.8619  -12.2163   21.8628 C   0  0  0  0  0  0  0  0  0  0  0  0
  -26.1169  -13.9322   20.3339 C   0  0  0  0  0  0  0  0  0  0  0  0
  -17.0969  -29.3131   23.9634 C   0  0  0  0  0  0  0  0  0  0  0  0
  -19.5459  -29.4844   22.6522 C   0  0  0  0  0  0  0  0  0  0  0  0
  -24.2857  -26.8145   19.8394 C   0  0  0  0  0  0  0  0  0  0  0  0
  -25.5743  -11.6807   21.8892 C   0  0  0  0  0  0  0  0  0  0  0  0
  -24.8292  -13.3966   20.3602 C   0  0  0  0  0  0  0  0  0  0  0  0
  -25.5369  -27.2922   19.4521 C   0  0  0  0  0  0  0  0  0  0  0  0
  -22.5673   -9.6466   22.0769 C   0  0  0  0  0  0  0  0  0  0  0  0
  -22.4384   -8.2620   21.9674 C   0  0  0  0  0  0  0  0  0  0  0  0
  -26.4922  -26.4252   21.4904 C   0  0  0  0  0  0  0  0  0  0  0  0
  -23.5224   -8.3319   19.8093 C   0  0  0  0  0  0  0  0  0  0  0  0
  -27.1332  -13.3421   21.0852 C   0  0  0  0  0  0  0  0  0  0  0  0
  -29.5057  -13.5611   20.1734 C   0  0  0  0  0  0  0  0  0  0  0  0
  -18.2431  -28.7808   24.5745 C   0  0  0  0  0  0  0  0  0  0  0  0
  -24.1260  -26.1470   21.0622 C   0  0  0  0  0  0  0  0  0  0  0  0
  -19.4847  -28.8758   23.9173 C   0  0  0  0  0  0  0  0  0  0  0  0
  -25.2384  -25.9377   21.8898 C   0  0  0  0  0  0  0  0  0  0  0  0
  -29.3971  -21.5321   20.5076 C   0  0  0  0  0  0  0  0  0  0  0  0
  -30.0776  -23.8374   20.5892 C   0  0  0  0  0  0  0  0  0  0  0  0
  -24.5580  -12.2708   21.1379 C   0  0  0  0  0  0  0  0  0  0  0  0
  -26.6398  -27.1002   20.2789 C   0  0  0  0  0  0  0  0  0  0  0  0
  -23.1736  -10.3738   21.0526 C   0  0  0  0  0  0  0  0  0  0  0  0
  -22.9160   -7.6047   20.8336 C   0  0  0  0  0  0  0  0  0  0  0  0
  -23.6511   -9.7165   19.9188 C   0  0  0  0  0  0  0  0  0  0  0  0
  -29.3725  -22.8130   19.9673 C   0  0  0  0  0  0  0  0  0  0  0  0
  -28.4630  -13.8962   21.0580 C   0  0  0  0  0  0  0  0  0  0  0  0
  -30.1361  -21.3292   21.6620 C   0  0  0  0  0  0  0  0  0  0  0  0
  -30.7859  -23.5314   21.7400 C   0  0  0  0  0  0  0  0  0  0  0  0
  -30.5535  -14.3609   20.5591 C   0  0  0  0  0  0  0  0  0  0  0  0
  -29.5252  -12.6117   19.0992 C   0  0  0  0  0  0  0  0  0  0  0  0
  -30.7204  -27.3723   19.4713 C   0  0  0  0  0  0  0  0  0  0  0  0
  -31.0806  -26.0838   20.1528 C   0  0  0  0  0  0  0  0  0  0  0  0
  -22.4553  -26.6881   23.7117 C   0  0  0  0  0  0  0  0  0  0  0  0
  -23.5579  -23.7522   24.5408 C   0  0  0  0  0  0  0  0  0  0  0  0
  -25.9336  -21.3333   24.1512 C   0  0  0  0  0  0  0  0  0  0  0  0
  -30.8515  -19.6239   23.3727 C   0  0  0  0  0  0  0  0  0  0  0  0
  -18.1190  -28.1815   25.9530 C   0  0  0  0  0  0  0  0  0  0  0  0
  -22.7748  -25.6142   21.4532 C   0  0  0  0  0  0  0  0  0  0  0  0
  -25.1240  -25.2095   23.2032 C   0  0  0  0  0  0  0  0  0  0  0  0
  -19.3169  -27.3250   26.3549 C   0  0  0  0  0  0  0  0  0  0  0  0
  -32.3609  -16.5690   24.4051 C   0  0  0  0  0  0  0  0  0  0  0  0
  -20.6215  -28.0457   26.0303 C   0  0  0  0  0  0  0  0  0  0  0  0
  -31.6318  -15.5070   23.5790 C   0  0  0  0  0  0  0  0  0  0  0  0
  -31.4236  -17.6967   24.8334 C   0  0  0  0  0  0  0  0  0  0  0  0
  -29.9395  -17.2628   22.9154 C   0  0  0  0  0  0  0  0  0  0  0  0
  -20.7483  -28.3056   24.5243 C   0  0  1  0  0  0  0  0  0  0  0  0
  -22.6289  -25.4006   22.9567 C   0  0  1  0  0  0  0  0  0  0  0  0
  -30.8570  -16.1392   22.4061 C   0  0  2  0  0  0  0  0  0  0  0  0
  -26.5877  -19.0611   24.9918 C   0  0  0  0  0  0  0  0  0  0  0  0
  -24.5948  -25.0080   27.1211 C   0  0  0  0  0  0  0  0  0  0  0  0
  -26.0235  -22.9789   27.4523 C   0  0  0  0  0  0  0  0  0  0  0  0
  -23.5392  -22.7588   27.4063 C   0  0  0  0  0  0  0  0  0  0  0  0
  -25.6819  -20.1362   21.4563 C   0  0  0  0  0  0  0  0  0  0  0  0
  -30.0673  -28.4290   20.3349 C   0  0  0  0  0  0  0  0  0  0  0  0
  -28.7599  -27.9471   20.9453 C   0  0  0  0  0  0  0  0  0  1  0  0
  -24.7816  -23.2325   25.2559 C   0  0  1  0  0  0  0  0  0  0  0  0
  -25.8196  -19.8355   23.9320 C   0  0  2  0  0  0  0  0  0  0  0  0
  -24.7369  -23.5100   26.7851 C   0  0  0  0  0  0  0  0  0  0  0  0
  -28.8164  -14.8356   21.9393 N   0  0  0  0  0  0  0  0  0  0  0  0
  -30.8336  -22.2993   22.2944 N   0  0  0  0  0  0  0  0  0  0  0  0
  -30.0929  -15.0975   21.6105 N   0  0  0  0  0  0  0  0  0  0  0  0
  -23.7806  -24.7131   23.5443 N   0  0  0  0  0  0  0  0  0  0  0  0
  -30.7273  -18.2502   23.6699 N   0  0  0  0  0  0  0  0  0  0  0  0
  -28.6832  -20.4925   19.8823 N   0  0  0  0  0  0  0  0  0  0  0  0
  -31.8148  -14.4988   20.0982 N   0  0  0  0  0  0  0  0  0  0  0  0
  -28.3626  -11.8737   18.8385 N   0  0  0  0  0  0  0  0  0  0  0  0
  -30.0714  -25.1496   20.0614 N   0  0  0  0  0  0  0  0  0  0  0  0
  -30.1716  -20.0292   22.2246 N   0  0  0  0  0  0  0  0  0  0  0  0
  -21.1406  -27.0957   23.8340 N   0  0  0  0  0  0  0  0  0  0  0  0
  -24.8886  -21.8198   24.9079 N   0  0  0  0  0  0  0  0  0  0  0  0
  -26.3615  -19.4650   22.5941 N   0  3  0  0  0  0  0  0  0  0  0  0
  -30.5486  -12.4118   18.4018 O   0  0  0  0  0  0  0  0  0  0  0  0
  -30.9905  -27.4718   18.2840 O   0  0  0  0  0  0  0  0  0  0  0  0
  -32.1895  -26.0242   20.6574 O   0  0  0  0  0  0  0  0  0  0  0  0
  -23.4410  -27.2679   24.1521 O   0  0  0  0  0  0  0  0  0  0  0  0
  -22.4461  -23.3163   24.8498 O   0  0  0  0  0  0  0  0  0  0  0  0
  -26.8592  -22.0040   23.6997 O   0  0  0  0  0  0  0  0  0  0  0  0
  -31.5344  -20.3794   24.0690 O   0  0  0  0  0  0  0  0  0  0  0  0
  -23.3014  -11.7483   21.1632 O   0  0  0  0  0  0  0  0  0  0  0  0
  -27.8621  -27.5660   19.9036 O   0  0  0  0  0  0  0  0  0  1  0  0
  -22.7936   -6.2749   20.7293 F   0  0  0  0  0  0  0  0  0  0  0  0
  -24.2356  -10.4096   18.9320 F   0  0  0  0  0  0  0  0  0  0  0  0
  -28.6723  -23.0594   18.8496 F   0  0  0  0  0  0  0  0  0  0  0  0
  -31.4738  -24.5045   22.3599 F   0  0  0  0  0  0  0  0  0  0  0  0
  1  2  1  0  0  0  0
  1  5  2  0  0  0  0
  2  6  2  0  0  0  0
  3  8  2  0  0  0  0
  3 15  1  0  0  0  0
  4  9  1  0  0  0  0
  4 15  2  0  0  0  0
  5 17  1  0  0  0  0
  6 19  1  0  0  0  0
  7 10  2  0  0  0  0
  7 18  1  0  0  0  0
  8 23  1  0  0  0  0
  9 23  2  0  0  0  0
 10 24  1  0  0  0  0
 11 12  2  0  0  0  0
 11 25  1  0  0  0  0
 12 26  1  0  0  0  0
 13 20  1  0  0  0  0
 13 24  2  0  0  0  0
 14 26  2  0  0  0  0
 14 27  1  0  0  0  0
 15 29  1  0  0  0  0
 16 29  1  0  0  0  0
 16 32  2  0  0  0  0
 16 33  1  0  0  0  0
 17 19  2  0  0  0  0
 17 40  1  0  0  0  0
 18 20  2  0  0  0  0
 18 41  1  0  0  0  0
 19 49  1  0  0  0  0
 20 42  1  0  0  0  0
 21 28  1  0  0  0  0
 21 30  2  0  0  0  0
 21 67  1  0  0  0  0
 22 28  2  0  0  0  0
 22 31  1  0  0  0  0
 22 70  1  0  0  0  0
 23 82  1  0  0  0  0
 24 83  1  0  0  0  0
 25 27  2  0  0  0  0
 25 82  1  0  0  0  0
 26 84  1  0  0  0  0
 27 85  1  0  0  0  0
 28 86  1  0  0  0  0
 29 62  2  0  0  0  0
 30 63  1  0  0  0  0
 30 71  1  0  0  0  0
 31 63  2  0  0  0  0
 31 87  1  0  0  0  0
 32 64  1  0  0  0  0
 32 68  1  0  0  0  0
 33 69  1  0  0  0  0
 33 75  2  0  0  0  0
 34 35  1  0  0  0  0
 34 57  1  0  0  0  0
 34 76  2  0  0  0  0
 35 70  1  0  0  0  0
 35 77  2  0  0  0  0
 36 50  1  0  0  0  0
 36 72  1  0  0  0  0
 36 78  2  0  0  0  0
 37 59  1  0  0  0  0
 37 65  1  0  0  0  0
 37 79  2  0  0  0  0
 38 60  1  0  0  0  0
 38 73  1  0  0  0  0
 38 80  2  0  0  0  0
 39 66  1  0  0  0  0
 39 71  1  0  0  0  0
 39 81  2  0  0  0  0
 40 43  1  0  0  0  0
 41 50  1  0  0  0  0
 42 65  1  0  0  0  0
 43 45  1  0  0  0  0
 44 46  1  0  0  0  0
 44 47  1  0  0  0  0
 45 49  1  0  0  0  0
 46 51  1  0  0  0  0
 47 66  1  0  0  0  0
 48 51  1  0  0  0  0
 48 66  1  0  0  0  0
 49 72  1  0  0  0  0
 50 65  1  0  0  0  0
 51 64  1  0  0  0  0
 52 60  1  0  0  0  0
 53 61  1  0  0  0  0
 54 61  1  0  0  0  0
 55 61  1  0  0  0  0
 56 74  1  0  0  0  0
 57 58  1  0  0  0  0
 58 83  1  0  0  0  0
 59 61  1  0  0  0  0
 59 73  1  0  0  0  0
 60 74  1  0  0  0  0
 62 64  1  0  0  0  0
M  CHG  1  74   1
M  ISO  4  39 100  58 101  71 100  83 101
M  END
> <Batch ID>
0181

> <Smiles>
CNC(C)C(=O)NC(C(=O)N1Cc2cc([101O:1][101CH2:1]CC(=O)C(=O)Nc3c(F)nc([100NH:0][100C:0](=O)N4CCCC(n5nc(-c6ccc(Oc7ccc(F)cc7F)cc6)c(C(N)=O)c5N)C4)c(N)c3F)ccc2CC1C(=O)NC1CCCc2ccccc21)C(C)(C)C

> <Shape>
0.256

> <Color>
0.077

> <Negative vol penalty>
0.000

$$$$

  -OEChem-04052304533D

 89 97  0     1  0  0  0  0  0999 V2000
  -17.7956  -26.0424   22.7144 C   0  0  0  0  0  0  0  0  0  0  0  0
  -19.1118  -25.6586   22.4785 C   0  0  0  0  0  0  0  0  0  0  0  0
  -26.1637  -11.6690   19.9464 C   0  0  0  0  0  0  0  0  0  0  0  0
  -24.3918  -13.1725   20.6075 C   0  0  0  0  0  0  0  0  0  0  0  0
  -17.4074  -27.3645   22.5019 C   0  0  0  0  0  0  0  0  0  0  0  0
  -20.0405  -26.5967   22.0291 C   0  0  0  0  0  0  0  0  0  0  0  0
  -25.9981  -26.8407   23.4266 C   0  0  0  0  0  0  0  0  0  0  0  0
  -25.6129  -10.6681   20.7465 C   0  0  0  0  0  0  0  0  0  0  0  0
  -23.8410  -12.1715   21.4076 C   0  0  0  0  0  0  0  0  0  0  0  0
  -27.1386  -26.4090   22.7508 C   0  0  0  0  0  0  0  0  0  0  0  0
  -24.4718   -7.6030   22.3335 C   0  0  0  0  0  0  0  0  0  0  0  0
  -24.3744   -6.3209   21.7929 C   0  0  0  0  0  0  0  0  0  0  0  0
  -27.4431  -28.6296   21.8587 C   0  0  0  0  0  0  0  0  0  0  0  0
  -22.9641   -7.1730   20.0259 C   0  0  0  0  0  0  0  0  0  0  0  0
  -25.5888  -21.9278   18.5493 C   0  0  0  0  0  0  0  0  0  0  0  0
  -25.5532  -12.9213   19.8769 C   0  0  0  0  0  0  0  0  0  0  0  0
  -25.8370  -14.2157   17.6971 C   0  0  0  0  0  0  0  0  0  0  0  0
  -18.3341  -28.3214   22.0589 C   0  0  0  0  0  0  0  0  0  0  0  0
  -25.5647  -28.1696   23.3147 C   0  0  0  0  0  0  0  0  0  0  0  0
  -19.6641  -27.9326   21.8093 C   0  0  0  0  0  0  0  0  0  0  0  0
  -26.2983  -29.0763   22.5363 C   0  0  0  0  0  0  0  0  0  0  0  0
  -24.4515  -10.9193   21.4771 C   0  0  0  0  0  0  0  0  0  0  0  0
  -27.8596  -27.3028   21.9644 C   0  0  0  0  0  0  0  0  0  0  0  0
  -23.8153   -8.6702   21.7203 C   0  0  0  0  0  0  0  0  0  0  0  0
  -23.6205   -6.1059   20.6391 C   0  0  0  0  0  0  0  0  0  0  0  0
  -23.0615   -8.4552   20.5665 C   0  0  0  0  0  0  0  0  0  0  0  0
  -26.1220  -13.9559   19.0510 C   0  0  0  0  0  0  0  0  0  0  0  0
  -26.9025  -21.8019   18.9441 C   0  0  0  0  0  0  0  0  0  0  0  0
  -25.8757  -24.1844   18.3143 C   0  0  0  0  0  0  0  0  0  0  0  0
  -27.1892  -24.0587   18.7099 C   0  0  0  0  0  0  0  0  0  0  0  0
  -26.6300  -15.2913   17.3795 C   0  0  0  0  0  0  0  0  0  0  0  0
  -24.9360  -13.5449   16.8062 C   0  0  0  0  0  0  0  0  0  0  0  0
  -22.9425  -29.5885   22.2126 C   0  0  0  0  0  0  0  0  0  0  0  0
  -23.5288  -25.2046   19.5029 C   0  0  0  0  0  0  0  0  0  0  0  0
  -24.3555  -32.2547   23.4031 C   0  0  0  0  0  0  0  0  0  0  0  0
  -27.2311  -33.8417   24.3301 C   0  0  0  0  0  0  0  0  0  0  0  0
  -28.6791  -20.1757   19.6826 C   0  0  0  0  0  0  0  0  0  0  0  0
  -17.8566  -29.7281   21.7982 C   0  0  0  0  0  0  0  0  0  0  0  0
  -24.3476  -28.6262   24.0715 C   0  0  0  0  0  0  0  0  0  0  0  0
  -25.8864  -30.5185   22.3995 C   0  0  0  0  0  0  0  0  0  0  0  0
  -18.9899  -30.7439   21.6799 C   0  0  0  0  0  0  0  0  0  0  0  0
  -30.7278  -17.2884   19.3038 C   0  0  0  0  0  0  0  0  0  0  0  0
  -20.0930  -30.2097   20.7717 C   0  0  0  0  0  0  0  0  0  0  0  0
  -29.7225  -16.1590   19.0675 C   0  0  0  0  0  0  0  0  0  0  0  0
  -30.2028  -18.3144   20.3065 C   0  0  0  0  0  0  0  0  0  0  0  0
  -27.8717  -17.7348   19.7592 C   0  0  0  0  0  0  0  0  0  0  0  0
  -20.7065  -28.9266   21.3450 C   0  0  1  0  0  0  0  0  0  0  0  0
  -23.7063  -29.8750   23.4745 C   0  0  1  0  0  0  0  0  0  0  0  0
  -28.3292  -16.7109   18.7075 C   0  0  2  0  0  0  0  0  0  0  0  0
  -24.2109  -25.6598   20.7711 C   0  0  0  0  0  0  0  0  0  0  0  0
  -28.0723  -36.0281   25.2299 C   0  0  0  0  0  0  0  0  0  0  0  0
  -23.1776  -25.2208   17.0210 C   0  0  0  0  0  0  0  0  0  0  0  0
  -23.8884  -27.3392   18.1822 C   0  0  0  0  0  0  0  0  0  0  0  0
  -23.9927  -33.5237   20.6521 C   0  0  0  0  0  0  0  0  0  0  0  0
  -25.6546  -35.2741   21.3174 C   0  0  0  0  0  0  0  0  0  0  0  0
  -23.5126  -35.0481   22.5757 C   0  0  0  0  0  0  0  0  0  0  0  0
  -28.3222  -32.5541   26.7613 C   0  0  0  0  0  0  0  0  0  0  0  0
  -29.3799  -25.1539   19.1863 C   0  0  0  0  0  0  0  0  0  0  0  0
  -29.2853  -27.5418   20.0759 C   0  0  0  0  0  0  0  0  0  1  0  0
  -25.3090  -33.2921   22.8612 C   0  0  1  0  0  0  0  0  0  0  0  0
  -27.5902  -34.6283   25.5778 C   0  0  2  0  0  0  0  0  0  0  0  0
  -29.9875  -26.5503   19.1603 C   0  0  1  0  0  0  0  0  0  0  0  0
  -23.9912  -25.8135   18.1720 C   0  0  0  0  0  0  0  0  0  0  0  0
  -24.6241  -34.2569   21.8524 C   0  0  0  0  0  0  0  0  0  0  0  0
  -25.0519  -23.1213   18.2272 N   0  0  0  0  0  0  0  0  0  0  0  0
  -27.0256  -14.7985   19.5586 N   0  0  0  0  0  0  0  0  0  0  0  0
  -27.7263  -22.8651   19.0316 N   0  0  0  0  0  0  0  0  0  0  0  0
  -27.3153  -15.5982   18.5181 N   0  0  0  0  0  0  0  0  0  0  0  0
  -24.6859  -30.9151   23.1538 N   0  0  0  0  0  0  0  0  0  0  0  0
  -28.8813  -18.7960   19.8982 N   0  0  0  0  0  0  0  0  0  0  0  0
  -26.8010  -15.9949   16.2402 N   0  0  0  0  0  0  0  0  0  0  0  0
  -24.1978  -12.4586   17.2954 N   0  0  0  0  0  0  0  0  0  0  0  0
  -27.3915  -20.5115   19.2657 N   0  0  0  0  0  0  0  0  0  0  0  0
  -27.9938  -25.1844   18.7832 N   0  0  0  0  0  0  0  0  0  0  0  0
  -25.3630  -25.4605   17.9874 N   0  0  0  0  0  0  0  0  0  0  0  0
  -21.6215  -29.2410   22.4213 N   0  0  0  0  0  0  0  0  0  0  0  0
  -25.8921  -33.9565   24.0218 N   0  0  0  0  0  0  0  0  0  0  0  0
  -28.6699  -33.9341   26.3350 N   0  3  0  0  0  0  0  0  0  0  0  0
  -24.8020  -13.8879   15.6071 O   0  0  0  0  0  0  0  0  0  0  0  0
  -23.5093  -29.6778   21.1298 O   0  0  0  0  0  0  0  0  0  0  0  0
  -22.6150  -24.3784   19.5617 O   0  0  0  0  0  0  0  0  0  0  0  0
  -23.3582  -32.6193   24.0310 O   0  0  0  0  0  0  0  0  0  0  0  0
  -28.0566  -33.1935   23.6907 O   0  0  0  0  0  0  0  0  0  0  0  0
  -29.5893  -20.9956   19.8288 O   0  0  0  0  0  0  0  0  0  0  0  0
  -23.9136   -9.9426   22.2578 O   0  0  0  0  0  0  0  0  0  0  0  0
  -28.9727  -26.8839   21.3031 O   0  0  0  0  0  0  0  0  0  1  0  0
  -23.5283   -4.8749   20.1193 F   0  0  0  0  0  0  0  0  0  0  0  0
  -22.4296   -9.4767   19.9724 F   0  0  0  0  0  0  0  0  0  0  0  0
  -31.2917  -26.4581   19.5522 F   0  0  0  0  0  0  0  0  0  0  0  0
  1  2  1  0  0  0  0
  1  5  2  0  0  0  0
  2  6  2  0  0  0  0
  3  8  2  0  0  0  0
  3 16  1  0  0  0  0
  4  9  1  0  0  0  0
  4 16  2  0  0  0  0
  5 18  1  0  0  0  0
  6 20  1  0  0  0  0
  7 10  2  0  0  0  0
  7 19  1  0  0  0  0
  8 22  1  0  0  0  0
  9 22  2  0  0  0  0
 10 23  1  0  0  0  0
 11 12  2  0  0  0  0
 11 24  1  0  0  0  0
 12 25  1  0  0  0  0
 13 21  1  0  0  0  0
 13 23  2  0  0  0  0
 14 25  2  0  0  0  0
 14 26  1  0  0  0  0
 15 28  1  0  0  0  0
 15 65  2  0  0  0  0
 16 27  1  0  0  0  0
 17 27  1  0  0  0  0
 17 31  2  0  0  0  0
 17 32  1  0  0  0  0
 18 20  2  0  0  0  0
 18 38  1  0  0  0  0
 19 21  2  0  0  0  0
 19 39  1  0  0  0  0
 20 47  1  0  0  0  0
 21 40  1  0  0  0  0
 22 85  1  0  0  0  0
 23 86  1  0  0  0  0
 24 26  2  0  0  0  0
 24 85  1  0  0  0  0
 25 87  1  0  0  0  0
 26 88  1  0  0  0  0
 27 66  2  0  0  0  0
 28 67  2  0  0  0  0
 28 73  1  0  0  0  0
 29 30  2  0  0  0  0
 29 65  1  0  0  0  0
 29 75  1  0  0  0  0
 30 67  1  0  0  0  0
 30 74  1  0  0  0  0
 31 68  1  0  0  0  0
 31 71  1  0  0  0  0
 32 72  1  0  0  0  0
 32 79  2  0  0  0  0
 33 48  1  0  0  0  0
 33 76  1  0  0  0  0
 33 80  2  0  0  0  0
 34 50  1  0  0  0  0
 34 63  1  0  0  0  0
 34 81  2  0  0  0  0
 35 60  1  0  0  0  0
 35 69  1  0  0  0  0
 35 82  2  0  0  0  0
 36 61  1  0  0  0  0
 36 77  1  0  0  0  0
 36 83  2  0  0  0  0
 37 70  1  0  0  0  0
 37 73  1  0  0  0  0
 37 84  2  0  0  0  0
 38 41  1  0  0  0  0
 39 48  1  0  0  0  0
 40 69  1  0  0  0  0
 41 43  1  0  0  0  0
 42 44  1  0  0  0  0
 42 45  1  0  0  0  0
 43 47  1  0  0  0  0
 44 49  1  0  0  0  0
 45 70  1  0  0  0  0
 46 49  1  0  0  0  0
 46 70  1  0  0  0  0
 47 76  1  0  0  0  0
 48 69  1  0  0  0  0
 49 68  1  0  0  0  0
 51 61  1  0  0  0  0
 52 63  1  0  0  0  0
 53 63  1  0  0  0  0
 54 64  1  0  0  0  0
 55 64  1  0  0  0  0
 56 64  1  0  0  0  0
 57 78  1  0  0  0  0
 58 62  1  0  0  0  0
 58 74  1  0  0  0  0
 59 62  1  0  0  0  0
 59 86  1  0  0  0  0
 60 64  1  0  0  0  0
 60 77  1  0  0  0  0
 61 78  1  0  0  0  0
 62 89  1  0  0  0  0
 63 75  1  0  0  0  0
 66 68  1  0  0  0  0
M  CHG  1  78   1
M  ISO  4  37 100  59 101  73 100  86 101
M  END
> <Batch ID>
0181

> <Smiles>
CNC(C)C(=O)NC(C(=O)N1Cc2cc([101O:1][101CH2:1]C(F)CNc3nc([100NH:0][100C:0](=O)N4CCCC(n5nc(-c6ccc(Oc7ccc(F)cc7F)cc6)c(C(N)=O)c5N)C4)cnc3NC(C)(C)C(C)=O)ccc2CC1C(=O)NC1CCCc2ccccc21)C(C)(C)C

> <Shape>
0.291

> <Color>
0.083

> <Negative vol penalty>
0.000

$$$$

  -OEChem-04052304533D

 83 91  0     1  0  0  0  0  0999 V2000
  -26.8378  -18.6660   18.5071 C   0  0  0  0  0  0  0  0  0  0  0  0
  -25.9524  -19.7315   18.3797 C   0  0  0  0  0  0  0  0  0  0  0  0
  -22.7233  -17.3382   20.3843 C   0  0  0  0  0  0  0  0  0  0  0  0
  -24.2046  -18.3888   21.9778 C   0  0  0  0  0  0  0  0  0  0  0  0
  -27.8918  -18.7419   19.4167 C   0  0  0  0  0  0  0  0  0  0  0  0
  -26.1198  -20.8731   19.1627 C   0  0  0  0  0  0  0  0  0  0  0  0
  -25.1876  -27.9726   18.9529 C   0  0  0  0  0  0  0  0  0  0  0  0
  -23.6695  -16.3372   20.1647 C   0  0  0  0  0  0  0  0  0  0  0  0
  -25.1508  -17.3877   21.7582 C   0  0  0  0  0  0  0  0  0  0  0  0
  -24.5906  -29.0025   19.6787 C   0  0  0  0  0  0  0  0  0  0  0  0
  -24.7261  -13.5247   21.7159 C   0  0  0  0  0  0  0  0  0  0  0  0
  -24.2772  -12.2046   21.6818 C   0  0  0  0  0  0  0  0  0  0  0  0
  -26.4940  -29.0538   21.1598 C   0  0  0  0  0  0  0  0  0  0  0  0
  -25.0976  -11.9840   19.4201 C   0  0  0  0  0  0  0  0  0  0  0  0
  -22.9908  -18.3641   21.2908 C   0  0  0  0  0  0  0  0  0  0  0  0
  -20.9830  -19.3990   22.4762 C   0  0  0  0  0  0  0  0  0  0  0  0
  -28.0779  -19.8889   20.2043 C   0  0  0  0  0  0  0  0  0  0  0  0
  -26.4395  -27.4674   19.3322 C   0  0  0  0  0  0  0  0  0  0  0  0
  -27.1765  -20.9639   20.0847 C   0  0  0  0  0  0  0  0  0  0  0  0
  -27.1059  -28.0193   20.4356 C   0  0  0  0  0  0  0  0  0  0  0  0
  -24.8832  -16.3619   20.8516 C   0  0  0  0  0  0  0  0  0  0  0  0
  -25.2425  -29.5412   20.7841 C   0  0  0  0  0  0  0  0  0  0  0  0
  -25.3608  -14.0746   20.6020 C   0  0  0  0  0  0  0  0  0  0  0  0
  -24.4629  -11.4342   20.5339 C   0  0  0  0  0  0  0  0  0  0  0  0
  -25.5465  -13.3042   19.4542 C   0  0  0  0  0  0  0  0  0  0  0  0
  -22.0141  -19.3987   21.5177 C   0  0  0  0  0  0  0  0  0  0  0  0
  -20.7709  -29.0530   24.1249 C   0  0  0  0  0  0  0  0  0  0  0  0
  -20.3385  -20.5970   22.2868 C   0  0  0  0  0  0  0  0  0  0  0  0
  -20.4141  -28.2837   25.2126 C   0  0  0  0  0  0  0  0  0  0  0  0
  -20.8838  -27.0761   23.1820 C   0  0  0  0  0  0  0  0  0  0  0  0
  -20.6387  -18.4053   23.4507 C   0  0  0  0  0  0  0  0  0  0  0  0
  -27.5174  -24.6370   20.2970 C   0  0  0  0  0  0  0  0  0  0  0  0
  -22.7463  -31.1724   22.8384 C   0  0  0  0  0  0  0  0  0  0  0  0
  -30.4025  -26.1077   20.1091 C   0  0  0  0  0  0  0  0  0  0  0  0
  -32.1757  -29.0235   20.1416 C   0  0  0  0  0  0  0  0  0  0  0  0
  -21.4338  -26.1020   20.9247 C   0  0  0  0  0  0  0  0  0  0  0  0
  -29.2039  -19.9058   21.2076 C   0  0  0  0  0  0  0  0  0  0  0  0
  -27.0820  -26.3745   18.5228 C   0  0  0  0  0  0  0  0  0  0  0  0
  -28.4604  -27.5260   20.8720 C   0  0  0  0  0  0  0  0  0  0  0  0
  -29.5320  -21.3016   21.7315 C   0  0  0  0  0  0  0  0  0  0  0  0
  -20.0318  -23.8384   18.5609 C   0  0  0  0  0  0  0  0  0  0  0  0
  -28.2546  -22.0419   22.1147 C   0  0  0  0  0  0  0  0  0  0  0  0
  -20.2983  -22.4621   19.1748 C   0  0  0  0  0  0  0  0  0  0  0  0
  -21.1846  -24.8072   18.8185 C   0  0  0  0  0  0  0  0  0  0  0  0
  -21.8468  -23.5648   20.8401 C   0  0  0  0  0  0  0  0  0  0  0  0
  -27.3395  -22.2292   20.8986 C   0  0  1  0  0  0  0  0  0  0  0  0
  -28.1280  -25.5871   19.3060 C   0  0  1  0  0  0  0  0  0  0  0  0
  -20.6848  -22.5739   20.6626 C   0  0  2  0  0  0  0  0  0  0  0  0
  -20.7886  -32.6768   23.2528 C   0  0  0  0  0  0  0  0  0  0  0  0
  -34.5216  -29.9040   20.0053 C   0  0  0  0  0  0  0  0  0  0  0  0
  -30.8953  -25.2342   22.9908 C   0  0  0  0  0  0  0  0  0  0  0  0
  -32.7577  -26.9035   23.1048 C   0  0  0  0  0  0  0  0  0  0  0  0
  -32.8766  -25.0139   21.4806 C   0  0  0  0  0  0  0  0  0  0  0  0
  -31.5791  -30.5618   17.6847 C   0  0  0  0  0  0  0  0  0  0  0  0
  -23.2355  -30.5752   21.5317 C   0  0  0  0  0  0  0  0  0  1  0  0
  -21.2370  -31.2432   23.0243 C   0  0  2  0  0  0  0  0  0  0  0  0
  -31.2576  -26.9098   21.0602 C   0  0  1  0  0  0  0  0  0  0  0  0
  -33.2651  -29.5502   19.2250 C   0  0  2  0  0  0  0  0  0  0  0  0
  -31.9204  -26.0236   22.1523 C   0  0  0  0  0  0  0  0  0  0  0  0
  -22.0274  -20.5084   20.7745 N   0  0  0  0  0  0  0  0  0  0  0  0
  -21.0410  -28.3622   22.9597 N   0  0  0  0  0  0  0  0  0  0  0  0
  -20.9968  -21.2171   21.2659 N   0  0  0  0  0  0  0  0  0  0  0  0
  -29.0445  -26.4517   20.0522 N   0  0  0  0  0  0  0  0  0  0  0  0
  -21.4921  -24.8647   20.2492 N   0  0  0  0  0  0  0  0  0  0  0  0
  -19.2785  -21.1699   22.8956 N   0  0  0  0  0  0  0  0  0  0  0  0
  -21.4053  -17.2334   23.5096 N   0  0  0  0  0  0  0  0  0  0  0  0
  -20.8632  -30.4336   24.1632 N   0  0  0  0  0  0  0  0  0  0  0  0
  -21.0575  -26.0105   22.2644 N   0  0  0  0  0  0  0  0  0  0  0  0
  -27.8219  -23.3093   20.0647 N   0  0  0  0  0  0  0  0  0  0  0  0
  -32.2059  -27.6480   20.2330 N   0  0  0  0  0  0  0  0  0  0  0  0
  -32.7958  -30.7712   18.5110 N   0  3  0  0  0  0  0  0  0  0  0  0
  -19.6696  -18.5449   24.2348 O   0  0  0  0  0  0  0  0  0  0  0  0
  -26.8227  -25.0761   21.2060 O   0  0  0  0  0  0  0  0  0  0  0  0
  -23.5331  -31.5837   23.6916 O   0  0  0  0  0  0  0  0  0  0  0  0
  -30.9218  -25.2139   19.4361 O   0  0  0  0  0  0  0  0  0  0  0  0
  -31.3800  -29.7590   20.7217 O   0  0  0  0  0  0  0  0  0  0  0  0
  -21.6718  -27.1672   20.3496 O   0  0  0  0  0  0  0  0  0  0  0  0
  -25.8066  -15.3852   20.6377 O   0  0  0  0  0  0  0  0  0  0  0  0
  -24.6618  -30.5461   21.4947 O   0  0  0  0  0  0  0  0  0  1  0  0
  -24.0331  -10.1660   20.5018 F   0  0  0  0  0  0  0  0  0  0  0  0
  -26.1565  -13.8266   18.3814 F   0  0  0  0  0  0  0  0  0  0  0  0
  -20.1142  -28.7494   26.4282 F   0  0  0  0  0  0  0  0  0  0  0  0
  -20.4117  -26.6269   24.7695 S   0  0  0  0  0  0  0  0  0  0  0  0
  1  2  1  0  0  0  0
  1  5  2  0  0  0  0
  2  6  2  0  0  0  0
  3  8  2  0  0  0  0
  3 15  1  0  0  0  0
  4  9  1  0  0  0  0
  4 15  2  0  0  0  0
  5 17  1  0  0  0  0
  6 19  1  0  0  0  0
  7 10  2  0  0  0  0
  7 18  1  0  0  0  0
  8 21  1  0  0  0  0
  9 21  2  0  0  0  0
 10 22  1  0  0  0  0
 11 12  2  0  0  0  0
 11 23  1  0  0  0  0
 12 24  1  0  0  0  0
 13 20  1  0  0  0  0
 13 22  2  0  0  0  0
 14 24  2  0  0  0  0
 14 25  1  0  0  0  0
 15 26  1  0  0  0  0
 16 26  1  0  0  0  0
 16 28  2  0  0  0  0
 16 31  1  0  0  0  0
 17 19  2  0  0  0  0
 17 37  1  0  0  0  0
 18 20  2  0  0  0  0
 18 38  1  0  0  0  0
 19 46  1  0  0  0  0
 20 39  1  0  0  0  0
 21 78  1  0  0  0  0
 22 79  1  0  0  0  0
 23 25  2  0  0  0  0
 23 78  1  0  0  0  0
 24 80  1  0  0  0  0
 25 81  1  0  0  0  0
 26 60  2  0  0  0  0
 27 29  2  0  0  0  0
 27 61  1  0  0  0  0
 27 67  1  0  0  0  0
 28 62  1  0  0  0  0
 28 65  1  0  0  0  0
 29 82  1  0  0  0  0
 29 83  1  0  0  0  0
 30 61  2  0  0  0  0
 30 68  1  0  0  0  0
 30 83  1  0  0  0  0
 31 66  1  0  0  0  0
 31 72  2  0  0  0  0
 32 47  1  0  0  0  0
 32 69  1  0  0  0  0
 32 73  2  0  0  0  0
 33 55  1  0  0  0  0
 33 56  1  0  0  0  0
 33 74  2  0  0  0  0
 34 57  1  0  0  0  0
 34 63  1  0  0  0  0
 34 75  2  0  0  0  0
 35 58  1  0  0  0  0
 35 70  1  0  0  0  0
 35 76  2  0  0  0  0
 36 64  1  0  0  0  0
 36 68  1  0  0  0  0
 36 77  2  0  0  0  0
 37 40  1  0  0  0  0
 38 47  1  0  0  0  0
 39 63  1  0  0  0  0
 40 42  1  0  0  0  0
 41 43  1  0  0  0  0
 41 44  1  0  0  0  0
 42 46  1  0  0  0  0
 43 48  1  0  0  0  0
 44 64  1  0  0  0  0
 45 48  1  0  0  0  0
 45 64  1  0  0  0  0
 46 69  1  0  0  0  0
 47 63  1  0  0  0  0
 48 62  1  0  0  0  0
 49 56  1  0  0  0  0
 50 58  1  0  0  0  0
 51 59  1  0  0  0  0
 52 59  1  0  0  0  0
 53 59  1  0  0  0  0
 54 71  1  0  0  0  0
 55 79  1  0  0  0  0
 56 67  1  0  0  0  0
 57 59  1  0  0  0  0
 57 70  1  0  0  0  0
 58 71  1  0  0  0  0
 60 62  1  0  0  0  0
M  CHG  1  71   1
M  ISO  4  36 100  55 101  68 100  79 101
M  END
> <Batch ID>
0181

> <Smiles>
CNC(C)C(=O)NC(C(=O)N1Cc2cc([101O:1][101CH2:1]C(=O)C(C)Nc3nc([100NH:0][100C:0](=O)N4CCCC(n5nc(-c6ccc(Oc7ccc(F)cc7F)cc6)c(C(N)=O)c5N)C4)sc3F)ccc2CC1C(=O)NC1CCCc2ccccc21)C(C)(C)C

> <Shape>
0.210

> <Color>
0.081

> <Negative vol penalty>
0.000

$$$$

  -OEChem-04052304533D

 84 92  0     1  0  0  0  0  0999 V2000
  -31.6035  -31.3109   23.6731 C   0  0  0  0  0  0  0  0  0  0  0  0
  -31.6088  -30.1799   24.4833 C   0  0  0  0  0  0  0  0  0  0  0  0
  -23.1402   -9.8604   20.0140 C   0  0  0  0  0  0  0  0  0  0  0  0
  -23.7937  -10.0300   22.3337 C   0  0  0  0  0  0  0  0  0  0  0  0
  -30.7186  -31.3932   22.5988 C   0  0  0  0  0  0  0  0  0  0  0  0
  -30.7284  -29.1311   24.2203 C   0  0  0  0  0  0  0  0  0  0  0  0
  -31.7811  -23.1517   25.0235 C   0  0  0  0  0  0  0  0  0  0  0  0
  -22.4107   -8.7074   20.3037 C   0  0  0  0  0  0  0  0  0  0  0  0
  -23.0641   -8.8770   22.6235 C   0  0  0  0  0  0  0  0  0  0  0  0
  -31.4397  -22.2684   26.0466 C   0  0  0  0  0  0  0  0  0  0  0  0
  -23.4518   -5.5346   22.2928 C   0  0  0  0  0  0  0  0  0  0  0  0
  -24.0557   -4.5717   23.1014 C   0  0  0  0  0  0  0  0  0  0  0  0
  -29.5009  -21.5728   24.7911 C   0  0  0  0  0  0  0  0  0  0  0  0
  -22.2743   -4.8106   24.7161 C   0  0  0  0  0  0  0  0  0  0  0  0
  -23.8318  -10.5217   21.0290 C   0  0  0  0  0  0  0  0  0  0  0  0
  -24.1242  -13.0419   20.7633 C   0  0  0  0  0  0  0  0  0  0  0  0
  -29.8336  -30.3407   22.3167 C   0  0  0  0  0  0  0  0  0  0  0  0
  -30.9777  -23.2604   23.8793 C   0  0  0  0  0  0  0  0  0  0  0  0
  -29.8300  -29.2000   23.1420 C   0  0  0  0  0  0  0  0  0  0  0  0
  -29.8357  -22.4565   23.7537 C   0  0  0  0  0  0  0  0  0  0  0  0
  -22.3726   -8.2157   21.6085 C   0  0  0  0  0  0  0  0  0  0  0  0
  -30.2979  -21.4808   25.9318 C   0  0  0  0  0  0  0  0  0  0  0  0
  -22.2593   -6.1356   22.6959 C   0  0  0  0  0  0  0  0  0  0  0  0
  -23.4669   -4.2097   24.3130 C   0  0  0  0  0  0  0  0  0  0  0  0
  -21.6705   -5.7735   23.9074 C   0  0  0  0  0  0  0  0  0  0  0  0
  -24.5860  -11.7124   20.7302 C   0  0  0  0  0  0  0  0  0  0  0  0
  -32.6317  -16.7275   23.9997 C   0  0  0  0  0  0  0  0  0  0  0  0
  -25.2155  -13.7935   20.4018 C   0  0  0  0  0  0  0  0  0  0  0  0
  -31.6172  -16.8747   24.9222 C   0  0  0  0  0  0  0  0  0  0  0  0
  -31.1471  -15.4076   23.0704 C   0  0  0  0  0  0  0  0  0  0  0  0
  -22.8250  -13.5518   21.0916 C   0  0  0  0  0  0  0  0  0  0  0  0
  -29.2884  -25.5951   22.5381 C   0  0  0  0  0  0  0  0  0  0  0  0
  -28.8736  -23.4100   20.1768 C   0  0  0  0  0  0  0  0  0  0  0  0
  -28.8117  -20.1274   19.2454 C   0  0  0  0  0  0  0  0  0  0  0  0
  -30.4260  -17.7075   26.9825 C   0  0  0  0  0  0  0  0  0  0  0  0
  -30.9551  -13.9411   21.0311 C   0  0  0  0  0  0  0  0  0  0  0  0
  -28.8628  -30.4954   21.1729 C   0  0  0  0  0  0  0  0  0  0  0  0
  -31.3742  -24.1987   22.7726 C   0  0  0  0  0  0  0  0  0  0  0  0
  -28.9507  -22.5206   22.5366 C   0  0  0  0  0  0  0  0  0  0  0  0
  -28.2211  -29.1808   20.7366 C   0  0  0  0  0  0  0  0  0  0  0  0
  -29.4380  -12.8725   17.9924 C   0  0  0  0  0  0  0  0  0  0  0  0
  -27.7379  -28.3939   21.9507 C   0  0  0  0  0  0  0  0  0  0  0  0
  -27.9866  -12.5940   18.3901 C   0  0  0  0  0  0  0  0  0  0  0  0
  -30.4150  -12.4762   19.0979 C   0  0  0  0  0  0  0  0  0  0  0  0
  -28.6740  -12.7724   20.8155 C   0  0  0  0  0  0  0  0  0  0  0  0
  -28.9072  -28.0308   22.8739 C   0  0  1  0  0  0  0  0  0  0  0  0
  -30.2030  -24.6003   21.8813 C   0  0  1  0  0  0  0  0  0  0  0  0
  -27.6484  -13.2155   19.7594 C   0  0  2  0  0  0  0  0  0  0  0  0
  -33.9553  -17.3819   24.0515 C   0  0  0  0  0  0  0  0  0  0  0  0
  -28.4068  -18.6513   17.2567 C   0  0  0  0  0  0  0  0  0  0  0  0
  -31.8739  -18.1167   29.0058 C   0  0  0  0  0  0  0  0  0  0  0  0
  -29.4242  -18.7077   29.0863 C   0  0  0  0  0  0  0  0  0  0  0  0
  -25.8697  -23.8704   20.4496 C   0  0  0  0  0  0  0  0  0  0  0  0
  -25.4991  -21.7506   19.1702 C   0  0  0  0  0  0  0  0  0  0  0  0
  -26.6838  -23.6639   18.0940 C   0  0  0  0  0  0  0  0  0  0  0  0
  -31.5550  -19.0230   19.3608 C   0  0  0  0  0  0  0  0  0  0  0  0
  -31.0303  -20.0661   27.6977 C   0  0  0  0  0  0  0  0  0  1  0  0
  -27.8620  -22.3274   19.8877 C   0  0  1  0  0  0  0  0  0  0  0  0
  -29.4476  -19.4005   18.0742 C   0  0  2  0  0  0  0  0  0  0  0  0
  -30.6771  -18.6440   28.1948 C   0  0  0  0  0  0  0  0  0  0  0  0
  -26.4940  -22.9030   19.4243 C   0  0  0  0  0  0  0  0  0  0  0  0
  -25.8705  -11.6215   20.3755 N   0  0  0  0  0  0  0  0  0  0  0  0
  -32.3642  -15.8863   22.9374 N   0  0  0  0  0  0  0  0  0  0  0  0
  -26.2251  -12.9033   20.1824 N   0  0  0  0  0  0  0  0  0  0  0  0
  -29.3772  -23.4580   21.4845 N   0  0  0  0  0  0  0  0  0  0  0  0
  -30.0343  -13.1055   20.3643 N   0  0  0  0  0  0  0  0  0  0  0  0
  -25.4003  -15.1225   20.2534 N   0  0  0  0  0  0  0  0  0  0  0  0
  -21.8185  -12.6412   21.4409 N   0  0  0  0  0  0  0  0  0  0  0  0
  -31.5120  -17.6311   26.1151 N   0  0  0  0  0  0  0  0  0  0  0  0
  -30.4702  -14.5095   22.2085 N   0  0  0  0  0  0  0  0  0  0  0  0
  -29.6501  -26.9129   22.3329 N   0  0  0  0  0  0  0  0  0  0  0  0
  -28.4894  -21.4291   18.9245 N   0  0  0  0  0  0  0  0  0  0  0  0
  -30.4585  -18.4194   18.5607 N   0  3  0  0  0  0  0  0  0  0  0  0
  -22.5599  -14.7775   21.0597 O   0  0  0  0  0  0  0  0  0  0  0  0
  -28.3249  -25.1967   23.1820 O   0  0  0  0  0  0  0  0  0  0  0  0
  -29.2101  -24.1800   19.2738 O   0  0  0  0  0  0  0  0  0  0  0  0
  -28.6166  -19.5927   20.3347 O   0  0  0  0  0  0  0  0  0  0  0  0
  -29.3531  -17.1227   26.8445 O   0  0  0  0  0  0  0  0  0  0  0  0
  -32.0807  -14.1597   20.5759 O   0  0  0  0  0  0  0  0  0  0  0  0
  -21.6606   -7.0908   21.8916 O   0  0  0  0  0  0  0  0  0  0  0  0
  -29.9621  -20.6183   26.9293 O   0  0  0  0  0  0  0  0  0  1  0  0
  -24.0461   -3.2839   25.0887 F   0  0  0  0  0  0  0  0  0  0  0  0
  -20.5243   -6.3465   24.2994 F   0  0  0  0  0  0  0  0  0  0  0  0
  -30.2679  -15.9274   24.4495 S   0  0  0  0  0  0  0  0  0  0  0  0
  1  2  1  0  0  0  0
  1  5  2  0  0  0  0
  2  6  2  0  0  0  0
  3  8  2  0  0  0  0
  3 15  1  0  0  0  0
  4  9  1  0  0  0  0
  4 15  2  0  0  0  0
  5 17  1  0  0  0  0
  6 19  1  0  0  0  0
  7 10  2  0  0  0  0
  7 18  1  0  0  0  0
  8 21  1  0  0  0  0
  9 21  2  0  0  0  0
 10 22  1  0  0  0  0
 11 12  2  0  0  0  0
 11 23  1  0  0  0  0
 12 24  1  0  0  0  0
 13 20  1  0  0  0  0
 13 22  2  0  0  0  0
 14 24  2  0  0  0  0
 14 25  1  0  0  0  0
 15 26  1  0  0  0  0
 16 26  1  0  0  0  0
 16 28  2  0  0  0  0
 16 31  1  0  0  0  0
 17 19  2  0  0  0  0
 17 37  1  0  0  0  0
 18 20  2  0  0  0  0
 18 38  1  0  0  0  0
 19 46  1  0  0  0  0
 20 39  1  0  0  0  0
 21 80  1  0  0  0  0
 22 81  1  0  0  0  0
 23 25  2  0  0  0  0
 23 80  1  0  0  0  0
 24 82  1  0  0  0  0
 25 83  1  0  0  0  0
 26 62  2  0  0  0  0
 27 29  2  0  0  0  0
 27 49  1  0  0  0  0
 27 63  1  0  0  0  0
 28 64  1  0  0  0  0
 28 67  1  0  0  0  0
 29 69  1  0  0  0  0
 29 84  1  0  0  0  0
 30 63  2  0  0  0  0
 30 70  1  0  0  0  0
 30 84  1  0  0  0  0
 31 68  1  0  0  0  0
 31 74  2  0  0  0  0
 32 47  1  0  0  0  0
 32 71  1  0  0  0  0
 32 75  2  0  0  0  0
 33 58  1  0  0  0  0
 33 65  1  0  0  0  0
 33 76  2  0  0  0  0
 34 59  1  0  0  0  0
 34 72  1  0  0  0  0
 34 77  2  0  0  0  0
 35 60  1  0  0  0  0
 35 69  1  0  0  0  0
 35 78  2  0  0  0  0
 36 66  1  0  0  0  0
 36 70  1  0  0  0  0
 36 79  2  0  0  0  0
 37 40  1  0  0  0  0
 38 47  1  0  0  0  0
 39 65  1  0  0  0  0
 40 42  1  0  0  0  0
 41 43  1  0  0  0  0
 41 44  1  0  0  0  0
 42 46  1  0  0  0  0
 43 48  1  0  0  0  0
 44 66  1  0  0  0  0
 45 48  1  0  0  0  0
 45 66  1  0  0  0  0
 46 71  1  0  0  0  0
 47 65  1  0  0  0  0
 48 64  1  0  0  0  0
 50 59  1  0  0  0  0
 51 60  1  0  0  0  0
 52 60  1  0  0  0  0
 53 61  1  0  0  0  0
 54 61  1  0  0  0  0
 55 61  1  0  0  0  0
 56 73  1  0  0  0  0
 57 60  1  0  0  0  0
 57 81  1  0  0  0  0
 58 61  1  0  0  0  0
 58 72  1  0  0  0  0
 59 73  1  0  0  0  0
 62 64  1  0  0  0  0
M  CHG  1  73   1
M  ISO  4  36 100  57 101  70 100  81 101
M  END
> <Batch ID>
0181

> <Smiles>
CNC(C)C(=O)NC(C(=O)N1Cc2cc([101O:1][101CH2:1]C(C)(C)C(=O)Nc3sc([100NH:0][100C:0](=O)N4CCCC(n5nc(-c6ccc(Oc7ccc(F)cc7F)cc6)c(C(N)=O)c5N)C4)nc3C)ccc2CC1C(=O)NC1CCCc2ccccc21)C(C)(C)C

> <Shape>
0.234

> <Color>
0.190

> <Negative vol penalty>
0.000

$$$$

  -OEChem-04052304533D

 85 93  0     1  0  0  0  0  0999 V2000
  -16.4869  -29.1680   23.4611 C   0  0  0  0  0  0  0  0  0  0  0  0
  -17.4146  -28.4212   22.7421 C   0  0  0  0  0  0  0  0  0  0  0  0
  -23.3806   -9.4801   21.2190 C   0  0  0  0  0  0  0  0  0  0  0  0
  -24.0439  -10.3988   23.3528 C   0  0  0  0  0  0  0  0  0  0  0  0
  -16.8968  -30.3062   24.1543 C   0  0  0  0  0  0  0  0  0  0  0  0
  -18.7527  -28.8127   22.7149 C   0  0  0  0  0  0  0  0  0  0  0  0
  -23.6574  -25.1501   22.5298 C   0  0  0  0  0  0  0  0  0  0  0  0
  -22.7488   -8.4213   21.8712 C   0  0  0  0  0  0  0  0  0  0  0  0
  -23.4119   -9.3400   24.0050 C   0  0  0  0  0  0  0  0  0  0  0  0
  -24.4751  -24.7296   21.4818 C   0  0  0  0  0  0  0  0  0  0  0  0
  -19.8415   -7.8859   23.5126 C   0  0  0  0  0  0  0  0  0  0  0  0
  -18.5665   -7.5247   23.0773 C   0  0  0  0  0  0  0  0  0  0  0  0
  -26.0374  -26.4927   22.0015 C   0  0  0  0  0  0  0  0  0  0  0  0
  -19.3735   -5.3087   22.5524 C   0  0  0  0  0  0  0  0  0  0  0  0
  -29.2036  -18.6120   20.9229 C   0  0  0  0  0  0  0  0  0  0  0  0
  -24.0282  -10.4688   21.9598 C   0  0  0  0  0  0  0  0  0  0  0  0
  -24.1155  -12.8009   20.9296 C   0  0  0  0  0  0  0  0  0  0  0  0
  -18.2423  -30.7064   24.1435 C   0  0  0  0  0  0  0  0  0  0  0  0
  -24.0188  -26.2535   23.3160 C   0  0  0  0  0  0  0  0  0  0  0  0
  -19.1807  -29.9581   23.4075 C   0  0  0  0  0  0  0  0  0  0  0  0
  -25.2238  -26.9235   23.0605 C   0  0  0  0  0  0  0  0  0  0  0  0
  -22.7644   -8.3513   23.2642 C   0  0  0  0  0  0  0  0  0  0  0  0
  -25.6639  -25.4027   21.2156 C   0  0  0  0  0  0  0  0  0  0  0  0
  -20.8826   -6.9586   23.4677 C   0  0  0  0  0  0  0  0  0  0  0  0
  -18.3325   -6.2361   22.5973 C   0  0  0  0  0  0  0  0  0  0  0  0
  -20.6486   -5.6700   22.9876 C   0  0  0  0  0  0  0  0  0  0  0  0
  -24.6816  -11.5624   21.2866 C   0  0  0  0  0  0  0  0  0  0  0  0
  -30.0333  -17.5674   20.4732 C   0  0  0  0  0  0  0  0  0  0  0  0
  -29.9278  -19.7538   20.6816 C   0  0  0  0  0  0  0  0  0  0  0  0
  -25.1392  -13.4830   20.3186 C   0  0  0  0  0  0  0  0  0  0  0  0
  -22.7834  -13.2909   21.1321 C   0  0  0  0  0  0  0  0  0  0  0  0
  -28.4820  -23.1090   21.5832 C   0  0  0  0  0  0  0  0  0  0  0  0
  -28.4617  -21.6108   21.4844 C   0  0  0  0  0  0  0  0  0  0  0  0
  -22.7414  -29.1045   23.9028 C   0  0  0  0  0  0  0  0  0  0  0  0
  -25.1716  -29.3205   26.0405 C   0  0  0  0  0  0  0  0  0  0  0  0
  -28.2854  -28.3049   26.9996 C   0  0  0  0  0  0  0  0  0  0  0  0
  -30.4590  -15.1124   20.1013 C   0  0  0  0  0  0  0  0  0  0  0  0
  -18.6294  -31.9706   24.8693 C   0  0  0  0  0  0  0  0  0  0  0  0
  -23.1390  -26.6780   24.4597 C   0  0  0  0  0  0  0  0  0  0  0  0
  -25.6672  -28.1013   23.8879 C   0  0  0  0  0  0  0  0  0  0  0  0
  -20.1328  -32.1064   25.0966 C   0  0  0  0  0  0  0  0  0  0  0  0
  -29.6918  -11.8992   18.7733 C   0  0  0  0  0  0  0  0  0  0  0  0
  -20.8976  -31.7830   23.8170 C   0  0  0  0  0  0  0  0  0  0  0  0
  -28.2733  -11.6270   19.2794 C   0  0  0  0  0  0  0  0  0  0  0  0
  -30.5301  -12.6457   19.8094 C   0  0  0  0  0  0  0  0  0  0  0  0
  -28.5057  -13.6072   20.8324 C   0  0  0  0  0  0  0  0  0  0  0  0
  -20.6455  -30.3367   23.3742 C   0  0  1  0  0  0  0  0  0  0  0  0
  -23.3530  -28.1315   24.8708 C   0  0  1  0  0  0  0  0  0  0  0  0
  -27.6034  -12.9145   19.7982 C   0  0  2  0  0  0  0  0  0  0  0  0
  -30.0240  -28.6865   28.7685 C   0  0  0  0  0  0  0  0  0  0  0  0
  -28.3304  -26.1348   19.2134 C   0  0  0  0  0  0  0  0  0  0  0  0
  -25.9335  -31.9627   24.7183 C   0  0  0  0  0  0  0  0  0  0  0  0
  -28.1582  -31.8107   25.8565 C   0  0  0  0  0  0  0  0  0  0  0  0
  -26.0721  -31.9676   27.2153 C   0  0  0  0  0  0  0  0  0  0  0  0
  -32.2009  -20.1715   19.6904 C   0  0  0  0  0  0  0  0  0  0  0  0
  -28.1668  -25.4845   27.8887 C   0  0  0  0  0  0  0  0  0  0  0  0
  -28.5814  -23.8675   20.2770 C   0  0  0  0  0  0  0  0  0  0  0  0
  -26.5963  -29.8175   25.9929 C   0  0  1  0  0  0  0  0  0  0  0  0
  -28.8274  -27.8502   28.3427 C   0  0  2  0  0  0  0  0  0  0  0  0
  -27.8658  -25.2170   20.3365 C   0  0  2  0  0  0  0  0  0  1  0  0
  -26.6810  -31.3687   25.9287 C   0  0  0  0  0  0  0  0  0  0  0  0
  -25.9653  -11.4608   20.9319 N   0  0  0  0  0  0  0  0  0  0  0  0
  -31.1956  -18.0066   19.9831 N   0  0  0  0  0  0  0  0  0  0  0  0
  -26.2143  -12.6442   20.3455 N   0  0  0  0  0  0  0  0  0  0  0  0
  -31.1014  -19.3398   20.1234 N   0  0  0  0  0  0  0  0  0  0  0  0
  -24.7696  -28.4821   24.9910 N   0  0  0  0  0  0  0  0  0  0  0  0
  -29.8345  -13.8562   20.2517 N   0  0  0  0  0  0  0  0  0  0  0  0
  -25.2156  -14.7125   19.7664 N   0  0  0  0  0  0  0  0  0  0  0  0
  -21.8568  -12.4604   21.7769 N   0  0  0  0  0  0  0  0  0  0  0  0
  -29.6887  -16.1940   20.5271 N   0  0  0  0  0  0  0  0  0  0  0  0
  -29.6168  -21.1125   20.9215 N   0  0  0  0  0  0  0  0  0  0  0  0
  -21.4243  -29.4191   24.1778 N   0  0  0  0  0  0  0  0  0  0  0  0
  -27.2725  -29.2293   27.1441 N   0  0  0  0  0  0  0  0  0  0  0  0
  -29.2519  -26.4233   28.2738 N   0  3  0  0  0  0  0  0  0  0  0  0
  -22.4209  -14.4253   20.7379 O   0  0  0  0  0  0  0  0  0  0  0  0
  -28.4099  -23.5969   22.7009 O   0  0  0  0  0  0  0  0  0  0  0  0
  -27.4722  -21.0481   21.9230 O   0  0  0  0  0  0  0  0  0  0  0  0
  -23.4152  -29.5388   22.9759 O   0  0  0  0  0  0  0  0  0  0  0  0
  -24.4445  -29.6577   26.9781 O   0  0  0  0  0  0  0  0  0  0  0  0
  -28.7198  -27.8851   25.9293 O   0  0  0  0  0  0  0  0  0  0  0  0
  -31.5828  -15.2231   19.6044 O   0  0  0  0  0  0  0  0  0  0  0  0
  -22.1477   -7.3185   23.9010 O   0  0  0  0  0  0  0  0  0  0  0  0
  -26.4635  -24.9948   20.1929 O   0  0  0  0  0  0  0  0  0  1  0  0
  -17.1077   -5.8889   22.1807 F   0  0  0  0  0  0  0  0  0  0  0  0
  -21.6445   -4.7744   22.9432 F   0  0  0  0  0  0  0  0  0  0  0  0
  1  2  1  0  0  0  0
  1  5  2  0  0  0  0
  2  6  2  0  0  0  0
  3  8  2  0  0  0  0
  3 16  1  0  0  0  0
  4  9  1  0  0  0  0
  4 16  2  0  0  0  0
  5 18  1  0  0  0  0
  6 20  1  0  0  0  0
  7 10  2  0  0  0  0
  7 19  1  0  0  0  0
  8 22  1  0  0  0  0
  9 22  2  0  0  0  0
 10 23  1  0  0  0  0
 11 12  2  0  0  0  0
 11 24  1  0  0  0  0
 12 25  1  0  0  0  0
 13 21  1  0  0  0  0
 13 23  2  0  0  0  0
 14 25  2  0  0  0  0
 14 26  1  0  0  0  0
 15 28  1  0  0  0  0
 15 29  2  0  0  0  0
 16 27  1  0  0  0  0
 17 27  1  0  0  0  0
 17 30  2  0  0  0  0
 17 31  1  0  0  0  0
 18 20  2  0  0  0  0
 18 38  1  0  0  0  0
 19 21  2  0  0  0  0
 19 39  1  0  0  0  0
 20 47  1  0  0  0  0
 21 40  1  0  0  0  0
 22 82  1  0  0  0  0
 23 83  1  0  0  0  0
 24 26  2  0  0  0  0
 24 82  1  0  0  0  0
 25 84  1  0  0  0  0
 26 85  1  0  0  0  0
 27 62  2  0  0  0  0
 28 63  2  0  0  0  0
 28 70  1  0  0  0  0
 29 65  1  0  0  0  0
 29 71  1  0  0  0  0
 30 64  1  0  0  0  0
 30 68  1  0  0  0  0
 31 69  1  0  0  0  0
 31 75  2  0  0  0  0
 32 33  1  0  0  0  0
 32 57  1  0  0  0  0
 32 76  2  0  0  0  0
 33 71  1  0  0  0  0
 33 77  2  0  0  0  0
 34 48  1  0  0  0  0
 34 72  1  0  0  0  0
 34 78  2  0  0  0  0
 35 58  1  0  0  0  0
 35 66  1  0  0  0  0
 35 79  2  0  0  0  0
 36 59  1  0  0  0  0
 36 73  1  0  0  0  0
 36 80  2  0  0  0  0
 37 67  1  0  0  0  0
 37 70  1  0  0  0  0
 37 81  2  0  0  0  0
 38 41  1  0  0  0  0
 39 48  1  0  0  0  0
 40 66  1  0  0  0  0
 41 43  1  0  0  0  0
 42 44  1  0  0  0  0
 42 45  1  0  0  0  0
 43 47  1  0  0  0  0
 44 49  1  0  0  0  0
 45 67  1  0  0  0  0
 46 49  1  0  0  0  0
 46 67  1  0  0  0  0
 47 72  1  0  0  0  0
 48 66  1  0  0  0  0
 49 64  1  0  0  0  0
 50 59  1  0  0  0  0
 51 60  1  0  0  0  0
 52 61  1  0  0  0  0
 53 61  1  0  0  0  0
 54 61  1  0  0  0  0
 55 65  1  0  0  0  0
 56 74  1  0  0  0  0
 57 60  1  0  0  0  0
 58 61  1  0  0  0  0
 58 73  1  0  0  0  0
 59 74  1  0  0  0  0
 60 83  1  0  0  0  0
 62 64  1  0  0  0  0
 63 65  1  0  0  0  0
M  CHG  1  74   1
M  ISO  4  37 100  60 101  70 100  83 101
M  END
> <Batch ID>
0181

> <Smiles>
CNC(C)C(=O)NC(C(=O)N1Cc2cc([101O:1][101CH:1](C)CC(=O)C(=O)Nc3cc([100NH:0][100C:0](=O)N4CCCC(n5nc(-c6ccc(Oc7ccc(F)cc7F)cc6)c(C(N)=O)c5N)C4)nn3C)ccc2CC1C(=O)NC1CCCc2ccccc21)C(C)(C)C

> <Shape>
0.293

> <Color>
0.181

> <Negative vol penalty>
0.000

$$$$

  -OEChem-04052304533D

 86 94  0     1  0  0  0  0  0999 V2000
  -33.3570  -28.7777   26.4877 C   0  0  0  0  0  0  0  0  0  0  0  0
  -32.8211  -27.5239   26.2115 C   0  0  0  0  0  0  0  0  0  0  0  0
  -23.2902   -9.7974   19.9183 C   0  0  0  0  0  0  0  0  0  0  0  0
  -23.7403   -9.9458   22.2874 C   0  0  0  0  0  0  0  0  0  0  0  0
  -32.5463  -29.9103   26.4247 C   0  0  0  0  0  0  0  0  0  0  0  0
  -31.4738  -27.4019   25.8733 C   0  0  0  0  0  0  0  0  0  0  0  0
  -29.0126  -23.4029   21.9419 C   0  0  0  0  0  0  0  0  0  0  0  0
  -22.5642   -8.6253   20.1297 C   0  0  0  0  0  0  0  0  0  0  0  0
  -23.0143   -8.7737   22.4987 C   0  0  0  0  0  0  0  0  0  0  0  0
  -28.3654  -22.1821   22.1277 C   0  0  0  0  0  0  0  0  0  0  0  0
  -19.7676   -7.8620   22.7182 C   0  0  0  0  0  0  0  0  0  0  0  0
  -18.8650   -7.8434   23.7815 C   0  0  0  0  0  0  0  0  0  0  0  0
  -26.2327  -23.3057   22.0378 C   0  0  0  0  0  0  0  0  0  0  0  0
  -20.0712   -5.9998   24.7732 C   0  0  0  0  0  0  0  0  0  0  0  0
  -23.8783  -10.4577   20.9972 C   0  0  0  0  0  0  0  0  0  0  0  0
  -24.1367  -12.9871   20.7905 C   0  0  0  0  0  0  0  0  0  0  0  0
  -31.1907  -29.8032   26.0762 C   0  0  0  0  0  0  0  0  0  0  0  0
  -28.2737  -24.5878   21.8133 C   0  0  0  0  0  0  0  0  0  0  0  0
  -30.6439  -28.5340   25.8070 C   0  0  0  0  0  0  0  0  0  0  0  0
  -26.8728  -24.5400   21.8479 C   0  0  0  0  0  0  0  0  0  0  0  0
  -22.4263   -8.1134   21.4199 C   0  0  0  0  0  0  0  0  0  0  0  0
  -26.9754  -22.1337   22.1786 C   0  0  0  0  0  0  0  0  0  0  0  0
  -20.8220   -6.9495   22.6824 C   0  0  0  0  0  0  0  0  0  0  0  0
  -19.0168   -6.9123   24.8090 C   0  0  0  0  0  0  0  0  0  0  0  0
  -20.9738   -6.0185   23.7098 C   0  0  0  0  0  0  0  0  0  0  0  0
  -24.6288  -11.6682   20.7794 C   0  0  0  0  0  0  0  0  0  0  0  0
  -31.0145  -16.6015   24.6589 C   0  0  0  0  0  0  0  0  0  0  0  0
  -31.3033  -15.7185   23.6396 C   0  0  0  0  0  0  0  0  0  0  0  0
  -25.2380  -13.7666   20.5333 C   0  0  0  0  0  0  0  0  0  0  0  0
  -29.6331  -17.3824   23.1449 C   0  0  0  0  0  0  0  0  0  0  0  0
  -22.8035  -13.4649   21.0135 C   0  0  0  0  0  0  0  0  0  0  0  0
  -28.0646  -27.2920   23.4709 C   0  0  0  0  0  0  0  0  0  0  0  0
  -26.1688  -28.2028   21.0013 C   0  0  0  0  0  0  0  0  0  0  0  0
  -24.1191  -27.2862   18.4312 C   0  0  0  0  0  0  0  0  0  0  0  0
  -27.9342  -19.2274   22.9241 C   0  0  0  0  0  0  0  0  0  0  0  0
  -31.1091  -12.9286   21.3570 C   0  0  0  0  0  0  0  0  0  0  0  0
  -30.3428  -31.0504   26.0673 C   0  0  0  0  0  0  0  0  0  0  0  0
  -28.9859  -25.8931   21.5867 C   0  0  0  0  0  0  0  0  0  0  0  0
  -26.0329  -25.7808   21.6947 C   0  0  0  0  0  0  0  0  0  0  0  0
  -29.0140  -30.8784   25.3358 C   0  0  0  0  0  0  0  0  0  0  0  0
  -29.4606  -13.6575   18.2865 C   0  0  0  0  0  0  0  0  0  0  0  0
  -28.3323  -29.5830   25.7647 C   0  0  0  0  0  0  0  0  0  0  0  0
  -27.9910  -13.3493   18.5783 C   0  0  0  0  0  0  0  0  0  0  0  0
  -30.3941  -12.6807   18.9983 C   0  0  0  0  0  0  0  0  0  0  0  0
  -28.7073  -12.2563   20.7441 C   0  0  0  0  0  0  0  0  0  0  0  0
  -29.1929  -28.3637   25.4123 C   0  0  1  0  0  0  0  0  0  0  0  0
  -28.1500  -27.1064   21.9823 C   0  0  1  0  0  0  0  0  0  0  0  0
  -27.7291  -13.2490   20.0931 C   0  0  2  0  0  0  0  0  0  0  0  0
  -31.6312  -16.6120   26.0011 C   0  0  0  0  0  0  0  0  0  0  0  0
  -22.6859  -28.2546   16.6131 C   0  0  0  0  0  0  0  0  0  0  0  0
  -25.9430  -18.7521   21.4513 C   0  0  0  0  0  0  0  0  0  0  0  0
  -24.0355  -28.9121   23.0642 C   0  0  0  0  0  0  0  0  0  0  0  0
  -22.3550  -28.9552   21.2089 C   0  0  0  0  0  0  0  0  0  0  0  0
  -24.2670  -30.5573   21.1950 C   0  0  0  0  0  0  0  0  0  0  0  0
  -30.9534  -12.9953   25.1138 C   0  0  0  0  0  0  0  0  0  0  0  0
  -32.8077  -12.1175   23.6916 C   0  0  0  0  0  0  0  0  0  0  0  0
  -25.7243  -25.9843   16.3128 C   0  0  0  0  0  0  0  0  0  0  0  0
  -32.2587  -14.5936   23.5975 C   0  0  0  0  0  0  0  0  0  0  0  0
  -24.6926  -28.1152   20.6980 C   0  0  1  0  0  0  0  0  0  0  0  0
  -24.0645  -27.7276   16.9798 C   0  0  2  0  0  0  0  0  0  0  0  0
  -26.9916  -19.7774   21.8567 C   0  0  1  0  0  0  0  0  0  1  0  0
  -23.8531  -29.1117   21.5464 C   0  0  0  0  0  0  0  0  0  0  0  0
  -31.6703  -13.1502   23.7643 C   0  0  0  0  0  0  0  0  0  0  0  0
  -25.9405  -11.6093   20.5344 N   0  0  0  0  0  0  0  0  0  0  0  0
  -30.0574  -17.5566   24.3769 N   0  0  0  0  0  0  0  0  0  0  0  0
  -26.2820  -12.9009   20.3891 N   0  0  0  0  0  0  0  0  0  0  0  0
  -26.7759  -27.0337   21.4815 N   0  0  0  0  0  0  0  0  0  0  0  0
  -30.0945  -12.6338   20.4314 N   0  0  0  0  0  0  0  0  0  0  0  0
  -25.4054  -15.1013   20.4186 N   0  0  0  0  0  0  0  0  0  0  0  0
  -21.7912  -12.5284   21.2637 N   0  0  0  0  0  0  0  0  0  0  0  0
  -28.6570  -18.1369   22.4515 N   0  0  0  0  0  0  0  0  0  0  0  0
  -29.0841  -28.0590   24.0017 N   0  0  0  0  0  0  0  0  0  0  0  0
  -24.5604  -28.2986   19.2567 N   0  0  0  0  0  0  0  0  0  0  0  0
  -30.7391  -12.8672   22.6950 N   0  0  0  0  0  0  0  0  0  0  0  0
  -24.3860  -26.5852   16.0784 N   0  3  0  0  0  0  0  0  0  0  0  0
  -22.5151  -14.6851   20.9752 O   0  0  0  0  0  0  0  0  0  0  0  0
  -27.1412  -26.7785   24.0917 O   0  0  0  0  0  0  0  0  0  0  0  0
  -26.7630  -29.2671   20.8121 O   0  0  0  0  0  0  0  0  0  0  0  0
  -23.7986  -26.1574   18.7966 O   0  0  0  0  0  0  0  0  0  0  0  0
  -28.0069  -19.7431   24.0358 O   0  0  0  0  0  0  0  0  0  0  0  0
  -32.2581  -13.2297   21.0162 O   0  0  0  0  0  0  0  0  0  0  0  0
  -21.7178   -6.9698   21.6265 O   0  0  0  0  0  0  0  0  0  0  0  0
  -26.3413  -20.9435   22.3605 O   0  0  0  0  0  0  0  0  0  1  0  0
  -18.1509   -6.8956   25.8307 F   0  0  0  0  0  0  0  0  0  0  0  0
  -21.9855   -5.1401   23.6815 F   0  0  0  0  0  0  0  0  0  0  0  0
  -30.3419  -16.0885   22.2683 S   0  0  0  0  0  0  0  0  0  0  0  0
  1  2  1  0  0  0  0
  1  5  2  0  0  0  0
  2  6  2  0  0  0  0
  3  8  2  0  0  0  0
  3 15  1  0  0  0  0
  4  9  1  0  0  0  0
  4 15  2  0  0  0  0
  5 17  1  0  0  0  0
  6 19  1  0  0  0  0
  7 10  2  0  0  0  0
  7 18  1  0  0  0  0
  8 21  1  0  0  0  0
  9 21  2  0  0  0  0
 10 22  1  0  0  0  0
 11 12  2  0  0  0  0
 11 23  1  0  0  0  0
 12 24  1  0  0  0  0
 13 20  1  0  0  0  0
 13 22  2  0  0  0  0
 14 24  2  0  0  0  0
 14 25  1  0  0  0  0
 15 26  1  0  0  0  0
 16 26  1  0  0  0  0
 16 29  2  0  0  0  0
 16 31  1  0  0  0  0
 17 19  2  0  0  0  0
 17 37  1  0  0  0  0
 18 20  2  0  0  0  0
 18 38  1  0  0  0  0
 19 46  1  0  0  0  0
 20 39  1  0  0  0  0
 21 82  1  0  0  0  0
 22 83  1  0  0  0  0
 23 25  2  0  0  0  0
 23 82  1  0  0  0  0
 24 84  1  0  0  0  0
 25 85  1  0  0  0  0
 26 64  2  0  0  0  0
 27 28  2  0  0  0  0
 27 49  1  0  0  0  0
 27 65  1  0  0  0  0
 28 58  1  0  0  0  0
 28 86  1  0  0  0  0
 29 66  1  0  0  0  0
 29 69  1  0  0  0  0
 30 65  2  0  0  0  0
 30 71  1  0  0  0  0
 30 86  1  0  0  0  0
 31 70  1  0  0  0  0
 31 76  2  0  0  0  0
 32 47  1  0  0  0  0
 32 72  1  0  0  0  0
 32 77  2  0  0  0  0
 33 59  1  0  0  0  0
 33 67  1  0  0  0  0
 33 78  2  0  0  0  0
 34 60  1  0  0  0  0
 34 73  1  0  0  0  0
 34 79  2  0  0  0  0
 35 61  1  0  0  0  0
 35 71  1  0  0  0  0
 35 80  2  0  0  0  0
 36 68  1  0  0  0  0
 36 74  1  0  0  0  0
 36 81  2  0  0  0  0
 37 40  1  0  0  0  0
 38 47  1  0  0  0  0
 39 67  1  0  0  0  0
 40 42  1  0  0  0  0
 41 43  1  0  0  0  0
 41 44  1  0  0  0  0
 42 46  1  0  0  0  0
 43 48  1  0  0  0  0
 44 68  1  0  0  0  0
 45 48  1  0  0  0  0
 45 68  1  0  0  0  0
 46 72  1  0  0  0  0
 47 67  1  0  0  0  0
 48 66  1  0  0  0  0
 50 60  1  0  0  0  0
 51 61  1  0  0  0  0
 52 62  1  0  0  0  0
 53 62  1  0  0  0  0
 54 62  1  0  0  0  0
 55 63  1  0  0  0  0
 56 63  1  0  0  0  0
 57 75  1  0  0  0  0
 58 63  1  0  0  0  0
 59 62  1  0  0  0  0
 59 73  1  0  0  0  0
 60 75  1  0  0  0  0
 61 83  1  0  0  0  0
 63 74  1  0  0  0  0
 64 66  1  0  0  0  0
M  CHG  1  75   1
M  ISO  4  36 100  61 101  74 100  83 101
M  END
> <Batch ID>
0181

> <Smiles>
CNC(C)C(=O)NC(C(=O)N1Cc2cc([101O:1][101CH:1](C)C(=O)Nc3nc(C)c(CC(C)(C)[100NH:0][100C:0](=O)N4CCCC(n5nc(-c6ccc(Oc7ccc(F)cc7F)cc6)c(C(N)=O)c5N)C4)s3)ccc2CC1C(=O)NC1CCCc2ccccc21)C(C)(C)C

> <Shape>
0.229

> <Color>
0.167

> <Negative vol penalty>
0.000

$$$$

  -OEChem-04052304533D

 86 94  0     1  0  0  0  0  0999 V2000
  -26.6186  -38.4350   20.8703 C   0  0  0  0  0  0  0  0  0  0  0  0
  -27.1616  -37.3635   20.1685 C   0  0  0  0  0  0  0  0  0  0  0  0
  -25.0644   -7.9075   21.0667 C   0  0  0  0  0  0  0  0  0  0  0  0
  -23.6339   -9.2278   19.6359 C   0  0  0  0  0  0  0  0  0  0  0  0
  -26.0451  -38.2270   22.1239 C   0  0  0  0  0  0  0  0  0  0  0  0
  -27.1324  -36.0834   20.7207 C   0  0  0  0  0  0  0  0  0  0  0  0
  -26.5916  -29.1966   18.8242 C   0  0  0  0  0  0  0  0  0  0  0  0
  -23.9616   -7.1598   21.4794 C   0  0  0  0  0  0  0  0  0  0  0  0
  -22.5310   -8.4801   20.0486 C   0  0  0  0  0  0  0  0  0  0  0  0
  -27.2397  -27.9755   19.0052 C   0  0  0  0  0  0  0  0  0  0  0  0
  -21.3791   -7.5110   23.6315 C   0  0  0  0  0  0  0  0  0  0  0  0
  -21.2479   -7.2496   24.9954 C   0  0  0  0  0  0  0  0  0  0  0  0
  -26.1522  -27.7220   21.1434 C   0  0  0  0  0  0  0  0  0  0  0  0
  -21.3342   -4.8768   24.5488 C   0  0  0  0  0  0  0  0  0  0  0  0
  -24.9006   -8.9415   20.1450 C   0  0  0  0  0  0  0  0  0  0  0  0
  -26.8864   -9.4488   18.6262 C   0  0  0  0  0  0  0  0  0  0  0  0
  -26.0002  -36.9420   22.6875 C   0  0  0  0  0  0  0  0  0  0  0  0
  -25.7259  -29.6956   19.8081 C   0  0  0  0  0  0  0  0  0  0  0  0
  -26.5589  -35.8581   21.9836 C   0  0  0  0  0  0  0  0  0  0  0  0
  -25.4924  -28.9484   20.9714 C   0  0  0  0  0  0  0  0  0  0  0  0
  -22.6949   -7.4461   20.9704 C   0  0  0  0  0  0  0  0  0  0  0  0
  -27.0223  -27.2394   20.1662 C   0  0  0  0  0  0  0  0  0  0  0  0
  -21.4877   -6.4554   22.7263 C   0  0  0  0  0  0  0  0  0  0  0  0
  -21.2255   -5.9325   25.4540 C   0  0  0  0  0  0  0  0  0  0  0  0
  -21.4652   -5.1382   23.1849 C   0  0  0  0  0  0  0  0  0  0  0  0
  -26.0393   -9.7146   19.7187 C   0  0  0  0  0  0  0  0  0  0  0  0
  -24.9929  -18.8214   17.7282 C   0  0  0  0  0  0  0  0  0  0  0  0
  -25.9610  -19.4110   18.5138 C   0  0  0  0  0  0  0  0  0  0  0  0
  -27.8053  -10.4695   18.6480 C   0  0  0  0  0  0  0  0  0  0  0  0
  -26.2178  -17.3360   19.1759 C   0  0  0  0  0  0  0  0  0  0  0  0
  -26.8462   -8.3754   17.6766 C   0  0  0  0  0  0  0  0  0  0  0  0
  -27.2009  -22.9292   18.9548 C   0  0  0  0  0  0  0  0  0  0  0  0
  -28.0073  -23.8365   19.5241 C   0  0  0  0  0  0  0  0  0  0  0  0
  -27.2049  -21.4667   19.2574 C   0  0  0  0  0  0  0  0  0  0  0  0
  -25.6796  -32.2847   21.6514 C   0  0  0  0  0  0  0  0  0  0  0  0
  -22.7651  -31.1465   22.5074 C   0  0  0  0  0  0  0  0  0  0  0  0
  -20.6719  -28.4666   22.7959 C   0  0  0  0  0  0  0  0  0  0  0  0
  -27.6616  -16.0466   20.7881 C   0  0  0  0  0  0  0  0  0  0  0  0
  -25.4122  -36.7742   24.0662 C   0  0  0  0  0  0  0  0  0  0  0  0
  -25.0138  -31.0017   19.5858 C   0  0  0  0  0  0  0  0  0  0  0  0
  -24.5568  -29.4303   22.0489 C   0  0  0  0  0  0  0  0  0  0  0  0
  -25.0858  -35.3247   24.4168 C   0  0  0  0  0  0  0  0  0  0  0  0
  -29.9780  -13.4886   21.6643 C   0  0  0  0  0  0  0  0  0  0  0  0
  -26.2497  -34.4108   24.0465 C   0  0  0  0  0  0  0  0  0  0  0  0
  -29.3108  -12.2069   21.1600 C   0  0  0  0  0  0  0  0  0  0  0  0
  -28.9561  -14.4799   22.2181 C   0  0  0  0  0  0  0  0  0  0  0  0
  -27.1807  -13.5200   20.8055 C   0  0  0  0  0  0  0  0  0  0  0  0
  -26.5241  -34.4506   22.5383 C   0  0  1  0  0  0  0  0  0  0  0  0
  -24.5507  -31.6580   20.8828 C   0  0  1  0  0  0  0  0  0  0  0  0
  -28.1634  -12.5175   20.1787 C   0  0  2  0  0  0  0  0  0  0  0  0
  -22.8905  -20.1468   17.3973 C   0  0  0  0  0  0  0  0  0  0  0  0
  -18.3660  -27.8418   23.5639 C   0  0  0  0  0  0  0  0  0  0  0  0
  -23.6851  -31.3297   25.4109 C   0  0  0  0  0  0  0  0  0  0  0  0
  -21.7717  -29.8419   26.0382 C   0  0  0  0  0  0  0  0  0  0  0  0
  -21.3306  -32.0732   25.0137 C   0  0  0  0  0  0  0  0  0  0  0  0
  -19.9011  -27.5289   20.0967 C   0  0  0  0  0  0  0  0  0  0  0  0
  -24.0682  -19.4179   16.7427 C   0  0  0  0  0  0  0  0  0  0  0  0
  -27.9648  -25.2943   19.1741 C   0  0  0  0  0  0  0  0  0  1  0  0
  -22.2548  -30.2102   23.5760 C   0  0  1  0  0  0  0  0  0  0  0  0
  -19.2241  -28.2703   22.3838 C   0  0  2  0  0  0  0  0  0  0  0  0
  -22.2797  -30.8553   24.9905 C   0  0  0  0  0  0  0  0  0  0  0  0
  -26.3891  -10.8175   20.3860 N   0  0  0  0  0  0  0  0  0  0  0  0
  -26.6642  -18.5609   19.3449 N   0  0  0  0  0  0  0  0  0  0  0  0
  -27.4661  -11.2538   19.7110 N   0  0  0  0  0  0  0  0  0  0  0  0
  -23.8890  -30.7162   21.7880 N   0  0  0  0  0  0  0  0  0  0  0  0
  -27.9019  -14.7292   21.2325 N   0  0  0  0  0  0  0  0  0  0  0  0
  -28.8623  -10.7635   17.8614 N   0  0  0  0  0  0  0  0  0  0  0  0
  -25.8356   -7.4122   17.7994 N   0  0  0  0  0  0  0  0  0  0  0  0
  -26.2521  -20.7965   18.5026 N   0  0  0  0  0  0  0  0  0  0  0  0
  -26.6576  -16.1567   19.8266 N   0  0  0  0  0  0  0  0  0  0  0  0
  -25.5516  -33.6494   21.8264 N   0  0  0  0  0  0  0  0  0  0  0  0
  -20.9318  -29.7761   23.1405 N   0  0  0  0  0  0  0  0  0  0  0  0
  -19.1237  -27.2256   21.3258 N   0  3  0  0  0  0  0  0  0  0  0  0
  -27.6916   -8.2644   16.7565 O   0  0  0  0  0  0  0  0  0  0  0  0
  -27.9776  -20.9882   20.0787 O   0  0  0  0  0  0  0  0  0  0  0  0
  -26.5979  -31.5819   22.0569 O   0  0  0  0  0  0  0  0  0  0  0  0
  -22.1836  -32.2169   22.3133 O   0  0  0  0  0  0  0  0  0  0  0  0
  -21.4895  -27.5491   22.8141 O   0  0  0  0  0  0  0  0  0  0  0  0
  -28.3181  -17.0030   21.2080 O   0  0  0  0  0  0  0  0  0  0  0  0
  -28.9526  -23.4805   20.4667 O   0  0  0  0  0  0  0  0  0  0  0  0
  -21.6186   -6.7166   21.3727 O   0  0  0  0  0  0  0  0  0  0  0  0
  -27.6542  -26.0476   20.3456 O   0  0  0  0  0  0  0  0  0  1  0  0
  -21.1012   -5.6816   26.7639 F   0  0  0  0  0  0  0  0  0  0  0  0
  -21.5704   -4.1199   22.3202 F   0  0  0  0  0  0  0  0  0  0  0  0
  -26.2943  -23.3148   18.0294 F   0  0  0  0  0  0  0  0  0  0  0  0
  -24.9539  -17.1340   18.0328 S   0  0  0  0  0  0  0  0  0  0  0  0
  1  2  1  0  0  0  0
  1  5  2  0  0  0  0
  2  6  2  0  0  0  0
  3  8  2  0  0  0  0
  3 15  1  0  0  0  0
  4  9  1  0  0  0  0
  4 15  2  0  0  0  0
  5 17  1  0  0  0  0
  6 19  1  0  0  0  0
  7 10  2  0  0  0  0
  7 18  1  0  0  0  0
  8 21  1  0  0  0  0
  9 21  2  0  0  0  0
 10 22  1  0  0  0  0
 11 12  2  0  0  0  0
 11 23  1  0  0  0  0
 12 24  1  0  0  0  0
 13 20  1  0  0  0  0
 13 22  2  0  0  0  0
 14 24  2  0  0  0  0
 14 25  1  0  0  0  0
 15 26  1  0  0  0  0
 16 26  1  0  0  0  0
 16 29  2  0  0  0  0
 16 31  1  0  0  0  0
 17 19  2  0  0  0  0
 17 39  1  0  0  0  0
 18 20  2  0  0  0  0
 18 40  1  0  0  0  0
 19 48  1  0  0  0  0
 20 41  1  0  0  0  0
 21 81  1  0  0  0  0
 22 82  1  0  0  0  0
 23 25  2  0  0  0  0
 23 81  1  0  0  0  0
 24 83  1  0  0  0  0
 25 84  1  0  0  0  0
 26 62  2  0  0  0  0
 27 28  2  0  0  0  0
 27 57  1  0  0  0  0
 27 86  1  0  0  0  0
 28 63  1  0  0  0  0
 28 69  1  0  0  0  0
 29 64  1  0  0  0  0
 29 67  1  0  0  0  0
 30 63  2  0  0  0  0
 30 70  1  0  0  0  0
 30 86  1  0  0  0  0
 31 68  1  0  0  0  0
 31 74  2  0  0  0  0
 32 33  2  0  0  0  0
 32 34  1  0  0  0  0
 32 85  1  0  0  0  0
 33 58  1  0  0  0  0
 33 80  1  0  0  0  0
 34 69  1  0  0  0  0
 34 75  2  0  0  0  0
 35 49  1  0  0  0  0
 35 71  1  0  0  0  0
 35 76  2  0  0  0  0
 36 59  1  0  0  0  0
 36 65  1  0  0  0  0
 36 77  2  0  0  0  0
 37 60  1  0  0  0  0
 37 72  1  0  0  0  0
 37 78  2  0  0  0  0
 38 66  1  0  0  0  0
 38 70  1  0  0  0  0
 38 79  2  0  0  0  0
 39 42  1  0  0  0  0
 40 49  1  0  0  0  0
 41 65  1  0  0  0  0
 42 44  1  0  0  0  0
 43 45  1  0  0  0  0
 43 46  1  0  0  0  0
 44 48  1  0  0  0  0
 45 50  1  0  0  0  0
 46 66  1  0  0  0  0
 47 50  1  0  0  0  0
 47 66  1  0  0  0  0
 48 71  1  0  0  0  0
 49 65  1  0  0  0  0
 50 64  1  0  0  0  0
 51 57  1  0  0  0  0
 52 60  1  0  0  0  0
 53 61  1  0  0  0  0
 54 61  1  0  0  0  0
 55 61  1  0  0  0  0
 56 73  1  0  0  0  0
 58 82  1  0  0  0  0
 59 61  1  0  0  0  0
 59 72  1  0  0  0  0
 60 73  1  0  0  0  0
 62 64  1  0  0  0  0
M  CHG  1  73   1
M  ISO  4  38 100  58 101  70 100  82 101
M  END
> <Batch ID>
0181

> <Smiles>
CCc1sc([100NH:0][100C:0](=O)N2CCCC(n3nc(-c4ccc(Oc5ccc(F)cc5F)cc4)c(C(N)=O)c3N)C2)nc1NC(=O)C(F)C(=O)[101CH2:1][101O:1]c1ccc2c(c1)CN(C(=O)C(NC(=O)C(C)NC)C(C)(C)C)C(C(=O)NC1CCCc3ccccc31)C2

> <Shape>
0.287

> <Color>
0.082

> <Negative vol penalty>
0.000

$$$$

  -OEChem-04052304533D

 86 94  0     1  0  0  0  0  0999 V2000
  -20.7741  -23.4410   19.9739 C   0  0  0  0  0  0  0  0  0  0  0  0
  -22.1280  -23.1408   19.8634 C   0  0  0  0  0  0  0  0  0  0  0  0
  -22.4979  -28.0957   19.3953 C   0  0  0  0  0  0  0  0  0  0  0  0
  -22.9795  -27.3076   21.6278 C   0  0  0  0  0  0  0  0  0  0  0  0
  -19.9405  -22.6254   20.7379 C   0  0  0  0  0  0  0  0  0  0  0  0
  -22.6493  -22.0253   20.5178 C   0  0  0  0  0  0  0  0  0  0  0  0
  -27.1596  -18.3783   18.5525 C   0  0  0  0  0  0  0  0  0  0  0  0
  -21.1326  -27.9417   19.6354 C   0  0  0  0  0  0  0  0  0  0  0  0
  -21.6142  -27.1537   21.8680 C   0  0  0  0  0  0  0  0  0  0  0  0
  -28.5215  -18.3287   18.8470 C   0  0  0  0  0  0  0  0  0  0  0  0
  -18.9861  -29.1292   22.6499 C   0  0  0  0  0  0  0  0  0  0  0  0
  -18.4872  -29.5941   23.8666 C   0  0  0  0  0  0  0  0  0  0  0  0
  -29.8070  -22.9557   23.2291 C   0  0  0  0  0  0  0  0  0  0  0  0
  -28.0975  -16.6146   20.4905 C   0  0  0  0  0  0  0  0  0  0  0  0
  -17.7402  -27.3624   24.4131 C   0  0  0  0  0  0  0  0  0  0  0  0
  -23.4215  -27.7786   20.3914 C   0  0  0  0  0  0  0  0  0  0  0  0
  -30.5271  -22.2854   24.2117 C   0  0  0  0  0  0  0  0  0  0  0  0
  -25.6132  -29.0838   20.3803 C   0  0  0  0  0  0  0  0  0  0  0  0
  -20.4500  -21.4938   21.3941 C   0  0  0  0  0  0  0  0  0  0  0  0
  -26.2536  -17.5527   19.2337 C   0  0  0  0  0  0  0  0  0  0  0  0
  -21.8220  -21.1945   21.2924 C   0  0  0  0  0  0  0  0  0  0  0  0
  -26.7250  -16.6538   20.2010 C   0  0  0  0  0  0  0  0  0  0  0  0
  -31.6074  -21.4875   23.8517 C   0  0  0  0  0  0  0  0  0  0  0  0
  -20.6907  -27.4708   20.8718 C   0  0  0  0  0  0  0  0  0  0  0  0
  -28.9902  -17.4488   19.8181 C   0  0  0  0  0  0  0  0  0  0  0  0
  -18.8619  -27.7809   22.3146 C   0  0  0  0  0  0  0  0  0  0  0  0
  -17.8643  -28.7108   24.7483 C   0  0  0  0  0  0  0  0  0  0  0  0
  -18.2390  -26.8975   23.1962 C   0  0  0  0  0  0  0  0  0  0  0  0
  -24.8320  -27.9368   20.1437 C   0  0  0  0  0  0  0  0  0  0  0  0
  -30.2045  -22.7963   21.9114 C   0  0  0  0  0  0  0  0  0  0  0  0
  -31.9241  -21.3937   22.5061 C   0  0  0  0  0  0  0  0  0  0  0  0
  -26.8780  -28.7259   19.9820 C   0  0  0  0  0  0  0  0  0  0  0  0
  -30.1276  -22.4374   25.6045 C   0  0  0  0  0  0  0  0  0  0  0  0
  -25.2299  -30.3587   20.9125 C   0  0  0  0  0  0  0  0  0  0  0  0
  -23.7606  -18.0525   21.1413 C   0  0  0  0  0  0  0  0  0  0  0  0
  -32.2174  -18.6611   20.9262 C   0  0  0  0  0  0  0  0  0  0  0  0
  -23.4391  -14.8325   20.9178 C   0  0  0  0  0  0  0  0  0  0  0  0
  -24.9040  -11.8094   20.3165 C   0  0  0  0  0  0  0  0  0  0  0  0
  -29.6842  -23.4690   19.5401 C   0  0  0  0  0  0  0  0  0  0  0  0
  -19.5191  -20.6688   22.2470 C   0  0  0  0  0  0  0  0  0  0  0  0
  -24.7911  -17.5992   18.8855 C   0  0  0  0  0  0  0  0  0  0  0  0
  -25.7961  -15.7319   20.9465 C   0  0  0  0  0  0  0  0  0  0  0  0
  -20.0778  -19.2936   22.6036 C   0  0  0  0  0  0  0  0  0  0  0  0
  -29.1635  -25.8311   16.9273 C   0  0  0  0  0  0  0  0  0  0  0  0
  -21.5241  -19.4105   23.0741 C   0  0  0  0  0  0  0  0  0  0  0  0
  -28.0691  -26.7472   17.4796 C   0  0  0  0  0  0  0  0  0  0  0  0
  -28.9513  -24.3775   17.3463 C   0  0  0  0  0  0  0  0  0  0  0  0
  -27.6902  -25.0815   19.3421 C   0  0  0  0  0  0  0  0  0  0  0  0
  -22.4201  -19.9791   21.9672 C   0  0  1  0  0  0  0  0  0  0  0  0
  -23.8937  -17.0793   20.0043 C   0  0  1  0  0  0  0  0  0  0  0  0
  -27.8970  -26.5662   19.0006 C   0  0  2  0  0  0  0  0  0  0  0  0
  -32.3946  -20.7577   24.8904 C   0  0  0  0  0  0  0  0  0  0  0  0
  -34.5372  -19.5433   20.5979 C   0  0  0  0  0  0  0  0  0  0  0  0
  -24.3949   -9.3531   20.2449 C   0  0  0  0  0  0  0  0  0  0  0  0
  -23.4357  -14.7467   23.9678 C   0  0  0  0  0  0  0  0  0  0  0  0
  -23.8827  -12.2871   23.8297 C   0  0  0  0  0  0  0  0  0  0  0  0
  -21.7757  -13.2253   22.8796 C   0  0  0  0  0  0  0  0  0  0  0  0
  -25.6316  -11.6240   17.4538 C   0  0  0  0  0  0  0  0  0  0  0  0
  -31.0663  -18.6027   19.9388 C   0  0  0  0  0  0  0  0  0  1  0  0
  -33.0883  -19.9085   20.8738 C   0  0  2  0  0  0  0  0  0  0  0  0
  -23.9671  -13.6490   21.6921 C   0  0  1  0  0  0  0  0  0  0  0  0
  -24.4827  -10.6419   19.4424 C   0  0  2  0  0  0  0  0  0  0  0  0
  -23.2828  -13.4956   23.0798 C   0  0  0  0  0  0  0  0  0  0  0  0
  -25.5412  -26.9260   19.6345 N   0  0  0  0  0  0  0  0  0  0  0  0
  -31.2483  -22.0298   21.5232 N   0  0  0  0  0  0  0  0  0  0  0  0
  -26.7812  -27.4366   19.5477 N   0  0  0  0  0  0  0  0  0  0  0  0
  -24.3742  -15.8192   20.5748 N   0  0  0  0  0  0  0  0  0  0  0  0
  -28.8006  -24.2828   18.8000 N   0  0  0  0  0  0  0  0  0  0  0  0
  -28.0524  -29.3914   19.9644 N   0  0  0  0  0  0  0  0  0  0  0  0
  -23.8896  -30.5575   21.2710 N   0  0  0  0  0  0  0  0  0  0  0  0
  -29.4648  -23.4834   20.9171 N   0  0  0  0  0  0  0  0  0  0  0  0
  -32.9983  -20.6007   22.1406 N   0  0  0  0  0  0  0  0  0  0  0  0
  -22.7266  -18.9566   20.9899 N   0  0  0  0  0  0  0  0  0  0  0  0
  -23.8153  -12.4897   20.8196 N   0  0  0  0  0  0  0  0  0  0  0  0
  -25.4628  -10.4419   18.3376 N   0  3  0  0  0  0  0  0  0  0  0  0
  -29.5943  -23.4590   26.0423 O   0  0  0  0  0  0  0  0  0  0  0  0
  -26.0482  -31.2994   21.0504 O   0  0  0  0  0  0  0  0  0  0  0  0
  -24.5376  -17.9871   22.0867 O   0  0  0  0  0  0  0  0  0  0  0  0
  -32.4340  -17.7416   21.7160 O   0  0  0  0  0  0  0  0  0  0  0  0
  -22.2424  -14.8762   20.6217 O   0  0  0  0  0  0  0  0  0  0  0  0
  -26.0812  -12.0875   20.5345 O   0  0  0  0  0  0  0  0  0  0  0  0
  -30.5875  -22.8293   18.9953 O   0  0  0  0  0  0  0  0  0  0  0  0
  -19.3584  -27.3207   21.1066 O   0  0  0  0  0  0  0  0  0  0  0  0
  -30.3189  -17.3989   20.1080 O   0  0  0  0  0  0  0  0  0  1  0  0
  -17.3867  -29.1571   25.9174 F   0  0  0  0  0  0  0  0  0  0  0  0
  -18.1178  -25.6009   22.8802 F   0  0  0  0  0  0  0  0  0  0  0  0
  1  2  1  0  0  0  0
  1  5  2  0  0  0  0
  2  6  2  0  0  0  0
  3  8  2  0  0  0  0
  3 16  1  0  0  0  0
  4  9  1  0  0  0  0
  4 16  2  0  0  0  0
  5 19  1  0  0  0  0
  6 21  1  0  0  0  0
  7 10  2  0  0  0  0
  7 20  1  0  0  0  0
  8 24  1  0  0  0  0
  9 24  2  0  0  0  0
 10 25  1  0  0  0  0
 11 12  2  0  0  0  0
 11 26  1  0  0  0  0
 12 27  1  0  0  0  0
 13 17  2  0  0  0  0
 13 30  1  0  0  0  0
 14 22  1  0  0  0  0
 14 25  2  0  0  0  0
 15 27  2  0  0  0  0
 15 28  1  0  0  0  0
 16 29  1  0  0  0  0
 17 23  1  0  0  0  0
 17 33  1  0  0  0  0
 18 29  1  0  0  0  0
 18 32  2  0  0  0  0
 18 34  1  0  0  0  0
 19 21  2  0  0  0  0
 19 40  1  0  0  0  0
 20 22  2  0  0  0  0
 20 41  1  0  0  0  0
 21 49  1  0  0  0  0
 22 42  1  0  0  0  0
 23 31  2  0  0  0  0
 23 52  1  0  0  0  0
 24 83  1  0  0  0  0
 25 84  1  0  0  0  0
 26 28  2  0  0  0  0
 26 83  1  0  0  0  0
 27 85  1  0  0  0  0
 28 86  1  0  0  0  0
 29 64  2  0  0  0  0
 30 65  2  0  0  0  0
 30 71  1  0  0  0  0
 31 65  1  0  0  0  0
 31 72  1  0  0  0  0
 32 66  1  0  0  0  0
 32 69  1  0  0  0  0
 33 76  2  0  0  0  0
 34 70  1  0  0  0  0
 34 77  2  0  0  0  0
 35 50  1  0  0  0  0
 35 73  1  0  0  0  0
 35 78  2  0  0  0  0
 36 59  1  0  0  0  0
 36 60  1  0  0  0  0
 36 79  2  0  0  0  0
 37 61  1  0  0  0  0
 37 67  1  0  0  0  0
 37 80  2  0  0  0  0
 38 62  1  0  0  0  0
 38 74  1  0  0  0  0
 38 81  2  0  0  0  0
 39 68  1  0  0  0  0
 39 71  1  0  0  0  0
 39 82  2  0  0  0  0
 40 43  1  0  0  0  0
 41 50  1  0  0  0  0
 42 67  1  0  0  0  0
 43 45  1  0  0  0  0
 44 46  1  0  0  0  0
 44 47  1  0  0  0  0
 45 49  1  0  0  0  0
 46 51  1  0  0  0  0
 47 68  1  0  0  0  0
 48 51  1  0  0  0  0
 48 68  1  0  0  0  0
 49 73  1  0  0  0  0
 50 67  1  0  0  0  0
 51 66  1  0  0  0  0
 53 60  1  0  0  0  0
 54 62  1  0  0  0  0
 55 63  1  0  0  0  0
 56 63  1  0  0  0  0
 57 63  1  0  0  0  0
 58 75  1  0  0  0  0
 59 84  1  0  0  0  0
 60 72  1  0  0  0  0
 61 63  1  0  0  0  0
 61 74  1  0  0  0  0
 62 75  1  0  0  0  0
 64 66  1  0  0  0  0
M  CHG  1  75   1
M  ISO  4  39 100  59 101  71 100  84 101
M  END
> <Batch ID>
0181

> <Smiles>
CNC(C)C(=O)NC(C(=O)N1Cc2cc([101O:1][101CH2:1]C(=O)C(C)Nc3nc([100NH:0][100C:0](=O)N4CCCC(n5nc(-c6ccc(Oc7ccc(F)cc7F)cc6)c(C(N)=O)c5N)C4)cc(C=O)c3C)ccc2CC1C(=O)NC1CCCc2ccccc21)C(C)(C)C

> <Shape>
0.218

> <Color>
0.072

> <Negative vol penalty>
0.000

$$$$

  -OEChem-04052304533D

 87 95  0     1  0  0  0  0  0999 V2000
  -23.0786   -8.4881   21.1944 C   0  0  0  0  0  0  0  0  0  0  0  0
  -23.8637   -9.2628   22.0424 C   0  0  0  0  0  0  0  0  0  0  0  0
  -26.4316  -27.9267   18.7978 C   0  0  0  0  0  0  0  0  0  0  0  0
  -26.8400  -26.9305   20.9607 C   0  0  0  0  0  0  0  0  0  0  0  0
  -22.6916   -8.9900   19.9525 C   0  0  0  0  0  0  0  0  0  0  0  0
  -24.2631  -10.5394   21.6485 C   0  0  0  0  0  0  0  0  0  0  0  0
  -24.9898  -15.4429   25.2447 C   0  0  0  0  0  0  0  0  0  0  0  0
  -25.3280  -28.6030   19.3177 C   0  0  0  0  0  0  0  0  0  0  0  0
  -25.7365  -27.6069   21.4806 C   0  0  0  0  0  0  0  0  0  0  0  0
  -26.1174  -16.0202   25.8270 C   0  0  0  0  0  0  0  0  0  0  0  0
  -25.0095  -30.7267   22.5570 C   0  0  0  0  0  0  0  0  0  0  0  0
  -25.1597  -31.3547   23.7934 C   0  0  0  0  0  0  0  0  0  0  0  0
  -26.2645  -17.5738   23.9875 C   0  0  0  0  0  0  0  0  0  0  0  0
  -23.3933  -29.9816   24.7054 C   0  0  0  0  0  0  0  0  0  0  0  0
  -27.1876  -27.0904   19.6193 C   0  0  0  0  0  0  0  0  0  0  0  0
  -29.6596  -26.8438   19.0398 C   0  0  0  0  0  0  0  0  0  0  0  0
  -23.0784  -10.2771   19.5472 C   0  0  0  0  0  0  0  0  0  0  0  0
  -24.4968  -15.9204   24.0219 C   0  0  0  0  0  0  0  0  0  0  0  0
  -23.8820  -11.0584   20.3994 C   0  0  0  0  0  0  0  0  0  0  0  0
  -25.1290  -17.0025   23.3930 C   0  0  0  0  0  0  0  0  0  0  0  0
  -24.9805  -28.4432   20.6591 C   0  0  0  0  0  0  0  0  0  0  0  0
  -26.7567  -17.0839   25.1970 C   0  0  0  0  0  0  0  0  0  0  0  0
  -24.0511  -29.7262   22.3947 C   0  0  0  0  0  0  0  0  0  0  0  0
  -24.3516  -30.9822   24.8676 C   0  0  0  0  0  0  0  0  0  0  0  0
  -23.2431  -29.3537   23.4689 C   0  0  0  0  0  0  0  0  0  0  0  0
  -28.3273  -26.3911   19.0827 C   0  0  0  0  0  0  0  0  0  0  0  0
  -30.5523  -17.1050   21.1548 C   0  0  0  0  0  0  0  0  0  0  0  0
  -30.3509  -25.8203   18.4388 C   0  0  0  0  0  0  0  0  0  0  0  0
  -30.4808  -17.8522   22.3118 C   0  0  0  0  0  0  0  0  0  0  0  0
  -29.9121  -19.0105   20.2777 C   0  0  0  0  0  0  0  0  0  0  0  0
  -30.2221  -28.0790   19.5020 C   0  0  0  0  0  0  0  0  0  0  0  0
  -30.9686  -17.7043   26.0413 C   0  0  0  0  0  0  0  0  0  0  0  0
  -30.6184  -18.3861   24.7485 C   0  0  0  0  0  0  0  0  0  0  0  0
  -24.0956  -14.6751   21.1250 C   0  0  0  0  0  0  0  0  0  0  0  0
  -22.6433  -17.5143   20.5317 C   0  0  0  0  0  0  0  0  0  0  0  0
  -22.2822  -20.8094   21.3434 C   0  0  0  0  0  0  0  0  0  0  0  0
  -29.3756  -19.9415   17.9992 C   0  0  0  0  0  0  0  0  0  0  0  0
  -22.6751  -10.7582   18.1759 C   0  0  0  0  0  0  0  0  0  0  0  0
  -23.2636  -15.3042   23.4202 C   0  0  0  0  0  0  0  0  0  0  0  0
  -24.6274  -17.5654   22.0892 C   0  0  0  0  0  0  0  0  0  0  0  0
  -22.8275  -12.2657   17.9900 C   0  0  0  0  0  0  0  0  0  0  0  0
  -29.7722  -22.2412   15.3101 C   0  0  0  0  0  0  0  0  0  0  0  0
  -24.1806  -12.7342   18.5158 C   0  0  0  0  0  0  0  0  0  0  0  0
  -29.5739  -23.6079   15.9696 C   0  0  0  0  0  0  0  0  0  0  0  0
  -28.8498  -21.1822   15.9113 C   0  0  0  0  0  0  0  0  0  0  0  0
  -28.7159  -22.4273   18.0329 C   0  0  0  0  0  0  0  0  0  0  0  0
  -24.3146  -12.4575   20.0181 C   0  0  1  0  0  0  0  0  0  0  0  0
  -23.1525  -15.5363   21.9165 C   0  0  1  0  0  0  0  0  0  0  0  0
  -29.6692  -23.5118   17.5050 C   0  0  2  0  0  0  0  0  0  0  0  0
  -29.7401  -14.7347   21.1483 C   0  0  0  0  0  0  0  0  0  0  0  0
  -30.4348  -16.9337   28.3542 C   0  0  0  0  0  0  0  0  0  0  0  0
  -21.0499  -22.8842   20.6550 C   0  0  0  0  0  0  0  0  0  0  0  0
  -24.5131  -17.8288   18.1411 C   0  0  0  0  0  0  0  0  0  0  0  0
  -23.9127  -20.2586   18.0797 C   0  0  0  0  0  0  0  0  0  0  0  0
  -22.1505  -18.5307   17.7170 C   0  0  0  0  0  0  0  0  0  0  0  0
  -20.9486  -21.0306   23.9762 C   0  0  0  0  0  0  0  0  0  0  0  0
  -28.6857  -16.8021   26.5591 C   0  0  0  0  0  0  0  0  0  1  0  0
  -30.9412  -15.6828   21.0612 C   0  0  1  0  0  0  0  0  0  0  0  0
  -29.8751  -17.5990   27.0972 C   0  0  2  0  0  0  0  0  0  0  0  0
  -23.0993  -18.8655   20.0364 C   0  0  1  0  0  0  0  0  0  0  0  0
  -21.0464  -21.6634   21.5619 C   0  0  2  0  0  0  0  0  0  0  0  0
  -23.4297  -18.8592   18.5171 C   0  0  0  0  0  0  0  0  0  0  0  0
  -28.1787  -25.1748   18.5511 N   0  0  0  0  0  0  0  0  0  0  0  0
  -30.2261  -17.7674   19.9875 N   0  0  0  0  0  0  0  0  0  0  0  0
  -29.4265  -24.8546   18.1684 N   0  0  0  0  0  0  0  0  0  0  0  0
  -23.4221  -16.9248   21.5375 N   0  0  0  0  0  0  0  0  0  0  0  0
  -28.9974  -21.1453   17.3679 N   0  0  0  0  0  0  0  0  0  0  0  0
  -31.6531  -25.6613   18.1204 N   0  0  0  0  0  0  0  0  0  0  0  0
  -29.3702  -29.0203   20.0956 N   0  0  0  0  0  0  0  0  0  0  0  0
  -30.7328  -17.5387   23.6676 N   0  0  0  0  0  0  0  0  0  0  0  0
  -29.5162  -20.0357   19.3834 N   0  0  0  0  0  0  0  0  0  0  0  0
  -23.5768  -13.4415   20.7810 N   0  0  0  0  0  0  0  0  0  0  0  0
  -22.0572  -19.8128   20.4174 N   0  0  0  0  0  0  0  0  0  0  0  0
  -20.9817  -22.1287   22.9762 N   0  3  0  0  0  0  0  0  0  0  0  0
  -31.4411  -28.3470   19.3770 O   0  0  0  0  0  0  0  0  0  0  0  0
  -32.1094  -17.2757   26.1452 O   0  0  0  0  0  0  0  0  0  0  0  0
  -30.2635  -19.5509   24.8232 O   0  0  0  0  0  0  0  0  0  0  0  0
  -25.2109  -15.0991   20.8457 O   0  0  0  0  0  0  0  0  0  0  0  0
  -21.6293  -17.0040   20.0490 O   0  0  0  0  0  0  0  0  0  0  0  0
  -23.3424  -21.0088   21.9324 O   0  0  0  0  0  0  0  0  0  0  0  0
  -29.5875  -18.9102   17.3561 O   0  0  0  0  0  0  0  0  0  0  0  0
  -23.9038  -29.1032   21.1668 O   0  0  0  0  0  0  0  0  0  0  0  0
  -27.8578  -17.6488   25.7628 O   0  0  0  0  0  0  0  0  0  1  0  0
  -24.4970  -31.5842   26.0552 F   0  0  0  0  0  0  0  0  0  0  0  0
  -22.3215  -28.3923   23.3194 F   0  0  0  0  0  0  0  0  0  0  0  0
  -31.6010  -15.3638   19.8940 F   0  0  0  0  0  0  0  0  0  0  0  0
  -29.9881  -19.4510   21.9346 S   0  0  0  0  0  0  0  0  0  0  0  0
  1  2  1  0  0  0  0
  1  5  2  0  0  0  0
  2  6  2  0  0  0  0
  3  8  2  0  0  0  0
  3 15  1  0  0  0  0
  4  9  1  0  0  0  0
  4 15  2  0  0  0  0
  5 17  1  0  0  0  0
  6 19  1  0  0  0  0
  7 10  2  0  0  0  0
  7 18  1  0  0  0  0
  8 21  1  0  0  0  0
  9 21  2  0  0  0  0
 10 22  1  0  0  0  0
 11 12  2  0  0  0  0
 11 23  1  0  0  0  0
 12 24  1  0  0  0  0
 13 20  1  0  0  0  0
 13 22  2  0  0  0  0
 14 24  2  0  0  0  0
 14 25  1  0  0  0  0
 15 26  1  0  0  0  0
 16 26  1  0  0  0  0
 16 28  2  0  0  0  0
 16 31  1  0  0  0  0
 17 19  2  0  0  0  0
 17 38  1  0  0  0  0
 18 20  2  0  0  0  0
 18 39  1  0  0  0  0
 19 47  1  0  0  0  0
 20 40  1  0  0  0  0
 21 82  1  0  0  0  0
 22 83  1  0  0  0  0
 23 25  2  0  0  0  0
 23 82  1  0  0  0  0
 24 84  1  0  0  0  0
 25 85  1  0  0  0  0
 26 63  2  0  0  0  0
 27 29  2  0  0  0  0
 27 58  1  0  0  0  0
 27 64  1  0  0  0  0
 28 65  1  0  0  0  0
 28 68  1  0  0  0  0
 29 70  1  0  0  0  0
 29 87  1  0  0  0  0
 30 64  2  0  0  0  0
 30 71  1  0  0  0  0
 30 87  1  0  0  0  0
 31 69  1  0  0  0  0
 31 75  2  0  0  0  0
 32 33  1  0  0  0  0
 32 59  1  0  0  0  0
 32 76  2  0  0  0  0
 33 70  1  0  0  0  0
 33 77  2  0  0  0  0
 34 48  1  0  0  0  0
 34 72  1  0  0  0  0
 34 78  2  0  0  0  0
 35 60  1  0  0  0  0
 35 66  1  0  0  0  0
 35 79  2  0  0  0  0
 36 61  1  0  0  0  0
 36 73  1  0  0  0  0
 36 80  2  0  0  0  0
 37 67  1  0  0  0  0
 37 71  1  0  0  0  0
 37 81  2  0  0  0  0
 38 41  1  0  0  0  0
 39 48  1  0  0  0  0
 40 66  1  0  0  0  0
 41 43  1  0  0  0  0
 42 44  1  0  0  0  0
 42 45  1  0  0  0  0
 43 47  1  0  0  0  0
 44 49  1  0  0  0  0
 45 67  1  0  0  0  0
 46 49  1  0  0  0  0
 46 67  1  0  0  0  0
 47 72  1  0  0  0  0
 48 66  1  0  0  0  0
 49 65  1  0  0  0  0
 50 58  1  0  0  0  0
 51 59  1  0  0  0  0
 52 61  1  0  0  0  0
 53 62  1  0  0  0  0
 54 62  1  0  0  0  0
 55 62  1  0  0  0  0
 56 74  1  0  0  0  0
 57 59  1  0  0  0  0
 57 83  1  0  0  0  0
 58 86  1  0  0  0  0
 60 62  1  0  0  0  0
 60 73  1  0  0  0  0
 61 74  1  0  0  0  0
 63 65  1  0  0  0  0
M  CHG  1  74   1
M  ISO  4  37 100  57 101  71 100  83 101
M  END
> <Batch ID>
0181

> <Smiles>
CNC(C)C(=O)NC(C(=O)N1Cc2cc([101O:1][101CH2:1]C(C)C(=O)C(=O)Nc3sc([100NH:0][100C:0](=O)N4CCCC(n5nc(-c6ccc(Oc7ccc(F)cc7F)cc6)c(C(N)=O)c5N)C4)nc3C(C)F)ccc2CC1C(=O)NC1CCCc2ccccc21)C(C)(C)C

> <Shape>
0.217

> <Color>
0.058

> <Negative vol penalty>
0.000

$$$$

  -OEChem-04052304533D

 85 93  0     1  0  0  0  0  0999 V2000
  -20.8469  -18.9725   24.9432 C   0  0  0  0  0  0  0  0  0  0  0  0
  -22.1744  -19.3866   24.9841 C   0  0  0  0  0  0  0  0  0  0  0  0
  -25.7795  -13.8509   21.4172 C   0  0  0  0  0  0  0  0  0  0  0  0
  -25.0904  -14.5890   19.2223 C   0  0  0  0  0  0  0  0  0  0  0  0
  -19.9685  -19.5413   24.0219 C   0  0  0  0  0  0  0  0  0  0  0  0
  -22.6246  -20.3691   24.1029 C   0  0  0  0  0  0  0  0  0  0  0  0
  -27.2847  -25.7946   23.6981 C   0  0  0  0  0  0  0  0  0  0  0  0
  -24.7454  -12.9149   21.4270 C   0  0  0  0  0  0  0  0  0  0  0  0
  -24.0563  -13.6529   19.2321 C   0  0  0  0  0  0  0  0  0  0  0  0
  -28.3162  -26.2704   22.8898 C   0  0  0  0  0  0  0  0  0  0  0  0
  -24.1330   -9.8655   20.1007 C   0  0  0  0  0  0  0  0  0  0  0  0
  -24.4325   -8.5732   20.5317 C   0  0  0  0  0  0  0  0  0  0  0  0
  -26.6897  -27.2387   21.3945 C   0  0  0  0  0  0  0  0  0  0  0  0
  -22.8092   -8.7894   22.3080 C   0  0  0  0  0  0  0  0  0  0  0  0
  -30.2861  -22.4708   16.3510 C   0  0  0  0  0  0  0  0  0  0  0  0
  -25.9520  -14.6880   20.3148 C   0  0  0  0  0  0  0  0  0  0  0  0
  -28.3316  -15.4686   19.8293 C   0  0  0  0  0  0  0  0  0  0  0  0
  -20.4058  -20.5381   23.1355 C   0  0  0  0  0  0  0  0  0  0  0  0
  -25.9454  -26.0283   23.3543 C   0  0  0  0  0  0  0  0  0  0  0  0
  -21.7515  -20.9508   23.1680 C   0  0  0  0  0  0  0  0  0  0  0  0
  -25.6431  -26.7670   22.2014 C   0  0  0  0  0  0  0  0  0  0  0  0
  -23.8838  -12.8159   20.3345 C   0  0  0  0  0  0  0  0  0  0  0  0
  -28.0188  -26.9900   21.7363 C   0  0  0  0  0  0  0  0  0  0  0  0
  -23.1716  -10.6198   20.7734 C   0  0  0  0  0  0  0  0  0  0  0  0
  -23.7706   -8.0351   21.6353 C   0  0  0  0  0  0  0  0  0  0  0  0
  -22.5097  -10.0818   21.8770 C   0  0  0  0  0  0  0  0  0  0  0  0
  -31.1528  -23.2192   15.5624 C   0  0  0  0  0  0  0  0  0  0  0  0
  -31.8431  -24.2894   16.1206 C   0  0  0  0  0  0  0  0  0  0  0  0
  -27.0196  -15.6555   20.3042 C   0  0  0  0  0  0  0  0  0  0  0  0
  -30.1458  -22.8306   17.6817 C   0  0  0  0  0  0  0  0  0  0  0  0
  -31.6329  -24.5679   17.4616 C   0  0  0  0  0  0  0  0  0  0  0  0
  -28.9489  -16.6771   20.0410 C   0  0  0  0  0  0  0  0  0  0  0  0
  -28.9380  -14.3064   19.2485 C   0  0  0  0  0  0  0  0  0  0  0  0
  -23.4601  -24.1829   22.6322 C   0  0  0  0  0  0  0  0  0  0  0  0
  -30.9138  -26.8255   19.5675 C   0  0  0  0  0  0  0  0  0  0  0  0
  -21.8540  -27.0011   22.6672 C   0  0  0  0  0  0  0  0  0  0  0  0
  -21.9579  -30.3988   22.3652 C   0  0  0  0  0  0  0  0  0  0  0  0
  -28.9664  -22.2411   19.8283 C   0  0  0  0  0  0  0  0  0  0  0  0
  -19.4310  -21.0898   22.1255 C   0  0  0  0  0  0  0  0  0  0  0  0
  -24.8448  -25.5313   24.2510 C   0  0  0  0  0  0  0  0  0  0  0  0
  -24.2221  -27.0624   21.7989 C   0  0  0  0  0  0  0  0  0  0  0  0
  -19.8957  -22.3922   21.4788 C   0  0  0  0  0  0  0  0  0  0  0  0
  -27.4389  -20.7316   22.6682 C   0  0  0  0  0  0  0  0  0  0  0  0
  -21.3532  -22.2812   21.0426 C   0  0  0  0  0  0  0  0  0  0  0  0
  -27.3016  -19.2611   22.2673 C   0  0  0  0  0  0  0  0  0  0  0  0
  -27.2040  -21.6668   21.4834 C   0  0  0  0  0  0  0  0  0  0  0  0
  -27.8813  -19.9100   19.8946 C   0  0  0  0  0  0  0  0  0  0  0  0
  -22.2715  -22.0316   22.2451 C   0  0  1  0  0  0  0  0  0  0  0  0
  -23.5075  -25.3859   23.5313 C   0  0  1  0  0  0  0  0  0  0  0  0
  -28.1731  -18.9277   21.0406 C   0  0  2  0  0  0  0  0  0  0  0  0
  -33.4083  -26.8964   19.7680 C   0  0  0  0  0  0  0  0  0  0  0  0
  -20.4794  -32.4261   22.4049 C   0  0  0  0  0  0  0  0  0  0  0  0
  -20.8468  -26.3183   19.8691 C   0  0  0  0  0  0  0  0  0  0  0  0
  -20.1929  -28.7194   19.5942 C   0  0  0  0  0  0  0  0  0  0  0  0
  -19.1299  -27.3352   21.3766 C   0  0  0  0  0  0  0  0  0  0  0  0
  -23.3970  -31.5461   24.6828 C   0  0  0  0  0  0  0  0  0  0  0  0
  -30.2322  -26.6967   20.9174 C   0  0  0  0  0  0  0  0  0  1  0  0
  -32.2084  -26.0450   19.3884 C   0  0  2  0  0  0  0  0  0  0  0  0
  -21.5364  -28.0633   21.6426 C   0  0  1  0  0  0  0  0  0  0  0  0
  -21.3705  -31.5048   23.2233 C   0  0  2  0  0  0  0  0  0  0  0  0
  -20.4533  -27.6020   20.6269 C   0  0  0  0  0  0  0  0  0  0  0  0
  -26.8146  -16.8859   20.7818 N   0  0  0  0  0  0  0  0  0  0  0  0
  -30.7992  -23.8635   18.2594 N   0  0  0  0  0  0  0  0  0  0  0  0
  -28.0060  -17.4830   20.6081 N   0  0  0  0  0  0  0  0  0  0  0  0
  -23.1810  -26.5498   22.7048 N   0  0  0  0  0  0  0  0  0  0  0  0
  -28.0667  -21.2933   20.3604 N   0  0  0  0  0  0  0  0  0  0  0  0
  -30.2008  -17.1184   19.7956 N   0  0  0  0  0  0  0  0  0  0  0  0
  -28.1611  -13.1489   19.1040 N   0  0  0  0  0  0  0  0  0  0  0  0
  -29.2603  -22.0617   18.4770 N   0  0  0  0  0  0  0  0  0  0  0  0
  -32.3255  -25.6357   18.0060 N   0  0  0  0  0  0  0  0  0  0  0  0
  -22.4907  -23.2606   22.9773 N   0  0  0  0  0  0  0  0  0  0  0  0
  -21.1789  -29.2615   22.3943 N   0  0  0  0  0  0  0  0  0  0  0  0
  -22.4585  -32.3216   23.8315 N   0  3  0  0  0  0  0  0  0  0  0  0
  -30.1382  -14.2896   18.8841 O   0  0  0  0  0  0  0  0  0  0  0  0
  -24.2438  -24.0986   21.6939 O   0  0  0  0  0  0  0  0  0  0  0  0
  -30.4443  -27.5323   18.6752 O   0  0  0  0  0  0  0  0  0  0  0  0
  -20.9595  -26.5921   23.4116 O   0  0  0  0  0  0  0  0  0  0  0  0
  -23.0013  -30.5319   21.7294 O   0  0  0  0  0  0  0  0  0  0  0  0
  -29.4621  -23.1288   20.5269 O   0  0  0  0  0  0  0  0  0  0  0  0
  -22.8748  -11.9024   20.3437 O   0  0  0  0  0  0  0  0  0  0  0  0
  -29.0237  -27.4550   20.9452 O   0  0  0  0  0  0  0  0  0  1  0  0
  -24.0572   -6.7935   22.0482 F   0  0  0  0  0  0  0  0  0  0  0  0
  -21.5843  -10.8012   22.5265 F   0  0  0  0  0  0  0  0  0  0  0  0
  -31.3223  -22.9105   14.2703 F   0  0  0  0  0  0  0  0  0  0  0  0
  -32.6810  -25.0188   15.3730 F   0  0  0  0  0  0  0  0  0  0  0  0
  1  2  1  0  0  0  0
  1  5  2  0  0  0  0
  2  6  2  0  0  0  0
  3  8  2  0  0  0  0
  3 16  1  0  0  0  0
  4  9  1  0  0  0  0
  4 16  2  0  0  0  0
  5 18  1  0  0  0  0
  6 20  1  0  0  0  0
  7 10  2  0  0  0  0
  7 19  1  0  0  0  0
  8 22  1  0  0  0  0
  9 22  2  0  0  0  0
 10 23  1  0  0  0  0
 11 12  2  0  0  0  0
 11 24  1  0  0  0  0
 12 25  1  0  0  0  0
 13 21  1  0  0  0  0
 13 23  2  0  0  0  0
 14 25  2  0  0  0  0
 14 26  1  0  0  0  0
 15 27  2  0  0  0  0
 15 30  1  0  0  0  0
 16 29  1  0  0  0  0
 17 29  1  0  0  0  0
 17 32  2  0  0  0  0
 17 33  1  0  0  0  0
 18 20  2  0  0  0  0
 18 39  1  0  0  0  0
 19 21  2  0  0  0  0
 19 40  1  0  0  0  0
 20 48  1  0  0  0  0
 21 41  1  0  0  0  0
 22 80  1  0  0  0  0
 23 81  1  0  0  0  0
 24 26  2  0  0  0  0
 24 80  1  0  0  0  0
 25 82  1  0  0  0  0
 26 83  1  0  0  0  0
 27 28  1  0  0  0  0
 27 84  1  0  0  0  0
 28 31  2  0  0  0  0
 28 85  1  0  0  0  0
 29 62  2  0  0  0  0
 30 63  2  0  0  0  0
 30 69  1  0  0  0  0
 31 63  1  0  0  0  0
 31 70  1  0  0  0  0
 32 64  1  0  0  0  0
 32 67  1  0  0  0  0
 33 68  1  0  0  0  0
 33 74  2  0  0  0  0
 34 49  1  0  0  0  0
 34 71  1  0  0  0  0
 34 75  2  0  0  0  0
 35 57  1  0  0  0  0
 35 58  1  0  0  0  0
 35 76  2  0  0  0  0
 36 59  1  0  0  0  0
 36 65  1  0  0  0  0
 36 77  2  0  0  0  0
 37 60  1  0  0  0  0
 37 72  1  0  0  0  0
 37 78  2  0  0  0  0
 38 66  1  0  0  0  0
 38 69  1  0  0  0  0
 38 79  2  0  0  0  0
 39 42  1  0  0  0  0
 40 49  1  0  0  0  0
 41 65  1  0  0  0  0
 42 44  1  0  0  0  0
 43 45  1  0  0  0  0
 43 46  1  0  0  0  0
 44 48  1  0  0  0  0
 45 50  1  0  0  0  0
 46 66  1  0  0  0  0
 47 50  1  0  0  0  0
 47 66  1  0  0  0  0
 48 71  1  0  0  0  0
 49 65  1  0  0  0  0
 50 64  1  0  0  0  0
 51 58  1  0  0  0  0
 52 60  1  0  0  0  0
 53 61  1  0  0  0  0
 54 61  1  0  0  0  0
 55 61  1  0  0  0  0
 56 73  1  0  0  0  0
 57 81  1  0  0  0  0
 58 70  1  0  0  0  0
 59 61  1  0  0  0  0
 59 72  1  0  0  0  0
 60 73  1  0  0  0  0
 62 64  1  0  0  0  0
M  CHG  1  73   1
M  ISO  4  38 100  57 101  69 100  81 101
M  END
> <Batch ID>
0181

> <Smiles>
CNC(C)C(=O)NC(C(=O)N1Cc2cc([101O:1][101CH2:1]C(=O)C(C)Nc3nc([100NH:0][100C:0](=O)N4CCCC(n5nc(-c6ccc(Oc7ccc(F)cc7F)cc6)c(C(N)=O)c5N)C4)cc(F)c3F)ccc2CC1C(=O)NC1CCCc2ccccc21)C(C)(C)C

> <Shape>
0.237

> <Color>
0.057

> <Negative vol penalty>
0.000

$$$$

  -OEChem-04052304533D

 90 98  0     1  0  0  0  0  0999 V2000
  -27.0706  -22.0773   30.0045 C   0  0  0  0  0  0  0  0  0  0  0  0
  -27.4416  -22.3823   28.6989 C   0  0  0  0  0  0  0  0  0  0  0  0
  -24.4651  -13.7418   21.8980 C   0  0  0  0  0  0  0  0  0  0  0  0
  -26.3343  -13.6704   20.3689 C   0  0  0  0  0  0  0  0  0  0  0  0
  -25.7241  -22.0885   30.3661 C   0  0  0  0  0  0  0  0  0  0  0  0
  -26.4661  -22.6976   27.7537 C   0  0  0  0  0  0  0  0  0  0  0  0
  -27.7109  -26.7242   24.9462 C   0  0  0  0  0  0  0  0  0  0  0  0
  -23.9125  -12.6230   21.2747 C   0  0  0  0  0  0  0  0  0  0  0  0
  -25.7817  -12.5515   19.7456 C   0  0  0  0  0  0  0  0  0  0  0  0
  -28.6316  -26.5238   23.9185 C   0  0  0  0  0  0  0  0  0  0  0  0
  -24.3809   -9.2744   21.2957 C   0  0  0  0  0  0  0  0  0  0  0  0
  -23.8821   -8.2584   22.1109 C   0  0  0  0  0  0  0  0  0  0  0  0
  -26.8234  -26.4345   22.3242 C   0  0  0  0  0  0  0  0  0  0  0  0
  -21.6918   -8.5495   21.1337 C   0  0  0  0  0  0  0  0  0  0  0  0
  -30.0736  -20.5957   17.8859 C   0  0  0  0  0  0  0  0  0  0  0  0
  -31.1409  -22.4953   16.8677 C   0  0  0  0  0  0  0  0  0  0  0  0
  -25.6760  -14.2655   21.4450 C   0  0  0  0  0  0  0  0  0  0  0  0
  -27.1389  -15.4347   23.1773 C   0  0  0  0  0  0  0  0  0  0  0  0
  -24.7324  -22.4135   29.4273 C   0  0  0  0  0  0  0  0  0  0  0  0
  -26.3366  -26.7704   24.6715 C   0  0  0  0  0  0  0  0  0  0  0  0
  -25.1049  -22.7119   28.1027 C   0  0  0  0  0  0  0  0  0  0  0  0
  -25.8876  -26.6381   23.3498 C   0  0  0  0  0  0  0  0  0  0  0  0
  -24.5708  -12.0278   20.1986 C   0  0  0  0  0  0  0  0  0  0  0  0
  -28.1877  -26.3761   22.6077 C   0  0  0  0  0  0  0  0  0  0  0  0
  -23.5351   -9.9280   20.3995 C   0  0  0  0  0  0  0  0  0  0  0  0
  -22.5376   -7.8960   22.0300 C   0  0  0  0  0  0  0  0  0  0  0  0
  -22.1906   -9.5656   20.3185 C   0  0  0  0  0  0  0  0  0  0  0  0
  -31.0773  -21.1228   17.0809 C   0  0  0  0  0  0  0  0  0  0  0  0
  -26.2471  -15.4216   22.0881 C   0  0  0  0  0  0  0  0  0  0  0  0
  -29.1651  -21.4767   18.4501 C   0  0  0  0  0  0  0  0  0  0  0  0
  -30.1845  -23.2912   17.4774 C   0  0  0  0  0  0  0  0  0  0  0  0
  -27.3796  -16.7671   23.4080 C   0  0  0  0  0  0  0  0  0  0  0  0
  -27.6997  -14.3403   23.9146 C   0  0  0  0  0  0  0  0  0  0  0  0
  -23.8171  -25.0348   25.5340 C   0  0  0  0  0  0  0  0  0  0  0  0
  -29.6856  -25.7949   19.2932 C   0  0  0  0  0  0  0  0  0  0  0  0
  -22.1760  -27.3405   23.9489 C   0  0  0  0  0  0  0  0  0  0  0  0
  -22.1825  -29.7816   21.5639 C   0  0  0  0  0  0  0  0  0  0  0  0
  -27.1331  -21.6213   19.9322 C   0  0  0  0  0  0  0  0  0  0  0  0
  -23.2863  -22.3663   29.8531 C   0  0  0  0  0  0  0  0  0  0  0  0
  -25.3581  -27.0140   25.7876 C   0  0  0  0  0  0  0  0  0  0  0  0
  -24.4241  -26.7003   22.9994 C   0  0  0  0  0  0  0  0  0  0  0  0
  -22.3430  -23.0766   28.8857 C   0  0  0  0  0  0  0  0  0  0  0  0
  -25.3359  -21.0746   22.9568 C   0  0  0  0  0  0  0  0  0  0  0  0
  -22.6525  -22.6755   27.4469 C   0  0  0  0  0  0  0  0  0  0  0  0
  -25.4519  -19.5649   23.1796 C   0  0  0  0  0  0  0  0  0  0  0  0
  -25.1958  -21.4201   21.4754 C   0  0  0  0  0  0  0  0  0  0  0  0
  -26.3482  -19.3413   20.8272 C   0  0  0  0  0  0  0  0  0  0  0  0
  -24.0779  -23.0831   27.0551 C   0  0  1  0  0  0  0  0  0  0  0  0
  -23.9483  -26.5299   25.4625 C   0  0  1  0  0  0  0  0  0  0  0  0
  -26.5565  -18.9485   22.2990 C   0  0  2  0  0  0  0  0  0  0  0  0
  -20.6827  -31.4689   20.4680 C   0  0  0  0  0  0  0  0  0  0  0  0
  -20.8593  -25.1148   22.3295 C   0  0  0  0  0  0  0  0  0  0  0  0
  -20.1346  -26.8450   20.6714 C   0  0  0  0  0  0  0  0  0  0  0  0
  -19.3134  -26.9538   23.0244 C   0  0  0  0  0  0  0  0  0  0  0  0
  -27.6522  -26.1910   15.2246 C   0  0  0  0  0  0  0  0  0  0  0  0
  -23.8632  -32.0401   22.4765 C   0  0  0  0  0  0  0  0  0  0  0  0
  -28.5598  -26.0362   20.2835 C   0  0  0  0  0  0  0  0  0  1  0  0
  -29.3339  -25.6111   17.8240 C   0  0  1  0  0  0  0  0  0  0  0  0
  -21.7210  -27.5409   22.5235 C   0  0  1  0  0  0  0  0  0  0  0  0
  -21.6803  -31.2139   21.5872 C   0  0  2  0  0  0  0  0  0  0  0  0
  -20.5346  -26.6105   22.1437 C   0  0  0  0  0  0  0  0  0  0  0  0
  -29.0214  -26.7648   15.5261 C   0  0  0  0  0  0  0  0  0  0  0  0
  -29.3456  -26.9013   17.0063 C   0  0  0  0  0  0  0  0  0  0  0  0
  -25.9418  -16.6483   21.6568 N   0  0  0  0  0  0  0  0  0  0  0  0
  -29.1948  -22.8156   18.2660 N   0  0  0  0  0  0  0  0  0  0  0  0
  -26.6457  -17.4447   22.4793 N   0  0  0  0  0  0  0  0  0  0  0  0
  -23.5060  -26.9340   24.1264 N   0  0  0  0  0  0  0  0  0  0  0  0
  -26.2787  -20.8059   20.7041 N   0  0  0  0  0  0  0  0  0  0  0  0
  -28.1452  -17.4135   24.3126 N   0  0  0  0  0  0  0  0  0  0  0  0
  -27.3467  -13.0352   23.5452 N   0  0  0  0  0  0  0  0  0  0  0  0
  -28.1457  -20.9296   19.2683 N   0  0  0  0  0  0  0  0  0  0  0  0
  -30.2616  -24.6547   17.2570 N   0  0  0  0  0  0  0  0  0  0  0  0
  -24.1373  -24.5002   26.7673 N   0  0  0  0  0  0  0  0  0  0  0  0
  -21.4329  -28.9641   22.3831 N   0  0  0  0  0  0  0  0  0  0  0  0
  -22.8174  -32.1641   21.4288 N   0  3  0  0  0  0  0  0  0  0  0  0
  -28.4775  -14.5151   24.8830 O   0  0  0  0  0  0  0  0  0  0  0  0
  -23.4510  -24.4124   24.5438 O   0  0  0  0  0  0  0  0  0  0  0  0
  -30.8609  -25.7339   19.6613 O   0  0  0  0  0  0  0  0  0  0  0  0
  -21.3826  -27.5444   24.8712 O   0  0  0  0  0  0  0  0  0  0  0  0
  -23.1414  -29.4229   20.8839 O   0  0  0  0  0  0  0  0  0  0  0  0
  -26.9945  -22.8464   19.8868 O   0  0  0  0  0  0  0  0  0  0  0  0
  -24.0319  -10.9360   19.5903 O   0  0  0  0  0  0  0  0  0  0  0  0
  -29.0842  -26.1797   21.6029 O   0  0  0  0  0  0  0  0  0  1  0  0
  -22.0592   -6.9192   22.8118 F   0  0  0  0  0  0  0  0  0  0  0  0
  -21.3735  -10.1891   19.4587 F   0  0  0  0  0  0  0  0  0  0  0  0
  -31.9786  -20.3115   16.5123 F   0  0  0  0  0  0  0  0  0  0  0  0
  -29.9565  -25.9542   14.9582 F   0  0  0  0  0  0  0  0  0  0  0  0
  -29.1410  -27.9673   14.9094 F   0  0  0  0  0  0  0  0  0  0  0  0
  -30.5844  -27.4627   17.1144 F   0  0  0  0  0  0  0  0  0  0  0  0
  -28.4815  -27.7993   17.5517 F   0  0  0  0  0  0  0  0  0  0  0  0
  1  2  1  0  0  0  0
  1  5  2  0  0  0  0
  2  6  2  0  0  0  0
  3  8  2  0  0  0  0
  3 17  1  0  0  0  0
  4  9  1  0  0  0  0
  4 17  2  0  0  0  0
  5 19  1  0  0  0  0
  6 21  1  0  0  0  0
  7 10  2  0  0  0  0
  7 20  1  0  0  0  0
  8 23  1  0  0  0  0
  9 23  2  0  0  0  0
 10 24  1  0  0  0  0
 11 12  2  0  0  0  0
 11 25  1  0  0  0  0
 12 26  1  0  0  0  0
 13 22  1  0  0  0  0
 13 24  2  0  0  0  0
 14 26  2  0  0  0  0
 14 27  1  0  0  0  0
 15 28  1  0  0  0  0
 15 30  2  0  0  0  0
 16 28  2  0  0  0  0
 16 31  1  0  0  0  0
 17 29  1  0  0  0  0
 18 29  1  0  0  0  0
 18 32  2  0  0  0  0
 18 33  1  0  0  0  0
 19 21  2  0  0  0  0
 19 39  1  0  0  0  0
 20 22  2  0  0  0  0
 20 40  1  0  0  0  0
 21 48  1  0  0  0  0
 22 41  1  0  0  0  0
 23 82  1  0  0  0  0
 24 83  1  0  0  0  0
 25 27  2  0  0  0  0
 25 82  1  0  0  0  0
 26 84  1  0  0  0  0
 27 85  1  0  0  0  0
 28 86  1  0  0  0  0
 29 64  2  0  0  0  0
 30 65  1  0  0  0  0
 30 71  1  0  0  0  0
 31 65  2  0  0  0  0
 31 72  1  0  0  0  0
 32 66  1  0  0  0  0
 32 69  1  0  0  0  0
 33 70  1  0  0  0  0
 33 76  2  0  0  0  0
 34 49  1  0  0  0  0
 34 73  1  0  0  0  0
 34 77  2  0  0  0  0
 35 57  1  0  0  0  0
 35 58  1  0  0  0  0
 35 78  2  0  0  0  0
 36 59  1  0  0  0  0
 36 67  1  0  0  0  0
 36 79  2  0  0  0  0
 37 60  1  0  0  0  0
 37 74  1  0  0  0  0
 37 80  2  0  0  0  0
 38 68  1  0  0  0  0
 38 71  1  0  0  0  0
 38 81  2  0  0  0  0
 39 42  1  0  0  0  0
 40 49  1  0  0  0  0
 41 67  1  0  0  0  0
 42 44  1  0  0  0  0
 43 45  1  0  0  0  0
 43 46  1  0  0  0  0
 44 48  1  0  0  0  0
 45 50  1  0  0  0  0
 46 68  1  0  0  0  0
 47 50  1  0  0  0  0
 47 68  1  0  0  0  0
 48 73  1  0  0  0  0
 49 67  1  0  0  0  0
 50 66  1  0  0  0  0
 51 60  1  0  0  0  0
 52 61  1  0  0  0  0
 53 61  1  0  0  0  0
 54 61  1  0  0  0  0
 55 62  1  0  0  0  0
 56 75  1  0  0  0  0
 57 83  1  0  0  0  0
 58 63  1  0  0  0  0
 58 72  1  0  0  0  0
 59 61  1  0  0  0  0
 59 74  1  0  0  0  0
 60 75  1  0  0  0  0
 62 63  1  0  0  0  0
 62 87  1  0  0  0  0
 62 88  1  0  0  0  0
 63 89  1  0  0  0  0
 63 90  1  0  0  0  0
 64 66  1  0  0  0  0
M  CHG  1  75   1
M  ISO  4  38 100  57 101  71 100  83 101
M  END
> <Batch ID>
0181

> <Smiles>
CNC(C)C(=O)NC(C(=O)N1Cc2cc([101O:1][101CH2:1]C(=O)C(Nc3cc(F)cc([100NH:0][100C:0](=O)N4CCCC(n5nc(-c6ccc(Oc7ccc(F)cc7F)cc6)c(C(N)=O)c5N)C4)n3)C(F)(F)C(C)(F)F)ccc2CC1C(=O)NC1CCCc2ccccc21)C(C)(C)C

> <Shape>
0.194

> <Color>
0.076

> <Negative vol penalty>
0.000

$$$$

  -OEChem-04052304533D

 84 92  0     1  0  0  0  0  0999 V2000
  -18.9555  -24.4516   21.6858 C   0  0  0  0  0  0  0  0  0  0  0  0
  -20.3170  -24.5792   21.4303 C   0  0  0  0  0  0  0  0  0  0  0  0
  -22.9932  -10.3556   22.2352 C   0  0  0  0  0  0  0  0  0  0  0  0
  -24.4954   -9.5592   20.5187 C   0  0  0  0  0  0  0  0  0  0  0  0
  -18.1528  -25.5888   21.7655 C   0  0  0  0  0  0  0  0  0  0  0  0
  -20.8765  -25.8441   21.2533 C   0  0  0  0  0  0  0  0  0  0  0  0
  -25.2301  -26.4132   23.7767 C   0  0  0  0  0  0  0  0  0  0  0  0
  -22.2767   -9.1611   22.1624 C   0  0  0  0  0  0  0  0  0  0  0  0
  -23.7789   -8.3646   20.4460 C   0  0  0  0  0  0  0  0  0  0  0  0
  -26.3703  -25.8385   23.2169 C   0  0  0  0  0  0  0  0  0  0  0  0
  -22.6015   -5.9891   23.2878 C   0  0  0  0  0  0  0  0  0  0  0  0
  -22.2437   -5.3738   24.4873 C   0  0  0  0  0  0  0  0  0  0  0  0
  -27.0215  -27.9922   22.3471 C   0  0  0  0  0  0  0  0  0  0  0  0
  -19.9109   -5.5590   23.8866 C   0  0  0  0  0  0  0  0  0  0  0  0
  -24.1025  -10.5547   21.4133 C   0  0  0  0  0  0  0  0  0  0  0  0
  -25.9429  -12.0713   22.3190 C   0  0  0  0  0  0  0  0  0  0  0  0
  -18.7044  -26.8689   21.5990 C   0  0  0  0  0  0  0  0  0  0  0  0
  -24.9710  -27.7820   23.6164 C   0  0  0  0  0  0  0  0  0  0  0  0
  -20.0802  -26.9995   21.3296 C   0  0  0  0  0  0  0  0  0  0  0  0
  -25.8786  -28.5824   22.9081 C   0  0  0  0  0  0  0  0  0  0  0  0
  -22.6696   -8.1655   21.2679 C   0  0  0  0  0  0  0  0  0  0  0  0
  -27.2647  -26.6275   22.4996 C   0  0  0  0  0  0  0  0  0  0  0  0
  -21.6140   -6.3895   22.3876 C   0  0  0  0  0  0  0  0  0  0  0  0
  -20.8984   -5.1587   24.7867 C   0  0  0  0  0  0  0  0  0  0  0  0
  -20.2687   -6.1744   22.6870 C   0  0  0  0  0  0  0  0  0  0  0  0
  -24.8427  -11.7887   21.4875 C   0  0  0  0  0  0  0  0  0  0  0  0
  -29.8462  -18.7315   19.6449 C   0  0  0  0  0  0  0  0  0  0  0  0
  -30.3027  -18.4200   20.9085 C   0  0  0  0  0  0  0  0  0  0  0  0
  -26.2810  -13.3668   22.0127 C   0  0  0  0  0  0  0  0  0  0  0  0
  -29.8003  -20.7432   20.5174 C   0  0  0  0  0  0  0  0  0  0  0  0
  -26.6006  -11.2373   23.2822 C   0  0  0  0  0  0  0  0  0  0  0  0
  -29.1946  -24.4541   20.3755 C   0  0  0  0  0  0  0  0  0  0  0  0
  -29.1972  -23.0628   19.8114 C   0  0  0  0  0  0  0  0  0  0  0  0
  -22.6544  -29.4824   22.2577 C   0  0  0  0  0  0  0  0  0  0  0  0
  -24.2549  -31.9823   23.5658 C   0  0  0  0  0  0  0  0  0  0  0  0
  -27.1973  -33.2334   24.7592 C   0  0  0  0  0  0  0  0  0  0  0  0
  -27.2057  -17.3994   18.2672 C   0  0  0  0  0  0  0  0  0  0  0  0
  -17.7883  -28.0660   21.6471 C   0  0  0  0  0  0  0  0  0  0  0  0
  -23.7503  -28.3918   24.2492 C   0  0  0  0  0  0  0  0  0  0  0  0
  -25.6568  -30.0607   22.7245 C   0  0  0  0  0  0  0  0  0  0  0  0
  -18.5263  -29.3911   21.8195 C   0  0  0  0  0  0  0  0  0  0  0  0
  -23.8360  -16.8482   19.2763 C   0  0  0  0  0  0  0  0  0  0  0  0
  -19.7143  -29.4686   20.8658 C   0  0  0  0  0  0  0  0  0  0  0  0
  -23.8874  -15.5038   20.0042 C   0  0  0  0  0  0  0  0  0  0  0  0
  -24.7901  -16.8815   18.0844 C   0  0  0  0  0  0  0  0  0  0  0  0
  -26.2379  -15.1811   19.1267 C   0  0  0  0  0  0  0  0  0  0  0  0
  -20.7286  -28.3558   21.1565 C   0  0  1  0  0  0  0  0  0  0  0  0
  -23.3227  -29.6976   23.5862 C   0  0  1  0  0  0  0  0  0  0  0  0
  -25.3336  -15.1190   20.3696 C   0  0  2  0  0  0  0  0  0  0  0  0
  -30.6971  -17.1185   21.4836 C   0  0  0  0  0  0  0  0  0  0  0  0
  -28.2032  -35.3197   25.7250 C   0  0  0  0  0  0  0  0  0  0  0  0
  -24.3111  -33.2391   20.7861 C   0  0  0  0  0  0  0  0  0  0  0  0
  -26.0985  -34.7916   21.6003 C   0  0  0  0  0  0  0  0  0  0  0  0
  -23.8343  -34.8415   22.6460 C   0  0  0  0  0  0  0  0  0  0  0  0
  -27.8892  -31.8666   27.2914 C   0  0  0  0  0  0  0  0  0  0  0  0
  -29.6437  -17.7791   18.5342 C   0  0  0  0  0  0  0  0  0  0  0  0
  -28.2905  -24.7009   21.5550 C   0  0  0  0  0  0  0  0  0  1  0  0
  -25.3728  -32.8905   23.1136 C   0  0  1  0  0  0  0  0  0  0  0  0
  -27.5266  -33.9928   26.0317 C   0  0  2  0  0  0  0  0  0  0  0  0
  -24.9077  -33.9125   22.0381 C   0  0  0  0  0  0  0  0  0  0  0  0
  -24.5042  -12.8216   20.7113 N   0  0  0  0  0  0  0  0  0  0  0  0
  -29.5572  -20.0631   19.4189 N   0  0  0  0  0  0  0  0  0  0  0  0
  -25.3970  -13.7659   21.0539 N   0  0  0  0  0  0  0  0  0  0  0  0
  -24.4455  -30.6091   23.3567 N   0  0  0  0  0  0  0  0  0  0  0  0
  -26.1448  -16.5084   18.4988 N   0  0  0  0  0  0  0  0  0  0  0  0
  -27.2453  -14.1921   22.4726 N   0  0  0  0  0  0  0  0  0  0  0  0
  -26.1248   -9.9328   23.4721 N   0  0  0  0  0  0  0  0  0  0  0  0
  -29.6422  -22.1331   20.7263 N   0  0  0  0  0  0  0  0  0  0  0  0
  -21.5249  -28.6887   22.3181 N   0  0  0  0  0  0  0  0  0  0  0  0
  -25.9172  -33.5006   24.3218 N   0  0  0  0  0  0  0  0  0  0  0  0
  -28.4558  -16.9708   18.6965 N   0  0  0  0  0  0  0  0  0  0  0  0
  -28.4383  -33.1885   26.8936 N   0  3  0  0  0  0  0  0  0  0  0  0
  -27.5708  -11.6426   23.9662 O   0  0  0  0  0  0  0  0  0  0  0  0
  -29.9040  -25.2864   19.8309 O   0  0  0  0  0  0  0  0  0  0  0  0
  -28.8431  -22.9433   18.6503 O   0  0  0  0  0  0  0  0  0  0  0  0
  -23.1277  -29.9994   21.2526 O   0  0  0  0  0  0  0  0  0  0  0  0
  -23.2528  -32.4726   24.0920 O   0  0  0  0  0  0  0  0  0  0  0  0
  -27.9970  -32.4816   24.2063 O   0  0  0  0  0  0  0  0  0  0  0  0
  -27.0495  -18.4979   17.7233 O   0  0  0  0  0  0  0  0  0  0  0  0
  -21.9708   -6.9997   21.1968 O   0  0  0  0  0  0  0  0  0  0  0  0
  -28.3781  -26.0689   21.9516 O   0  0  0  0  0  0  0  0  0  1  0  0
  -20.5551   -4.5663   25.9380 F   0  0  0  0  0  0  0  0  0  0  0  0
  -19.3156   -6.5558   21.8257 F   0  0  0  0  0  0  0  0  0  0  0  0
  -30.3790  -19.8448   21.8601 S   0  0  0  0  0  0  0  0  0  0  0  0
  1  2  1  0  0  0  0
  1  5  2  0  0  0  0
  2  6  2  0  0  0  0
  3  8  2  0  0  0  0
  3 15  1  0  0  0  0
  4  9  1  0  0  0  0
  4 15  2  0  0  0  0
  5 17  1  0  0  0  0
  6 19  1  0  0  0  0
  7 10  2  0  0  0  0
  7 18  1  0  0  0  0
  8 21  1  0  0  0  0
  9 21  2  0  0  0  0
 10 22  1  0  0  0  0
 11 12  2  0  0  0  0
 11 23  1  0  0  0  0
 12 24  1  0  0  0  0
 13 20  1  0  0  0  0
 13 22  2  0  0  0  0
 14 24  2  0  0  0  0
 14 25  1  0  0  0  0
 15 26  1  0  0  0  0
 16 26  1  0  0  0  0
 16 29  2  0  0  0  0
 16 31  1  0  0  0  0
 17 19  2  0  0  0  0
 17 38  1  0  0  0  0
 18 20  2  0  0  0  0
 18 39  1  0  0  0  0
 19 47  1  0  0  0  0
 20 40  1  0  0  0  0
 21 80  1  0  0  0  0
 22 81  1  0  0  0  0
 23 25  2  0  0  0  0
 23 80  1  0  0  0  0
 24 82  1  0  0  0  0
 25 83  1  0  0  0  0
 26 61  2  0  0  0  0
 27 28  2  0  0  0  0
 27 56  1  0  0  0  0
 27 62  1  0  0  0  0
 28 50  1  0  0  0  0
 28 84  1  0  0  0  0
 29 63  1  0  0  0  0
 29 66  1  0  0  0  0
 30 62  2  0  0  0  0
 30 68  1  0  0  0  0
 30 84  1  0  0  0  0
 31 67  1  0  0  0  0
 31 73  2  0  0  0  0
 32 33  1  0  0  0  0
 32 57  1  0  0  0  0
 32 74  2  0  0  0  0
 33 68  1  0  0  0  0
 33 75  2  0  0  0  0
 34 48  1  0  0  0  0
 34 69  1  0  0  0  0
 34 76  2  0  0  0  0
 35 58  1  0  0  0  0
 35 64  1  0  0  0  0
 35 77  2  0  0  0  0
 36 59  1  0  0  0  0
 36 70  1  0  0  0  0
 36 78  2  0  0  0  0
 37 65  1  0  0  0  0
 37 71  1  0  0  0  0
 37 79  2  0  0  0  0
 38 41  1  0  0  0  0
 39 48  1  0  0  0  0
 40 64  1  0  0  0  0
 41 43  1  0  0  0  0
 42 44  1  0  0  0  0
 42 45  1  0  0  0  0
 43 47  1  0  0  0  0
 44 49  1  0  0  0  0
 45 65  1  0  0  0  0
 46 49  1  0  0  0  0
 46 65  1  0  0  0  0
 47 69  1  0  0  0  0
 48 64  1  0  0  0  0
 49 63  1  0  0  0  0
 51 59  1  0  0  0  0
 52 60  1  0  0  0  0
 53 60  1  0  0  0  0
 54 60  1  0  0  0  0
 55 72  1  0  0  0  0
 56 71  1  0  0  0  0
 57 81  1  0  0  0  0
 58 60  1  0  0  0  0
 58 70  1  0  0  0  0
 59 72  1  0  0  0  0
 61 63  1  0  0  0  0
M  CHG  1  72   1
M  ISO  4  37 100  57 101  71 100  81 101
M  END
> <Batch ID>
0181

> <Smiles>
CNC(C)C(=O)NC(C(=O)N1Cc2cc([101O:1][101CH2:1]C(=O)C(=O)Nc3nc(C[100NH:0][100C:0](=O)N4CCCC(n5nc(-c6ccc(Oc7ccc(F)cc7F)cc6)c(C(N)=O)c5N)C4)c(C)s3)ccc2CC1C(=O)NC1CCCc2ccccc21)C(C)(C)C

> <Shape>
0.307

> <Color>
0.143

> <Negative vol penalty>
0.000

$$$$

  -OEChem-04052304533D

 84 92  0     1  0  0  0  0  0999 V2000
  -29.1000  -25.3369   16.4423 C   0  0  0  0  0  0  0  0  0  0  0  0
  -27.8934  -25.3460   17.1348 C   0  0  0  0  0  0  0  0  0  0  0  0
  -25.7359  -13.1348   19.1909 C   0  0  0  0  0  0  0  0  0  0  0  0
  -24.3351  -13.4739   21.1299 C   0  0  0  0  0  0  0  0  0  0  0  0
  -30.2185  -25.9683   16.9847 C   0  0  0  0  0  0  0  0  0  0  0  0
  -27.8050  -25.9856   18.3707 C   0  0  0  0  0  0  0  0  0  0  0  0
  -23.6317  -28.8223   18.7959 C   0  0  0  0  0  0  0  0  0  0  0  0
  -25.9146  -11.7998   19.5535 C   0  0  0  0  0  0  0  0  0  0  0  0
  -24.5137  -12.1389   21.4925 C   0  0  0  0  0  0  0  0  0  0  0  0
  -22.4349  -28.1585   19.0620 C   0  0  0  0  0  0  0  0  0  0  0  0
  -23.2872   -9.1257   20.5779 C   0  0  0  0  0  0  0  0  0  0  0  0
  -22.1599   -8.4077   20.9772 C   0  0  0  0  0  0  0  0  0  0  0  0
  -23.0760  -23.8049   23.6149 C   0  0  0  0  0  0  0  0  0  0  0  0
  -24.2237  -23.2831   24.2788 C   0  0  0  0  0  0  0  0  0  0  0  0
  -22.6297  -28.7535   21.3916 C   0  0  0  0  0  0  0  0  0  0  0  0
  -23.1769   -8.0094   23.1322 C   0  0  0  0  0  0  0  0  0  0  0  0
  -24.9462  -13.9719   19.9792 C   0  0  0  0  0  0  0  0  0  0  0  0
  -23.7501  -15.8809   18.7822 C   0  0  0  0  0  0  0  0  0  0  0  0
  -30.1412  -26.6242   18.2234 C   0  0  0  0  0  0  0  0  0  0  0  0
  -24.3432  -29.4486   19.8294 C   0  0  0  0  0  0  0  0  0  0  0  0
  -28.9239  -26.6252   18.9308 C   0  0  0  0  0  0  0  0  0  0  0  0
  -23.8339  -29.4269   21.1356 C   0  0  0  0  0  0  0  0  0  0  0  0
  -25.3035  -11.3019   20.7042 C   0  0  0  0  0  0  0  0  0  0  0  0
  -21.9352  -28.1215   20.3605 C   0  0  0  0  0  0  0  0  0  0  0  0
  -24.3593   -9.2854   21.4558 C   0  0  0  0  0  0  0  0  0  0  0  0
  -22.1048   -7.8496   22.2543 C   0  0  0  0  0  0  0  0  0  0  0  0
  -24.3042   -8.7273   22.7329 C   0  0  0  0  0  0  0  0  0  0  0  0
  -24.7617  -15.3512   19.6055 C   0  0  0  0  0  0  0  0  0  0  0  0
  -24.0136  -17.2281   18.7380 C   0  0  0  0  0  0  0  0  0  0  0  0
  -23.4085  -24.4845   22.4638 C   0  0  0  0  0  0  0  0  0  0  0  0
  -25.3898  -23.5836   23.6096 C   0  0  0  0  0  0  0  0  0  0  0  0
  -22.6687  -15.2147   18.1169 C   0  0  0  0  0  0  0  0  0  0  0  0
  -27.2255  -29.0734   21.1159 C   0  0  0  0  0  0  0  0  0  0  0  0
  -26.4039  -31.7374   22.7743 C   0  0  0  0  0  0  0  0  0  0  0  0
  -23.9253  -33.7346   24.0050 C   0  0  0  0  0  0  0  0  0  0  0  0
  -21.2126  -25.2874   21.5299 C   0  0  0  0  0  0  0  0  0  0  0  0
  -26.7565  -20.8388   22.5031 C   0  0  0  0  0  0  0  0  0  0  0  0
  -31.3893  -27.2522   18.7913 C   0  0  0  0  0  0  0  0  0  0  0  0
  -25.6190  -30.1833   19.5213 C   0  0  0  0  0  0  0  0  0  0  0  0
  -24.5492  -30.1009   22.2769 C   0  0  0  0  0  0  0  0  0  0  0  0
  -31.1148  -28.2292   19.9317 C   0  0  0  0  0  0  0  0  0  0  0  0
  -27.6230  -20.3526   19.0353 C   0  0  0  0  0  0  0  0  0  0  0  0
  -30.1316  -27.6236   20.9284 C   0  0  0  0  0  0  0  0  0  0  0  0
  -26.8856  -19.0515   18.7151 C   0  0  0  0  0  0  0  0  0  0  0  0
  -28.1979  -20.3340   20.4494 C   0  0  0  0  0  0  0  0  0  0  0  0
  -26.4618  -18.7502   21.1954 C   0  0  0  0  0  0  0  0  0  0  0  0
  -28.7818  -27.3297   20.2626 C   0  0  1  0  0  0  0  0  0  0  0  0
  -26.5232  -30.3471   20.7390 C   0  0  1  0  0  0  0  0  0  0  0  0
  -25.8329  -18.7274   19.7911 C   0  0  2  0  0  0  0  0  0  0  0  0
  -23.5626  -35.8207   25.3518 C   0  0  0  0  0  0  0  0  0  0  0  0
  -19.2927  -25.6975   19.9471 C   0  0  0  0  0  0  0  0  0  0  0  0
  -27.0719  -30.2033   25.3258 C   0  0  0  0  0  0  0  0  0  0  0  0
  -25.8173  -31.9430   26.6173 C   0  0  0  0  0  0  0  0  0  0  0  0
  -27.8416  -32.5827   25.3074 C   0  0  0  0  0  0  0  0  0  0  0  0
  -22.5468  -35.0834   21.7601 C   0  0  0  0  0  0  0  0  0  0  0  0
  -25.7047  -32.0078   24.0847 C   0  0  1  0  0  0  0  0  0  0  0  0
  -23.7262  -35.2387   23.9563 C   0  0  2  0  0  0  0  0  0  0  0  0
  -20.7167  -26.0795   20.3228 C   0  0  1  0  0  0  0  0  0  1  0  0
  -26.5961  -31.6698   25.3128 C   0  0  0  0  0  0  0  0  0  0  0  0
  -25.6051  -16.2857   20.0520 N   0  0  0  0  0  0  0  0  0  0  0  0
  -25.1240  -17.4161   19.5073 N   0  0  0  0  0  0  0  0  0  0  0  0
  -25.7959  -30.8010   21.9261 N   0  0  0  0  0  0  0  0  0  0  0  0
  -27.1478  -20.0257   21.4271 N   0  0  0  0  0  0  0  0  0  0  0  0
  -23.4016  -18.2584   18.1165 N   0  0  0  0  0  0  0  0  0  0  0  0
  -22.5444  -13.8269   18.2688 N   0  0  0  0  0  0  0  0  0  0  0  0
  -22.5968  -25.1512   21.5153 N   0  0  0  0  0  0  0  0  0  0  0  0
  -28.0166  -28.5487   20.1117 N   0  0  0  0  0  0  0  0  0  0  0  0
  -25.2619  -33.3969   24.0320 N   0  0  0  0  0  0  0  0  0  0  0  0
  -27.4276  -22.0988   22.6740 N   0  0  0  0  0  0  0  0  0  0  0  0
  -22.5113  -35.5750   23.1615 N   0  3  0  0  0  0  0  0  0  0  0  0
  -21.8471  -15.8293   17.3954 O   0  0  0  0  0  0  0  0  0  0  0  0
  -27.0630  -28.6023   22.2355 O   0  0  0  0  0  0  0  0  0  0  0  0
  -27.4471  -32.3402   22.5098 O   0  0  0  0  0  0  0  0  0  0  0  0
  -22.9887  -32.9389   24.0214 O   0  0  0  0  0  0  0  0  0  0  0  0
  -20.4323  -24.8667   22.3792 O   0  0  0  0  0  0  0  0  0  0  0  0
  -25.8625  -20.5080   23.2830 O   0  0  0  0  0  0  0  0  0  0  0  0
  -27.8283  -24.4497   23.6726 O   0  0  0  0  0  0  0  0  0  0  0  0
  -27.1859  -22.5597   25.2083 O   0  0  0  0  0  0  0  0  0  0  0  0
  -25.4775   -9.9992   21.0582 O   0  0  0  0  0  0  0  0  0  0  0  0
  -20.7676  -27.4736   20.6230 O   0  0  0  0  0  0  0  0  0  1  0  0
  -21.0216   -7.1615   22.6382 F   0  0  0  0  0  0  0  0  0  0  0  0
  -25.3306   -8.8785   23.5811 F   0  0  0  0  0  0  0  0  0  0  0  0
  -25.0984  -24.4916   22.1873 S   0  0  0  0  0  0  0  0  0  0  0  0
  -27.0918  -23.2260   23.9237 S   0  0  0  0  0  0  0  0  0  0  0  0
  1  2  1  0  0  0  0
  1  5  2  0  0  0  0
  2  6  2  0  0  0  0
  3  8  2  0  0  0  0
  3 17  1  0  0  0  0
  4  9  1  0  0  0  0
  4 17  2  0  0  0  0
  5 19  1  0  0  0  0
  6 21  1  0  0  0  0
  7 10  2  0  0  0  0
  7 20  1  0  0  0  0
  8 23  1  0  0  0  0
  9 23  2  0  0  0  0
 10 24  1  0  0  0  0
 11 12  2  0  0  0  0
 11 25  1  0  0  0  0
 12 26  1  0  0  0  0
 13 14  1  0  0  0  0
 13 30  2  0  0  0  0
 14 31  2  0  0  0  0
 15 22  1  0  0  0  0
 15 24  2  0  0  0  0
 16 26  2  0  0  0  0
 16 27  1  0  0  0  0
 17 28  1  0  0  0  0
 18 28  1  0  0  0  0
 18 29  2  0  0  0  0
 18 32  1  0  0  0  0
 19 21  2  0  0  0  0
 19 38  1  0  0  0  0
 20 22  2  0  0  0  0
 20 39  1  0  0  0  0
 21 47  1  0  0  0  0
 22 40  1  0  0  0  0
 23 79  1  0  0  0  0
 24 80  1  0  0  0  0
 25 27  2  0  0  0  0
 25 79  1  0  0  0  0
 26 81  1  0  0  0  0
 27 82  1  0  0  0  0
 28 60  2  0  0  0  0
 29 61  1  0  0  0  0
 29 64  1  0  0  0  0
 30 66  1  0  0  0  0
 30 83  1  0  0  0  0
 31 83  1  0  0  0  0
 31 84  1  0  0  0  0
 32 65  1  0  0  0  0
 32 71  2  0  0  0  0
 33 48  1  0  0  0  0
 33 67  1  0  0  0  0
 33 72  2  0  0  0  0
 34 56  1  0  0  0  0
 34 62  1  0  0  0  0
 34 73  2  0  0  0  0
 35 57  1  0  0  0  0
 35 68  1  0  0  0  0
 35 74  2  0  0  0  0
 36 58  1  0  0  0  0
 36 66  1  0  0  0  0
 36 75  2  0  0  0  0
 37 63  1  0  0  0  0
 37 69  1  0  0  0  0
 37 76  2  0  0  0  0
 38 41  1  0  0  0  0
 39 48  1  0  0  0  0
 40 62  1  0  0  0  0
 41 43  1  0  0  0  0
 42 44  1  0  0  0  0
 42 45  1  0  0  0  0
 43 47  1  0  0  0  0
 44 49  1  0  0  0  0
 45 63  1  0  0  0  0
 46 49  1  0  0  0  0
 46 63  1  0  0  0  0
 47 67  1  0  0  0  0
 48 62  1  0  0  0  0
 49 61  1  0  0  0  0
 50 57  1  0  0  0  0
 51 58  1  0  0  0  0
 52 59  1  0  0  0  0
 53 59  1  0  0  0  0
 54 59  1  0  0  0  0
 55 70  1  0  0  0  0
 56 59  1  0  0  0  0
 56 68  1  0  0  0  0
 57 70  1  0  0  0  0
 58 80  1  0  0  0  0
 60 61  1  0  0  0  0
 69 84  1  0  0  0  0
 77 84  2  0  0  0  0
 78 84  2  0  0  0  0
M  CHG  1  70   1
M  ISO  4  37 100  58 101  69 100  80 101
M  END
> <Batch ID>
0181

> <Smiles>
CNC(C)C(=O)NC(C(=O)N1Cc2cc([101O:1][101CH:1](C)C(=O)Nc3ccc(S(=O)(=O)[100NH:0][100C:0](=O)N4CCCC(n5nc(-c6ccc(Oc7ccc(F)cc7F)cc6)c(C(N)=O)c5N)C4)s3)ccc2CC1C(=O)NC1CCCc2ccccc21)C(C)(C)C

> <Shape>
0.275

> <Color>
0.082

> <Negative vol penalty>
0.000

$$$$

  -OEChem-04052304533D

 86 94  0     1  0  0  0  0  0999 V2000
  -29.5739  -11.0178   19.6043 C   0  0  0  0  0  0  0  0  0  0  0  0
  -30.1715  -12.1599   19.0809 C   0  0  0  0  0  0  0  0  0  0  0  0
  -18.6272  -20.8683   22.8054 C   0  0  0  0  0  0  0  0  0  0  0  0
  -20.9904  -20.6787   22.3402 C   0  0  0  0  0  0  0  0  0  0  0  0
  -28.3107  -11.0988   20.1888 C   0  0  0  0  0  0  0  0  0  0  0  0
  -29.5055  -13.3836   19.1408 C   0  0  0  0  0  0  0  0  0  0  0  0
  -30.7721  -20.4015   19.8203 C   0  0  0  0  0  0  0  0  0  0  0  0
  -18.4087  -19.6310   22.1996 C   0  0  0  0  0  0  0  0  0  0  0  0
  -20.7719  -19.4413   21.7344 C   0  0  0  0  0  0  0  0  0  0  0  0
  -30.4763  -21.6144   19.1997 C   0  0  0  0  0  0  0  0  0  0  0  0
  -20.2525  -16.2484   22.7120 C   0  0  0  0  0  0  0  0  0  0  0  0
  -21.1250  -15.2084   23.0326 C   0  0  0  0  0  0  0  0  0  0  0  0
  -28.3318  -21.6493   20.3037 C   0  0  0  0  0  0  0  0  0  0  0  0
  -24.9167  -29.4792   20.1571 C   0  0  0  0  0  0  0  0  0  0  0  0
  -21.7610  -15.0256   20.7090 C   0  0  0  0  0  0  0  0  0  0  0  0
  -19.9181  -21.3922   22.8756 C   0  0  0  0  0  0  0  0  0  0  0  0
  -20.4312  -22.9146   24.8572 C   0  0  0  0  0  0  0  0  0  0  0  0
  -27.6331  -12.3259   20.2644 C   0  0  0  0  0  0  0  0  0  0  0  0
  -29.8440  -19.7969   20.6802 C   0  0  0  0  0  0  0  0  0  0  0  0
  -28.2315  -13.4809   19.7256 C   0  0  0  0  0  0  0  0  0  0  0  0
  -28.6193  -20.4300   20.9360 C   0  0  0  0  0  0  0  0  0  0  0  0
  -26.3175  -29.5115   19.8980 C   0  0  0  0  0  0  0  0  0  0  0  0
  -19.4810  -18.9175   21.6642 C   0  0  0  0  0  0  0  0  0  0  0  0
  -29.2548  -22.2370   19.4391 C   0  0  0  0  0  0  0  0  0  0  0  0
  -20.1342  -16.6769   21.3898 C   0  0  0  0  0  0  0  0  0  0  0  0
  -21.8793  -14.5970   22.0312 C   0  0  0  0  0  0  0  0  0  0  0  0
  -20.8885  -16.0655   20.3884 C   0  0  0  0  0  0  0  0  0  0  0  0
  -20.1444  -22.6705   23.5007 C   0  0  0  0  0  0  0  0  0  0  0  0
  -20.5581  -24.2796   24.9411 C   0  0  0  0  0  0  0  0  0  0  0  0
  -24.5010  -28.2433   20.6010 C   0  0  0  0  0  0  0  0  0  0  0  0
  -26.9190  -28.2989   20.1540 C   0  0  0  0  0  0  0  0  0  0  0  0
  -20.5706  -21.9900   25.9442 C   0  0  0  0  0  0  0  0  0  0  0  0
  -28.2440  -17.0504   20.6802 C   0  0  0  0  0  0  0  0  0  0  0  0
  -28.4005  -25.7535   19.1619 C   0  0  0  0  0  0  0  0  0  0  0  0
  -27.3090  -18.0444   23.6231 C   0  0  0  0  0  0  0  0  0  0  0  0
  -26.7933  -20.6422   25.7753 C   0  0  0  0  0  0  0  0  0  0  0  0
  -22.0213  -28.4952   20.9670 C   0  0  0  0  0  0  0  0  0  0  0  0
  -26.2491  -12.3552   20.8631 C   0  0  0  0  0  0  0  0  0  0  0  0
  -30.1891  -18.5018   21.3627 C   0  0  0  0  0  0  0  0  0  0  0  0
  -27.5968  -19.8325   21.8666 C   0  0  0  0  0  0  0  0  0  0  0  0
  -25.7706  -13.7595   21.2226 C   0  0  0  0  0  0  0  0  0  0  0  0
  -19.0208  -28.3174   22.8755 C   0  0  0  0  0  0  0  0  0  0  0  0
  -26.0479  -14.7276   20.0769 C   0  0  0  0  0  0  0  0  0  0  0  0
  -18.9976  -26.8730   23.3809 C   0  0  0  0  0  0  0  0  0  0  0  0
  -19.5871  -28.4139   21.4600 C   0  0  0  0  0  0  0  0  0  0  0  0
  -20.8768  -26.3391   21.7776 C   0  0  0  0  0  0  0  0  0  0  0  0
  -27.5514  -14.8310   19.7937 C   0  0  1  0  0  0  0  0  0  0  0  0
  -28.9605  -17.7205   21.8183 C   0  0  1  0  0  0  0  0  0  0  0  0
  -20.3747  -26.1989   23.2240 C   0  0  2  0  0  0  0  0  0  0  0  0
  -27.0270  -30.7198   19.4101 C   0  0  0  0  0  0  0  0  0  0  0  0
  -25.9883  -21.1458   28.0982 C   0  0  0  0  0  0  0  0  0  0  0  0
  -30.8787  -25.3448   20.8992 C   0  0  0  0  0  0  0  0  0  0  0  0
  -31.0716  -27.2162   19.2664 C   0  0  0  0  0  0  0  0  0  0  0  0
  -30.7290  -27.7110   21.6931 C   0  0  0  0  0  0  0  0  0  0  0  0
  -24.4277  -17.6170   22.7146 C   0  0  0  0  0  0  0  0  0  0  0  0
  -23.6816  -19.0010   24.6630 C   0  0  0  0  0  0  0  0  0  0  0  0
  -24.9077  -16.8634   25.0504 C   0  0  0  0  0  0  0  0  0  0  0  0
  -29.4016  -21.8051   26.5519 C   0  0  0  0  0  0  0  0  0  0  0  0
  -28.1006  -24.3141   19.5369 C   0  0  0  0  0  0  0  0  0  1  0  0
  -28.8133  -26.6817   20.3030 C   0  0  1  0  0  0  0  0  0  0  0  0
  -26.1635  -18.8686   24.1592 C   0  0  1  0  0  0  0  0  0  0  0  0
  -27.1963  -20.8446   27.2248 C   0  0  2  0  0  0  0  0  0  0  0  0
  -30.3490  -26.7530   20.5473 C   0  0  0  0  0  0  0  0  0  0  0  0
  -24.8134  -18.0980   24.1277 C   0  0  0  0  0  0  0  0  0  0  0  0
  -20.0920  -23.7906   22.7751 N   0  0  0  0  0  0  0  0  0  0  0  0
  -20.3475  -24.7518   23.6790 N   0  0  0  0  0  0  0  0  0  0  0  0
  -27.9783  -18.5619   22.5050 N   0  0  0  0  0  0  0  0  0  0  0  0
  -20.8945  -27.7579   21.3882 N   0  0  0  0  0  0  0  0  0  0  0  0
  -20.8282  -25.1100   25.9706 N   0  0  0  0  0  0  0  0  0  0  0  0
  -20.4087  -20.6226   25.6831 N   0  0  0  0  0  0  0  0  0  0  0  0
  -23.2155  -27.7751   20.9699 N   0  0  0  0  0  0  0  0  0  0  0  0
  -28.2580  -27.9888   20.0087 N   0  0  0  0  0  0  0  0  0  0  0  0
  -28.1946  -15.6730   20.7796 N   0  0  0  0  0  0  0  0  0  0  0  0
  -26.5672  -19.3125   25.4889 N   0  0  0  0  0  0  0  0  0  0  0  0
  -28.1557  -21.9790   27.3421 N   0  3  0  0  0  0  0  0  0  0  0  0
  -20.8147  -22.3667   27.1155 O   0  0  0  0  0  0  0  0  0  0  0  0
  -27.7696  -17.7325   19.7795 O   0  0  0  0  0  0  0  0  0  0  0  0
  -28.2992  -26.1510   18.0010 O   0  0  0  0  0  0  0  0  0  0  0  0
  -27.6038  -16.9841   24.1803 O   0  0  0  0  0  0  0  0  0  0  0  0
  -26.6859  -21.5712   24.9778 O   0  0  0  0  0  0  0  0  0  0  0  0
  -21.9381  -29.6858   20.6547 O   0  0  0  0  0  0  0  0  0  0  0  0
  -19.2682  -17.7100   21.0732 O   0  0  0  0  0  0  0  0  0  0  0  0
  -28.9633  -23.4206   18.8342 O   0  0  0  0  0  0  0  0  0  1  0  0
  -22.7182  -13.5994   22.3395 F   0  0  0  0  0  0  0  0  0  0  0  0
  -20.7800  -16.4737   19.1166 F   0  0  0  0  0  0  0  0  0  0  0  0
  -25.7967  -27.1284   20.7040 S   0  0  0  0  0  0  0  0  0  0  0  0
  1  2  1  0  0  0  0
  1  5  2  0  0  0  0
  2  6  2  0  0  0  0
  3  8  2  0  0  0  0
  3 16  1  0  0  0  0
  4  9  1  0  0  0  0
  4 16  2  0  0  0  0
  5 18  1  0  0  0  0
  6 20  1  0  0  0  0
  7 10  2  0  0  0  0
  7 19  1  0  0  0  0
  8 23  1  0  0  0  0
  9 23  2  0  0  0  0
 10 24  1  0  0  0  0
 11 12  2  0  0  0  0
 11 25  1  0  0  0  0
 12 26  1  0  0  0  0
 13 21  1  0  0  0  0
 13 24  2  0  0  0  0
 14 22  1  0  0  0  0
 14 30  2  0  0  0  0
 15 26  2  0  0  0  0
 15 27  1  0  0  0  0
 16 28  1  0  0  0  0
 17 28  1  0  0  0  0
 17 29  2  0  0  0  0
 17 32  1  0  0  0  0
 18 20  2  0  0  0  0
 18 38  1  0  0  0  0
 19 21  2  0  0  0  0
 19 39  1  0  0  0  0
 20 47  1  0  0  0  0
 21 40  1  0  0  0  0
 22 31  2  0  0  0  0
 22 50  1  0  0  0  0
 23 82  1  0  0  0  0
 24 83  1  0  0  0  0
 25 27  2  0  0  0  0
 25 82  1  0  0  0  0
 26 84  1  0  0  0  0
 27 85  1  0  0  0  0
 28 65  2  0  0  0  0
 29 66  1  0  0  0  0
 29 69  1  0  0  0  0
 30 71  1  0  0  0  0
 30 86  1  0  0  0  0
 31 72  1  0  0  0  0
 31 86  1  0  0  0  0
 32 70  1  0  0  0  0
 32 76  2  0  0  0  0
 33 48  1  0  0  0  0
 33 73  1  0  0  0  0
 33 77  2  0  0  0  0
 34 59  1  0  0  0  0
 34 60  1  0  0  0  0
 34 78  2  0  0  0  0
 35 61  1  0  0  0  0
 35 67  1  0  0  0  0
 35 79  2  0  0  0  0
 36 62  1  0  0  0  0
 36 74  1  0  0  0  0
 36 80  2  0  0  0  0
 37 68  1  0  0  0  0
 37 71  1  0  0  0  0
 37 81  2  0  0  0  0
 38 41  1  0  0  0  0
 39 48  1  0  0  0  0
 40 67  1  0  0  0  0
 41 43  1  0  0  0  0
 42 44  1  0  0  0  0
 42 45  1  0  0  0  0
 43 47  1  0  0  0  0
 44 49  1  0  0  0  0
 45 68  1  0  0  0  0
 46 49  1  0  0  0  0
 46 68  1  0  0  0  0
 47 73  1  0  0  0  0
 48 67  1  0  0  0  0
 49 66  1  0  0  0  0
 51 62  1  0  0  0  0
 52 63  1  0  0  0  0
 53 63  1  0  0  0  0
 54 63  1  0  0  0  0
 55 64  1  0  0  0  0
 56 64  1  0  0  0  0
 57 64  1  0  0  0  0
 58 75  1  0  0  0  0
 59 83  1  0  0  0  0
 60 63  1  0  0  0  0
 60 72  1  0  0  0  0
 61 64  1  0  0  0  0
 61 74  1  0  0  0  0
 62 75  1  0  0  0  0
 65 66  1  0  0  0  0
M  CHG  1  75   1
M  ISO  4  37 100  59 101  71 100  83 101
M  END
> <Batch ID>
0181

> <Smiles>
CNC(C)C(=O)NC(C(=O)N1Cc2cc([101O:1][101CH2:1]C(=O)C(Nc3sc([100NH:0][100C:0](=O)N4CCCC(n5nc(-c6ccc(Oc7ccc(F)cc7F)cc6)c(C(N)=O)c5N)C4)cc3C)C(C)(C)C)ccc2CC1C(=O)NC1CCCc2ccccc21)C(C)(C)C

> <Shape>
0.222

> <Color>
0.056

> <Negative vol penalty>
0.000

$$$$

  -OEChem-04052304533D

 80 88  0     1  0  0  0  0  0999 V2000
  -29.2677  -33.7823   15.0814 C   0  0  0  0  0  0  0  0  0  0  0  0
  -28.9037  -32.4644   15.3382 C   0  0  0  0  0  0  0  0  0  0  0  0
  -24.1880   -8.8532   19.8323 C   0  0  0  0  0  0  0  0  0  0  0  0
  -23.0208  -10.3181   21.3582 C   0  0  0  0  0  0  0  0  0  0  0  0
  -29.5468  -34.6461   16.1397 C   0  0  0  0  0  0  0  0  0  0  0  0
  -28.8195  -32.0092   16.6535 C   0  0  0  0  0  0  0  0  0  0  0  0
  -24.8532  -27.9105   18.8841 C   0  0  0  0  0  0  0  0  0  0  0  0
  -23.4349   -7.7733   20.2928 C   0  0  0  0  0  0  0  0  0  0  0  0
  -22.2676   -9.2382   21.8188 C   0  0  0  0  0  0  0  0  0  0  0  0
  -24.9631  -26.5458   19.1471 C   0  0  0  0  0  0  0  0  0  0  0  0
  -22.6832   -6.6314   23.9313 C   0  0  0  0  0  0  0  0  0  0  0  0
  -22.5147   -6.4997   25.3096 C   0  0  0  0  0  0  0  0  0  0  0  0
  -25.4723  -27.0373   21.4532 C   0  0  0  0  0  0  0  0  0  0  0  0
  -20.1206   -6.6700   25.0332 C   0  0  0  0  0  0  0  0  0  0  0  0
  -29.2866  -19.4316   20.5819 C   0  0  0  0  0  0  0  0  0  0  0  0
  -27.2384  -19.2960   19.7937 C   0  0  0  0  0  0  0  0  0  0  0  0
  -23.9810  -10.1256   20.3650 C   0  0  0  0  0  0  0  0  0  0  0  0
  -24.4452  -12.1037   18.8224 C   0  0  0  0  0  0  0  0  0  0  0  0
  -29.4566  -34.2039   17.4689 C   0  0  0  0  0  0  0  0  0  0  0  0
  -25.0631  -28.8509   19.9029 C   0  0  0  0  0  0  0  0  0  0  0  0
  -29.0989  -32.8675   17.7305 C   0  0  0  0  0  0  0  0  0  0  0  0
  -25.3620  -28.4133   21.2011 C   0  0  0  0  0  0  0  0  0  0  0  0
  -28.2196  -18.5354   20.3811 C   0  0  0  0  0  0  0  0  0  0  0  0
  -22.4746   -7.9658   21.2861 C   0  0  0  0  0  0  0  0  0  0  0  0
  -25.2756  -26.1091   20.4311 C   0  0  0  0  0  0  0  0  0  0  0  0
  -21.5704   -6.7824   23.1039 C   0  0  0  0  0  0  0  0  0  0  0  0
  -21.2334   -6.5190   25.8606 C   0  0  0  0  0  0  0  0  0  0  0  0
  -20.2891   -6.8017   23.6548 C   0  0  0  0  0  0  0  0  0  0  0  0
  -24.7591  -11.2414   19.8900 C   0  0  0  0  0  0  0  0  0  0  0  0
  -25.4942  -12.9890   18.7762 C   0  0  0  0  0  0  0  0  0  0  0  0
  -23.3070  -12.1043   17.9505 C   0  0  0  0  0  0  0  0  0  0  0  0
  -27.1420  -31.2060   20.3882 C   0  0  0  0  0  0  0  0  0  0  0  0
  -26.5668  -22.7326   20.1506 C   0  0  0  0  0  0  0  0  0  0  0  0
  -25.2684  -31.8043   22.9677 C   0  0  0  0  0  0  0  0  0  0  0  0
  -23.0341  -30.6246   25.2617 C   0  0  0  0  0  0  0  0  0  0  0  0
  -29.1278  -16.3717   21.2975 C   0  0  0  0  0  0  0  0  0  0  0  0
  -29.8137  -35.1612   18.5783 C   0  0  0  0  0  0  0  0  0  0  0  0
  -24.9146  -30.3185   19.6090 C   0  0  0  0  0  0  0  0  0  0  0  0
  -25.5768  -29.3817   22.3345 C   0  0  0  0  0  0  0  0  0  0  0  0
  -29.3373  -34.7038   19.9545 C   0  0  0  0  0  0  0  0  0  0  0  0
  -29.9720  -12.9165   21.1354 C   0  0  0  0  0  0  0  0  0  0  0  0
  -29.6772  -33.2332   20.1754 C   0  0  0  0  0  0  0  0  0  0  0  0
  -28.6652  -12.2436   20.7091 C   0  0  0  0  0  0  0  0  0  0  0  0
  -29.7234  -14.0900   22.0813 C   0  0  0  0  0  0  0  0  0  0  0  0
  -27.4603  -14.4179   21.1648 C   0  0  0  0  0  0  0  0  0  0  0  0
  -28.9726  -32.3432   19.1445 C   0  0  1  0  0  0  0  0  0  0  0  0
  -25.6552  -31.2053   20.6052 C   0  0  1  0  0  0  0  0  0  0  0  0
  -27.6555  -13.2706   20.1602 C   0  0  2  0  0  0  0  0  0  0  0  0
  -21.7099  -31.3393   27.2701 C   0  0  0  0  0  0  0  0  0  0  0  0
  -27.7943  -31.6788   24.6747 C   0  0  0  0  0  0  0  0  0  0  0  0
  -26.3337  -31.4448   26.6947 C   0  0  0  0  0  0  0  0  0  0  0  0
  -26.2047  -33.5067   25.2965 C   0  0  0  0  0  0  0  0  0  0  0  0
  -20.4623  -30.0434   23.9174 C   0  0  0  0  0  0  0  0  0  0  0  0
  -27.0648  -21.7565   19.1003 C   0  0  0  0  0  0  0  0  0  0  0  0
  -25.8199  -23.9408   19.6198 C   0  0  0  0  0  0  0  0  0  1  0  0
  -25.2487  -31.3427   24.4048 C   0  0  1  0  0  0  0  0  0  0  0  0
  -21.7112  -31.1803   25.7576 C   0  0  2  0  0  0  0  0  0  0  0  0
  -26.3933  -31.9748   25.2461 C   0  0  0  0  0  0  0  0  0  0  0  0
  -29.0094  -20.6669   20.1563 N   0  0  0  0  0  0  0  0  0  0  0  0
  -25.9171  -11.5510   20.4794 N   0  0  0  0  0  0  0  0  0  0  0  0
  -27.7571  -20.5524   19.6823 N   0  0  0  0  0  0  0  0  0  0  0  0
  -26.3399  -12.6176   19.7796 N   0  0  0  0  0  0  0  0  0  0  0  0
  -25.4269  -30.8065   21.9956 N   0  0  0  0  0  0  0  0  0  0  0  0
  -28.7603  -15.0236   21.4932 N   0  0  0  0  0  0  0  0  0  0  0  0
  -25.7665  -14.0412   17.9755 N   0  0  0  0  0  0  0  0  0  0  0  0
  -22.3222  -11.1245   18.1366 N   0  0  0  0  0  0  0  0  0  0  0  0
  -28.1421  -17.1572   20.7010 N   0  0  0  0  0  0  0  0  0  0  0  0
  -27.5800  -32.1668   19.4968 N   0  0  0  0  0  0  0  0  0  0  0  0
  -23.9094  -31.6294   24.9073 N   0  0  0  0  0  0  0  0  0  0  0  0
  -20.5930  -30.2705   25.3797 N   0  3  0  0  0  0  0  0  0  0  0  0
  -23.1754  -12.9386   17.0230 O   0  0  0  0  0  0  0  0  0  0  0  0
  -27.8403  -30.3958   20.9862 O   0  0  0  0  0  0  0  0  0  0  0  0
  -26.7512  -22.5662   21.3556 O   0  0  0  0  0  0  0  0  0  0  0  0
  -25.1405  -33.0052   22.7164 O   0  0  0  0  0  0  0  0  0  0  0  0
  -23.2688  -29.4199   25.1989 O   0  0  0  0  0  0  0  0  0  0  0  0
  -30.2451  -16.7916   21.6094 O   0  0  0  0  0  0  0  0  0  0  0  0
  -21.7393   -6.9123   21.7356 O   0  0  0  0  0  0  0  0  0  0  0  0
  -25.3841  -24.7776   20.6904 O   0  0  0  0  0  0  0  0  0  1  0  0
  -21.0716   -6.3910   27.1841 F   0  0  0  0  0  0  0  0  0  0  0  0
  -19.2162   -6.9453   22.8649 F   0  0  0  0  0  0  0  0  0  0  0  0
  1  2  1  0  0  0  0
  1  5  2  0  0  0  0
  2  6  2  0  0  0  0
  3  8  2  0  0  0  0
  3 17  1  0  0  0  0
  4  9  1  0  0  0  0
  4 17  2  0  0  0  0
  5 19  1  0  0  0  0
  6 21  1  0  0  0  0
  7 10  2  0  0  0  0
  7 20  1  0  0  0  0
  8 24  1  0  0  0  0
  9 24  2  0  0  0  0
 10 25  1  0  0  0  0
 11 12  2  0  0  0  0
 11 26  1  0  0  0  0
 12 27  1  0  0  0  0
 13 22  1  0  0  0  0
 13 25  2  0  0  0  0
 14 27  2  0  0  0  0
 14 28  1  0  0  0  0
 15 23  1  0  0  0  0
 15 59  2  0  0  0  0
 16 23  2  0  0  0  0
 16 61  1  0  0  0  0
 17 29  1  0  0  0  0
 18 29  1  0  0  0  0
 18 30  2  0  0  0  0
 18 31  1  0  0  0  0
 19 21  2  0  0  0  0
 19 37  1  0  0  0  0
 20 22  2  0  0  0  0
 20 38  1  0  0  0  0
 21 46  1  0  0  0  0
 22 39  1  0  0  0  0
 23 67  1  0  0  0  0
 24 77  1  0  0  0  0
 25 78  1  0  0  0  0
 26 28  2  0  0  0  0
 26 77  1  0  0  0  0
 27 79  1  0  0  0  0
 28 80  1  0  0  0  0
 29 60  2  0  0  0  0
 30 62  1  0  0  0  0
 30 65  1  0  0  0  0
 31 66  1  0  0  0  0
 31 71  2  0  0  0  0
 32 47  1  0  0  0  0
 32 68  1  0  0  0  0
 32 72  2  0  0  0  0
 33 54  1  0  0  0  0
 33 55  1  0  0  0  0
 33 73  2  0  0  0  0
 34 56  1  0  0  0  0
 34 63  1  0  0  0  0
 34 74  2  0  0  0  0
 35 57  1  0  0  0  0
 35 69  1  0  0  0  0
 35 75  2  0  0  0  0
 36 64  1  0  0  0  0
 36 67  1  0  0  0  0
 36 76  2  0  0  0  0
 37 40  1  0  0  0  0
 38 47  1  0  0  0  0
 39 63  1  0  0  0  0
 40 42  1  0  0  0  0
 41 43  1  0  0  0  0
 41 44  1  0  0  0  0
 42 46  1  0  0  0  0
 43 48  1  0  0  0  0
 44 64  1  0  0  0  0
 45 48  1  0  0  0  0
 45 64  1  0  0  0  0
 46 68  1  0  0  0  0
 47 63  1  0  0  0  0
 48 62  1  0  0  0  0
 49 57  1  0  0  0  0
 50 58  1  0  0  0  0
 51 58  1  0  0  0  0
 52 58  1  0  0  0  0
 53 70  1  0  0  0  0
 54 61  1  0  0  0  0
 55 78  1  0  0  0  0
 56 58  1  0  0  0  0
 56 69  1  0  0  0  0
 57 70  1  0  0  0  0
 59 61  1  0  0  0  0
 60 62  1  0  0  0  0
M  CHG  1  70   1
M  ISO  4  36 100  55 101  67 100  78 101
M  END
> <Batch ID>
0181

> <Smiles>
CNC(C)C(=O)NC(C(=O)N1Cc2cc([101O:1][101CH2:1]C(=O)Cn3cc([100NH:0][100C:0](=O)N4CCCC(n5nc(-c6ccc(Oc7ccc(F)cc7F)cc6)c(C(N)=O)c5N)C4)cn3)ccc2CC1C(=O)NC1CCCc2ccccc21)C(C)(C)C

> <Shape>
0.259

> <Color>
0.107

> <Negative vol penalty>
0.000

$$$$

  -OEChem-04052304533D

 84 92  0     1  0  0  0  0  0999 V2000
  -16.9422  -29.1540   24.4583 C   0  0  0  0  0  0  0  0  0  0  0  0
  -17.3348  -28.0669   23.6840 C   0  0  0  0  0  0  0  0  0  0  0  0
  -27.3239  -17.9101   19.8368 C   0  0  0  0  0  0  0  0  0  0  0  0
  -28.5738  -17.8854   21.9041 C   0  0  0  0  0  0  0  0  0  0  0  0
  -17.5988  -30.3767   24.3248 C   0  0  0  0  0  0  0  0  0  0  0  0
  -18.3836  -28.2021   22.7751 C   0  0  0  0  0  0  0  0  0  0  0  0
  -22.5208  -23.9458   21.2677 C   0  0  0  0  0  0  0  0  0  0  0  0
  -27.1139  -16.5356   19.9473 C   0  0  0  0  0  0  0  0  0  0  0  0
  -28.3639  -16.5109   22.0147 C   0  0  0  0  0  0  0  0  0  0  0  0
  -22.6125  -23.0674   20.1889 C   0  0  0  0  0  0  0  0  0  0  0  0
  -25.0820  -14.4570   21.6746 C   0  0  0  0  0  0  0  0  0  0  0  0
  -23.7964  -13.9756   21.4273 C   0  0  0  0  0  0  0  0  0  0  0  0
  -24.0668  -24.6221   19.0544 C   0  0  0  0  0  0  0  0  0  0  0  0
  -24.6532  -12.6131   19.6254 C   0  0  0  0  0  0  0  0  0  0  0  0
  -28.0539  -18.5850   20.8152 C   0  0  0  0  0  0  0  0  0  0  0  0
  -27.4546  -21.0334   21.2077 C   0  0  0  0  0  0  0  0  0  0  0  0
  -18.6625  -30.5244   23.4207 C   0  0  0  0  0  0  0  0  0  0  0  0
  -23.1938  -25.1758   21.2432 C   0  0  0  0  0  0  0  0  0  0  0  0
  -19.0541  -29.4283   22.6285 C   0  0  0  0  0  0  0  0  0  0  0  0
  -23.9841  -25.5132   20.1352 C   0  0  0  0  0  0  0  0  0  0  0  0
  -27.6339  -15.8360   21.0362 C   0  0  0  0  0  0  0  0  0  0  0  0
  -23.3833  -23.4068   19.0808 C   0  0  0  0  0  0  0  0  0  0  0  0
  -26.1532  -14.0165   20.8972 C   0  0  0  0  0  0  0  0  0  0  0  0
  -23.5820  -13.0537   20.4027 C   0  0  0  0  0  0  0  0  0  0  0  0
  -25.9388  -13.0946   19.8727 C   0  0  0  0  0  0  0  0  0  0  0  0
  -28.2715  -20.0048   20.7013 C   0  0  0  0  0  0  0  0  0  0  0  0
  -28.8151  -24.5660   14.3652 C   0  0  0  0  0  0  0  0  0  0  0  0
  -28.0921  -22.1921   20.8371 C   0  0  0  0  0  0  0  0  0  0  0  0
  -28.3350  -25.1445   13.2090 C   0  0  0  0  0  0  0  0  0  0  0  0
  -26.6696  -24.2835   14.7215 C   0  0  0  0  0  0  0  0  0  0  0  0
  -26.2291  -20.9490   21.9471 C   0  0  0  0  0  0  0  0  0  0  0  0
  -30.2550  -24.4517   14.7123 C   0  0  0  0  0  0  0  0  0  0  0  0
  -22.2989  -28.2245   21.3341 C   0  0  0  0  0  0  0  0  0  0  0  0
  -25.4953  -28.7532   21.4943 C   0  0  0  0  0  0  0  0  0  0  0  0
  -28.6534  -27.6296   20.8536 C   0  0  0  0  0  0  0  0  0  0  0  0
  -25.1693  -23.3005   16.4884 C   0  0  0  0  0  0  0  0  0  0  0  0
  -31.8202  -23.5848   16.4218 C   0  0  0  0  0  0  0  0  0  0  0  0
  -19.3108  -31.8786   23.2775 C   0  0  0  0  0  0  0  0  0  0  0  0
  -23.1061  -26.1005   22.4263 C   0  0  0  0  0  0  0  0  0  0  0  0
  -24.7425  -26.8128   20.0683 C   0  0  0  0  0  0  0  0  0  0  0  0
  -20.6580  -31.8362   22.5608 C   0  0  0  0  0  0  0  0  0  0  0  0
  -32.4582  -23.9250   19.8822 C   0  0  0  0  0  0  0  0  0  0  0  0
  -20.5668  -30.9779   21.3031 C   0  0  0  0  0  0  0  0  0  0  0  0
  -31.3732  -23.0647   20.5357 C   0  0  0  0  0  0  0  0  0  0  0  0
  -32.9820  -23.2946   18.5925 C   0  0  0  0  0  0  0  0  0  0  0  0
  -30.8710  -22.0714   18.2673 C   0  0  0  0  0  0  0  0  0  0  0  0
  -20.2036  -29.5288   21.6493 C   0  0  1  0  0  0  0  0  0  0  0  0
  -23.4196  -27.5516   22.0749 C   0  0  1  0  0  0  0  0  0  0  0  0
  -30.2616  -22.6975   19.5321 C   0  0  1  0  0  0  0  0  0  0  0  0
  -31.1626  -27.5975   20.8752 C   0  0  0  0  0  0  0  0  0  0  0  0
  -23.0268  -22.2422   15.6828 C   0  0  0  0  0  0  0  0  0  0  0  0
  -25.1782  -30.6284   19.1083 C   0  0  0  0  0  0  0  0  0  0  0  0
  -27.6568  -30.5107   18.7752 C   0  0  0  0  0  0  0  0  0  0  0  0
  -26.7276  -31.4572   20.8878 C   0  0  0  0  0  0  0  0  0  0  0  0
  -28.7284  -26.1912   23.4390 C   0  0  0  0  0  0  0  0  0  0  0  0
  -26.5959  -28.9651   20.4830 C   0  0  1  0  0  0  0  0  0  0  0  0
  -29.8985  -27.5754   21.7204 C   0  0  2  0  0  0  0  0  0  0  0  0
  -23.6729  -23.1293   16.7366 C   0  0  1  0  0  0  0  0  0  1  0  0
  -26.5239  -30.3666   19.8137 C   0  0  0  0  0  0  0  0  0  0  0  0
  -29.3459  -20.4692   20.0578 N   0  0  0  0  0  0  0  0  0  0  0  0
  -27.8616  -24.0721   15.2339 N   0  0  0  0  0  0  0  0  0  0  0  0
  -29.2085  -21.8023   20.1573 N   0  0  0  0  0  0  0  0  0  0  0  0
  -24.6200  -27.6861   21.2472 N   0  0  0  0  0  0  0  0  0  0  0  0
  -31.8691  -22.9860   17.6927 N   0  0  0  0  0  0  0  0  0  0  0  0
  -27.8011  -23.4962   21.0294 N   0  0  0  0  0  0  0  0  0  0  0  0
  -29.0391  -25.7040   12.1945 N   0  0  0  0  0  0  0  0  0  0  0  0
  -25.7134  -19.6798   22.2430 N   0  0  0  0  0  0  0  0  0  0  0  0
  -25.4144  -23.9389   15.2771 N   0  0  0  0  0  0  0  0  0  0  0  0
  -30.5334  -23.8316   15.9307 N   0  0  0  0  0  0  0  0  0  0  0  0
  -21.3624  -28.8242   22.1544 N   0  0  0  0  0  0  0  0  0  0  0  0
  -27.8489  -28.7002   21.1817 N   0  0  0  0  0  0  0  0  0  0  0  0
  -29.9040  -26.3319   22.5418 N   0  3  0  0  0  0  0  0  0  0  0  0
  -25.6013  -21.9690   22.3198 O   0  0  0  0  0  0  0  0  0  0  0  0
  -31.0963  -24.8596   13.9163 O   0  0  0  0  0  0  0  0  0  0  0  0
  -22.2856  -28.2026   20.1089 O   0  0  0  0  0  0  0  0  0  0  0  0
  -25.4194  -29.5023   22.4714 O   0  0  0  0  0  0  0  0  0  0  0  0
  -28.4199  -26.8067   19.9710 O   0  0  0  0  0  0  0  0  0  0  0  0
  -25.9985  -22.9140   17.3071 O   0  0  0  0  0  0  0  0  0  0  0  0
  -32.8342  -23.9071   15.7946 O   0  0  0  0  0  0  0  0  0  0  0  0
  -27.4291  -14.4948   21.1445 O   0  0  0  0  0  0  0  0  0  0  0  0
  -23.4740  -22.5515   18.0262 O   0  0  0  0  0  0  0  0  0  1  0  0
  -22.3477  -12.5903   20.1664 F   0  0  0  0  0  0  0  0  0  0  0  0
  -26.9641  -12.6668   19.1233 F   0  0  0  0  0  0  0  0  0  0  0  0
  -26.6215  -25.0710   13.1975 S   0  0  0  0  0  0  0  0  0  0  0  0
  1  2  1  0  0  0  0
  1  5  2  0  0  0  0
  2  6  2  0  0  0  0
  3  8  2  0  0  0  0
  3 15  1  0  0  0  0
  4  9  1  0  0  0  0
  4 15  2  0  0  0  0
  5 17  1  0  0  0  0
  6 19  1  0  0  0  0
  7 10  2  0  0  0  0
  7 18  1  0  0  0  0
  8 21  1  0  0  0  0
  9 21  2  0  0  0  0
 10 22  1  0  0  0  0
 11 12  2  0  0  0  0
 11 23  1  0  0  0  0
 12 24  1  0  0  0  0
 13 20  1  0  0  0  0
 13 22  2  0  0  0  0
 14 24  2  0  0  0  0
 14 25  1  0  0  0  0
 15 26  1  0  0  0  0
 16 26  1  0  0  0  0
 16 28  2  0  0  0  0
 16 31  1  0  0  0  0
 17 19  2  0  0  0  0
 17 38  1  0  0  0  0
 18 20  2  0  0  0  0
 18 39  1  0  0  0  0
 19 47  1  0  0  0  0
 20 40  1  0  0  0  0
 21 80  1  0  0  0  0
 22 81  1  0  0  0  0
 23 25  2  0  0  0  0
 23 80  1  0  0  0  0
 24 82  1  0  0  0  0
 25 83  1  0  0  0  0
 26 60  2  0  0  0  0
 27 29  2  0  0  0  0
 27 32  1  0  0  0  0
 27 61  1  0  0  0  0
 28 62  1  0  0  0  0
 28 65  1  0  0  0  0
 29 66  1  0  0  0  0
 29 84  1  0  0  0  0
 30 61  2  0  0  0  0
 30 68  1  0  0  0  0
 30 84  1  0  0  0  0
 31 67  1  0  0  0  0
 31 73  2  0  0  0  0
 32 69  1  0  0  0  0
 32 74  2  0  0  0  0
 33 48  1  0  0  0  0
 33 70  1  0  0  0  0
 33 75  2  0  0  0  0
 34 56  1  0  0  0  0
 34 63  1  0  0  0  0
 34 76  2  0  0  0  0
 35 57  1  0  0  0  0
 35 71  1  0  0  0  0
 35 77  2  0  0  0  0
 36 58  1  0  0  0  0
 36 68  1  0  0  0  0
 36 78  2  0  0  0  0
 37 64  1  0  0  0  0
 37 69  1  0  0  0  0
 37 79  2  0  0  0  0
 38 41  1  0  0  0  0
 39 48  1  0  0  0  0
 40 63  1  0  0  0  0
 41 43  1  0  0  0  0
 42 44  1  0  0  0  0
 42 45  1  0  0  0  0
 43 47  1  0  0  0  0
 44 49  1  0  0  0  0
 45 64  1  0  0  0  0
 46 49  1  0  0  0  0
 46 64  1  0  0  0  0
 47 70  1  0  0  0  0
 48 63  1  0  0  0  0
 49 62  1  0  0  0  0
 50 57  1  0  0  0  0
 51 58  1  0  0  0  0
 52 59  1  0  0  0  0
 53 59  1  0  0  0  0
 54 59  1  0  0  0  0
 55 72  1  0  0  0  0
 56 59  1  0  0  0  0
 56 71  1  0  0  0  0
 57 72  1  0  0  0  0
 58 81  1  0  0  0  0
 60 62  1  0  0  0  0
M  CHG  1  72   1
M  ISO  4  37 100  58 101  69 100  81 101
M  END
> <Batch ID>
0181

> <Smiles>
CNC(C)C(=O)NC(C(=O)N1Cc2cc([101O:1][101CH:1](C)C(=O)Nc3nc(C(=O)[100NH:0][100C:0](=O)N4CCCC(n5nc(-c6ccc(Oc7ccc(F)cc7F)cc6)c(C(N)=O)c5N)C4)c(N)s3)ccc2CC1C(=O)NC1CCCc2ccccc21)C(C)(C)C

> <Shape>
0.215

> <Color>
0.073

> <Negative vol penalty>
0.000

$$$$

  -OEChem-04052304533D

 83 91  0     1  0  0  0  0  0999 V2000
  -29.6529  -11.6953   19.7468 C   0  0  0  0  0  0  0  0  0  0  0  0
  -30.0739  -13.0023   19.5232 C   0  0  0  0  0  0  0  0  0  0  0  0
  -20.6183  -26.9827   21.7921 C   0  0  0  0  0  0  0  0  0  0  0  0
  -19.8105  -28.1885   23.7236 C   0  0  0  0  0  0  0  0  0  0  0  0
  -28.2908  -11.4036   19.8071 C   0  0  0  0  0  0  0  0  0  0  0  0
  -29.1330  -14.0182   19.3588 C   0  0  0  0  0  0  0  0  0  0  0  0
  -29.6453  -19.8415   21.1842 C   0  0  0  0  0  0  0  0  0  0  0  0
  -19.3123  -26.6022   21.4835 C   0  0  0  0  0  0  0  0  0  0  0  0
  -18.5045  -27.8080   23.4149 C   0  0  0  0  0  0  0  0  0  0  0  0
  -30.0043  -21.0078   20.5099 C   0  0  0  0  0  0  0  0  0  0  0  0
  -17.0726  -24.3023   22.5411 C   0  0  0  0  0  0  0  0  0  0  0  0
  -16.8525  -22.9709   22.1884 C   0  0  0  0  0  0  0  0  0  0  0  0
  -27.6723  -21.5141   20.1567 C   0  0  0  0  0  0  0  0  0  0  0  0
  -16.0096  -23.6800   20.0381 C   0  0  0  0  0  0  0  0  0  0  0  0
  -29.9703  -28.6294   22.2548 C   0  0  0  0  0  0  0  0  0  0  0  0
  -20.8674  -27.7758   22.9122 C   0  0  0  0  0  0  0  0  0  0  0  0
  -22.8918  -29.3235   22.7938 C   0  0  0  0  0  0  0  0  0  0  0  0
  -27.3328  -12.4180   19.6529 C   0  0  0  0  0  0  0  0  0  0  0  0
  -28.2951  -19.4967   21.3406 C   0  0  0  0  0  0  0  0  0  0  0  0
  -27.7568  -13.7395   19.4157 C   0  0  0  0  0  0  0  0  0  0  0  0
  -27.2988  -20.3443   20.8357 C   0  0  0  0  0  0  0  0  0  0  0  0
  -18.2554  -27.0148   22.2948 C   0  0  0  0  0  0  0  0  0  0  0  0
  -29.0178  -21.8428   19.9935 C   0  0  0  0  0  0  0  0  0  0  0  0
  -16.7611  -25.3226   21.6424 C   0  0  0  0  0  0  0  0  0  0  0  0
  -16.3210  -22.6597   20.9369 C   0  0  0  0  0  0  0  0  0  0  0  0
  -16.2297  -25.0114   20.3909 C   0  0  0  0  0  0  0  0  0  0  0  0
  -22.2163  -28.1687   23.2319 C   0  0  0  0  0  0  0  0  0  0  0  0
  -24.1350  -29.2337   23.3708 C   0  0  0  0  0  0  0  0  0  0  0  0
  -29.3028  -27.7621   21.4369 C   0  0  0  0  0  0  0  0  0  0  0  0
  -29.0629  -27.0570   23.5216 C   0  0  0  0  0  0  0  0  0  0  0  0
  -22.4363  -30.3826   21.9415 C   0  0  0  0  0  0  0  0  0  0  0  0
  -28.6516  -26.2506   24.6781 C   0  0  0  0  0  0  0  0  0  0  0  0
  -26.4784  -17.0629   20.4026 C   0  0  0  0  0  0  0  0  0  0  0  0
  -29.1965  -25.3977   19.3280 C   0  0  0  0  0  0  0  0  0  0  0  0
  -24.2477  -18.5229   22.2505 C   0  0  0  0  0  0  0  0  0  0  0  0
  -23.1198  -21.3975   23.7035 C   0  0  0  0  0  0  0  0  0  0  0  0
  -25.8714  -12.0464   19.6788 C   0  0  0  0  0  0  0  0  0  0  0  0
  -27.9238  -18.2488   22.0939 C   0  0  0  0  0  0  0  0  0  0  0  0
  -25.8345  -20.0296   20.9946 C   0  0  0  0  0  0  0  0  0  0  0  0
  -24.9420  -13.2425   19.8678 C   0  0  0  0  0  0  0  0  0  0  0  0
  -25.9019  -26.1292   26.9510 C   0  0  0  0  0  0  0  0  0  0  0  0
  -25.3475  -14.3851   18.9422 C   0  0  0  0  0  0  0  0  0  0  0  0
  -24.7462  -26.7256   26.1456 C   0  0  0  0  0  0  0  0  0  0  0  0
  -26.8387  -25.3077   26.0688 C   0  0  0  0  0  0  0  0  0  0  0  0
  -26.2029  -26.6280   24.0794 C   0  0  0  0  0  0  0  0  0  0  0  0
  -26.7668  -14.8730   19.2571 C   0  0  1  0  0  0  0  0  0  0  0  0
  -26.5307  -17.7333   21.7463 C   0  0  1  0  0  0  0  0  0  0  0  0
  -25.2629  -27.5057   24.9221 C   0  0  1  0  0  0  0  0  0  0  0  0
  -29.3084  -29.5828   25.4968 C   0  0  0  0  0  0  0  0  0  0  0  0
  -27.9304  -27.1243   18.0306 C   0  0  0  0  0  0  0  0  0  0  0  0
  -21.6890  -22.8723   25.1440 C   0  0  0  0  0  0  0  0  0  0  0  0
  -22.3885  -18.4665   19.8318 C   0  0  0  0  0  0  0  0  0  0  0  0
  -20.9538  -20.1652   20.9826 C   0  0  0  0  0  0  0  0  0  0  0  0
  -21.2862  -17.9156   22.0080 C   0  0  0  0  0  0  0  0  0  0  0  0
  -24.8312  -20.9391   26.0741 C   0  0  0  0  0  0  0  0  0  0  0  0
  -28.4533  -24.0766   19.4040 C   0  0  0  0  0  0  0  0  0  1  0  0
  -30.3551  -28.7984   24.7243 C   0  0  0  0  0  0  0  0  0  0  0  0
  -28.3450  -26.6566   19.4155 C   0  0  2  0  0  0  0  0  0  0  0  0
  -23.1919  -19.5769   22.0198 C   0  0  1  0  0  0  0  0  0  0  0  0
  -22.6519  -21.6955   25.1166 C   0  0  2  0  0  0  0  0  0  0  0  0
  -21.9826  -19.0363   21.2057 C   0  0  0  0  0  0  0  0  0  0  0  0
  -22.9681  -27.4016   24.0259 N   0  0  0  0  0  0  0  0  0  0  0  0
  -29.8052  -28.1689   23.5389 N   0  0  0  0  0  0  0  0  0  0  0  0
  -24.1289  -28.0756   24.0911 N   0  0  0  0  0  0  0  0  0  0  0  0
  -28.7509  -26.7993   22.2473 N   0  3  0  0  0  0  0  0  0  0  0  0
  -27.2846  -26.0913   24.9173 N   0  0  0  0  0  0  0  0  0  0  0  0
  -25.5222  -18.7949   21.7333 N   0  0  0  0  0  0  0  0  0  0  0  0
  -25.2219  -30.0332   23.3271 N   0  0  0  0  0  0  0  0  0  0  0  0
  -21.1311  -30.3181   21.4349 N   0  0  0  0  0  0  0  0  0  0  0  0
  -29.1078  -27.6980   20.0680 N   0  0  0  0  0  0  0  0  0  0  0  0
  -26.7629  -15.7111   20.4370 N   0  0  0  0  0  0  0  0  0  0  0  0
  -22.8408  -20.0980   23.3365 N   0  0  0  0  0  0  0  0  0  0  0  0
  -23.8151  -22.0196   25.9899 N   0  3  0  0  0  0  0  0  0  0  0  0
  -23.1706  -31.3490   21.6248 O   0  0  0  0  0  0  0  0  0  0  0  0
  -29.5588  -25.7811   25.3634 O   0  0  0  0  0  0  0  0  0  0  0  0
  -26.1991  -17.7228   19.4086 O   0  0  0  0  0  0  0  0  0  0  0  0
  -30.4196  -25.4402   19.1930 O   0  0  0  0  0  0  0  0  0  0  0  0
  -23.9543  -17.4992   22.8731 O   0  0  0  0  0  0  0  0  0  0  0  0
  -23.6738  -22.2349   22.9948 O   0  0  0  0  0  0  0  0  0  0  0  0
  -16.9809  -26.6439   21.9938 O   0  0  0  0  0  0  0  0  0  0  0  0
  -29.3655  -22.9814   19.3343 O   0  0  0  0  0  0  0  0  0  1  0  0
  -16.1112  -21.3810   20.5977 F   0  0  0  0  0  0  0  0  0  0  0  0
  -15.9296  -25.9872   19.5228 F   0  0  0  0  0  0  0  0  0  0  0  0
  1  2  1  0  0  0  0
  1  5  2  0  0  0  0
  2  6  2  0  0  0  0
  3  8  2  0  0  0  0
  3 16  1  0  0  0  0
  4  9  1  0  0  0  0
  4 16  2  0  0  0  0
  5 18  1  0  0  0  0
  6 20  1  0  0  0  0
  7 10  2  0  0  0  0
  7 19  1  0  0  0  0
  8 22  1  0  0  0  0
  9 22  2  0  0  0  0
 10 23  1  0  0  0  0
 11 12  2  0  0  0  0
 11 24  1  0  0  0  0
 12 25  1  0  0  0  0
 13 21  1  0  0  0  0
 13 23  2  0  0  0  0
 14 25  2  0  0  0  0
 14 26  1  0  0  0  0
 15 29  2  0  0  0  0
 15 63  1  0  0  0  0
 16 27  1  0  0  0  0
 17 27  1  0  0  0  0
 17 28  2  0  0  0  0
 17 31  1  0  0  0  0
 18 20  2  0  0  0  0
 18 37  1  0  0  0  0
 19 21  2  0  0  0  0
 19 38  1  0  0  0  0
 20 46  1  0  0  0  0
 21 39  1  0  0  0  0
 22 80  1  0  0  0  0
 23 81  1  0  0  0  0
 24 26  2  0  0  0  0
 24 80  1  0  0  0  0
 25 82  1  0  0  0  0
 26 83  1  0  0  0  0
 27 62  2  0  0  0  0
 28 64  1  0  0  0  0
 28 68  1  0  0  0  0
 29 65  1  0  0  0  0
 29 70  1  0  0  0  0
 30 32  1  0  0  0  0
 30 63  1  0  0  0  0
 30 65  2  0  0  0  0
 31 69  1  0  0  0  0
 31 74  2  0  0  0  0
 32 66  1  0  0  0  0
 32 75  2  0  0  0  0
 33 47  1  0  0  0  0
 33 71  1  0  0  0  0
 33 76  2  0  0  0  0
 34 56  1  0  0  0  0
 34 58  1  0  0  0  0
 34 77  2  0  0  0  0
 35 59  1  0  0  0  0
 35 67  1  0  0  0  0
 35 78  2  0  0  0  0
 36 60  1  0  0  0  0
 36 72  1  0  0  0  0
 36 79  2  0  0  0  0
 37 40  1  0  0  0  0
 38 47  1  0  0  0  0
 39 67  1  0  0  0  0
 40 42  1  0  0  0  0
 41 43  1  0  0  0  0
 41 44  1  0  0  0  0
 42 46  1  0  0  0  0
 43 48  1  0  0  0  0
 44 66  1  0  0  0  0
 45 48  1  0  0  0  0
 45 66  1  0  0  0  0
 46 71  1  0  0  0  0
 47 67  1  0  0  0  0
 48 64  1  0  0  0  0
 49 57  1  0  0  0  0
 50 58  1  0  0  0  0
 51 60  1  0  0  0  0
 52 61  1  0  0  0  0
 53 61  1  0  0  0  0
 54 61  1  0  0  0  0
 55 73  1  0  0  0  0
 56 81  1  0  0  0  0
 57 63  1  0  0  0  0
 58 70  1  0  0  0  0
 59 61  1  0  0  0  0
 59 72  1  0  0  0  0
 60 73  1  0  0  0  0
 62 64  1  0  0  0  0
M  CHG  2  65   1  73   1
M  ISO  4  30 100  32 100  56 101  81 101
M  END
> <Batch ID>
0181

> <Smiles>
CCn1cc(NC(C)C(=O)[101CH2:1][101O:1]c2ccc3c(c2)CN(C(=O)C(NC(=O)C(C)NC)C(C)(C)C)C(C(=O)NC2CCCc4ccccc42)C3)n[100c:0]1[100C:0](=O)N1CCCC(n2nc(-c3ccc(Oc4ccc(F)cc4F)cc3)c(C(N)=O)c2N)C1

> <Shape>
0.206

> <Color>
0.069

> <Negative vol penalty>
0.000

$$$$

  -OEChem-04052304533D

 85 93  0     1  0  0  0  0  0999 V2000
  -24.1069  -19.1488   26.9116 C   0  0  0  0  0  0  0  0  0  0  0  0
  -25.0513  -19.7792   26.1078 C   0  0  0  0  0  0  0  0  0  0  0  0
  -25.8124  -13.3158   21.6102 C   0  0  0  0  0  0  0  0  0  0  0  0
  -25.8929  -13.7033   19.2268 C   0  0  0  0  0  0  0  0  0  0  0  0
  -22.7479  -19.3726   26.6950 C   0  0  0  0  0  0  0  0  0  0  0  0
  -24.6372  -20.6331   25.0862 C   0  0  0  0  0  0  0  0  0  0  0  0
  -27.4634  -25.7143   23.1626 C   0  0  0  0  0  0  0  0  0  0  0  0
  -24.7153  -12.4723   21.4360 C   0  0  0  0  0  0  0  0  0  0  0  0
  -24.7958  -12.8597   19.0526 C   0  0  0  0  0  0  0  0  0  0  0  0
  -28.3158  -25.9639   22.0880 C   0  0  0  0  0  0  0  0  0  0  0  0
  -24.1534   -9.2886   20.4452 C   0  0  0  0  0  0  0  0  0  0  0  0
  -24.1539   -8.0744   21.1316 C   0  0  0  0  0  0  0  0  0  0  0  0
  -26.4375  -26.7335   20.7846 C   0  0  0  0  0  0  0  0  0  0  0  0
  -29.6970  -22.5360   17.6368 C   0  0  0  0  0  0  0  0  0  0  0  0
  -30.2778  -22.4814   15.2924 C   0  0  0  0  0  0  0  0  0  0  0  0
  -22.1196   -8.7150   22.2666 C   0  0  0  0  0  0  0  0  0  0  0  0
  -26.4012  -13.9314   20.5056 C   0  0  0  0  0  0  0  0  0  0  0  0
  -28.8949  -14.4426   20.6721 C   0  0  0  0  0  0  0  0  0  0  0  0
  -22.3172  -20.2372   25.6763 C   0  0  0  0  0  0  0  0  0  0  0  0
  -26.0876  -25.9626   23.0524 C   0  0  0  0  0  0  0  0  0  0  0  0
  -23.2711  -20.8677   24.8548 C   0  0  0  0  0  0  0  0  0  0  0  0
  -25.5701  -26.4886   21.8601 C   0  0  0  0  0  0  0  0  0  0  0  0
  -30.3974  -23.0658   16.5532 C   0  0  0  0  0  0  0  0  0  0  0  0
  -28.8769  -21.4216   17.4596 C   0  0  0  0  0  0  0  0  0  0  0  0
  -24.2070  -12.2442   20.1572 C   0  0  0  0  0  0  0  0  0  0  0  0
  -27.8025  -26.4708   20.8978 C   0  0  0  0  0  0  0  0  0  0  0  0
  -23.1361  -10.2162   20.6696 C   0  0  0  0  0  0  0  0  0  0  0  0
  -23.1370   -7.7875   22.0422 C   0  0  0  0  0  0  0  0  0  0  0  0
  -29.4577  -21.3671   15.1151 C   0  0  0  0  0  0  0  0  0  0  0  0
  -22.1191   -9.9294   21.5802 C   0  0  0  0  0  0  0  0  0  0  0  0
  -28.7573  -20.8372   16.1987 C   0  0  0  0  0  0  0  0  0  0  0  0
  -27.5342  -14.8033   20.6849 C   0  0  0  0  0  0  0  0  0  0  0  0
  -29.5649  -15.6224   20.8857 C   0  0  0  0  0  0  0  0  0  0  0  0
  -29.4992  -13.1561   20.4838 C   0  0  0  0  0  0  0  0  0  0  0  0
  -23.4652  -24.1738   23.2163 C   0  0  0  0  0  0  0  0  0  0  0  0
  -30.1814  -25.7200   18.2731 C   0  0  0  0  0  0  0  0  0  0  0  0
  -21.9659  -27.0432   23.0135 C   0  0  0  0  0  0  0  0  0  0  0  0
  -22.0824  -30.3101   22.0335 C   0  0  0  0  0  0  0  0  0  0  0  0
  -28.1757  -21.3460   19.8780 C   0  0  0  0  0  0  0  0  0  0  0  0
  -20.8363  -20.4111   25.4498 C   0  0  0  0  0  0  0  0  0  0  0  0
  -25.1854  -25.7132   24.2298 C   0  0  0  0  0  0  0  0  0  0  0  0
  -24.1037  -26.7915   21.6976 C   0  0  0  0  0  0  0  0  0  0  0  0
  -20.4901  -21.6222   24.5874 C   0  0  0  0  0  0  0  0  0  0  0  0
  -29.0564  -19.8871   23.0042 C   0  0  0  0  0  0  0  0  0  0  0  0
  -21.3879  -21.6743   23.3553 C   0  0  0  0  0  0  0  0  0  0  0  0
  -28.8957  -18.3847   22.7612 C   0  0  0  0  0  0  0  0  0  0  0  0
  -27.9900  -20.6977   22.2697 C   0  0  0  0  0  0  0  0  0  0  0  0
  -27.7185  -18.9169   20.5892 C   0  0  0  0  0  0  0  0  0  0  0  0
  -22.8618  -21.8202   23.7524 C   0  0  1  0  0  0  0  0  0  0  0  0
  -23.7252  -25.5191   23.8330 C   0  0  1  0  0  0  0  0  0  0  0  0
  -28.8093  -18.0633   21.2563 C   0  0  2  0  0  0  0  0  0  0  0  0
  -32.6644  -25.6708   17.9563 C   0  0  0  0  0  0  0  0  0  0  0  0
  -20.6908  -32.3972   21.9658 C   0  0  0  0  0  0  0  0  0  0  0  0
  -20.3860  -25.9105   20.6617 C   0  0  0  0  0  0  0  0  0  0  0  0
  -19.7444  -28.2532   20.0546 C   0  0  0  0  0  0  0  0  0  0  0  0
  -19.0420  -27.2985   22.2496 C   0  0  0  0  0  0  0  0  0  0  0  0
  -23.9959  -31.7805   23.7468 C   0  0  0  0  0  0  0  0  0  0  0  0
  -29.7913  -25.8905   19.7299 C   0  0  0  0  0  0  0  0  0  1  0  0
  -31.3928  -24.8401   17.9979 C   0  0  2  0  0  0  0  0  0  0  0  0
  -21.4674  -27.9114   21.8837 C   0  0  1  0  0  0  0  0  0  0  0  0
  -21.7108  -31.5924   22.7561 C   0  0  2  0  0  0  0  0  0  0  0  0
  -20.1873  -27.3360   21.2145 C   0  0  0  0  0  0  0  0  0  0  0  0
  -27.3491  -16.1100   20.8906 N   0  0  0  0  0  0  0  0  0  0  0  0
  -28.6023  -16.5807   21.0090 N   0  0  0  0  0  0  0  0  0  0  0  0
  -23.2613  -26.5248   22.8751 N   0  0  0  0  0  0  0  0  0  0  0  0
  -27.9691  -20.3433   20.8489 N   0  0  0  0  0  0  0  0  0  0  0  0
  -30.8777  -15.9232   20.9782 N   0  0  0  0  0  0  0  0  0  0  0  0
  -28.6643  -12.0497   20.2765 N   0  0  0  0  0  0  0  0  0  0  0  0
  -28.1666  -20.8850   18.5620 N   0  0  0  0  0  0  0  0  0  0  0  0
  -31.2118  -24.1714   16.7280 N   0  0  0  0  0  0  0  0  0  0  0  0
  -23.1504  -23.1870   24.1309 N   0  0  0  0  0  0  0  0  0  0  0  0
  -21.3006  -29.2496   22.4402 N   0  0  0  0  0  0  0  0  0  0  0  0
  -22.9195  -32.4393   22.9630 N   0  3  0  0  0  0  0  0  0  0  0  0
  -30.7422  -12.9900   20.5154 O   0  0  0  0  0  0  0  0  0  0  0  0
  -23.5430  -24.0413   22.0005 O   0  0  0  0  0  0  0  0  0  0  0  0
  -29.5536  -26.2742   17.3704 O   0  0  0  0  0  0  0  0  0  0  0  0
  -21.2357  -26.8385   23.9864 O   0  0  0  0  0  0  0  0  0  0  0  0
  -22.9744  -30.2555   21.1897 O   0  0  0  0  0  0  0  0  0  0  0  0
  -28.3751  -22.5223   20.1922 O   0  0  0  0  0  0  0  0  0  0  0  0
  -23.1366  -11.4210   19.9868 O   0  0  0  0  0  0  0  0  0  0  0  0
  -28.6323  -26.7147   19.8471 O   0  0  0  0  0  0  0  0  0  1  0  0
  -23.1368   -6.6208   22.7001 F   0  0  0  0  0  0  0  0  0  0  0  0
  -29.3419  -20.8056   13.9045 F   0  0  0  0  0  0  0  0  0  0  0  0
  -21.1384  -10.8160   21.7991 F   0  0  0  0  0  0  0  0  0  0  0  0
  -27.9728  -19.7653   16.0167 F   0  0  0  0  0  0  0  0  0  0  0  0
  1  2  1  0  0  0  0
  1  5  2  0  0  0  0
  2  6  2  0  0  0  0
  3  8  2  0  0  0  0
  3 17  1  0  0  0  0
  4  9  1  0  0  0  0
  4 17  2  0  0  0  0
  5 19  1  0  0  0  0
  6 21  1  0  0  0  0
  7 10  2  0  0  0  0
  7 20  1  0  0  0  0
  8 25  1  0  0  0  0
  9 25  2  0  0  0  0
 10 26  1  0  0  0  0
 11 12  2  0  0  0  0
 11 27  1  0  0  0  0
 12 28  1  0  0  0  0
 13 22  1  0  0  0  0
 13 26  2  0  0  0  0
 14 23  2  0  0  0  0
 14 24  1  0  0  0  0
 15 23  1  0  0  0  0
 15 29  2  0  0  0  0
 16 28  2  0  0  0  0
 16 30  1  0  0  0  0
 17 32  1  0  0  0  0
 18 32  1  0  0  0  0
 18 33  2  0  0  0  0
 18 34  1  0  0  0  0
 19 21  2  0  0  0  0
 19 40  1  0  0  0  0
 20 22  2  0  0  0  0
 20 41  1  0  0  0  0
 21 49  1  0  0  0  0
 22 42  1  0  0  0  0
 23 70  1  0  0  0  0
 24 31  2  0  0  0  0
 24 69  1  0  0  0  0
 25 80  1  0  0  0  0
 26 81  1  0  0  0  0
 27 30  2  0  0  0  0
 27 80  1  0  0  0  0
 28 82  1  0  0  0  0
 29 31  1  0  0  0  0
 29 83  1  0  0  0  0
 30 84  1  0  0  0  0
 31 85  1  0  0  0  0
 32 63  2  0  0  0  0
 33 64  1  0  0  0  0
 33 67  1  0  0  0  0
 34 68  1  0  0  0  0
 34 74  2  0  0  0  0
 35 50  1  0  0  0  0
 35 71  1  0  0  0  0
 35 75  2  0  0  0  0
 36 58  1  0  0  0  0
 36 59  1  0  0  0  0
 36 76  2  0  0  0  0
 37 60  1  0  0  0  0
 37 65  1  0  0  0  0
 37 77  2  0  0  0  0
 38 61  1  0  0  0  0
 38 72  1  0  0  0  0
 38 78  2  0  0  0  0
 39 66  1  0  0  0  0
 39 69  1  0  0  0  0
 39 79  2  0  0  0  0
 40 43  1  0  0  0  0
 41 50  1  0  0  0  0
 42 65  1  0  0  0  0
 43 45  1  0  0  0  0
 44 46  1  0  0  0  0
 44 47  1  0  0  0  0
 45 49  1  0  0  0  0
 46 51  1  0  0  0  0
 47 66  1  0  0  0  0
 48 51  1  0  0  0  0
 48 66  1  0  0  0  0
 49 71  1  0  0  0  0
 50 65  1  0  0  0  0
 51 64  1  0  0  0  0
 52 59  1  0  0  0  0
 53 61  1  0  0  0  0
 54 62  1  0  0  0  0
 55 62  1  0  0  0  0
 56 62  1  0  0  0  0
 57 73  1  0  0  0  0
 58 81  1  0  0  0  0
 59 70  1  0  0  0  0
 60 62  1  0  0  0  0
 60 72  1  0  0  0  0
 61 73  1  0  0  0  0
 63 64  1  0  0  0  0
M  CHG  1  73   1
M  ISO  4  39 100  58 101  69 100  81 101
M  END
> <Batch ID>
0181

> <Smiles>
CNC(C)C(=O)NC(C(=O)N1Cc2cc([101O:1][101CH2:1]C(=O)C(C)Nc3cc(F)c(F)c([100NH:0][100C:0](=O)N4CCCC(n5nc(-c6ccc(Oc7ccc(F)cc7F)cc6)c(C(N)=O)c5N)C4)c3)ccc2CC1C(=O)NC1CCCc2ccccc21)C(C)(C)C

> <Shape>
0.250

> <Color>
0.071

> <Negative vol penalty>
0.000

$$$$

  -OEChem-04052304533D

 77 84  0     1  0  0  0  0  0999 V2000
  -28.5847  -29.0133    7.7229 C   0  0  0  0  0  0  0  0  0  0  0  0
  -28.4105  -27.6339    7.6741 C   0  0  0  0  0  0  0  0  0  0  0  0
  -23.3159   -9.7912   19.8511 C   0  0  0  0  0  0  0  0  0  0  0  0
  -23.7519   -9.8541   22.2266 C   0  0  0  0  0  0  0  0  0  0  0  0
  -29.4435  -29.5733    8.6679 C   0  0  0  0  0  0  0  0  0  0  0  0
  -29.0959  -26.8136    8.5695 C   0  0  0  0  0  0  0  0  0  0  0  0
  -28.3759  -20.6746   12.1903 C   0  0  0  0  0  0  0  0  0  0  0  0
  -22.6170   -8.5947   20.0110 C   0  0  0  0  0  0  0  0  0  0  0  0
  -23.0530   -8.6576   22.3866 C   0  0  0  0  0  0  0  0  0  0  0  0
  -29.0431  -19.4708   12.4129 C   0  0  0  0  0  0  0  0  0  0  0  0
  -19.5521   -7.6205   21.0551 C   0  0  0  0  0  0  0  0  0  0  0  0
  -18.3295   -7.4909   20.3963 C   0  0  0  0  0  0  0  0  0  0  0  0
  -30.4396  -20.5552   14.0539 C   0  0  0  0  0  0  0  0  0  0  0  0
  -19.1838   -5.5818   19.1869 C   0  0  0  0  0  0  0  0  0  0  0  0
  -23.8834  -10.4209   20.9589 C   0  0  0  0  0  0  0  0  0  0  0  0
  -24.0826  -12.9620   20.8559 C   0  0  0  0  0  0  0  0  0  0  0  0
  -30.1323  -28.7601    9.5816 C   0  0  0  0  0  0  0  0  0  0  0  0
  -28.7434  -21.8322   12.8911 C   0  0  0  0  0  0  0  0  0  0  0  0
  -29.9657  -27.3631    9.5266 C   0  0  0  0  0  0  0  0  0  0  0  0
  -29.7738  -21.7718   13.8402 C   0  0  0  0  0  0  0  0  0  0  0  0
  -22.4856   -8.0279   21.2787 C   0  0  0  0  0  0  0  0  0  0  0  0
  -30.0770  -19.4116   13.3427 C   0  0  0  0  0  0  0  0  0  0  0  0
  -20.5906   -6.7309   20.7798 C   0  0  0  0  0  0  0  0  0  0  0  0
  -18.1453   -6.4715   19.4622 C   0  0  0  0  0  0  0  0  0  0  0  0
  -20.4064   -5.7115   19.8457 C   0  0  0  0  0  0  0  0  0  0  0  0
  -24.6059  -11.6566   20.7942 C   0  0  0  0  0  0  0  0  0  0  0  0
  -25.1661  -13.7771   20.6362 C   0  0  0  0  0  0  0  0  0  0  0  0
  -22.7373  -13.3989   21.0908 C   0  0  0  0  0  0  0  0  0  0  0  0
  -29.8804  -24.6850   12.0709 C   0  0  0  0  0  0  0  0  0  0  0  0
  -29.4660  -25.3241   15.2240 C   0  0  0  0  0  0  0  0  0  0  0  0
  -29.2036  -24.1333   18.4114 C   0  0  0  0  0  0  0  0  0  0  0  0
  -29.8022  -14.8867   17.5959 C   0  0  0  0  0  0  0  0  0  0  0  0
  -31.0861  -29.4076   10.5541 C   0  0  0  0  0  0  0  0  0  0  0  0
  -27.9961  -23.1167   12.6589 C   0  0  0  0  0  0  0  0  0  0  0  0
  -30.1932  -22.9815   14.6335 C   0  0  0  0  0  0  0  0  0  0  0  0
  -31.4874  -28.4968   11.7116 C   0  0  0  0  0  0  0  0  0  0  0  0
  -30.0999  -12.7540   20.5137 C   0  0  0  0  0  0  0  0  0  0  0  0
  -31.8625  -27.1113   11.1954 C   0  0  0  0  0  0  0  0  0  0  0  0
  -28.6618  -12.3436   20.8161 C   0  0  0  0  0  0  0  0  0  0  0  0
  -30.3226  -12.9237   19.0157 C   0  0  0  0  0  0  0  0  0  0  0  0
  -27.9377  -13.5167   18.6822 C   0  0  0  0  0  0  0  0  0  0  0  0
  -30.6725  -26.4419   10.4972 C   0  0  1  0  0  0  0  0  0  0  0  0
  -28.7958  -24.3536   13.0564 C   0  0  1  0  0  0  0  0  0  0  0  0
  -27.6712  -13.3367   20.1887 C   0  0  1  0  0  0  0  0  0  0  0  0
  -28.9073  -24.8998   20.7825 C   0  0  0  0  0  0  0  0  0  0  0  0
  -30.6518  -16.2590   12.2471 C   0  0  0  0  0  0  0  0  0  0  0  0
  -32.3848  -26.2100   15.2998 C   0  0  0  0  0  0  0  0  0  0  0  0
  -32.2962  -26.0493   17.7967 C   0  0  0  0  0  0  0  0  0  0  0  0
  -30.8192  -27.6641   16.5994 C   0  0  0  0  0  0  0  0  0  0  0  0
  -26.6607  -22.6462   18.6967 C   0  0  0  0  0  0  0  0  0  0  0  0
  -29.9792  -16.2254   14.6643 C   0  0  0  0  0  0  0  0  0  0  0  0
  -30.3179  -25.1898   16.4630 C   0  0  1  0  0  0  0  0  0  0  0  0
  -28.2068  -24.4278   19.5179 C   0  0  2  0  0  0  0  0  0  0  0  0
  -29.9855  -17.0354   13.3740 C   0  0  1  0  0  0  0  0  0  1  0  0
  -31.4482  -26.2558   16.5235 C   0  0  0  0  0  0  0  0  0  0  0  0
  -25.9196  -11.6386   20.5540 N   0  0  0  0  0  0  0  0  0  0  0  0
  -26.2310  -12.9427   20.4627 N   0  0  0  0  0  0  0  0  0  0  0  0
  -29.4363  -24.2156   14.3660 N   0  0  0  0  0  0  0  0  0  0  0  0
  -29.3477  -13.8429   18.4215 N   0  0  0  0  0  0  0  0  0  0  0  0
  -25.3023  -15.1188   20.5764 N   0  0  0  0  0  0  0  0  0  0  0  0
  -21.7465  -12.4294   21.2976 N   0  0  0  0  0  0  0  0  0  0  0  0
  -29.7395  -25.9235   11.4745 N   0  0  0  0  0  0  0  0  0  0  0  0
  -29.3995  -25.2277   17.5959 N   0  0  0  0  0  0  0  0  0  0  0  0
  -28.8176  -15.7601   17.0159 N   0  0  0  0  0  0  0  0  0  0  0  0
  -27.4197  -23.2053   19.8449 N   0  3  0  0  0  0  0  0  0  0  0  0
  -22.4202  -14.6125   21.1002 O   0  0  0  0  0  0  0  0  0  0  0  0
  -30.7795  -23.8775   11.8677 O   0  0  0  0  0  0  0  0  0  0  0  0
  -28.8440  -26.3712   15.0284 O   0  0  0  0  0  0  0  0  0  0  0  0
  -29.7561  -23.0427   18.2856 O   0  0  0  0  0  0  0  0  0  0  0  0
  -30.9973  -15.0576   17.3526 O   0  0  0  0  0  0  0  0  0  0  0  0
  -27.9119  -17.6012   15.4621 O   0  0  0  0  0  0  0  0  0  0  0  0
  -30.1279  -17.9678   16.6111 O   0  0  0  0  0  0  0  0  0  0  0  0
  -21.8035   -6.8605   21.4352 O   0  0  0  0  0  0  0  0  0  0  0  0
  -30.7303  -18.2381   13.5614 O   0  0  0  0  0  0  0  0  0  1  0  0
  -16.9707   -6.3461   18.8308 F   0  0  0  0  0  0  0  0  0  0  0  0
  -21.4000   -4.8531   19.5778 F   0  0  0  0  0  0  0  0  0  0  0  0
  -29.1620  -17.0860   15.9863 S   0  0  0  0  0  0  0  0  0  0  0  0
  1  2  1  0  0  0  0
  1  5  2  0  0  0  0
  2  6  2  0  0  0  0
  3  8  2  0  0  0  0
  3 15  1  0  0  0  0
  4  9  1  0  0  0  0
  4 15  2  0  0  0  0
  5 17  1  0  0  0  0
  6 19  1  0  0  0  0
  7 10  2  0  0  0  0
  7 18  1  0  0  0  0
  8 21  1  0  0  0  0
  9 21  2  0  0  0  0
 10 22  1  0  0  0  0
 11 12  2  0  0  0  0
 11 23  1  0  0  0  0
 12 24  1  0  0  0  0
 13 20  1  0  0  0  0
 13 22  2  0  0  0  0
 14 24  2  0  0  0  0
 14 25  1  0  0  0  0
 15 26  1  0  0  0  0
 16 26  1  0  0  0  0
 16 27  2  0  0  0  0
 16 28  1  0  0  0  0
 17 19  2  0  0  0  0
 17 33  1  0  0  0  0
 18 20  2  0  0  0  0
 18 34  1  0  0  0  0
 19 42  1  0  0  0  0
 20 35  1  0  0  0  0
 21 73  1  0  0  0  0
 22 74  1  0  0  0  0
 23 25  2  0  0  0  0
 23 73  1  0  0  0  0
 24 75  1  0  0  0  0
 25 76  1  0  0  0  0
 26 56  2  0  0  0  0
 27 57  1  0  0  0  0
 27 60  1  0  0  0  0
 28 61  1  0  0  0  0
 28 66  2  0  0  0  0
 29 43  1  0  0  0  0
 29 62  1  0  0  0  0
 29 67  2  0  0  0  0
 30 52  1  0  0  0  0
 30 58  1  0  0  0  0
 30 68  2  0  0  0  0
 31 53  1  0  0  0  0
 31 63  1  0  0  0  0
 31 69  2  0  0  0  0
 32 59  1  0  0  0  0
 32 64  1  0  0  0  0
 32 70  2  0  0  0  0
 33 36  1  0  0  0  0
 34 43  1  0  0  0  0
 35 58  1  0  0  0  0
 36 38  1  0  0  0  0
 37 39  1  0  0  0  0
 37 40  1  0  0  0  0
 38 42  1  0  0  0  0
 39 44  1  0  0  0  0
 40 59  1  0  0  0  0
 41 44  1  0  0  0  0
 41 59  1  0  0  0  0
 42 62  1  0  0  0  0
 43 58  1  0  0  0  0
 44 57  1  0  0  0  0
 45 53  1  0  0  0  0
 46 54  1  0  0  0  0
 47 55  1  0  0  0  0
 48 55  1  0  0  0  0
 49 55  1  0  0  0  0
 50 65  1  0  0  0  0
 51 54  1  0  0  0  0
 51 77  1  0  0  0  0
 52 55  1  0  0  0  0
 52 63  1  0  0  0  0
 53 65  1  0  0  0  0
 54 74  1  0  0  0  0
 56 57  1  0  0  0  0
 64 77  1  0  0  0  0
 71 77  2  0  0  0  0
 72 77  2  0  0  0  0
M  CHG  1  65   1
M  ISO  4  32 100  54 101  64 100  74 101
M  END
> <Batch ID>
0181

> <Smiles>
CNC(C)C(=O)NC(C(=O)N1Cc2cc([101O:1][101CH:1](C)CS(=O)(=O)[100NH:0][100C:0](=O)N3CCCC(n4nc(-c5ccc(Oc6ccc(F)cc6F)cc5)c(C(N)=O)c4N)C3)ccc2CC1C(=O)NC1CCCc2ccccc21)C(C)(C)C

> <Shape>
0.152

> <Color>
0.182

> <Negative vol penalty>
0.000

$$$$

  -OEChem-04052304533D

 86 94  0     1  0  0  0  0  0999 V2000
  -20.9301  -16.0941   16.8797 C   0  0  0  0  0  0  0  0  0  0  0  0
  -21.5104  -17.0870   17.6625 C   0  0  0  0  0  0  0  0  0  0  0  0
  -23.0753   -9.8659   19.9422 C   0  0  0  0  0  0  0  0  0  0  0  0
  -23.8351   -9.8757   22.2356 C   0  0  0  0  0  0  0  0  0  0  0  0
  -19.6207  -15.6862   17.1308 C   0  0  0  0  0  0  0  0  0  0  0  0
  -20.7811  -17.6734   18.6963 C   0  0  0  0  0  0  0  0  0  0  0  0
  -23.4770  -18.1314   22.9586 C   0  0  0  0  0  0  0  0  0  0  0  0
  -22.3318   -8.7128   20.1933 C   0  0  0  0  0  0  0  0  0  0  0  0
  -23.0915   -8.7225   22.4868 C   0  0  0  0  0  0  0  0  0  0  0  0
  -24.3951  -19.1787   23.0219 C   0  0  0  0  0  0  0  0  0  0  0  0
  -19.8636   -7.9244   23.0899 C   0  0  0  0  0  0  0  0  0  0  0  0
  -19.1065   -7.8855   24.2608 C   0  0  0  0  0  0  0  0  0  0  0  0
  -22.8221  -20.4714   24.3156 C   0  0  0  0  0  0  0  0  0  0  0  0
  -20.3485   -5.9492   24.9994 C   0  0  0  0  0  0  0  0  0  0  0  0
  -23.8270  -10.4474   20.9633 C   0  0  0  0  0  0  0  0  0  0  0  0
  -24.1681  -12.9725   20.8405 C   0  0  0  0  0  0  0  0  0  0  0  0
  -18.8784  -16.2611   18.1744 C   0  0  0  0  0  0  0  0  0  0  0  0
  -22.2183  -18.2507   23.5651 C   0  0  0  0  0  0  0  0  0  0  0  0
  -19.4601  -17.2738   18.9608 C   0  0  0  0  0  0  0  0  0  0  0  0
  -21.8908  -19.4232   24.2608 C   0  0  0  0  0  0  0  0  0  0  0  0
  -22.3399   -8.1411   21.4656 C   0  0  0  0  0  0  0  0  0  0  0  0
  -24.0667  -20.3500   23.6980 C   0  0  0  0  0  0  0  0  0  0  0  0
  -20.8630   -6.9756   22.8737 C   0  0  0  0  0  0  0  0  0  0  0  0
  -19.3490   -6.8979   25.2156 C   0  0  0  0  0  0  0  0  0  0  0  0
  -21.1055   -5.9881   23.8285 C   0  0  0  0  0  0  0  0  0  0  0  0
  -24.5958  -11.6382   20.7043 C   0  0  0  0  0  0  0  0  0  0  0  0
  -30.7065  -19.0984   22.9836 C   0  0  0  0  0  0  0  0  0  0  0  0
  -31.8085  -18.7296   22.2409 C   0  0  0  0  0  0  0  0  0  0  0  0
  -25.2600  -13.7219   20.4765 C   0  0  0  0  0  0  0  0  0  0  0  0
  -30.5706  -16.9516   21.8994 C   0  0  0  0  0  0  0  0  0  0  0  0
  -22.8974  -13.4883   21.2588 C   0  0  0  0  0  0  0  0  0  0  0  0
  -30.4376  -20.3268   23.7747 C   0  0  0  0  0  0  0  0  0  0  0  0
  -19.2149  -18.2175   22.5248 C   0  0  0  0  0  0  0  0  0  0  0  0
  -27.1608  -22.0570   24.5049 C   0  0  0  0  0  0  0  0  0  0  0  0
  -18.5272  -18.3003   25.6938 C   0  0  0  0  0  0  0  0  0  0  0  0
  -19.5243  -19.1142   28.8545 C   0  0  0  0  0  0  0  0  0  0  0  0
  -30.7259  -14.7693   20.6506 C   0  0  0  0  0  0  0  0  0  0  0  0
  -17.4502  -15.8208   18.3776 C   0  0  0  0  0  0  0  0  0  0  0  0
  -21.2493  -17.1015   23.5106 C   0  0  0  0  0  0  0  0  0  0  0  0
  -20.5604  -19.5935   24.9461 C   0  0  0  0  0  0  0  0  0  0  0  0
  -16.8739  -16.2284   19.7310 C   0  0  0  0  0  0  0  0  0  0  0  0
  -29.6124  -12.3527   18.2847 C   0  0  0  0  0  0  0  0  0  0  0  0
  -17.1952  -17.6893   20.0300 C   0  0  0  0  0  0  0  0  0  0  0  0
  -28.1728  -12.0612   18.7145 C   0  0  0  0  0  0  0  0  0  0  0  0
  -30.5273  -12.5830   19.4862 C   0  0  0  0  0  0  0  0  0  0  0  0
  -28.6201  -13.3083   20.8666 C   0  0  0  0  0  0  0  0  0  0  0  0
  -18.7098  -17.9164   20.1071 C   0  0  1  0  0  0  0  0  0  0  0  0
  -19.8011  -17.5304   23.7256 C   0  0  1  0  0  0  0  0  0  0  0  0
  -27.6474  -13.1336   19.6889 C   0  0  2  0  0  0  0  0  0  0  0  0
  -18.7315  -19.0996   31.2354 C   0  0  0  0  0  0  0  0  0  0  0  0
  -29.0803  -21.7638   26.0535 C   0  0  0  0  0  0  0  0  0  0  0  0
  -29.3594  -23.1185   23.9522 C   0  0  0  0  0  0  0  0  0  0  0  0
  -16.7727  -20.7303   25.1219 C   0  0  0  0  0  0  0  0  0  0  0  0
  -16.7855  -21.2298   27.5752 C   0  0  0  0  0  0  0  0  0  0  0  0
  -15.7954  -19.0964   26.7437 C   0  0  0  0  0  0  0  0  0  0  0  0
  -21.7073  -17.2998   29.6922 C   0  0  0  0  0  0  0  0  0  0  0  0
  -26.3454  -21.0296   23.7386 C   0  0  0  0  0  0  0  0  0  1  0  0
  -18.3060  -19.3932   26.7116 C   0  0  1  0  0  0  0  0  0  0  0  0
  -19.4818  -18.3345   30.1563 C   0  0  2  0  0  0  0  0  0  0  0  0
  -28.6895  -21.8935   24.5782 C   0  0  0  0  0  0  0  0  0  0  0  0
  -16.9393  -20.1103   26.5236 C   0  0  0  0  0  0  0  0  0  0  0  0
  -25.8607  -11.5423   20.2862 N   0  0  0  0  0  0  0  0  0  0  0  0
  -31.7325  -17.4987   21.6188 N   0  0  0  0  0  0  0  0  0  0  0  0
  -26.2372  -12.8259   20.1565 N   0  0  0  0  0  0  0  0  0  0  0  0
  -19.6445  -18.4441   24.8591 N   0  0  0  0  0  0  0  0  0  0  0  0
  -29.9680  -13.6146   20.3625 N   0  0  0  0  0  0  0  0  0  0  0  0
  -32.9165  -19.4964   22.1022 N   0  0  0  0  0  0  0  0  0  0  0  0
  -25.4700  -15.0534   20.4021 N   0  0  0  0  0  0  0  0  0  0  0  0
  -21.8857  -12.5792   21.5970 N   0  0  0  0  0  0  0  0  0  0  0  0
  -30.0782  -15.6950   21.4680 N   0  0  0  0  0  0  0  0  0  0  0  0
  -29.1089  -20.7070   23.8640 N   0  0  0  0  0  0  0  0  0  0  0  0
  -19.2268  -17.4499   21.3758 N   0  0  0  0  0  0  0  0  0  0  0  0
  -18.4805  -18.7732   28.0206 N   0  0  0  0  0  0  0  0  0  0  0  0
  -20.8640  -18.0665   30.6450 N   0  3  0  0  0  0  0  0  0  0  0  0
  -22.6607  -14.7190   21.3148 O   0  0  0  0  0  0  0  0  0  0  0  0
  -31.3791  -20.9356   24.2762 O   0  0  0  0  0  0  0  0  0  0  0  0
  -18.7823  -19.3589   22.6331 O   0  0  0  0  0  0  0  0  0  0  0  0
  -26.6016  -22.9816   25.1024 O   0  0  0  0  0  0  0  0  0  0  0  0
  -17.7416  -17.3505   25.6461 O   0  0  0  0  0  0  0  0  0  0  0  0
  -20.3943  -19.9455   28.6041 O   0  0  0  0  0  0  0  0  0  0  0  0
  -31.8550  -14.9379   20.1829 O   0  0  0  0  0  0  0  0  0  0  0  0
  -21.6143   -7.0161   21.7111 O   0  0  0  0  0  0  0  0  0  0  0  0
  -24.9607  -21.3740   23.7607 O   0  0  0  0  0  0  0  0  0  1  0  0
  -18.6230   -6.8616   26.3406 F   0  0  0  0  0  0  0  0  0  0  0  0
  -22.0651   -5.0747   23.6270 F   0  0  0  0  0  0  0  0  0  0  0  0
  -29.5202  -17.8623   22.9055 S   0  0  0  0  0  0  0  0  0  0  0  0
  1  2  1  0  0  0  0
  1  5  2  0  0  0  0
  2  6  2  0  0  0  0
  3  8  2  0  0  0  0
  3 15  1  0  0  0  0
  4  9  1  0  0  0  0
  4 15  2  0  0  0  0
  5 17  1  0  0  0  0
  6 19  1  0  0  0  0
  7 10  2  0  0  0  0
  7 18  1  0  0  0  0
  8 21  1  0  0  0  0
  9 21  2  0  0  0  0
 10 22  1  0  0  0  0
 11 12  2  0  0  0  0
 11 23  1  0  0  0  0
 12 24  1  0  0  0  0
 13 20  1  0  0  0  0
 13 22  2  0  0  0  0
 14 24  2  0  0  0  0
 14 25  1  0  0  0  0
 15 26  1  0  0  0  0
 16 26  1  0  0  0  0
 16 29  2  0  0  0  0
 16 31  1  0  0  0  0
 17 19  2  0  0  0  0
 17 38  1  0  0  0  0
 18 20  2  0  0  0  0
 18 39  1  0  0  0  0
 19 47  1  0  0  0  0
 20 40  1  0  0  0  0
 21 82  1  0  0  0  0
 22 83  1  0  0  0  0
 23 25  2  0  0  0  0
 23 82  1  0  0  0  0
 24 84  1  0  0  0  0
 25 85  1  0  0  0  0
 26 62  2  0  0  0  0
 27 28  2  0  0  0  0
 27 32  1  0  0  0  0
 27 86  1  0  0  0  0
 28 63  1  0  0  0  0
 28 67  1  0  0  0  0
 29 64  1  0  0  0  0
 29 68  1  0  0  0  0
 30 63  2  0  0  0  0
 30 70  1  0  0  0  0
 30 86  1  0  0  0  0
 31 69  1  0  0  0  0
 31 75  2  0  0  0  0
 32 71  1  0  0  0  0
 32 76  2  0  0  0  0
 33 48  1  0  0  0  0
 33 72  1  0  0  0  0
 33 77  2  0  0  0  0
 34 57  1  0  0  0  0
 34 60  1  0  0  0  0
 34 78  2  0  0  0  0
 35 58  1  0  0  0  0
 35 65  1  0  0  0  0
 35 79  2  0  0  0  0
 36 59  1  0  0  0  0
 36 73  1  0  0  0  0
 36 80  2  0  0  0  0
 37 66  1  0  0  0  0
 37 70  1  0  0  0  0
 37 81  2  0  0  0  0
 38 41  1  0  0  0  0
 39 48  1  0  0  0  0
 40 65  1  0  0  0  0
 41 43  1  0  0  0  0
 42 44  1  0  0  0  0
 42 45  1  0  0  0  0
 43 47  1  0  0  0  0
 44 49  1  0  0  0  0
 45 66  1  0  0  0  0
 46 49  1  0  0  0  0
 46 66  1  0  0  0  0
 47 72  1  0  0  0  0
 48 65  1  0  0  0  0
 49 64  1  0  0  0  0
 50 59  1  0  0  0  0
 51 60  1  0  0  0  0
 52 60  1  0  0  0  0
 53 61  1  0  0  0  0
 54 61  1  0  0  0  0
 55 61  1  0  0  0  0
 56 74  1  0  0  0  0
 57 83  1  0  0  0  0
 58 61  1  0  0  0  0
 58 73  1  0  0  0  0
 59 74  1  0  0  0  0
 60 71  1  0  0  0  0
 62 64  1  0  0  0  0
M  CHG  1  74   1
M  ISO  4  37 100  57 101  70 100  83 101
M  END
> <Batch ID>
0181

> <Smiles>
CNC(C)C(=O)NC(C(=O)N1Cc2cc([101O:1][101CH2:1]C(=O)C(C)(C)NC(=O)c3sc([100NH:0][100C:0](=O)N4CCCC(n5nc(-c6ccc(Oc7ccc(F)cc7F)cc6)c(C(N)=O)c5N)C4)nc3N)ccc2CC1C(=O)NC1CCCc2ccccc21)C(C)(C)C

> <Shape>
0.167

> <Color>
0.173

> <Negative vol penalty>
0.000

$$$$

  -OEChem-04052304533D

 85 93  0     1  0  0  0  0  0999 V2000
  -17.2459  -30.4059   24.7516 C   0  0  0  0  0  0  0  0  0  0  0  0
  -18.5359  -30.6264   25.2235 C   0  0  0  0  0  0  0  0  0  0  0  0
  -27.4751  -11.4518   20.6983 C   0  0  0  0  0  0  0  0  0  0  0  0
  -26.8046  -12.7977   18.8073 C   0  0  0  0  0  0  0  0  0  0  0  0
  -17.0293  -29.4970   23.7168 C   0  0  0  0  0  0  0  0  0  0  0  0
  -19.6100  -29.9372   24.6615 C   0  0  0  0  0  0  0  0  0  0  0  0
  -26.5616  -30.7294   23.1237 C   0  0  0  0  0  0  0  0  0  0  0  0
  -26.4767  -10.5265   20.3939 C   0  0  0  0  0  0  0  0  0  0  0  0
  -25.8062  -11.8724   18.5028 C   0  0  0  0  0  0  0  0  0  0  0  0
  -27.7872  -30.0942   23.3195 C   0  0  0  0  0  0  0  0  0  0  0  0
  -23.8706   -7.9914   20.3252 C   0  0  0  0  0  0  0  0  0  0  0  0
  -23.0890   -7.5093   21.3751 C   0  0  0  0  0  0  0  0  0  0  0  0
  -27.3028  -28.6069   21.4830 C   0  0  0  0  0  0  0  0  0  0  0  0
  -22.3507   -9.7585   21.8582 C   0  0  0  0  0  0  0  0  0  0  0  0
  -27.1788  -22.2325   18.3699 C   0  0  0  0  0  0  0  0  0  0  0  0
  -27.6391  -12.5874   19.9050 C   0  0  0  0  0  0  0  0  0  0  0  0
  -29.9974  -13.5476   19.7511 C   0  0  0  0  0  0  0  0  0  0  0  0
  -18.1024  -28.8035   23.1353 C   0  0  0  0  0  0  0  0  0  0  0  0
  -25.6912  -30.3002   22.1115 C   0  0  0  0  0  0  0  0  0  0  0  0
  -19.4074  -29.0172   23.6188 C   0  0  0  0  0  0  0  0  0  0  0  0
  -26.0679  -29.2399   21.2749 C   0  0  0  0  0  0  0  0  0  0  0  0
  -25.6423  -10.7368   19.2961 C   0  0  0  0  0  0  0  0  0  0  0  0
  -28.1567  -29.0310   22.5009 C   0  0  0  0  0  0  0  0  0  0  0  0
  -23.8923   -9.3571   20.0418 C   0  0  0  0  0  0  0  0  0  0  0  0
  -22.3291   -8.3928   22.1416 C   0  0  0  0  0  0  0  0  0  0  0  0
  -23.1323  -10.2406   20.8083 C   0  0  0  0  0  0  0  0  0  0  0  0
  -27.3973  -21.0333   19.0168 C   0  0  0  0  0  0  0  0  0  0  0  0
  -28.6698  -13.5438   20.2194 C   0  0  0  0  0  0  0  0  0  0  0  0
  -27.7304  -21.1276   20.3526 C   0  0  0  0  0  0  0  0  0  0  0  0
  -30.5647  -14.6534   20.3358 C   0  0  0  0  0  0  0  0  0  0  0  0
  -27.6064  -23.3960   20.2753 C   0  0  0  0  0  0  0  0  0  0  0  0
  -30.6587  -12.6333   18.8665 C   0  0  0  0  0  0  0  0  0  0  0  0
  -22.7484  -29.1006   22.0430 C   0  0  0  0  0  0  0  0  0  0  0  0
  -23.1270  -29.3839   18.8338 C   0  0  0  0  0  0  0  0  0  0  0  0
  -28.0422  -24.8656   22.2693 C   0  0  0  0  0  0  0  0  0  0  0  0
  -25.2559  -29.5736   16.1732 C   0  0  0  0  0  0  0  0  0  0  0  0
  -28.3106  -19.7861   22.4045 C   0  0  0  0  0  0  0  0  0  0  0  0
  -17.8133  -27.7959   22.0510 C   0  0  0  0  0  0  0  0  0  0  0  0
  -24.3844  -31.0132   21.8961 C   0  0  0  0  0  0  0  0  0  0  0  0
  -25.1783  -28.7541   20.1609 C   0  0  0  0  0  0  0  0  0  0  0  0
  -19.0501  -27.3843   21.2565 C   0  0  0  0  0  0  0  0  0  0  0  0
  -30.2321  -17.4130   24.2356 C   0  0  0  0  0  0  0  0  0  0  0  0
  -20.2096  -27.0726   22.1973 C   0  0  0  0  0  0  0  0  0  0  0  0
  -30.1754  -16.1536   23.3679 C   0  0  0  0  0  0  0  0  0  0  0  0
  -28.9129  -18.1827   24.2049 C   0  0  0  0  0  0  0  0  0  0  0  0
  -28.3576  -17.2474   21.9944 C   0  0  0  0  0  0  0  0  0  0  0  0
  -20.6012  -28.3072   23.0182 C   0  0  1  0  0  0  0  0  0  0  0  0
  -23.3518  -30.1604   21.1653 C   0  0  1  0  0  0  0  0  0  0  0  0
  -29.6849  -16.4732   21.9421 C   0  0  2  0  0  0  0  0  0  0  0  0
  -25.2697  -29.7620   13.6709 C   0  0  0  0  0  0  0  0  0  0  0  0
  -22.3682  -26.4370   18.6101 C   0  0  0  0  0  0  0  0  0  0  0  0
  -23.3055  -26.4437   16.2886 C   0  0  0  0  0  0  0  0  0  0  0  0
  -21.3668  -27.9084   16.8532 C   0  0  0  0  0  0  0  0  0  0  0  0
  -29.8499  -26.9318   20.8814 C   0  0  0  0  0  0  0  0  0  0  0  0
  -30.4984  -26.3861   23.2365 C   0  0  0  0  0  0  0  0  0  0  0  0
  -26.7064  -32.1519   16.2594 C   0  0  0  0  0  0  0  0  0  0  0  0
  -28.0671  -26.3502   22.6093 C   0  0  0  0  0  0  0  0  0  0  0  0
  -23.6617  -28.4941   17.7377 C   0  0  1  0  0  0  0  0  0  0  0  0
  -25.3052  -30.5211   14.9882 C   0  0  2  0  0  0  0  0  0  0  0  0
  -22.6917  -27.3284   17.3945 C   0  0  0  0  0  0  0  0  0  0  0  0
  -29.4258  -27.0255   22.3479 C   0  0  0  0  0  0  0  0  0  1  0  0
  -27.2751  -23.4367   18.9707 N   0  0  0  0  0  0  0  0  0  0  0  0
  -28.4092  -14.5660   21.0386 N   0  0  0  0  0  0  0  0  0  0  0  0
  -27.8444  -22.2968   21.0161 N   0  0  0  0  0  0  0  0  0  0  0  0
  -29.5808  -15.2224   21.0898 N   0  0  0  0  0  0  0  0  0  0  0  0
  -23.9080  -29.4794   19.9943 N   0  0  0  0  0  0  0  0  0  0  0  0
  -28.5130  -18.4537   22.8223 N   0  0  0  0  0  0  0  0  0  0  0  0
  -31.8041  -15.1847   20.2736 N   0  0  0  0  0  0  0  0  0  0  0  0
  -29.9287  -11.5512   18.3561 N   0  0  0  0  0  0  0  0  0  0  0  0
  -27.9647  -19.9227   21.0605 N   0  0  0  0  0  0  0  0  0  0  0  0
  -27.7165  -24.6408   20.9385 N   0  0  0  0  0  0  0  0  0  0  0  0
  -21.3826  -29.2220   22.2137 N   0  0  0  0  0  0  0  0  0  0  0  0
  -23.9644  -29.3707   16.6115 N   0  0  0  0  0  0  0  0  0  0  0  0
  -26.5526  -31.3355   15.0278 N   0  3  0  0  0  0  0  0  0  0  0  0
  -31.8660  -12.7627   18.5513 O   0  0  0  0  0  0  0  0  0  0  0  0
  -23.4685  -28.2358   22.5281 O   0  0  0  0  0  0  0  0  0  0  0  0
  -22.0595  -29.9780   18.6636 O   0  0  0  0  0  0  0  0  0  0  0  0
  -28.2982  -24.0283   23.1305 O   0  0  0  0  0  0  0  0  0  0  0  0
  -26.2620  -29.0615   16.6589 O   0  0  0  0  0  0  0  0  0  0  0  0
  -28.4614  -20.7378   23.1749 O   0  0  0  0  0  0  0  0  0  0  0  0
  -24.6681   -9.8340   18.9986 O   0  0  0  0  0  0  0  0  0  0  0  0
  -29.3521  -28.4088   22.6903 O   0  0  0  0  0  0  0  0  0  1  0  0
  -21.5774   -7.9296   23.1488 F   0  0  0  0  0  0  0  0  0  0  0  0
  -23.1481  -11.5534   20.5400 F   0  0  0  0  0  0  0  0  0  0  0  0
  -27.2897  -19.8635   18.3779 F   0  0  0  0  0  0  0  0  0  0  0  0
  1  2  1  0  0  0  0
  1  5  2  0  0  0  0
  2  6  2  0  0  0  0
  3  8  2  0  0  0  0
  3 16  1  0  0  0  0
  4  9  1  0  0  0  0
  4 16  2  0  0  0  0
  5 18  1  0  0  0  0
  6 20  1  0  0  0  0
  7 10  2  0  0  0  0
  7 19  1  0  0  0  0
  8 22  1  0  0  0  0
  9 22  2  0  0  0  0
 10 23  1  0  0  0  0
 11 12  2  0  0  0  0
 11 24  1  0  0  0  0
 12 25  1  0  0  0  0
 13 21  1  0  0  0  0
 13 23  2  0  0  0  0
 14 25  2  0  0  0  0
 14 26  1  0  0  0  0
 15 27  1  0  0  0  0
 15 62  2  0  0  0  0
 16 28  1  0  0  0  0
 17 28  1  0  0  0  0
 17 30  2  0  0  0  0
 17 32  1  0  0  0  0
 18 20  2  0  0  0  0
 18 38  1  0  0  0  0
 19 21  2  0  0  0  0
 19 39  1  0  0  0  0
 20 47  1  0  0  0  0
 21 40  1  0  0  0  0
 22 81  1  0  0  0  0
 23 82  1  0  0  0  0
 24 26  2  0  0  0  0
 24 81  1  0  0  0  0
 25 83  1  0  0  0  0
 26 84  1  0  0  0  0
 27 29  2  0  0  0  0
 27 85  1  0  0  0  0
 28 63  2  0  0  0  0
 29 64  1  0  0  0  0
 29 70  1  0  0  0  0
 30 65  1  0  0  0  0
 30 68  1  0  0  0  0
 31 62  1  0  0  0  0
 31 64  2  0  0  0  0
 31 71  1  0  0  0  0
 32 69  1  0  0  0  0
 32 75  2  0  0  0  0
 33 48  1  0  0  0  0
 33 72  1  0  0  0  0
 33 76  2  0  0  0  0
 34 58  1  0  0  0  0
 34 66  1  0  0  0  0
 34 77  2  0  0  0  0
 35 57  1  0  0  0  0
 35 71  1  0  0  0  0
 35 78  2  0  0  0  0
 36 59  1  0  0  0  0
 36 73  1  0  0  0  0
 36 79  2  0  0  0  0
 37 67  1  0  0  0  0
 37 70  1  0  0  0  0
 37 80  2  0  0  0  0
 38 41  1  0  0  0  0
 39 48  1  0  0  0  0
 40 66  1  0  0  0  0
 41 43  1  0  0  0  0
 42 44  1  0  0  0  0
 42 45  1  0  0  0  0
 43 47  1  0  0  0  0
 44 49  1  0  0  0  0
 45 67  1  0  0  0  0
 46 49  1  0  0  0  0
 46 67  1  0  0  0  0
 47 72  1  0  0  0  0
 48 66  1  0  0  0  0
 49 65  1  0  0  0  0
 50 59  1  0  0  0  0
 51 60  1  0  0  0  0
 52 60  1  0  0  0  0
 53 60  1  0  0  0  0
 54 61  1  0  0  0  0
 55 61  1  0  0  0  0
 56 74  1  0  0  0  0
 57 61  1  0  0  0  0
 58 60  1  0  0  0  0
 58 73  1  0  0  0  0
 59 74  1  0  0  0  0
 61 82  1  0  0  0  0
 63 65  1  0  0  0  0
M  CHG  1  74   1
M  ISO  4  37 100  61 101  70 100  82 101
M  END
> <Batch ID>
0181

> <Smiles>
CNC(C)C(=O)NC(C(=O)N1Cc2cc([101O:1][101C:1](C)(C)CC(=O)Nc3ncc(F)c([100NH:0][100C:0](=O)N4CCCC(n5nc(-c6ccc(Oc7ccc(F)cc7F)cc6)c(C(N)=O)c5N)C4)n3)ccc2CC1C(=O)NC1CCCc2ccccc21)C(C)(C)C

> <Shape>
0.300

> <Color>
0.097

> <Negative vol penalty>
0.000

$$$$

  -OEChem-04052304533D

 87 95  0     1  0  0  0  0  0999 V2000
  -17.3156  -28.0599   23.8370 C   0  0  0  0  0  0  0  0  0  0  0  0
  -17.6144  -26.8580   23.2032 C   0  0  0  0  0  0  0  0  0  0  0  0
  -26.4663  -12.7555   21.6599 C   0  0  0  0  0  0  0  0  0  0  0  0
  -26.0795  -13.8127   19.5222 C   0  0  0  0  0  0  0  0  0  0  0  0
  -18.2314  -29.1106   23.8037 C   0  0  0  0  0  0  0  0  0  0  0  0
  -18.8288  -26.7066   22.5348 C   0  0  0  0  0  0  0  0  0  0  0  0
  -23.7628  -21.7531   20.9745 C   0  0  0  0  0  0  0  0  0  0  0  0
  -25.2129  -12.1480   21.5863 C   0  0  0  0  0  0  0  0  0  0  0  0
  -24.8261  -13.2052   19.4485 C   0  0  0  0  0  0  0  0  0  0  0  0
  -24.4499  -21.2237   19.8829 C   0  0  0  0  0  0  0  0  0  0  0  0
  -23.8186   -9.4954   20.0204 C   0  0  0  0  0  0  0  0  0  0  0  0
  -23.7330   -8.1434   20.3525 C   0  0  0  0  0  0  0  0  0  0  0  0
  -25.9886  -23.0800   19.9588 C   0  0  0  0  0  0  0  0  0  0  0  0
  -29.1503  -21.2890   17.8487 C   0  0  0  0  0  0  0  0  0  0  0  0
  -22.1786   -8.6769   22.1235 C   0  0  0  0  0  0  0  0  0  0  0  0
  -26.8996  -13.5880   20.6278 C   0  0  0  0  0  0  0  0  0  0  0  0
  -29.4166  -13.7043   20.2290 C   0  0  0  0  0  0  0  0  0  0  0  0
  -19.4617  -28.9687   23.1428 C   0  0  0  0  0  0  0  0  0  0  0  0
  -24.1777  -22.9576   21.5605 C   0  0  0  0  0  0  0  0  0  0  0  0
  -19.7613  -27.7569   22.4915 C   0  0  0  0  0  0  0  0  0  0  0  0
  -25.3067  -23.6212   21.0593 C   0  0  0  0  0  0  0  0  0  0  0  0
  -29.2289  -22.3031   16.9007 C   0  0  0  0  0  0  0  0  0  0  0  0
  -24.3928  -12.3728   20.4806 C   0  0  0  0  0  0  0  0  0  0  0  0
  -25.5612  -21.8886   19.3731 C   0  0  0  0  0  0  0  0  0  0  0  0
  -23.0843  -10.4382   20.7398 C   0  0  0  0  0  0  0  0  0  0  0  0
  -22.9130   -7.7341   21.4041 C   0  0  0  0  0  0  0  0  0  0  0  0
  -22.2643  -10.0289   21.7914 C   0  0  0  0  0  0  0  0  0  0  0  0
  -29.7571  -23.5394   17.2555 C   0  0  0  0  0  0  0  0  0  0  0  0
  -28.1941  -14.2162   20.7035 C   0  0  0  0  0  0  0  0  0  0  0  0
  -29.6096  -21.5597   19.1276 C   0  0  0  0  0  0  0  0  0  0  0  0
  -30.1891  -23.7094   18.5610 C   0  0  0  0  0  0  0  0  0  0  0  0
  -30.3387  -14.6734   20.5404 C   0  0  0  0  0  0  0  0  0  0  0  0
  -29.6938  -12.4637   19.5658 C   0  0  0  0  0  0  0  0  0  0  0  0
  -22.8664  -25.8251   21.9627 C   0  0  0  0  0  0  0  0  0  0  0  0
  -25.5501  -26.3786   23.6986 C   0  0  0  0  0  0  0  0  0  0  0  0
  -26.1956  -22.1464   15.4888 C   0  0  0  0  0  0  0  0  0  0  0  0
  -28.8063  -25.5781   24.3336 C   0  0  0  0  0  0  0  0  0  0  0  0
  -29.9253  -20.5689   21.4222 C   0  0  0  0  0  0  0  0  0  0  0  0
  -20.3997  -30.1488   23.0935 C   0  0  0  0  0  0  0  0  0  0  0  0
  -23.4418  -23.5017   22.7542 C   0  0  0  0  0  0  0  0  0  0  0  0
  -25.8049  -24.9070   21.6652 C   0  0  0  0  0  0  0  0  0  0  0  0
  -21.8227  -29.7791   22.6828 C   0  0  0  0  0  0  0  0  0  0  0  0
  -31.1838  -18.1556   23.7177 C   0  0  0  0  0  0  0  0  0  0  0  0
  -21.8052  -28.8597   21.4657 C   0  0  0  0  0  0  0  0  0  0  0  0
  -30.6763  -16.8244   23.1587 C   0  0  0  0  0  0  0  0  0  0  0  0
  -30.1618  -19.2756   23.5308 C   0  0  0  0  0  0  0  0  0  0  0  0
  -29.1671  -18.1174   21.5974 C   0  0  0  0  0  0  0  0  0  0  0  0
  -21.0786  -27.5457   21.7773 C   0  0  1  0  0  0  0  0  0  0  0  0
  -23.6449  -25.0011   22.9489 C   0  0  1  0  0  0  0  0  0  0  0  0
  -30.1885  -16.9732   21.7042 C   0  0  2  0  0  0  0  0  0  0  0  0
  -25.3536  -19.8470   14.9910 C   0  0  0  0  0  0  0  0  0  0  0  0
  -30.7485  -26.2299   25.7829 C   0  0  0  0  0  0  0  0  0  0  0  0
  -26.0099  -28.8487   21.9674 C   0  0  0  0  0  0  0  0  0  0  0  0
  -28.3720  -28.9036   22.7954 C   0  0  0  0  0  0  0  0  0  0  0  0
  -26.4827  -29.1777   24.4010 C   0  0  0  0  0  0  0  0  0  0  0  0
  -27.5464  -24.0700   14.7465 C   0  0  0  0  0  0  0  0  0  0  0  0
  -28.9328  -22.8930   25.5718 C   0  0  0  0  0  0  0  0  0  0  0  0
  -28.7448  -22.0600   15.5005 C   0  0  0  0  0  0  0  0  0  0  0  0
  -25.4770  -20.6073   17.3713 C   0  0  0  0  0  0  0  0  0  1  0  0
  -26.9321  -26.9033   23.3925 C   0  0  1  0  0  0  0  0  0  0  0  0
  -26.1399  -20.6959   15.9899 C   0  0  2  0  0  0  0  0  0  0  0  0
  -29.5435  -25.3141   25.6341 C   0  0  2  0  0  0  0  0  0  0  0  0
  -26.9389  -28.4351   23.1262 C   0  0  0  0  0  0  0  0  0  0  0  0
  -28.3244  -15.4172   21.2733 N   0  0  0  0  0  0  0  0  0  0  0  0
  -30.1289  -22.7480   19.5096 N   0  0  0  0  0  0  0  0  0  0  0  0
  -29.6398  -15.6680   21.1589 N   0  0  0  0  0  0  0  0  0  0  0  0
  -25.0479  -25.4020   22.8269 N   0  0  0  0  0  0  0  0  0  0  0  0
  -29.7490  -19.3601   22.1283 N   0  0  0  0  0  0  0  0  0  0  0  0
  -30.7260  -24.9732   18.9102 N   0  0  0  0  0  0  0  0  0  0  0  0
  -31.6711  -14.7633   20.3429 N   0  0  0  0  0  0  0  0  0  0  0  0
  -28.6305  -11.5834   19.3237 N   0  0  0  0  0  0  0  0  0  0  0  0
  -29.5263  -20.5202   20.0869 N   0  0  0  0  0  0  0  0  0  0  0  0
  -21.9342  -26.6643   22.5425 N   0  0  0  0  0  0  0  0  0  0  0  0
  -27.7823  -26.4859   24.5022 N   0  0  0  0  0  0  0  0  0  0  0  0
  -27.4566  -22.7029   15.2478 N   0  0  0  0  0  0  0  0  0  0  0  0
  -30.0174  -23.9021   25.6835 N   0  3  0  0  0  0  0  0  0  0  0  0
  -30.8528  -12.1381   19.2135 O   0  0  0  0  0  0  0  0  0  0  0  0
  -23.0955  -25.7092   20.7644 O   0  0  0  0  0  0  0  0  0  0  0  0
  -24.9415  -26.8138   24.6794 O   0  0  0  0  0  0  0  0  0  0  0  0
  -25.1444  -22.7664   15.2944 O   0  0  0  0  0  0  0  0  0  0  0  0
  -29.1109  -25.0362   23.2734 O   0  0  0  0  0  0  0  0  0  0  0  0
  -30.4209  -21.5652   21.9548 O   0  0  0  0  0  0  0  0  0  0  0  0
  -23.1697  -11.7800   20.4083 O   0  0  0  0  0  0  0  0  0  0  0  0
  -26.2332  -21.3744   18.3074 O   0  0  0  0  0  0  0  0  0  1  0  0
  -22.8297   -6.4356   21.7220 F   0  0  0  0  0  0  0  0  0  0  0  0
  -21.5555  -10.9299   22.4854 F   0  0  0  0  0  0  0  0  0  0  0  0
  -29.8432  -24.5310   16.3583 F   0  0  0  0  0  0  0  0  0  0  0  0
  1  2  1  0  0  0  0
  1  5  2  0  0  0  0
  2  6  2  0  0  0  0
  3  8  2  0  0  0  0
  3 16  1  0  0  0  0
  4  9  1  0  0  0  0
  4 16  2  0  0  0  0
  5 18  1  0  0  0  0
  6 20  1  0  0  0  0
  7 10  2  0  0  0  0
  7 19  1  0  0  0  0
  8 23  1  0  0  0  0
  9 23  2  0  0  0  0
 10 24  1  0  0  0  0
 11 12  2  0  0  0  0
 11 25  1  0  0  0  0
 12 26  1  0  0  0  0
 13 21  1  0  0  0  0
 13 24  2  0  0  0  0
 14 22  1  0  0  0  0
 14 30  2  0  0  0  0
 15 26  2  0  0  0  0
 15 27  1  0  0  0  0
 16 29  1  0  0  0  0
 17 29  1  0  0  0  0
 17 32  2  0  0  0  0
 17 33  1  0  0  0  0
 18 20  2  0  0  0  0
 18 39  1  0  0  0  0
 19 21  2  0  0  0  0
 19 40  1  0  0  0  0
 20 48  1  0  0  0  0
 21 41  1  0  0  0  0
 22 28  2  0  0  0  0
 22 58  1  0  0  0  0
 23 83  1  0  0  0  0
 24 84  1  0  0  0  0
 25 27  2  0  0  0  0
 25 83  1  0  0  0  0
 26 85  1  0  0  0  0
 27 86  1  0  0  0  0
 28 31  1  0  0  0  0
 28 87  1  0  0  0  0
 29 64  2  0  0  0  0
 30 65  1  0  0  0  0
 30 72  1  0  0  0  0
 31 65  2  0  0  0  0
 31 69  1  0  0  0  0
 32 66  1  0  0  0  0
 32 70  1  0  0  0  0
 33 71  1  0  0  0  0
 33 77  2  0  0  0  0
 34 49  1  0  0  0  0
 34 73  1  0  0  0  0
 34 78  2  0  0  0  0
 35 60  1  0  0  0  0
 35 67  1  0  0  0  0
 35 79  2  0  0  0  0
 36 61  1  0  0  0  0
 36 75  1  0  0  0  0
 36 80  2  0  0  0  0
 37 62  1  0  0  0  0
 37 74  1  0  0  0  0
 37 81  2  0  0  0  0
 38 68  1  0  0  0  0
 38 72  1  0  0  0  0
 38 82  2  0  0  0  0
 39 42  1  0  0  0  0
 40 49  1  0  0  0  0
 41 67  1  0  0  0  0
 42 44  1  0  0  0  0
 43 45  1  0  0  0  0
 43 46  1  0  0  0  0
 44 48  1  0  0  0  0
 45 50  1  0  0  0  0
 46 68  1  0  0  0  0
 47 50  1  0  0  0  0
 47 68  1  0  0  0  0
 48 73  1  0  0  0  0
 49 67  1  0  0  0  0
 50 66  1  0  0  0  0
 51 61  1  0  0  0  0
 52 62  1  0  0  0  0
 53 63  1  0  0  0  0
 54 63  1  0  0  0  0
 55 63  1  0  0  0  0
 56 75  1  0  0  0  0
 57 76  1  0  0  0  0
 58 75  1  0  0  0  0
 59 61  1  0  0  0  0
 59 84  1  0  0  0  0
 60 63  1  0  0  0  0
 60 74  1  0  0  0  0
 62 76  1  0  0  0  0
 64 66  1  0  0  0  0
M  CHG  1  76   1
M  ISO  4  38 100  59 101  72 100  84 101
M  END
> <Batch ID>
0181

> <Smiles>
CNC(C)C(=O)NC(C(=O)N1Cc2cc([101O:1][101CH2:1]C(C)C(=O)N(C)Cc3cc([100NH:0][100C:0](=O)N4CCCC(n5nc(-c6ccc(Oc7ccc(F)cc7F)cc6)c(C(N)=O)c5N)C4)nc(N)c3F)ccc2CC1C(=O)NC1CCCc2ccccc21)C(C)(C)C

> <Shape>
0.251

> <Color>
0.070

> <Negative vol penalty>
0.000

$$$$

  -OEChem-04052304533D

 84 92  0     1  0  0  0  0  0999 V2000
  -41.4948  -18.8081   34.2451 C   0  0  0  0  0  0  0  0  0  0  0  0
  -40.5543  -18.7359   33.2225 C   0  0  0  0  0  0  0  0  0  0  0  0
  -22.9993   -9.8949   19.9811 C   0  0  0  0  0  0  0  0  0  0  0  0
  -23.7243   -9.9456   22.2852 C   0  0  0  0  0  0  0  0  0  0  0  0
  -42.8406  -19.0072   33.9402 C   0  0  0  0  0  0  0  0  0  0  0  0
  -40.9591  -18.8639   31.8942 C   0  0  0  0  0  0  0  0  0  0  0  0
  -38.8182  -15.4123   28.8697 C   0  0  0  0  0  0  0  0  0  0  0  0
  -22.2323   -8.7607   20.2474 C   0  0  0  0  0  0  0  0  0  0  0  0
  -22.9572   -8.8115   22.5515 C   0  0  0  0  0  0  0  0  0  0  0  0
  -37.4981  -15.6371   28.4815 C   0  0  0  0  0  0  0  0  0  0  0  0
  -21.4743   -5.7191   23.7548 C   0  0  0  0  0  0  0  0  0  0  0  0
  -22.0598   -4.7031   24.5101 C   0  0  0  0  0  0  0  0  0  0  0  0
  -38.2724  -16.4778   26.3571 C   0  0  0  0  0  0  0  0  0  0  0  0
  -23.7862   -4.4551   22.8382 C   0  0  0  0  0  0  0  0  0  0  0  0
  -30.5225  -18.3340   23.9910 C   0  0  0  0  0  0  0  0  0  0  0  0
  -32.0475  -16.5658   22.5791 C   0  0  0  0  0  0  0  0  0  0  0  0
  -23.7454  -10.4873   21.0000 C   0  0  0  0  0  0  0  0  0  0  0  0
  -24.1318  -13.0027   20.8239 C   0  0  0  0  0  0  0  0  0  0  0  0
  -43.2634  -19.1280   32.6070 C   0  0  0  0  0  0  0  0  0  0  0  0
  -39.8775  -15.7293   28.0073 C   0  0  0  0  0  0  0  0  0  0  0  0
  -42.3117  -19.0661   31.5712 C   0  0  0  0  0  0  0  0  0  0  0  0
  -39.6048  -16.2537   26.7358 C   0  0  0  0  0  0  0  0  0  0  0  0
  -30.6756  -16.5496   22.3858 C   0  0  0  0  0  0  0  0  0  0  0  0
  -22.2112   -8.2190   21.5326 C   0  0  0  0  0  0  0  0  0  0  0  0
  -37.2252  -16.1726   27.2262 C   0  0  0  0  0  0  0  0  0  0  0  0
  -22.0447   -6.1031   22.5412 C   0  0  0  0  0  0  0  0  0  0  0  0
  -23.2157   -4.0711   24.0518 C   0  0  0  0  0  0  0  0  0  0  0  0
  -23.2006   -5.4711   22.0829 C   0  0  0  0  0  0  0  0  0  0  0  0
  -29.9057  -17.4538   23.1090 C   0  0  0  0  0  0  0  0  0  0  0  0
  -24.5384  -11.6586   20.7254 C   0  0  0  0  0  0  0  0  0  0  0  0
  -31.9013  -18.2702   24.1127 C   0  0  0  0  0  0  0  0  0  0  0  0
  -25.2419  -13.7248   20.4596 C   0  0  0  0  0  0  0  0  0  0  0  0
  -22.8640  -13.5497   21.2103 C   0  0  0  0  0  0  0  0  0  0  0  0
  -42.3473  -17.7266   28.1278 C   0  0  0  0  0  0  0  0  0  0  0  0
  -34.3208  -18.0577   26.1498 C   0  0  0  0  0  0  0  0  0  0  0  0
  -43.1723  -16.2558   25.3568 C   0  0  0  0  0  0  0  0  0  0  0  0
  -42.1862  -14.4814   22.6134 C   0  0  0  0  0  0  0  0  0  0  0  0
  -30.7217  -14.6835   20.6940 C   0  0  0  0  0  0  0  0  0  0  0  0
  -44.7225  -19.3895   32.3291 C   0  0  0  0  0  0  0  0  0  0  0  0
  -41.2947  -15.4559   28.4306 C   0  0  0  0  0  0  0  0  0  0  0  0
  -40.7054  -16.5922   25.7648 C   0  0  0  0  0  0  0  0  0  0  0  0
  -45.1200  -19.1406   30.8764 C   0  0  0  0  0  0  0  0  0  0  0  0
  -29.6026  -12.2310   18.3681 C   0  0  0  0  0  0  0  0  0  0  0  0
  -44.1109  -19.7824   29.9294 C   0  0  0  0  0  0  0  0  0  0  0  0
  -28.1519  -11.9741   18.7821 C   0  0  0  0  0  0  0  0  0  0  0  0
  -30.5031  -12.4741   19.5779 C   0  0  0  0  0  0  0  0  0  0  0  0
  -28.5880  -13.2639   20.9113 C   0  0  0  0  0  0  0  0  0  0  0  0
  -42.7151  -19.1755   30.1168 C   0  0  1  0  0  0  0  0  0  0  0  0
  -42.3176  -16.2954   27.6714 C   0  0  1  0  0  0  0  0  0  0  0  0
  -27.6304  -13.0779   19.7230 C   0  0  2  0  0  0  0  0  0  0  0  0
  -34.2896  -20.5432   25.8511 C   0  0  0  0  0  0  0  0  0  0  0  0
  -43.0804  -13.4553   20.5052 C   0  0  0  0  0  0  0  0  0  0  0  0
  -43.3381  -19.0234   24.0830 C   0  0  0  0  0  0  0  0  0  0  0  0
  -43.2871  -17.9166   21.8379 C   0  0  0  0  0  0  0  0  0  0  0  0
  -45.1666  -17.4548   23.4117 C   0  0  0  0  0  0  0  0  0  0  0  0
  -41.3594  -11.7648   23.4474 C   0  0  0  0  0  0  0  0  0  0  0  0
  -35.7044  -17.4709   25.9386 C   0  0  0  0  0  0  0  0  0  1  0  0
  -33.9271  -19.2049   25.2297 C   0  0  2  0  0  0  0  0  0  0  0  0
  -42.8803  -16.4895   23.8943 C   0  0  1  0  0  0  0  0  0  0  0  0
  -42.7471  -13.2256   21.9711 C   0  0  2  0  0  0  0  0  0  0  0  0
  -43.6471  -17.7166   23.3255 C   0  0  0  0  0  0  0  0  0  0  0  0
  -32.6824  -17.4058   23.4269 N   0  0  0  0  0  0  0  0  0  0  0  0
  -25.8076  -11.5315   20.3293 N   0  0  0  0  0  0  0  0  0  0  0  0
  -26.2082  -12.8051   20.1757 N   0  0  0  0  0  0  0  0  0  0  0  0
  -42.0748  -16.3126   26.2275 N   0  0  0  0  0  0  0  0  0  0  0  0
  -29.9485  -13.5353   20.4212 N   0  0  0  0  0  0  0  0  0  0  0  0
  -25.4759  -15.0504   20.3575 N   0  0  0  0  0  0  0  0  0  0  0  0
  -21.8318  -12.6660   21.5537 N   0  0  0  0  0  0  0  0  0  0  0  0
  -30.0778  -15.6390   21.4795 N   0  0  0  0  0  0  0  0  0  0  0  0
  -32.5009  -19.1530   24.9942 N   0  0  0  0  0  0  0  0  0  0  0  0
  -42.6349  -17.8833   29.4703 N   0  0  0  0  0  0  0  0  0  0  0  0
  -43.1743  -15.2331   23.2135 N   0  0  0  0  0  0  0  0  0  0  0  0
  -41.7594  -12.1131   22.0597 N   0  3  0  0  0  0  0  0  0  0  0  0
  -22.6478  -14.7851   21.2340 O   0  0  0  0  0  0  0  0  0  0  0  0
  -42.1271  -18.6226   27.3213 O   0  0  0  0  0  0  0  0  0  0  0  0
  -33.5682  -17.6305   27.0257 O   0  0  0  0  0  0  0  0  0  0  0  0
  -44.3305  -16.0241   25.7127 O   0  0  0  0  0  0  0  0  0  0  0  0
  -40.9917  -14.7689   22.5826 O   0  0  0  0  0  0  0  0  0  0  0  0
  -31.8605  -14.8219   20.2401 O   0  0  0  0  0  0  0  0  0  0  0  0
  -21.4626   -7.1125   21.7928 O   0  0  0  0  0  0  0  0  0  0  0  0
  -35.9376  -16.3936   26.8450 O   0  0  0  0  0  0  0  0  0  1  0  0
  -23.7788   -3.0965   24.7780 F   0  0  0  0  0  0  0  0  0  0  0  0
  -23.7538   -5.8365   20.9183 F   0  0  0  0  0  0  0  0  0  0  0  0
  -28.5734  -17.4845   22.9639 F   0  0  0  0  0  0  0  0  0  0  0  0
  1  2  1  0  0  0  0
  1  5  2  0  0  0  0
  2  6  2  0  0  0  0
  3  8  2  0  0  0  0
  3 17  1  0  0  0  0
  4  9  1  0  0  0  0
  4 17  2  0  0  0  0
  5 19  1  0  0  0  0
  6 21  1  0  0  0  0
  7 10  2  0  0  0  0
  7 20  1  0  0  0  0
  8 24  1  0  0  0  0
  9 24  2  0  0  0  0
 10 25  1  0  0  0  0
 11 12  2  0  0  0  0
 11 26  1  0  0  0  0
 12 27  1  0  0  0  0
 13 22  1  0  0  0  0
 13 25  2  0  0  0  0
 14 27  2  0  0  0  0
 14 28  1  0  0  0  0
 15 29  2  0  0  0  0
 15 31  1  0  0  0  0
 16 23  2  0  0  0  0
 16 62  1  0  0  0  0
 17 30  1  0  0  0  0
 18 30  1  0  0  0  0
 18 32  2  0  0  0  0
 18 33  1  0  0  0  0
 19 21  2  0  0  0  0
 19 39  1  0  0  0  0
 20 22  2  0  0  0  0
 20 40  1  0  0  0  0
 21 48  1  0  0  0  0
 22 41  1  0  0  0  0
 23 29  1  0  0  0  0
 23 69  1  0  0  0  0
 24 80  1  0  0  0  0
 25 81  1  0  0  0  0
 26 28  2  0  0  0  0
 26 80  1  0  0  0  0
 27 82  1  0  0  0  0
 28 83  1  0  0  0  0
 29 84  1  0  0  0  0
 30 63  2  0  0  0  0
 31 62  2  0  0  0  0
 31 70  1  0  0  0  0
 32 64  1  0  0  0  0
 32 67  1  0  0  0  0
 33 68  1  0  0  0  0
 33 74  2  0  0  0  0
 34 49  1  0  0  0  0
 34 71  1  0  0  0  0
 34 75  2  0  0  0  0
 35 57  1  0  0  0  0
 35 58  1  0  0  0  0
 35 76  2  0  0  0  0
 36 59  1  0  0  0  0
 36 65  1  0  0  0  0
 36 77  2  0  0  0  0
 37 60  1  0  0  0  0
 37 72  1  0  0  0  0
 37 78  2  0  0  0  0
 38 66  1  0  0  0  0
 38 69  1  0  0  0  0
 38 79  2  0  0  0  0
 39 42  1  0  0  0  0
 40 49  1  0  0  0  0
 41 65  1  0  0  0  0
 42 44  1  0  0  0  0
 43 45  1  0  0  0  0
 43 46  1  0  0  0  0
 44 48  1  0  0  0  0
 45 50  1  0  0  0  0
 46 66  1  0  0  0  0
 47 50  1  0  0  0  0
 47 66  1  0  0  0  0
 48 71  1  0  0  0  0
 49 65  1  0  0  0  0
 50 64  1  0  0  0  0
 51 58  1  0  0  0  0
 52 60  1  0  0  0  0
 53 61  1  0  0  0  0
 54 61  1  0  0  0  0
 55 61  1  0  0  0  0
 56 73  1  0  0  0  0
 57 81  1  0  0  0  0
 58 70  1  0  0  0  0
 59 61  1  0  0  0  0
 59 72  1  0  0  0  0
 60 73  1  0  0  0  0
 63 64  1  0  0  0  0
M  CHG  1  73   1
M  ISO  4  38 100  57 101  69 100  81 101
M  END
> <Batch ID>
0181

> <Smiles>
CNC(C)C(=O)NC(C(=O)N1Cc2cc([101O:1][101CH2:1]C(=O)C(C)Nc3cc(F)c([100NH:0][100C:0](=O)N4CCCC(n5nc(-c6ccc(Oc7ccc(F)cc7F)cc6)c(C(N)=O)c5N)C4)cn3)ccc2CC1C(=O)NC1CCCc2ccccc21)C(C)(C)C

> <Shape>
0.170

> <Color>
0.194

> <Negative vol penalty>
0.000

$$$$

  -OEChem-04052304533D

 85 93  0     1  0  0  0  0  0999 V2000
  -17.3534  -26.0766   19.8447 C   0  0  0  0  0  0  0  0  0  0  0  0
  -18.6444  -26.1794   19.3367 C   0  0  0  0  0  0  0  0  0  0  0  0
  -25.7002  -14.0685   21.7351 C   0  0  0  0  0  0  0  0  0  0  0  0
  -25.5266  -14.7780   19.4322 C   0  0  0  0  0  0  0  0  0  0  0  0
  -17.0901  -26.4602   21.1590 C   0  0  0  0  0  0  0  0  0  0  0  0
  -19.6727  -26.6670   20.1424 C   0  0  0  0  0  0  0  0  0  0  0  0
  -25.5388  -24.9085   20.0911 C   0  0  0  0  0  0  0  0  0  0  0  0
  -24.6628  -13.1582   21.5329 C   0  0  0  0  0  0  0  0  0  0  0  0
  -24.4893  -13.8677   19.2299 C   0  0  0  0  0  0  0  0  0  0  0  0
  -26.6765  -25.4541   19.4979 C   0  0  0  0  0  0  0  0  0  0  0  0
  -24.2684  -10.0981   20.1497 C   0  0  0  0  0  0  0  0  0  0  0  0
  -24.4304   -8.8080   20.6546 C   0  0  0  0  0  0  0  0  0  0  0  0
  -27.2167  -26.5649   21.5700 C   0  0  0  0  0  0  0  0  0  0  0  0
  -22.4660   -9.0998   22.0306 C   0  0  0  0  0  0  0  0  0  0  0  0
  -33.5218  -22.4243   18.1358 C   0  0  0  0  0  0  0  0  0  0  0  0
  -26.1320  -14.8784   20.6848 C   0  0  0  0  0  0  0  0  0  0  0  0
  -28.5813  -15.5910   20.7188 C   0  0  0  0  0  0  0  0  0  0  0  0
  -18.1176  -26.9437   21.9843 C   0  0  0  0  0  0  0  0  0  0  0  0
  -25.2252  -25.1962   21.4272 C   0  0  0  0  0  0  0  0  0  0  0  0
  -19.4227  -27.0587   21.4686 C   0  0  0  0  0  0  0  0  0  0  0  0
  -26.0759  -26.0196   22.1785 C   0  0  0  0  0  0  0  0  0  0  0  0
  -24.0574  -13.0578   20.2803 C   0  0  0  0  0  0  0  0  0  0  0  0
  -27.5140  -26.2848   20.2365 C   0  0  0  0  0  0  0  0  0  0  0  0
  -23.2052  -10.8891   20.5853 C   0  0  0  0  0  0  0  0  0  0  0  0
  -23.5292   -8.3088   21.5950 C   0  0  0  0  0  0  0  0  0  0  0  0
  -22.3041  -10.3900   21.5257 C   0  0  0  0  0  0  0  0  0  0  0  0
  -32.3856  -21.7783   18.6100 C   0  0  0  0  0  0  0  0  0  0  0  0
  -33.7674  -23.7437   18.4997 C   0  0  0  0  0  0  0  0  0  0  0  0
  -27.2032  -15.8194   20.8933 C   0  0  0  0  0  0  0  0  0  0  0  0
  -31.5332  -22.4899   19.4388 C   0  0  0  0  0  0  0  0  0  0  0  0
  -32.8531  -24.3673   19.3332 C   0  0  0  0  0  0  0  0  0  0  0  0
  -29.1714  -16.7883   21.0424 C   0  0  0  0  0  0  0  0  0  0  0  0
  -29.2667  -14.4028   20.3016 C   0  0  0  0  0  0  0  0  0  0  0  0
  -22.7991  -26.6227   22.9047 C   0  0  0  0  0  0  0  0  0  0  0  0
  -31.0424  -26.9360   19.7486 C   0  0  0  0  0  0  0  0  0  0  0  0
  -24.3586  -25.6437   25.5753 C   0  0  0  0  0  0  0  0  0  0  0  0
  -26.9878  -24.3184   26.6895 C   0  0  0  0  0  0  0  0  0  0  0  0
  -29.3913  -22.3446   20.7570 C   0  0  0  0  0  0  0  0  0  0  0  0
  -17.7753  -27.3905   23.3835 C   0  0  0  0  0  0  0  0  0  0  0  0
  -24.0087  -24.5783   22.0602 C   0  0  0  0  0  0  0  0  0  0  0  0
  -25.7947  -26.3432   23.6223 C   0  0  0  0  0  0  0  0  0  0  0  0
  -18.9945  -27.5447   24.2891 C   0  0  0  0  0  0  0  0  0  0  0  0
  -27.2403  -20.9311   23.2171 C   0  0  0  0  0  0  0  0  0  0  0  0
  -20.0998  -28.3117   23.5703 C   0  0  0  0  0  0  0  0  0  0  0  0
  -27.1522  -19.4564   22.8175 C   0  0  0  0  0  0  0  0  0  0  0  0
  -27.2954  -21.8473   21.9959 C   0  0  0  0  0  0  0  0  0  0  0  0
  -28.2527  -20.0424   20.6191 C   0  0  0  0  0  0  0  0  0  0  0  0
  -20.5697  -27.5595   22.3193 C   0  0  1  0  0  0  0  0  0  0  0  0
  -23.5098  -25.3521   23.2766 C   0  0  1  0  0  0  0  0  0  0  0  0
  -28.2603  -19.0769   21.8155 C   0  0  2  0  0  0  0  0  0  0  0  0
  -33.0217  -27.6391   21.1109 C   0  0  0  0  0  0  0  0  0  0  0  0
  -28.9018  -23.3044   27.9567 C   0  0  0  0  0  0  0  0  0  0  0  0
  -24.2633  -28.5368   26.5401 C   0  0  0  0  0  0  0  0  0  0  0  0
  -26.0243  -27.9602   28.2237 C   0  0  0  0  0  0  0  0  0  0  0  0
  -23.8015  -26.8312   28.3099 C   0  0  0  0  0  0  0  0  0  0  0  0
  -25.6707  -21.6699   26.7886 C   0  0  0  0  0  0  0  0  0  0  0  0
  -29.7390  -27.0780   20.5129 C   0  0  0  0  0  0  0  0  0  1  0  0
  -32.2458  -26.4593   20.5499 C   0  0  2  0  0  0  0  0  0  0  0  0
  -25.4253  -26.2324   26.4668 C   0  0  1  0  0  0  0  0  0  0  0  0
  -27.4113  -23.2333   27.6630 C   0  0  2  0  0  0  0  0  0  0  0  0
  -24.8831  -27.3858   27.3574 C   0  0  0  0  0  0  0  0  0  0  0  0
  -26.9338  -17.0639   21.2965 N   0  0  0  0  0  0  0  0  0  0  0  0
  -31.7384  -23.7723   19.8139 N   0  0  0  0  0  0  0  0  0  0  0  0
  -28.1507  -17.6282   21.3782 N   0  0  0  0  0  0  0  0  0  0  0  0
  -24.5898  -25.7199   24.1945 N   0  0  0  0  0  0  0  0  0  0  0  0
  -28.3711  -21.4300   21.0938 N   0  0  0  0  0  0  0  0  0  0  0  0
  -30.4587  -17.1940   21.0696 N   0  0  0  0  0  0  0  0  0  0  0  0
  -28.5076  -13.2617   20.0080 N   0  0  0  0  0  0  0  0  0  0  0  0
  -30.3773  -21.8255   19.9185 N   0  0  0  0  0  0  0  0  0  0  0  0
  -33.1082  -25.6807   19.6885 N   0  0  0  0  0  0  0  0  0  0  0  0
  -21.4438  -26.4659   22.6857 N   0  0  0  0  0  0  0  0  0  0  0  0
  -25.9936  -25.1163   27.2150 N   0  0  0  0  0  0  0  0  0  0  0  0
  -27.1065  -21.8866   27.1023 N   0  3  0  0  0  0  0  0  0  0  0  0
  -30.5165  -14.3495   20.2081 O   0  0  0  0  0  0  0  0  0  0  0  0
  -23.4332  -27.6682   22.8240 O   0  0  0  0  0  0  0  0  0  0  0  0
  -31.1165  -27.2033   18.5489 O   0  0  0  0  0  0  0  0  0  0  0  0
  -23.3606  -25.1287   26.0855 O   0  0  0  0  0  0  0  0  0  0  0  0
  -27.4913  -24.4476   25.5758 O   0  0  0  0  0  0  0  0  0  0  0  0
  -29.4050  -23.4948   21.2029 O   0  0  0  0  0  0  0  0  0  0  0  0
  -23.0453  -12.1695   20.0825 O   0  0  0  0  0  0  0  0  0  0  0  0
  -28.6247  -26.8192   19.6598 O   0  0  0  0  0  0  0  0  0  1  0  0
  -23.6840   -7.0693   22.0786 F   0  0  0  0  0  0  0  0  0  0  0  0
  -21.2801  -11.1448   21.9470 F   0  0  0  0  0  0  0  0  0  0  0  0
  -32.1365  -20.5078   18.2676 F   0  0  0  0  0  0  0  0  0  0  0  0
  -34.8577  -24.3783   18.0505 F   0  0  0  0  0  0  0  0  0  0  0  0
  1  2  1  0  0  0  0
  1  5  2  0  0  0  0
  2  6  2  0  0  0  0
  3  8  2  0  0  0  0
  3 16  1  0  0  0  0
  4  9  1  0  0  0  0
  4 16  2  0  0  0  0
  5 18  1  0  0  0  0
  6 20  1  0  0  0  0
  7 10  2  0  0  0  0
  7 19  1  0  0  0  0
  8 22  1  0  0  0  0
  9 22  2  0  0  0  0
 10 23  1  0  0  0  0
 11 12  2  0  0  0  0
 11 24  1  0  0  0  0
 12 25  1  0  0  0  0
 13 21  1  0  0  0  0
 13 23  2  0  0  0  0
 14 25  2  0  0  0  0
 14 26  1  0  0  0  0
 15 27  2  0  0  0  0
 15 28  1  0  0  0  0
 16 29  1  0  0  0  0
 17 29  1  0  0  0  0
 17 32  2  0  0  0  0
 17 33  1  0  0  0  0
 18 20  2  0  0  0  0
 18 39  1  0  0  0  0
 19 21  2  0  0  0  0
 19 40  1  0  0  0  0
 20 48  1  0  0  0  0
 21 41  1  0  0  0  0
 22 80  1  0  0  0  0
 23 81  1  0  0  0  0
 24 26  2  0  0  0  0
 24 80  1  0  0  0  0
 25 82  1  0  0  0  0
 26 83  1  0  0  0  0
 27 30  1  0  0  0  0
 27 84  1  0  0  0  0
 28 31  2  0  0  0  0
 28 85  1  0  0  0  0
 29 62  2  0  0  0  0
 30 63  2  0  0  0  0
 30 69  1  0  0  0  0
 31 63  1  0  0  0  0
 31 70  1  0  0  0  0
 32 64  1  0  0  0  0
 32 67  1  0  0  0  0
 33 68  1  0  0  0  0
 33 74  2  0  0  0  0
 34 49  1  0  0  0  0
 34 71  1  0  0  0  0
 34 75  2  0  0  0  0
 35 57  1  0  0  0  0
 35 58  1  0  0  0  0
 35 76  2  0  0  0  0
 36 59  1  0  0  0  0
 36 65  1  0  0  0  0
 36 77  2  0  0  0  0
 37 60  1  0  0  0  0
 37 72  1  0  0  0  0
 37 78  2  0  0  0  0
 38 66  1  0  0  0  0
 38 69  1  0  0  0  0
 38 79  2  0  0  0  0
 39 42  1  0  0  0  0
 40 49  1  0  0  0  0
 41 65  1  0  0  0  0
 42 44  1  0  0  0  0
 43 45  1  0  0  0  0
 43 46  1  0  0  0  0
 44 48  1  0  0  0  0
 45 50  1  0  0  0  0
 46 66  1  0  0  0  0
 47 50  1  0  0  0  0
 47 66  1  0  0  0  0
 48 71  1  0  0  0  0
 49 65  1  0  0  0  0
 50 64  1  0  0  0  0
 51 58  1  0  0  0  0
 52 60  1  0  0  0  0
 53 61  1  0  0  0  0
 54 61  1  0  0  0  0
 55 61  1  0  0  0  0
 56 73  1  0  0  0  0
 57 81  1  0  0  0  0
 58 70  1  0  0  0  0
 59 61  1  0  0  0  0
 59 72  1  0  0  0  0
 60 73  1  0  0  0  0
 62 64  1  0  0  0  0
M  CHG  1  73   1
M  ISO  4  38 100  57 101  69 100  81 101
M  END
> <Batch ID>
0181

> <Smiles>
CNC(C)C(=O)NC(C(=O)N1Cc2cc([101O:1][101CH2:1]C(=O)C(C)Nc3nc([100NH:0][100C:0](=O)N4CCCC(n5nc(-c6ccc(Oc7ccc(F)cc7F)cc6)c(C(N)=O)c5N)C4)c(F)cc3F)ccc2CC1C(=O)NC1CCCc2ccccc21)C(C)(C)C

> <Shape>
0.225

> <Color>
0.063

> <Negative vol penalty>
0.000

$$$$

  -OEChem-04052304533D

 85 93  0     1  0  0  0  0  0999 V2000
  -31.1879  -35.0659   23.2537 C   0  0  0  0  0  0  0  0  0  0  0  0
  -31.0776  -33.8991   22.5042 C   0  0  0  0  0  0  0  0  0  0  0  0
  -24.5597   -9.0975   21.9137 C   0  0  0  0  0  0  0  0  0  0  0  0
  -23.0426   -9.9193   20.2226 C   0  0  0  0  0  0  0  0  0  0  0  0
  -30.3674  -35.2599   24.3641 C   0  0  0  0  0  0  0  0  0  0  0  0
  -30.1474  -32.9250   22.8654 C   0  0  0  0  0  0  0  0  0  0  0  0
  -26.9735  -29.2881   19.0965 C   0  0  0  0  0  0  0  0  0  0  0  0
  -23.5475   -8.2874   22.4282 C   0  0  0  0  0  0  0  0  0  0  0  0
  -22.0303   -9.1093   20.7371 C   0  0  0  0  0  0  0  0  0  0  0  0
  -27.1637  -27.9699   18.6842 C   0  0  0  0  0  0  0  0  0  0  0  0
  -22.0885   -5.3349   21.6622 C   0  0  0  0  0  0  0  0  0  0  0  0
  -22.4113   -4.0149   21.9765 C   0  0  0  0  0  0  0  0  0  0  0  0
  -25.6393  -27.2204   20.3969 C   0  0  0  0  0  0  0  0  0  0  0  0
  -21.7885   -4.4104   24.2771 C   0  0  0  0  0  0  0  0  0  0  0  0
  -23.4311  -19.9305   16.6343 C   0  0  0  0  0  0  0  0  0  0  0  0
  -23.5864  -17.6594   17.4103 C   0  0  0  0  0  0  0  0  0  0  0  0
  -24.3073   -9.9135   20.8109 C   0  0  0  0  0  0  0  0  0  0  0  0
  -26.2848  -10.4153   19.2795 C   0  0  0  0  0  0  0  0  0  0  0  0
  -29.4200  -34.2921   24.7334 C   0  0  0  0  0  0  0  0  0  0  0  0
  -26.1217  -29.5818   20.1711 C   0  0  0  0  0  0  0  0  0  0  0  0
  -29.3144  -33.1057   23.9826 C   0  0  0  0  0  0  0  0  0  0  0  0
  -25.4380  -28.5433   20.8193 C   0  0  0  0  0  0  0  0  0  0  0  0
  -22.2828   -8.2933   21.8399 C   0  0  0  0  0  0  0  0  0  0  0  0
  -26.4989  -26.9356   19.3362 C   0  0  0  0  0  0  0  0  0  0  0  0
  -21.6157   -6.1928   22.6553 C   0  0  0  0  0  0  0  0  0  0  0  0
  -22.2613   -3.5526   23.2839 C   0  0  0  0  0  0  0  0  0  0  0  0
  -21.4656   -5.7304   23.9628 C   0  0  0  0  0  0  0  0  0  0  0  0
  -23.0317  -18.6013   16.5510 C   0  0  0  0  0  0  0  0  0  0  0  0
  -25.3524  -10.7509   20.2794 C   0  0  0  0  0  0  0  0  0  0  0  0
  -24.3808  -20.2639   17.5864 C   0  0  0  0  0  0  0  0  0  0  0  0
  -24.5293  -18.0944   18.3276 C   0  0  0  0  0  0  0  0  0  0  0  0
  -27.0550  -11.5433   19.1356 C   0  0  0  0  0  0  0  0  0  0  0  0
  -26.4407   -9.1931   18.5463 C   0  0  0  0  0  0  0  0  0  0  0  0
  -24.9462  -23.9709   17.2785 C   0  0  0  0  0  0  0  0  0  0  0  0
  -24.3246  -22.6616   16.8863 C   0  0  0  0  0  0  0  0  0  0  0  0
  -26.4989  -30.9085   23.0348 C   0  0  0  0  0  0  0  0  0  0  0  0
  -23.2656  -30.6698   23.1404 C   0  0  0  0  0  0  0  0  0  0  0  0
  -20.4374  -29.1163   22.0293 C   0  0  0  0  0  0  0  0  0  0  0  0
  -26.0456  -17.3374   20.1915 C   0  0  0  0  0  0  0  0  0  0  0  0
  -28.5879  -34.5254   25.9695 C   0  0  0  0  0  0  0  0  0  0  0  0
  -25.9065  -31.0113   20.5865 C   0  0  0  0  0  0  0  0  0  0  0  0
  -24.4969  -28.8075   21.9653 C   0  0  0  0  0  0  0  0  0  0  0  0
  -27.3691  -33.6111   26.0648 C   0  0  0  0  0  0  0  0  0  0  0  0
  -28.6358  -15.3370   21.5938 C   0  0  0  0  0  0  0  0  0  0  0  0
  -27.7584  -32.1688   25.7565 C   0  0  0  0  0  0  0  0  0  0  0  0
  -28.1756  -13.9035   21.3195 C   0  0  0  0  0  0  0  0  0  0  0  0
  -27.4613  -16.2563   21.9242 C   0  0  0  0  0  0  0  0  0  0  0  0
  -25.9098  -14.8134   20.6673 C   0  0  0  0  0  0  0  0  0  0  0  0
  -28.3003  -32.0369   24.3281 C   0  0  1  0  0  0  0  0  0  0  0  0
  -25.4136  -31.1481   22.0237 C   0  0  1  0  0  0  0  0  0  0  0  0
  -27.0510  -13.8645   20.2662 C   0  0  2  0  0  0  0  0  0  0  0  0
  -17.9455  -29.1135   22.3256 C   0  0  0  0  0  0  0  0  0  0  0  0
  -23.5857  -29.2037   25.7971 C   0  0  0  0  0  0  0  0  0  0  0  0
  -21.2220  -28.4116   25.5650 C   0  0  0  0  0  0  0  0  0  0  0  0
  -21.7065  -30.8527   25.7354 C   0  0  0  0  0  0  0  0  0  0  0  0
  -19.9826  -29.8196   19.1907 C   0  0  0  0  0  0  0  0  0  0  0  0
  -26.4488  -24.0713   17.1326 C   0  0  0  0  0  0  0  0  0  0  0  0
  -26.9791  -25.4325   17.5569 C   0  0  0  0  0  0  0  0  0  1  0  0
  -22.2858  -29.6198   23.6055 C   0  0  1  0  0  0  0  0  0  0  0  0
  -19.1153  -29.6689   21.5282 C   0  0  2  0  0  0  0  0  0  0  0  0
  -22.2191  -29.5165   25.1554 C   0  0  0  0  0  0  0  0  0  0  0  0
  -25.5139  -11.9948   20.7383 N   0  0  0  0  0  0  0  0  0  0  0  0
  -24.9422  -19.3769   18.4383 N   0  0  0  0  0  0  0  0  0  0  0  0
  -26.5567  -12.4507   20.0236 N   0  0  0  0  0  0  0  0  0  0  0  0
  -24.3246  -30.2212   22.3385 N   0  0  0  0  0  0  0  0  0  0  0  0
  -26.4374  -16.1702   20.8806 N   0  0  0  0  0  0  0  0  0  0  0  0
  -28.1031  -11.8377   18.3373 N   0  0  0  0  0  0  0  0  0  0  0  0
  -25.5642   -8.1339   18.8189 N   0  0  0  0  0  0  0  0  0  0  0  0
  -24.7800  -21.6185   17.6635 N   0  0  0  0  0  0  0  0  0  0  0  0
  -25.0888  -17.1273   19.1991 N   0  0  0  0  0  0  0  0  0  0  0  0
  -27.2134  -32.0421   23.3726 N   0  0  0  0  0  0  0  0  0  0  0  0
  -21.0113  -29.9420   22.9728 N   0  0  0  0  0  0  0  0  0  0  0  0
  -18.9164  -29.3156   20.0941 N   0  3  0  0  0  0  0  0  0  0  0  0
  -27.3413   -9.0389   17.6868 O   0  0  0  0  0  0  0  0  0  0  0  0
  -24.1957  -24.8512   17.6713 O   0  0  0  0  0  0  0  0  0  0  0  0
  -23.5073  -22.6943   15.9814 O   0  0  0  0  0  0  0  0  0  0  0  0
  -26.6742  -29.7791   23.4769 O   0  0  0  0  0  0  0  0  0  0  0  0
  -23.0936  -31.8459   23.4704 O   0  0  0  0  0  0  0  0  0  0  0  0
  -20.9117  -28.0563   21.6269 O   0  0  0  0  0  0  0  0  0  0  0  0
  -26.5435  -18.4377   20.4434 O   0  0  0  0  0  0  0  0  0  0  0  0
  -21.2948   -7.5028   22.3415 O   0  0  0  0  0  0  0  0  0  0  0  0
  -26.6833  -25.6480   18.9361 O   0  0  0  0  0  0  0  0  0  1  0  0
  -22.5699   -2.2845   23.5853 F   0  0  0  0  0  0  0  0  0  0  0  0
  -21.0108   -6.5495   24.9209 F   0  0  0  0  0  0  0  0  0  0  0  0
  -22.1166  -18.2298   15.6463 F   0  0  0  0  0  0  0  0  0  0  0  0
  1  2  1  0  0  0  0
  1  5  2  0  0  0  0
  2  6  2  0  0  0  0
  3  8  2  0  0  0  0
  3 17  1  0  0  0  0
  4  9  1  0  0  0  0
  4 17  2  0  0  0  0
  5 19  1  0  0  0  0
  6 21  1  0  0  0  0
  7 10  2  0  0  0  0
  7 20  1  0  0  0  0
  8 23  1  0  0  0  0
  9 23  2  0  0  0  0
 10 24  1  0  0  0  0
 11 12  2  0  0  0  0
 11 25  1  0  0  0  0
 12 26  1  0  0  0  0
 13 22  1  0  0  0  0
 13 24  2  0  0  0  0
 14 26  2  0  0  0  0
 14 27  1  0  0  0  0
 15 28  2  0  0  0  0
 15 30  1  0  0  0  0
 16 28  1  0  0  0  0
 16 31  2  0  0  0  0
 17 29  1  0  0  0  0
 18 29  1  0  0  0  0
 18 32  2  0  0  0  0
 18 33  1  0  0  0  0
 19 21  2  0  0  0  0
 19 40  1  0  0  0  0
 20 22  2  0  0  0  0
 20 41  1  0  0  0  0
 21 49  1  0  0  0  0
 22 42  1  0  0  0  0
 23 81  1  0  0  0  0
 24 82  1  0  0  0  0
 25 27  2  0  0  0  0
 25 81  1  0  0  0  0
 26 83  1  0  0  0  0
 27 84  1  0  0  0  0
 28 85  1  0  0  0  0
 29 62  2  0  0  0  0
 30 63  2  0  0  0  0
 30 69  1  0  0  0  0
 31 63  1  0  0  0  0
 31 70  1  0  0  0  0
 32 64  1  0  0  0  0
 32 67  1  0  0  0  0
 33 68  1  0  0  0  0
 33 74  2  0  0  0  0
 34 35  1  0  0  0  0
 34 57  1  0  0  0  0
 34 75  2  0  0  0  0
 35 69  1  0  0  0  0
 35 76  2  0  0  0  0
 36 50  1  0  0  0  0
 36 71  1  0  0  0  0
 36 77  2  0  0  0  0
 37 59  1  0  0  0  0
 37 65  1  0  0  0  0
 37 78  2  0  0  0  0
 38 60  1  0  0  0  0
 38 72  1  0  0  0  0
 38 79  2  0  0  0  0
 39 66  1  0  0  0  0
 39 70  1  0  0  0  0
 39 80  2  0  0  0  0
 40 43  1  0  0  0  0
 41 50  1  0  0  0  0
 42 65  1  0  0  0  0
 43 45  1  0  0  0  0
 44 46  1  0  0  0  0
 44 47  1  0  0  0  0
 45 49  1  0  0  0  0
 46 51  1  0  0  0  0
 47 66  1  0  0  0  0
 48 51  1  0  0  0  0
 48 66  1  0  0  0  0
 49 71  1  0  0  0  0
 50 65  1  0  0  0  0
 51 64  1  0  0  0  0
 52 60  1  0  0  0  0
 53 61  1  0  0  0  0
 54 61  1  0  0  0  0
 55 61  1  0  0  0  0
 56 73  1  0  0  0  0
 57 58  1  0  0  0  0
 58 82  1  0  0  0  0
 59 61  1  0  0  0  0
 59 72  1  0  0  0  0
 60 73  1  0  0  0  0
 62 64  1  0  0  0  0
M  CHG  1  73   1
M  ISO  4  39 100  58 101  70 100  82 101
M  END
> <Batch ID>
0181

> <Smiles>
CNC(C)C(=O)NC(C(=O)N1Cc2cc([101O:1][101CH2:1]CC(=O)C(=O)Nc3cc(F)cc([100NH:0][100C:0](=O)N4CCCC(n5nc(-c6ccc(Oc7ccc(F)cc7F)cc6)c(C(N)=O)c5N)C4)n3)ccc2CC1C(=O)NC1CCCc2ccccc21)C(C)(C)C

> <Shape>
0.255

> <Color>
0.097

> <Negative vol penalty>
0.000

$$$$

  -OEChem-04052304533D

 84 92  0     1  0  0  0  0  0999 V2000
  -24.8780  -20.0640   23.9427 C   0  0  0  0  0  0  0  0  0  0  0  0
  -25.9763  -20.7746   23.4693 C   0  0  0  0  0  0  0  0  0  0  0  0
  -26.4331  -12.7568   21.6054 C   0  0  0  0  0  0  0  0  0  0  0  0
  -25.7856  -13.8191   19.5343 C   0  0  0  0  0  0  0  0  0  0  0  0
  -23.5872  -20.5186   23.6756 C   0  0  0  0  0  0  0  0  0  0  0  0
  -25.7845  -21.9397   22.7275 C   0  0  0  0  0  0  0  0  0  0  0  0
  -29.3130  -26.9451   22.7565 C   0  0  0  0  0  0  0  0  0  0  0  0
  -25.1931  -12.1210   21.6669 C   0  0  0  0  0  0  0  0  0  0  0  0
  -24.5457  -13.1833   19.5958 C   0  0  0  0  0  0  0  0  0  0  0  0
  -30.3201  -27.3878   21.9000 C   0  0  0  0  0  0  0  0  0  0  0  0
  -23.6913   -9.4474   20.2425 C   0  0  0  0  0  0  0  0  0  0  0  0
  -23.6735   -8.0916   20.5696 C   0  0  0  0  0  0  0  0  0  0  0  0
  -28.7130  -28.7491   20.7239 C   0  0  0  0  0  0  0  0  0  0  0  0
  -22.3161   -8.5772   22.5083 C   0  0  0  0  0  0  0  0  0  0  0  0
  -26.7293  -13.6059   20.5391 C   0  0  0  0  0  0  0  0  0  0  0  0
  -29.1825  -13.7831   19.8621 C   0  0  0  0  0  0  0  0  0  0  0  0
  -23.3797  -21.6951   22.9384 C   0  0  0  0  0  0  0  0  0  0  0  0
  -27.9940  -27.3935   22.5961 C   0  0  0  0  0  0  0  0  0  0  0  0
  -24.4898  -22.4097   22.4492 C   0  0  0  0  0  0  0  0  0  0  0  0
  -27.6915  -28.3126   21.5813 C   0  0  0  0  0  0  0  0  0  0  0  0
  -24.2494  -12.3342   20.6621 C   0  0  0  0  0  0  0  0  0  0  0  0
  -30.0196  -28.2877   20.8817 C   0  0  0  0  0  0  0  0  0  0  0  0
  -23.0215  -10.3681   21.0483 C   0  0  0  0  0  0  0  0  0  0  0  0
  -22.9859   -7.6564   21.7025 C   0  0  0  0  0  0  0  0  0  0  0  0
  -22.3339   -9.9330   22.1812 C   0  0  0  0  0  0  0  0  0  0  0  0
  -28.0098  -14.2635   20.4753 C   0  0  0  0  0  0  0  0  0  0  0  0
  -27.5201  -23.3954   17.5866 C   0  0  0  0  0  0  0  0  0  0  0  0
  -28.6849  -23.8354   18.1796 C   0  0  0  0  0  0  0  0  0  0  0  0
  -30.1120  -14.7711   20.0773 C   0  0  0  0  0  0  0  0  0  0  0  0
  -28.4554  -21.9446   19.2668 C   0  0  0  0  0  0  0  0  0  0  0  0
  -29.4111  -12.5537   19.1606 C   0  0  0  0  0  0  0  0  0  0  0  0
  -25.2141  -25.9974   21.9428 C   0  0  0  0  0  0  0  0  0  0  0  0
  -24.0360  -28.9688   22.4952 C   0  0  0  0  0  0  0  0  0  0  0  0
  -30.5003  -25.5673   18.3974 C   0  0  0  0  0  0  0  0  0  0  0  0
  -24.5930  -32.3344   22.5921 C   0  0  0  0  0  0  0  0  0  0  0  0
  -29.6691  -20.6495   21.0545 C   0  0  0  0  0  0  0  0  0  0  0  0
  -21.9652  -22.1214   22.6347 C   0  0  0  0  0  0  0  0  0  0  0  0
  -26.9243  -26.9270   23.5450 C   0  0  0  0  0  0  0  0  0  0  0  0
  -26.2952  -28.8400   21.3795 C   0  0  0  0  0  0  0  0  0  0  0  0
  -21.8536  -23.5682   22.1608 C   0  0  0  0  0  0  0  0  0  0  0  0
  -31.2304  -18.2505   23.1721 C   0  0  0  0  0  0  0  0  0  0  0  0
  -22.9073  -23.8648   21.0985 C   0  0  0  0  0  0  0  0  0  0  0  0
  -30.6932  -16.9117   22.6611 C   0  0  0  0  0  0  0  0  0  0  0  0
  -30.1694  -19.3478   23.1113 C   0  0  0  0  0  0  0  0  0  0  0  0
  -28.9900  -18.1799   21.2907 C   0  0  0  0  0  0  0  0  0  0  0  0
  -24.3229  -23.6914   21.6621 C   0  0  1  0  0  0  0  0  0  0  0  0
  -25.5176  -27.0529   22.9682 C   0  0  1  0  0  0  0  0  0  0  0  0
  -30.0421  -17.0590   21.2719 C   0  0  2  0  0  0  0  0  0  0  0  0
  -26.6875  -24.0186   16.5376 C   0  0  0  0  0  0  0  0  0  0  0  0
  -23.4285  -34.5117   23.0401 C   0  0  0  0  0  0  0  0  0  0  0  0
  -33.3748  -28.4636   20.2761 C   0  0  0  0  0  0  0  0  0  0  0  0
  -22.6802  -28.8024   19.7669 C   0  0  0  0  0  0  0  0  0  0  0  0
  -22.3514  -31.2828   19.8566 C   0  0  0  0  0  0  0  0  0  0  0  0
  -21.2768  -29.8212   21.5688 C   0  0  0  0  0  0  0  0  0  0  0  0
  -26.3947  -32.9659   24.8535 C   0  0  0  0  0  0  0  0  0  0  0  0
  -30.8598  -26.8945   17.7405 C   0  0  0  0  0  0  0  0  0  0  0  0
  -32.1433  -27.5259   18.2865 C   0  0  0  0  0  0  0  0  0  0  0  0
  -23.7766  -30.1907   21.6474 C   0  0  1  0  0  0  0  0  0  0  0  0
  -24.2533  -33.3820   23.6369 C   0  0  2  0  0  0  0  0  0  0  0  0
  -32.0807  -27.8237   19.7897 C   0  0  2  0  0  0  0  0  0  1  0  0
  -22.5473  -30.0130   20.7122 C   0  0  0  0  0  0  0  0  0  0  0  0
  -28.1765  -15.4633   21.0380 N   0  0  0  0  0  0  0  0  0  0  0  0
  -29.2225  -23.0050   19.1435 N   0  0  0  0  0  0  0  0  0  0  0  0
  -29.4648  -15.7451   20.7793 N   0  0  0  0  0  0  0  0  0  0  0  0
  -25.2828  -28.3493   22.3290 N   0  0  0  0  0  0  0  0  0  0  0  0
  -29.6000  -19.4322   21.7646 N   0  0  0  0  0  0  0  0  0  0  0  0
  -31.4115  -14.8931   19.7328 N   0  0  0  0  0  0  0  0  0  0  0  0
  -28.3472  -11.6507   19.0309 N   0  0  0  0  0  0  0  0  0  0  0  0
  -29.3264  -25.0539   17.8529 N   0  0  0  0  0  0  0  0  0  0  0  0
  -28.6352  -20.8423   20.1388 N   0  0  0  0  0  0  0  0  0  0  0  0
  -24.6881  -24.8341   22.4716 N   0  0  0  0  0  0  0  0  0  0  0  0
  -23.6664  -31.3135   22.5724 N   0  0  0  0  0  0  0  0  0  0  0  0
  -25.4993  -33.9629   24.2122 N   0  3  0  0  0  0  0  0  0  0  0  0
  -30.5303  -12.2573   18.6778 O   0  0  0  0  0  0  0  0  0  0  0  0
  -25.4390  -26.2223   20.7594 O   0  0  0  0  0  0  0  0  0  0  0  0
  -23.1674  -28.5827   23.2813 O   0  0  0  0  0  0  0  0  0  0  0  0
  -31.2018  -25.0587   19.2655 O   0  0  0  0  0  0  0  0  0  0  0  0
  -25.5794  -32.4158   21.8634 O   0  0  0  0  0  0  0  0  0  0  0  0
  -30.5933  -21.4487   21.2250 O   0  0  0  0  0  0  0  0  0  0  0  0
  -23.0394  -11.7138   20.7217 O   0  0  0  0  0  0  0  0  0  0  0  0
  -31.0005  -28.7209   20.0438 O   0  0  0  0  0  0  0  0  0  1  0  0
  -22.9676   -6.3542   22.0157 F   0  0  0  0  0  0  0  0  0  0  0  0
  -21.6876  -10.8127   22.9585 F   0  0  0  0  0  0  0  0  0  0  0  0
  -27.0715  -21.8806   18.2540 S   0  0  0  0  0  0  0  0  0  0  0  0
  1  2  1  0  0  0  0
  1  5  2  0  0  0  0
  2  6  2  0  0  0  0
  3  8  2  0  0  0  0
  3 15  1  0  0  0  0
  4  9  1  0  0  0  0
  4 15  2  0  0  0  0
  5 17  1  0  0  0  0
  6 19  1  0  0  0  0
  7 10  2  0  0  0  0
  7 18  1  0  0  0  0
  8 21  1  0  0  0  0
  9 21  2  0  0  0  0
 10 22  1  0  0  0  0
 11 12  2  0  0  0  0
 11 23  1  0  0  0  0
 12 24  1  0  0  0  0
 13 20  1  0  0  0  0
 13 22  2  0  0  0  0
 14 24  2  0  0  0  0
 14 25  1  0  0  0  0
 15 26  1  0  0  0  0
 16 26  1  0  0  0  0
 16 29  2  0  0  0  0
 16 31  1  0  0  0  0
 17 19  2  0  0  0  0
 17 37  1  0  0  0  0
 18 20  2  0  0  0  0
 18 38  1  0  0  0  0
 19 46  1  0  0  0  0
 20 39  1  0  0  0  0
 21 80  1  0  0  0  0
 22 81  1  0  0  0  0
 23 25  2  0  0  0  0
 23 80  1  0  0  0  0
 24 82  1  0  0  0  0
 25 83  1  0  0  0  0
 26 62  2  0  0  0  0
 27 28  2  0  0  0  0
 27 49  1  0  0  0  0
 27 84  1  0  0  0  0
 28 63  1  0  0  0  0
 28 69  1  0  0  0  0
 29 64  1  0  0  0  0
 29 67  1  0  0  0  0
 30 63  2  0  0  0  0
 30 70  1  0  0  0  0
 30 84  1  0  0  0  0
 31 68  1  0  0  0  0
 31 74  2  0  0  0  0
 32 47  1  0  0  0  0
 32 71  1  0  0  0  0
 32 75  2  0  0  0  0
 33 58  1  0  0  0  0
 33 65  1  0  0  0  0
 33 76  2  0  0  0  0
 34 56  1  0  0  0  0
 34 69  1  0  0  0  0
 34 77  2  0  0  0  0
 35 59  1  0  0  0  0
 35 72  1  0  0  0  0
 35 78  2  0  0  0  0
 36 66  1  0  0  0  0
 36 70  1  0  0  0  0
 36 79  2  0  0  0  0
 37 40  1  0  0  0  0
 38 47  1  0  0  0  0
 39 65  1  0  0  0  0
 40 42  1  0  0  0  0
 41 43  1  0  0  0  0
 41 44  1  0  0  0  0
 42 46  1  0  0  0  0
 43 48  1  0  0  0  0
 44 66  1  0  0  0  0
 45 48  1  0  0  0  0
 45 66  1  0  0  0  0
 46 71  1  0  0  0  0
 47 65  1  0  0  0  0
 48 64  1  0  0  0  0
 50 59  1  0  0  0  0
 51 60  1  0  0  0  0
 52 61  1  0  0  0  0
 53 61  1  0  0  0  0
 54 61  1  0  0  0  0
 55 73  1  0  0  0  0
 56 57  1  0  0  0  0
 57 60  1  0  0  0  0
 58 61  1  0  0  0  0
 58 72  1  0  0  0  0
 59 73  1  0  0  0  0
 60 81  1  0  0  0  0
 62 64  1  0  0  0  0
M  CHG  1  73   1
M  ISO  4  36 100  60 101  70 100  81 101
M  END
> <Batch ID>
0181

> <Smiles>
CNC(C)C(=O)NC(C(=O)N1Cc2cc([101O:1][101CH:1](C)CCC(=O)Nc3nc([100NH:0][100C:0](=O)N4CCCC(n5nc(-c6ccc(Oc7ccc(F)cc7F)cc6)c(C(N)=O)c5N)C4)sc3C)ccc2CC1C(=O)NC1CCCc2ccccc21)C(C)(C)C

> <Shape>
0.297

> <Color>
0.118

> <Negative vol penalty>
0.000

$$$$

  -OEChem-04052304533D

 87 95  0     1  0  0  0  0  0999 V2000
  -28.2428  -33.7302   26.6506 C   0  0  0  0  0  0  0  0  0  0  0  0
  -28.3757  -32.5429   25.9379 C   0  0  0  0  0  0  0  0  0  0  0  0
  -24.6829   -9.2383   21.2712 C   0  0  0  0  0  0  0  0  0  0  0  0
  -24.8010  -10.3055   23.4356 C   0  0  0  0  0  0  0  0  0  0  0  0
  -26.9738  -34.2301   26.9397 C   0  0  0  0  0  0  0  0  0  0  0  0
  -27.2395  -31.8542   25.5147 C   0  0  0  0  0  0  0  0  0  0  0  0
  -27.6057  -30.2620   20.7214 C   0  0  0  0  0  0  0  0  0  0  0  0
  -24.4659   -8.0073   21.8900 C   0  0  0  0  0  0  0  0  0  0  0  0
  -24.5839   -9.0744   24.0544 C   0  0  0  0  0  0  0  0  0  0  0  0
  -28.3748  -29.1233   20.4857 C   0  0  0  0  0  0  0  0  0  0  0  0
  -21.8880   -6.3679   23.3391 C   0  0  0  0  0  0  0  0  0  0  0  0
  -20.8814   -5.5516   22.8232 C   0  0  0  0  0  0  0  0  0  0  0  0
  -26.3646  -27.7937   20.3846 C   0  0  0  0  0  0  0  0  0  0  0  0
  -28.6037  -20.3000   20.5623 C   0  0  0  0  0  0  0  0  0  0  0  0
  -22.5111   -3.8254   22.3746 C   0  0  0  0  0  0  0  0  0  0  0  0
  -24.8505  -10.3875   22.0440 C   0  0  0  0  0  0  0  0  0  0  0  0
  -24.1010  -12.5908   20.9995 C   0  0  0  0  0  0  0  0  0  0  0  0
  -25.8215  -33.5522   26.5115 C   0  0  0  0  0  0  0  0  0  0  0  0
  -26.2085  -30.1731   20.8014 C   0  0  0  0  0  0  0  0  0  0  0  0
  -25.9538  -32.3448   25.7995 C   0  0  0  0  0  0  0  0  0  0  0  0
  -25.5798  -28.9331   20.6188 C   0  0  0  0  0  0  0  0  0  0  0  0
  -27.9876  -21.5772   20.7017 C   0  0  0  0  0  0  0  0  0  0  0  0
  -24.4163   -7.9253   23.2816 C   0  0  0  0  0  0  0  0  0  0  0  0
  -27.7545  -27.8884   20.3201 C   0  0  0  0  0  0  0  0  0  0  0  0
  -23.2062   -5.9129   23.3726 C   0  0  0  0  0  0  0  0  0  0  0  0
  -21.1929   -4.2804   22.3411 C   0  0  0  0  0  0  0  0  0  0  0  0
  -23.5177   -4.6417   22.8904 C   0  0  0  0  0  0  0  0  0  0  0  0
  -25.0754  -11.6594   21.4054 C   0  0  0  0  0  0  0  0  0  0  0  0
  -26.6931  -21.4797   21.1623 C   0  0  0  0  0  0  0  0  0  0  0  0
  -24.8210  -13.6242   20.4516 C   0  0  0  0  0  0  0  0  0  0  0  0
  -27.7564  -19.2749   20.9218 C   0  0  0  0  0  0  0  0  0  0  0  0
  -22.6727  -12.5276   21.1080 C   0  0  0  0  0  0  0  0  0  0  0  0
  -30.2322  -24.4383   19.7356 C   0  0  0  0  0  0  0  0  0  0  0  0
  -29.9028  -22.9872   19.9359 C   0  0  0  0  0  0  0  0  0  0  0  0
  -24.0494  -30.7571   23.0599 C   0  0  0  0  0  0  0  0  0  0  0  0
  -21.9496  -30.1362   20.6666 C   0  0  0  0  0  0  0  0  0  0  0  0
  -21.3323  -28.6099   17.6773 C   0  0  0  0  0  0  0  0  0  0  0  0
  -29.1068  -17.1768   20.5740 C   0  0  0  0  0  0  0  0  0  0  0  0
  -24.4707  -34.1068   26.8887 C   0  0  0  0  0  0  0  0  0  0  0  0
  -25.3914  -31.4151   21.0297 C   0  0  0  0  0  0  0  0  0  0  0  0
  -24.0818  -28.7875   20.6753 C   0  0  0  0  0  0  0  0  0  0  0  0
  -23.3206  -33.5119   26.0801 C   0  0  0  0  0  0  0  0  0  0  0  0
  -29.7227  -13.9384   19.2284 C   0  0  0  0  0  0  0  0  0  0  0  0
  -23.4481  -31.9936   26.0081 C   0  0  0  0  0  0  0  0  0  0  0  0
  -28.4884  -13.1334   19.6414 C   0  0  0  0  0  0  0  0  0  0  0  0
  -30.1400  -14.9322   20.3110 C   0  0  0  0  0  0  0  0  0  0  0  0
  -27.8395  -15.0243   21.1876 C   0  0  0  0  0  0  0  0  0  0  0  0
  -24.7454  -31.5817   25.3019 C   0  0  1  0  0  0  0  0  0  0  0  0
  -24.0082  -31.1234   21.6033 C   0  0  1  0  0  0  0  0  0  0  0  0
  -27.3425  -14.0555   20.1022 C   0  0  2  0  0  0  0  0  0  0  0  0
  -19.5119  -28.2503   15.9879 C   0  0  0  0  0  0  0  0  0  0  0  0
  -25.4133  -23.4036   20.1590 C   0  0  0  0  0  0  0  0  0  0  0  0
  -26.2474  -23.5482   22.5296 C   0  0  0  0  0  0  0  0  0  0  0  0
  -24.3138  -22.0919   21.9624 C   0  0  0  0  0  0  0  0  0  0  0  0
  -20.6458  -28.0852   22.5115 C   0  0  0  0  0  0  0  0  0  0  0  0
  -19.4967  -27.1175   20.5087 C   0  0  0  0  0  0  0  0  0  0  0  0
  -19.0372  -29.4724   21.1915 C   0  0  0  0  0  0  0  0  0  0  0  0
  -22.8824  -29.9598   15.5481 C   0  0  0  0  0  0  0  0  0  0  0  0
  -30.1987  -25.3113   20.9708 C   0  0  0  0  0  0  0  0  0  0  0  0
  -29.8152  -26.7481   20.6506 C   0  0  0  0  0  0  0  0  0  1  0  0
  -21.2638  -28.8986   20.1403 C   0  0  1  0  0  0  0  0  0  0  0  0
  -20.6899  -29.1195   16.3998 C   0  0  2  0  0  0  0  0  0  0  0  0
  -25.7179  -22.5592   21.4398 C   0  0  0  0  0  0  0  0  0  0  0  0
  -20.1392  -28.3955   21.0888 C   0  0  0  0  0  0  0  0  0  0  0  0
  -26.3195  -12.0651   21.1381 N   0  0  0  0  0  0  0  0  0  0  0  0
  -26.1318  -13.2628   20.5582 N   0  0  0  0  0  0  0  0  0  0  0  0
  -23.3268  -30.0300   20.9072 N   0  0  0  0  0  0  0  0  0  0  0  0
  -29.0051  -15.7747   20.6944 N   0  0  0  0  0  0  0  0  0  0  0  0
  -24.4545  -14.7976   19.8939 N   0  0  0  0  0  0  0  0  0  0  0  0
  -22.0970  -11.3940   21.6976 N   0  0  0  0  0  0  0  0  0  0  0  0
  -28.6196  -22.8073   20.4056 N   0  0  0  0  0  0  0  0  0  0  0  0
  -27.9536  -17.8718   20.9372 N   0  0  0  0  0  0  0  0  0  0  0  0
  -24.6090  -31.7279   23.8685 N   0  0  0  0  0  0  0  0  0  0  0  0
  -20.8078  -29.2260   18.7938 N   0  0  0  0  0  0  0  0  0  0  0  0
  -21.6818  -29.1246   15.2876 N   0  3  0  0  0  0  0  0  0  0  0  0
  -21.9283  -13.4419   20.6796 O   0  0  0  0  0  0  0  0  0  0  0  0
  -30.5108  -24.7974   18.6016 O   0  0  0  0  0  0  0  0  0  0  0  0
  -30.7727  -22.1840   19.6425 O   0  0  0  0  0  0  0  0  0  0  0  0
  -23.6049  -29.6745   23.4235 O   0  0  0  0  0  0  0  0  0  0  0  0
  -21.2890  -31.1617   20.8506 O   0  0  0  0  0  0  0  0  0  0  0  0
  -22.2089  -27.7485   17.6844 O   0  0  0  0  0  0  0  0  0  0  0  0
  -30.1313  -17.7193   20.1521 O   0  0  0  0  0  0  0  0  0  0  0  0
  -24.2043   -6.7242   23.8857 O   0  0  0  0  0  0  0  0  0  0  0  0
  -28.5030  -26.7753   20.0906 O   0  0  0  0  0  0  0  0  0  1  0  0
  -20.2260   -3.4960   21.8472 F   0  0  0  0  0  0  0  0  0  0  0  0
  -24.7821   -4.1987   22.9212 F   0  0  0  0  0  0  0  0  0  0  0  0
  -26.2252  -19.8535   21.4247 S   0  0  0  0  0  0  0  0  0  0  0  0
  1  2  1  0  0  0  0
  1  5  2  0  0  0  0
  2  6  2  0  0  0  0
  3  8  2  0  0  0  0
  3 16  1  0  0  0  0
  4  9  1  0  0  0  0
  4 16  2  0  0  0  0
  5 18  1  0  0  0  0
  6 20  1  0  0  0  0
  7 10  2  0  0  0  0
  7 19  1  0  0  0  0
  8 23  1  0  0  0  0
  9 23  2  0  0  0  0
 10 24  1  0  0  0  0
 11 12  2  0  0  0  0
 11 25  1  0  0  0  0
 12 26  1  0  0  0  0
 13 21  1  0  0  0  0
 13 24  2  0  0  0  0
 14 22  1  0  0  0  0
 14 31  2  0  0  0  0
 15 26  2  0  0  0  0
 15 27  1  0  0  0  0
 16 28  1  0  0  0  0
 17 28  1  0  0  0  0
 17 30  2  0  0  0  0
 17 32  1  0  0  0  0
 18 20  2  0  0  0  0
 18 39  1  0  0  0  0
 19 21  2  0  0  0  0
 19 40  1  0  0  0  0
 20 48  1  0  0  0  0
 21 41  1  0  0  0  0
 22 29  2  0  0  0  0
 22 71  1  0  0  0  0
 23 83  1  0  0  0  0
 24 84  1  0  0  0  0
 25 27  2  0  0  0  0
 25 83  1  0  0  0  0
 26 85  1  0  0  0  0
 27 86  1  0  0  0  0
 28 65  2  0  0  0  0
 29 63  1  0  0  0  0
 29 87  1  0  0  0  0
 30 66  1  0  0  0  0
 30 69  1  0  0  0  0
 31 72  1  0  0  0  0
 31 87  1  0  0  0  0
 32 70  1  0  0  0  0
 32 76  2  0  0  0  0
 33 34  1  0  0  0  0
 33 59  1  0  0  0  0
 33 77  2  0  0  0  0
 34 71  1  0  0  0  0
 34 78  2  0  0  0  0
 35 49  1  0  0  0  0
 35 73  1  0  0  0  0
 35 79  2  0  0  0  0
 36 61  1  0  0  0  0
 36 67  1  0  0  0  0
 36 80  2  0  0  0  0
 37 62  1  0  0  0  0
 37 74  1  0  0  0  0
 37 81  2  0  0  0  0
 38 68  1  0  0  0  0
 38 72  1  0  0  0  0
 38 82  2  0  0  0  0
 39 42  1  0  0  0  0
 40 49  1  0  0  0  0
 41 67  1  0  0  0  0
 42 44  1  0  0  0  0
 43 45  1  0  0  0  0
 43 46  1  0  0  0  0
 44 48  1  0  0  0  0
 45 50  1  0  0  0  0
 46 68  1  0  0  0  0
 47 50  1  0  0  0  0
 47 68  1  0  0  0  0
 48 73  1  0  0  0  0
 49 67  1  0  0  0  0
 50 66  1  0  0  0  0
 51 62  1  0  0  0  0
 52 63  1  0  0  0  0
 53 63  1  0  0  0  0
 54 63  1  0  0  0  0
 55 64  1  0  0  0  0
 56 64  1  0  0  0  0
 57 64  1  0  0  0  0
 58 75  1  0  0  0  0
 59 60  1  0  0  0  0
 60 84  1  0  0  0  0
 61 64  1  0  0  0  0
 61 74  1  0  0  0  0
 62 75  1  0  0  0  0
 65 66  1  0  0  0  0
M  CHG  1  75   1
M  ISO  4  38 100  60 101  72 100  84 101
M  END
> <Batch ID>
0181

> <Smiles>
CNC(C)C(=O)NC(C(=O)N1Cc2cc([101O:1][101CH2:1]CC(=O)C(=O)Nc3cc([100NH:0][100C:0](=O)N4CCCC(n5nc(-c6ccc(Oc7ccc(F)cc7F)cc6)c(C(N)=O)c5N)C4)sc3C(C)(C)C)ccc2CC1C(=O)NC1CCCc2ccccc21)C(C)(C)C

> <Shape>
0.357

> <Color>
0.131

> <Negative vol penalty>
0.000

$$$$

  -OEChem-04052304533D

 87 95  0     1  0  0  0  0  0999 V2000
  -21.0284  -18.7304   24.5016 C   0  0  0  0  0  0  0  0  0  0  0  0
  -22.3491  -19.1607   24.5778 C   0  0  0  0  0  0  0  0  0  0  0  0
  -25.7550  -14.0661   21.4761 C   0  0  0  0  0  0  0  0  0  0  0  0
  -25.0730  -14.8033   19.2788 C   0  0  0  0  0  0  0  0  0  0  0  0
  -20.1564  -19.3190   23.5866 C   0  0  0  0  0  0  0  0  0  0  0  0
  -22.7990  -20.1792   23.7384 C   0  0  0  0  0  0  0  0  0  0  0  0
  -27.3882  -25.6779   23.5955 C   0  0  0  0  0  0  0  0  0  0  0  0
  -24.7059  -13.1471   21.4935 C   0  0  0  0  0  0  0  0  0  0  0  0
  -24.0238  -13.8843   19.2961 C   0  0  0  0  0  0  0  0  0  0  0  0
  -28.4252  -26.1954   22.8207 C   0  0  0  0  0  0  0  0  0  0  0  0
  -22.4244  -10.3564   21.9648 C   0  0  0  0  0  0  0  0  0  0  0  0
  -22.7028   -9.0627   22.4057 C   0  0  0  0  0  0  0  0  0  0  0  0
  -26.8086  -27.1930   21.3340 C   0  0  0  0  0  0  0  0  0  0  0  0
  -24.3194   -8.8050   20.6289 C   0  0  0  0  0  0  0  0  0  0  0  0
  -30.3894  -22.5838   16.3526 C   0  0  0  0  0  0  0  0  0  0  0  0
  -25.9385  -14.8943   20.3688 C   0  0  0  0  0  0  0  0  0  0  0  0
  -28.3294  -15.6334   19.8737 C   0  0  0  0  0  0  0  0  0  0  0  0
  -20.5932  -20.3518   22.7422 C   0  0  0  0  0  0  0  0  0  0  0  0
  -26.0512  -25.9053   23.2387 C   0  0  0  0  0  0  0  0  0  0  0  0
  -21.9324  -20.7812   22.8103 C   0  0  0  0  0  0  0  0  0  0  0  0
  -25.7564  -26.6795   22.1074 C   0  0  0  0  0  0  0  0  0  0  0  0
  -23.8403  -13.0562   20.4034 C   0  0  0  0  0  0  0  0  0  0  0  0
  -28.1356  -26.9506   21.6881 C   0  0  0  0  0  0  0  0  0  0  0  0
  -23.0935  -10.8745   20.8559 C   0  0  0  0  0  0  0  0  0  0  0  0
  -23.6503   -8.2870   21.7378 C   0  0  0  0  0  0  0  0  0  0  0  0
  -24.0410  -10.0988   20.1880 C   0  0  0  0  0  0  0  0  0  0  0  0
  -31.2664  -23.3137   15.5580 C   0  0  0  0  0  0  0  0  0  0  0  0
  -31.9752  -24.3755   16.1088 C   0  0  0  0  0  0  0  0  0  0  0  0
  -27.0218  -15.8443   20.3505 C   0  0  0  0  0  0  0  0  0  0  0  0
  -30.2581  -22.9531   17.6816 C   0  0  0  0  0  0  0  0  0  0  0  0
  -31.7727  -24.6647   17.4486 C   0  0  0  0  0  0  0  0  0  0  0  0
  -28.9667  -16.8329   20.0774 C   0  0  0  0  0  0  0  0  0  0  0  0
  -28.9156  -14.4583   19.2980 C   0  0  0  0  0  0  0  0  0  0  0  0
  -23.6035  -24.0528   22.4138 C   0  0  0  0  0  0  0  0  0  0  0  0
  -31.0563  -26.8881   19.5544 C   0  0  0  0  0  0  0  0  0  0  0  0
  -21.9577  -26.8461   22.5207 C   0  0  0  0  0  0  0  0  0  0  0  0
  -22.0185  -30.2534   22.3380 C   0  0  0  0  0  0  0  0  0  0  0  0
  -29.0741  -22.3946   19.8340 C   0  0  0  0  0  0  0  0  0  0  0  0
  -19.6265  -20.9251   21.7365 C   0  0  0  0  0  0  0  0  0  0  0  0
  -24.9440  -25.3626   24.1001 C   0  0  0  0  0  0  0  0  0  0  0  0
  -24.3378  -26.9695   21.6928 C   0  0  0  0  0  0  0  0  0  0  0  0
  -20.0828  -22.2553   21.1427 C   0  0  0  0  0  0  0  0  0  0  0  0
  -27.5289  -20.9257   22.6856 C   0  0  0  0  0  0  0  0  0  0  0  0
  -21.5483  -22.1793   20.7262 C   0  0  0  0  0  0  0  0  0  0  0  0
  -27.3668  -19.4554   22.2931 C   0  0  0  0  0  0  0  0  0  0  0  0
  -27.3065  -21.8581   21.4961 C   0  0  0  0  0  0  0  0  0  0  0  0
  -27.9515  -20.0819   19.9156 C   0  0  0  0  0  0  0  0  0  0  0  0
  -22.4513  -21.9004   21.9338 C   0  0  1  0  0  0  0  0  0  0  0  0
  -23.6202  -25.2243   23.3546 C   0  0  1  0  0  0  0  0  0  0  0  0
  -28.2300  -19.1012   21.0664 C   0  0  2  0  0  0  0  0  0  0  0  0
  -20.5112  -32.2579   22.4242 C   0  0  0  0  0  0  0  0  0  0  0  0
  -33.7106  -28.3105   19.0371 C   0  0  0  0  0  0  0  0  0  0  0  0
  -34.8920  -26.1901   19.6708 C   0  0  0  0  0  0  0  0  0  0  0  0
  -21.0034  -26.2475   19.6850 C   0  0  0  0  0  0  0  0  0  0  0  0
  -20.3202  -28.6477   19.4829 C   0  0  0  0  0  0  0  0  0  0  0  0
  -19.2493  -27.1881   21.1992 C   0  0  0  0  0  0  0  0  0  0  0  0
  -23.4054  -31.3387   24.7165 C   0  0  0  0  0  0  0  0  0  0  0  0
  -30.3653  -26.7159   20.8949 C   0  0  0  0  0  0  0  0  0  1  0  0
  -32.3744  -26.1411   19.3680 C   0  0  2  0  0  0  0  0  0  0  0  0
  -21.6410  -27.9389   21.5285 C   0  0  1  0  0  0  0  0  0  0  0  0
  -21.4025  -31.3208   23.2243 C   0  0  2  0  0  0  0  0  0  0  0  0
  -33.5892  -26.9865   19.7995 C   0  0  0  0  0  0  0  0  0  0  0  0
  -20.5803  -27.4986   20.4804 C   0  0  0  0  0  0  0  0  0  0  0  0
  -26.8378  -17.0804   20.8218 N   0  0  0  0  0  0  0  0  0  0  0  0
  -30.9295  -23.9784   18.2521 N   0  0  0  0  0  0  0  0  0  0  0  0
  -28.0384  -17.6571   20.6422 N   0  0  0  0  0  0  0  0  0  0  0  0
  -23.2901  -26.4117   22.5638 N   0  0  0  0  0  0  0  0  0  0  0  0
  -28.1604  -21.4645   20.3733 N   0  0  0  0  0  0  0  0  0  0  0  0
  -30.2251  -17.2524   19.8268 N   0  0  0  0  0  0  0  0  0  0  0  0
  -28.1196  -13.3129   19.1616 N   0  0  0  0  0  0  0  0  0  0  0  0
  -29.3620  -22.2030   18.4831 N   0  0  0  0  0  0  0  0  0  0  0  0
  -32.4831  -25.7231   17.9852 N   0  0  0  0  0  0  0  0  0  0  0  0
  -22.6420  -23.1060   22.7114 N   0  0  0  0  0  0  0  0  0  0  0  0
  -21.2551  -29.1053   22.3154 N   0  0  0  0  0  0  0  0  0  0  0  0
  -22.4694  -32.1306   23.8777 N   0  3  0  0  0  0  0  0  0  0  0  0
  -30.1145  -14.4201   18.9310 O   0  0  0  0  0  0  0  0  0  0  0  0
  -24.4027  -24.0117   21.4858 O   0  0  0  0  0  0  0  0  0  0  0  0
  -30.5732  -27.5965   18.6703 O   0  0  0  0  0  0  0  0  0  0  0  0
  -21.0576  -26.3994   23.2362 O   0  0  0  0  0  0  0  0  0  0  0  0
  -23.0696  -30.4226   21.7239 O   0  0  0  0  0  0  0  0  0  0  0  0
  -29.5859  -23.2780   20.5266 O   0  0  0  0  0  0  0  0  0  0  0  0
  -22.8166  -12.1593   20.4199 O   0  0  0  0  0  0  0  0  0  0  0  0
  -29.1459  -27.4564   20.9296 O   0  0  0  0  0  0  0  0  0  1  0  0
  -23.9186   -7.0452   22.1622 F   0  0  0  0  0  0  0  0  0  0  0  0
  -24.6879  -10.5914   19.1227 F   0  0  0  0  0  0  0  0  0  0  0  0
  -31.4278  -22.9952   14.2672 F   0  0  0  0  0  0  0  0  0  0  0  0
  -32.8231  -25.0871   15.3553 F   0  0  0  0  0  0  0  0  0  0  0  0
  1  2  1  0  0  0  0
  1  5  2  0  0  0  0
  2  6  2  0  0  0  0
  3  8  2  0  0  0  0
  3 16  1  0  0  0  0
  4  9  1  0  0  0  0
  4 16  2  0  0  0  0
  5 18  1  0  0  0  0
  6 20  1  0  0  0  0
  7 10  2  0  0  0  0
  7 19  1  0  0  0  0
  8 22  1  0  0  0  0
  9 22  2  0  0  0  0
 10 23  1  0  0  0  0
 11 12  2  0  0  0  0
 11 24  1  0  0  0  0
 12 25  1  0  0  0  0
 13 21  1  0  0  0  0
 13 23  2  0  0  0  0
 14 25  2  0  0  0  0
 14 26  1  0  0  0  0
 15 27  2  0  0  0  0
 15 30  1  0  0  0  0
 16 29  1  0  0  0  0
 17 29  1  0  0  0  0
 17 32  2  0  0  0  0
 17 33  1  0  0  0  0
 18 20  2  0  0  0  0
 18 39  1  0  0  0  0
 19 21  2  0  0  0  0
 19 40  1  0  0  0  0
 20 48  1  0  0  0  0
 21 41  1  0  0  0  0
 22 82  1  0  0  0  0
 23 83  1  0  0  0  0
 24 26  2  0  0  0  0
 24 82  1  0  0  0  0
 25 84  1  0  0  0  0
 26 85  1  0  0  0  0
 27 28  1  0  0  0  0
 27 86  1  0  0  0  0
 28 31  2  0  0  0  0
 28 87  1  0  0  0  0
 29 64  2  0  0  0  0
 30 65  2  0  0  0  0
 30 71  1  0  0  0  0
 31 65  1  0  0  0  0
 31 72  1  0  0  0  0
 32 66  1  0  0  0  0
 32 69  1  0  0  0  0
 33 70  1  0  0  0  0
 33 76  2  0  0  0  0
 34 49  1  0  0  0  0
 34 73  1  0  0  0  0
 34 77  2  0  0  0  0
 35 58  1  0  0  0  0
 35 59  1  0  0  0  0
 35 78  2  0  0  0  0
 36 60  1  0  0  0  0
 36 67  1  0  0  0  0
 36 79  2  0  0  0  0
 37 61  1  0  0  0  0
 37 74  1  0  0  0  0
 37 80  2  0  0  0  0
 38 68  1  0  0  0  0
 38 71  1  0  0  0  0
 38 81  2  0  0  0  0
 39 42  1  0  0  0  0
 40 49  1  0  0  0  0
 41 67  1  0  0  0  0
 42 44  1  0  0  0  0
 43 45  1  0  0  0  0
 43 46  1  0  0  0  0
 44 48  1  0  0  0  0
 45 50  1  0  0  0  0
 46 68  1  0  0  0  0
 47 50  1  0  0  0  0
 47 68  1  0  0  0  0
 48 73  1  0  0  0  0
 49 67  1  0  0  0  0
 50 66  1  0  0  0  0
 51 61  1  0  0  0  0
 52 62  1  0  0  0  0
 53 62  1  0  0  0  0
 54 63  1  0  0  0  0
 55 63  1  0  0  0  0
 56 63  1  0  0  0  0
 57 75  1  0  0  0  0
 58 83  1  0  0  0  0
 59 62  1  0  0  0  0
 59 72  1  0  0  0  0
 60 63  1  0  0  0  0
 60 74  1  0  0  0  0
 61 75  1  0  0  0  0
 64 66  1  0  0  0  0
M  CHG  1  75   1
M  ISO  4  38 100  58 101  71 100  83 101
M  END
> <Batch ID>
0181

> <Smiles>
CNC(C)C(=O)NC(C(=O)N1Cc2cc([101O:1][101CH2:1]C(=O)C(Nc3nc([100NH:0][100C:0](=O)N4CCCC(n5nc(-c6ccc(Oc7ccc(F)cc7F)cc6)c(C(N)=O)c5N)C4)cc(F)c3F)C(C)C)ccc2CC1C(=O)NC1CCCc2ccccc21)C(C)(C)C

> <Shape>
0.234

> <Color>
0.054

> <Negative vol penalty>
0.000

$$$$

  -OEChem-04052304533D

 86 94  0     1  0  0  0  0  0999 V2000
  -30.5612  -20.3004   23.6286 C   0  0  0  0  0  0  0  0  0  0  0  0
  -31.5728  -24.4218   10.7941 C   0  0  0  0  0  0  0  0  0  0  0  0
  -32.2591  -23.9781   11.9199 C   0  0  0  0  0  0  0  0  0  0  0  0
  -23.0015   -9.8877   19.9798 C   0  0  0  0  0  0  0  0  0  0  0  0
  -23.7287   -9.9383   22.2832 C   0  0  0  0  0  0  0  0  0  0  0  0
  -31.0424  -25.7109   10.7655 C   0  0  0  0  0  0  0  0  0  0  0  0
  -32.4163  -24.8237   13.0175 C   0  0  0  0  0  0  0  0  0  0  0  0
  -31.4951  -22.4896   17.4161 C   0  0  0  0  0  0  0  0  0  0  0  0
  -22.2374   -8.7516   20.2459 C   0  0  0  0  0  0  0  0  0  0  0  0
  -22.9645   -8.8021   22.5493 C   0  0  0  0  0  0  0  0  0  0  0  0
  -32.4973  -21.6615   17.9196 C   0  0  0  0  0  0  0  0  0  0  0  0
  -23.2147   -5.4640   22.0746 C   0  0  0  0  0  0  0  0  0  0  0  0
  -23.8049   -4.4474   22.8254 C   0  0  0  0  0  0  0  0  0  0  0  0
  -33.1869  -23.4192   19.4210 C   0  0  0  0  0  0  0  0  0  0  0  0
  -22.0821   -4.6857   24.5024 C   0  0  0  0  0  0  0  0  0  0  0  0
  -30.7253  -19.0744   22.9238 C   0  0  0  0  0  0  0  0  0  0  0  0
  -23.7472  -10.4811   20.9984 C   0  0  0  0  0  0  0  0  0  0  0  0
  -24.1276  -12.9975   20.8240 C   0  0  0  0  0  0  0  0  0  0  0  0
  -31.1848  -26.5694   11.8670 C   0  0  0  0  0  0  0  0  0  0  0  0
  -31.3379  -23.7947   17.9044 C   0  0  0  0  0  0  0  0  0  0  0  0
  -31.8885  -26.1260   13.0030 C   0  0  0  0  0  0  0  0  0  0  0  0
  -32.1802  -24.2610   18.9238 C   0  0  0  0  0  0  0  0  0  0  0  0
  -22.2188   -8.2088   21.5307 C   0  0  0  0  0  0  0  0  0  0  0  0
  -33.3453  -22.1273   18.9202 C   0  0  0  0  0  0  0  0  0  0  0  0
  -22.0583   -6.0916   22.5377 C   0  0  0  0  0  0  0  0  0  0  0  0
  -23.2386   -4.0582   24.0392 C   0  0  0  0  0  0  0  0  0  0  0  0
  -21.4919   -5.7024   23.7516 C   0  0  0  0  0  0  0  0  0  0  0  0
  -24.5372  -11.6544   20.7240 C   0  0  0  0  0  0  0  0  0  0  0  0
  -31.8322  -18.6729   22.2056 C   0  0  0  0  0  0  0  0  0  0  0  0
  -25.2356  -13.7225   20.4592 C   0  0  0  0  0  0  0  0  0  0  0  0
  -30.5731  -16.9058   21.8862 C   0  0  0  0  0  0  0  0  0  0  0  0
  -22.8589  -13.5412   21.2121 C   0  0  0  0  0  0  0  0  0  0  0  0
  -31.5267  -26.7026   16.6348 C   0  0  0  0  0  0  0  0  0  0  0  0
  -30.4745  -27.6243   19.5615 C   0  0  0  0  0  0  0  0  0  0  0  0
  -30.1889  -26.9261   22.8898 C   0  0  0  0  0  0  0  0  0  0  0  0
  -34.1625  -19.1073   21.3473 C   0  0  0  0  0  0  0  0  0  0  0  0
  -30.7135  -14.6937   20.6890 C   0  0  0  0  0  0  0  0  0  0  0  0
  -30.6352  -27.9706   11.7711 C   0  0  0  0  0  0  0  0  0  0  0  0
  -30.2348  -24.6661   17.3695 C   0  0  0  0  0  0  0  0  0  0  0  0
  -32.0402  -25.6470   19.4963 C   0  0  0  0  0  0  0  0  0  0  0  0
  -30.5213  -28.6738   13.1212 C   0  0  0  0  0  0  0  0  0  0  0  0
  -29.5977  -12.2407   18.3620 C   0  0  0  0  0  0  0  0  0  0  0  0
  -31.8015  -28.4881   13.9295 C   0  0  0  0  0  0  0  0  0  0  0  0
  -28.1480  -11.9800   18.7773 C   0  0  0  0  0  0  0  0  0  0  0  0
  -30.4989  -12.4848   19.5712 C   0  0  0  0  0  0  0  0  0  0  0  0
  -28.5833  -13.2689   20.9071 C   0  0  0  0  0  0  0  0  0  0  0  0
  -32.0584  -27.0051   14.2230 C   0  0  1  0  0  0  0  0  0  0  0  0
  -30.4944  -26.1547   17.5792 C   0  0  1  0  0  0  0  0  0  0  0  0
  -27.6249  -13.0817   19.7196 C   0  0  2  0  0  0  0  0  0  0  0  0
  -36.2939  -19.2695   23.5796 C   0  0  0  0  0  0  0  0  0  0  0  0
  -29.3134  -27.8873   25.0362 C   0  0  0  0  0  0  0  0  0  0  0  0
  -36.4799  -19.7455   20.5746 C   0  0  0  0  0  0  0  0  0  0  0  0
  -32.8672  -29.5134   19.6886 C   0  0  0  0  0  0  0  0  0  0  0  0
  -32.4860  -29.7182   22.1546 C   0  0  0  0  0  0  0  0  0  0  0  0
  -30.7290  -30.4784   20.5553 C   0  0  0  0  0  0  0  0  0  0  0  0
  -28.3009  -24.6775   23.2619 C   0  0  0  0  0  0  0  0  0  0  0  0
  -35.7038  -20.4765   22.8579 C   0  0  0  0  0  0  0  0  0  0  0  0
  -34.7073  -21.5212   20.7732 C   0  0  0  0  0  0  0  0  0  1  0  0
  -31.1355  -28.0024   20.8650 C   0  0  1  0  0  0  0  0  0  0  0  0
  -29.0054  -27.0037   23.8374 C   0  0  2  0  0  0  0  0  0  0  0  0
  -35.2563  -20.2113   21.3939 C   0  0  2  0  0  0  0  0  0  0  0  0
  -31.8086  -29.4026   20.8039 C   0  0  0  0  0  0  0  0  0  0  0  0
  -30.4276  -21.2998   24.2032 N   0  0  0  0  0  0  0  0  0  0  0  0
  -25.8064  -11.5306   20.3265 N   0  0  0  0  0  0  0  0  0  0  0  0
  -31.7469  -17.4295   21.6103 N   0  0  0  0  0  0  0  0  0  0  0  0
  -26.2038  -12.8053   20.1736 N   0  0  0  0  0  0  0  0  0  0  0  0
  -30.9505  -26.4633   18.9360 N   0  0  0  0  0  0  0  0  0  0  0  0
  -29.9426  -13.5440   20.4159 N   0  0  0  0  0  0  0  0  0  0  0  0
  -25.4665  -15.0487   20.3579 N   0  0  0  0  0  0  0  0  0  0  0  0
  -21.8291  -12.6548   21.5558 N   0  0  0  0  0  0  0  0  0  0  0  0
  -33.0113  -19.4427   22.0541 N   0  0  0  0  0  0  0  0  0  0  0  0
  -30.0682  -15.6470   21.4760 N   0  0  0  0  0  0  0  0  0  0  0  0
  -31.2061  -26.5479   15.2996 N   0  0  0  0  0  0  0  0  0  0  0  0
  -30.1094  -27.8770   21.8945 N   0  0  0  0  0  0  0  0  0  0  0  0
  -28.6497  -25.6445   24.3344 N   0  3  0  0  0  0  0  0  0  0  0  0
  -22.6399  -14.7761   21.2370 O   0  0  0  0  0  0  0  0  0  0  0  0
  -32.5384  -27.2281   17.0842 O   0  0  0  0  0  0  0  0  0  0  0  0
  -29.5643  -28.3291   19.1183 O   0  0  0  0  0  0  0  0  0  0  0  0
  -31.0952  -26.1065   23.0218 O   0  0  0  0  0  0  0  0  0  0  0  0
  -34.3449  -18.0622   20.7253 O   0  0  0  0  0  0  0  0  0  0  0  0
  -31.8515  -14.8352   20.2341 O   0  0  0  0  0  0  0  0  0  0  0  0
  -21.4731   -7.1003   21.7908 O   0  0  0  0  0  0  0  0  0  0  0  0
  -34.3248  -21.3213   19.4130 O   0  0  0  0  0  0  0  0  0  1  0  0
  -23.8045   -3.0808   24.7594 F   0  0  0  0  0  0  0  0  0  0  0  0
  -20.3803   -6.3008   24.2011 F   0  0  0  0  0  0  0  0  0  0  0  0
  -29.5220  -17.8542   22.8562 S   0  0  0  0  0  0  0  0  0  0  0  0
  1 16  1  0  0  0  0
  1 63  3  0  0  0  0
  2  3  1  0  0  0  0
  2  6  2  0  0  0  0
  3  7  2  0  0  0  0
  4  9  2  0  0  0  0
  4 17  1  0  0  0  0
  5 10  1  0  0  0  0
  5 17  2  0  0  0  0
  6 19  1  0  0  0  0
  7 21  1  0  0  0  0
  8 11  2  0  0  0  0
  8 20  1  0  0  0  0
  9 23  1  0  0  0  0
 10 23  2  0  0  0  0
 11 24  1  0  0  0  0
 12 13  2  0  0  0  0
 12 25  1  0  0  0  0
 13 26  1  0  0  0  0
 14 22  1  0  0  0  0
 14 24  2  0  0  0  0
 15 26  2  0  0  0  0
 15 27  1  0  0  0  0
 16 29  2  0  0  0  0
 16 86  1  0  0  0  0
 17 28  1  0  0  0  0
 18 28  1  0  0  0  0
 18 30  2  0  0  0  0
 18 32  1  0  0  0  0
 19 21  2  0  0  0  0
 19 38  1  0  0  0  0
 20 22  2  0  0  0  0
 20 39  1  0  0  0  0
 21 47  1  0  0  0  0
 22 40  1  0  0  0  0
 23 82  1  0  0  0  0
 24 83  1  0  0  0  0
 25 27  2  0  0  0  0
 25 82  1  0  0  0  0
 26 84  1  0  0  0  0
 27 85  1  0  0  0  0
 28 64  2  0  0  0  0
 29 65  1  0  0  0  0
 29 71  1  0  0  0  0
 30 66  1  0  0  0  0
 30 69  1  0  0  0  0
 31 65  2  0  0  0  0
 31 72  1  0  0  0  0
 31 86  1  0  0  0  0
 32 70  1  0  0  0  0
 32 76  2  0  0  0  0
 33 48  1  0  0  0  0
 33 73  1  0  0  0  0
 33 77  2  0  0  0  0
 34 59  1  0  0  0  0
 34 67  1  0  0  0  0
 34 78  2  0  0  0  0
 35 60  1  0  0  0  0
 35 74  1  0  0  0  0
 35 79  2  0  0  0  0
 36 61  1  0  0  0  0
 36 71  1  0  0  0  0
 36 80  2  0  0  0  0
 37 68  1  0  0  0  0
 37 72  1  0  0  0  0
 37 81  2  0  0  0  0
 38 41  1  0  0  0  0
 39 48  1  0  0  0  0
 40 67  1  0  0  0  0
 41 43  1  0  0  0  0
 42 44  1  0  0  0  0
 42 45  1  0  0  0  0
 43 47  1  0  0  0  0
 44 49  1  0  0  0  0
 45 68  1  0  0  0  0
 46 49  1  0  0  0  0
 46 68  1  0  0  0  0
 47 73  1  0  0  0  0
 48 67  1  0  0  0  0
 49 66  1  0  0  0  0
 50 57  1  0  0  0  0
 51 60  1  0  0  0  0
 52 61  1  0  0  0  0
 53 62  1  0  0  0  0
 54 62  1  0  0  0  0
 55 62  1  0  0  0  0
 56 75  1  0  0  0  0
 57 61  1  0  0  0  0
 58 61  1  0  0  0  0
 58 83  1  0  0  0  0
 59 62  1  0  0  0  0
 59 74  1  0  0  0  0
 60 75  1  0  0  0  0
 64 66  1  0  0  0  0
M  CHG  1  75   1
M  ISO  4  37 100  58 101  72 100  83 101
M  END
> <Batch ID>
0181

> <Smiles>
CCC(C)(C(=O)Nc1nc([100NH:0][100C:0](=O)N2CCCC(n3nc(-c4ccc(Oc5ccc(F)cc5F)cc4)c(C(N)=O)c3N)C2)sc1C#N)[101CH2:1][101O:1]c1ccc2c(c1)CN(C(=O)C(NC(=O)C(C)NC)C(C)(C)C)C(C(=O)NC1CCCc3ccccc31)C2

> <Shape>
0.228

> <Color>
0.182

> <Negative vol penalty>
0.000

$$$$

  -OEChem-04052304533D

 86 94  0     1  0  0  0  0  0999 V2000
  -28.8102  -36.9105   25.0723 C   0  0  0  0  0  0  0  0  0  0  0  0
  -29.2101  -35.7350   24.4448 C   0  0  0  0  0  0  0  0  0  0  0  0
  -23.9821   -9.6143   21.8931 C   0  0  0  0  0  0  0  0  0  0  0  0
  -21.9788  -10.4184   20.8081 C   0  0  0  0  0  0  0  0  0  0  0  0
  -27.5710  -36.9732   25.7081 C   0  0  0  0  0  0  0  0  0  0  0  0
  -28.3714  -34.6211   24.4538 C   0  0  0  0  0  0  0  0  0  0  0  0
  -27.7224  -30.4655   20.0023 C   0  0  0  0  0  0  0  0  0  0  0  0
  -23.4966   -8.3086   21.8218 C   0  0  0  0  0  0  0  0  0  0  0  0
  -21.4933   -9.1127   20.7367 C   0  0  0  0  0  0  0  0  0  0  0  0
  -28.2660  -29.1948   19.8189 C   0  0  0  0  0  0  0  0  0  0  0  0
  -21.2793   -6.3813   23.4931 C   0  0  0  0  0  0  0  0  0  0  0  0
  -21.3953   -5.5844   24.6320 C   0  0  0  0  0  0  0  0  0  0  0  0
  -26.2801  -28.2140   20.7748 C   0  0  0  0  0  0  0  0  0  0  0  0
  -22.7408   -4.0072   23.3913 C   0  0  0  0  0  0  0  0  0  0  0  0
  -23.2231  -10.6692   21.3863 C   0  0  0  0  0  0  0  0  0  0  0  0
  -24.5104  -12.6867   20.5029 C   0  0  0  0  0  0  0  0  0  0  0  0
  -26.7125  -35.8625   25.7166 C   0  0  0  0  0  0  0  0  0  0  0  0
  -26.4561  -30.6208   20.5844 C   0  0  0  0  0  0  0  0  0  0  0  0
  -27.1201  -34.6685   25.0915 C   0  0  0  0  0  0  0  0  0  0  0  0
  -25.7217  -29.4876   20.9622 C   0  0  0  0  0  0  0  0  0  0  0  0
  -22.2523   -8.0578   21.2436 C   0  0  0  0  0  0  0  0  0  0  0  0
  -27.5460  -28.0689   20.2078 C   0  0  0  0  0  0  0  0  0  0  0  0
  -21.8939   -5.9911   22.3032 C   0  0  0  0  0  0  0  0  0  0  0  0
  -22.1261   -4.3974   24.5811 C   0  0  0  0  0  0  0  0  0  0  0  0
  -22.6246   -4.8041   22.2524 C   0  0  0  0  0  0  0  0  0  0  0  0
  -23.7238  -12.0183   21.4602 C   0  0  0  0  0  0  0  0  0  0  0  0
  -23.3308  -22.2413   21.3947 C   0  0  0  0  0  0  0  0  0  0  0  0
  -24.7189  -13.9335   21.0400 C   0  0  0  0  0  0  0  0  0  0  0  0
  -23.4387  -21.8261   20.0839 C   0  0  0  0  0  0  0  0  0  0  0  0
  -23.1596  -20.0790   21.7186 C   0  0  0  0  0  0  0  0  0  0  0  0
  -25.0079  -12.2222   19.2410 C   0  0  0  0  0  0  0  0  0  0  0  0
  -25.3540  -32.0183   23.2179 C   0  0  0  0  0  0  0  0  0  0  0  0
  -22.4693  -31.2373   21.9565 C   0  0  0  0  0  0  0  0  0  0  0  0
  -24.7910  -24.1005   22.2262 C   0  0  0  0  0  0  0  0  0  0  0  0
  -20.6670  -29.2179   19.8779 C   0  0  0  0  0  0  0  0  0  0  0  0
  -26.7512  -25.1578   21.1466 C   0  0  0  0  0  0  0  0  0  0  0  0
  -22.8573  -18.4874   23.6478 C   0  0  0  0  0  0  0  0  0  0  0  0
  -25.4027  -35.9630   26.4575 C   0  0  0  0  0  0  0  0  0  0  0  0
  -25.8726  -31.9971   20.7508 C   0  0  0  0  0  0  0  0  0  0  0  0
  -24.3495  -29.5993   21.5730 C   0  0  0  0  0  0  0  0  0  0  0  0
  -24.4137  -34.8568   26.0991 C   0  0  0  0  0  0  0  0  0  0  0  0
  -23.7854  -15.7179   25.6839 C   0  0  0  0  0  0  0  0  0  0  0  0
  -25.1075  -33.4983   26.1043 C   0  0  0  0  0  0  0  0  0  0  0  0
  -23.9168  -14.5635   24.6878 C   0  0  0  0  0  0  0  0  0  0  0  0
  -22.6389  -16.6576   25.3149 C   0  0  0  0  0  0  0  0  0  0  0  0
  -22.8050  -16.0144   22.9426 C   0  0  0  0  0  0  0  0  0  0  0  0
  -26.2276  -33.4468   25.0583 C   0  0  1  0  0  0  0  0  0  0  0  0
  -24.7915  -32.0617   21.8253 C   0  0  1  0  0  0  0  0  0  0  0  0
  -23.9876  -15.0769   23.2363 C   0  0  2  0  0  0  0  0  0  0  0  0
  -18.3238  -28.7965   19.0848 C   0  0  0  0  0  0  0  0  0  0  0  0
  -27.8405  -24.7208   18.9285 C   0  0  0  0  0  0  0  0  0  0  0  0
  -21.8207  -29.8708   24.6064 C   0  0  0  0  0  0  0  0  0  0  0  0
  -19.9376  -28.6884   23.4558 C   0  0  0  0  0  0  0  0  0  0  0  0
  -19.9320  -31.1777   23.6168 C   0  0  0  0  0  0  0  0  0  0  0  0
  -21.3879  -29.8082   17.0689 C   0  0  0  0  0  0  0  0  0  0  0  0
  -23.3713  -23.6712   21.8857 C   0  0  2  0  0  0  0  0  0  0  0  0
  -21.5527  -30.0411   22.0441 C   0  0  1  0  0  0  0  0  0  0  0  0
  -19.6267  -29.5344   18.8187 C   0  0  2  0  0  0  0  0  0  0  0  0
  -27.1576  -25.7571   19.8071 C   0  0  2  0  0  0  0  0  0  1  0  0
  -20.8374  -29.9422   23.4211 C   0  0  0  0  0  0  0  0  0  0  0  0
  -23.4514  -12.7775   22.5248 N   0  0  0  0  0  0  0  0  0  0  0  0
  -23.1703  -21.2409   22.3334 N   0  0  0  0  0  0  0  0  0  0  0  0
  -24.0702  -13.9359   22.2397 N   0  0  0  0  0  0  0  0  0  0  0  0
  -23.8247  -30.9669   21.7209 N   0  0  0  0  0  0  0  0  0  0  0  0
  -22.7745  -17.1069   23.9276 N   0  0  0  0  0  0  0  0  0  0  0  0
  -25.3922  -15.0171   20.5984 N   0  0  0  0  0  0  0  0  0  0  0  0
  -23.6005  -22.5894   18.9758 N   0  0  0  0  0  0  0  0  0  0  0  0
  -24.7000  -10.9144   18.8419 N   0  0  0  0  0  0  0  0  0  0  0  0
  -23.0172  -18.7932   22.2966 N   0  0  0  0  0  0  0  0  0  0  0  0
  -25.6744  -33.2594   23.7342 N   0  0  0  0  0  0  0  0  0  0  0  0
  -25.4401  -24.6806   21.1346 N   0  0  0  0  0  0  0  0  0  0  0  0
  -20.6459  -30.1373   20.9053 N   0  0  0  0  0  0  0  0  0  0  0  0
  -22.4769  -23.9051   23.0639 N   0  3  0  0  0  0  0  0  0  0  0  0
  -20.1236  -29.1394   17.4703 N   0  3  0  0  0  0  0  0  0  0  0  0
  -25.7186  -12.9399   18.4971 O   0  0  0  0  0  0  0  0  0  0  0  0
  -25.4859  -30.9389   23.7829 O   0  0  0  0  0  0  0  0  0  0  0  0
  -21.9988  -32.3704   22.0850 O   0  0  0  0  0  0  0  0  0  0  0  0
  -25.2856  -23.9333   23.3388 O   0  0  0  0  0  0  0  0  0  0  0  0
  -21.4204  -28.2497   19.8034 O   0  0  0  0  0  0  0  0  0  0  0  0
  -27.5074  -25.1318   22.1149 O   0  0  0  0  0  0  0  0  0  0  0  0
  -22.8187  -19.3346   24.5437 O   0  0  0  0  0  0  0  0  0  0  0  0
  -21.7784   -6.7838   21.1736 O   0  0  0  0  0  0  0  0  0  0  0  0
  -28.0745  -26.8275   20.0305 O   0  0  0  0  0  0  0  0  0  1  0  0
  -22.2388   -3.6330   25.6753 F   0  0  0  0  0  0  0  0  0  0  0  0
  -23.2183   -4.4246   21.1125 F   0  0  0  0  0  0  0  0  0  0  0  0
  -23.3384  -20.1155   20.0122 S   0  0  0  0  0  0  0  0  0  0  0  0
  1  2  1  0  0  0  0
  1  5  2  0  0  0  0
  2  6  2  0  0  0  0
  3  8  2  0  0  0  0
  3 15  1  0  0  0  0
  4  9  1  0  0  0  0
  4 15  2  0  0  0  0
  5 17  1  0  0  0  0
  6 19  1  0  0  0  0
  7 10  2  0  0  0  0
  7 18  1  0  0  0  0
  8 21  1  0  0  0  0
  9 21  2  0  0  0  0
 10 22  1  0  0  0  0
 11 12  2  0  0  0  0
 11 23  1  0  0  0  0
 12 24  1  0  0  0  0
 13 20  1  0  0  0  0
 13 22  2  0  0  0  0
 14 24  2  0  0  0  0
 14 25  1  0  0  0  0
 15 26  1  0  0  0  0
 16 26  1  0  0  0  0
 16 28  2  0  0  0  0
 16 31  1  0  0  0  0
 17 19  2  0  0  0  0
 17 38  1  0  0  0  0
 18 20  2  0  0  0  0
 18 39  1  0  0  0  0
 19 47  1  0  0  0  0
 20 40  1  0  0  0  0
 21 82  1  0  0  0  0
 22 83  1  0  0  0  0
 23 25  2  0  0  0  0
 23 82  1  0  0  0  0
 24 84  1  0  0  0  0
 25 85  1  0  0  0  0
 26 61  2  0  0  0  0
 27 29  2  0  0  0  0
 27 56  1  0  0  0  0
 27 62  1  0  0  0  0
 28 63  1  0  0  0  0
 28 66  1  0  0  0  0
 29 67  1  0  0  0  0
 29 86  1  0  0  0  0
 30 62  2  0  0  0  0
 30 69  1  0  0  0  0
 30 86  1  0  0  0  0
 31 68  1  0  0  0  0
 31 75  2  0  0  0  0
 32 48  1  0  0  0  0
 32 70  1  0  0  0  0
 32 76  2  0  0  0  0
 33 57  1  0  0  0  0
 33 64  1  0  0  0  0
 33 77  2  0  0  0  0
 34 56  1  0  0  0  0
 34 71  1  0  0  0  0
 34 78  2  0  0  0  0
 35 58  1  0  0  0  0
 35 72  1  0  0  0  0
 35 79  2  0  0  0  0
 36 59  1  0  0  0  0
 36 71  1  0  0  0  0
 36 80  2  0  0  0  0
 37 65  1  0  0  0  0
 37 69  1  0  0  0  0
 37 81  2  0  0  0  0
 38 41  1  0  0  0  0
 39 48  1  0  0  0  0
 40 64  1  0  0  0  0
 41 43  1  0  0  0  0
 42 44  1  0  0  0  0
 42 45  1  0  0  0  0
 43 47  1  0  0  0  0
 44 49  1  0  0  0  0
 45 65  1  0  0  0  0
 46 49  1  0  0  0  0
 46 65  1  0  0  0  0
 47 70  1  0  0  0  0
 48 64  1  0  0  0  0
 49 63  1  0  0  0  0
 50 58  1  0  0  0  0
 51 59  1  0  0  0  0
 52 60  1  0  0  0  0
 53 60  1  0  0  0  0
 54 60  1  0  0  0  0
 55 74  1  0  0  0  0
 56 73  1  0  0  0  0
 57 60  1  0  0  0  0
 57 72  1  0  0  0  0
 58 74  1  0  0  0  0
 59 83  1  0  0  0  0
 61 63  1  0  0  0  0
M  CHG  2  73   1  74   1
M  ISO  4  37 100  59 101  69 100  83 101
M  END
> <Batch ID>
0181

> <Smiles>
CNC(C)C(=O)NC(C(=O)N1Cc2cc([101O:1][101CH:1](C)C(=O)NC(=O)C(N)c3nc([100NH:0][100C:0](=O)N4CCCC(n5nc(-c6ccc(Oc7ccc(F)cc7F)cc6)c(C(N)=O)c5N)C4)sc3N)ccc2CC1C(=O)NC1CCCc2ccccc21)C(C)(C)C

> <Shape>
0.249

> <Color>
0.119

> <Negative vol penalty>
0.000

$$$$

  -OEChem-04052304533D

 84 92  0     1  0  0  0  0  0999 V2000
  -24.4308  -20.8700   14.6260 C   0  0  0  0  0  0  0  0  0  0  0  0
  -25.4907  -20.0680   15.0369 C   0  0  0  0  0  0  0  0  0  0  0  0
  -24.8875  -27.3561   19.8894 C   0  0  0  0  0  0  0  0  0  0  0  0
  -27.2528  -27.8111   20.0775 C   0  0  0  0  0  0  0  0  0  0  0  0
  -23.3584  -21.1010   15.4866 C   0  0  0  0  0  0  0  0  0  0  0  0
  -25.4793  -19.4974   16.3092 C   0  0  0  0  0  0  0  0  0  0  0  0
  -27.7182  -14.0266   17.9103 C   0  0  0  0  0  0  0  0  0  0  0  0
  -24.6106  -28.7058   20.1067 C   0  0  0  0  0  0  0  0  0  0  0  0
  -26.9759  -29.1608   20.2948 C   0  0  0  0  0  0  0  0  0  0  0  0
  -28.9208  -13.6417   18.5015 C   0  0  0  0  0  0  0  0  0  0  0  0
  -26.8769  -32.6643   21.2568 C   0  0  0  0  0  0  0  0  0  0  0  0
  -27.5644  -33.3100   22.2845 C   0  0  0  0  0  0  0  0  0  0  0  0
  -27.8488  -13.6327   20.6624 C   0  0  0  0  0  0  0  0  0  0  0  0
  -26.6309  -31.7583   23.8839 C   0  0  0  0  0  0  0  0  0  0  0  0
  -26.2087  -26.9087   19.8748 C   0  0  0  0  0  0  0  0  0  0  0  0
  -26.7159  -24.8800   18.4139 C   0  0  0  0  0  0  0  0  0  0  0  0
  -23.3293  -20.5250   16.7664 C   0  0  0  0  0  0  0  0  0  0  0  0
  -26.5726  -14.2283   18.6935 C   0  0  0  0  0  0  0  0  0  0  0  0
  -24.4062  -19.7219   17.1882 C   0  0  0  0  0  0  0  0  0  0  0  0
  -26.6322  -14.0176   20.0785 C   0  0  0  0  0  0  0  0  0  0  0  0
  -25.6548  -29.6082   20.3094 C   0  0  0  0  0  0  0  0  0  0  0  0
  -28.9870  -13.4475   19.8781 C   0  0  0  0  0  0  0  0  0  0  0  0
  -26.0663  -31.5657   21.5427 C   0  0  0  0  0  0  0  0  0  0  0  0
  -27.4414  -32.8569   23.5980 C   0  0  0  0  0  0  0  0  0  0  0  0
  -25.9433  -31.1127   22.8562 C   0  0  0  0  0  0  0  0  0  0  0  0
  -26.4953  -25.5145   19.6510 C   0  0  0  0  0  0  0  0  0  0  0  0
  -31.3456  -16.4824   19.6104 C   0  0  0  0  0  0  0  0  0  0  0  0
  -26.9439  -23.5650   18.7383 C   0  0  0  0  0  0  0  0  0  0  0  0
  -31.0820  -16.8097   18.2968 C   0  0  0  0  0  0  0  0  0  0  0  0
  -30.1776  -18.3067   19.9532 C   0  0  0  0  0  0  0  0  0  0  0  0
  -26.7149  -25.4300   17.0898 C   0  0  0  0  0  0  0  0  0  0  0  0
  -32.1275  -15.3019   20.0376 C   0  0  0  0  0  0  0  0  0  0  0  0
  -32.3607  -15.0301   21.4945 C   0  0  0  0  0  0  0  0  0  0  0  0
  -24.6867  -16.7112   19.3118 C   0  0  0  0  0  0  0  0  0  0  0  0
  -22.9201  -14.4835   20.8734 C   0  0  0  0  0  0  0  0  0  0  0  0
  -22.8104  -11.4637   22.4596 C   0  0  0  0  0  0  0  0  0  0  0  0
  -29.3683  -19.6791   21.9046 C   0  0  0  0  0  0  0  0  0  0  0  0
  -22.1710  -20.8419   17.6789 C   0  0  0  0  0  0  0  0  0  0  0  0
  -25.2764  -14.6174   18.0373 C   0  0  0  0  0  0  0  0  0  0  0  0
  -25.4257  -14.2013   20.9612 C   0  0  0  0  0  0  0  0  0  0  0  0
  -22.0586  -19.8957   18.8715 C   0  0  0  0  0  0  0  0  0  0  0  0
  -26.3370  -21.0997   23.1173 C   0  0  0  0  0  0  0  0  0  0  0  0
  -23.4215  -19.7003   19.5282 C   0  0  0  0  0  0  0  0  0  0  0  0
  -26.1261  -22.3227   22.2219 C   0  0  0  0  0  0  0  0  0  0  0  0
  -27.8150  -20.8751   23.4317 C   0  0  0  0  0  0  0  0  0  0  0  0
  -28.4855  -22.0335   21.3634 C   0  0  0  0  0  0  0  0  0  0  0  0
  -24.4185  -19.0651   18.5515 C   0  0  1  0  0  0  0  0  0  0  0  0
  -24.3010  -15.2939   18.9956 C   0  0  1  0  0  0  0  0  0  0  0  0
  -27.0180  -22.2624   20.9663 C   0  0  2  0  0  0  0  0  0  0  0  0
  -32.2251  -13.5790   23.5087 C   0  0  0  0  0  0  0  0  0  0  0  0
  -21.2338   -9.9278   23.6647 C   0  0  0  0  0  0  0  0  0  0  0  0
  -23.0387  -16.2917   23.3282 C   0  0  0  0  0  0  0  0  0  0  0  0
  -22.3064  -14.3401   24.7149 C   0  0  0  0  0  0  0  0  0  0  0  0
  -20.8127  -15.2259   22.9242 C   0  0  0  0  0  0  0  0  0  0  0  0
  -23.2213   -9.3011   20.4815 C   0  0  0  0  0  0  0  0  0  0  0  0
  -30.3878  -13.5023   21.7992 C   0  0  0  0  0  0  0  0  0  1  0  0
  -31.8902  -13.6840   22.0245 C   0  0  1  0  0  0  0  0  0  0  0  0
  -22.8901  -13.9368   22.2803 C   0  0  1  0  0  0  0  0  0  0  0  0
  -21.8575  -10.2897   22.3258 C   0  0  2  0  0  0  0  0  0  0  0  0
  -22.2854  -14.9470   23.2958 C   0  0  0  0  0  0  0  0  0  0  0  0
  -26.5757  -24.6720   20.6843 N   0  0  0  0  0  0  0  0  0  0  0  0
  -30.8282  -17.3398   20.5616 N   0  0  0  0  0  0  0  0  0  0  0  0
  -26.8493  -23.4945   20.0971 N   0  0  0  0  0  0  0  0  0  0  0  0
  -24.1830  -14.5883   20.2733 N   0  0  0  0  0  0  0  0  0  0  0  0
  -28.5973  -20.8246   22.1947 N   0  0  0  0  0  0  0  0  0  0  0  0
  -27.2140  -22.4736   17.9910 N   0  0  0  0  0  0  0  0  0  0  0  0
  -31.4643  -16.1525   17.1744 N   0  0  0  0  0  0  0  0  0  0  0  0
  -26.4629  -26.8001   16.9357 N   0  0  0  0  0  0  0  0  0  0  0  0
  -29.4948  -19.3984   20.5445 N   0  0  0  0  0  0  0  0  0  0  0  0
  -24.1728  -17.6440   18.4313 N   0  0  0  0  0  0  0  0  0  0  0  0
  -22.1803  -12.6642   22.2086 N   0  0  0  0  0  0  0  0  0  0  0  0
  -22.5786   -9.0941   21.8047 N   0  3  0  0  0  0  0  0  0  0  0  0
  -26.9149  -24.7243   16.0722 O   0  0  0  0  0  0  0  0  0  0  0  0
  -32.6349  -14.5181   19.2489 O   0  0  0  0  0  0  0  0  0  0  0  0
  -32.9317  -15.8994   22.1367 O   0  0  0  0  0  0  0  0  0  0  0  0
  -25.3969  -16.9416   20.2836 O   0  0  0  0  0  0  0  0  0  0  0  0
  -21.8615  -14.7989   20.3245 O   0  0  0  0  0  0  0  0  0  0  0  0
  -23.9945  -11.3297   22.7607 O   0  0  0  0  0  0  0  0  0  0  0  0
  -29.8559  -18.9817   22.7979 O   0  0  0  0  0  0  0  0  0  0  0  0
  -25.3850  -30.9253   20.5212 O   0  0  0  0  0  0  0  0  0  0  0  0
  -30.1597  -13.0725   20.4577 O   0  0  0  0  0  0  0  0  0  1  0  0
  -28.1029  -33.4761   24.5845 F   0  0  0  0  0  0  0  0  0  0  0  0
  -25.1670  -30.0570   23.1368 F   0  0  0  0  0  0  0  0  0  0  0  0
  -30.1475  -18.2466   18.2385 S   0  0  0  0  0  0  0  0  0  0  0  0
  1  2  1  0  0  0  0
  1  5  2  0  0  0  0
  2  6  2  0  0  0  0
  3  8  2  0  0  0  0
  3 15  1  0  0  0  0
  4  9  1  0  0  0  0
  4 15  2  0  0  0  0
  5 17  1  0  0  0  0
  6 19  1  0  0  0  0
  7 10  2  0  0  0  0
  7 18  1  0  0  0  0
  8 21  1  0  0  0  0
  9 21  2  0  0  0  0
 10 22  1  0  0  0  0
 11 12  2  0  0  0  0
 11 23  1  0  0  0  0
 12 24  1  0  0  0  0
 13 20  1  0  0  0  0
 13 22  2  0  0  0  0
 14 24  2  0  0  0  0
 14 25  1  0  0  0  0
 15 26  1  0  0  0  0
 16 26  1  0  0  0  0
 16 28  2  0  0  0  0
 16 31  1  0  0  0  0
 17 19  2  0  0  0  0
 17 38  1  0  0  0  0
 18 20  2  0  0  0  0
 18 39  1  0  0  0  0
 19 47  1  0  0  0  0
 20 40  1  0  0  0  0
 21 80  1  0  0  0  0
 22 81  1  0  0  0  0
 23 25  2  0  0  0  0
 23 80  1  0  0  0  0
 24 82  1  0  0  0  0
 25 83  1  0  0  0  0
 26 61  2  0  0  0  0
 27 29  2  0  0  0  0
 27 32  1  0  0  0  0
 27 62  1  0  0  0  0
 28 63  1  0  0  0  0
 28 66  1  0  0  0  0
 29 67  1  0  0  0  0
 29 84  1  0  0  0  0
 30 62  2  0  0  0  0
 30 69  1  0  0  0  0
 30 84  1  0  0  0  0
 31 68  1  0  0  0  0
 31 73  2  0  0  0  0
 32 33  1  0  0  0  0
 32 74  2  0  0  0  0
 33 57  1  0  0  0  0
 33 75  2  0  0  0  0
 34 48  1  0  0  0  0
 34 70  1  0  0  0  0
 34 76  2  0  0  0  0
 35 58  1  0  0  0  0
 35 64  1  0  0  0  0
 35 77  2  0  0  0  0
 36 59  1  0  0  0  0
 36 71  1  0  0  0  0
 36 78  2  0  0  0  0
 37 65  1  0  0  0  0
 37 69  1  0  0  0  0
 37 79  2  0  0  0  0
 38 41  1  0  0  0  0
 39 48  1  0  0  0  0
 40 64  1  0  0  0  0
 41 43  1  0  0  0  0
 42 44  1  0  0  0  0
 42 45  1  0  0  0  0
 43 47  1  0  0  0  0
 44 49  1  0  0  0  0
 45 65  1  0  0  0  0
 46 49  1  0  0  0  0
 46 65  1  0  0  0  0
 47 70  1  0  0  0  0
 48 64  1  0  0  0  0
 49 63  1  0  0  0  0
 50 57  1  0  0  0  0
 51 59  1  0  0  0  0
 52 60  1  0  0  0  0
 53 60  1  0  0  0  0
 54 60  1  0  0  0  0
 55 72  1  0  0  0  0
 56 57  1  0  0  0  0
 56 81  1  0  0  0  0
 58 60  1  0  0  0  0
 58 71  1  0  0  0  0
 59 72  1  0  0  0  0
 61 63  1  0  0  0  0
M  CHG  1  72   1
M  ISO  4  37 100  56 101  69 100  81 101
M  END
> <Batch ID>
0181

> <Smiles>
CNC(C)C(=O)NC(C(=O)N1Cc2cc([101O:1][101CH2:1]C(C)C(=O)C(=O)c3nc([100NH:0][100C:0](=O)N4CCCC(n5nc(-c6ccc(Oc7ccc(F)cc7F)cc6)c(C(N)=O)c5N)C4)sc3N)ccc2CC1C(=O)NC1CCCc2ccccc21)C(C)(C)C

> <Shape>
0.221

> <Color>
0.061

> <Negative vol penalty>
0.000

$$$$

  -OEChem-04052304532D

  0  0  0     0  0  0  0  0  0999 V2000
M  END
$$$$

  -OEChem-04052304533D

 87 95  0     1  0  0  0  0  0999 V2000
  -30.9927  -23.5471   16.0946 C   0  0  0  0  0  0  0  0  0  0  0  0
  -29.6509  -23.9089   16.0304 C   0  0  0  0  0  0  0  0  0  0  0  0
  -27.0016  -15.2145   21.0897 C   0  0  0  0  0  0  0  0  0  0  0  0
  -25.2291  -15.1456   19.4494 C   0  0  0  0  0  0  0  0  0  0  0  0
  -31.6332  -23.4657   17.3304 C   0  0  0  0  0  0  0  0  0  0  0  0
  -28.9485  -24.1884   17.2022 C   0  0  0  0  0  0  0  0  0  0  0  0
  -24.5039  -28.3385   17.9289 C   0  0  0  0  0  0  0  0  0  0  0  0
  -26.9226  -13.8294   21.2333 C   0  0  0  0  0  0  0  0  0  0  0  0
  -25.1501  -13.7604   19.5930 C   0  0  0  0  0  0  0  0  0  0  0  0
  -23.1138  -28.2323   17.9385 C   0  0  0  0  0  0  0  0  0  0  0  0
  -23.8192  -11.5545   21.7824 C   0  0  0  0  0  0  0  0  0  0  0  0
  -22.5504  -10.9857   21.8928 C   0  0  0  0  0  0  0  0  0  0  0  0
  -23.1457  -28.1119   20.3476 C   0  0  0  0  0  0  0  0  0  0  0  0
  -22.9632   -9.6788   19.9031 C   0  0  0  0  0  0  0  0  0  0  0  0
  -19.8312  -21.3487   18.7474 C   0  0  0  0  0  0  0  0  0  0  0  0
  -18.0325  -22.9319   18.5419 C   0  0  0  0  0  0  0  0  0  0  0  0
  -26.1547  -15.8727   20.1978 C   0  0  0  0  0  0  0  0  0  0  0  0
  -27.0431  -18.0205   19.1463 C   0  0  0  0  0  0  0  0  0  0  0  0
  -30.9409  -23.7538   18.5171 C   0  0  0  0  0  0  0  0  0  0  0  0
  -25.2274  -28.3213   19.1300 C   0  0  0  0  0  0  0  0  0  0  0  0
  -29.5800  -24.1095   18.4550 C   0  0  0  0  0  0  0  0  0  0  0  0
  -24.5448  -28.2207   20.3507 C   0  0  0  0  0  0  0  0  0  0  0  0
  -25.9969  -13.1023   20.4849 C   0  0  0  0  0  0  0  0  0  0  0  0
  -22.4347  -28.1160   19.1478 C   0  0  0  0  0  0  0  0  0  0  0  0
  -24.6600  -11.1855   20.7323 C   0  0  0  0  0  0  0  0  0  0  0  0
  -22.1224  -10.0478   20.9532 C   0  0  0  0  0  0  0  0  0  0  0  0
  -24.2321  -10.2477   19.7927 C   0  0  0  0  0  0  0  0  0  0  0  0
  -18.7037  -21.8072   18.0753 C   0  0  0  0  0  0  0  0  0  0  0  0
  -26.2355  -17.3036   20.0495 C   0  0  0  0  0  0  0  0  0  0  0  0
  -20.2435  -22.0447   19.8723 C   0  0  0  0  0  0  0  0  0  0  0  0
  -18.5251  -23.5570   19.6761 C   0  0  0  0  0  0  0  0  0  0  0  0
  -26.7554  -19.3392   19.4006 C   0  0  0  0  0  0  0  0  0  0  0  0
  -27.9704  -17.5374   18.1653 C   0  0  0  0  0  0  0  0  0  0  0  0
  -27.4378  -26.4160   20.3900 C   0  0  0  0  0  0  0  0  0  0  0  0
  -19.2076  -26.6027   19.7826 C   0  0  0  0  0  0  0  0  0  0  0  0
  -27.5272  -28.6937   22.6979 C   0  0  0  0  0  0  0  0  0  0  0  0
  -25.9290  -31.2300   24.3288 C   0  0  0  0  0  0  0  0  0  0  0  0
  -21.9824  -22.1075   21.6940 C   0  0  0  0  0  0  0  0  0  0  0  0
  -31.6631  -23.6063   19.8329 C   0  0  0  0  0  0  0  0  0  0  0  0
  -26.7246  -28.4638   19.1040 C   0  0  0  0  0  0  0  0  0  0  0  0
  -25.2734  -28.2177   21.6688 C   0  0  0  0  0  0  0  0  0  0  0  0
  -30.9476  -24.2825   20.9995 C   0  0  0  0  0  0  0  0  0  0  0  0
  -25.3205  -22.2470   22.9248 C   0  0  0  0  0  0  0  0  0  0  0  0
  -29.4613  -23.9395   20.9854 C   0  0  0  0  0  0  0  0  0  0  0  0
  -26.0090  -21.0640   22.2402 C   0  0  0  0  0  0  0  0  0  0  0  0
  -23.8739  -21.9244   23.2951 C   0  0  0  0  0  0  0  0  0  0  0  0
  -23.7368  -20.2360   21.5064 C   0  0  0  0  0  0  0  0  0  0  0  0
  -28.7908  -24.4444   19.7021 C   0  0  1  0  0  0  0  0  0  0  0  0
  -27.3986  -27.9177   20.3589 C   0  0  1  0  0  0  0  0  0  0  0  0
  -25.1760  -20.5354   21.0561 C   0  0  2  0  0  0  0  0  0  0  0  0
  -26.2423  -32.8778   26.1954 C   0  0  0  0  0  0  0  0  0  0  0  0
  -27.0655  -26.4698   24.7354 C   0  0  0  0  0  0  0  0  0  0  0  0
  -26.4464  -28.2265   26.4085 C   0  0  0  0  0  0  0  0  0  0  0  0
  -28.7413  -28.1908   25.4313 C   0  0  0  0  0  0  0  0  0  0  0  0
  -25.6271  -33.5363   22.4989 C   0  0  0  0  0  0  0  0  0  0  0  0
  -20.4932  -27.2717   20.2311 C   0  0  0  0  0  0  0  0  0  1  0  0
  -18.4835  -25.7681   20.8315 C   0  0  1  0  0  0  0  0  0  0  0  0
  -26.7947  -28.9289   23.9968 C   0  0  1  0  0  0  0  0  0  0  0  0
  -26.3808  -32.6306   24.7012 C   0  0  2  0  0  0  0  0  0  0  0  0
  -27.2481  -27.9521   25.1182 C   0  0  0  0  0  0  0  0  0  0  0  0
  -17.4374  -26.5500   21.6188 C   0  0  0  0  0  0  0  0  0  0  0  0
  -25.4907  -18.1009   20.8200 N   0  0  0  0  0  0  0  0  0  0  0  0
  -19.6173  -23.1410   20.3557 N   0  0  0  0  0  0  0  0  0  0  0  0
  -25.8293  -19.3324   20.4018 N   0  0  0  0  0  0  0  0  0  0  0  0
  -26.7373  -28.3531   21.5907 N   0  0  0  0  0  0  0  0  0  0  0  0
  -23.1452  -21.4335   22.1235 N   0  0  0  0  0  0  0  0  0  0  0  0
  -27.2069  -20.4924   18.8632 N   0  0  0  0  0  0  0  0  0  0  0  0
  -28.1452  -16.1529   18.0357 N   0  0  0  0  0  0  0  0  0  0  0  0
  -21.3930  -21.5691   20.5506 N   0  0  0  0  0  0  0  0  0  0  0  0
  -17.8471  -24.6758   20.1277 N   0  0  0  0  0  0  0  0  0  0  0  0
  -28.5527  -25.8696   19.7833 N   0  0  0  0  0  0  0  0  0  0  0  0
  -26.9814  -30.3390   24.3211 N   0  0  0  0  0  0  0  0  0  0  0  0
  -25.5649  -33.6472   23.9790 N   0  3  0  0  0  0  0  0  0  0  0  0
  -28.6368  -18.3112   17.4367 O   0  0  0  0  0  0  0  0  0  0  0  0
  -26.5250  -25.7987   20.9261 O   0  0  0  0  0  0  0  0  0  0  0  0
  -18.7957  -26.7036   18.6270 O   0  0  0  0  0  0  0  0  0  0  0  0
  -28.7544  -28.8148   22.6652 O   0  0  0  0  0  0  0  0  0  0  0  0
  -24.7590  -30.9532   24.0741 O   0  0  0  0  0  0  0  0  0  0  0  0
  -21.5573  -23.1062   22.2803 O   0  0  0  0  0  0  0  0  0  0  0  0
  -25.9197  -11.7506   20.6246 O   0  0  0  0  0  0  0  0  0  0  0  0
  -21.0780  -28.0115   19.1601 O   0  0  0  0  0  0  0  0  0  1  0  0
  -20.9046   -9.5005   21.0602 F   0  0  0  0  0  0  0  0  0  0  0  0
  -25.0358   -9.8884   18.7824 F   0  0  0  0  0  0  0  0  0  0  0  0
  -18.2656  -21.1675   16.9832 F   0  0  0  0  0  0  0  0  0  0  0  0
  -16.5204  -27.0655   20.7574 F   0  0  0  0  0  0  0  0  0  0  0  0
  -18.0066  -27.6066   22.2523 F   0  0  0  0  0  0  0  0  0  0  0  0
  -16.5920  -25.5337   22.8037 Cl  0  0  0  0  0  0  0  0  0  0  0  0
  1  2  1  0  0  0  0
  1  5  2  0  0  0  0
  2  6  2  0  0  0  0
  3  8  2  0  0  0  0
  3 17  1  0  0  0  0
  4  9  1  0  0  0  0
  4 17  2  0  0  0  0
  5 19  1  0  0  0  0
  6 21  1  0  0  0  0
  7 10  2  0  0  0  0
  7 20  1  0  0  0  0
  8 23  1  0  0  0  0
  9 23  2  0  0  0  0
 10 24  1  0  0  0  0
 11 12  2  0  0  0  0
 11 25  1  0  0  0  0
 12 26  1  0  0  0  0
 13 22  1  0  0  0  0
 13 24  2  0  0  0  0
 14 26  2  0  0  0  0
 14 27  1  0  0  0  0
 15 28  1  0  0  0  0
 15 30  2  0  0  0  0
 16 28  2  0  0  0  0
 16 31  1  0  0  0  0
 17 29  1  0  0  0  0
 18 29  1  0  0  0  0
 18 32  2  0  0  0  0
 18 33  1  0  0  0  0
 19 21  2  0  0  0  0
 19 39  1  0  0  0  0
 20 22  2  0  0  0  0
 20 40  1  0  0  0  0
 21 48  1  0  0  0  0
 22 41  1  0  0  0  0
 23 80  1  0  0  0  0
 24 81  1  0  0  0  0
 25 27  2  0  0  0  0
 25 80  1  0  0  0  0
 26 82  1  0  0  0  0
 27 83  1  0  0  0  0
 28 84  1  0  0  0  0
 29 62  2  0  0  0  0
 30 63  1  0  0  0  0
 30 69  1  0  0  0  0
 31 63  2  0  0  0  0
 31 70  1  0  0  0  0
 32 64  1  0  0  0  0
 32 67  1  0  0  0  0
 33 68  1  0  0  0  0
 33 74  2  0  0  0  0
 34 49  1  0  0  0  0
 34 71  1  0  0  0  0
 34 75  2  0  0  0  0
 35 56  1  0  0  0  0
 35 57  1  0  0  0  0
 35 76  2  0  0  0  0
 36 58  1  0  0  0  0
 36 65  1  0  0  0  0
 36 77  2  0  0  0  0
 37 59  1  0  0  0  0
 37 72  1  0  0  0  0
 37 78  2  0  0  0  0
 38 66  1  0  0  0  0
 38 69  1  0  0  0  0
 38 79  2  0  0  0  0
 39 42  1  0  0  0  0
 40 49  1  0  0  0  0
 41 65  1  0  0  0  0
 42 44  1  0  0  0  0
 43 45  1  0  0  0  0
 43 46  1  0  0  0  0
 44 48  1  0  0  0  0
 45 50  1  0  0  0  0
 46 66  1  0  0  0  0
 47 50  1  0  0  0  0
 47 66  1  0  0  0  0
 48 71  1  0  0  0  0
 49 65  1  0  0  0  0
 50 64  1  0  0  0  0
 51 59  1  0  0  0  0
 52 60  1  0  0  0  0
 53 60  1  0  0  0  0
 54 60  1  0  0  0  0
 55 73  1  0  0  0  0
 56 81  1  0  0  0  0
 57 61  1  0  0  0  0
 57 70  1  0  0  0  0
 58 60  1  0  0  0  0
 58 72  1  0  0  0  0
 59 73  1  0  0  0  0
 61 85  1  0  0  0  0
 61 86  1  0  0  0  0
 61 87  1  0  0  0  0
 62 64  1  0  0  0  0
M  CHG  1  73   1
M  ISO  4  38 100  56 101  69 100  81 101
M  END
> <Batch ID>
0181

> <Smiles>
CNC(C)C(=O)NC(C(=O)N1Cc2cc([101O:1][101CH2:1]C(=O)C(Nc3cc(F)cc([100NH:0][100C:0](=O)N4CCCC(n5nc(-c6ccc(Oc7ccc(F)cc7F)cc6)c(C(N)=O)c5N)C4)n3)C(F)(F)Cl)ccc2CC1C(=O)NC1CCCc2ccccc21)C(C)(C)C

> <Shape>
0.228

> <Color>
0.056

> <Negative vol penalty>
0.000

$$$$

  -OEChem-04052304533D

 88 96  0     1  0  0  0  0  0999 V2000
  -22.0186  -19.1063   27.3425 C   0  0  0  0  0  0  0  0  0  0  0  0
  -23.2900  -19.5581   27.0038 C   0  0  0  0  0  0  0  0  0  0  0  0
  -25.3846  -13.7106   21.9228 C   0  0  0  0  0  0  0  0  0  0  0  0
  -26.5980  -13.6465   19.8345 C   0  0  0  0  0  0  0  0  0  0  0  0
  -20.9300  -19.4165   26.5286 C   0  0  0  0  0  0  0  0  0  0  0  0
  -23.4737  -20.3197   25.8502 C   0  0  0  0  0  0  0  0  0  0  0  0
  -27.5124  -25.6366   23.2549 C   0  0  0  0  0  0  0  0  0  0  0  0
  -24.4590  -12.8002   21.4130 C   0  0  0  0  0  0  0  0  0  0  0  0
  -25.6723  -12.7360   19.3247 C   0  0  0  0  0  0  0  0  0  0  0  0
  -28.3183  -25.9404   22.1586 C   0  0  0  0  0  0  0  0  0  0  0  0
  -24.2742   -9.4648   20.8897 C   0  0  0  0  0  0  0  0  0  0  0  0
  -23.8913   -8.4025   21.7084 C   0  0  0  0  0  0  0  0  0  0  0  0
  -26.3518  -26.4817   20.8705 C   0  0  0  0  0  0  0  0  0  0  0  0
  -29.2135  -20.7734   16.4039 C   0  0  0  0  0  0  0  0  0  0  0  0
  -21.5966   -9.1515   21.6071 C   0  0  0  0  0  0  0  0  0  0  0  0
  -26.4541  -14.1338   21.1335 C   0  0  0  0  0  0  0  0  0  0  0  0
  -28.5968  -14.7805   22.3576 C   0  0  0  0  0  0  0  0  0  0  0  0
  -21.0989  -20.1904   25.3696 C   0  0  0  0  0  0  0  0  0  0  0  0
  -26.1171  -25.7428   23.1637 C   0  0  0  0  0  0  0  0  0  0  0  0
  -22.3865  -20.6394   25.0193 C   0  0  0  0  0  0  0  0  0  0  0  0
  -25.5305  -26.1811   21.9679 C   0  0  0  0  0  0  0  0  0  0  0  0
  -29.8329  -21.3273   15.2890 C   0  0  0  0  0  0  0  0  0  0  0  0
  -30.5380  -22.5192   15.4128 C   0  0  0  0  0  0  0  0  0  0  0  0
  -24.6029  -12.3129   20.1139 C   0  0  0  0  0  0  0  0  0  0  0  0
  -27.7380  -26.3602   20.9653 C   0  0  0  0  0  0  0  0  0  0  0  0
  -23.3183  -10.3706   20.4297 C   0  0  0  0  0  0  0  0  0  0  0  0
  -22.5525   -8.2458   22.0671 C   0  0  0  0  0  0  0  0  0  0  0  0
  -21.9795  -10.2139   20.7883 C   0  0  0  0  0  0  0  0  0  0  0  0
  -27.4103  -15.0747   21.6594 C   0  0  0  0  0  0  0  0  0  0  0  0
  -29.3281  -21.4453   17.6102 C   0  0  0  0  0  0  0  0  0  0  0  0
  -30.5932  -23.1131   16.6634 C   0  0  0  0  0  0  0  0  0  0  0  0
  -29.1443  -16.0088   22.6370 C   0  0  0  0  0  0  0  0  0  0  0  0
  -29.1542  -13.5105   22.7210 C   0  0  0  0  0  0  0  0  0  0  0  0
  -23.6907  -23.7057   23.4224 C   0  0  0  0  0  0  0  0  0  0  0  0
  -30.1386  -25.7789   18.3175 C   0  0  0  0  0  0  0  0  0  0  0  0
  -21.9075  -26.4039   23.1730 C   0  0  0  0  0  0  0  0  0  0  0  0
  -21.6794  -29.6376   22.1064 C   0  0  0  0  0  0  0  0  0  0  0  0
  -28.6781  -21.3715   20.0430 C   0  0  0  0  0  0  0  0  0  0  0  0
  -19.8996  -20.4603   24.4958 C   0  0  0  0  0  0  0  0  0  0  0  0
  -25.2632  -25.4370   24.3636 C   0  0  0  0  0  0  0  0  0  0  0  0
  -24.0387  -26.3311   21.8247 C   0  0  0  0  0  0  0  0  0  0  0  0
  -20.1196  -21.5881   23.4908 C   0  0  0  0  0  0  0  0  0  0  0  0
  -27.9084  -20.5679   23.4251 C   0  0  0  0  0  0  0  0  0  0  0  0
  -21.4630  -21.4218   22.7875 C   0  0  0  0  0  0  0  0  0  0  0  0
  -27.8073  -19.0409   23.4210 C   0  0  0  0  0  0  0  0  0  0  0  0
  -27.3555  -21.1764   22.1376 C   0  0  0  0  0  0  0  0  0  0  0  0
  -27.8206  -19.1010   20.8944 C   0  0  0  0  0  0  0  0  0  0  0  0
  -22.6221  -21.4889   23.7892 C   0  0  1  0  0  0  0  0  0  0  0  0
  -23.8238  -25.0868   23.9991 C   0  0  1  0  0  0  0  0  0  0  0  0
  -28.4246  -18.4387   22.1435 C   0  0  2  0  0  0  0  0  0  0  0  0
  -29.7236  -20.6267   13.9749 C   0  0  0  0  0  0  0  0  0  0  0  0
  -32.6086  -25.9697   17.9562 C   0  0  0  0  0  0  0  0  0  0  0  0
  -20.0841  -31.5723   22.0102 C   0  0  0  0  0  0  0  0  0  0  0  0
  -20.4126  -25.0541   20.8810 C   0  0  0  0  0  0  0  0  0  0  0  0
  -19.5291  -27.3030   20.2252 C   0  0  0  0  0  0  0  0  0  0  0  0
  -18.9610  -26.3440   22.4568 C   0  0  0  0  0  0  0  0  0  0  0  0
  -23.4621  -31.3391   23.7453 C   0  0  0  0  0  0  0  0  0  0  0  0
  -29.7563  -25.9498   19.7763 C   0  0  0  0  0  0  0  0  0  1  0  0
  -31.4278  -25.0174   18.0428 C   0  0  2  0  0  0  0  0  0  0  0  0
  -21.3064  -27.1862   22.0303 C   0  0  1  0  0  0  0  0  0  0  0  0
  -21.1922  -30.8958   22.8022 C   0  0  2  0  0  0  0  0  0  0  0  0
  -31.2097  -23.1294   14.2271 C   0  0  0  0  0  0  0  0  0  0  0  0
  -20.0803  -26.4672   21.4001 C   0  0  0  0  0  0  0  0  0  0  0  0
  -27.2148  -16.3869   21.5049 N   0  0  0  0  0  0  0  0  0  0  0  0
  -30.0045  -22.6050   17.7693 N   0  0  0  0  0  0  0  0  0  0  0  0
  -28.2857  -16.9282   22.1100 N   0  0  0  0  0  0  0  0  0  0  0  0
  -23.2460  -26.0141   23.0241 N   0  0  0  0  0  0  0  0  0  0  0  0
  -27.9892  -20.5607   20.9697 N   0  0  0  0  0  0  0  0  0  0  0  0
  -30.2715  -16.3813   23.2797 N   0  0  0  0  0  0  0  0  0  0  0  0
  -28.4622  -12.3479   22.3555 N   0  0  0  0  0  0  0  0  0  0  0  0
  -28.6942  -20.8729   18.7408 N   0  0  0  0  0  0  0  0  0  0  0  0
  -31.2949  -24.2990   16.7944 N   0  0  0  0  0  0  0  0  0  0  0  0
  -22.8871  -22.8612   24.1644 N   0  0  0  0  0  0  0  0  0  0  0  0
  -21.0147  -28.5159   22.5549 N   0  0  0  0  0  0  0  0  0  0  0  0
  -22.3127  -31.8648   22.9647 N   0  3  0  0  0  0  0  0  0  0  0  0
  -30.2257  -13.4102   23.3655 O   0  0  0  0  0  0  0  0  0  0  0  0
  -24.2728  -23.4273   22.3806 O   0  0  0  0  0  0  0  0  0  0  0  0
  -29.4440  -26.2423   17.4125 O   0  0  0  0  0  0  0  0  0  0  0  0
  -21.2170  -26.1541   24.1642 O   0  0  0  0  0  0  0  0  0  0  0  0
  -22.5589  -29.6493   21.2480 O   0  0  0  0  0  0  0  0  0  0  0  0
  -29.2376  -22.4165   20.3851 O   0  0  0  0  0  0  0  0  0  0  0  0
  -23.7000  -11.4243   19.6162 O   0  0  0  0  0  0  0  0  0  0  0  0
  -28.5223  -26.6567   19.8935 O   0  0  0  0  0  0  0  0  0  1  0  0
  -22.1847   -7.2247   22.8522 F   0  0  0  0  0  0  0  0  0  0  0  0
  -21.0565  -11.0802   20.3485 F   0  0  0  0  0  0  0  0  0  0  0  0
  -31.0504  -22.4086   13.0786 F   0  0  0  0  0  0  0  0  0  0  0  0
  -30.7565  -24.3822   13.9287 F   0  0  0  0  0  0  0  0  0  0  0  0
  -32.5573  -23.2568   14.3970 F   0  0  0  0  0  0  0  0  0  0  0  0
  1  2  1  0  0  0  0
  1  5  2  0  0  0  0
  2  6  2  0  0  0  0
  3  8  2  0  0  0  0
  3 16  1  0  0  0  0
  4  9  1  0  0  0  0
  4 16  2  0  0  0  0
  5 18  1  0  0  0  0
  6 20  1  0  0  0  0
  7 10  2  0  0  0  0
  7 19  1  0  0  0  0
  8 24  1  0  0  0  0
  9 24  2  0  0  0  0
 10 25  1  0  0  0  0
 11 12  2  0  0  0  0
 11 26  1  0  0  0  0
 12 27  1  0  0  0  0
 13 21  1  0  0  0  0
 13 25  2  0  0  0  0
 14 22  2  0  0  0  0
 14 30  1  0  0  0  0
 15 27  2  0  0  0  0
 15 28  1  0  0  0  0
 16 29  1  0  0  0  0
 17 29  1  0  0  0  0
 17 32  2  0  0  0  0
 17 33  1  0  0  0  0
 18 20  2  0  0  0  0
 18 39  1  0  0  0  0
 19 21  2  0  0  0  0
 19 40  1  0  0  0  0
 20 48  1  0  0  0  0
 21 41  1  0  0  0  0
 22 23  1  0  0  0  0
 22 51  1  0  0  0  0
 23 31  2  0  0  0  0
 23 62  1  0  0  0  0
 24 82  1  0  0  0  0
 25 83  1  0  0  0  0
 26 28  2  0  0  0  0
 26 82  1  0  0  0  0
 27 84  1  0  0  0  0
 28 85  1  0  0  0  0
 29 64  2  0  0  0  0
 30 65  2  0  0  0  0
 30 71  1  0  0  0  0
 31 65  1  0  0  0  0
 31 72  1  0  0  0  0
 32 66  1  0  0  0  0
 32 69  1  0  0  0  0
 33 70  1  0  0  0  0
 33 76  2  0  0  0  0
 34 49  1  0  0  0  0
 34 73  1  0  0  0  0
 34 77  2  0  0  0  0
 35 58  1  0  0  0  0
 35 59  1  0  0  0  0
 35 78  2  0  0  0  0
 36 60  1  0  0  0  0
 36 67  1  0  0  0  0
 36 79  2  0  0  0  0
 37 61  1  0  0  0  0
 37 74  1  0  0  0  0
 37 80  2  0  0  0  0
 38 68  1  0  0  0  0
 38 71  1  0  0  0  0
 38 81  2  0  0  0  0
 39 42  1  0  0  0  0
 40 49  1  0  0  0  0
 41 67  1  0  0  0  0
 42 44  1  0  0  0  0
 43 45  1  0  0  0  0
 43 46  1  0  0  0  0
 44 48  1  0  0  0  0
 45 50  1  0  0  0  0
 46 68  1  0  0  0  0
 47 50  1  0  0  0  0
 47 68  1  0  0  0  0
 48 73  1  0  0  0  0
 49 67  1  0  0  0  0
 50 66  1  0  0  0  0
 52 59  1  0  0  0  0
 53 61  1  0  0  0  0
 54 63  1  0  0  0  0
 55 63  1  0  0  0  0
 56 63  1  0  0  0  0
 57 75  1  0  0  0  0
 58 83  1  0  0  0  0
 59 72  1  0  0  0  0
 60 63  1  0  0  0  0
 60 74  1  0  0  0  0
 61 75  1  0  0  0  0
 62 86  1  0  0  0  0
 62 87  1  0  0  0  0
 62 88  1  0  0  0  0
 64 66  1  0  0  0  0
M  CHG  1  75   1
M  ISO  4  38 100  58 101  71 100  83 101
M  END
> <Batch ID>
0181

> <Smiles>
CNC(C)C(=O)NC(C(=O)N1Cc2cc([101O:1][101CH2:1]C(=O)C(C)Nc3nc([100NH:0][100C:0](=O)N4CCCC(n5nc(-c6ccc(Oc7ccc(F)cc7F)cc6)c(C(N)=O)c5N)C4)cc(C)c3C(F)(F)F)ccc2CC1C(=O)NC1CCCc2ccccc21)C(C)(C)C

> <Shape>
0.222

> <Color>
0.059

> <Negative vol penalty>
0.000

$$$$

  -OEChem-04052304533D

 87 95  0     1  0  0  0  0  0999 V2000
  -30.5670  -33.6730   24.1902 C   0  0  0  0  0  0  0  0  0  0  0  0
  -30.0653  -32.3961   23.9597 C   0  0  0  0  0  0  0  0  0  0  0  0
  -24.9434   -8.3599   20.8849 C   0  0  0  0  0  0  0  0  0  0  0  0
  -23.3512   -9.8885   19.9024 C   0  0  0  0  0  0  0  0  0  0  0  0
  -29.6940  -34.7245   24.4659 C   0  0  0  0  0  0  0  0  0  0  0  0
  -28.6902  -32.1697   24.0059 C   0  0  0  0  0  0  0  0  0  0  0  0
  -27.0617  -29.3102   20.1567 C   0  0  0  0  0  0  0  0  0  0  0  0
  -23.8953   -7.5548   21.3309 C   0  0  0  0  0  0  0  0  0  0  0  0
  -22.3031   -9.0834   20.3484 C   0  0  0  0  0  0  0  0  0  0  0  0
  -27.2835  -27.9366   20.2456 C   0  0  0  0  0  0  0  0  0  0  0  0
  -21.6570   -7.5572   23.8636 C   0  0  0  0  0  0  0  0  0  0  0  0
  -21.7175   -7.0827   25.1739 C   0  0  0  0  0  0  0  0  0  0  0  0
  -28.7902  -18.7773   17.7744 C   0  0  0  0  0  0  0  0  0  0  0  0
  -28.6285  -19.5195   15.4810 C   0  0  0  0  0  0  0  0  0  0  0  0
  -25.0016  -27.6205   20.9611 C   0  0  0  0  0  0  0  0  0  0  0  0
  -21.6871   -4.8108   24.3526 C   0  0  0  0  0  0  0  0  0  0  0  0
  -24.6714   -9.5268   20.1707 C   0  0  0  0  0  0  0  0  0  0  0  0
  -28.7722  -19.8105   16.8376 C   0  0  0  0  0  0  0  0  0  0  0  0
  -26.4290  -10.2710   18.4782 C   0  0  0  0  0  0  0  0  0  0  0  0
  -28.3068  -34.5128   24.5059 C   0  0  0  0  0  0  0  0  0  0  0  0
  -25.8092  -29.8513   20.4804 C   0  0  0  0  0  0  0  0  0  0  0  0
  -27.7978  -33.2190   24.2837 C   0  0  0  0  0  0  0  0  0  0  0  0
  -24.7657  -29.0009   20.8730 C   0  0  0  0  0  0  0  0  0  0  0  0
  -28.6645  -17.4530   17.3547 C   0  0  0  0  0  0  0  0  0  0  0  0
  -22.5752   -7.9165   21.0626 C   0  0  0  0  0  0  0  0  0  0  0  0
  -26.2543  -27.0918   20.6506 C   0  0  0  0  0  0  0  0  0  0  0  0
  -21.6115   -6.6584   22.7978 C   0  0  0  0  0  0  0  0  0  0  0  0
  -21.7326   -5.7095   25.4184 C   0  0  0  0  0  0  0  0  0  0  0  0
  -28.5027  -18.1952   15.0612 C   0  0  0  0  0  0  0  0  0  0  0  0
  -21.6265   -5.2853   23.0423 C   0  0  0  0  0  0  0  0  0  0  0  0
  -28.5208  -17.1620   15.9981 C   0  0  0  0  0  0  0  0  0  0  0  0
  -25.7536  -10.3591   19.7102 C   0  0  0  0  0  0  0  0  0  0  0  0
  -27.3634  -11.2765   18.5261 C   0  0  0  0  0  0  0  0  0  0  0  0
  -28.0229  -23.0407   18.6145 C   0  0  0  0  0  0  0  0  0  0  0  0
  -28.9056  -21.2145   17.2819 C   0  0  0  0  0  0  0  0  0  0  0  0
  -26.2295   -9.3616   17.3878 C   0  0  0  0  0  0  0  0  0  0  0  0
  -27.8809  -21.7624   18.2247 C   0  0  0  0  0  0  0  0  0  0  0  0
  -27.0817  -23.7448   19.5378 C   0  0  0  0  0  0  0  0  0  0  0  0
  -24.7484  -31.9021   22.6650 C   0  0  0  0  0  0  0  0  0  0  0  0
  -21.9615  -31.5969   21.0334 C   0  0  0  0  0  0  0  0  0  0  0  0
  -20.0075  -29.7148   18.9632 C   0  0  0  0  0  0  0  0  0  0  0  0
  -28.8170  -16.5236   19.6912 C   0  0  0  0  0  0  0  0  0  0  0  0
  -27.4055  -35.6708   24.8546 C   0  0  0  0  0  0  0  0  0  0  0  0
  -25.5783  -31.3322   20.3537 C   0  0  0  0  0  0  0  0  0  0  0  0
  -23.3968  -29.5297   21.2121 C   0  0  0  0  0  0  0  0  0  0  0  0
  -25.9378  -35.4239   24.5153 C   0  0  0  0  0  0  0  0  0  0  0  0
  -28.8714  -14.1907   22.3804 C   0  0  0  0  0  0  0  0  0  0  0  0
  -25.5040  -34.0425   24.9952 C   0  0  0  0  0  0  0  0  0  0  0  0
  -28.1207  -12.9786   21.8241 C   0  0  0  0  0  0  0  0  0  0  0  0
  -28.2676  -15.5056   21.8905 C   0  0  0  0  0  0  0  0  0  0  0  0
  -27.3706  -14.4049   19.8773 C   0  0  0  0  0  0  0  0  0  0  0  0
  -26.3107  -32.9387   24.3007 C   0  0  1  0  0  0  0  0  0  0  0  0
  -24.4124  -31.8299   21.2023 C   0  0  1  0  0  0  0  0  0  0  0  0
  -27.9823  -13.0565   20.2910 C   0  0  2  0  0  0  0  0  0  0  0  0
  -17.7661  -29.7112   17.8347 C   0  0  0  0  0  0  0  0  0  0  0  0
  -20.6287  -30.8998   23.6882 C   0  0  0  0  0  0  0  0  0  0  0  0
  -18.6830  -29.9995   22.3951 C   0  0  0  0  0  0  0  0  0  0  0  0
  -19.2895  -32.4124   22.2140 C   0  0  0  0  0  0  0  0  0  0  0  0
  -21.2336  -29.6243   16.2711 C   0  0  0  0  0  0  0  0  0  0  0  0
  -27.4290  -25.1864   19.8473 C   0  0  0  0  0  0  0  0  0  1  0  0
  -20.7674  -30.6774   21.1196 C   0  0  1  0  0  0  0  0  0  0  0  0
  -19.2377  -30.0720   17.7045 C   0  0  2  0  0  0  0  0  0  0  0  0
  -19.8684  -30.9872   22.3498 C   0  0  0  0  0  0  0  0  0  0  0  0
  -26.2195  -11.3428   20.4844 N   0  0  0  0  0  0  0  0  0  0  0  0
  -27.1977  -11.8819   19.7370 N   0  0  0  0  0  0  0  0  0  0  0  0
  -23.2224  -30.9855   21.0788 N   0  0  0  0  0  0  0  0  0  0  0  0
  -28.1712  -15.5091   20.4291 N   0  0  0  0  0  0  0  0  0  0  0  0
  -28.3026  -11.6928   17.6503 N   0  0  0  0  0  0  0  0  0  0  0  0
  -25.2262   -8.3897   17.5034 N   0  0  0  0  0  0  0  0  0  0  0  0
  -28.6827  -16.4051   18.3083 N   0  0  0  0  0  0  0  0  0  0  0  0
  -25.8203  -32.7242   22.9561 N   0  0  0  0  0  0  0  0  0  0  0  0
  -20.0803  -30.7792   19.8367 N   0  0  0  0  0  0  0  0  0  0  0  0
  -19.7979  -29.3444   16.5307 N   0  3  0  0  0  0  0  0  0  0  0  0
  -29.8345  -21.8879   16.8474 O   0  0  0  0  0  0  0  0  0  0  0  0
  -26.9313   -9.3989   16.3488 O   0  0  0  0  0  0  0  0  0  0  0  0
  -26.0936  -23.1925   20.0126 O   0  0  0  0  0  0  0  0  0  0  0  0
  -24.0835  -31.2606   23.4701 O   0  0  0  0  0  0  0  0  0  0  0  0
  -21.7821  -32.8123   20.9225 O   0  0  0  0  0  0  0  0  0  0  0  0
  -20.4922  -28.6016   19.1542 O   0  0  0  0  0  0  0  0  0  0  0  0
  -29.4658  -17.4154   20.2442 O   0  0  0  0  0  0  0  0  0  0  0  0
  -26.8495  -20.9316   18.6016 O   0  0  0  0  0  0  0  0  0  0  0  0
  -21.5522   -7.1311   21.4975 O   0  0  0  0  0  0  0  0  0  0  0  0
  -26.4683  -25.7508   20.7388 O   0  0  0  0  0  0  0  0  0  1  0  0
  -21.7923   -5.2540   26.6766 F   0  0  0  0  0  0  0  0  0  0  0  0
  -28.3645  -17.9158   13.7586 F   0  0  0  0  0  0  0  0  0  0  0  0
  -21.5842   -4.4170   22.0224 F   0  0  0  0  0  0  0  0  0  0  0  0
  -28.3990  -15.8930   15.5832 F   0  0  0  0  0  0  0  0  0  0  0  0
  1  2  1  0  0  0  0
  1  5  2  0  0  0  0
  2  6  2  0  0  0  0
  3  8  2  0  0  0  0
  3 17  1  0  0  0  0
  4  9  1  0  0  0  0
  4 17  2  0  0  0  0
  5 20  1  0  0  0  0
  6 22  1  0  0  0  0
  7 10  2  0  0  0  0
  7 21  1  0  0  0  0
  8 25  1  0  0  0  0
  9 25  2  0  0  0  0
 10 26  1  0  0  0  0
 11 12  2  0  0  0  0
 11 27  1  0  0  0  0
 12 28  1  0  0  0  0
 13 18  2  0  0  0  0
 13 24  1  0  0  0  0
 14 18  1  0  0  0  0
 14 29  2  0  0  0  0
 15 23  1  0  0  0  0
 15 26  2  0  0  0  0
 16 28  2  0  0  0  0
 16 30  1  0  0  0  0
 17 32  1  0  0  0  0
 18 35  1  0  0  0  0
 19 32  1  0  0  0  0
 19 33  2  0  0  0  0
 19 36  1  0  0  0  0
 20 22  2  0  0  0  0
 20 43  1  0  0  0  0
 21 23  2  0  0  0  0
 21 44  1  0  0  0  0
 22 52  1  0  0  0  0
 23 45  1  0  0  0  0
 24 31  2  0  0  0  0
 24 70  1  0  0  0  0
 25 82  1  0  0  0  0
 26 83  1  0  0  0  0
 27 30  2  0  0  0  0
 27 82  1  0  0  0  0
 28 84  1  0  0  0  0
 29 31  1  0  0  0  0
 29 85  1  0  0  0  0
 30 86  1  0  0  0  0
 31 87  1  0  0  0  0
 32 64  2  0  0  0  0
 33 65  1  0  0  0  0
 33 68  1  0  0  0  0
 34 37  2  0  0  0  0
 34 38  1  0  0  0  0
 35 37  1  0  0  0  0
 35 74  2  0  0  0  0
 36 69  1  0  0  0  0
 36 75  2  0  0  0  0
 37 81  1  0  0  0  0
 38 60  1  0  0  0  0
 38 76  2  0  0  0  0
 39 53  1  0  0  0  0
 39 71  1  0  0  0  0
 39 77  2  0  0  0  0
 40 61  1  0  0  0  0
 40 66  1  0  0  0  0
 40 78  2  0  0  0  0
 41 62  1  0  0  0  0
 41 72  1  0  0  0  0
 41 79  2  0  0  0  0
 42 67  1  0  0  0  0
 42 70  1  0  0  0  0
 42 80  2  0  0  0  0
 43 46  1  0  0  0  0
 44 53  1  0  0  0  0
 45 66  1  0  0  0  0
 46 48  1  0  0  0  0
 47 49  1  0  0  0  0
 47 50  1  0  0  0  0
 48 52  1  0  0  0  0
 49 54  1  0  0  0  0
 50 67  1  0  0  0  0
 51 54  1  0  0  0  0
 51 67  1  0  0  0  0
 52 71  1  0  0  0  0
 53 66  1  0  0  0  0
 54 65  1  0  0  0  0
 55 62  1  0  0  0  0
 56 63  1  0  0  0  0
 57 63  1  0  0  0  0
 58 63  1  0  0  0  0
 59 73  1  0  0  0  0
 60 83  1  0  0  0  0
 61 63  1  0  0  0  0
 61 72  1  0  0  0  0
 62 73  1  0  0  0  0
 64 65  1  0  0  0  0
M  CHG  1  73   1
M  ISO  4  42 100  60 101  70 100  83 101
M  END
> <Batch ID>
0181

> <Smiles>
CNC(C)C(=O)NC(C(=O)N1Cc2cc([101O:1][101CH2:1]C(=O)CC(=O)C(=O)c3cc(F)c(F)c([100NH:0][100C:0](=O)N4CCCC(n5nc(-c6ccc(Oc7ccc(F)cc7F)cc6)c(C(N)=O)c5N)C4)c3)ccc2CC1C(=O)NC1CCCc2ccccc21)C(C)(C)C

> <Shape>
0.259

> <Color>
0.095

> <Negative vol penalty>
0.000

$$$$

  -OEChem-04052304533D

 88 96  0     1  0  0  0  0  0999 V2000
  -17.6846  -25.2228   24.8801 C   0  0  0  0  0  0  0  0  0  0  0  0
  -19.0090  -24.8201   25.0189 C   0  0  0  0  0  0  0  0  0  0  0  0
  -24.1783   -9.2872   20.6622 C   0  0  0  0  0  0  0  0  0  0  0  0
  -22.6244  -10.9788   21.4111 C   0  0  0  0  0  0  0  0  0  0  0  0
  -17.3693  -26.3094   24.0653 C   0  0  0  0  0  0  0  0  0  0  0  0
  -20.0188  -25.5032   24.3421 C   0  0  0  0  0  0  0  0  0  0  0  0
  -25.7264  -26.5307   26.3101 C   0  0  0  0  0  0  0  0  0  0  0  0
  -23.2666   -8.2928   21.0165 C   0  0  0  0  0  0  0  0  0  0  0  0
  -21.7126   -9.9843   21.7654 C   0  0  0  0  0  0  0  0  0  0  0  0
  -26.9371  -25.8888   26.0531 C   0  0  0  0  0  0  0  0  0  0  0  0
  -22.2455   -6.7421   23.8408 C   0  0  0  0  0  0  0  0  0  0  0  0
  -22.7326   -5.6351   24.5357 C   0  0  0  0  0  0  0  0  0  0  0  0
  -27.4290  -27.5151   24.3408 C   0  0  0  0  0  0  0  0  0  0  0  0
  -21.9812   -4.1862   22.7544 C   0  0  0  0  0  0  0  0  0  0  0  0
  -23.8572  -10.6302   20.8595 C   0  0  0  0  0  0  0  0  0  0  0  0
  -24.9072  -12.3084   19.2505 C   0  0  0  0  0  0  0  0  0  0  0  0
  -18.3768  -27.0121   23.3858 C   0  0  0  0  0  0  0  0  0  0  0  0
  -25.3524  -27.6652   25.5756 C   0  0  0  0  0  0  0  0  0  0  0  0
  -19.7166  -26.5993   23.5164 C   0  0  0  0  0  0  0  0  0  0  0  0
  -26.2143  -28.1712   24.5921 C   0  0  0  0  0  0  0  0  0  0  0  0
  -22.0338   -8.6413   21.5680 C   0  0  0  0  0  0  0  0  0  0  0  0
  -27.7873  -26.3792   25.0664 C   0  0  0  0  0  0  0  0  0  0  0  0
  -21.6262   -6.5712   22.6027 C   0  0  0  0  0  0  0  0  0  0  0  0
  -22.6005   -4.3572   23.9925 C   0  0  0  0  0  0  0  0  0  0  0  0
  -21.4941   -5.2932   22.0595 C   0  0  0  0  0  0  0  0  0  0  0  0
  -24.7988  -11.6579   20.4943 C   0  0  0  0  0  0  0  0  0  0  0  0
  -28.0495  -20.9654   19.4946 C   0  0  0  0  0  0  0  0  0  0  0  0
  -29.0577  -20.9602   20.4356 C   0  0  0  0  0  0  0  0  0  0  0  0
  -25.9463  -13.1916   19.4144 C   0  0  0  0  0  0  0  0  0  0  0  0
  -28.2157  -18.9766   20.8434 C   0  0  0  0  0  0  0  0  0  0  0  0
  -24.1374  -12.1303   18.0541 C   0  0  0  0  0  0  0  0  0  0  0  0
  -22.9536  -28.3782   23.6157 C   0  0  0  0  0  0  0  0  0  0  0  0
  -24.2641  -31.3437   23.7203 C   0  0  0  0  0  0  0  0  0  0  0  0
  -27.0271  -33.2728   24.2599 C   0  0  0  0  0  0  0  0  0  0  0  0
  -31.0040  -22.1023   21.5460 C   0  0  0  0  0  0  0  0  0  0  0  0
  -28.6411  -17.0421   22.4001 C   0  0  0  0  0  0  0  0  0  0  0  0
  -17.9823  -28.1509   22.4790 C   0  0  0  0  0  0  0  0  0  0  0  0
  -24.0554  -28.3619   25.8833 C   0  0  0  0  0  0  0  0  0  0  0  0
  -25.8685  -29.3978   23.7895 C   0  0  0  0  0  0  0  0  0  0  0  0
  -19.1506  -29.0540   22.0920 C   0  0  0  0  0  0  0  0  0  0  0  0
  -29.3385  -13.6311   23.1456 C   0  0  0  0  0  0  0  0  0  0  0  0
  -20.3537  -28.2181   21.6672 C   0  0  0  0  0  0  0  0  0  0  0  0
  -28.2285  -12.8672   22.4199 C   0  0  0  0  0  0  0  0  0  0  0  0
  -28.8325  -14.9499   23.7272 C   0  0  0  0  0  0  0  0  0  0  0  0
  -27.0363  -15.0638   22.0450 C   0  0  0  0  0  0  0  0  0  0  0  0
  -20.8426  -27.3303   22.8180 C   0  0  1  0  0  0  0  0  0  0  0  0
  -23.5413  -29.2076   24.7223 C   0  0  1  0  0  0  0  0  0  0  0  0
  -27.5134  -13.7591   21.3862 C   0  0  2  0  0  0  0  0  0  0  0  0
  -27.7982  -35.6607   24.2334 C   0  0  0  0  0  0  0  0  0  0  0  0
  -24.3280  -31.2866   20.6702 C   0  0  0  0  0  0  0  0  0  0  0  0
  -25.9313  -33.2084   20.7373 C   0  0  0  0  0  0  0  0  0  0  0  0
  -23.6284  -33.4749   21.6583 C   0  0  0  0  0  0  0  0  0  0  0  0
  -27.7282  -33.1998   27.1343 C   0  0  0  0  0  0  0  0  0  0  0  0
  -30.3234  -24.6015   23.1761 C   0  0  0  0  0  0  0  0  0  0  0  0
  -30.8985  -24.6349   21.7540 C   0  0  0  0  0  0  0  0  0  0  0  0
  -29.4699  -25.8277   23.4788 C   0  0  0  0  0  0  0  0  0  1  0  0
  -25.3143  -32.0772   22.9215 C   0  0  1  0  0  0  0  0  0  0  0  0
  -27.2310  -34.5330   25.0814 C   0  0  2  0  0  0  0  0  0  0  0  0
  -31.7634  -23.4138   21.4395 C   0  0  1  0  0  0  0  0  0  0  0  0
  -27.6630  -22.0007   18.5143 C   0  0  0  0  0  0  0  0  0  0  0  0
  -24.8064  -32.4875   21.5104 C   0  0  0  0  0  0  0  0  0  0  0  0
  -25.6974  -12.0908   21.3826 N   0  0  0  0  0  0  0  0  0  0  0  0
  -29.1543  -19.8207   21.2103 N   0  0  0  0  0  0  0  0  0  0  0  0
  -26.3804  -13.0227   20.6963 N   0  0  0  0  0  0  0  0  0  0  0  0
  -24.5864  -30.0400   24.1232 N   0  0  0  0  0  0  0  0  0  0  0  0
  -28.1705  -15.7439   22.6898 N   0  0  0  0  0  0  0  0  0  0  0  0
  -26.5218  -14.0883   18.5856 N   0  0  0  0  0  0  0  0  0  0  0  0
  -23.1067  -11.1807   18.0579 N   0  0  0  0  0  0  0  0  0  0  0  0
  -29.9613  -22.0313   20.6312 N   0  0  0  0  0  0  0  0  0  0  0  0
  -27.9543  -17.6886   21.3730 N   0  0  0  0  0  0  0  0  0  0  0  0
  -21.6067  -28.1099   23.7682 N   0  0  0  0  0  0  0  0  0  0  0  0
  -25.7485  -33.1972   23.7494 N   0  0  0  0  0  0  0  0  0  0  0  0
  -28.1729  -34.2713   26.2062 N   0  3  0  0  0  0  0  0  0  0  0  0
  -24.3678  -12.7821   17.0074 O   0  0  0  0  0  0  0  0  0  0  0  0
  -23.6689  -28.0103   22.6912 O   0  0  0  0  0  0  0  0  0  0  0  0
  -23.1999  -31.9093   23.9833 O   0  0  0  0  0  0  0  0  0  0  0  0
  -27.9146  -32.4407   24.0852 O   0  0  0  0  0  0  0  0  0  0  0  0
  -31.3454  -21.2513   22.3624 O   0  0  0  0  0  0  0  0  0  0  0  0
  -29.6014  -17.5330   22.9992 O   0  0  0  0  0  0  0  0  0  0  0  0
  -21.1438   -7.6713   21.9136 O   0  0  0  0  0  0  0  0  0  0  0  0
  -28.9692  -25.7542   24.8130 O   0  0  0  0  0  0  0  0  0  1  0  0
  -23.0697   -3.2944   24.6592 F   0  0  0  0  0  0  0  0  0  0  0  0
  -20.9011   -5.1229   20.8698 F   0  0  0  0  0  0  0  0  0  0  0  0
  -32.8354  -23.4162   22.2828 F   0  0  0  0  0  0  0  0  0  0  0  0
  -28.4380  -23.1317   18.5568 F   0  0  0  0  0  0  0  0  0  0  0  0
  -27.7293  -21.5885   17.2077 F   0  0  0  0  0  0  0  0  0  0  0  0
  -26.3778  -22.4467   18.6793 F   0  0  0  0  0  0  0  0  0  0  0  0
  -27.1821  -19.4880   19.5726 S   0  0  0  0  0  0  0  0  0  0  0  0
  1  2  1  0  0  0  0
  1  5  2  0  0  0  0
  2  6  2  0  0  0  0
  3  8  2  0  0  0  0
  3 15  1  0  0  0  0
  4  9  1  0  0  0  0
  4 15  2  0  0  0  0
  5 17  1  0  0  0  0
  6 19  1  0  0  0  0
  7 10  2  0  0  0  0
  7 18  1  0  0  0  0
  8 21  1  0  0  0  0
  9 21  2  0  0  0  0
 10 22  1  0  0  0  0
 11 12  2  0  0  0  0
 11 23  1  0  0  0  0
 12 24  1  0  0  0  0
 13 20  1  0  0  0  0
 13 22  2  0  0  0  0
 14 24  2  0  0  0  0
 14 25  1  0  0  0  0
 15 26  1  0  0  0  0
 16 26  1  0  0  0  0
 16 29  2  0  0  0  0
 16 31  1  0  0  0  0
 17 19  2  0  0  0  0
 17 37  1  0  0  0  0
 18 20  2  0  0  0  0
 18 38  1  0  0  0  0
 19 46  1  0  0  0  0
 20 39  1  0  0  0  0
 21 80  1  0  0  0  0
 22 81  1  0  0  0  0
 23 25  2  0  0  0  0
 23 80  1  0  0  0  0
 24 82  1  0  0  0  0
 25 83  1  0  0  0  0
 26 62  2  0  0  0  0
 27 28  2  0  0  0  0
 27 60  1  0  0  0  0
 27 88  1  0  0  0  0
 28 63  1  0  0  0  0
 28 69  1  0  0  0  0
 29 64  1  0  0  0  0
 29 67  1  0  0  0  0
 30 63  2  0  0  0  0
 30 70  1  0  0  0  0
 30 88  1  0  0  0  0
 31 68  1  0  0  0  0
 31 74  2  0  0  0  0
 32 47  1  0  0  0  0
 32 71  1  0  0  0  0
 32 75  2  0  0  0  0
 33 57  1  0  0  0  0
 33 65  1  0  0  0  0
 33 76  2  0  0  0  0
 34 58  1  0  0  0  0
 34 72  1  0  0  0  0
 34 77  2  0  0  0  0
 35 59  1  0  0  0  0
 35 69  1  0  0  0  0
 35 78  2  0  0  0  0
 36 66  1  0  0  0  0
 36 70  1  0  0  0  0
 36 79  2  0  0  0  0
 37 40  1  0  0  0  0
 38 47  1  0  0  0  0
 39 65  1  0  0  0  0
 40 42  1  0  0  0  0
 41 43  1  0  0  0  0
 41 44  1  0  0  0  0
 42 46  1  0  0  0  0
 43 48  1  0  0  0  0
 44 66  1  0  0  0  0
 45 48  1  0  0  0  0
 45 66  1  0  0  0  0
 46 71  1  0  0  0  0
 47 65  1  0  0  0  0
 48 64  1  0  0  0  0
 49 58  1  0  0  0  0
 50 61  1  0  0  0  0
 51 61  1  0  0  0  0
 52 61  1  0  0  0  0
 53 73  1  0  0  0  0
 54 55  1  0  0  0  0
 54 56  1  0  0  0  0
 55 59  1  0  0  0  0
 56 81  1  0  0  0  0
 57 61  1  0  0  0  0
 57 72  1  0  0  0  0
 58 73  1  0  0  0  0
 59 84  1  0  0  0  0
 60 85  1  0  0  0  0
 60 86  1  0  0  0  0
 60 87  1  0  0  0  0
 62 64  1  0  0  0  0
M  CHG  1  73   1
M  ISO  4  36 100  56 101  70 100  81 101
M  END
> <Batch ID>
0181

> <Smiles>
CNC(C)C(=O)NC(C(=O)N1Cc2cc([101O:1][101CH2:1]CCC(F)C(=O)Nc3nc([100NH:0][100C:0](=O)N4CCCC(n5nc(-c6ccc(Oc7ccc(F)cc7F)cc6)c(C(N)=O)c5N)C4)sc3C(F)(F)F)ccc2CC1C(=O)NC1CCCc2ccccc21)C(C)(C)C

> <Shape>
0.265

> <Color>
0.113

> <Negative vol penalty>
0.000

$$$$

  -OEChem-04052304533D

 83 91  0     1  0  0  0  0  0999 V2000
  -21.5401  -12.7570   20.9650 C   0  0  0  0  0  0  0  0  0  0  0  0
  -21.6744  -14.0629   21.4256 C   0  0  0  0  0  0  0  0  0  0  0  0
  -25.3977  -28.1312   18.9293 C   0  0  0  0  0  0  0  0  0  0  0  0
  -25.4416  -26.7992   20.9445 C   0  0  0  0  0  0  0  0  0  0  0  0
  -22.6708  -12.0291   20.5968 C   0  0  0  0  0  0  0  0  0  0  0  0
  -22.9398  -14.6412   21.5194 C   0  0  0  0  0  0  0  0  0  0  0  0
  -23.0536  -19.3693   19.7091 C   0  0  0  0  0  0  0  0  0  0  0  0
  -26.4051  -28.9459   19.4458 C   0  0  0  0  0  0  0  0  0  0  0  0
  -26.4492  -27.6139   21.4610 C   0  0  0  0  0  0  0  0  0  0  0  0
  -22.5408  -20.3763   20.5257 C   0  0  0  0  0  0  0  0  0  0  0  0
  -28.7807  -29.5580   23.4597 C   0  0  0  0  0  0  0  0  0  0  0  0
  -28.6621  -29.9739   24.7858 C   0  0  0  0  0  0  0  0  0  0  0  0
  -17.6239  -23.7310   25.4981 C   0  0  0  0  0  0  0  0  0  0  0  0
  -24.7824  -20.9711   21.1896 C   0  0  0  0  0  0  0  0  0  0  0  0
  -26.5731  -31.0661   24.2565 C   0  0  0  0  0  0  0  0  0  0  0  0
  -16.4336  -24.4005   25.3181 C   0  0  0  0  0  0  0  0  0  0  0  0
  -24.9158  -27.0579   19.6787 C   0  0  0  0  0  0  0  0  0  0  0  0
  -24.0359  -25.0511   18.3725 C   0  0  0  0  0  0  0  0  0  0  0  0
  -23.9498  -12.6022   20.6769 C   0  0  0  0  0  0  0  0  0  0  0  0
  -24.4364  -19.1482   19.6349 C   0  0  0  0  0  0  0  0  0  0  0  0
  -24.0888  -13.9198   21.1531 C   0  0  0  0  0  0  0  0  0  0  0  0
  -25.3104  -19.9624   20.3693 C   0  0  0  0  0  0  0  0  0  0  0  0
  -18.4297  -23.7464   24.3231 C   0  0  0  0  0  0  0  0  0  0  0  0
  -26.9309  -28.6873   20.7117 C   0  0  0  0  0  0  0  0  0  0  0  0
  -23.4051  -21.1755   21.2683 C   0  0  0  0  0  0  0  0  0  0  0  0
  -27.7954  -29.8962   22.5319 C   0  0  0  0  0  0  0  0  0  0  0  0
  -27.5583  -30.7279   25.1842 C   0  0  0  0  0  0  0  0  0  0  0  0
  -26.6916  -30.6502   22.9303 C   0  0  0  0  0  0  0  0  0  0  0  0
  -23.8747  -26.2163   19.1459 C   0  0  0  0  0  0  0  0  0  0  0  0
  -22.7543  -24.6262   18.1206 C   0  0  0  0  0  0  0  0  0  0  0  0
  -17.8243  -24.4270   23.2896 C   0  0  0  0  0  0  0  0  0  0  0  0
  -25.2367  -24.4101   17.9221 C   0  0  0  0  0  0  0  0  0  0  0  0
  -21.7020  -21.9334   24.7266 C   0  0  0  0  0  0  0  0  0  0  0  0
  -20.3686  -22.4366   25.1991 C   0  0  0  0  0  0  0  0  0  0  0  0
  -26.3605  -16.7182   20.3397 C   0  0  0  0  0  0  0  0  0  0  0  0
  -28.6151  -18.6197   18.9894 C   0  0  0  0  0  0  0  0  0  0  0  0
  -29.6225  -21.7698   18.1474 C   0  0  0  0  0  0  0  0  0  0  0  0
  -17.5631  -25.3944   20.9782 C   0  0  0  0  0  0  0  0  0  0  0  0
  -25.1467  -11.7600   20.3124 C   0  0  0  0  0  0  0  0  0  0  0  0
  -24.9752  -18.0754   18.7287 C   0  0  0  0  0  0  0  0  0  0  0  0
  -26.8041  -19.7790   20.3091 C   0  0  0  0  0  0  0  0  0  0  0  0
  -26.4182  -12.5740   20.0868 C   0  0  0  0  0  0  0  0  0  0  0  0
  -18.2913  -26.2857   17.6089 C   0  0  0  0  0  0  0  0  0  0  0  0
  -26.6059  -13.5925   21.2067 C   0  0  0  0  0  0  0  0  0  0  0  0
  -19.8203  -26.2571   17.5487 C   0  0  0  0  0  0  0  0  0  0  0  0
  -17.7864  -26.8135   18.9506 C   0  0  0  0  0  0  0  0  0  0  0  0
  -19.8627  -26.1044   20.0710 C   0  0  0  0  0  0  0  0  0  0  0  0
  -25.4423  -14.5905   21.2455 C   0  0  1  0  0  0  0  0  0  0  0  0
  -26.3706  -17.6033   19.1255 C   0  0  1  0  0  0  0  0  0  0  0  0
  -20.4183  -25.5190   18.7624 C   0  0  2  0  0  0  0  0  0  0  0  0
  -31.0461  -23.5622   17.1189 C   0  0  0  0  0  0  0  0  0  0  0  0
  -30.2531  -18.2765   21.5407 C   0  0  0  0  0  0  0  0  0  0  0  0
  -31.6366  -20.2397   20.8336 C   0  0  0  0  0  0  0  0  0  0  0  0
  -31.5843  -18.1812   19.4257 C   0  0  0  0  0  0  0  0  0  0  0  0
  -28.1699  -21.6087   15.5739 C   0  0  0  0  0  0  0  0  0  0  0  0
  -22.7105  -22.9850   24.3188 C   0  0  0  0  0  0  0  0  0  0  0  0
  -23.6560  -22.4873   23.2361 C   0  0  0  0  0  0  0  0  0  1  0  0
  -29.5550  -19.6876   19.4945 C   0  0  1  0  0  0  0  0  0  0  0  0
  -30.1861  -22.3357   16.8565 C   0  0  2  0  0  0  0  0  0  0  0  0
  -30.7290  -19.0987   20.3265 C   0  0  0  0  0  0  0  0  0  0  0  0
  -22.5919  -26.5127   19.3704 N   0  0  0  0  0  0  0  0  0  0  0  0
  -21.9353  -25.5277   18.7342 N   0  0  0  0  0  0  0  0  0  0  0  0
  -27.2820  -18.7127   19.4135 N   0  0  0  0  0  0  0  0  0  0  0  0
  -18.3920  -26.0642   20.0536 N   0  0  0  0  0  0  0  0  0  0  0  0
  -22.2594  -23.5731   17.4361 N   0  0  0  0  0  0  0  0  0  0  0  0
  -26.4691  -24.9795   18.2706 N   0  0  0  0  0  0  0  0  0  0  0  0
  -19.7023  -23.1383   24.2178 N   0  0  0  0  0  0  0  0  0  0  0  0
  -18.2518  -24.6886   21.9642 N   0  0  0  0  0  0  0  0  0  0  0  0
  -25.5898  -15.5798   20.1996 N   0  0  0  0  0  0  0  0  0  0  0  0
  -29.9756  -20.4485   18.3229 N   0  0  0  0  0  0  0  0  0  0  0  0
  -29.0810  -22.7250   15.9355 N   0  3  0  0  0  0  0  0  0  0  0  0
  -25.2172  -23.3727   17.2172 O   0  0  0  0  0  0  0  0  0  0  0  0
  -21.8727  -20.7238   24.7185 O   0  0  0  0  0  0  0  0  0  0  0  0
  -20.0485  -22.1468   26.3399 O   0  0  0  0  0  0  0  0  0  0  0  0
  -27.0053  -17.0432   21.3297 O   0  0  0  0  0  0  0  0  0  0  0  0
  -29.0464  -17.7396   18.2404 O   0  0  0  0  0  0  0  0  0  0  0  0
  -28.9405  -22.4344   18.9243 O   0  0  0  0  0  0  0  0  0  0  0  0
  -16.3332  -25.4208   20.8850 O   0  0  0  0  0  0  0  0  0  0  0  0
  -27.9142  -29.4820   21.2159 O   0  0  0  0  0  0  0  0  0  0  0  0
  -22.9071  -22.1586   22.0667 O   0  0  0  0  0  0  0  0  0  1  0  0
  -27.4438  -31.1259   26.4581 F   0  0  0  0  0  0  0  0  0  0  0  0
  -25.7414  -30.9772   22.0439 F   0  0  0  0  0  0  0  0  0  0  0  0
  -16.2910  -25.0438   23.7376 S   0  0  0  0  0  0  0  0  0  0  0  0
  1  2  1  0  0  0  0
  1  5  2  0  0  0  0
  2  6  2  0  0  0  0
  3  8  2  0  0  0  0
  3 17  1  0  0  0  0
  4  9  1  0  0  0  0
  4 17  2  0  0  0  0
  5 19  1  0  0  0  0
  6 21  1  0  0  0  0
  7 10  2  0  0  0  0
  7 20  1  0  0  0  0
  8 24  1  0  0  0  0
  9 24  2  0  0  0  0
 10 25  1  0  0  0  0
 11 12  2  0  0  0  0
 11 26  1  0  0  0  0
 12 27  1  0  0  0  0
 13 16  2  0  0  0  0
 13 23  1  0  0  0  0
 14 22  1  0  0  0  0
 14 25  2  0  0  0  0
 15 27  2  0  0  0  0
 15 28  1  0  0  0  0
 16 83  1  0  0  0  0
 17 29  1  0  0  0  0
 18 29  1  0  0  0  0
 18 30  2  0  0  0  0
 18 32  1  0  0  0  0
 19 21  2  0  0  0  0
 19 39  1  0  0  0  0
 20 22  2  0  0  0  0
 20 40  1  0  0  0  0
 21 48  1  0  0  0  0
 22 41  1  0  0  0  0
 23 31  2  0  0  0  0
 23 67  1  0  0  0  0
 24 79  1  0  0  0  0
 25 80  1  0  0  0  0
 26 28  2  0  0  0  0
 26 79  1  0  0  0  0
 27 81  1  0  0  0  0
 28 82  1  0  0  0  0
 29 61  2  0  0  0  0
 30 62  1  0  0  0  0
 30 65  1  0  0  0  0
 31 68  1  0  0  0  0
 31 83  1  0  0  0  0
 32 66  1  0  0  0  0
 32 72  2  0  0  0  0
 33 34  1  0  0  0  0
 33 56  1  0  0  0  0
 33 73  2  0  0  0  0
 34 67  1  0  0  0  0
 34 74  2  0  0  0  0
 35 49  1  0  0  0  0
 35 69  1  0  0  0  0
 35 75  2  0  0  0  0
 36 58  1  0  0  0  0
 36 63  1  0  0  0  0
 36 76  2  0  0  0  0
 37 59  1  0  0  0  0
 37 70  1  0  0  0  0
 37 77  2  0  0  0  0
 38 64  1  0  0  0  0
 38 68  1  0  0  0  0
 38 78  2  0  0  0  0
 39 42  1  0  0  0  0
 40 49  1  0  0  0  0
 41 63  1  0  0  0  0
 42 44  1  0  0  0  0
 43 45  1  0  0  0  0
 43 46  1  0  0  0  0
 44 48  1  0  0  0  0
 45 50  1  0  0  0  0
 46 64  1  0  0  0  0
 47 50  1  0  0  0  0
 47 64  1  0  0  0  0
 48 69  1  0  0  0  0
 49 63  1  0  0  0  0
 50 62  1  0  0  0  0
 51 59  1  0  0  0  0
 52 60  1  0  0  0  0
 53 60  1  0  0  0  0
 54 60  1  0  0  0  0
 55 71  1  0  0  0  0
 56 57  1  0  0  0  0
 57 80  1  0  0  0  0
 58 60  1  0  0  0  0
 58 70  1  0  0  0  0
 59 71  1  0  0  0  0
 61 62  1  0  0  0  0
M  CHG  1  71   1
M  ISO  4  38 100  57 101  68 100  80 101
M  END
> <Batch ID>
0181

> <Smiles>
CNC(C)C(=O)NC(C(=O)N1Cc2cc([101O:1][101CH2:1]CC(=O)C(=O)Nc3ccsc3[100NH:0][100C:0](=O)N3CCCC(n4nc(-c5ccc(Oc6ccc(F)cc6F)cc5)c(C(N)=O)c4N)C3)ccc2CC1C(=O)NC1CCCc2ccccc21)C(C)(C)C

> <Shape>
0.188

> <Color>
0.058

> <Negative vol penalty>
0.000

$$$$

  -OEChem-04052304533D

 86 94  0     1  0  0  0  0  0999 V2000
  -20.9715  -21.8455   17.9915 C   0  0  0  0  0  0  0  0  0  0  0  0
  -22.2500  -21.5177   17.5519 C   0  0  0  0  0  0  0  0  0  0  0  0
  -26.1987  -27.9620   18.9673 C   0  0  0  0  0  0  0  0  0  0  0  0
  -26.4055  -27.5605   21.3407 C   0  0  0  0  0  0  0  0  0  0  0  0
  -20.5276  -21.3994   19.2356 C   0  0  0  0  0  0  0  0  0  0  0  0
  -23.0859  -20.7443   18.3566 C   0  0  0  0  0  0  0  0  0  0  0  0
  -28.2481  -15.7973   17.9143 C   0  0  0  0  0  0  0  0  0  0  0  0
  -25.1281  -28.8235   19.2063 C   0  0  0  0  0  0  0  0  0  0  0  0
  -25.3349  -28.4221   21.5797 C   0  0  0  0  0  0  0  0  0  0  0  0
  -29.5404  -15.5452   18.3728 C   0  0  0  0  0  0  0  0  0  0  0  0
  -21.9605  -28.3123   21.4000 C   0  0  0  0  0  0  0  0  0  0  0  0
  -20.9822  -27.8954   22.3025 C   0  0  0  0  0  0  0  0  0  0  0  0
  -28.6379  -14.7639   20.4690 C   0  0  0  0  0  0  0  0  0  0  0  0
  -21.4451  -29.8169   23.6920 C   0  0  0  0  0  0  0  0  0  0  0  0
  -33.1398  -20.5497   23.1636 C   0  0  0  0  0  0  0  0  0  0  0  0
  -26.8374  -27.3304   20.0345 C   0  0  0  0  0  0  0  0  0  0  0  0
  -29.3085  -26.7767   19.7264 C   0  0  0  0  0  0  0  0  0  0  0  0
  -21.3549  -20.6120   20.0519 C   0  0  0  0  0  0  0  0  0  0  0  0
  -27.1397  -15.5444   18.7352 C   0  0  0  0  0  0  0  0  0  0  0  0
  -22.6531  -20.2883   19.6134 C   0  0  0  0  0  0  0  0  0  0  0  0
  -27.3324  -15.0113   20.0177 C   0  0  0  0  0  0  0  0  0  0  0  0
  -24.6962  -29.0536   20.5125 C   0  0  0  0  0  0  0  0  0  0  0  0
  -29.7356  -15.0312   19.6513 C   0  0  0  0  0  0  0  0  0  0  0  0
  -22.6813  -29.4815   21.6435 C   0  0  0  0  0  0  0  0  0  0  0  0
  -20.7244  -28.6477   23.4485 C   0  0  0  0  0  0  0  0  0  0  0  0
  -22.4235  -30.2338   22.7894 C   0  0  0  0  0  0  0  0  0  0  0  0
  -27.9430  -26.4398   19.7882 C   0  0  0  0  0  0  0  0  0  0  0  0
  -34.8076  -18.9863   23.1012 C   0  0  0  0  0  0  0  0  0  0  0  0
  -32.5705  -19.9872   22.0424 C   0  0  0  0  0  0  0  0  0  0  0  0
  -34.2380  -18.4233   21.9804 C   0  0  0  0  0  0  0  0  0  0  0  0
  -29.9445  -25.5866   19.4705 C   0  0  0  0  0  0  0  0  0  0  0  0
  -29.9450  -28.0515   19.8861 C   0  0  0  0  0  0  0  0  0  0  0  0
  -36.0435  -18.4389   23.6917 C   0  0  0  0  0  0  0  0  0  0  0  0
  -24.8286  -17.3262   19.9955 C   0  0  0  0  0  0  0  0  0  0  0  0
  -33.1437  -15.7767   20.6213 C   0  0  0  0  0  0  0  0  0  0  0  0
  -23.6645  -14.4514   20.9457 C   0  0  0  0  0  0  0  0  0  0  0  0
  -24.2826  -11.1802   21.6969 C   0  0  0  0  0  0  0  0  0  0  0  0
  -30.6585  -20.1450   20.4097 C   0  0  0  0  0  0  0  0  0  0  0  0
  -20.8484  -20.1927   21.4092 C   0  0  0  0  0  0  0  0  0  0  0  0
  -25.7507  -15.7967   18.2160 C   0  0  0  0  0  0  0  0  0  0  0  0
  -26.1748  -14.7033   20.9307 C   0  0  0  0  0  0  0  0  0  0  0  0
  -21.6594  -19.0635   22.0398 C   0  0  0  0  0  0  0  0  0  0  0  0
  -28.0778  -21.0738   18.1394 C   0  0  0  0  0  0  0  0  0  0  0  0
  -23.1533  -19.3464   21.9174 C   0  0  0  0  0  0  0  0  0  0  0  0
  -27.9250  -22.5803   18.3609 C   0  0  0  0  0  0  0  0  0  0  0  0
  -28.3772  -20.3363   19.4434 C   0  0  0  0  0  0  0  0  0  0  0  0
  -29.3644  -22.3677   20.4272 C   0  0  0  0  0  0  0  0  0  0  0  0
  -23.5803  -19.4306   20.4470 C   0  0  1  0  0  0  0  0  0  0  0  0
  -24.7224  -15.9846   19.3272 C   0  0  1  0  0  0  0  0  0  0  0  0
  -29.1263  -23.1613   19.1322 C   0  0  2  0  0  0  0  0  0  0  0  0
  -35.4174  -15.8317   19.5750 C   0  0  0  0  0  0  0  0  0  0  0  0
  -23.1382   -9.0887   22.4799 C   0  0  0  0  0  0  0  0  0  0  0  0
  -23.5704  -15.5682   23.7836 C   0  0  0  0  0  0  0  0  0  0  0  0
  -23.3478  -13.2208   24.6254 C   0  0  0  0  0  0  0  0  0  0  0  0
  -21.5893  -14.1837   23.1412 C   0  0  0  0  0  0  0  0  0  0  0  0
  -24.9979   -9.7236   19.2219 C   0  0  0  0  0  0  0  0  0  0  0  0
  -32.0411  -15.6119   19.5916 C   0  0  0  0  0  0  0  0  0  1  0  0
  -34.3169  -16.6589   20.2180 C   0  0  2  0  0  0  0  0  0  0  0  0
  -23.8402  -13.5763   22.1632 C   0  0  1  0  0  0  0  0  0  0  0  0
  -23.5846   -9.9003   21.2738 C   0  0  2  0  0  0  0  0  0  0  0  0
  -23.1090  -14.1448   23.4121 C   0  0  0  0  0  0  0  0  0  0  0  0
  -34.2686  -20.0594   23.7131 N   0  0  0  0  0  0  0  0  0  0  0  0
  -27.7236  -25.1377   19.5875 N   0  0  0  0  0  0  0  0  0  0  0  0
  -33.1094  -18.9139   21.4307 N   0  0  0  0  0  0  0  0  0  0  0  0
  -28.9597  -24.6459   19.3971 N   0  0  0  0  0  0  0  0  0  0  0  0
  -24.8364  -14.9730   20.3798 N   0  0  0  0  0  0  0  0  0  0  0  0
  -29.5296  -20.9391   20.1168 N   0  0  0  0  0  0  0  0  0  0  0  0
  -31.2445  -25.2635   19.3032 N   0  0  0  0  0  0  0  0  0  0  0  0
  -29.1427  -29.1712   20.1446 N   0  0  0  0  0  0  0  0  0  0  0  0
  -31.3831  -20.5624   21.5257 N   0  0  0  0  0  0  0  0  0  0  0  0
  -34.8361  -17.3210   21.3945 N   0  0  0  0  0  0  0  0  0  0  0  0
  -23.6935  -18.1052   19.8770 N   0  0  0  0  0  0  0  0  0  0  0  0
  -23.4040  -12.2403   21.7721 N   0  0  0  0  0  0  0  0  0  0  0  0
  -24.5001   -9.0580   20.4532 N   0  3  0  0  0  0  0  0  0  0  0  0
  -35.9445  -17.5279   24.5944 O   0  5  0  0  0  0  0  0  0  0  0  0
  -31.1870  -28.1961   19.7857 O   0  0  0  0  0  0  0  0  0  0  0  0
  -37.1756  -18.8926   23.2829 O   0  0  0  0  0  0  0  0  0  0  0  0
  -25.8633  -17.6313   20.5769 O   0  0  0  0  0  0  0  0  0  0  0  0
  -33.0895  -15.2163   21.7164 O   0  0  0  0  0  0  0  0  0  0  0  0
  -22.5298  -14.6585   20.5085 O   0  0  0  0  0  0  0  0  0  0  0  0
  -25.4861  -11.2335   21.9403 O   0  0  0  0  0  0  0  0  0  0  0  0
  -30.9757  -19.1830   19.7055 O   0  0  0  0  0  0  0  0  0  0  0  0
  -23.6517  -29.8945   20.7461 O   0  0  0  0  0  0  0  0  0  0  0  0
  -30.9960  -14.7848   20.1015 O   0  0  0  0  0  0  0  0  0  1  0  0
  -19.7838  -28.2481   24.3143 F   0  0  0  0  0  0  0  0  0  0  0  0
  -23.1119  -31.3585   23.0281 F   0  0  0  0  0  0  0  0  0  0  0  0
  1  2  1  0  0  0  0
  1  5  2  0  0  0  0
  2  6  2  0  0  0  0
  3  8  2  0  0  0  0
  3 16  1  0  0  0  0
  4  9  1  0  0  0  0
  4 16  2  0  0  0  0
  5 18  1  0  0  0  0
  6 20  1  0  0  0  0
  7 10  2  0  0  0  0
  7 19  1  0  0  0  0
  8 22  1  0  0  0  0
  9 22  2  0  0  0  0
 10 23  1  0  0  0  0
 11 12  2  0  0  0  0
 11 24  1  0  0  0  0
 12 25  1  0  0  0  0
 13 21  1  0  0  0  0
 13 23  2  0  0  0  0
 14 25  2  0  0  0  0
 14 26  1  0  0  0  0
 15 29  1  0  0  0  0
 15 62  2  0  0  0  0
 16 27  1  0  0  0  0
 17 27  1  0  0  0  0
 17 31  2  0  0  0  0
 17 32  1  0  0  0  0
 18 20  2  0  0  0  0
 18 39  1  0  0  0  0
 19 21  2  0  0  0  0
 19 40  1  0  0  0  0
 20 48  1  0  0  0  0
 21 41  1  0  0  0  0
 22 83  1  0  0  0  0
 23 84  1  0  0  0  0
 24 26  2  0  0  0  0
 24 83  1  0  0  0  0
 25 85  1  0  0  0  0
 26 86  1  0  0  0  0
 27 63  2  0  0  0  0
 28 30  2  0  0  0  0
 28 33  1  0  0  0  0
 28 62  1  0  0  0  0
 29 64  2  0  0  0  0
 29 70  1  0  0  0  0
 30 64  1  0  0  0  0
 30 71  1  0  0  0  0
 31 65  1  0  0  0  0
 31 68  1  0  0  0  0
 32 69  1  0  0  0  0
 32 76  2  0  0  0  0
 33 75  1  0  0  0  0
 33 77  2  0  0  0  0
 34 49  1  0  0  0  0
 34 72  1  0  0  0  0
 34 78  2  0  0  0  0
 35 57  1  0  0  0  0
 35 58  1  0  0  0  0
 35 79  2  0  0  0  0
 36 59  1  0  0  0  0
 36 66  1  0  0  0  0
 36 80  2  0  0  0  0
 37 60  1  0  0  0  0
 37 73  1  0  0  0  0
 37 81  2  0  0  0  0
 38 67  1  0  0  0  0
 38 70  1  0  0  0  0
 38 82  2  0  0  0  0
 39 42  1  0  0  0  0
 40 49  1  0  0  0  0
 41 66  1  0  0  0  0
 42 44  1  0  0  0  0
 43 45  1  0  0  0  0
 43 46  1  0  0  0  0
 44 48  1  0  0  0  0
 45 50  1  0  0  0  0
 46 67  1  0  0  0  0
 47 50  1  0  0  0  0
 47 67  1  0  0  0  0
 48 72  1  0  0  0  0
 49 66  1  0  0  0  0
 50 65  1  0  0  0  0
 51 58  1  0  0  0  0
 52 60  1  0  0  0  0
 53 61  1  0  0  0  0
 54 61  1  0  0  0  0
 55 61  1  0  0  0  0
 56 74  1  0  0  0  0
 57 84  1  0  0  0  0
 58 71  1  0  0  0  0
 59 61  1  0  0  0  0
 59 73  1  0  0  0  0
 60 74  1  0  0  0  0
 63 65  1  0  0  0  0
M  CHG  2  74   1  75  -1
M  ISO  4  38 100  57 101  70 100  84 101
M  END
> <Batch ID>
0181

> <Smiles>
CNC(C)C(=O)NC(C(=O)N1Cc2cc([101O:1][101CH2:1]C(=O)C(C)Nc3nc([100NH:0][100C:0](=O)N4CCCC(n5nc(-c6ccc(Oc7ccc(F)cc7F)cc6)c(C(N)=O)c5N)C4)cnc3C(=O)O)ccc2CC1C(=O)NC1CCCc2ccccc21)C(C)(C)C

> <Shape>
0.221

> <Color>
0.061

> <Negative vol penalty>
0.000

$$$$

  -OEChem-04052304533D

 86 94  0     1  0  0  0  0  0999 V2000
  -27.1581  -36.6335   24.3337 C   0  0  0  0  0  0  0  0  0  0  0  0
  -27.7459  -35.5138   23.7539 C   0  0  0  0  0  0  0  0  0  0  0  0
  -24.3067   -9.9629   21.8213 C   0  0  0  0  0  0  0  0  0  0  0  0
  -23.3152  -11.2022   19.9997 C   0  0  0  0  0  0  0  0  0  0  0  0
  -25.9566  -36.5071   25.0297 C   0  0  0  0  0  0  0  0  0  0  0  0
  -27.1330  -34.2668   23.8707 C   0  0  0  0  0  0  0  0  0  0  0  0
  -27.0947  -29.7789   19.7038 C   0  0  0  0  0  0  0  0  0  0  0  0
  -23.0352   -9.6720   22.3155 C   0  0  0  0  0  0  0  0  0  0  0  0
  -22.0436  -10.9112   20.4939 C   0  0  0  0  0  0  0  0  0  0  0  0
  -27.8598  -28.6217   19.5645 C   0  0  0  0  0  0  0  0  0  0  0  0
  -20.5257   -7.5153   21.6199 C   0  0  0  0  0  0  0  0  0  0  0  0
  -20.2711   -6.2044   22.0229 C   0  0  0  0  0  0  0  0  0  0  0  0
  -26.1354  -27.3549   20.6785 C   0  0  0  0  0  0  0  0  0  0  0  0
  -26.6180  -20.4296   17.0942 C   0  0  0  0  0  0  0  0  0  0  0  0
  -28.0532  -19.3000   18.6758 C   0  0  0  0  0  0  0  0  0  0  0  0
  -19.7859   -6.9856   24.2571 C   0  0  0  0  0  0  0  0  0  0  0  0
  -24.4467  -10.7280   20.6635 C   0  0  0  0  0  0  0  0  0  0  0  0
  -26.5077  -10.2727   19.2308 C   0  0  0  0  0  0  0  0  0  0  0  0
  -25.3238  -35.2596   25.1468 C   0  0  0  0  0  0  0  0  0  0  0  0
  -25.8470  -29.7347   20.3422 C   0  0  0  0  0  0  0  0  0  0  0  0
  -25.9226  -34.1233   24.5700 C   0  0  0  0  0  0  0  0  0  0  0  0
  -25.3554  -28.5125   20.8223 C   0  0  0  0  0  0  0  0  0  0  0  0
  -26.2024  -19.1969   16.5909 C   0  0  0  0  0  0  0  0  0  0  0  0
  -27.5434  -20.4811   18.1367 C   0  0  0  0  0  0  0  0  0  0  0  0
  -27.6376  -18.0673   18.1724 C   0  0  0  0  0  0  0  0  0  0  0  0
  -21.9036  -10.1461   21.6518 C   0  0  0  0  0  0  0  0  0  0  0  0
  -27.3814  -27.4100   20.0544 C   0  0  0  0  0  0  0  0  0  0  0  0
  -20.4104   -8.5613   22.5355 C   0  0  0  0  0  0  0  0  0  0  0  0
  -19.9012   -5.9396   23.3415 C   0  0  0  0  0  0  0  0  0  0  0  0
  -20.0405   -8.2964   23.8540 C   0  0  0  0  0  0  0  0  0  0  0  0
  -26.7122  -18.0157   17.1299 C   0  0  0  0  0  0  0  0  0  0  0  0
  -25.7599  -11.0294   20.1528 C   0  0  0  0  0  0  0  0  0  0  0  0
  -27.6755  -10.9787   19.0743 C   0  0  0  0  0  0  0  0  0  0  0  0
  -27.5921  -25.2362   19.2171 C   0  0  0  0  0  0  0  0  0  1  0  0
  -26.1764   -9.0419   18.5744 C   0  0  0  0  0  0  0  0  0  0  0  0
  -28.2355  -24.0786   19.0234 C   0  0  0  0  0  0  0  0  0  0  0  0
  -27.5622  -22.9952   18.2353 C   0  0  0  0  0  0  0  0  0  0  0  0
  -24.6112  -31.0741   22.9466 C   0  0  0  0  0  0  0  0  0  0  0  0
  -21.8756  -29.6905   21.8862 C   0  0  0  0  0  0  0  0  0  0  0  0
  -20.4015  -27.2396   20.0243 C   0  0  0  0  0  0  0  0  0  0  0  0
  -29.0821  -16.7458   19.7578 C   0  0  0  0  0  0  0  0  0  0  0  0
  -24.0502  -35.1641   25.9490 C   0  0  0  0  0  0  0  0  0  0  0  0
  -25.0222  -30.9869   20.4607 C   0  0  0  0  0  0  0  0  0  0  0  0
  -24.0131  -28.4078   21.4975 C   0  0  0  0  0  0  0  0  0  0  0  0
  -23.2733  -33.8725   25.7071 C   0  0  0  0  0  0  0  0  0  0  0  0
  -30.5817  -13.9768   21.4194 C   0  0  0  0  0  0  0  0  0  0  0  0
  -24.2101  -32.6695   25.7530 C   0  0  0  0  0  0  0  0  0  0  0  0
  -29.5864  -12.8363   21.1941 C   0  0  0  0  0  0  0  0  0  0  0  0
  -29.8738  -15.3143   21.6284 C   0  0  0  0  0  0  0  0  0  0  0  0
  -27.9124  -14.5350   20.3577 C   0  0  0  0  0  0  0  0  0  0  0  0
  -25.2756  -32.7578   24.6537 C   0  0  1  0  0  0  0  0  0  0  0  0
  -23.9936  -30.9207   21.5855 C   0  0  1  0  0  0  0  0  0  0  0  0
  -28.5802  -13.1788   20.0778 C   0  0  2  0  0  0  0  0  0  0  0  0
  -25.8657  -18.8354   14.1327 C   0  0  0  0  0  0  0  0  0  0  0  0
  -18.1488  -26.3398   19.3816 C   0  0  0  0  0  0  0  0  0  0  0  0
  -21.6061  -28.4050   24.6402 C   0  0  0  0  0  0  0  0  0  0  0  0
  -19.9333  -26.8208   23.6601 C   0  0  0  0  0  0  0  0  0  0  0  0
  -19.4658  -29.2711   23.6792 C   0  0  0  0  0  0  0  0  0  0  0  0
  -20.8815  -27.7670   17.1520 C   0  0  0  0  0  0  0  0  0  0  0  0
  -25.2119  -19.1458   15.4766 C   0  0  0  0  0  0  0  0  0  0  0  0
  -21.2051  -28.3535   22.0902 C   0  0  1  0  0  0  0  0  0  0  0  0
  -19.2773  -27.2872   19.0054 C   0  0  2  0  0  0  0  0  0  0  0  0
  -20.5787  -28.2146   23.5065 C   0  0  0  0  0  0  0  0  0  0  0  0
  -26.3990  -12.1314   20.5541 N   0  0  0  0  0  0  0  0  0  0  0  0
  -27.5608  -12.0724   19.8810 N   0  0  0  0  0  0  0  0  0  0  0  0
  -23.2468  -29.6611   21.5950 N   0  0  0  0  0  0  0  0  0  0  0  0
  -28.9400  -15.5738   20.5305 N   0  0  0  0  0  0  0  0  0  0  0  0
  -28.7790  -10.7642   18.3269 N   0  0  0  0  0  0  0  0  0  0  0  0
  -24.9354   -8.4512   18.8490 N   0  0  0  0  0  0  0  0  0  0  0  0
  -27.9649  -21.7324   18.6477 N   0  0  0  0  0  0  0  0  0  0  0  0
  -28.1572  -16.8688   18.7215 N   0  0  0  0  0  0  0  0  0  0  0  0
  -24.7134  -32.3843   23.3736 N   0  0  0  0  0  0  0  0  0  0  0  0
  -20.2501  -28.2048   20.9974 N   0  0  0  0  0  0  0  0  0  0  0  0
  -19.7835  -26.9033   17.6573 N   0  3  0  0  0  0  0  0  0  0  0  0
  -26.9644   -8.4739   17.7807 O   0  0  0  0  0  0  0  0  0  0  0  0
  -26.7619  -23.2669   17.3468 O   0  0  0  0  0  0  0  0  0  0  0  0
  -24.9674  -30.0775   23.5643 O   0  0  0  0  0  0  0  0  0  0  0  0
  -21.2059  -30.7227   21.9747 O   0  0  0  0  0  0  0  0  0  0  0  0
  -21.3199  -26.4250   19.9653 O   0  0  0  0  0  0  0  0  0  0  0  0
  -29.9766  -17.5656   19.9808 O   0  0  0  0  0  0  0  0  0  0  0  0
  -29.5006  -23.8404   19.5207 O   0  0  0  0  0  0  0  0  0  0  0  0
  -20.6627   -9.8623   22.1336 O   0  0  0  0  0  0  0  0  0  0  0  0
  -28.1264  -26.2791   19.9204 O   0  0  0  0  0  0  0  0  0  1  0  0
  -19.6552   -4.6809   23.7280 F   0  0  0  0  0  0  0  0  0  0  0  0
  -19.9270   -9.2973   24.7379 F   0  0  0  0  0  0  0  0  0  0  0  0
  -26.3114  -16.8313   16.6437 F   0  0  0  0  0  0  0  0  0  0  0  0
  1  2  1  0  0  0  0
  1  5  2  0  0  0  0
  2  6  2  0  0  0  0
  3  8  2  0  0  0  0
  3 17  1  0  0  0  0
  4  9  1  0  0  0  0
  4 17  2  0  0  0  0
  5 19  1  0  0  0  0
  6 21  1  0  0  0  0
  7 10  2  0  0  0  0
  7 20  1  0  0  0  0
  8 26  1  0  0  0  0
  9 26  2  0  0  0  0
 10 27  1  0  0  0  0
 11 12  2  0  0  0  0
 11 28  1  0  0  0  0
 12 29  1  0  0  0  0
 13 22  1  0  0  0  0
 13 27  2  0  0  0  0
 14 23  1  0  0  0  0
 14 24  2  0  0  0  0
 15 24  1  0  0  0  0
 15 25  2  0  0  0  0
 16 29  2  0  0  0  0
 16 30  1  0  0  0  0
 17 32  1  0  0  0  0
 18 32  1  0  0  0  0
 18 33  2  0  0  0  0
 18 35  1  0  0  0  0
 19 21  2  0  0  0  0
 19 42  1  0  0  0  0
 20 22  2  0  0  0  0
 20 43  1  0  0  0  0
 21 51  1  0  0  0  0
 22 44  1  0  0  0  0
 23 31  2  0  0  0  0
 23 60  1  0  0  0  0
 24 70  1  0  0  0  0
 25 31  1  0  0  0  0
 25 71  1  0  0  0  0
 26 82  1  0  0  0  0
 27 83  1  0  0  0  0
 28 30  2  0  0  0  0
 28 82  1  0  0  0  0
 29 84  1  0  0  0  0
 30 85  1  0  0  0  0
 31 86  1  0  0  0  0
 32 64  2  0  0  0  0
 33 65  1  0  0  0  0
 33 68  1  0  0  0  0
 34 36  2  0  0  0  0
 34 83  1  0  0  0  0
 35 69  1  0  0  0  0
 35 75  2  0  0  0  0
 36 37  1  0  0  0  0
 36 81  1  0  0  0  0
 37 70  1  0  0  0  0
 37 76  2  0  0  0  0
 38 52  1  0  0  0  0
 38 72  1  0  0  0  0
 38 77  2  0  0  0  0
 39 61  1  0  0  0  0
 39 66  1  0  0  0  0
 39 78  2  0  0  0  0
 40 62  1  0  0  0  0
 40 73  1  0  0  0  0
 40 79  2  0  0  0  0
 41 67  1  0  0  0  0
 41 71  1  0  0  0  0
 41 80  2  0  0  0  0
 42 45  1  0  0  0  0
 43 52  1  0  0  0  0
 44 66  1  0  0  0  0
 45 47  1  0  0  0  0
 46 48  1  0  0  0  0
 46 49  1  0  0  0  0
 47 51  1  0  0  0  0
 48 53  1  0  0  0  0
 49 67  1  0  0  0  0
 50 53  1  0  0  0  0
 50 67  1  0  0  0  0
 51 72  1  0  0  0  0
 52 66  1  0  0  0  0
 53 65  1  0  0  0  0
 54 60  1  0  0  0  0
 55 62  1  0  0  0  0
 56 63  1  0  0  0  0
 57 63  1  0  0  0  0
 58 63  1  0  0  0  0
 59 74  1  0  0  0  0
 61 63  1  0  0  0  0
 61 73  1  0  0  0  0
 62 74  1  0  0  0  0
 64 65  1  0  0  0  0
M  CHG  1  74   1
M  ISO  4  34 101  41 100  71 100  83 101
M  END
> <Batch ID>
0181

> <Smiles>
CCc1cc(NC(=O)C(=O)[101CH2:1][101O:1]c2ccc3c(c2)CN(C(=O)C(NC(=O)C(C)NC)C(C)(C)C)C(C(=O)NC2CCCc4ccccc42)C3)cc([100NH:0][100C:0](=O)N2CCCC(n3nc(-c4ccc(Oc5ccc(F)cc5F)cc4)c(C(N)=O)c3N)C2)c1F

> <Shape>
0.299

> <Color>
0.075

> <Negative vol penalty>
0.000

$$$$

  -OEChem-04052304533D

 89 97  0     1  0  0  0  0  0999 V2000
  -19.7715   -7.4850   20.4529 C   0  0  0  0  0  0  0  0  0  0  0  0
  -19.4110   -8.6686   21.0888 C   0  0  0  0  0  0  0  0  0  0  0  0
  -19.9771  -28.9882   23.4687 C   0  0  0  0  0  0  0  0  0  0  0  0
  -19.5873  -27.0600   22.0662 C   0  0  0  0  0  0  0  0  0  0  0  0
  -21.1187   -7.1730   20.2749 C   0  0  0  0  0  0  0  0  0  0  0  0
  -20.3976   -9.5405   21.5480 C   0  0  0  0  0  0  0  0  0  0  0  0
  -21.6706  -16.5249   22.5044 C   0  0  0  0  0  0  0  0  0  0  0  0
  -18.6268  -29.3262   23.3794 C   0  0  0  0  0  0  0  0  0  0  0  0
  -18.2369  -27.3980   21.9769 C   0  0  0  0  0  0  0  0  0  0  0  0
  -22.0888  -17.4185   23.4895 C   0  0  0  0  0  0  0  0  0  0  0  0
  -16.3270  -29.5950   20.2576 C   0  0  0  0  0  0  0  0  0  0  0  0
  -15.7266  -29.5385   18.9999 C   0  0  0  0  0  0  0  0  0  0  0  0
  -24.3834  -16.8133   23.0558 C   0  0  0  0  0  0  0  0  0  0  0  0
  -14.1564  -27.8971   19.8232 C   0  0  0  0  0  0  0  0  0  0  0  0
  -20.4574  -27.8552   22.8120 C   0  0  0  0  0  0  0  0  0  0  0  0
  -27.9989  -20.6903   22.5969 C   0  0  0  0  0  0  0  0  0  0  0  0
  -22.4606  -26.6808   23.8683 C   0  0  0  0  0  0  0  0  0  0  0  0
  -22.1222   -8.0461   20.7235 C   0  0  0  0  0  0  0  0  0  0  0  0
  -22.6065  -15.7595   21.7940 C   0  0  0  0  0  0  0  0  0  0  0  0
  -21.7595   -9.2393   21.3770 C   0  0  0  0  0  0  0  0  0  0  0  0
  -23.9746  -15.9126   22.0605 C   0  0  0  0  0  0  0  0  0  0  0  0
  -28.5861  -21.3871   21.5015 C   0  0  0  0  0  0  0  0  0  0  0  0
  -17.7567  -28.5311   22.6336 C   0  0  0  0  0  0  0  0  0  0  0  0
  -23.4452  -17.5607   23.7673 C   0  0  0  0  0  0  0  0  0  0  0  0
  -15.8422  -28.8025   21.2981 C   0  0  0  0  0  0  0  0  0  0  0  0
  -14.6413  -28.6896   18.7827 C   0  0  0  0  0  0  0  0  0  0  0  0
  -14.7569  -27.9536   21.0809 C   0  0  0  0  0  0  0  0  0  0  0  0
  -21.8523  -27.5059   22.9034 C   0  0  0  0  0  0  0  0  0  0  0  0
  -23.7888  -26.6655   23.5188 C   0  0  0  0  0  0  0  0  0  0  0  0
  -26.7758  -21.2169   22.9493 C   0  0  0  0  0  0  0  0  0  0  0  0
  -27.7891  -22.4197   21.0583 C   0  0  0  0  0  0  0  0  0  0  0  0
  -28.5822  -19.5643   23.2831 C   0  0  0  0  0  0  0  0  0  0  0  0
  -21.8772  -25.9899   24.9810 C   0  0  0  0  0  0  0  0  0  0  0  0
  -23.1787  -12.6496   21.4708 C   0  0  0  0  0  0  0  0  0  0  0  0
  -25.3387  -13.6718   19.2772 C   0  0  0  0  0  0  0  0  0  0  0  0
  -24.6273  -21.4402   24.2462 C   0  0  0  0  0  0  0  0  0  0  0  0
  -27.3447  -16.1880   18.1407 C   0  0  0  0  0  0  0  0  0  0  0  0
  -27.7979  -26.2255   19.7959 C   0  0  0  0  0  0  0  0  0  0  0  0
  -23.5654   -7.6434   20.5506 C   0  0  0  0  0  0  0  0  0  0  0  0
  -22.1409  -14.8196   20.7159 C   0  0  0  0  0  0  0  0  0  0  0  0
  -25.0208  -15.1291   21.3120 C   0  0  0  0  0  0  0  0  0  0  0  0
  -24.5461   -8.7990   20.7322 C   0  0  0  0  0  0  0  0  0  0  0  0
  -26.3778  -29.4558   20.1816 C   0  0  0  0  0  0  0  0  0  0  0  0
  -24.1985   -9.6029   21.9811 C   0  0  0  0  0  0  0  0  0  0  0  0
  -25.1120  -29.1770   20.9969 C   0  0  0  0  0  0  0  0  0  0  0  0
  -26.6471  -28.3510   19.1617 C   0  0  0  0  0  0  0  0  0  0  0  0
  -25.4216  -26.7089   20.5435 C   0  0  0  0  0  0  0  0  0  0  0  0
  -22.8004  -10.2225   21.8669 C   0  0  1  0  0  0  0  0  0  0  0  0
  -23.1474  -13.7144   20.4112 C   0  0  1  0  0  0  0  0  0  0  0  0
  -25.1485  -27.7691   21.6225 C   0  0  2  0  0  0  0  0  0  0  0  0
  -29.9000  -21.0462   20.9037 C   0  0  0  0  0  0  0  0  0  0  0  0
  -28.8764  -18.3235   22.4802 C   0  0  0  0  0  0  0  0  0  0  0  0
  -23.0980  -21.7617   26.1972 C   0  0  0  0  0  0  0  0  0  0  0  0
  -29.0225  -16.7134   16.3501 C   0  0  0  0  0  0  0  0  0  0  0  0
  -27.4413  -12.0435   20.7730 C   0  0  0  0  0  0  0  0  0  0  0  0
  -29.2070  -13.3334   19.5538 C   0  0  0  0  0  0  0  0  0  0  0  0
  -27.5996  -11.9129   18.2805 C   0  0  0  0  0  0  0  0  0  0  0  0
  -25.6639  -18.3620   17.0416 C   0  0  0  0  0  0  0  0  0  0  0  0
  -26.5785  -23.3639   18.6815 C   0  0  0  0  0  0  0  0  0  0  0  0
  -23.0463  -19.5860   24.9484 C   0  0  0  0  0  0  0  0  0  1  0  0
  -26.7933  -14.0740   19.3159 C   0  0  1  0  0  0  0  0  0  0  0  0
  -23.9312  -20.7415   25.4224 C   0  0  1  0  0  0  0  0  0  0  0  0
  -27.5558  -16.7575   16.7494 C   0  0  2  0  0  0  0  0  0  0  0  0
  -27.7407  -12.8544   19.4964 C   0  0  0  0  0  0  0  0  0  0  0  0
  -22.7226  -27.9804   22.0082 N   0  0  0  0  0  0  0  0  0  0  0  0
  -27.7464  -24.9821   20.4722 N   0  0  0  0  0  0  0  0  0  0  0  0
  -23.8913  -27.4519   22.4092 N   0  0  0  0  0  0  0  0  0  0  0  0
  -24.5152  -14.2183   20.2717 N   0  0  0  0  0  0  0  0  0  0  0  0
  -26.6520  -27.0430   19.8165 N   0  0  0  0  0  0  0  0  0  0  0  0
  -24.8672  -26.0562   24.0555 N   0  0  0  0  0  0  0  0  0  0  0  0
  -20.4977  -26.1137   25.1955 N   0  0  0  0  0  0  0  0  0  0  0  0
  -25.8550  -20.8493   23.9593 N   0  0  0  0  0  0  0  0  0  0  0  0
  -22.8337  -11.3916   21.0147 N   0  0  0  0  0  0  0  0  0  0  0  0
  -27.0362  -14.8447   18.1012 N   0  0  0  0  0  0  0  0  0  0  0  0
  -27.0961  -18.1741   16.6943 N   0  3  0  0  0  0  0  0  0  0  0  0
  -28.8622  -19.5245   24.4904 O   0  0  0  0  0  0  0  0  0  0  0  0
  -22.5616  -25.2970   25.7715 O   0  0  0  0  0  0  0  0  0  0  0  0
  -23.4941  -12.9469   22.6170 O   0  0  0  0  0  0  0  0  0  0  0  0
  -24.9461  -12.9068   18.3927 O   0  0  0  0  0  0  0  0  0  0  0  0
  -24.1198  -22.4013   23.6755 O   0  0  0  0  0  0  0  0  0  0  0  0
  -27.4471  -16.8661   19.1606 O   0  0  0  0  0  0  0  0  0  0  0  0
  -28.8300  -26.5874   19.2260 O   0  0  0  0  0  0  0  0  0  0  0  0
  -29.1294  -23.2268   19.0063 O   0  0  0  0  0  0  0  0  0  0  0  0
  -16.4389  -28.8604   22.5464 O   0  0  0  0  0  0  0  0  0  0  0  0
  -23.8561  -18.4317   24.7288 O   0  0  0  0  0  0  0  0  0  1  0  0
  -14.0638  -28.6365   17.5752 F   0  0  0  0  0  0  0  0  0  0  0  0
  -14.2860  -27.1909   22.0770 F   0  0  0  0  0  0  0  0  0  0  0  0
  -26.3398  -22.5460   21.9615 S   0  0  0  0  0  0  0  0  0  0  0  0
  -27.9564  -23.6217   19.7680 S   0  0  1  0  0  0  0  0  0  0  0  0
  1  2  1  0  0  0  0
  1  5  2  0  0  0  0
  2  6  2  0  0  0  0
  3  8  2  0  0  0  0
  3 15  1  0  0  0  0
  4  9  1  0  0  0  0
  4 15  2  0  0  0  0
  5 18  1  0  0  0  0
  6 20  1  0  0  0  0
  7 10  2  0  0  0  0
  7 19  1  0  0  0  0
  8 23  1  0  0  0  0
  9 23  2  0  0  0  0
 10 24  1  0  0  0  0
 11 12  2  0  0  0  0
 11 25  1  0  0  0  0
 12 26  1  0  0  0  0
 13 21  1  0  0  0  0
 13 24  2  0  0  0  0
 14 26  2  0  0  0  0
 14 27  1  0  0  0  0
 15 28  1  0  0  0  0
 16 22  1  0  0  0  0
 16 30  2  0  0  0  0
 16 32  1  0  0  0  0
 17 28  1  0  0  0  0
 17 29  2  0  0  0  0
 17 33  1  0  0  0  0
 18 20  2  0  0  0  0
 18 39  1  0  0  0  0
 19 21  2  0  0  0  0
 19 40  1  0  0  0  0
 20 48  1  0  0  0  0
 21 41  1  0  0  0  0
 22 31  2  0  0  0  0
 22 51  1  0  0  0  0
 23 84  1  0  0  0  0
 24 85  1  0  0  0  0
 25 27  2  0  0  0  0
 25 84  1  0  0  0  0
 26 86  1  0  0  0  0
 27 87  1  0  0  0  0
 28 65  2  0  0  0  0
 29 67  1  0  0  0  0
 29 70  1  0  0  0  0
 30 72  1  0  0  0  0
 30 88  1  0  0  0  0
 31 88  1  0  0  0  0
 31 89  1  0  0  0  0
 32 52  1  0  0  0  0
 32 76  2  0  0  0  0
 33 71  1  0  0  0  0
 33 77  2  0  0  0  0
 34 49  1  0  0  0  0
 34 73  1  0  0  0  0
 34 78  2  0  0  0  0
 35 61  1  0  0  0  0
 35 68  1  0  0  0  0
 35 79  2  0  0  0  0
 36 62  1  0  0  0  0
 36 72  1  0  0  0  0
 36 80  2  0  0  0  0
 37 63  1  0  0  0  0
 37 74  1  0  0  0  0
 37 81  2  0  0  0  0
 38 66  1  0  0  0  0
 38 69  1  0  0  0  0
 38 82  2  0  0  0  0
 39 42  1  0  0  0  0
 40 49  1  0  0  0  0
 41 68  1  0  0  0  0
 42 44  1  0  0  0  0
 43 45  1  0  0  0  0
 43 46  1  0  0  0  0
 44 48  1  0  0  0  0
 45 50  1  0  0  0  0
 46 69  1  0  0  0  0
 47 50  1  0  0  0  0
 47 69  1  0  0  0  0
 48 73  1  0  0  0  0
 49 68  1  0  0  0  0
 50 67  1  0  0  0  0
 53 62  1  0  0  0  0
 54 63  1  0  0  0  0
 55 64  1  0  0  0  0
 56 64  1  0  0  0  0
 57 64  1  0  0  0  0
 58 75  1  0  0  0  0
 59 89  1  0  0  0  0
 60 62  1  0  0  0  0
 60 85  1  0  0  0  0
 61 64  1  0  0  0  0
 61 74  1  0  0  0  0
 63 75  1  0  0  0  0
 65 67  1  0  0  0  0
 66 89  2  0  0  0  0
 83 89  2  0  0  0  0
M  CHG  1  75   1
M  ISO  4  38 100  60 101  66 100  85 101
M  END
> <Batch ID>
0181

> <Smiles>
CNC(C)C(=O)NC(C(=O)N1Cc2cc([101O:1][101CH2:1]C(C)C(=O)Nc3sc(S(C)(=O)=[100N:0][100C:0](=O)N4CCCC(n5nc(-c6ccc(Oc7ccc(F)cc7F)cc6)c(C(N)=O)c5N)C4)c(C)c3C(C)=O)ccc2CC1C(=O)NC1CCCc2ccccc21)C(C)(C)C

> <Shape>
0.219

> <Color>
0.072

> <Negative vol penalty>
0.000

$$$$

  -OEChem-04052304533D

 85 93  0     1  0  0  0  0  0999 V2000
  -18.0467  -25.6570   20.0440 C   0  0  0  0  0  0  0  0  0  0  0  0
  -19.2319  -26.0986   19.4647 C   0  0  0  0  0  0  0  0  0  0  0  0
  -26.4964  -12.8927   21.6783 C   0  0  0  0  0  0  0  0  0  0  0  0
  -25.9152  -13.9849   19.6031 C   0  0  0  0  0  0  0  0  0  0  0  0
  -17.7211  -26.0430   21.3436 C   0  0  0  0  0  0  0  0  0  0  0  0
  -20.0918  -26.9274   20.1845 C   0  0  0  0  0  0  0  0  0  0  0  0
  -24.9388  -25.5171   19.7814 C   0  0  0  0  0  0  0  0  0  0  0  0
  -25.8784  -11.7231   21.2359 C   0  0  0  0  0  0  0  0  0  0  0  0
  -25.2972  -12.8153   19.1606 C   0  0  0  0  0  0  0  0  0  0  0  0
  -25.6056  -25.8584   18.6056 C   0  0  0  0  0  0  0  0  0  0  0  0
  -24.1392   -8.5598   20.7974 C   0  0  0  0  0  0  0  0  0  0  0  0
  -23.3084   -7.8852   21.6919 C   0  0  0  0  0  0  0  0  0  0  0  0
  -26.6286  -27.7281   19.7356 C   0  0  0  0  0  0  0  0  0  0  0  0
  -21.8999   -9.8410   21.8588 C   0  0  0  0  0  0  0  0  0  0  0  0
  -28.2356  -24.4272   22.1907 C   0  0  0  0  0  0  0  0  0  0  0  0
  -26.5147  -14.0236   20.8620 C   0  0  0  0  0  0  0  0  0  0  0  0
  -28.4981  -15.6042   21.1374 C   0  0  0  0  0  0  0  0  0  0  0  0
  -18.5821  -26.8691   22.0831 C   0  0  0  0  0  0  0  0  0  0  0  0
  -25.1037  -26.2864   20.9422 C   0  0  0  0  0  0  0  0  0  0  0  0
  -19.7768  -27.3259   21.4947 C   0  0  0  0  0  0  0  0  0  0  0  0
  -25.9648  -27.3929   20.9255 C   0  0  0  0  0  0  0  0  0  0  0  0
  -28.4603  -23.2095   21.5872 C   0  0  0  0  0  0  0  0  0  0  0  0
  -25.2788  -11.6844   19.9770 C   0  0  0  0  0  0  0  0  0  0  0  0
  -26.4484  -26.9658   18.5817 C   0  0  0  0  0  0  0  0  0  0  0  0
  -23.8505   -9.8751   20.4336 C   0  0  0  0  0  0  0  0  0  0  0  0
  -22.1887   -8.5257   22.2226 C   0  0  0  0  0  0  0  0  0  0  0  0
  -22.7308  -10.5157   20.9643 C   0  0  0  0  0  0  0  0  0  0  0  0
  -29.5299  -23.2669   20.6477 C   0  0  0  0  0  0  0  0  0  0  0  0
  -27.1525  -15.2323   21.3187 C   0  0  0  0  0  0  0  0  0  0  0  0
  -30.0820  -24.5267   20.5688 C   0  0  0  0  0  0  0  0  0  0  0  0
  -28.6017  -16.8283   21.7516 C   0  0  0  0  0  0  0  0  0  0  0  0
  -29.5594  -14.9057   20.4730 C   0  0  0  0  0  0  0  0  0  0  0  0
  -23.1716  -28.0169   22.7795 C   0  0  0  0  0  0  0  0  0  0  0  0
  -25.8133  -28.2731   24.6445 C   0  0  0  0  0  0  0  0  0  0  0  0
  -30.2502  -25.6493   17.5147 C   0  0  0  0  0  0  0  0  0  0  0  0
  -29.2171  -28.1824   24.8748 C   0  0  0  0  0  0  0  0  0  0  0  0
  -26.6483  -21.9380   22.7899 C   0  0  0  0  0  0  0  0  0  0  0  0
  -18.1648  -27.2983   23.4674 C   0  0  0  0  0  0  0  0  0  0  0  0
  -24.3981  -25.8892   22.2098 C   0  0  0  0  0  0  0  0  0  0  0  0
  -26.1917  -28.2396   22.1503 C   0  0  0  0  0  0  0  0  0  0  0  0
  -19.3094  -27.8736   24.2976 C   0  0  0  0  0  0  0  0  0  0  0  0
  -25.3697  -19.2776   24.7811 C   0  0  0  0  0  0  0  0  0  0  0  0
  -20.1127  -28.8771   23.4763 C   0  0  0  0  0  0  0  0  0  0  0  0
  -25.8302  -18.0186   24.0429 C   0  0  0  0  0  0  0  0  0  0  0  0
  -24.9895  -20.3959   23.8123 C   0  0  0  0  0  0  0  0  0  0  0  0
  -26.4766  -19.4721   22.0790 C   0  0  0  0  0  0  0  0  0  0  0  0
  -20.7473  -28.2059   22.2523 C   0  0  1  0  0  0  0  0  0  0  0  0
  -24.2403  -27.0450   23.1930 C   0  0  1  0  0  0  0  0  0  0  0  0
  -26.9320  -18.3398   23.0140 C   0  0  2  0  0  0  0  0  0  0  0  0
  -32.4029  -25.5283   20.5191 C   0  0  0  0  0  0  0  0  0  0  0  0
  -31.4785  -28.1997   25.9624 C   0  0  0  0  0  0  0  0  0  0  0  0
  -25.4365  -31.2993   24.5459 C   0  0  0  0  0  0  0  0  0  0  0  0
  -27.7890  -31.5490   25.3655 C   0  0  0  0  0  0  0  0  0  0  0  0
  -26.0900  -30.4019   26.7869 C   0  0  0  0  0  0  0  0  0  0  0  0
  -29.1688  -25.2523   25.2886 C   0  0  0  0  0  0  0  0  0  0  0  0
  -29.8677  -26.8780   16.7091 C   0  0  0  0  0  0  0  0  0  0  0  0
  -28.6916  -26.6195   15.7743 C   0  0  0  0  0  0  0  0  0  0  0  0
  -27.4348  -26.2390   16.5434 C   0  0  0  0  0  0  0  0  0  1  0  0
  -31.2268  -25.0009   19.6997 C   0  0  2  0  0  0  0  0  0  0  0  0
  -26.9749  -29.2337   24.7267 C   0  0  1  0  0  0  0  0  0  0  0  0
  -30.1421  -27.4821   25.8537 C   0  0  2  0  0  0  0  0  0  0  0  0
  -26.5670  -30.6064   25.3324 C   0  0  0  0  0  0  0  0  0  0  0  0
  -26.4516  -16.1460   21.9953 N   0  0  0  0  0  0  0  0  0  0  0  0
  -27.3603  -17.1042   22.2446 N   0  0  0  0  0  0  0  0  0  0  0  0
  -25.4744  -27.8144   23.3637 N   0  0  0  0  0  0  0  0  0  0  0  0
  -26.0824  -20.6481   22.8706 N   0  0  0  0  0  0  0  0  0  0  0  0
  -29.6326  -17.6848   21.9128 N   0  0  0  0  0  0  0  0  0  0  0  0
  -29.2805  -13.6593   19.8960 N   0  0  0  0  0  0  0  0  0  0  0  0
  -27.7019  -22.0498   21.8832 N   0  0  0  0  0  0  0  0  0  0  0  0
  -21.9189  -27.4503   22.6408 N   0  0  0  0  0  0  0  0  0  0  0  0
  -30.7859  -25.9924   18.7474 N   0  0  0  0  0  0  0  0  0  0  0  0
  -28.0249  -28.5423   25.4669 N   0  0  0  0  0  0  0  0  0  0  0  0
  -30.3955  -26.0806   25.4149 N   0  3  0  0  0  0  0  0  0  0  0  0
  -30.7246  -15.3655   20.4077 O   0  0  0  0  0  0  0  0  0  0  0  0
  -23.4618  -29.1941   22.6011 O   0  0  0  0  0  0  0  0  0  0  0  0
  -25.2327  -27.9362   25.6795 O   0  0  0  0  0  0  0  0  0  0  0  0
  -30.0958  -24.5008   17.1080 O   0  0  0  0  0  0  0  0  0  0  0  0
  -29.5230  -28.3928   23.7032 O   0  0  0  0  0  0  0  0  0  0  0  0
  -26.2471  -22.8679   23.4945 O   0  0  0  0  0  0  0  0  0  0  0  0
  -24.6759  -10.5432   19.5449 O   0  0  0  0  0  0  0  0  0  0  0  0
  -27.0999  -27.3016   17.4351 O   0  0  0  0  0  0  0  0  0  1  0  0
  -21.3901   -7.8773   23.0804 F   0  0  0  0  0  0  0  0  0  0  0  0
  -22.4476  -11.7788   20.6176 F   0  0  0  0  0  0  0  0  0  0  0  0
  -29.9489  -22.2234   19.9281 F   0  0  0  0  0  0  0  0  0  0  0  0
  -29.3117  -25.6331   21.6246 S   0  0  0  0  0  0  0  0  0  0  0  0
  1  2  1  0  0  0  0
  1  5  2  0  0  0  0
  2  6  2  0  0  0  0
  3  8  2  0  0  0  0
  3 16  1  0  0  0  0
  4  9  1  0  0  0  0
  4 16  2  0  0  0  0
  5 18  1  0  0  0  0
  6 20  1  0  0  0  0
  7 10  2  0  0  0  0
  7 19  1  0  0  0  0
  8 23  1  0  0  0  0
  9 23  2  0  0  0  0
 10 24  1  0  0  0  0
 11 12  2  0  0  0  0
 11 25  1  0  0  0  0
 12 26  1  0  0  0  0
 13 21  1  0  0  0  0
 13 24  2  0  0  0  0
 14 26  2  0  0  0  0
 14 27  1  0  0  0  0
 15 22  2  0  0  0  0
 15 85  1  0  0  0  0
 16 29  1  0  0  0  0
 17 29  1  0  0  0  0
 17 31  2  0  0  0  0
 17 32  1  0  0  0  0
 18 20  2  0  0  0  0
 18 38  1  0  0  0  0
 19 21  2  0  0  0  0
 19 39  1  0  0  0  0
 20 47  1  0  0  0  0
 21 40  1  0  0  0  0
 22 28  1  0  0  0  0
 22 69  1  0  0  0  0
 23 80  1  0  0  0  0
 24 81  1  0  0  0  0
 25 27  2  0  0  0  0
 25 80  1  0  0  0  0
 26 82  1  0  0  0  0
 27 83  1  0  0  0  0
 28 30  2  0  0  0  0
 28 84  1  0  0  0  0
 29 63  2  0  0  0  0
 30 59  1  0  0  0  0
 30 85  1  0  0  0  0
 31 64  1  0  0  0  0
 31 67  1  0  0  0  0
 32 68  1  0  0  0  0
 32 74  2  0  0  0  0
 33 48  1  0  0  0  0
 33 70  1  0  0  0  0
 33 75  2  0  0  0  0
 34 60  1  0  0  0  0
 34 65  1  0  0  0  0
 34 76  2  0  0  0  0
 35 56  1  0  0  0  0
 35 71  1  0  0  0  0
 35 77  2  0  0  0  0
 36 61  1  0  0  0  0
 36 72  1  0  0  0  0
 36 78  2  0  0  0  0
 37 66  1  0  0  0  0
 37 69  1  0  0  0  0
 37 79  2  0  0  0  0
 38 41  1  0  0  0  0
 39 48  1  0  0  0  0
 40 65  1  0  0  0  0
 41 43  1  0  0  0  0
 42 44  1  0  0  0  0
 42 45  1  0  0  0  0
 43 47  1  0  0  0  0
 44 49  1  0  0  0  0
 45 66  1  0  0  0  0
 46 49  1  0  0  0  0
 46 66  1  0  0  0  0
 47 70  1  0  0  0  0
 48 65  1  0  0  0  0
 49 64  1  0  0  0  0
 50 59  1  0  0  0  0
 51 61  1  0  0  0  0
 52 62  1  0  0  0  0
 53 62  1  0  0  0  0
 54 62  1  0  0  0  0
 55 73  1  0  0  0  0
 56 57  1  0  0  0  0
 57 58  1  0  0  0  0
 58 81  1  0  0  0  0
 59 71  1  0  0  0  0
 60 62  1  0  0  0  0
 60 72  1  0  0  0  0
 61 73  1  0  0  0  0
 63 64  1  0  0  0  0
M  CHG  1  73   1
M  ISO  4  37 100  58 101  69 100  81 101
M  END
> <Batch ID>
0181

> <Smiles>
CNC(C)C(=O)NC(C(=O)N1Cc2cc([101O:1][101CH2:1]CCC(=O)NC(C)c3scc([100NH:0][100C:0](=O)N4CCCC(n5nc(-c6ccc(Oc7ccc(F)cc7F)cc6)c(C(N)=O)c5N)C4)c3F)ccc2CC1C(=O)NC1CCCc2ccccc21)C(C)(C)C

> <Shape>
0.263

> <Color>
0.079

> <Negative vol penalty>
0.000

$$$$

  -OEChem-04052304533D

 86 94  0     1  0  0  0  0  0999 V2000
  -16.0192  -16.9642   27.3445 C   0  0  0  0  0  0  0  0  0  0  0  0
  -17.0338  -17.7787   26.8521 C   0  0  0  0  0  0  0  0  0  0  0  0
  -22.9999   -9.8939   19.9815 C   0  0  0  0  0  0  0  0  0  0  0  0
  -23.7296   -9.9439   22.2841 C   0  0  0  0  0  0  0  0  0  0  0  0
  -15.7235  -15.7592   26.7084 C   0  0  0  0  0  0  0  0  0  0  0  0
  -17.7541  -17.3882   25.7238 C   0  0  0  0  0  0  0  0  0  0  0  0
  -20.0174  -21.0363   21.3563 C   0  0  0  0  0  0  0  0  0  0  0  0
  -22.2351   -8.7584   20.2485 C   0  0  0  0  0  0  0  0  0  0  0  0
  -22.9647   -8.8085   22.5512 C   0  0  0  0  0  0  0  0  0  0  0  0
  -21.2908  -21.5606   21.1389 C   0  0  0  0  0  0  0  0  0  0  0  0
  -21.4887   -5.7131   23.7553 C   0  0  0  0  0  0  0  0  0  0  0  0
  -22.0772   -4.6974   24.5086 C   0  0  0  0  0  0  0  0  0  0  0  0
  -21.7708  -19.7488   19.6203 C   0  0  0  0  0  0  0  0  0  0  0  0
  -29.4114  -18.6093   20.8094 C   0  0  0  0  0  0  0  0  0  0  0  0
  -30.2685  -19.9623   19.0005 C   0  0  0  0  0  0  0  0  0  0  0  0
  -23.8005   -4.4531   22.8329 C   0  0  0  0  0  0  0  0  0  0  0  0
  -23.7473  -10.4866   20.9993 C   0  0  0  0  0  0  0  0  0  0  0  0
  -24.1297  -13.0027   20.8243 C   0  0  0  0  0  0  0  0  0  0  0  0
  -16.4342  -15.3584   25.5661 C   0  0  0  0  0  0  0  0  0  0  0  0
  -19.6143  -19.8564   20.7147 C   0  0  0  0  0  0  0  0  0  0  0  0
  -17.4686  -16.1762   25.0726 C   0  0  0  0  0  0  0  0  0  0  0  0
  -20.4908  -19.2130   19.8293 C   0  0  0  0  0  0  0  0  0  0  0  0
  -30.6278  -17.9302   20.8778 C   0  0  0  0  0  0  0  0  0  0  0  0
  -29.2317  -19.6253   19.8707 C   0  0  0  0  0  0  0  0  0  0  0  0
  -31.4850  -19.2832   19.0690 C   0  0  0  0  0  0  0  0  0  0  0  0
  -22.2174   -8.2157   21.5334 C   0  0  0  0  0  0  0  0  0  0  0  0
  -22.1688  -20.9153   20.2730 C   0  0  0  0  0  0  0  0  0  0  0  0
  -22.0560   -6.0988   22.5407 C   0  0  0  0  0  0  0  0  0  0  0  0
  -23.2331   -4.0674   24.0475 C   0  0  0  0  0  0  0  0  0  0  0  0
  -23.2119   -5.4688   22.0796 C   0  0  0  0  0  0  0  0  0  0  0  0
  -31.6646  -18.2672   20.0077 C   0  0  0  0  0  0  0  0  0  0  0  0
  -24.5380  -11.6592   20.7239 C   0  0  0  0  0  0  0  0  0  0  0  0
  -25.2380  -13.7267   20.4582 C   0  0  0  0  0  0  0  0  0  0  0  0
  -24.4898  -20.6453   20.3758 C   0  0  0  0  0  0  0  0  0  1  0  0
  -22.8620  -13.5476   21.2137 C   0  0  0  0  0  0  0  0  0  0  0  0
  -25.7562  -21.0448   20.2073 C   0  0  0  0  0  0  0  0  0  0  0  0
  -26.8691  -20.1135   20.5849 C   0  0  0  0  0  0  0  0  0  0  0  0
  -18.7272  -16.9637   21.6890 C   0  0  0  0  0  0  0  0  0  0  0  0
  -18.1012  -16.5207   18.5372 C   0  0  0  0  0  0  0  0  0  0  0  0
  -18.7232  -17.4227   15.3051 C   0  0  0  0  0  0  0  0  0  0  0  0
  -30.7339  -14.6666   20.6965 C   0  0  0  0  0  0  0  0  0  0  0  0
  -16.1103  -14.0248   24.9405 C   0  0  0  0  0  0  0  0  0  0  0  0
  -18.2278  -19.3184   20.9393 C   0  0  0  0  0  0  0  0  0  0  0  0
  -20.0993  -17.9546   19.1002 C   0  0  0  0  0  0  0  0  0  0  0  0
  -16.6698  -13.8619   23.5296 C   0  0  0  0  0  0  0  0  0  0  0  0
  -29.5910  -12.2434   18.3516 C   0  0  0  0  0  0  0  0  0  0  0  0
  -18.1259  -14.3137   23.4773 C   0  0  0  0  0  0  0  0  0  0  0  0
  -28.1436  -11.9819   18.7718 C   0  0  0  0  0  0  0  0  0  0  0  0
  -30.4956  -12.4788   19.5592 C   0  0  0  0  0  0  0  0  0  0  0  0
  -28.5873  -13.2715   20.9023 C   0  0  0  0  0  0  0  0  0  0  0  0
  -18.2559  -15.7988   23.8365 C   0  0  1  0  0  0  0  0  0  0  0  0
  -18.1070  -17.8296   20.6292 C   0  0  1  0  0  0  0  0  0  0  0  0
  -27.6262  -13.0837   19.7161 C   0  0  2  0  0  0  0  0  0  0  0  0
  -18.0884  -16.8551   12.9446 C   0  0  0  0  0  0  0  0  0  0  0  0
  -19.8550  -14.0273   18.6676 C   0  0  0  0  0  0  0  0  0  0  0  0
  -19.9587  -14.0543   16.1663 C   0  0  0  0  0  0  0  0  0  0  0  0
  -17.7656  -13.7637   17.3189 C   0  0  0  0  0  0  0  0  0  0  0  0
  -17.6464  -20.1362   14.8194 C   0  0  0  0  0  0  0  0  0  0  0  0
  -30.8168  -16.8447   21.8830 C   0  0  0  0  0  0  0  0  0  0  0  0
  -18.8914  -16.0272   17.3493 C   0  0  1  0  0  0  0  0  0  0  0  0
  -17.7902  -17.7344   14.1490 C   0  0  2  0  0  0  0  0  0  0  0  0
  -19.1260  -14.4908   17.3906 C   0  0  0  0  0  0  0  0  0  0  0  0
  -25.8066  -11.5342   20.3251 N   0  0  0  0  0  0  0  0  0  0  0  0
  -26.2050  -12.8085   20.1716 N   0  0  0  0  0  0  0  0  0  0  0  0
  -18.7352  -17.4643   19.3579 N   0  0  0  0  0  0  0  0  0  0  0  0
  -29.9494  -13.5364   20.4131 N   0  0  0  0  0  0  0  0  0  0  0  0
  -32.5321  -19.6261   18.1880 N   0  0  0  0  0  0  0  0  0  0  0  0
  -25.4700  -15.0527   20.3566 N   0  0  0  0  0  0  0  0  0  0  0  0
  -21.8317  -12.6622   21.5586 N   0  0  0  0  0  0  0  0  0  0  0  0
  -27.9971  -20.3149   19.8015 N   0  0  0  0  0  0  0  0  0  0  0  0
  -17.8654  -16.6261   22.7151 N   0  0  0  0  0  0  0  0  0  0  0  0
  -18.1789  -16.4912   16.1638 N   0  0  0  0  0  0  0  0  0  0  0  0
  -30.1382  -15.6242   21.5082 N   0  0  0  0  0  0  0  0  0  0  0  0
  -17.9336  -19.1596   13.7374 N   0  3  0  0  0  0  0  0  0  0  0  0
  -22.6441  -14.7827   21.2387 O   0  0  0  0  0  0  0  0  0  0  0  0
  -26.7279  -19.2969   21.4888 O   0  0  0  0  0  0  0  0  0  0  0  0
  -19.9003  -16.6257   21.5830 O   0  0  0  0  0  0  0  0  0  0  0  0
  -16.9606  -16.0904   18.7258 O   0  0  0  0  0  0  0  0  0  0  0  0
  -19.8263  -17.9497   15.4317 O   0  0  0  0  0  0  0  0  0  0  0  0
  -31.8783  -14.8139   20.2543 O   0  0  0  0  0  0  0  0  0  0  0  0
  -26.0815  -22.2848   19.6963 O   0  0  0  0  0  0  0  0  0  0  0  0
  -21.4710   -7.1079   21.7944 O   0  0  0  0  0  0  0  0  0  0  0  0
  -23.4126  -21.4245   20.0594 O   0  0  0  0  0  0  0  0  0  1  0  0
  -23.7991   -3.0931   24.7717 F   0  0  0  0  0  0  0  0  0  0  0  0
  -23.7622   -5.8359   20.9141 F   0  0  0  0  0  0  0  0  0  0  0  0
  -32.8343  -17.6136   20.0748 F   0  0  0  0  0  0  0  0  0  0  0  0
  1  2  1  0  0  0  0
  1  5  2  0  0  0  0
  2  6  2  0  0  0  0
  3  8  2  0  0  0  0
  3 17  1  0  0  0  0
  4  9  1  0  0  0  0
  4 17  2  0  0  0  0
  5 19  1  0  0  0  0
  6 21  1  0  0  0  0
  7 10  2  0  0  0  0
  7 20  1  0  0  0  0
  8 26  1  0  0  0  0
  9 26  2  0  0  0  0
 10 27  1  0  0  0  0
 11 12  2  0  0  0  0
 11 28  1  0  0  0  0
 12 29  1  0  0  0  0
 13 22  1  0  0  0  0
 13 27  2  0  0  0  0
 14 23  1  0  0  0  0
 14 24  2  0  0  0  0
 15 24  1  0  0  0  0
 15 25  2  0  0  0  0
 16 29  2  0  0  0  0
 16 30  1  0  0  0  0
 17 32  1  0  0  0  0
 18 32  1  0  0  0  0
 18 33  2  0  0  0  0
 18 35  1  0  0  0  0
 19 21  2  0  0  0  0
 19 42  1  0  0  0  0
 20 22  2  0  0  0  0
 20 43  1  0  0  0  0
 21 51  1  0  0  0  0
 22 44  1  0  0  0  0
 23 31  2  0  0  0  0
 23 59  1  0  0  0  0
 24 70  1  0  0  0  0
 25 31  1  0  0  0  0
 25 67  1  0  0  0  0
 26 82  1  0  0  0  0
 27 83  1  0  0  0  0
 28 30  2  0  0  0  0
 28 82  1  0  0  0  0
 29 84  1  0  0  0  0
 30 85  1  0  0  0  0
 31 86  1  0  0  0  0
 32 63  2  0  0  0  0
 33 64  1  0  0  0  0
 33 68  1  0  0  0  0
 34 36  2  0  0  0  0
 34 83  1  0  0  0  0
 35 69  1  0  0  0  0
 35 75  2  0  0  0  0
 36 37  1  0  0  0  0
 36 81  1  0  0  0  0
 37 70  1  0  0  0  0
 37 76  2  0  0  0  0
 38 52  1  0  0  0  0
 38 71  1  0  0  0  0
 38 77  2  0  0  0  0
 39 60  1  0  0  0  0
 39 65  1  0  0  0  0
 39 78  2  0  0  0  0
 40 61  1  0  0  0  0
 40 72  1  0  0  0  0
 40 79  2  0  0  0  0
 41 66  1  0  0  0  0
 41 73  1  0  0  0  0
 41 80  2  0  0  0  0
 42 45  1  0  0  0  0
 43 52  1  0  0  0  0
 44 65  1  0  0  0  0
 45 47  1  0  0  0  0
 46 48  1  0  0  0  0
 46 49  1  0  0  0  0
 47 51  1  0  0  0  0
 48 53  1  0  0  0  0
 49 66  1  0  0  0  0
 50 53  1  0  0  0  0
 50 66  1  0  0  0  0
 51 71  1  0  0  0  0
 52 65  1  0  0  0  0
 53 64  1  0  0  0  0
 54 61  1  0  0  0  0
 55 62  1  0  0  0  0
 56 62  1  0  0  0  0
 57 62  1  0  0  0  0
 58 74  1  0  0  0  0
 59 73  1  0  0  0  0
 60 62  1  0  0  0  0
 60 72  1  0  0  0  0
 61 74  1  0  0  0  0
 63 64  1  0  0  0  0
M  CHG  1  74   1
M  ISO  4  34 101  41 100  73 100  83 101
M  END
> <Batch ID>
0181

> <Smiles>
CNC(C)C(=O)NC(C(=O)N1Cc2cc([101O:1][101CH2:1]C(=O)C(=O)Nc3cc(N)c(F)c(C[100NH:0][100C:0](=O)N4CCCC(n5nc(-c6ccc(Oc7ccc(F)cc7F)cc6)c(C(N)=O)c5N)C4)c3)ccc2CC1C(=O)NC1CCCc2ccccc21)C(C)(C)C

> <Shape>
0.197

> <Color>
0.186

> <Negative vol penalty>
0.000

$$$$

  -OEChem-04052304533D

 85 93  0     1  0  0  0  0  0999 V2000
  -22.1257   -9.1485   20.8504 C   0  0  0  0  0  0  0  0  0  0  0  0
  -21.7187  -10.3393   21.4435 C   0  0  0  0  0  0  0  0  0  0  0  0
  -28.3243  -26.2362   21.6126 C   0  0  0  0  0  0  0  0  0  0  0  0
  -29.6806  -28.1870   21.1747 C   0  0  0  0  0  0  0  0  0  0  0  0
  -23.4761   -8.9321   20.5792 C   0  0  0  0  0  0  0  0  0  0  0  0
  -22.6621  -11.3139   21.7669 C   0  0  0  0  0  0  0  0  0  0  0  0
  -21.9004  -17.3870   21.5593 C   0  0  0  0  0  0  0  0  0  0  0  0
  -29.1540  -25.4745   20.7898 C   0  0  0  0  0  0  0  0  0  0  0  0
  -30.5104  -27.4253   20.3519 C   0  0  0  0  0  0  0  0  0  0  0  0
  -21.6049  -18.3295   22.5433 C   0  0  0  0  0  0  0  0  0  0  0  0
  -32.7770  -26.0777   17.8506 C   0  0  0  0  0  0  0  0  0  0  0  0
  -33.1522  -26.6247   16.6236 C   0  0  0  0  0  0  0  0  0  0  0  0
  -23.9564  -18.8150   22.7759 C   0  0  0  0  0  0  0  0  0  0  0  0
  -19.5968  -24.7036   23.5155 C   0  0  0  0  0  0  0  0  0  0  0  0
  -30.8296  -26.7535   15.9708 C   0  0  0  0  0  0  0  0  0  0  0  0
  -28.5875  -27.5924   21.8050 C   0  0  0  0  0  0  0  0  0  0  0  0
  -27.8699  -28.5938   24.0388 C   0  0  0  0  0  0  0  0  0  0  0  0
  -24.4354   -9.9086   20.8906 C   0  0  0  0  0  0  0  0  0  0  0  0
  -23.2292  -17.1433   21.1833 C   0  0  0  0  0  0  0  0  0  0  0  0
  -24.0267  -11.1098   21.5008 C   0  0  0  0  0  0  0  0  0  0  0  0
  -24.2659  -17.8708   21.7851 C   0  0  0  0  0  0  0  0  0  0  0  0
  -19.1171  -26.0249   23.2829 C   0  0  0  0  0  0  0  0  0  0  0  0
  -30.2471  -26.0691   20.1595 C   0  0  0  0  0  0  0  0  0  0  0  0
  -22.6332  -19.0416   23.1538 C   0  0  0  0  0  0  0  0  0  0  0  0
  -31.4281  -25.8685   18.1377 C   0  0  0  0  0  0  0  0  0  0  0  0
  -32.1785  -26.9626   15.6837 C   0  0  0  0  0  0  0  0  0  0  0  0
  -30.4544  -26.2065   17.1978 C   0  0  0  0  0  0  0  0  0  0  0  0
  -27.7304  -28.3798   22.6544 C   0  0  0  0  0  0  0  0  0  0  0  0
  -20.1347  -26.8956   22.9603 C   0  0  0  0  0  0  0  0  0  0  0  0
  -26.8117  -29.4048   24.3692 C   0  0  0  0  0  0  0  0  0  0  0  0
  -20.9629  -24.6146   23.3614 C   0  0  0  0  0  0  0  0  0  0  0  0
  -28.8668  -28.1035   24.9451 C   0  0  0  0  0  0  0  0  0  0  0  0
  -20.0670  -28.3461   22.6467 C   0  0  0  0  0  0  0  0  0  0  0  0
  -25.1596  -14.6196   21.2756 C   0  0  0  0  0  0  0  0  0  0  0  0
  -27.1644  -16.5826   19.6478 C   0  0  0  0  0  0  0  0  0  0  0  0
  -28.1018  -19.7718   18.8747 C   0  0  0  0  0  0  0  0  0  0  0  0
  -21.5104  -22.2004   23.8206 C   0  0  0  0  0  0  0  0  0  0  0  0
  -21.4376  -30.2997   21.9922 C   0  0  0  0  0  0  0  0  0  0  0  0
  -25.8891   -9.6098   20.6218 C   0  0  0  0  0  0  0  0  0  0  0  0
  -23.5293  -16.1425   20.1013 C   0  0  0  0  0  0  0  0  0  0  0  0
  -25.7076  -17.6610   21.4029 C   0  0  0  0  0  0  0  0  0  0  0  0
  -26.7812  -10.8481   20.6529 C   0  0  0  0  0  0  0  0  0  0  0  0
  -23.9320  -32.7520   22.5034 C   0  0  0  0  0  0  0  0  0  0  0  0
  -26.4667  -11.7021   21.8771 C   0  0  0  0  0  0  0  0  0  0  0  0
  -25.2020  -31.9308   22.7425 C   0  0  0  0  0  0  0  0  0  0  0  0
  -23.0351  -32.1142   21.4433 C   0  0  0  0  0  0  0  0  0  0  0  0
  -23.9714  -29.8866   21.9114 C   0  0  0  0  0  0  0  0  0  0  0  0
  -25.0172  -12.2014   21.8437 C   0  0  1  0  0  0  0  0  0  0  0  0
  -24.9566  -15.6073   20.1616 C   0  0  1  0  0  0  0  0  0  0  0  0
  -24.8742  -30.4501   23.0207 C   0  0  1  0  0  0  0  0  0  0  0  0
  -17.3614  -27.1496   24.6755 C   0  0  0  0  0  0  0  0  0  0  0  0
  -29.3550  -21.6160   17.7235 C   0  0  0  0  0  0  0  0  0  0  0  0
  -23.7224  -21.7524   24.9459 C   0  0  0  0  0  0  0  0  0  0  0  0
  -29.2736  -15.9817   21.7692 C   0  0  0  0  0  0  0  0  0  0  0  0
  -30.5597  -17.9688   20.9535 C   0  0  0  0  0  0  0  0  0  0  0  0
  -30.1405  -16.0432   19.4242 C   0  0  0  0  0  0  0  0  0  0  0  0
  -26.1497  -19.8684   16.6524 C   0  0  0  0  0  0  0  0  0  0  0  0
  -17.6865  -26.4037   23.3802 C   0  0  0  0  0  0  0  0  0  0  0  0
  -28.2288  -17.5816   20.0329 C   0  0  1  0  0  0  0  0  0  0  0  0
  -28.4121  -20.4363   17.5456 C   0  0  2  0  0  0  0  0  0  0  0  0
  -22.7482  -21.3081   23.8648 C   0  0  1  0  0  0  0  0  0  1  0  0
  -29.5237  -16.8966   20.5538 C   0  0  0  0  0  0  0  0  0  0  0  0
  -26.6674  -29.0043   22.1406 N   0  0  0  0  0  0  0  0  0  0  0  0
  -26.1292  -29.6186   23.2079 N   0  0  0  0  0  0  0  0  0  0  0  0
  -25.9504  -16.6671   20.3442 N   0  0  0  0  0  0  0  0  0  0  0  0
  -22.7640  -30.7167   21.7851 N   0  0  0  0  0  0  0  0  0  0  0  0
  -26.4078  -29.9486   25.5368 N   0  0  0  0  0  0  0  0  0  0  0  0
  -29.8836  -27.2821   24.4392 N   0  0  0  0  0  0  0  0  0  0  0  0
  -21.8400  -23.5120   23.4951 N   0  0  0  0  0  0  0  0  0  0  0  0
  -21.2871  -28.9569   22.3560 N   0  0  0  0  0  0  0  0  0  0  0  0
  -24.8860  -13.3115   20.9245 N   0  0  0  0  0  0  0  0  0  0  0  0
  -28.4311  -18.4328   18.8655 N   0  0  0  0  0  0  0  0  0  0  0  0
  -27.1585  -20.9286   16.9075 N   0  3  0  0  0  0  0  0  0  0  0  0
  -28.8471  -28.3720   26.1702 O   0  0  0  0  0  0  0  0  0  0  0  0
  -18.9724  -28.9021   22.6218 O   0  0  0  0  0  0  0  0  0  0  0  0
  -25.5379  -15.0150   22.3721 O   0  0  0  0  0  0  0  0  0  0  0  0
  -27.3989  -15.7624   18.7568 O   0  0  0  0  0  0  0  0  0  0  0  0
  -27.6192  -20.3805   19.8272 O   0  0  0  0  0  0  0  0  0  0  0  0
  -20.3908  -21.7468   24.0394 O   0  0  0  0  0  0  0  0  0  0  0  0
  -20.4732  -31.0656   21.8988 O   0  0  0  0  0  0  0  0  0  0  0  0
  -31.0571  -25.3261   19.3567 O   0  0  0  0  0  0  0  0  0  0  0  0
  -22.3476  -19.9616   24.1150 O   0  0  0  0  0  0  0  0  0  1  0  0
  -32.5389  -27.4893   14.5060 F   0  0  0  0  0  0  0  0  0  0  0  0
  -29.1569  -26.0090   17.4685 F   0  0  0  0  0  0  0  0  0  0  0  0
  -21.6612  -26.1199   22.9384 S   0  0  0  0  0  0  0  0  0  0  0  0
  1  2  1  0  0  0  0
  1  5  2  0  0  0  0
  2  6  2  0  0  0  0
  3  8  2  0  0  0  0
  3 16  1  0  0  0  0
  4  9  1  0  0  0  0
  4 16  2  0  0  0  0
  5 18  1  0  0  0  0
  6 20  1  0  0  0  0
  7 10  2  0  0  0  0
  7 19  1  0  0  0  0
  8 23  1  0  0  0  0
  9 23  2  0  0  0  0
 10 24  1  0  0  0  0
 11 12  2  0  0  0  0
 11 25  1  0  0  0  0
 12 26  1  0  0  0  0
 13 21  1  0  0  0  0
 13 24  2  0  0  0  0
 14 22  1  0  0  0  0
 14 31  2  0  0  0  0
 15 26  2  0  0  0  0
 15 27  1  0  0  0  0
 16 28  1  0  0  0  0
 17 28  1  0  0  0  0
 17 30  2  0  0  0  0
 17 32  1  0  0  0  0
 18 20  2  0  0  0  0
 18 39  1  0  0  0  0
 19 21  2  0  0  0  0
 19 40  1  0  0  0  0
 20 48  1  0  0  0  0
 21 41  1  0  0  0  0
 22 29  2  0  0  0  0
 22 58  1  0  0  0  0
 23 81  1  0  0  0  0
 24 82  1  0  0  0  0
 25 27  2  0  0  0  0
 25 81  1  0  0  0  0
 26 83  1  0  0  0  0
 27 84  1  0  0  0  0
 28 63  2  0  0  0  0
 29 33  1  0  0  0  0
 29 85  1  0  0  0  0
 30 64  1  0  0  0  0
 30 67  1  0  0  0  0
 31 69  1  0  0  0  0
 31 85  1  0  0  0  0
 32 68  1  0  0  0  0
 32 74  2  0  0  0  0
 33 70  1  0  0  0  0
 33 75  2  0  0  0  0
 34 49  1  0  0  0  0
 34 71  1  0  0  0  0
 34 76  2  0  0  0  0
 35 59  1  0  0  0  0
 35 65  1  0  0  0  0
 35 77  2  0  0  0  0
 36 60  1  0  0  0  0
 36 72  1  0  0  0  0
 36 78  2  0  0  0  0
 37 61  1  0  0  0  0
 37 69  1  0  0  0  0
 37 79  2  0  0  0  0
 38 66  1  0  0  0  0
 38 70  1  0  0  0  0
 38 80  2  0  0  0  0
 39 42  1  0  0  0  0
 40 49  1  0  0  0  0
 41 65  1  0  0  0  0
 42 44  1  0  0  0  0
 43 45  1  0  0  0  0
 43 46  1  0  0  0  0
 44 48  1  0  0  0  0
 45 50  1  0  0  0  0
 46 66  1  0  0  0  0
 47 50  1  0  0  0  0
 47 66  1  0  0  0  0
 48 71  1  0  0  0  0
 49 65  1  0  0  0  0
 50 64  1  0  0  0  0
 51 58  1  0  0  0  0
 52 60  1  0  0  0  0
 53 61  1  0  0  0  0
 54 62  1  0  0  0  0
 55 62  1  0  0  0  0
 56 62  1  0  0  0  0
 57 73  1  0  0  0  0
 59 62  1  0  0  0  0
 59 72  1  0  0  0  0
 60 73  1  0  0  0  0
 61 82  1  0  0  0  0
 63 64  1  0  0  0  0
M  CHG  1  73   1
M  ISO  4  38 100  61 101  70 100  82 101
M  END
> <Batch ID>
0181

> <Smiles>
CCc1cc(NC(=O)[101CH:1](C)[101O:1]c2ccc3c(c2)CN(C(=O)C(NC(=O)C(C)NC)C(C)(C)C)C(C(=O)NC2CCCc4ccccc42)C3)sc1C(=O)[100NH:0][100C:0](=O)N1CCCC(n2nc(-c3ccc(Oc4ccc(F)cc4F)cc3)c(C(N)=O)c2N)C1

> <Shape>
0.253

> <Color>
0.042

> <Negative vol penalty>
0.000

$$$$

  -OEChem-04052304533D

 87 95  0     1  0  0  0  0  0999 V2000
  -30.1038  -34.7817   24.8089 C   0  0  0  0  0  0  0  0  0  0  0  0
  -29.6310  -33.4739   24.8461 C   0  0  0  0  0  0  0  0  0  0  0  0
  -23.2399   -9.6559   21.2802 C   0  0  0  0  0  0  0  0  0  0  0  0
  -23.9048  -10.5454   23.4259 C   0  0  0  0  0  0  0  0  0  0  0  0
  -29.2115  -35.8399   24.6425 C   0  0  0  0  0  0  0  0  0  0  0  0
  -28.2652  -33.2236   24.7180 C   0  0  0  0  0  0  0  0  0  0  0  0
  -27.2801  -29.3948   21.5533 C   0  0  0  0  0  0  0  0  0  0  0  0
  -22.5779   -8.6080   21.9198 C   0  0  0  0  0  0  0  0  0  0  0  0
  -23.2427   -9.4975   24.0655 C   0  0  0  0  0  0  0  0  0  0  0  0
  -27.4639  -28.1019   22.0415 C   0  0  0  0  0  0  0  0  0  0  0  0
  -23.3924   -5.6738   23.3866 C   0  0  0  0  0  0  0  0  0  0  0  0
  -23.5760   -4.3872   22.8802 C   0  0  0  0  0  0  0  0  0  0  0  0
  -25.0888  -27.9134   22.4193 C   0  0  0  0  0  0  0  0  0  0  0  0
  -21.2017   -4.2102   22.4694 C   0  0  0  0  0  0  0  0  0  0  0  0
  -23.9035  -10.6246   22.0333 C   0  0  0  0  0  0  0  0  0  0  0  0
  -24.0540  -12.9606   21.0193 C   0  0  0  0  0  0  0  0  0  0  0  0
  -27.8351  -35.6019   24.5026 C   0  0  0  0  0  0  0  0  0  0  0  0
  -25.9985  -29.9617   21.5045 C   0  0  0  0  0  0  0  0  0  0  0  0
  -27.3534  -34.2798   24.5509 C   0  0  0  0  0  0  0  0  0  0  0  0
  -24.8911  -29.2128   21.9276 C   0  0  0  0  0  0  0  0  0  0  0  0
  -22.5792   -8.5287   23.3124 C   0  0  0  0  0  0  0  0  0  0  0  0
  -26.3685  -27.3620   22.4773 C   0  0  0  0  0  0  0  0  0  0  0  0
  -22.1135   -6.2286   23.4345 C   0  0  0  0  0  0  0  0  0  0  0  0
  -22.4806   -3.6554   22.4216 C   0  0  0  0  0  0  0  0  0  0  0  0
  -21.0182   -5.4968   22.9759 C   0  0  0  0  0  0  0  0  0  0  0  0
  -24.5880  -11.7071   21.3732 C   0  0  0  0  0  0  0  0  0  0  0  0
  -31.1673  -19.4743   20.3451 C   0  0  0  0  0  0  0  0  0  0  0  0
  -25.0987  -13.6227   20.4220 C   0  0  0  0  0  0  0  0  0  0  0  0
  -30.0119  -19.9861   20.8976 C   0  0  0  0  0  0  0  0  0  0  0  0
  -30.0844  -17.5913   20.6478 C   0  0  0  0  0  0  0  0  0  0  0  0
  -22.7318  -13.4801   21.2131 C   0  0  0  0  0  0  0  0  0  0  0  0
  -24.6082  -32.4831   22.8512 C   0  0  0  0  0  0  0  0  0  0  0  0
  -22.1381  -31.6665   20.9136 C   0  0  0  0  0  0  0  0  0  0  0  0
  -27.3208  -23.8700   22.4279 C   0  0  0  0  0  0  0  0  0  0  0  0
  -20.5413  -29.2408   19.1212 C   0  0  0  0  0  0  0  0  0  0  0  0
  -30.4566  -15.1296   20.2632 C   0  0  0  0  0  0  0  0  0  0  0  0
  -28.3901  -21.7181   21.7652 C   0  0  0  0  0  0  0  0  0  0  0  0
  -26.9040  -36.7812   24.3723 C   0  0  0  0  0  0  0  0  0  0  0  0
  -25.8138  -31.3477   20.9502 C   0  0  0  0  0  0  0  0  0  0  0  0
  -23.4920  -29.7681   21.8770 C   0  0  0  0  0  0  0  0  0  0  0  0
  -25.5128  -36.4060   23.8683 C   0  0  0  0  0  0  0  0  0  0  0  0
  -29.6272  -11.9438   18.9069 C   0  0  0  0  0  0  0  0  0  0  0  0
  -24.9835  -35.1880   24.6188 C   0  0  0  0  0  0  0  0  0  0  0  0
  -28.1983  -11.7013   19.3985 C   0  0  0  0  0  0  0  0  0  0  0  0
  -30.4732  -12.6638   19.9554 C   0  0  0  0  0  0  0  0  0  0  0  0
  -28.4624  -13.6654   20.9667 C   0  0  0  0  0  0  0  0  0  0  0  0
  -25.8816  -33.9662   24.3906 C   0  0  1  0  0  0  0  0  0  0  0  0
  -24.5268  -32.0149   21.4258 C   0  0  1  0  0  0  0  0  0  0  0  0
  -27.5536  -13.0006   19.9199 C   0  0  2  0  0  0  0  0  0  0  0  0
  -18.5267  -28.8659   17.6727 C   0  0  0  0  0  0  0  0  0  0  0  0
  -32.9697  -21.0734   21.0799 C   0  0  0  0  0  0  0  0  0  0  0  0
  -31.9625  -21.2834   18.7826 C   0  0  0  0  0  0  0  0  0  0  0  0
  -33.5315  -19.4266   19.3039 C   0  0  0  0  0  0  0  0  0  0  0  0
  -20.3603  -31.6558   23.3933 C   0  0  0  0  0  0  0  0  0  0  0  0
  -18.6524  -30.3826   22.0779 C   0  0  0  0  0  0  0  0  0  0  0  0
  -19.3152  -32.6793   21.3648 C   0  0  0  0  0  0  0  0  0  0  0  0
  -22.2093  -28.4793   16.7981 C   0  0  0  0  0  0  0  0  0  0  0  0
  -27.6364  -25.3507   22.4219 C   0  0  0  0  0  0  0  0  0  1  0  0
  -20.9340  -30.7648   21.0389 C   0  0  1  0  0  0  0  0  0  0  0  0
  -20.0038  -29.2264   17.7016 C   0  0  2  0  0  0  0  0  0  0  0  0
  -32.3397  -20.2567   19.9025 C   0  0  0  0  0  0  0  0  0  0  0  0
  -19.8419  -31.3606   21.9716 C   0  0  0  0  0  0  0  0  0  0  0  0
  -25.8722  -11.5781   21.0293 N   0  0  0  0  0  0  0  0  0  0  0  0
  -31.2109  -18.1012   20.2015 N   0  0  0  0  0  0  0  0  0  0  0  0
  -26.1538  -12.7590   20.4530 N   0  0  0  0  0  0  0  0  0  0  0  0
  -23.3638  -31.1300   21.3328 N   0  0  0  0  0  0  0  0  0  0  0  0
  -29.8018  -13.8873   20.3996 N   0  0  0  0  0  0  0  0  0  0  0  0
  -25.2085  -14.8536   19.8786 N   0  0  0  0  0  0  0  0  0  0  0  0
  -21.7803  -12.6671   21.8441 N   0  0  0  0  0  0  0  0  0  0  0  0
  -29.5997  -21.3057   21.1964 N   0  0  0  0  0  0  0  0  0  0  0  0
  -29.7076  -16.2260   20.6893 N   0  0  0  0  0  0  0  0  0  0  0  0
  -25.6259  -33.3871   23.0891 N   0  0  0  0  0  0  0  0  0  0  0  0
  -28.3725  -23.1210   21.8980 N   0  0  0  0  0  0  0  0  0  0  0  0
  -20.4785  -30.5005   19.6784 N   0  0  0  0  0  0  0  0  0  0  0  0
  -20.7465  -28.2321   16.8765 N   0  3  0  0  0  0  0  0  0  0  0  0
  -22.3991  -14.6250   20.8232 O   0  0  0  0  0  0  0  0  0  0  0  0
  -23.8061  -32.0570   23.6738 O   0  0  0  0  0  0  0  0  0  0  0  0
  -21.9977  -32.8026   20.4538 O   0  0  0  0  0  0  0  0  0  0  0  0
  -26.2622  -23.4168   22.8537 O   0  0  0  0  0  0  0  0  0  0  0  0
  -20.9703  -28.2344   19.6812 O   0  0  0  0  0  0  0  0  0  0  0  0
  -31.5871  -15.2174   19.7771 O   0  0  0  0  0  0  0  0  0  0  0  0
  -27.4582  -20.9965   22.1113 O   0  0  0  0  0  0  0  0  0  0  0  0
  -21.9330   -7.5064   23.9368 O   0  0  0  0  0  0  0  0  0  0  0  0
  -26.5452  -26.1001   22.9549 O   0  0  0  0  0  0  0  0  0  1  0  0
  -22.6572   -2.4204   21.9338 F   0  0  0  0  0  0  0  0  0  0  0  0
  -19.7873   -6.0250   23.0182 F   0  0  0  0  0  0  0  0  0  0  0  0
  -28.9283  -18.7053   21.2538 S   0  0  0  0  0  0  0  0  0  0  0  0
  1  2  1  0  0  0  0
  1  5  2  0  0  0  0
  2  6  2  0  0  0  0
  3  8  2  0  0  0  0
  3 15  1  0  0  0  0
  4  9  1  0  0  0  0
  4 15  2  0  0  0  0
  5 17  1  0  0  0  0
  6 19  1  0  0  0  0
  7 10  2  0  0  0  0
  7 18  1  0  0  0  0
  8 21  1  0  0  0  0
  9 21  2  0  0  0  0
 10 22  1  0  0  0  0
 11 12  2  0  0  0  0
 11 23  1  0  0  0  0
 12 24  1  0  0  0  0
 13 20  1  0  0  0  0
 13 22  2  0  0  0  0
 14 24  2  0  0  0  0
 14 25  1  0  0  0  0
 15 26  1  0  0  0  0
 16 26  1  0  0  0  0
 16 28  2  0  0  0  0
 16 31  1  0  0  0  0
 17 19  2  0  0  0  0
 17 38  1  0  0  0  0
 18 20  2  0  0  0  0
 18 39  1  0  0  0  0
 19 47  1  0  0  0  0
 20 40  1  0  0  0  0
 21 83  1  0  0  0  0
 22 84  1  0  0  0  0
 23 25  2  0  0  0  0
 23 83  1  0  0  0  0
 24 85  1  0  0  0  0
 25 86  1  0  0  0  0
 26 63  2  0  0  0  0
 27 29  2  0  0  0  0
 27 61  1  0  0  0  0
 27 64  1  0  0  0  0
 28 65  1  0  0  0  0
 28 68  1  0  0  0  0
 29 70  1  0  0  0  0
 29 87  1  0  0  0  0
 30 64  2  0  0  0  0
 30 71  1  0  0  0  0
 30 87  1  0  0  0  0
 31 69  1  0  0  0  0
 31 76  2  0  0  0  0
 32 48  1  0  0  0  0
 32 72  1  0  0  0  0
 32 77  2  0  0  0  0
 33 59  1  0  0  0  0
 33 66  1  0  0  0  0
 33 78  2  0  0  0  0
 34 58  1  0  0  0  0
 34 73  1  0  0  0  0
 34 79  2  0  0  0  0
 35 60  1  0  0  0  0
 35 74  1  0  0  0  0
 35 80  2  0  0  0  0
 36 67  1  0  0  0  0
 36 71  1  0  0  0  0
 36 81  2  0  0  0  0
 37 70  1  0  0  0  0
 37 73  1  0  0  0  0
 37 82  2  0  0  0  0
 38 41  1  0  0  0  0
 39 48  1  0  0  0  0
 40 66  1  0  0  0  0
 41 43  1  0  0  0  0
 42 44  1  0  0  0  0
 42 45  1  0  0  0  0
 43 47  1  0  0  0  0
 44 49  1  0  0  0  0
 45 67  1  0  0  0  0
 46 49  1  0  0  0  0
 46 67  1  0  0  0  0
 47 72  1  0  0  0  0
 48 66  1  0  0  0  0
 49 65  1  0  0  0  0
 50 60  1  0  0  0  0
 51 61  1  0  0  0  0
 52 61  1  0  0  0  0
 53 61  1  0  0  0  0
 54 62  1  0  0  0  0
 55 62  1  0  0  0  0
 56 62  1  0  0  0  0
 57 75  1  0  0  0  0
 58 84  1  0  0  0  0
 59 62  1  0  0  0  0
 59 74  1  0  0  0  0
 60 75  1  0  0  0  0
 63 65  1  0  0  0  0
M  CHG  1  75   1
M  ISO  4  36 100  58 101  71 100  84 101
M  END
> <Batch ID>
0181

> <Smiles>
CNC(C)C(=O)NC(C(=O)N1Cc2cc([101O:1][101CH2:1]C(=O)NC(=O)Nc3sc([100NH:0][100C:0](=O)N4CCCC(n5nc(-c6ccc(Oc7ccc(F)cc7F)cc6)c(C(N)=O)c5N)C4)nc3C(C)(C)C)ccc2CC1C(=O)NC1CCCc2ccccc21)C(C)(C)C

> <Shape>
0.306

> <Color>
0.179

> <Negative vol penalty>
0.000

$$$$

  -OEChem-04052304533D

 84 92  0     1  0  0  0  0  0999 V2000
  -19.0033  -27.0855   22.1931 C   0  0  0  0  0  0  0  0  0  0  0  0
  -20.2499  -27.0814   21.5755 C   0  0  0  0  0  0  0  0  0  0  0  0
  -24.6773   -9.2387   21.5673 C   0  0  0  0  0  0  0  0  0  0  0  0
  -24.2868  -10.6691   23.4748 C   0  0  0  0  0  0  0  0  0  0  0  0
  -18.6852  -28.0847   23.1119 C   0  0  0  0  0  0  0  0  0  0  0  0
  -21.1787  -28.0772   21.8757 C   0  0  0  0  0  0  0  0  0  0  0  0
  -25.8357  -26.2307   22.6162 C   0  0  0  0  0  0  0  0  0  0  0  0
  -24.3554   -8.1221   22.3387 C   0  0  0  0  0  0  0  0  0  0  0  0
  -23.9648   -9.5524   24.2462 C   0  0  0  0  0  0  0  0  0  0  0  0
  -26.5744  -25.8932   21.4831 C   0  0  0  0  0  0  0  0  0  0  0  0
  -23.2866   -4.9289   23.7086 C   0  0  0  0  0  0  0  0  0  0  0  0
  -22.4415   -3.9731   23.1449 C   0  0  0  0  0  0  0  0  0  0  0  0
  -27.7751  -27.9787   21.6521 C   0  0  0  0  0  0  0  0  0  0  0  0
  -20.7113   -5.6426   22.9080 C   0  0  0  0  0  0  0  0  0  0  0  0
  -26.2186  -19.6898   20.0770 C   0  0  0  0  0  0  0  0  0  0  0  0
  -28.3233  -21.2750   19.3678 C   0  0  0  0  0  0  0  0  0  0  0  0
  -24.6431  -10.5122   22.1353 C   0  0  0  0  0  0  0  0  0  0  0  0
  -24.0961  -12.4512   20.5705 C   0  0  0  0  0  0  0  0  0  0  0  0
  -19.6141  -29.0878   23.4307 C   0  0  0  0  0  0  0  0  0  0  0  0
  -26.0539  -27.4516   23.2706 C   0  0  0  0  0  0  0  0  0  0  0  0
  -20.8722  -29.0915   22.7986 C   0  0  0  0  0  0  0  0  0  0  0  0
  -27.0395  -28.3281   22.7949 C   0  0  0  0  0  0  0  0  0  0  0  0
  -27.0555  -21.8338   19.3790 C   0  0  0  0  0  0  0  0  0  0  0  0
  -23.9991   -8.2789   23.6781 C   0  0  0  0  0  0  0  0  0  0  0  0
  -27.5423  -26.7685   20.9991 C   0  0  0  0  0  0  0  0  0  0  0  0
  -22.8441   -6.2416   23.8720 C   0  0  0  0  0  0  0  0  0  0  0  0
  -21.1539   -4.3299   22.7446 C   0  0  0  0  0  0  0  0  0  0  0  0
  -21.5565   -6.5985   23.4717 C   0  0  0  0  0  0  0  0  0  0  0  0
  -25.9885  -21.0194   19.7416 C   0  0  0  0  0  0  0  0  0  0  0  0
  -24.9761  -11.6660   21.3391 C   0  0  0  0  0  0  0  0  0  0  0  0
  -27.5238  -19.2269   20.0343 C   0  0  0  0  0  0  0  0  0  0  0  0
  -24.8968  -13.4169   20.0113 C   0  0  0  0  0  0  0  0  0  0  0  0
  -22.6813  -12.3194   20.3791 C   0  0  0  0  0  0  0  0  0  0  0  0
  -24.2830  -30.0217   23.8729 C   0  0  0  0  0  0  0  0  0  0  0  0
  -26.8770  -30.9243   25.5988 C   0  0  0  0  0  0  0  0  0  0  0  0
  -30.2374  -30.6596   26.1319 C   0  0  0  0  0  0  0  0  0  0  0  0
  -27.8850  -24.1485   19.2827 C   0  0  0  0  0  0  0  0  0  0  0  0
  -28.9676  -17.1956   20.4025 C   0  0  0  0  0  0  0  0  0  0  0  0
  -19.2074  -30.1740   24.3947 C   0  0  0  0  0  0  0  0  0  0  0  0
  -25.2671  -27.7890   24.5074 C   0  0  0  0  0  0  0  0  0  0  0  0
  -27.3264  -29.6421   23.4730 C   0  0  0  0  0  0  0  0  0  0  0  0
  -20.3854  -30.9788   24.9377 C   0  0  0  0  0  0  0  0  0  0  0  0
  -29.9396  -13.8178   19.8343 C   0  0  0  0  0  0  0  0  0  0  0  0
  -21.3268  -31.3774   23.8056 C   0  0  0  0  0  0  0  0  0  0  0  0
  -28.6626  -13.0214   20.1119 C   0  0  0  0  0  0  0  0  0  0  0  0
  -30.0832  -15.0077   20.7815 C   0  0  0  0  0  0  0  0  0  0  0  0
  -27.6438  -15.1073   21.1111 C   0  0  0  0  0  0  0  0  0  0  0  0
  -21.9156  -30.1405   23.1165 C   0  0  1  0  0  0  0  0  0  0  0  0
  -25.2161  -29.2867   24.7931 C   0  0  1  0  0  0  0  0  0  0  0  0
  -27.4226  -13.9365   20.1395 C   0  0  2  0  0  0  0  0  0  0  0  0
  -32.0768  -31.5484   27.5894 C   0  0  0  0  0  0  0  0  0  0  0  0
  -28.1930  -25.9556   17.5512 C   0  0  0  0  0  0  0  0  0  0  0  0
  -26.8632  -33.5352   24.0199 C   0  0  0  0  0  0  0  0  0  0  0  0
  -29.2019  -33.9463   24.8133 C   0  0  0  0  0  0  0  0  0  0  0  0
  -27.3359  -33.7953   26.4619 C   0  0  0  0  0  0  0  0  0  0  0  0
  -25.5729  -23.6154   18.4080 C   0  0  0  0  0  0  0  0  0  0  0  0
  -30.8527  -27.9674   27.1963 C   0  0  0  0  0  0  0  0  0  0  0  0
  -28.1407  -31.6962   25.3052 C   0  0  1  0  0  0  0  0  0  0  0  0
  -31.0424  -30.4495   27.4017 C   0  0  2  0  0  0  0  0  0  0  0  0
  -27.6262  -25.6132   18.9221 C   0  0  2  0  0  0  0  0  0  1  0  0
  -27.8789  -33.2194   25.1359 C   0  0  0  0  0  0  0  0  0  0  0  0
  -28.5859  -19.9879   19.6872 N   0  0  0  0  0  0  0  0  0  0  0  0
  -26.2392  -12.0956   21.2762 N   0  0  0  0  0  0  0  0  0  0  0  0
  -26.1587  -13.1612   20.4612 N   0  0  0  0  0  0  0  0  0  0  0  0
  -26.5265  -29.9295   24.6750 N   0  0  0  0  0  0  0  0  0  0  0  0
  -28.8729  -15.8318   20.7517 N   0  0  0  0  0  0  0  0  0  0  0  0
  -24.6376  -14.4512   19.1835 N   0  0  0  0  0  0  0  0  0  0  0  0
  -22.0141  -11.2712   21.0275 N   0  0  0  0  0  0  0  0  0  0  0  0
  -27.7474  -17.8701   20.3763 N   0  0  0  0  0  0  0  0  0  0  0  0
  -22.9772  -29.5721   23.9192 N   0  0  0  0  0  0  0  0  0  0  0  0
  -29.0781  -31.3661   26.3732 N   0  0  0  0  0  0  0  0  0  0  0  0
  -26.8508  -23.2252   19.0237 N   0  0  0  0  0  0  0  0  0  0  0  0
  -31.7516  -29.1396   27.3547 N   0  3  0  0  0  0  0  0  0  0  0  0
  -22.0308  -13.0980   19.6414 O   0  0  0  0  0  0  0  0  0  0  0  0
  -24.7155  -30.9304   23.1736 O   0  0  0  0  0  0  0  0  0  0  0  0
  -26.2287  -31.1892   26.6143 O   0  0  0  0  0  0  0  0  0  0  0  0
  -30.6025  -30.2422   25.0351 O   0  0  0  0  0  0  0  0  0  0  0  0
  -28.9688  -23.8540   19.7979 O   0  0  0  0  0  0  0  0  0  0  0  0
  -30.0481  -17.7194   20.1191 O   0  0  0  0  0  0  0  0  0  0  0  0
  -23.6846   -7.1896   24.4311 O   0  0  0  0  0  0  0  0  0  0  0  0
  -28.2644  -26.4419   19.8929 O   0  0  0  0  0  0  0  0  0  1  0  0
  -20.3429   -3.4123   22.2019 F   0  0  0  0  0  0  0  0  0  0  0  0
  -21.1261   -7.8583   23.6251 F   0  0  0  0  0  0  0  0  0  0  0  0
  -24.7391  -21.5041   19.7706 F   0  0  0  0  0  0  0  0  0  0  0  0
  1  2  1  0  0  0  0
  1  5  2  0  0  0  0
  2  6  2  0  0  0  0
  3  8  2  0  0  0  0
  3 17  1  0  0  0  0
  4  9  1  0  0  0  0
  4 17  2  0  0  0  0
  5 19  1  0  0  0  0
  6 21  1  0  0  0  0
  7 10  2  0  0  0  0
  7 20  1  0  0  0  0
  8 24  1  0  0  0  0
  9 24  2  0  0  0  0
 10 25  1  0  0  0  0
 11 12  2  0  0  0  0
 11 26  1  0  0  0  0
 12 27  1  0  0  0  0
 13 22  1  0  0  0  0
 13 25  2  0  0  0  0
 14 27  2  0  0  0  0
 14 28  1  0  0  0  0
 15 29  1  0  0  0  0
 15 31  2  0  0  0  0
 16 23  1  0  0  0  0
 16 62  2  0  0  0  0
 17 30  1  0  0  0  0
 18 30  1  0  0  0  0
 18 32  2  0  0  0  0
 18 33  1  0  0  0  0
 19 21  2  0  0  0  0
 19 39  1  0  0  0  0
 20 22  2  0  0  0  0
 20 40  1  0  0  0  0
 21 48  1  0  0  0  0
 22 41  1  0  0  0  0
 23 29  2  0  0  0  0
 23 72  1  0  0  0  0
 24 80  1  0  0  0  0
 25 81  1  0  0  0  0
 26 28  2  0  0  0  0
 26 80  1  0  0  0  0
 27 82  1  0  0  0  0
 28 83  1  0  0  0  0
 29 84  1  0  0  0  0
 30 63  2  0  0  0  0
 31 62  1  0  0  0  0
 31 69  1  0  0  0  0
 32 64  1  0  0  0  0
 32 67  1  0  0  0  0
 33 68  1  0  0  0  0
 33 74  2  0  0  0  0
 34 49  1  0  0  0  0
 34 70  1  0  0  0  0
 34 75  2  0  0  0  0
 35 58  1  0  0  0  0
 35 65  1  0  0  0  0
 35 76  2  0  0  0  0
 36 59  1  0  0  0  0
 36 71  1  0  0  0  0
 36 77  2  0  0  0  0
 37 60  1  0  0  0  0
 37 72  1  0  0  0  0
 37 78  2  0  0  0  0
 38 66  1  0  0  0  0
 38 69  1  0  0  0  0
 38 79  2  0  0  0  0
 39 42  1  0  0  0  0
 40 49  1  0  0  0  0
 41 65  1  0  0  0  0
 42 44  1  0  0  0  0
 43 45  1  0  0  0  0
 43 46  1  0  0  0  0
 44 48  1  0  0  0  0
 45 50  1  0  0  0  0
 46 66  1  0  0  0  0
 47 50  1  0  0  0  0
 47 66  1  0  0  0  0
 48 70  1  0  0  0  0
 49 65  1  0  0  0  0
 50 64  1  0  0  0  0
 51 59  1  0  0  0  0
 52 60  1  0  0  0  0
 53 61  1  0  0  0  0
 54 61  1  0  0  0  0
 55 61  1  0  0  0  0
 56 72  1  0  0  0  0
 57 73  1  0  0  0  0
 58 61  1  0  0  0  0
 58 71  1  0  0  0  0
 59 73  1  0  0  0  0
 60 81  1  0  0  0  0
 63 64  1  0  0  0  0
M  CHG  1  73   1
M  ISO  4  38 100  60 101  69 100  81 101
M  END
> <Batch ID>
0181

> <Smiles>
CNC(C)C(=O)NC(C(=O)N1Cc2cc([101O:1][101CH:1](C)C(=O)N(C)c3cnc([100NH:0][100C:0](=O)N4CCCC(n5nc(-c6ccc(Oc7ccc(F)cc7F)cc6)c(C(N)=O)c5N)C4)cc3F)ccc2CC1C(=O)NC1CCCc2ccccc21)C(C)(C)C

> <Shape>
0.309

> <Color>
0.110

> <Negative vol penalty>
0.000

$$$$

  -OEChem-04052304533D

 86 94  0     1  0  0  0  0  0999 V2000
  -27.2143  -24.1366   16.7054 C   0  0  0  0  0  0  0  0  0  0  0  0
  -26.0587  -24.4777   17.4007 C   0  0  0  0  0  0  0  0  0  0  0  0
  -27.0862  -13.6018   20.0932 C   0  0  0  0  0  0  0  0  0  0  0  0
  -24.7473  -14.1942   20.2187 C   0  0  0  0  0  0  0  0  0  0  0  0
  -28.4628  -24.4955   17.2119 C   0  0  0  0  0  0  0  0  0  0  0  0
  -26.1508  -25.1770   18.6036 C   0  0  0  0  0  0  0  0  0  0  0  0
  -22.8178  -28.9779   18.9015 C   0  0  0  0  0  0  0  0  0  0  0  0
  -26.8306  -12.4386   20.8193 C   0  0  0  0  0  0  0  0  0  0  0  0
  -24.4917  -13.0310   20.9448 C   0  0  0  0  0  0  0  0  0  0  0  0
  -21.4981  -28.6453   19.2043 C   0  0  0  0  0  0  0  0  0  0  0  0
  -24.0836   -9.7375   20.3067 C   0  0  0  0  0  0  0  0  0  0  0  0
  -22.9702   -8.9801   19.9432 C   0  0  0  0  0  0  0  0  0  0  0  0
  -22.2429  -24.4516   21.1520 C   0  0  0  0  0  0  0  0  0  0  0  0
  -23.5817  -23.9661   21.1059 C   0  0  0  0  0  0  0  0  0  0  0  0
  -21.8708  -29.2830   21.5008 C   0  0  0  0  0  0  0  0  0  0  0  0
  -22.0449   -9.2790   22.1549 C   0  0  0  0  0  0  0  0  0  0  0  0
  -26.0446  -14.4797   19.7929 C   0  0  0  0  0  0  0  0  0  0  0  0
  -26.2720  -15.8364   17.6446 C   0  0  0  0  0  0  0  0  0  0  0  0
  -28.5699  -25.2080   18.4167 C   0  0  0  0  0  0  0  0  0  0  0  0
  -23.6784  -29.4561   19.9000 C   0  0  0  0  0  0  0  0  0  0  0  0
  -27.4020  -25.5446   19.1274 C   0  0  0  0  0  0  0  0  0  0  0  0
  -23.2001  -29.6234   21.2075 C   0  0  0  0  0  0  0  0  0  0  0  0
  -25.5333  -12.1532   21.2450 C   0  0  0  0  0  0  0  0  0  0  0  0
  -21.0253  -28.7950   20.5047 C   0  0  0  0  0  0  0  0  0  0  0  0
  -24.1777  -10.2656   21.5943 C   0  0  0  0  0  0  0  0  0  0  0  0
  -21.9508   -8.7508   20.8673 C   0  0  0  0  0  0  0  0  0  0  0  0
  -23.1584  -10.0364   22.5184 C   0  0  0  0  0  0  0  0  0  0  0  0
  -26.3081  -15.6817   19.0434 C   0  0  0  0  0  0  0  0  0  0  0  0
  -21.3228  -23.4565   20.9054 C   0  0  0  0  0  0  0  0  0  0  0  0
  -26.5941  -17.1553   17.4367 C   0  0  0  0  0  0  0  0  0  0  0  0
  -23.6338  -22.6182   20.8259 C   0  0  0  0  0  0  0  0  0  0  0  0
  -25.9740  -14.8740   16.6245 C   0  0  0  0  0  0  0  0  0  0  0  0
  -19.8650  -23.5453   20.8642 C   0  0  0  0  0  0  0  0  0  0  0  0
  -19.1650  -24.8033   20.4471 C   0  0  0  0  0  0  0  0  0  0  0  0
  -26.3976  -28.4384   21.1938 C   0  0  0  0  0  0  0  0  0  0  0  0
  -26.2878  -31.2984   22.7204 C   0  0  0  0  0  0  0  0  0  0  0  0
  -24.4010  -33.9044   23.8586 C   0  0  0  0  0  0  0  0  0  0  0  0
  -26.0907  -22.0613   20.8105 C   0  0  0  0  0  0  0  0  0  0  0  0
  -29.9434  -25.5326   18.9484 C   0  0  0  0  0  0  0  0  0  0  0  0
  -25.0914  -29.8357   19.5514 C   0  0  0  0  0  0  0  0  0  0  0  0
  -24.0779  -30.1520   22.3114 C   0  0  0  0  0  0  0  0  0  0  0  0
  -29.9374  -26.6000   20.0398 C   0  0  0  0  0  0  0  0  0  0  0  0
  -29.0802  -20.7552   19.3845 C   0  0  0  0  0  0  0  0  0  0  0  0
  -28.8505  -26.3054   21.0687 C   0  0  0  0  0  0  0  0  0  0  0  0
  -28.7035  -19.3219   19.0023 C   0  0  0  0  0  0  0  0  0  0  0  0
  -28.4139  -21.1880   20.6893 C   0  0  0  0  0  0  0  0  0  0  0  0
  -26.5799  -19.5789   20.3481 C   0  0  0  0  0  0  0  0  0  0  0  0
  -27.4598  -26.3245   20.4229 C   0  0  1  0  0  0  0  0  0  0  0  0
  -26.0270  -29.8273   20.7564 C   0  0  1  0  0  0  0  0  0  0  0  0
  -27.1755  -19.1206   19.0069 C   0  0  2  0  0  0  0  0  0  0  0  0
  -24.5877  -36.0766   25.1012 C   0  0  0  0  0  0  0  0  0  0  0  0
  -26.5947  -29.7691   25.3428 C   0  0  0  0  0  0  0  0  0  0  0  0
  -25.8307  -31.8249   26.5503 C   0  0  0  0  0  0  0  0  0  0  0  0
  -27.9296  -31.8793   25.2034 C   0  0  0  0  0  0  0  0  0  0  0  0
  -17.7402  -27.1501   23.7430 C   0  0  0  0  0  0  0  0  0  0  0  0
  -17.1439  -28.9106   22.0566 C   0  0  0  0  0  0  0  0  0  0  0  0
  -23.3647  -35.4453   21.5541 C   0  0  0  0  0  0  0  0  0  0  0  0
  -17.6077  -26.5359   21.2901 C   0  0  0  0  0  0  0  0  0  0  0  0
  -19.4745  -28.0101   22.1280 C   0  0  0  0  0  0  0  0  0  1  0  0
  -25.6980  -31.7957   24.0180 C   0  0  1  0  0  0  0  0  0  0  0  0
  -24.5801  -35.4068   23.7359 C   0  0  2  0  0  0  0  0  0  0  0  0
  -26.4971  -31.3054   25.2585 C   0  0  0  0  0  0  0  0  0  0  0  0
  -17.9827  -27.6433   22.3037 C   0  0  0  0  0  0  0  0  0  0  0  0
  -26.6280  -16.8120   19.6791 N   0  0  0  0  0  0  0  0  0  0  0  0
  -26.7960  -17.6895   18.6752 N   0  0  0  0  0  0  0  0  0  0  0  0
  -25.4535  -30.5032   21.9219 N   0  0  0  0  0  0  0  0  0  0  0  0
  -26.9671  -20.9723   20.6187 N   0  0  0  0  0  0  0  0  0  0  0  0
  -26.7215  -17.8986   16.3170 N   0  0  0  0  0  0  0  0  0  0  0  0
  -25.6636  -13.5635   17.0125 N   0  0  0  0  0  0  0  0  0  0  0  0
  -24.7388  -21.7419   20.6880 N   0  0  0  0  0  0  0  0  0  0  0  0
  -18.3676  -25.3244   21.4444 N   0  0  0  0  0  0  0  0  0  0  0  0
  -27.0182  -27.6868   20.2142 N   0  0  0  0  0  0  0  0  0  0  0  0
  -25.6125  -33.2471   23.8978 N   0  0  0  0  0  0  0  0  0  0  0  0
  -23.4741  -35.9962   22.9295 N   0  3  0  0  0  0  0  0  0  0  0  0
  -25.9987  -15.1634   15.4042 O   0  0  0  0  0  0  0  0  0  0  0  0
  -19.1151  -22.6231   21.1721 O   0  0  0  0  0  0  0  0  0  0  0  0
  -19.3717  -25.2290   19.3223 O   0  0  0  0  0  0  0  0  0  0  0  0
  -26.1410  -28.0760   22.3359 O   0  0  0  0  0  0  0  0  0  0  0  0
  -27.4436  -31.6101   22.4227 O   0  0  0  0  0  0  0  0  0  0  0  0
  -23.2968  -33.3678   23.9179 O   0  0  0  0  0  0  0  0  0  0  0  0
  -26.5095  -23.1992   21.0378 O   0  0  0  0  0  0  0  0  0  0  0  0
  -25.2834  -11.0181   21.9534 O   0  0  0  0  0  0  0  0  0  0  0  0
  -19.7378  -28.4705   20.8032 O   0  0  0  0  0  0  0  0  0  1  0  0
  -20.8809   -8.0247   20.5177 F   0  0  0  0  0  0  0  0  0  0  0  0
  -23.2426  -10.5421   23.7565 F   0  0  0  0  0  0  0  0  0  0  0  0
  -22.0733  -21.9440   20.6198 S   0  0  0  0  0  0  0  0  0  0  0  0
  1  2  1  0  0  0  0
  1  5  2  0  0  0  0
  2  6  2  0  0  0  0
  3  8  2  0  0  0  0
  3 17  1  0  0  0  0
  4  9  1  0  0  0  0
  4 17  2  0  0  0  0
  5 19  1  0  0  0  0
  6 21  1  0  0  0  0
  7 10  2  0  0  0  0
  7 20  1  0  0  0  0
  8 23  1  0  0  0  0
  9 23  2  0  0  0  0
 10 24  1  0  0  0  0
 11 12  2  0  0  0  0
 11 25  1  0  0  0  0
 12 26  1  0  0  0  0
 13 14  1  0  0  0  0
 13 29  2  0  0  0  0
 14 31  2  0  0  0  0
 15 22  1  0  0  0  0
 15 24  2  0  0  0  0
 16 26  2  0  0  0  0
 16 27  1  0  0  0  0
 17 28  1  0  0  0  0
 18 28  1  0  0  0  0
 18 30  2  0  0  0  0
 18 32  1  0  0  0  0
 19 21  2  0  0  0  0
 19 39  1  0  0  0  0
 20 22  2  0  0  0  0
 20 40  1  0  0  0  0
 21 48  1  0  0  0  0
 22 41  1  0  0  0  0
 23 82  1  0  0  0  0
 24 83  1  0  0  0  0
 25 27  2  0  0  0  0
 25 82  1  0  0  0  0
 26 84  1  0  0  0  0
 27 85  1  0  0  0  0
 28 64  2  0  0  0  0
 29 33  1  0  0  0  0
 29 86  1  0  0  0  0
 30 65  1  0  0  0  0
 30 68  1  0  0  0  0
 31 70  1  0  0  0  0
 31 86  1  0  0  0  0
 32 69  1  0  0  0  0
 32 75  2  0  0  0  0
 33 34  1  0  0  0  0
 33 76  2  0  0  0  0
 34 71  1  0  0  0  0
 34 77  2  0  0  0  0
 35 49  1  0  0  0  0
 35 72  1  0  0  0  0
 35 78  2  0  0  0  0
 36 60  1  0  0  0  0
 36 66  1  0  0  0  0
 36 79  2  0  0  0  0
 37 61  1  0  0  0  0
 37 73  1  0  0  0  0
 37 80  2  0  0  0  0
 38 67  1  0  0  0  0
 38 70  1  0  0  0  0
 38 81  2  0  0  0  0
 39 42  1  0  0  0  0
 40 49  1  0  0  0  0
 41 66  1  0  0  0  0
 42 44  1  0  0  0  0
 43 45  1  0  0  0  0
 43 46  1  0  0  0  0
 44 48  1  0  0  0  0
 45 50  1  0  0  0  0
 46 67  1  0  0  0  0
 47 50  1  0  0  0  0
 47 67  1  0  0  0  0
 48 72  1  0  0  0  0
 49 66  1  0  0  0  0
 50 65  1  0  0  0  0
 51 61  1  0  0  0  0
 52 62  1  0  0  0  0
 53 62  1  0  0  0  0
 54 62  1  0  0  0  0
 55 63  1  0  0  0  0
 56 63  1  0  0  0  0
 57 74  1  0  0  0  0
 58 63  1  0  0  0  0
 58 71  1  0  0  0  0
 59 63  1  0  0  0  0
 59 83  1  0  0  0  0
 60 62  1  0  0  0  0
 60 73  1  0  0  0  0
 61 74  1  0  0  0  0
 64 65  1  0  0  0  0
M  CHG  1  74   1
M  ISO  4  38 100  59 101  70 100  83 101
M  END
> <Batch ID>
0181

> <Smiles>
CNC(C)C(=O)NC(C(=O)N1Cc2cc([101O:1][101CH2:1]C(C)(C)CNC(=O)C(=O)c3ccc([100NH:0][100C:0](=O)N4CCCC(n5nc(-c6ccc(Oc7ccc(F)cc7F)cc6)c(C(N)=O)c5N)C4)s3)ccc2CC1C(=O)NC1CCCc2ccccc21)C(C)(C)C

> <Shape>
0.314

> <Color>
0.076

> <Negative vol penalty>
0.000

$$$$

  -OEChem-04052304533D

 85 93  0     1  0  0  0  0  0999 V2000
  -17.4428  -26.2713   22.7329 C   0  0  0  0  0  0  0  0  0  0  0  0
  -18.6562  -25.7792   22.2627 C   0  0  0  0  0  0  0  0  0  0  0  0
  -22.3299  -15.5077   21.6624 C   0  0  0  0  0  0  0  0  0  0  0  0
  -23.0625  -17.6834   20.9099 C   0  0  0  0  0  0  0  0  0  0  0  0
  -17.2029  -27.6448   22.7351 C   0  0  0  0  0  0  0  0  0  0  0  0
  -19.6299  -26.6602   21.7935 C   0  0  0  0  0  0  0  0  0  0  0  0
  -25.7016  -26.0553   22.3169 C   0  0  0  0  0  0  0  0  0  0  0  0
  -30.2289  -19.7802   18.8789 C   0  0  0  0  0  0  0  0  0  0  0  0
  -21.4124  -16.1135   22.5207 C   0  0  0  0  0  0  0  0  0  0  0  0
  -22.1449  -18.2893   21.7681 C   0  0  0  0  0  0  0  0  0  0  0  0
  -26.6778  -25.5940   21.4348 C   0  0  0  0  0  0  0  0  0  0  0  0
  -18.6259  -17.0802   24.6458 C   0  0  0  0  0  0  0  0  0  0  0  0
  -17.3329  -16.5585   24.6856 C   0  0  0  0  0  0  0  0  0  0  0  0
  -29.9488  -21.1152   19.1486 C   0  0  0  0  0  0  0  0  0  0  0  0
  -27.1439  -27.8662   20.7720 C   0  0  0  0  0  0  0  0  0  0  0  0
  -17.0686  -17.0337   22.3316 C   0  0  0  0  0  0  0  0  0  0  0  0
  -23.1551  -16.2927   20.8570 C   0  0  0  0  0  0  0  0  0  0  0  0
  -23.8898  -15.2777   18.6349 C   0  0  0  0  0  0  0  0  0  0  0  0
  -18.1778  -28.5437   22.2747 C   0  0  0  0  0  0  0  0  0  0  0  0
  -25.4312  -27.4270   22.4254 C   0  0  0  0  0  0  0  0  0  0  0  0
  -19.4022  -28.0468   21.7884 C   0  0  0  0  0  0  0  0  0  0  0  0
  -26.1656  -28.3425   21.6581 C   0  0  0  0  0  0  0  0  0  0  0  0
  -31.2661  -19.1436   19.5514 C   0  0  0  0  0  0  0  0  0  0  0  0
  -21.3198  -17.5042   22.5735 C   0  0  0  0  0  0  0  0  0  0  0  0
  -27.3971  -26.4993   20.6601 C   0  0  0  0  0  0  0  0  0  0  0  0
  -19.1402  -17.5788   23.4488 C   0  0  0  0  0  0  0  0  0  0  0  0
  -16.5543  -16.5352   23.5285 C   0  0  0  0  0  0  0  0  0  0  0  0
  -18.3616  -17.5555   22.2918 C   0  0  0  0  0  0  0  0  0  0  0  0
  -24.1035  -15.6675   19.9706 C   0  0  0  0  0  0  0  0  0  0  0  0
  -30.7290  -21.7637   20.0922 C   0  0  0  0  0  0  0  0  0  0  0  0
  -31.9875  -19.8805   20.4769 C   0  0  0  0  0  0  0  0  0  0  0  0
  -25.0889  -14.7378   18.2387 C   0  0  0  0  0  0  0  0  0  0  0  0
  -22.7125  -15.3934   17.8248 C   0  0  0  0  0  0  0  0  0  0  0  0
  -22.8902  -29.2614   21.8941 C   0  0  0  0  0  0  0  0  0  0  0  0
  -24.7785  -31.5724   23.1653 C   0  0  0  0  0  0  0  0  0  0  0  0
  -27.9310  -32.6939   23.8367 C   0  0  0  0  0  0  0  0  0  0  0  0
  -29.4422  -23.9053   19.7812 C   0  0  0  0  0  0  0  0  0  0  0  0
  -30.7281  -15.5330   20.0876 C   0  0  0  0  0  0  0  0  0  0  0  0
  -17.8545  -30.0167   22.2525 C   0  0  0  0  0  0  0  0  0  0  0  0
  -24.3936  -27.9105   23.4011 C   0  0  0  0  0  0  0  0  0  0  0  0
  -25.9278  -29.8268   21.7521 C   0  0  0  0  0  0  0  0  0  0  0  0
  -19.0831  -30.9075   22.0874 C   0  0  0  0  0  0  0  0  0  0  0  0
  -28.9262  -12.4644   19.9700 C   0  0  0  0  0  0  0  0  0  0  0  0
  -19.9786  -30.3803   20.9708 C   0  0  0  0  0  0  0  0  0  0  0  0
  -27.4666  -12.9022   19.8363 C   0  0  0  0  0  0  0  0  0  0  0  0
  -29.7189  -13.4101   20.8696 C   0  0  0  0  0  0  0  0  0  0  0  0
  -28.1871  -15.2708   20.3549 C   0  0  0  0  0  0  0  0  0  0  0  0
  -20.4928  -28.9723   21.2943 C   0  0  1  0  0  0  0  0  0  0  0  0
  -23.8446  -29.2910   23.0543 C   0  0  1  0  0  0  0  0  0  0  0  0
  -27.3609  -14.3794   19.4121 C   0  0  2  0  0  0  0  0  0  0  0  0
  -31.9862  -17.4581   17.8188 C   0  0  0  0  0  0  0  0  0  0  0  0
  -29.1572  -34.6343   24.8508 C   0  0  0  0  0  0  0  0  0  0  0  0
  -30.7413  -26.0486   20.0606 C   0  0  0  0  0  0  0  0  0  0  0  0
  -24.2209  -33.2288   20.6642 C   0  0  0  0  0  0  0  0  0  0  0  0
  -26.1669  -34.6803   21.2763 C   0  0  0  0  0  0  0  0  0  0  0  0
  -24.1989  -34.5271   22.8015 C   0  0  0  0  0  0  0  0  0  0  0  0
  -29.1597  -30.9812   25.9142 C   0  0  0  0  0  0  0  0  0  0  0  0
  -31.5877  -17.7168   19.2807 C   0  0  2  0  0  0  0  0  0  0  0  0
  -25.7770  -32.5609   22.6131 C   0  0  1  0  0  0  0  0  0  0  0  0
  -28.5499  -33.2627   25.1008 C   0  0  2  0  0  0  0  0  0  0  0  0
  -29.4394  -25.3190   20.3571 C   0  0  1  0  0  0  0  0  0  1  0  0
  -25.0943  -33.7212   21.8354 C   0  0  0  0  0  0  0  0  0  0  0  0
  -25.3411  -15.3980   20.3946 N   0  0  0  0  0  0  0  0  0  0  0  0
  -31.7448  -21.1787   20.7657 N   0  0  0  0  0  0  0  0  0  0  0  0
  -25.9158  -14.8330   19.3192 N   0  0  0  0  0  0  0  0  0  0  0  0
  -24.8984  -30.2497   22.7159 N   0  0  0  0  0  0  0  0  0  0  0  0
  -29.5781  -14.7946   20.4122 N   0  0  0  0  0  0  0  0  0  0  0  0
  -25.5062  -14.1956   17.0749 N   0  0  0  0  0  0  0  0  0  0  0  0
  -21.5677  -15.9730   18.3886 N   0  0  0  0  0  0  0  0  0  0  0  0
  -30.4363  -23.1224   20.3589 N   0  0  0  0  0  0  0  0  0  0  0  0
  -21.5748  -29.0374   22.2533 N   0  0  0  0  0  0  0  0  0  0  0  0
  -26.5889  -32.9962   23.7444 N   0  0  0  0  0  0  0  0  0  0  0  0
  -30.5052  -16.8350   19.6566 N   0  0  0  0  0  0  0  0  0  0  0  0
  -29.6221  -32.3587   25.6047 N   0  3  0  0  0  0  0  0  0  0  0  0
  -22.6717  -14.9796   16.6413 O   0  0  0  0  0  0  0  0  0  0  0  0
  -23.3156  -29.4308   20.7574 O   0  0  0  0  0  0  0  0  0  0  0  0
  -23.9281  -31.9582   23.9713 O   0  0  0  0  0  0  0  0  0  0  0  0
  -28.5747  -32.0493   23.0117 O   0  0  0  0  0  0  0  0  0  0  0  0
  -28.6282  -23.5641   18.9279 O   0  0  0  0  0  0  0  0  0  0  0  0
  -31.8686  -15.0647   20.1705 O   0  0  0  0  0  0  0  0  0  0  0  0
  -20.4244  -18.0957   23.4107 O   0  0  0  0  0  0  0  0  0  0  0  0
  -28.3500  -26.0516   19.7979 O   0  0  0  0  0  0  0  0  0  1  0  0
  -15.3132  -16.0328   23.5666 F   0  0  0  0  0  0  0  0  0  0  0  0
  -18.8507  -18.0319   21.1387 F   0  0  0  0  0  0  0  0  0  0  0  0
  -32.9950  -19.2864   21.1368 F   0  0  0  0  0  0  0  0  0  0  0  0
  1  2  1  0  0  0  0
  1  5  2  0  0  0  0
  2  6  2  0  0  0  0
  3  9  2  0  0  0  0
  3 17  1  0  0  0  0
  4 10  1  0  0  0  0
  4 17  2  0  0  0  0
  5 19  1  0  0  0  0
  6 21  1  0  0  0  0
  7 11  2  0  0  0  0
  7 20  1  0  0  0  0
  8 14  2  0  0  0  0
  8 23  1  0  0  0  0
  9 24  1  0  0  0  0
 10 24  2  0  0  0  0
 11 25  1  0  0  0  0
 12 13  2  0  0  0  0
 12 26  1  0  0  0  0
 13 27  1  0  0  0  0
 14 30  1  0  0  0  0
 15 22  1  0  0  0  0
 15 25  2  0  0  0  0
 16 27  2  0  0  0  0
 16 28  1  0  0  0  0
 17 29  1  0  0  0  0
 18 29  1  0  0  0  0
 18 32  2  0  0  0  0
 18 33  1  0  0  0  0
 19 21  2  0  0  0  0
 19 39  1  0  0  0  0
 20 22  2  0  0  0  0
 20 40  1  0  0  0  0
 21 48  1  0  0  0  0
 22 41  1  0  0  0  0
 23 31  2  0  0  0  0
 23 58  1  0  0  0  0
 24 81  1  0  0  0  0
 25 82  1  0  0  0  0
 26 28  2  0  0  0  0
 26 81  1  0  0  0  0
 27 83  1  0  0  0  0
 28 84  1  0  0  0  0
 29 63  2  0  0  0  0
 30 64  2  0  0  0  0
 30 70  1  0  0  0  0
 31 64  1  0  0  0  0
 31 85  1  0  0  0  0
 32 65  1  0  0  0  0
 32 68  1  0  0  0  0
 33 69  1  0  0  0  0
 33 75  2  0  0  0  0
 34 49  1  0  0  0  0
 34 71  1  0  0  0  0
 34 76  2  0  0  0  0
 35 59  1  0  0  0  0
 35 66  1  0  0  0  0
 35 77  2  0  0  0  0
 36 60  1  0  0  0  0
 36 72  1  0  0  0  0
 36 78  2  0  0  0  0
 37 61  1  0  0  0  0
 37 70  1  0  0  0  0
 37 79  2  0  0  0  0
 38 67  1  0  0  0  0
 38 73  1  0  0  0  0
 38 80  2  0  0  0  0
 39 42  1  0  0  0  0
 40 49  1  0  0  0  0
 41 66  1  0  0  0  0
 42 44  1  0  0  0  0
 43 45  1  0  0  0  0
 43 46  1  0  0  0  0
 44 48  1  0  0  0  0
 45 50  1  0  0  0  0
 46 67  1  0  0  0  0
 47 50  1  0  0  0  0
 47 67  1  0  0  0  0
 48 71  1  0  0  0  0
 49 66  1  0  0  0  0
 50 65  1  0  0  0  0
 51 58  1  0  0  0  0
 52 60  1  0  0  0  0
 53 61  1  0  0  0  0
 54 62  1  0  0  0  0
 55 62  1  0  0  0  0
 56 62  1  0  0  0  0
 57 74  1  0  0  0  0
 58 73  1  0  0  0  0
 59 62  1  0  0  0  0
 59 72  1  0  0  0  0
 60 74  1  0  0  0  0
 61 82  1  0  0  0  0
 63 65  1  0  0  0  0
M  CHG  1  74   1
M  ISO  4  38 100  61 101  73 100  82 101
M  END
> <Batch ID>
0181

> <Smiles>
CNC(C)C(=O)NC(C(=O)N1Cc2cc([101O:1][101CH:1](C)C(=O)Nc3ccc(C(C)[100NH:0][100C:0](=O)N4CCCC(n5nc(-c6ccc(Oc7ccc(F)cc7F)cc6)c(C(N)=O)c5N)C4)c(F)n3)ccc2CC1C(=O)NC1CCCc2ccccc21)C(C)(C)C

> <Shape>
0.236

> <Color>
0.104

> <Negative vol penalty>
0.000

$$$$

  -OEChem-04052304533D

 83 91  0     1  0  0  0  0  0999 V2000
  -25.6238  -38.0462   26.7711 C   0  0  0  0  0  0  0  0  0  0  0  0
  -25.0092  -36.8974   27.2590 C   0  0  0  0  0  0  0  0  0  0  0  0
  -24.4907   -9.1367   21.4823 C   0  0  0  0  0  0  0  0  0  0  0  0
  -22.6371  -10.2681   20.4235 C   0  0  0  0  0  0  0  0  0  0  0  0
  -25.8622  -38.1808   25.4040 C   0  0  0  0  0  0  0  0  0  0  0  0
  -24.6318  -35.8830   26.3798 C   0  0  0  0  0  0  0  0  0  0  0  0
  -23.9752  -28.7583   26.0275 C   0  0  0  0  0  0  0  0  0  0  0  0
  -23.6994   -8.0010   21.6544 C   0  0  0  0  0  0  0  0  0  0  0  0
  -21.8457   -9.1324   20.5955 C   0  0  0  0  0  0  0  0  0  0  0  0
  -23.0436  -27.7780   25.6886 C   0  0  0  0  0  0  0  0  0  0  0  0
  -21.2735   -6.9519   23.7612 C   0  0  0  0  0  0  0  0  0  0  0  0
  -21.3144   -6.3162   25.0021 C   0  0  0  0  0  0  0  0  0  0  0  0
  -23.5774  -28.0856   23.3563 C   0  0  0  0  0  0  0  0  0  0  0  0
  -22.0984   -4.2929   23.9397 C   0  0  0  0  0  0  0  0  0  0  0  0
  -21.5255  -18.6226   21.3240 C   0  0  0  0  0  0  0  0  0  0  0  0
  -23.9596  -10.2702   20.8670 C   0  0  0  0  0  0  0  0  0  0  0  0
  -25.5943  -11.7514   19.5858 C   0  0  0  0  0  0  0  0  0  0  0  0
  -25.4962  -37.1634   24.5088 C   0  0  0  0  0  0  0  0  0  0  0  0
  -24.7083  -29.4185   25.0309 C   0  0  0  0  0  0  0  0  0  0  0  0
  -24.8643  -36.0047   24.9993 C   0  0  0  0  0  0  0  0  0  0  0  0
  -24.5195  -29.0722   23.6854 C   0  0  0  0  0  0  0  0  0  0  0  0
  -22.3769   -7.9988   21.2109 C   0  0  0  0  0  0  0  0  0  0  0  0
  -22.8425  -27.4435   24.3527 C   0  0  0  0  0  0  0  0  0  0  0  0
  -21.6449   -6.2580   22.6095 C   0  0  0  0  0  0  0  0  0  0  0  0
  -21.7269   -4.9867   25.0914 C   0  0  0  0  0  0  0  0  0  0  0  0
  -22.0574   -4.9286   22.6988 C   0  0  0  0  0  0  0  0  0  0  0  0
  -24.7764  -11.4439   20.6895 C   0  0  0  0  0  0  0  0  0  0  0  0
  -26.1542  -12.9654   19.9009 C   0  0  0  0  0  0  0  0  0  0  0  0
  -22.5483  -18.5929   22.2294 C   0  0  0  0  0  0  0  0  0  0  0  0
  -21.6627  -20.6214   22.2654 C   0  0  0  0  0  0  0  0  0  0  0  0
  -22.3608  -25.1916   23.9435 C   0  0  0  0  0  0  0  0  0  1  0  0
  -25.8271  -11.0064   18.3831 C   0  0  0  0  0  0  0  0  0  0  0  0
  -21.5541  -24.1728   23.6248 C   0  0  0  0  0  0  0  0  0  0  0  0
  -22.1215  -22.7963   23.5693 C   0  0  0  0  0  0  0  0  0  0  0  0
  -24.9582  -32.4335   24.0558 C   0  0  0  0  0  0  0  0  0  0  0  0
  -27.2952  -31.2182   22.1627 C   0  0  0  0  0  0  0  0  0  0  0  0
  -28.6184  -28.5022   20.5754 C   0  0  0  0  0  0  0  0  0  0  0  0
  -24.4357  -17.4551   23.4499 C   0  0  0  0  0  0  0  0  0  0  0  0
  -25.7315  -37.3747   23.0341 C   0  0  0  0  0  0  0  0  0  0  0  0
  -25.7286  -30.4548   25.4149 C   0  0  0  0  0  0  0  0  0  0  0  0
  -25.2957  -29.7369   22.5790 C   0  0  0  0  0  0  0  0  0  0  0  0
  -25.6401  -36.0913   22.2127 C   0  0  0  0  0  0  0  0  0  0  0  0
  -27.4765  -15.6154   23.6644 C   0  0  0  0  0  0  0  0  0  0  0  0
  -24.4019  -35.2923   22.6067 C   0  0  0  0  0  0  0  0  0  0  0  0
  -27.2057  -14.3677   22.8204 C   0  0  0  0  0  0  0  0  0  0  0  0
  -26.2358  -16.0564   24.4389 C   0  0  0  0  0  0  0  0  0  0  0  0
  -24.7573  -14.9926   22.7801 C   0  0  0  0  0  0  0  0  0  0  0  0
  -24.4626  -34.8717   24.0801 C   0  0  1  0  0  0  0  0  0  0  0  0
  -26.0493  -31.4257   24.2827 C   0  0  1  0  0  0  0  0  0  0  0  0
  -25.9597  -14.5483   21.9313 C   0  0  2  0  0  0  0  0  0  0  0  0
  -30.5113  -27.8276   19.0723 C   0  0  0  0  0  0  0  0  0  0  0  0
  -25.8592  -32.4877   19.7886 C   0  0  0  0  0  0  0  0  0  0  0  0
  -27.2118  -31.0214   18.2757 C   0  0  0  0  0  0  0  0  0  0  0  0
  -28.3509  -32.6950   19.7332 C   0  0  0  0  0  0  0  0  0  0  0  0
  -19.8867  -20.3585   20.5598 C   0  0  0  0  0  0  0  0  0  0  0  0
  -29.6986  -26.6199   22.5876 C   0  0  0  0  0  0  0  0  0  0  0  0
  -27.3465  -30.6226   20.7765 C   0  0  1  0  0  0  0  0  0  0  0  0
  -30.0369  -27.9654   20.5106 C   0  0  2  0  0  0  0  0  0  0  0  0
  -27.1759  -31.6954   19.6640 C   0  0  0  0  0  0  0  0  0  0  0  0
  -24.8108  -12.3864   21.6353 N   0  0  0  0  0  0  0  0  0  0  0  0
  -20.9951  -19.8895   21.3676 N   0  0  0  0  0  0  0  0  0  0  0  0
  -25.6572  -13.2981   21.1267 N   0  0  0  0  0  0  0  0  0  0  0  0
  -22.6108  -19.8428   22.7967 N   0  3  0  0  0  0  0  0  0  0  0  0
  -26.2773  -30.7482   23.0047 N   0  0  0  0  0  0  0  0  0  0  0  0
  -25.0968  -16.2112   23.5315 N   0  0  0  0  0  0  0  0  0  0  0  0
  -27.0182  -13.7700   19.2464 N   0  0  0  0  0  0  0  0  0  0  0  0
  -25.1715   -9.7783   18.2204 N   0  0  0  0  0  0  0  0  0  0  0  0
  -23.3886  -17.4922   22.5296 N   0  0  0  0  0  0  0  0  0  0  0  0
  -21.4182  -21.9906   22.6076 N   0  0  0  0  0  0  0  0  0  0  0  0
  -25.3537  -33.7436   24.2473 N   0  0  0  0  0  0  0  0  0  0  0  0
  -28.5971  -29.8753   20.6992 N   0  0  0  0  0  0  0  0  0  0  0  0
  -30.1145  -26.6270   21.1614 N   0  3  0  0  0  0  0  0  0  0  0  0
  -26.6066  -11.4097   17.4868 O   0  0  0  0  0  0  0  0  0  0  0  0
  -23.0604  -22.4302   24.2620 O   0  0  0  0  0  0  0  0  0  0  0  0
  -23.8407  -32.0509   23.7296 O   0  0  0  0  0  0  0  0  0  0  0  0
  -28.1320  -32.0637   22.4890 O   0  0  0  0  0  0  0  0  0  0  0  0
  -27.6283  -27.7764   20.5179 O   0  0  0  0  0  0  0  0  0  0  0  0
  -24.7909  -18.4243   24.1253 O   0  0  0  0  0  0  0  0  0  0  0  0
  -20.2151  -24.3391   23.3422 O   0  0  0  0  0  0  0  0  0  0  0  0
  -21.6044   -6.8908   21.3784 O   0  0  0  0  0  0  0  0  0  0  0  0
  -21.9334  -26.4875   24.0191 O   0  0  0  0  0  0  0  0  0  1  0  0
  -21.7677   -4.3769   26.2832 F   0  0  0  0  0  0  0  0  0  0  0  0
  -22.4165   -4.2572   21.5960 F   0  0  0  0  0  0  0  0  0  0  0  0
  1  2  1  0  0  0  0
  1  5  2  0  0  0  0
  2  6  2  0  0  0  0
  3  8  2  0  0  0  0
  3 16  1  0  0  0  0
  4  9  1  0  0  0  0
  4 16  2  0  0  0  0
  5 18  1  0  0  0  0
  6 20  1  0  0  0  0
  7 10  2  0  0  0  0
  7 19  1  0  0  0  0
  8 22  1  0  0  0  0
  9 22  2  0  0  0  0
 10 23  1  0  0  0  0
 11 12  2  0  0  0  0
 11 24  1  0  0  0  0
 12 25  1  0  0  0  0
 13 21  1  0  0  0  0
 13 23  2  0  0  0  0
 14 25  2  0  0  0  0
 14 26  1  0  0  0  0
 15 29  2  0  0  0  0
 15 61  1  0  0  0  0
 16 27  1  0  0  0  0
 17 27  1  0  0  0  0
 17 28  2  0  0  0  0
 17 32  1  0  0  0  0
 18 20  2  0  0  0  0
 18 39  1  0  0  0  0
 19 21  2  0  0  0  0
 19 40  1  0  0  0  0
 20 48  1  0  0  0  0
 21 41  1  0  0  0  0
 22 80  1  0  0  0  0
 23 81  1  0  0  0  0
 24 26  2  0  0  0  0
 24 80  1  0  0  0  0
 25 82  1  0  0  0  0
 26 83  1  0  0  0  0
 27 60  2  0  0  0  0
 28 62  1  0  0  0  0
 28 66  1  0  0  0  0
 29 63  1  0  0  0  0
 29 68  1  0  0  0  0
 30 61  1  0  0  0  0
 30 63  2  0  0  0  0
 30 69  1  0  0  0  0
 31 33  2  0  0  0  0
 31 81  1  0  0  0  0
 32 67  1  0  0  0  0
 32 73  2  0  0  0  0
 33 34  1  0  0  0  0
 33 79  1  0  0  0  0
 34 69  1  0  0  0  0
 34 74  2  0  0  0  0
 35 49  1  0  0  0  0
 35 70  1  0  0  0  0
 35 75  2  0  0  0  0
 36 57  1  0  0  0  0
 36 64  1  0  0  0  0
 36 76  2  0  0  0  0
 37 58  1  0  0  0  0
 37 71  1  0  0  0  0
 37 77  2  0  0  0  0
 38 65  1  0  0  0  0
 38 68  1  0  0  0  0
 38 78  2  0  0  0  0
 39 42  1  0  0  0  0
 40 49  1  0  0  0  0
 41 64  1  0  0  0  0
 42 44  1  0  0  0  0
 43 45  1  0  0  0  0
 43 46  1  0  0  0  0
 44 48  1  0  0  0  0
 45 50  1  0  0  0  0
 46 65  1  0  0  0  0
 47 50  1  0  0  0  0
 47 65  1  0  0  0  0
 48 70  1  0  0  0  0
 49 64  1  0  0  0  0
 50 62  1  0  0  0  0
 51 58  1  0  0  0  0
 52 59  1  0  0  0  0
 53 59  1  0  0  0  0
 54 59  1  0  0  0  0
 55 61  1  0  0  0  0
 56 72  1  0  0  0  0
 57 59  1  0  0  0  0
 57 71  1  0  0  0  0
 58 72  1  0  0  0  0
 60 62  1  0  0  0  0
M  CHG  2  63   1  72   1
M  ISO  4  31 101  38 100  68 100  81 101
M  END
> <Batch ID>
0181

> <Smiles>
CNC(C)C(=O)NC(C(=O)N1Cc2cc([101O:1][101CH2:1]C(=O)C(=O)Nc3nc([100NH:0][100C:0](=O)N4CCCC(n5nc(-c6ccc(Oc7ccc(F)cc7F)cc6)c(C(N)=O)c5N)C4)cn3C)ccc2CC1C(=O)NC1CCCc2ccccc21)C(C)(C)C

> <Shape>
0.246

> <Color>
0.107

> <Negative vol penalty>
0.000

$$$$

  -OEChem-04052304533D

 87 95  0     1  0  0  0  0  0999 V2000
  -29.7206  -32.1090   25.7722 C   0  0  0  0  0  0  0  0  0  0  0  0
  -29.3747  -30.9265   25.1259 C   0  0  0  0  0  0  0  0  0  0  0  0
  -24.6221   -8.9609   21.0278 C   0  0  0  0  0  0  0  0  0  0  0  0
  -23.1165  -10.7184   20.3340 C   0  0  0  0  0  0  0  0  0  0  0  0
  -28.7242  -32.9855   26.1998 C   0  0  0  0  0  0  0  0  0  0  0  0
  -28.0321  -30.6194   24.9080 C   0  0  0  0  0  0  0  0  0  0  0  0
  -27.1676  -28.9037   20.2224 C   0  0  0  0  0  0  0  0  0  0  0  0
  -23.5520   -8.2674   21.5933 C   0  0  0  0  0  0  0  0  0  0  0  0
  -22.0464  -10.0249   20.8994 C   0  0  0  0  0  0  0  0  0  0  0  0
  -27.5066  -27.5776   19.9573 C   0  0  0  0  0  0  0  0  0  0  0  0
  -21.7041   -8.4141   24.4196 C   0  0  0  0  0  0  0  0  0  0  0  0
  -21.8845   -7.8708   25.6915 C   0  0  0  0  0  0  0  0  0  0  0  0
  -25.1947  -26.9407   20.2189 C   0  0  0  0  0  0  0  0  0  0  0  0
  -29.2933  -18.9781   17.7366 C   0  0  0  0  0  0  0  0  0  0  0  0
  -21.4525   -5.6633   24.8099 C   0  0  0  0  0  0  0  0  0  0  0  0
  -24.4043  -10.1864   20.3982 C   0  0  0  0  0  0  0  0  0  0  0  0
  -25.9911  -10.7960   18.4961 C   0  0  0  0  0  0  0  0  0  0  0  0
  -27.3691  -32.6935   25.9784 C   0  0  0  0  0  0  0  0  0  0  0  0
  -25.8391  -29.2571   20.4990 C   0  0  0  0  0  0  0  0  0  0  0  0
  -27.0166  -31.4921   25.3343 C   0  0  0  0  0  0  0  0  0  0  0  0
  -24.8410  -28.2724   20.4847 C   0  0  0  0  0  0  0  0  0  0  0  0
  -28.9437  -17.7014   17.2968 C   0  0  0  0  0  0  0  0  0  0  0  0
  -29.2782  -20.0512   16.8455 C   0  0  0  0  0  0  0  0  0  0  0  0
  -22.2642   -8.7994   21.5290 C   0  0  0  0  0  0  0  0  0  0  0  0
  -26.5205  -26.5954   19.9583 C   0  0  0  0  0  0  0  0  0  0  0  0
  -21.3978   -7.5820   23.3428 C   0  0  0  0  0  0  0  0  0  0  0  0
  -21.7587   -6.4954   25.8867 C   0  0  0  0  0  0  0  0  0  0  0  0
  -21.2720   -6.2066   23.5379 C   0  0  0  0  0  0  0  0  0  0  0  0
  -28.5791  -17.4977   15.9660 C   0  0  0  0  0  0  0  0  0  0  0  0
  -28.9137  -19.8475   15.5147 C   0  0  0  0  0  0  0  0  0  0  0  0
  -28.5641  -18.5708   15.0748 C   0  0  0  0  0  0  0  0  0  0  0  0
  -25.5093  -10.9035   19.8144 C   0  0  0  0  0  0  0  0  0  0  0  0
  -27.0432  -11.6772   18.4420 C   0  0  0  0  0  0  0  0  0  0  0  0
  -25.5288   -9.9732   17.4167 C   0  0  0  0  0  0  0  0  0  0  0  0
  -24.3281  -30.5281   22.9901 C   0  0  0  0  0  0  0  0  0  0  0  0
  -28.4307  -23.5364   19.1931 C   0  0  0  0  0  0  0  0  0  0  0  0
  -21.8041  -30.5497   20.9526 C   0  0  0  0  0  0  0  0  0  0  0  0
  -20.3067  -29.2372   18.1810 C   0  0  0  0  0  0  0  0  0  0  0  0
  -29.2986  -16.6447   19.5560 C   0  0  0  0  0  0  0  0  0  0  0  0
  -26.3258  -33.6491   26.5009 C   0  0  0  0  0  0  0  0  0  0  0  0
  -25.4856  -30.6963   20.7567 C   0  0  0  0  0  0  0  0  0  0  0  0
  -23.3968  -28.6030   20.7555 C   0  0  0  0  0  0  0  0  0  0  0  0
  -24.9409  -33.4283   25.8978 C   0  0  0  0  0  0  0  0  0  0  0  0
  -29.4276  -14.1906   22.1324 C   0  0  0  0  0  0  0  0  0  0  0  0
  -24.5850  -31.9450   25.9070 C   0  0  0  0  0  0  0  0  0  0  0  0
  -28.4594  -13.1078   21.6506 C   0  0  0  0  0  0  0  0  0  0  0  0
  -28.9338  -15.5919   21.7772 C   0  0  0  0  0  0  0  0  0  0  0  0
  -27.6345  -14.7102   19.8788 C   0  0  0  0  0  0  0  0  0  0  0  0
  -25.5722  -31.1356   25.0574 C   0  0  1  0  0  0  0  0  0  0  0  0
  -24.1823  -30.8617   21.5323 C   0  0  1  0  0  0  0  0  0  0  0  0
  -28.1212  -13.2785   20.1566 C   0  0  2  0  0  0  0  0  0  0  0  0
  -18.2312  -29.4329   16.7840 C   0  0  0  0  0  0  0  0  0  0  0  0
  -31.4625  -21.1640   18.8551 C   0  0  0  0  0  0  0  0  0  0  0  0
  -20.2282  -29.0431   23.0873 C   0  0  0  0  0  0  0  0  0  0  0  0
  -18.5504  -28.4456   21.3277 C   0  0  0  0  0  0  0  0  0  0  0  0
  -18.9421  -30.8384   21.9138 C   0  0  0  0  0  0  0  0  0  0  0  0
  -21.8567  -29.9958   15.7766 C   0  0  0  0  0  0  0  0  0  0  0  0
  -29.8662  -23.1107   18.9133 C   0  0  0  0  0  0  0  0  0  0  0  0
  -28.2227  -25.0184   19.4371 C   0  0  0  0  0  0  0  0  0  1  0  0
  -20.7014  -29.5786   20.6063 C   0  0  1  0  0  0  0  0  0  0  0  0
  -19.6666  -29.8981   16.9735 C   0  0  2  0  0  0  0  0  0  0  0  0
  -30.0189  -21.6106   18.6470 C   0  0  1  0  0  0  0  0  0  0  0  0
  -19.6329  -29.4696   21.7305 C   0  0  0  0  0  0  0  0  0  0  0  0
  -26.1989  -11.7835   20.5452 N   0  0  0  0  0  0  0  0  0  0  0  0
  -27.1248  -12.2369   19.6831 N   0  0  0  0  0  0  0  0  0  0  0  0
  -23.1023  -30.0232   21.0082 N   0  0  0  0  0  0  0  0  0  0  0  0
  -28.6375  -15.6802   20.3456 N   0  0  0  0  0  0  0  0  0  0  0  0
  -27.8974  -12.0201   17.4545 N   0  0  0  0  0  0  0  0  0  0  0  0
  -24.4359   -9.1255   17.6435 N   0  0  0  0  0  0  0  0  0  0  0  0
  -28.9603  -16.6126   18.2035 N   0  0  0  0  0  0  0  0  0  0  0  0
  -29.6285  -21.3152   17.2829 N   0  0  0  0  0  0  0  0  0  0  0  0
  -25.2730  -31.2904   23.6499 N   0  0  0  0  0  0  0  0  0  0  0  0
  -20.1703  -30.0070   19.3168 N   0  0  0  0  0  0  0  0  0  0  0  0
  -20.4332  -29.5726   15.7377 N   0  3  0  0  0  0  0  0  0  0  0  0
  -26.0791   -9.9772   16.2895 O   0  0  0  0  0  0  0  0  0  0  0  0
  -23.6336  -29.6454   23.4802 O   0  0  0  0  0  0  0  0  0  0  0  0
  -27.4969  -22.7371   19.2340 O   0  0  0  0  0  0  0  0  0  0  0  0
  -21.5247  -31.7334   21.1590 O   0  0  0  0  0  0  0  0  0  0  0  0
  -20.8681  -28.1454   18.1232 O   0  0  0  0  0  0  0  0  0  0  0  0
  -30.1256  -17.4224   20.0387 O   0  0  0  0  0  0  0  0  0  0  0  0
  -21.2198   -8.1229   22.0804 O   0  0  0  0  0  0  0  0  0  0  0  0
  -26.8488  -25.3002   19.7005 O   0  0  0  0  0  0  0  0  0  1  0  0
  -21.9335   -5.9737   27.1079 F   0  0  0  0  0  0  0  0  0  0  0  0
  -20.9791   -5.4021   22.5071 F   0  0  0  0  0  0  0  0  0  0  0  0
  -28.2416  -16.2749   15.5321 F   0  0  0  0  0  0  0  0  0  0  0  0
  -28.8962  -20.8714   14.6494 F   0  0  0  0  0  0  0  0  0  0  0  0
  -28.2161  -18.3748   13.7964 F   0  0  0  0  0  0  0  0  0  0  0  0
  1  2  1  0  0  0  0
  1  5  2  0  0  0  0
  2  6  2  0  0  0  0
  3  8  2  0  0  0  0
  3 16  1  0  0  0  0
  4  9  1  0  0  0  0
  4 16  2  0  0  0  0
  5 18  1  0  0  0  0
  6 20  1  0  0  0  0
  7 10  2  0  0  0  0
  7 19  1  0  0  0  0
  8 24  1  0  0  0  0
  9 24  2  0  0  0  0
 10 25  1  0  0  0  0
 11 12  2  0  0  0  0
 11 26  1  0  0  0  0
 12 27  1  0  0  0  0
 13 21  1  0  0  0  0
 13 25  2  0  0  0  0
 14 22  2  0  0  0  0
 14 23  1  0  0  0  0
 15 27  2  0  0  0  0
 15 28  1  0  0  0  0
 16 32  1  0  0  0  0
 17 32  1  0  0  0  0
 17 33  2  0  0  0  0
 17 34  1  0  0  0  0
 18 20  2  0  0  0  0
 18 40  1  0  0  0  0
 19 21  2  0  0  0  0
 19 41  1  0  0  0  0
 20 49  1  0  0  0  0
 21 42  1  0  0  0  0
 22 29  1  0  0  0  0
 22 70  1  0  0  0  0
 23 30  2  0  0  0  0
 23 71  1  0  0  0  0
 24 81  1  0  0  0  0
 25 82  1  0  0  0  0
 26 28  2  0  0  0  0
 26 81  1  0  0  0  0
 27 83  1  0  0  0  0
 28 84  1  0  0  0  0
 29 31  2  0  0  0  0
 29 85  1  0  0  0  0
 30 31  1  0  0  0  0
 30 86  1  0  0  0  0
 31 87  1  0  0  0  0
 32 64  2  0  0  0  0
 33 65  1  0  0  0  0
 33 68  1  0  0  0  0
 34 69  1  0  0  0  0
 34 75  2  0  0  0  0
 35 50  1  0  0  0  0
 35 72  1  0  0  0  0
 35 76  2  0  0  0  0
 36 58  1  0  0  0  0
 36 59  1  0  0  0  0
 36 77  2  0  0  0  0
 37 60  1  0  0  0  0
 37 66  1  0  0  0  0
 37 78  2  0  0  0  0
 38 61  1  0  0  0  0
 38 73  1  0  0  0  0
 38 79  2  0  0  0  0
 39 67  1  0  0  0  0
 39 70  1  0  0  0  0
 39 80  2  0  0  0  0
 40 43  1  0  0  0  0
 41 50  1  0  0  0  0
 42 66  1  0  0  0  0
 43 45  1  0  0  0  0
 44 46  1  0  0  0  0
 44 47  1  0  0  0  0
 45 49  1  0  0  0  0
 46 51  1  0  0  0  0
 47 67  1  0  0  0  0
 48 51  1  0  0  0  0
 48 67  1  0  0  0  0
 49 72  1  0  0  0  0
 50 66  1  0  0  0  0
 51 65  1  0  0  0  0
 52 61  1  0  0  0  0
 53 62  1  0  0  0  0
 54 63  1  0  0  0  0
 55 63  1  0  0  0  0
 56 63  1  0  0  0  0
 57 74  1  0  0  0  0
 58 62  1  0  0  0  0
 59 82  1  0  0  0  0
 60 63  1  0  0  0  0
 60 73  1  0  0  0  0
 61 74  1  0  0  0  0
 62 71  1  0  0  0  0
 64 65  1  0  0  0  0
M  CHG  1  74   1
M  ISO  4  39 100  59 101  70 100  82 101
M  END
> <Batch ID>
0181

> <Smiles>
CNC(C)C(=O)NC(C(=O)N1Cc2cc([101O:1][101CH2:1]C(=O)CC(C)Nc3cc([100NH:0][100C:0](=O)N4CCCC(n5nc(-c6ccc(Oc7ccc(F)cc7F)cc6)c(C(N)=O)c5N)C4)c(F)c(F)c3F)ccc2CC1C(=O)NC1CCCc2ccccc21)C(C)(C)C

> <Shape>
0.302

> <Color>
0.098

> <Negative vol penalty>
0.000

$$$$

  -OEChem-04052304533D

 89 97  0     1  0  0  0  0  0999 V2000
  -19.8284  -31.2722   21.2720 C   0  0  0  0  0  0  0  0  0  0  0  0
  -21.0761  -30.6569   21.2721 C   0  0  0  0  0  0  0  0  0  0  0  0
  -26.4518  -12.8504   21.5675 C   0  0  0  0  0  0  0  0  0  0  0  0
  -25.9063  -13.7644   19.3986 C   0  0  0  0  0  0  0  0  0  0  0  0
  -18.7110  -30.5800   21.7368 C   0  0  0  0  0  0  0  0  0  0  0  0
  -21.2073  -29.3492   21.7381 C   0  0  0  0  0  0  0  0  0  0  0  0
  -24.0890  -26.4884   18.7120 C   0  0  0  0  0  0  0  0  0  0  0  0
  -25.2226  -12.1921   21.5993 C   0  0  0  0  0  0  0  0  0  0  0  0
  -24.6770  -13.1060   19.4304 C   0  0  0  0  0  0  0  0  0  0  0  0
  -25.4702  -26.6529   18.8064 C   0  0  0  0  0  0  0  0  0  0  0  0
  -22.3796   -9.9806   22.0912 C   0  0  0  0  0  0  0  0  0  0  0  0
  -22.3676   -8.6493   22.5072 C   0  0  0  0  0  0  0  0  0  0  0  0
  -25.6051  -24.6781   20.1852 C   0  0  0  0  0  0  0  0  0  0  0  0
  -23.8445   -8.0668   20.6861 C   0  0  0  0  0  0  0  0  0  0  0  0
  -28.5715  -21.2450   17.1379 C   0  0  0  0  0  0  0  0  0  0  0  0
  -26.7937  -13.6366   20.4672 C   0  0  0  0  0  0  0  0  0  0  0  0
  -29.2784  -13.8257   19.9210 C   0  0  0  0  0  0  0  0  0  0  0  0
  -18.8269  -29.2598   22.1997 C   0  0  0  0  0  0  0  0  0  0  0  0
  -23.4530  -25.4220   19.3637 C   0  0  0  0  0  0  0  0  0  0  0  0
  -20.0906  -28.6391   22.2108 C   0  0  0  0  0  0  0  0  0  0  0  0
  -24.2160  -24.5009   20.0955 C   0  0  0  0  0  0  0  0  0  0  0  0
  -24.3352  -12.3198   20.5308 C   0  0  0  0  0  0  0  0  0  0  0  0
  -26.2282  -25.7493   19.5454 C   0  0  0  0  0  0  0  0  0  0  0  0
  -23.1241  -10.3550   20.9726 C   0  0  0  0  0  0  0  0  0  0  0  0
  -23.1000   -7.6924   21.8047 C   0  0  0  0  0  0  0  0  0  0  0  0
  -23.8565   -9.3982   20.2701 C   0  0  0  0  0  0  0  0  0  0  0  0
  -28.0632  -14.3174   20.4340 C   0  0  0  0  0  0  0  0  0  0  0  0
  -29.0852  -21.6042   18.3673 C   0  0  0  0  0  0  0  0  0  0  0  0
  -28.5796  -22.2338   16.1754 C   0  0  0  0  0  0  0  0  0  0  0  0
  -30.1750  -14.8461   20.1245 C   0  0  0  0  0  0  0  0  0  0  0  0
  -29.5250  -23.7073   17.6253 C   0  0  0  0  0  0  0  0  0  0  0  0
  -29.5706  -12.5598   19.3145 C   0  0  0  0  0  0  0  0  0  0  0  0
  -30.5447  -26.8452   19.4939 C   0  0  0  0  0  0  0  0  0  0  0  0
  -30.5592  -25.3854   19.1447 C   0  0  0  0  0  0  0  0  0  0  0  0
  -21.2568  -25.1783   21.6486 C   0  0  0  0  0  0  0  0  0  0  0  0
  -21.4324  -22.0177   20.9403 C   0  0  0  0  0  0  0  0  0  0  0  0
  -23.2527  -19.4339   19.6527 C   0  0  0  0  0  0  0  0  0  0  0  0
  -29.5655  -20.7631   20.6928 C   0  0  0  0  0  0  0  0  0  0  0  0
  -17.5987  -28.5683   22.7366 C   0  0  0  0  0  0  0  0  0  0  0  0
  -21.9656  -25.2432   19.2301 C   0  0  0  0  0  0  0  0  0  0  0  0
  -23.5840  -23.3275   20.7970 C   0  0  0  0  0  0  0  0  0  0  0  0
  -17.7581  -27.0555   22.8639 C   0  0  0  0  0  0  0  0  0  0  0  0
  -31.0455  -18.5390   23.0466 C   0  0  0  0  0  0  0  0  0  0  0  0
  -19.0886  -26.7128   23.5265 C   0  0  0  0  0  0  0  0  0  0  0  0
  -30.5642  -17.1587   22.5934 C   0  0  0  0  0  0  0  0  0  0  0  0
  -29.9693  -19.6061   22.8546 C   0  0  0  0  0  0  0  0  0  0  0  0
  -28.9203  -18.2988   21.0491 C   0  0  0  0  0  0  0  0  0  0  0  0
  -20.2690  -27.2131   22.6852 C   0  0  1  0  0  0  0  0  0  0  0  0
  -21.3595  -24.4147   20.3586 C   0  0  1  0  0  0  0  0  0  0  0  0
  -29.9926  -17.2029   21.1627 C   0  0  2  0  0  0  0  0  0  0  0  0
  -31.3108  -25.8440   15.9653 C   0  0  0  0  0  0  0  0  0  0  0  0
  -23.1461  -16.9601   19.2448 C   0  0  0  0  0  0  0  0  0  0  0  0
  -29.6031  -28.8505   20.7412 C   0  0  0  0  0  0  0  0  0  0  0  0
  -29.3409  -26.5427   21.6549 C   0  0  0  0  0  0  0  0  0  0  0  0
  -21.9405  -21.5092   23.9056 C   0  0  0  0  0  0  0  0  0  0  0  0
  -22.7539  -19.2196   23.3023 C   0  0  0  0  0  0  0  0  0  0  0  0
  -20.3958  -19.8718   22.8161 C   0  0  0  0  0  0  0  0  0  0  0  0
  -23.5241  -19.7874   16.7269 C   0  0  0  0  0  0  0  0  0  0  0  0
  -30.0569  -25.9790   16.7603 C   0  0  0  0  0  0  0  0  0  0  0  0
  -28.0799  -27.2415   19.5723 C   0  0  0  0  0  0  0  0  0  1  0  0
  -22.2655  -20.8573   21.4286 C   0  0  1  0  0  0  0  0  0  0  0  0
  -22.8905  -18.3416   18.6627 C   0  0  2  0  0  0  0  0  0  0  0  0
  -29.3960  -27.3755   20.3621 C   0  0  0  0  0  0  0  0  0  0  0  0
  -21.8509  -20.3876   22.8517 C   0  0  0  0  0  0  0  0  0  0  0  0
  -28.1742  -15.5540   20.9266 N   0  0  0  0  0  0  0  0  0  0  0  0
  -29.5722  -22.8311   18.6467 N   0  0  0  0  0  0  0  0  0  0  0  0
  -29.0504  -23.4807   16.3856 N   0  0  0  0  0  0  0  0  0  0  0  0
  -29.4698  -15.8478   20.7240 N   0  0  0  0  0  0  0  0  0  0  0  0
  -22.1256  -23.1993   20.6418 N   0  0  0  0  0  0  0  0  0  0  0  0
  -29.4780  -19.5921   21.4751 N   0  0  0  0  0  0  0  0  0  0  0  0
  -31.4899  -14.9751   19.8473 N   0  0  0  0  0  0  0  0  0  0  0  0
  -28.5332  -11.6266   19.1831 N   0  0  0  0  0  0  0  0  0  0  0  0
  -29.0971  -20.6206   19.3871 N   0  0  0  0  0  0  0  0  0  0  0  0
  -20.4989  -26.3305   21.5616 N   0  0  0  0  0  0  0  0  0  0  0  0
  -22.1644  -19.8228   20.4049 N   0  0  0  0  0  0  0  0  0  0  0  0
  -30.0397  -25.0359   17.8883 N   0  0  0  0  0  0  0  0  0  0  0  0
  -23.6966  -18.4833   17.4173 N   0  3  0  0  0  0  0  0  0  0  0  0
  -30.7214  -12.2586   18.9164 O   0  0  0  0  0  0  0  0  0  0  0  0
  -31.5167  -27.4987   19.1351 O   0  0  0  0  0  0  0  0  0  0  0  0
  -31.0745  -24.6737   19.9985 O   0  0  0  0  0  0  0  0  0  0  0  0
  -21.8220  -24.7529   22.6492 O   0  0  0  0  0  0  0  0  0  0  0  0
  -20.2126  -21.8785   20.8210 O   0  0  0  0  0  0  0  0  0  0  0  0
  -24.3883  -19.8934   19.7518 O   0  0  0  0  0  0  0  0  0  0  0  0
  -30.0475  -21.8073   21.1394 O   0  0  0  0  0  0  0  0  0  0  0  0
  -23.1357  -11.6773   20.5613 O   0  0  0  0  0  0  0  0  0  0  0  0
  -27.5765  -25.9079   19.6396 O   0  0  0  0  0  0  0  0  0  1  0  0
  -23.0896   -6.4142   22.2052 F   0  0  0  0  0  0  0  0  0  0  0  0
  -24.5746   -9.7521   19.1954 F   0  0  0  0  0  0  0  0  0  0  0  0
  -28.0939  -21.9507   14.9571 F   0  0  0  0  0  0  0  0  0  0  0  0
  1  2  1  0  0  0  0
  1  5  2  0  0  0  0
  2  6  2  0  0  0  0
  3  8  2  0  0  0  0
  3 16  1  0  0  0  0
  4  9  1  0  0  0  0
  4 16  2  0  0  0  0
  5 18  1  0  0  0  0
  6 20  1  0  0  0  0
  7 10  2  0  0  0  0
  7 19  1  0  0  0  0
  8 22  1  0  0  0  0
  9 22  2  0  0  0  0
 10 23  1  0  0  0  0
 11 12  2  0  0  0  0
 11 24  1  0  0  0  0
 12 25  1  0  0  0  0
 13 21  1  0  0  0  0
 13 23  2  0  0  0  0
 14 25  2  0  0  0  0
 14 26  1  0  0  0  0
 15 28  2  0  0  0  0
 15 29  1  0  0  0  0
 16 27  1  0  0  0  0
 17 27  1  0  0  0  0
 17 30  2  0  0  0  0
 17 32  1  0  0  0  0
 18 20  2  0  0  0  0
 18 39  1  0  0  0  0
 19 21  2  0  0  0  0
 19 40  1  0  0  0  0
 20 48  1  0  0  0  0
 21 41  1  0  0  0  0
 22 85  1  0  0  0  0
 23 86  1  0  0  0  0
 24 26  2  0  0  0  0
 24 85  1  0  0  0  0
 25 87  1  0  0  0  0
 26 88  1  0  0  0  0
 27 65  2  0  0  0  0
 28 66  1  0  0  0  0
 28 73  1  0  0  0  0
 29 67  2  0  0  0  0
 29 89  1  0  0  0  0
 30 68  1  0  0  0  0
 30 71  1  0  0  0  0
 31 66  2  0  0  0  0
 31 67  1  0  0  0  0
 31 76  1  0  0  0  0
 32 72  1  0  0  0  0
 32 78  2  0  0  0  0
 33 34  1  0  0  0  0
 33 63  1  0  0  0  0
 33 79  2  0  0  0  0
 34 76  1  0  0  0  0
 34 80  2  0  0  0  0
 35 49  1  0  0  0  0
 35 74  1  0  0  0  0
 35 81  2  0  0  0  0
 36 61  1  0  0  0  0
 36 69  1  0  0  0  0
 36 82  2  0  0  0  0
 37 62  1  0  0  0  0
 37 75  1  0  0  0  0
 37 83  2  0  0  0  0
 38 70  1  0  0  0  0
 38 73  1  0  0  0  0
 38 84  2  0  0  0  0
 39 42  1  0  0  0  0
 40 49  1  0  0  0  0
 41 69  1  0  0  0  0
 42 44  1  0  0  0  0
 43 45  1  0  0  0  0
 43 46  1  0  0  0  0
 44 48  1  0  0  0  0
 45 50  1  0  0  0  0
 46 70  1  0  0  0  0
 47 50  1  0  0  0  0
 47 70  1  0  0  0  0
 48 74  1  0  0  0  0
 49 69  1  0  0  0  0
 50 68  1  0  0  0  0
 51 59  1  0  0  0  0
 52 62  1  0  0  0  0
 53 63  1  0  0  0  0
 54 63  1  0  0  0  0
 55 64  1  0  0  0  0
 56 64  1  0  0  0  0
 57 64  1  0  0  0  0
 58 77  1  0  0  0  0
 59 76  1  0  0  0  0
 60 63  1  0  0  0  0
 60 86  1  0  0  0  0
 61 64  1  0  0  0  0
 61 75  1  0  0  0  0
 62 77  1  0  0  0  0
 65 68  1  0  0  0  0
M  CHG  1  77   1
M  ISO  4  38 100  60 101  73 100  86 101
M  END
> <Batch ID>
0181

> <Smiles>
CCN(C(=O)C(=O)C(C)(C)[101CH2:1][101O:1]c1ccc2c(c1)CN(C(=O)C(NC(=O)C(C)NC)C(C)(C)C)C(C(=O)NC1CCCc3ccccc31)C2)c1nc(F)cc([100NH:0][100C:0](=O)N2CCCC(n3nc(-c4ccc(Oc5ccc(F)cc5F)cc4)c(C(N)=O)c3N)C2)n1

> <Shape>
0.290

> <Color>
0.086

> <Negative vol penalty>
0.000

$$$$

  -OEChem-04052304533D

 85 93  0     1  0  0  0  0  0999 V2000
  -27.6521  -37.0441   25.9924 C   0  0  0  0  0  0  0  0  0  0  0  0
  -27.8463  -35.7601   25.4933 C   0  0  0  0  0  0  0  0  0  0  0  0
  -22.6697  -10.1648   22.9399 C   0  0  0  0  0  0  0  0  0  0  0  0
  -23.3591  -10.1078   20.6250 C   0  0  0  0  0  0  0  0  0  0  0  0
  -26.3642  -37.4877   26.2898 C   0  0  0  0  0  0  0  0  0  0  0  0
  -26.7527  -34.9186   25.2922 C   0  0  0  0  0  0  0  0  0  0  0  0
  -26.0707  -30.7680   20.8411 C   0  0  0  0  0  0  0  0  0  0  0  0
  -22.0631   -8.9178   22.7900 C   0  0  0  0  0  0  0  0  0  0  0  0
  -22.7526   -8.8606   20.4751 C   0  0  0  0  0  0  0  0  0  0  0  0
  -26.2630  -29.3875   20.8084 C   0  0  0  0  0  0  0  0  0  0  0  0
  -23.0229   -5.6772   22.6881 C   0  0  0  0  0  0  0  0  0  0  0  0
  -23.2394   -4.7269   23.6859 C   0  0  0  0  0  0  0  0  0  0  0  0
  -23.9108  -29.0560   21.2287 C   0  0  0  0  0  0  0  0  0  0  0  0
  -20.8632   -4.6335   24.1127 C   0  0  0  0  0  0  0  0  0  0  0  0
  -23.3176  -10.7599   21.8573 C   0  0  0  0  0  0  0  0  0  0  0  0
  -25.2719  -12.3071   22.4003 C   0  0  0  0  0  0  0  0  0  0  0  0
  -25.2534  -36.6547   26.0832 C   0  0  0  0  0  0  0  0  0  0  0  0
  -24.7968  -31.3037   21.0791 C   0  0  0  0  0  0  0  0  0  0  0  0
  -25.4489  -35.3511   25.5884 C   0  0  0  0  0  0  0  0  0  0  0  0
  -23.7046  -30.4436   21.2614 C   0  0  0  0  0  0  0  0  0  0  0  0
  -22.1046   -8.2656   21.5577 C   0  0  0  0  0  0  0  0  0  0  0  0
  -25.1835  -28.5312   21.0051 C   0  0  0  0  0  0  0  0  0  0  0  0
  -21.7265   -6.1057   22.4026 C   0  0  0  0  0  0  0  0  0  0  0  0
  -22.1596   -4.2050   24.3982 C   0  0  0  0  0  0  0  0  0  0  0  0
  -20.6467   -5.5838   23.1148 C   0  0  0  0  0  0  0  0  0  0  0  0
  -23.9438  -12.0484   22.0114 C   0  0  0  0  0  0  0  0  0  0  0  0
  -28.0248  -20.9620   19.0853 C   0  0  0  0  0  0  0  0  0  0  0  0
  -25.3705  -13.6770   22.3950 C   0  0  0  0  0  0  0  0  0  0  0  0
  -29.0254  -20.0145   19.0301 C   0  0  0  0  0  0  0  0  0  0  0  0
  -26.8193  -19.1834   19.5246 C   0  0  0  0  0  0  0  0  0  0  0  0
  -26.3224  -11.3909   22.7362 C   0  0  0  0  0  0  0  0  0  0  0  0
  -28.2314  -22.4163   18.8628 C   0  0  0  0  0  0  0  0  0  0  0  0
  -23.5230  -33.1431   23.3370 C   0  0  0  0  0  0  0  0  0  0  0  0
  -26.0867  -25.2986   19.6331 C   0  0  0  0  0  0  0  0  0  0  0  0
  -20.9346  -33.0781   21.3830 C   0  0  0  0  0  0  0  0  0  0  0  0
  -19.2025  -31.4697   18.9214 C   0  0  0  0  0  0  0  0  0  0  0  0
  -24.4138  -18.6202   20.0176 C   0  0  0  0  0  0  0  0  0  0  0  0
  -23.8849  -37.1617   26.4639 C   0  0  0  0  0  0  0  0  0  0  0  0
  -24.6012  -32.7951   21.0848 C   0  0  0  0  0  0  0  0  0  0  0  0
  -22.3132  -30.9684   21.5004 C   0  0  0  0  0  0  0  0  0  0  0  0
  -22.7438  -36.3403   25.8693 C   0  0  0  0  0  0  0  0  0  0  0  0
  -21.7936  -17.2356   21.9909 C   0  0  0  0  0  0  0  0  0  0  0  0
  -23.0048  -34.8493   26.0577 C   0  0  0  0  0  0  0  0  0  0  0  0
  -22.2286  -15.7839   22.2042 C   0  0  0  0  0  0  0  0  0  0  0  0
  -22.1636  -17.7396   20.5971 C   0  0  0  0  0  0  0  0  0  0  0  0
  -24.0098  -16.1159   20.4422 C   0  0  0  0  0  0  0  0  0  0  0  0
  -24.2855  -34.4174   25.3333 C   0  0  1  0  0  0  0  0  0  0  0  0
  -23.3535  -33.2312   21.8466 C   0  0  1  0  0  0  0  0  0  0  0  0
  -23.7165  -15.5844   21.8547 C   0  0  2  0  0  0  0  0  0  0  0  0
  -26.8656  -24.9375   17.2814 C   0  0  0  0  0  0  0  0  0  0  0  0
  -17.1031  -31.6389   17.5570 C   0  0  0  0  0  0  0  0  0  0  0  0
  -19.3012  -32.1433   23.7847 C   0  0  0  0  0  0  0  0  0  0  0  0
  -17.5025  -31.4305   22.1958 C   0  0  0  0  0  0  0  0  0  0  0  0
  -18.1572  -33.8333   22.3392 C   0  0  0  0  0  0  0  0  0  0  0  0
  -20.7237  -31.6279   16.3876 C   0  0  0  0  0  0  0  0  0  0  0  0
  -26.4164  -26.6905   20.1403 C   0  0  0  0  0  0  0  0  0  1  0  0
  -27.1334  -24.6382   18.7468 C   0  0  2  0  0  0  0  0  0  0  0  0
  -19.7264  -32.1846   21.2384 C   0  0  1  0  0  0  0  0  0  0  0  0
  -18.5846  -31.9744   17.6298 C   0  0  2  0  0  0  0  0  0  0  0  0
  -18.6983  -32.3877   22.3870 C   0  0  0  0  0  0  0  0  0  0  0  0
  -23.2487  -13.1644   21.7763 N   0  0  0  0  0  0  0  0  0  0  0  0
  -26.7590  -20.4872   19.3683 N   0  0  0  0  0  0  0  0  0  0  0  0
  -24.1433  -14.1377   22.0183 N   0  0  0  0  0  0  0  0  0  0  0  0
  -22.1741  -32.4340   21.5032 N   0  0  0  0  0  0  0  0  0  0  0  0
  -23.5884  -17.5217   20.3379 N   0  0  0  0  0  0  0  0  0  0  0  0
  -26.3864  -14.5204   22.6760 N   0  0  0  0  0  0  0  0  0  0  0  0
  -30.3439  -20.1991   18.7738 N   0  0  0  0  0  0  0  0  0  0  0  0
  -26.0507  -10.0168   22.6899 N   0  0  0  0  0  0  0  0  0  0  0  0
  -25.7562  -18.2958   19.8242 N   0  0  0  0  0  0  0  0  0  0  0  0
  -27.0992  -23.2081   18.9611 N   0  0  0  0  0  0  0  0  0  0  0  0
  -24.0430  -34.2867   23.9126 N   0  0  0  0  0  0  0  0  0  0  0  0
  -19.1901  -32.4358   19.9051 N   0  0  0  0  0  0  0  0  0  0  0  0
  -19.2643  -31.3586   16.4552 N   0  3  0  0  0  0  0  0  0  0  0  0
  -27.4633  -11.7798   23.0834 O   0  0  0  0  0  0  0  0  0  0  0  0
  -29.3563  -22.8278   18.5910 O   0  0  0  0  0  0  0  0  0  0  0  0
  -23.2043  -32.1144   23.9216 O   0  0  0  0  0  0  0  0  0  0  0  0
  -25.0246  -24.7451   19.9191 O   0  0  0  0  0  0  0  0  0  0  0  0
  -20.7848  -34.3025   21.3819 O   0  0  0  0  0  0  0  0  0  0  0  0
  -19.6478  -30.3311   19.0463 O   0  0  0  0  0  0  0  0  0  0  0  0
  -23.9681  -19.7685   19.9487 O   0  0  0  0  0  0  0  0  0  0  0  0
  -21.5131   -7.0486   21.4111 O   0  0  0  0  0  0  0  0  0  0  0  0
  -25.3685  -27.1834   20.9743 O   0  0  0  0  0  0  0  0  0  1  0  0
  -22.3676   -3.2913   25.3553 F   0  0  0  0  0  0  0  0  0  0  0  0
  -19.3989   -5.9907   22.8442 F   0  0  0  0  0  0  0  0  0  0  0  0
  -28.3665  -18.4629   19.3457 S   0  0  0  0  0  0  0  0  0  0  0  0
  1  2  1  0  0  0  0
  1  5  2  0  0  0  0
  2  6  2  0  0  0  0
  3  8  2  0  0  0  0
  3 15  1  0  0  0  0
  4  9  1  0  0  0  0
  4 15  2  0  0  0  0
  5 17  1  0  0  0  0
  6 19  1  0  0  0  0
  7 10  2  0  0  0  0
  7 18  1  0  0  0  0
  8 21  1  0  0  0  0
  9 21  2  0  0  0  0
 10 22  1  0  0  0  0
 11 12  2  0  0  0  0
 11 23  1  0  0  0  0
 12 24  1  0  0  0  0
 13 20  1  0  0  0  0
 13 22  2  0  0  0  0
 14 24  2  0  0  0  0
 14 25  1  0  0  0  0
 15 26  1  0  0  0  0
 16 26  1  0  0  0  0
 16 28  2  0  0  0  0
 16 31  1  0  0  0  0
 17 19  2  0  0  0  0
 17 38  1  0  0  0  0
 18 20  2  0  0  0  0
 18 39  1  0  0  0  0
 19 47  1  0  0  0  0
 20 40  1  0  0  0  0
 21 81  1  0  0  0  0
 22 82  1  0  0  0  0
 23 25  2  0  0  0  0
 23 81  1  0  0  0  0
 24 83  1  0  0  0  0
 25 84  1  0  0  0  0
 26 61  2  0  0  0  0
 27 29  2  0  0  0  0
 27 32  1  0  0  0  0
 27 62  1  0  0  0  0
 28 63  1  0  0  0  0
 28 66  1  0  0  0  0
 29 67  1  0  0  0  0
 29 85  1  0  0  0  0
 30 62  2  0  0  0  0
 30 69  1  0  0  0  0
 30 85  1  0  0  0  0
 31 68  1  0  0  0  0
 31 74  2  0  0  0  0
 32 70  1  0  0  0  0
 32 75  2  0  0  0  0
 33 48  1  0  0  0  0
 33 71  1  0  0  0  0
 33 76  2  0  0  0  0
 34 56  1  0  0  0  0
 34 57  1  0  0  0  0
 34 77  2  0  0  0  0
 35 58  1  0  0  0  0
 35 64  1  0  0  0  0
 35 78  2  0  0  0  0
 36 59  1  0  0  0  0
 36 72  1  0  0  0  0
 36 79  2  0  0  0  0
 37 65  1  0  0  0  0
 37 69  1  0  0  0  0
 37 80  2  0  0  0  0
 38 41  1  0  0  0  0
 39 48  1  0  0  0  0
 40 64  1  0  0  0  0
 41 43  1  0  0  0  0
 42 44  1  0  0  0  0
 42 45  1  0  0  0  0
 43 47  1  0  0  0  0
 44 49  1  0  0  0  0
 45 65  1  0  0  0  0
 46 49  1  0  0  0  0
 46 65  1  0  0  0  0
 47 71  1  0  0  0  0
 48 64  1  0  0  0  0
 49 63  1  0  0  0  0
 50 57  1  0  0  0  0
 51 59  1  0  0  0  0
 52 60  1  0  0  0  0
 53 60  1  0  0  0  0
 54 60  1  0  0  0  0
 55 73  1  0  0  0  0
 56 82  1  0  0  0  0
 57 70  1  0  0  0  0
 58 60  1  0  0  0  0
 58 72  1  0  0  0  0
 59 73  1  0  0  0  0
 61 63  1  0  0  0  0
M  CHG  1  73   1
M  ISO  4  37 100  56 101  69 100  82 101
M  END
> <Batch ID>
0181

> <Smiles>
CNC(C)C(=O)NC(C(=O)N1Cc2cc([101O:1][101CH2:1]C(=O)C(C)NC(=O)c3nc([100NH:0][100C:0](=O)N4CCCC(n5nc(-c6ccc(Oc7ccc(F)cc7F)cc6)c(C(N)=O)c5N)C4)sc3N)ccc2CC1C(=O)NC1CCCc2ccccc21)C(C)(C)C

> <Shape>
0.206

> <Color>
0.095

> <Negative vol penalty>
0.000

$$$$

  -OEChem-04052304533D

 86 94  0     1  0  0  0  0  0999 V2000
  -27.3860  -31.8798   23.3755 C   0  0  0  0  0  0  0  0  0  0  0  0
  -27.3022  -30.5794   23.8627 C   0  0  0  0  0  0  0  0  0  0  0  0
  -30.8458  -19.5922   18.8396 C   0  0  0  0  0  0  0  0  0  0  0  0
  -29.0219  -20.1532   20.3214 C   0  0  0  0  0  0  0  0  0  0  0  0
  -26.5506  -32.2891   22.3370 C   0  0  0  0  0  0  0  0  0  0  0  0
  -26.3821  -29.6878   23.3123 C   0  0  0  0  0  0  0  0  0  0  0  0
  -27.1024  -23.6533   22.5562 C   0  0  0  0  0  0  0  0  0  0  0  0
  -30.7035  -20.8228   18.1985 C   0  0  0  0  0  0  0  0  0  0  0  0
  -28.8797  -21.3839   19.6804 C   0  0  0  0  0  0  0  0  0  0  0  0
  -26.6763  -22.5568   23.3044 C   0  0  0  0  0  0  0  0  0  0  0  0
  -31.0568  -23.9657   16.4062 C   0  0  0  0  0  0  0  0  0  0  0  0
  -32.2156  -24.6920   16.1321 C   0  0  0  0  0  0  0  0  0  0  0  0
  -24.7577  -22.3249   21.8606 C   0  0  0  0  0  0  0  0  0  0  0  0
  -32.7252  -24.7696   18.4925 C   0  0  0  0  0  0  0  0  0  0  0  0
  -30.0049  -19.2574   19.9010 C   0  0  0  0  0  0  0  0  0  0  0  0
  -30.9643  -17.6950   21.6747 C   0  0  0  0  0  0  0  0  0  0  0  0
  -25.6265  -31.3993   21.7671 C   0  0  0  0  0  0  0  0  0  0  0  0
  -26.3524  -24.1013   21.4593 C   0  0  0  0  0  0  0  0  0  0  0  0
  -25.5326  -30.0860   22.2661 C   0  0  0  0  0  0  0  0  0  0  0  0
  -25.1778  -23.4257   21.0986 C   0  0  0  0  0  0  0  0  0  0  0  0
  -29.7205  -21.7187   18.6190 C   0  0  0  0  0  0  0  0  0  0  0  0
  -25.5023  -21.8942   22.9584 C   0  0  0  0  0  0  0  0  0  0  0  0
  -30.7320  -23.6415   17.7234 C   0  0  0  0  0  0  0  0  0  0  0  0
  -33.0499  -25.0939   17.1752 C   0  0  0  0  0  0  0  0  0  0  0  0
  -31.5663  -24.0434   18.7666 C   0  0  0  0  0  0  0  0  0  0  0  0
  -30.1510  -17.9861   20.5632 C   0  0  0  0  0  0  0  0  0  0  0  0
  -24.1160  -13.8644   23.5234 C   0  0  0  0  0  0  0  0  0  0  0  0
  -30.7497  -16.3603   21.9172 C   0  0  0  0  0  0  0  0  0  0  0  0
  -23.5618  -13.3604   24.6813 C   0  0  0  0  0  0  0  0  0  0  0  0
  -24.2984  -15.6516   24.7814 C   0  0  0  0  0  0  0  0  0  0  0  0
  -31.8359  -18.5544   22.4214 C   0  0  0  0  0  0  0  0  0  0  0  0
  -24.8371  -26.7985   20.7294 C   0  0  0  0  0  0  0  0  0  0  0  0
  -23.0597  -13.2103   21.3301 C   0  0  0  0  0  0  0  0  0  0  0  0
  -24.4101  -25.3273   17.8701 C   0  0  0  0  0  0  0  0  0  0  0  0
  -25.1540  -18.0123   24.5839 C   0  0  0  0  0  0  0  0  0  0  0  0
  -24.2226  -22.4072   16.1138 C   0  0  0  0  0  0  0  0  0  0  0  0
  -26.1846  -12.6792   20.7085 C   0  0  0  0  0  0  0  0  0  0  0  0
  -24.7117  -31.9014   20.6782 C   0  0  0  0  0  0  0  0  0  0  0  0
  -26.8397  -25.2692   20.6463 C   0  0  0  0  0  0  0  0  0  0  0  0
  -24.3472  -23.8545   19.9176 C   0  0  0  0  0  0  0  0  0  0  0  0
  -24.0235  -30.7845   19.8977 C   0  0  0  0  0  0  0  0  0  0  0  0
  -29.5744  -12.2918   19.6908 C   0  0  0  0  0  0  0  0  0  0  0  0
  -23.4530  -29.7398   20.8516 C   0  0  0  0  0  0  0  0  0  0  0  0
  -30.1799  -13.6810   19.8992 C   0  0  0  0  0  0  0  0  0  0  0  0
  -28.1291  -12.3733   19.2046 C   0  0  0  0  0  0  0  0  0  0  0  0
  -27.8442  -14.5856   20.2527 C   0  0  0  0  0  0  0  0  0  0  0  0
  -24.5644  -29.0823   21.6785 C   0  0  1  0  0  0  0  0  0  0  0  0
  -25.7270  -25.9558   19.8602 C   0  0  1  0  0  0  0  0  0  0  0  0
  -29.2829  -14.5548   20.7964 C   0  0  2  0  0  0  0  0  0  0  0  0
  -21.9956  -12.1443   21.4059 C   0  0  0  0  0  0  0  0  0  0  0  0
  -23.8258  -21.5226   13.7992 C   0  0  0  0  0  0  0  0  0  0  0  0
  -21.4243  -25.8767   18.1747 C   0  0  0  0  0  0  0  0  0  0  0  0
  -21.0007  -24.1858   16.3776 C   0  0  0  0  0  0  0  0  0  0  0  0
  -22.3219  -26.2396   15.8688 C   0  0  0  0  0  0  0  0  0  0  0  0
  -26.9007  -21.1518   16.0091 C   0  0  0  0  0  0  0  0  0  0  0  0
  -25.2653  -19.2357   25.4866 C   0  0  0  0  0  0  0  0  0  0  0  0
  -25.8961  -20.4341   24.7939 C   0  0  0  0  0  0  0  0  0  1  0  0
  -24.2937  -13.1348   22.2500 C   0  0  1  0  0  0  0  0  0  0  0  0
  -23.3584  -24.4177   17.2823 C   0  0  1  0  0  0  0  0  0  0  0  0
  -24.8686  -21.9722   14.8107 C   0  0  2  0  0  0  0  0  0  0  0  0
  -22.0407  -25.1728   16.9494 C   0  0  0  0  0  0  0  0  0  0  0  0
  -29.4705  -16.9217   20.1294 N   0  0  0  0  0  0  0  0  0  0  0  0
  -24.5386  -15.1782   23.5787 N   0  0  0  0  0  0  0  0  0  0  0  0
  -29.8559  -15.9489   20.9727 N   0  0  0  0  0  0  0  0  0  0  0  0
  -24.8620  -25.0056   19.1578 N   0  0  0  0  0  0  0  0  0  0  0  0
  -27.3315  -13.2150   20.0998 N   0  0  0  0  0  0  0  0  0  0  0  0
  -31.2402  -15.5101   22.8440 N   0  0  0  0  0  0  0  0  0  0  0  0
  -23.0704  -12.1165   24.9003 N   0  0  0  0  0  0  0  0  0  0  0  0
  -31.9385  -19.8985   22.0376 N   0  0  0  0  0  0  0  0  0  0  0  0
  -24.5710  -16.9511   25.2712 N   0  0  0  0  0  0  0  0  0  0  0  0
  -25.2720  -28.1010   20.8843 N   0  0  0  0  0  0  0  0  0  0  0  0
  -23.9789  -23.7642   16.1350 N   0  0  0  0  0  0  0  0  0  0  0  0
  -25.4898  -13.5422   21.5471 N   0  0  0  0  0  0  0  0  0  0  0  0
  -25.8088  -20.8412   15.0508 N   0  3  0  0  0  0  0  0  0  0  0  0
  -32.5164  -18.1388   23.3897 O   0  0  0  0  0  0  0  0  0  0  0  0
  -23.8297  -26.3042   21.2217 O   0  0  0  0  0  0  0  0  0  0  0  0
  -22.9306  -14.1565   20.5482 O   0  0  0  0  0  0  0  0  0  0  0  0
  -24.8209  -26.2837   17.2081 O   0  0  0  0  0  0  0  0  0  0  0  0
  -25.5428  -18.0218   23.4207 O   0  0  0  0  0  0  0  0  0  0  0  0
  -23.9572  -21.6212   17.0206 O   0  0  0  0  0  0  0  0  0  0  0  0
  -25.8107  -11.5162   20.5229 O   0  0  0  0  0  0  0  0  0  0  0  0
  -29.5815  -22.9197   17.9938 O   0  0  0  0  0  0  0  0  0  0  0  0
  -25.0837  -20.8240   23.6874 O   0  0  0  0  0  0  0  0  0  1  0  0
  -34.1636  -25.7899   16.9117 F   0  0  0  0  0  0  0  0  0  0  0  0
  -31.2602  -23.7338   20.0339 F   0  0  0  0  0  0  0  0  0  0  0  0
  -23.5665  -14.5712   25.8958 S   0  0  0  0  0  0  0  0  0  0  0  0
  1  2  1  0  0  0  0
  1  5  2  0  0  0  0
  2  6  2  0  0  0  0
  3  8  2  0  0  0  0
  3 15  1  0  0  0  0
  4  9  1  0  0  0  0
  4 15  2  0  0  0  0
  5 17  1  0  0  0  0
  6 19  1  0  0  0  0
  7 10  2  0  0  0  0
  7 18  1  0  0  0  0
  8 21  1  0  0  0  0
  9 21  2  0  0  0  0
 10 22  1  0  0  0  0
 11 12  2  0  0  0  0
 11 23  1  0  0  0  0
 12 24  1  0  0  0  0
 13 20  1  0  0  0  0
 13 22  2  0  0  0  0
 14 24  2  0  0  0  0
 14 25  1  0  0  0  0
 15 26  1  0  0  0  0
 16 26  1  0  0  0  0
 16 28  2  0  0  0  0
 16 31  1  0  0  0  0
 17 19  2  0  0  0  0
 17 38  1  0  0  0  0
 18 20  2  0  0  0  0
 18 39  1  0  0  0  0
 19 47  1  0  0  0  0
 20 40  1  0  0  0  0
 21 82  1  0  0  0  0
 22 83  1  0  0  0  0
 23 25  2  0  0  0  0
 23 82  1  0  0  0  0
 24 84  1  0  0  0  0
 25 85  1  0  0  0  0
 26 62  2  0  0  0  0
 27 29  2  0  0  0  0
 27 58  1  0  0  0  0
 27 63  1  0  0  0  0
 28 64  1  0  0  0  0
 28 67  1  0  0  0  0
 29 68  1  0  0  0  0
 29 86  1  0  0  0  0
 30 63  2  0  0  0  0
 30 70  1  0  0  0  0
 30 86  1  0  0  0  0
 31 69  1  0  0  0  0
 31 75  2  0  0  0  0
 32 48  1  0  0  0  0
 32 71  1  0  0  0  0
 32 76  2  0  0  0  0
 33 50  1  0  0  0  0
 33 58  1  0  0  0  0
 33 77  2  0  0  0  0
 34 59  1  0  0  0  0
 34 65  1  0  0  0  0
 34 78  2  0  0  0  0
 35 56  1  0  0  0  0
 35 70  1  0  0  0  0
 35 79  2  0  0  0  0
 36 60  1  0  0  0  0
 36 72  1  0  0  0  0
 36 80  2  0  0  0  0
 37 66  1  0  0  0  0
 37 73  1  0  0  0  0
 37 81  2  0  0  0  0
 38 41  1  0  0  0  0
 39 48  1  0  0  0  0
 40 65  1  0  0  0  0
 41 43  1  0  0  0  0
 42 44  1  0  0  0  0
 42 45  1  0  0  0  0
 43 47  1  0  0  0  0
 44 49  1  0  0  0  0
 45 66  1  0  0  0  0
 46 49  1  0  0  0  0
 46 66  1  0  0  0  0
 47 71  1  0  0  0  0
 48 65  1  0  0  0  0
 49 64  1  0  0  0  0
 51 60  1  0  0  0  0
 52 61  1  0  0  0  0
 53 61  1  0  0  0  0
 54 61  1  0  0  0  0
 55 74  1  0  0  0  0
 56 57  1  0  0  0  0
 57 83  1  0  0  0  0
 58 73  1  0  0  0  0
 59 61  1  0  0  0  0
 59 72  1  0  0  0  0
 60 74  1  0  0  0  0
 62 64  1  0  0  0  0
M  CHG  1  74   1
M  ISO  4  37 100  57 101  73 100  83 101
M  END
> <Batch ID>
0181

> <Smiles>
CNC(C)C(=O)NC(C(=O)N1Cc2cc([101O:1][101CH2:1]CC(=O)Nc3nc(C([100NH:0][100C:0](=O)N4CCCC(n5nc(-c6ccc(Oc7ccc(F)cc7F)cc6)c(C(N)=O)c5N)C4)C(C)=O)c(N)s3)ccc2CC1C(=O)NC1CCCc2ccccc21)C(C)(C)C

> <Shape>
0.210

> <Color>
0.062

> <Negative vol penalty>
0.000

$$$$

  -OEChem-04052304533D

 85 93  0     1  0  0  0  0  0999 V2000
  -16.6839  -27.8047   20.8788 C   0  0  0  0  0  0  0  0  0  0  0  0
  -17.7180  -28.2261   20.0490 C   0  0  0  0  0  0  0  0  0  0  0  0
  -24.5152  -14.6107   21.2703 C   0  0  0  0  0  0  0  0  0  0  0  0
  -26.9124  -14.3511   21.4221 C   0  0  0  0  0  0  0  0  0  0  0  0
  -16.7329  -28.0776   22.2452 C   0  0  0  0  0  0  0  0  0  0  0  0
  -18.8012  -28.9217   20.5850 C   0  0  0  0  0  0  0  0  0  0  0  0
  -25.5200  -26.4130   19.9098 C   0  0  0  0  0  0  0  0  0  0  0  0
  -24.4030  -13.3014   20.8025 C   0  0  0  0  0  0  0  0  0  0  0  0
  -26.8002  -13.0418   20.9544 C   0  0  0  0  0  0  0  0  0  0  0  0
  -26.8541  -26.1069   19.6405 C   0  0  0  0  0  0  0  0  0  0  0  0
  -24.4341  -10.1804   22.1028 C   0  0  0  0  0  0  0  0  0  0  0  0
  -23.4338   -9.3789   22.6530 C   0  0  0  0  0  0  0  0  0  0  0  0
  -27.5676  -27.9901   20.9794 C   0  0  0  0  0  0  0  0  0  0  0  0
  -22.4496   -9.1046   20.4636 C   0  0  0  0  0  0  0  0  0  0  0  0
  -25.7699  -15.1355   21.5801 C   0  0  0  0  0  0  0  0  0  0  0  0
  -25.8485  -16.9188   23.4025 C   0  0  0  0  0  0  0  0  0  0  0  0
  -17.8219  -28.7684   22.7998 C   0  0  0  0  0  0  0  0  0  0  0  0
  -25.2046  -27.5009   20.7286 C   0  0  0  0  0  0  0  0  0  0  0  0
  -18.8642  -29.2052   21.9599 C   0  0  0  0  0  0  0  0  0  0  0  0
  -26.2334  -28.2940   21.2629 C   0  0  0  0  0  0  0  0  0  0  0  0
  -25.5455  -12.5170   20.6445 C   0  0  0  0  0  0  0  0  0  0  0  0
  -27.8753  -26.8937   20.1737 C   0  0  0  0  0  0  0  0  0  0  0  0
  -24.4421  -10.4440   20.7331 C   0  0  0  0  0  0  0  0  0  0  0  0
  -22.4416   -8.8410   21.8334 C   0  0  0  0  0  0  0  0  0  0  0  0
  -23.4499   -9.9061   19.9135 C   0  0  0  0  0  0  0  0  0  0  0  0
  -25.8865  -16.4881   22.0628 C   0  0  0  0  0  0  0  0  0  0  0  0
  -32.0806  -20.8308   20.0170 C   0  0  0  0  0  0  0  0  0  0  0  0
  -31.0111  -21.6000   19.6091 C   0  0  0  0  0  0  0  0  0  0  0  0
  -26.0016  -18.2818   23.3295 C   0  0  0  0  0  0  0  0  0  0  0  0
  -32.6275  -23.0035   19.1323 C   0  0  0  0  0  0  0  0  0  0  0  0
  -25.6891  -16.1552   24.6055 C   0  0  0  0  0  0  0  0  0  0  0  0
  -22.5206  -29.5454   22.3693 C   0  0  0  0  0  0  0  0  0  0  0  0
  -32.0216  -26.1078   19.2960 C   0  0  0  0  0  0  0  0  0  0  0  0
  -24.7907  -29.2516   24.4115 C   0  0  0  0  0  0  0  0  0  0  0  0
  -27.3220  -28.3412   26.5094 C   0  0  0  0  0  0  0  0  0  0  0  0
  -28.5288  -21.8955   19.2972 C   0  0  0  0  0  0  0  0  0  0  0  0
  -17.8078  -29.0815   24.2750 C   0  0  0  0  0  0  0  0  0  0  0  0
  -23.7799  -27.9042   20.9954 C   0  0  0  0  0  0  0  0  0  0  0  0
  -25.8460  -29.4752   22.1100 C   0  0  0  0  0  0  0  0  0  0  0  0
  -19.1710  -29.4960   24.8228 C   0  0  0  0  0  0  0  0  0  0  0  0
  -25.1536  -21.9950   20.4265 C   0  0  0  0  0  0  0  0  0  0  0  0
  -19.8250  -30.5240   23.9050 C   0  0  0  0  0  0  0  0  0  0  0  0
  -24.9569  -20.6357   21.1015 C   0  0  0  0  0  0  0  0  0  0  0  0
  -26.0461  -21.8909   19.1910 C   0  0  0  0  0  0  0  0  0  0  0  0
  -27.1450  -19.8774   20.0895 C   0  0  0  0  0  0  0  0  0  0  0  0
  -20.0680  -29.9406   22.5078 C   0  0  1  0  0  0  0  0  0  0  0  0
  -23.5683  -28.4721   22.4103 C   0  0  1  0  0  0  0  0  0  0  0  0
  -26.3058  -19.9424   21.3761 C   0  0  2  0  0  0  0  0  0  0  0  0
  -31.7170  -19.4495   22.0777 C   0  0  0  0  0  0  0  0  0  0  0  0
  -33.5958  -26.1339   17.3484 C   0  0  0  0  0  0  0  0  0  0  0  0
  -28.1326  -28.6425   28.8651 C   0  0  0  0  0  0  0  0  0  0  0  0
  -25.7495  -32.0629   23.7180 C   0  0  0  0  0  0  0  0  0  0  0  0
  -27.3143  -31.9337   25.6681 C   0  0  0  0  0  0  0  0  0  0  0  0
  -24.8504  -31.8096   26.0379 C   0  0  0  0  0  0  0  0  0  0  0  0
  -27.1405  -25.4401   27.0661 C   0  0  0  0  0  0  0  0  0  0  0  0
  -32.1147  -19.4730   20.5986 C   0  0  0  0  0  0  0  0  0  0  0  0
  -31.2245  -27.3456   18.9002 C   0  0  0  0  0  0  0  0  0  0  0  0
  -30.1040  -27.6700   19.8769 C   0  0  0  0  0  0  0  0  0  1  0  0
  -32.6122  -25.2969   18.1495 C   0  0  1  0  0  0  0  0  0  0  0  0
  -26.0485  -29.8409   24.9982 C   0  0  1  0  0  0  0  0  0  0  0  0
  -27.3091  -27.7812   27.9203 C   0  0  2  0  0  0  0  0  0  0  0  0
  -25.9916  -31.3922   25.0849 C   0  0  0  0  0  0  0  0  0  0  0  0
  -26.0507  -17.4958   21.2017 N   0  0  0  0  0  0  0  0  0  0  0  0
  -31.3227  -22.8464   19.1018 N   0  0  0  0  0  0  0  0  0  0  0  0
  -26.1171  -18.5733   22.0021 N   0  0  0  0  0  0  0  0  0  0  0  0
  -24.7511  -29.1035   23.0197 N   0  0  0  0  0  0  0  0  0  0  0  0
  -27.3076  -21.2276   19.5280 N   0  0  0  0  0  0  0  0  0  0  0  0
  -26.0472  -19.2474   24.2718 N   0  0  0  0  0  0  0  0  0  0  0  0
  -25.5445  -14.7651   24.5002 N   0  0  0  0  0  0  0  0  0  0  0  0
  -29.6602  -21.1796   19.6871 N   0  0  0  0  0  0  0  0  0  0  0  0
  -33.2867  -24.1398   18.6962 N   0  0  0  0  0  0  0  0  0  0  0  0
  -21.2290  -29.0766   22.5157 N   0  0  0  0  0  0  0  0  0  0  0  0
  -26.2496  -29.1776   26.2820 N   0  0  0  0  0  0  0  0  0  0  0  0
  -27.8691  -26.4002   27.9347 N   0  3  0  0  0  0  0  0  0  0  0  0
  -25.6589  -16.6914   25.7391 O   0  0  0  0  0  0  0  0  0  0  0  0
  -22.8580  -30.7136   22.2176 O   0  0  0  0  0  0  0  0  0  0  0  0
  -32.1971  -25.7932   20.4733 O   0  0  0  0  0  0  0  0  0  0  0  0
  -23.8647  -28.9356   25.1638 O   0  0  0  0  0  0  0  0  0  0  0  0
  -28.1979  -28.0672   25.6920 O   0  0  0  0  0  0  0  0  0  0  0  0
  -28.5666  -23.0309   18.8161 O   0  0  0  0  0  0  0  0  0  0  0  0
  -25.4363  -11.2393   20.1883 O   0  0  0  0  0  0  0  0  0  0  0  0
  -29.1758  -26.5866   19.9105 O   0  0  0  0  0  0  0  0  0  1  0  0
  -21.4819   -8.0701   22.3616 F   0  0  0  0  0  0  0  0  0  0  0  0
  -23.4530  -10.1549   18.5967 F   0  0  0  0  0  0  0  0  0  0  0  0
  -33.5408  -21.6922   19.7579 S   0  0  0  0  0  0  0  0  0  0  0  0
  1  2  1  0  0  0  0
  1  5  2  0  0  0  0
  2  6  2  0  0  0  0
  3  8  2  0  0  0  0
  3 15  1  0  0  0  0
  4  9  1  0  0  0  0
  4 15  2  0  0  0  0
  5 17  1  0  0  0  0
  6 19  1  0  0  0  0
  7 10  2  0  0  0  0
  7 18  1  0  0  0  0
  8 21  1  0  0  0  0
  9 21  2  0  0  0  0
 10 22  1  0  0  0  0
 11 12  2  0  0  0  0
 11 23  1  0  0  0  0
 12 24  1  0  0  0  0
 13 20  1  0  0  0  0
 13 22  2  0  0  0  0
 14 24  2  0  0  0  0
 14 25  1  0  0  0  0
 15 26  1  0  0  0  0
 16 26  1  0  0  0  0
 16 29  2  0  0  0  0
 16 31  1  0  0  0  0
 17 19  2  0  0  0  0
 17 37  1  0  0  0  0
 18 20  2  0  0  0  0
 18 38  1  0  0  0  0
 19 46  1  0  0  0  0
 20 39  1  0  0  0  0
 21 81  1  0  0  0  0
 22 82  1  0  0  0  0
 23 25  2  0  0  0  0
 23 81  1  0  0  0  0
 24 83  1  0  0  0  0
 25 84  1  0  0  0  0
 26 63  2  0  0  0  0
 27 28  2  0  0  0  0
 27 56  1  0  0  0  0
 27 85  1  0  0  0  0
 28 64  1  0  0  0  0
 28 70  1  0  0  0  0
 29 65  1  0  0  0  0
 29 68  1  0  0  0  0
 30 64  2  0  0  0  0
 30 71  1  0  0  0  0
 30 85  1  0  0  0  0
 31 69  1  0  0  0  0
 31 75  2  0  0  0  0
 32 47  1  0  0  0  0
 32 72  1  0  0  0  0
 32 76  2  0  0  0  0
 33 57  1  0  0  0  0
 33 59  1  0  0  0  0
 33 77  2  0  0  0  0
 34 60  1  0  0  0  0
 34 66  1  0  0  0  0
 34 78  2  0  0  0  0
 35 61  1  0  0  0  0
 35 73  1  0  0  0  0
 35 79  2  0  0  0  0
 36 67  1  0  0  0  0
 36 70  1  0  0  0  0
 36 80  2  0  0  0  0
 37 40  1  0  0  0  0
 38 47  1  0  0  0  0
 39 66  1  0  0  0  0
 40 42  1  0  0  0  0
 41 43  1  0  0  0  0
 41 44  1  0  0  0  0
 42 46  1  0  0  0  0
 43 48  1  0  0  0  0
 44 67  1  0  0  0  0
 45 48  1  0  0  0  0
 45 67  1  0  0  0  0
 46 72  1  0  0  0  0
 47 66  1  0  0  0  0
 48 65  1  0  0  0  0
 49 56  1  0  0  0  0
 50 59  1  0  0  0  0
 51 61  1  0  0  0  0
 52 62  1  0  0  0  0
 53 62  1  0  0  0  0
 54 62  1  0  0  0  0
 55 74  1  0  0  0  0
 57 58  1  0  0  0  0
 58 82  1  0  0  0  0
 59 71  1  0  0  0  0
 60 62  1  0  0  0  0
 60 73  1  0  0  0  0
 61 74  1  0  0  0  0
 63 65  1  0  0  0  0
M  CHG  1  74   1
M  ISO  4  36 100  58 101  70 100  82 101
M  END
> <Batch ID>
0181

> <Smiles>
CCc1sc(NC(C)C(=O)C[101CH2:1][101O:1]c2ccc3c(c2)CN(C(=O)C(NC(=O)C(C)NC)C(C)(C)C)C(C(=O)NC2CCCc4ccccc42)C3)nc1[100NH:0][100C:0](=O)N1CCCC(n2nc(-c3ccc(Oc4ccc(F)cc4F)cc3)c(C(N)=O)c2N)C1

> <Shape>
0.261

> <Color>
0.094

> <Negative vol penalty>
0.000

$$$$

  -OEChem-04052304533D

 85 93  0     1  0  0  0  0  0999 V2000
  -17.1018  -30.6579   23.7329 C   0  0  0  0  0  0  0  0  0  0  0  0
  -18.3040  -30.8159   24.4150 C   0  0  0  0  0  0  0  0  0  0  0  0
  -27.8314  -14.6333   19.7164 C   0  0  0  0  0  0  0  0  0  0  0  0
  -25.7065  -15.3141   20.6428 C   0  0  0  0  0  0  0  0  0  0  0  0
  -16.9320  -29.5825   22.8620 C   0  0  0  0  0  0  0  0  0  0  0  0
  -19.3367  -29.8980   24.2274 C   0  0  0  0  0  0  0  0  0  0  0  0
  -25.3483  -31.0668   24.2375 C   0  0  0  0  0  0  0  0  0  0  0  0
  -27.4881  -13.2956   19.9118 C   0  0  0  0  0  0  0  0  0  0  0  0
  -25.3631  -13.9764   20.8382 C   0  0  0  0  0  0  0  0  0  0  0  0
  -26.3295  -30.9266   25.2180 C   0  0  0  0  0  0  0  0  0  0  0  0
  -24.2294  -11.3990   18.9694 C   0  0  0  0  0  0  0  0  0  0  0  0
  -22.9460  -10.9998   18.5965 C   0  0  0  0  0  0  0  0  0  0  0  0
  -26.9330  -28.7796   24.2985 C   0  0  0  0  0  0  0  0  0  0  0  0
  -22.4921  -10.3315   20.8734 C   0  0  0  0  0  0  0  0  0  0  0  0
  -24.9732  -22.4256   25.0521 C   0  0  0  0  0  0  0  0  0  0  0  0
  -26.9407  -15.6426   20.0820 C   0  0  0  0  0  0  0  0  0  0  0  0
  -27.0475  -17.8081   18.7378 C   0  0  0  0  0  0  0  0  0  0  0  0
  -17.9666  -28.6563   22.6562 C   0  0  0  0  0  0  0  0  0  0  0  0
  -25.1445  -30.0579   23.2851 C   0  0  0  0  0  0  0  0  0  0  0  0
  -19.1801  -28.8084   23.3538 C   0  0  0  0  0  0  0  0  0  0  0  0
  -25.9503  -28.9106   23.3054 C   0  0  0  0  0  0  0  0  0  0  0  0
  -26.2539  -12.9671   20.4727 C   0  0  0  0  0  0  0  0  0  0  0  0
  -27.1201  -29.7816   25.2504 C   0  0  0  0  0  0  0  0  0  0  0  0
  -24.6442  -11.2644   20.2944 C   0  0  0  0  0  0  0  0  0  0  0  0
  -22.0774  -10.4661   19.5484 C   0  0  0  0  0  0  0  0  0  0  0  0
  -23.7756  -10.7307   21.2464 C   0  0  0  0  0  0  0  0  0  0  0  0
  -27.2950  -17.0247   19.8809 C   0  0  0  0  0  0  0  0  0  0  0  0
  -26.3416  -22.5958   25.0255 C   0  0  0  0  0  0  0  0  0  0  0  0
  -27.5745  -19.0389   19.0443 C   0  0  0  0  0  0  0  0  0  0  0  0
  -25.8286  -24.2567   26.3628 C   0  0  0  0  0  0  0  0  0  0  0  0
  -26.3990  -17.4549   17.5088 C   0  0  0  0  0  0  0  0  0  0  0  0
  -22.7197  -28.1488   22.5237 C   0  0  0  0  0  0  0  0  0  0  0  0
  -24.6782  -27.2789   20.0886 C   0  0  0  0  0  0  0  0  0  0  0  0
  -27.8587  -27.0278   18.8770 C   0  0  0  0  0  0  0  0  0  0  0  0
  -27.1203  -27.6517   27.1528 C   0  0  0  0  0  0  0  0  0  0  0  0
  -26.1405  -25.0693   28.7159 C   0  0  0  0  0  0  0  0  0  0  0  0
  -28.6091  -21.8660   24.2058 C   0  0  0  0  0  0  0  0  0  0  0  0
  -17.7195  -27.4834   21.7408 C   0  0  0  0  0  0  0  0  0  0  0  0
  -24.0999  -30.2363   22.2177 C   0  0  0  0  0  0  0  0  0  0  0  0
  -25.7851  -27.8074   22.2933 C   0  0  0  0  0  0  0  0  0  0  0  0
  -18.9967  -26.7652   21.3126 C   0  0  0  0  0  0  0  0  0  0  0  0
  -31.0014  -21.0929   21.6847 C   0  0  0  0  0  0  0  0  0  0  0  0
  -19.9021  -26.5231   22.5161 C   0  0  0  0  0  0  0  0  0  0  0  0
  -30.2976  -20.0376   20.8284 C   0  0  0  0  0  0  0  0  0  0  0  0
  -30.6661  -20.9363   23.1668 C   0  0  0  0  0  0  0  0  0  0  0  0
  -28.5277  -19.8413   22.6217 C   0  0  0  0  0  0  0  0  0  0  0  0
  -20.3327  -27.8475   23.1579 C   0  0  1  0  0  0  0  0  0  0  0  0
  -23.6339  -28.9163   21.6111 C   0  0  1  0  0  0  0  0  0  0  0  0
  -28.7835  -19.9986   21.1139 C   0  0  2  0  0  0  0  0  0  0  0  0
  -29.1465  -26.2418   16.8716 C   0  0  0  0  0  0  0  0  0  0  0  0
  -29.4782  -28.3605   27.6862 C   0  0  0  0  0  0  0  0  0  0  0  0
  -24.2917  -24.3857   20.9773 C   0  0  0  0  0  0  0  0  0  0  0  0
  -26.2867  -23.7682   19.5965 C   0  0  0  0  0  0  0  0  0  0  0  0
  -24.2623  -24.7289   18.5003 C   0  0  0  0  0  0  0  0  0  0  0  0
  -28.9268  -29.7382   18.3559 C   0  0  0  0  0  0  0  0  0  0  0  0
  -25.9689  -25.4549   27.2670 C   0  0  1  0  0  0  0  0  0  0  0  0
  -25.7440  -26.2270   19.8975 C   0  0  1  0  0  0  0  0  0  0  0  0
  -28.4620  -27.4233   17.5413 C   0  0  2  0  0  0  0  0  0  0  0  0
  -28.3867  -28.3138   26.6278 C   0  0  2  0  0  0  0  0  0  1  0  0
  -25.1483  -24.7972   19.7633 C   0  0  0  0  0  0  0  0  0  0  0  0
  -27.9301  -17.7009   20.8418 N   0  0  0  0  0  0  0  0  0  0  0  0
  -26.8339  -23.6455   25.7762 N   0  0  0  0  0  0  0  0  0  0  0  0
  -28.0861  -18.9223   20.3032 N   0  0  0  0  0  0  0  0  0  0  0  0
  -24.7461  -28.0257   21.2733 N   0  0  0  0  0  0  0  0  0  0  0  0
  -29.2148  -20.9117   23.3612 N   0  0  0  0  0  0  0  0  0  0  0  0
  -27.6456  -20.1986   18.3570 N   0  0  0  0  0  0  0  0  0  0  0  0
  -25.9161  -16.1476   17.3598 N   0  0  0  0  0  0  0  0  0  0  0  0
  -27.2207  -21.7649   24.2877 N   0  0  0  0  0  0  0  0  0  0  0  0
  -21.3830  -28.4683   22.3796 N   0  0  0  0  0  0  0  0  0  0  0  0
  -27.0816  -26.2921   26.8844 N   0  0  0  0  0  0  0  0  0  0  0  0
  -26.5376  -26.6538   18.7501 N   0  0  0  0  0  0  0  0  0  0  0  0
  -29.4690  -28.5059   17.7279 N   0  3  0  0  0  0  0  0  0  0  0  0
  -26.2668  -18.2696   16.5641 O   0  0  0  0  0  0  0  0  0  0  0  0
  -23.1918  -27.3266   23.3000 O   0  0  0  0  0  0  0  0  0  0  0  0
  -23.8213  -27.4372   19.2155 O   0  0  0  0  0  0  0  0  0  0  0  0
  -28.4968  -27.0450   19.9273 O   0  0  0  0  0  0  0  0  0  0  0  0
  -26.2371  -28.2817   27.7306 O   0  0  0  0  0  0  0  0  0  0  0  0
  -25.3139  -24.4554   29.3763 O   0  0  0  0  0  0  0  0  0  0  0  0
  -29.2705  -22.7278   24.7905 O   0  0  0  0  0  0  0  0  0  0  0  0
  -25.9184  -11.6619   20.6633 O   0  0  0  0  0  0  0  0  0  0  0  0
  -28.0780  -29.6419   26.2068 O   0  0  0  0  0  0  0  0  0  1  0  0
  -20.8444  -10.0842   19.1904 F   0  0  0  0  0  0  0  0  0  0  0  0
  -24.1680  -10.6000   22.5210 F   0  0  0  0  0  0  0  0  0  0  0  0
  -27.2657  -25.4343   29.3493 F   0  0  0  0  0  0  0  0  0  0  0  0
  -24.2641  -23.6217   26.0561 S   0  0  0  0  0  0  0  0  0  0  0  0
  1  2  1  0  0  0  0
  1  5  2  0  0  0  0
  2  6  2  0  0  0  0
  3  8  2  0  0  0  0
  3 16  1  0  0  0  0
  4  9  1  0  0  0  0
  4 16  2  0  0  0  0
  5 18  1  0  0  0  0
  6 20  1  0  0  0  0
  7 10  2  0  0  0  0
  7 19  1  0  0  0  0
  8 22  1  0  0  0  0
  9 22  2  0  0  0  0
 10 23  1  0  0  0  0
 11 12  2  0  0  0  0
 11 24  1  0  0  0  0
 12 25  1  0  0  0  0
 13 21  1  0  0  0  0
 13 23  2  0  0  0  0
 14 25  2  0  0  0  0
 14 26  1  0  0  0  0
 15 28  2  0  0  0  0
 15 85  1  0  0  0  0
 16 27  1  0  0  0  0
 17 27  1  0  0  0  0
 17 29  2  0  0  0  0
 17 31  1  0  0  0  0
 18 20  2  0  0  0  0
 18 38  1  0  0  0  0
 19 21  2  0  0  0  0
 19 39  1  0  0  0  0
 20 47  1  0  0  0  0
 21 40  1  0  0  0  0
 22 80  1  0  0  0  0
 23 81  1  0  0  0  0
 24 26  2  0  0  0  0
 24 80  1  0  0  0  0
 25 82  1  0  0  0  0
 26 83  1  0  0  0  0
 27 61  2  0  0  0  0
 28 62  1  0  0  0  0
 28 68  1  0  0  0  0
 29 63  1  0  0  0  0
 29 66  1  0  0  0  0
 30 56  1  0  0  0  0
 30 62  2  0  0  0  0
 30 85  1  0  0  0  0
 31 67  1  0  0  0  0
 31 73  2  0  0  0  0
 32 48  1  0  0  0  0
 32 69  1  0  0  0  0
 32 74  2  0  0  0  0
 33 57  1  0  0  0  0
 33 64  1  0  0  0  0
 33 75  2  0  0  0  0
 34 58  1  0  0  0  0
 34 71  1  0  0  0  0
 34 76  2  0  0  0  0
 35 59  1  0  0  0  0
 35 70  1  0  0  0  0
 35 77  2  0  0  0  0
 36 56  1  0  0  0  0
 36 78  2  0  0  0  0
 36 84  1  0  0  0  0
 37 65  1  0  0  0  0
 37 68  1  0  0  0  0
 37 79  2  0  0  0  0
 38 41  1  0  0  0  0
 39 48  1  0  0  0  0
 40 64  1  0  0  0  0
 41 43  1  0  0  0  0
 42 44  1  0  0  0  0
 42 45  1  0  0  0  0
 43 47  1  0  0  0  0
 44 49  1  0  0  0  0
 45 65  1  0  0  0  0
 46 49  1  0  0  0  0
 46 65  1  0  0  0  0
 47 69  1  0  0  0  0
 48 64  1  0  0  0  0
 49 63  1  0  0  0  0
 50 58  1  0  0  0  0
 51 59  1  0  0  0  0
 52 60  1  0  0  0  0
 53 60  1  0  0  0  0
 54 60  1  0  0  0  0
 55 72  1  0  0  0  0
 56 70  1  0  0  0  0
 57 60  1  0  0  0  0
 57 71  1  0  0  0  0
 58 72  1  0  0  0  0
 59 81  1  0  0  0  0
 61 63  1  0  0  0  0
M  CHG  1  72   1
M  ISO  4  37 100  59 101  68 100  81 101
M  END
> <Batch ID>
0181

> <Smiles>
CNC(C)C(=O)NC(C(=O)N1Cc2cc([101O:1][101CH:1](C)C(=O)NC(C(=O)F)c3nc([100NH:0][100C:0](=O)N4CCCC(n5nc(-c6ccc(Oc7ccc(F)cc7F)cc6)c(C(N)=O)c5N)C4)cs3)ccc2CC1C(=O)NC1CCCc2ccccc21)C(C)(C)C

> <Shape>
0.244

> <Color>
0.080

> <Negative vol penalty>
0.000

$$$$

  -OEChem-04052304533D

 86 94  0     1  0  0  0  0  0999 V2000
  -29.6160  -35.8043   20.9134 C   0  0  0  0  0  0  0  0  0  0  0  0
  -29.6541  -34.4148   20.9713 C   0  0  0  0  0  0  0  0  0  0  0  0
  -24.8565   -8.7247   21.0592 C   0  0  0  0  0  0  0  0  0  0  0  0
  -23.1627  -10.0643   19.9758 C   0  0  0  0  0  0  0  0  0  0  0  0
  -28.6135  -36.5017   21.5862 C   0  0  0  0  0  0  0  0  0  0  0  0
  -28.6903  -33.7219   21.7031 C   0  0  0  0  0  0  0  0  0  0  0  0
  -26.8646  -29.7132   19.2047 C   0  0  0  0  0  0  0  0  0  0  0  0
  -23.8785   -7.8171   21.4660 C   0  0  0  0  0  0  0  0  0  0  0  0
  -22.1847   -9.1568   20.3826 C   0  0  0  0  0  0  0  0  0  0  0  0
  -27.6567  -28.5663   19.1756 C   0  0  0  0  0  0  0  0  0  0  0  0
  -21.5278   -7.6074   23.8857 C   0  0  0  0  0  0  0  0  0  0  0  0
  -21.5722   -7.1559   25.2047 C   0  0  0  0  0  0  0  0  0  0  0  0
  -26.3226  -27.6075   20.9420 C   0  0  0  0  0  0  0  0  0  0  0  0
  -27.7292  -19.4594   17.9765 C   0  0  0  0  0  0  0  0  0  0  0  0
  -21.8242   -4.8852   24.4190 C   0  0  0  0  0  0  0  0  0  0  0  0
  -27.6419  -18.8221   15.2620 C   0  0  0  0  0  0  0  0  0  0  0  0
  -24.4986   -9.8483   20.3141 C   0  0  0  0  0  0  0  0  0  0  0  0
  -26.2504  -10.7578   18.6981 C   0  0  0  0  0  0  0  0  0  0  0  0
  -27.6313  -35.8165   22.3186 C   0  0  0  0  0  0  0  0  0  0  0  0
  -25.8005  -29.8206   20.1116 C   0  0  0  0  0  0  0  0  0  0  0  0
  -27.6745  -34.4109   22.3874 C   0  0  0  0  0  0  0  0  0  0  0  0
  -25.5170  -28.7558   20.9788 C   0  0  0  0  0  0  0  0  0  0  0  0
  -27.6490  -20.4752   17.0239 C   0  0  0  0  0  0  0  0  0  0  0  0
  -27.7659  -18.1250   17.5719 C   0  0  0  0  0  0  0  0  0  0  0  0
  -22.5426   -8.0332   21.1277 C   0  0  0  0  0  0  0  0  0  0  0  0
  -27.3876  -27.5144   20.0463 C   0  0  0  0  0  0  0  0  0  0  0  0
  -21.6315   -6.6978   22.8333 C   0  0  0  0  0  0  0  0  0  0  0  0
  -21.7204   -5.7948   25.4714 C   0  0  0  0  0  0  0  0  0  0  0  0
  -27.6053  -20.1565   15.6666 C   0  0  0  0  0  0  0  0  0  0  0  0
  -27.7222  -17.8064   16.2146 C   0  0  0  0  0  0  0  0  0  0  0  0
  -21.7797   -5.3367   23.0999 C   0  0  0  0  0  0  0  0  0  0  0  0
  -25.5083  -10.7864   19.8940 C   0  0  0  0  0  0  0  0  0  0  0  0
  -27.0694  -11.8577   18.7758 C   0  0  0  0  0  0  0  0  0  0  0  0
  -26.2036   -9.8209   17.6138 C   0  0  0  0  0  0  0  0  0  0  0  0
  -27.5929  -23.7986   18.7872 C   0  0  0  0  0  0  0  0  0  0  0  0
  -27.6536  -22.2994   18.7311 C   0  0  0  0  0  0  0  0  0  0  0  0
  -25.0980  -31.7660   22.5252 C   0  0  0  0  0  0  0  0  0  0  0  0
  -22.2962  -30.1314   22.5159 C   0  0  0  0  0  0  0  0  0  0  0  0
  -20.6122  -27.2730   21.7153 C   0  0  0  0  0  0  0  0  0  0  0  0
  -27.8982  -17.2419   19.9275 C   0  0  0  0  0  0  0  0  0  0  0  0
  -26.5951  -36.6159   23.0682 C   0  0  0  0  0  0  0  0  0  0  0  0
  -24.9390  -31.0535   20.1121 C   0  0  0  0  0  0  0  0  0  0  0  0
  -24.3737  -28.8131   21.9576 C   0  0  0  0  0  0  0  0  0  0  0  0
  -25.3921  -35.7883   23.5133 C   0  0  0  0  0  0  0  0  0  0  0  0
  -28.0641  -14.9565   22.6527 C   0  0  0  0  0  0  0  0  0  0  0  0
  -25.8502  -34.4809   24.1517 C   0  0  0  0  0  0  0  0  0  0  0  0
  -27.4750  -13.6655   22.0795 C   0  0  0  0  0  0  0  0  0  0  0  0
  -27.3497  -16.1943   22.1131 C   0  0  0  0  0  0  0  0  0  0  0  0
  -26.6769  -14.9831   20.0760 C   0  0  0  0  0  0  0  0  0  0  0  0
  -26.6323  -33.6224   23.1503 C   0  0  1  0  0  0  0  0  0  0  0  0
  -24.1997  -31.2654   21.4297 C   0  0  1  0  0  0  0  0  0  0  0  0
  -27.4065  -13.7120   20.5405 C   0  0  2  0  0  0  0  0  0  0  0  0
  -18.3407  -26.2172   21.8657 C   0  0  0  0  0  0  0  0  0  0  0  0
  -22.7488  -29.5860   25.4837 C   0  0  0  0  0  0  0  0  0  0  0  0
  -21.0118  -27.7881   25.3469 C   0  0  0  0  0  0  0  0  0  0  0  0
  -20.3913  -30.1579   24.8758 C   0  0  0  0  0  0  0  0  0  0  0  0
  -20.3899  -27.0572   18.7720 C   0  0  0  0  0  0  0  0  0  0  0  0
  -28.9156  -24.5280   18.7013 C   0  0  0  0  0  0  0  0  0  0  0  0
  -28.7463  -26.0382   18.7692 C   0  0  0  0  0  0  0  0  0  1  0  0
  -21.7842  -28.8836   23.1941 C   0  0  1  0  0  0  0  0  0  0  0  0
  -19.2855  -27.0489   21.0123 C   0  0  2  0  0  0  0  0  0  0  0  0
  -21.5068  -29.1033   24.7081 C   0  0  0  0  0  0  0  0  0  0  0  0
  -25.8278  -11.8223   20.6744 N   0  0  0  0  0  0  0  0  0  0  0  0
  -26.7797  -12.4547   19.9674 N   0  0  0  0  0  0  0  0  0  0  0  0
  -23.5641  -30.0424   21.9241 N   0  0  0  0  0  0  0  0  0  0  0  0
  -27.3272  -16.1721   20.6489 N   0  0  0  0  0  0  0  0  0  0  0  0
  -28.0021  -12.3626   17.9406 N   0  0  0  0  0  0  0  0  0  0  0  0
  -25.3044   -8.7489   17.6955 N   0  0  0  0  0  0  0  0  0  0  0  0
  -27.6116  -21.8273   17.4370 N   0  0  0  0  0  0  0  0  0  0  0  0
  -27.8470  -17.0952   18.5417 N   0  0  0  0  0  0  0  0  0  0  0  0
  -25.7264  -32.9620   22.2351 N   0  0  0  0  0  0  0  0  0  0  0  0
  -20.6188  -28.4524   22.4296 N   0  0  0  0  0  0  0  0  0  0  0  0
  -19.4980  -26.3397   19.7189 N   0  3  0  0  0  0  0  0  0  0  0  0
  -26.9489   -9.9219   16.6099 O   0  0  0  0  0  0  0  0  0  0  0  0
  -26.4880  -24.3105   18.8856 O   0  0  0  0  0  0  0  0  0  0  0  0
  -27.7552  -21.7166   19.7978 O   0  0  0  0  0  0  0  0  0  0  0  0
  -25.2113  -31.1162   23.5579 O   0  0  0  0  0  0  0  0  0  0  0  0
  -21.5939  -31.1454   22.5052 O   0  0  0  0  0  0  0  0  0  0  0  0
  -21.5477  -26.4793   21.6413 O   0  0  0  0  0  0  0  0  0  0  0  0
  -28.4202  -18.2035   20.4974 O   0  0  0  0  0  0  0  0  0  0  0  0
  -21.5880   -7.1477   21.5243 O   0  0  0  0  0  0  0  0  0  0  0  0
  -28.1596  -26.3940   20.0205 O   0  0  0  0  0  0  0  0  0  1  0  0
  -21.7646   -5.3616   26.7380 F   0  0  0  0  0  0  0  0  0  0  0  0
  -27.5281  -21.1242   14.7420 F   0  0  0  0  0  0  0  0  0  0  0  0
  -27.7568  -16.5275   15.8138 F   0  0  0  0  0  0  0  0  0  0  0  0
  -21.8810   -4.4582   22.0931 F   0  0  0  0  0  0  0  0  0  0  0  0
  1  2  1  0  0  0  0
  1  5  2  0  0  0  0
  2  6  2  0  0  0  0
  3  8  2  0  0  0  0
  3 17  1  0  0  0  0
  4  9  1  0  0  0  0
  4 17  2  0  0  0  0
  5 19  1  0  0  0  0
  6 21  1  0  0  0  0
  7 10  2  0  0  0  0
  7 20  1  0  0  0  0
  8 25  1  0  0  0  0
  9 25  2  0  0  0  0
 10 26  1  0  0  0  0
 11 12  2  0  0  0  0
 11 27  1  0  0  0  0
 12 28  1  0  0  0  0
 13 22  1  0  0  0  0
 13 26  2  0  0  0  0
 14 23  1  0  0  0  0
 14 24  2  0  0  0  0
 15 28  2  0  0  0  0
 15 31  1  0  0  0  0
 16 29  1  0  0  0  0
 16 30  2  0  0  0  0
 17 32  1  0  0  0  0
 18 32  1  0  0  0  0
 18 33  2  0  0  0  0
 18 34  1  0  0  0  0
 19 21  2  0  0  0  0
 19 41  1  0  0  0  0
 20 22  2  0  0  0  0
 20 42  1  0  0  0  0
 21 50  1  0  0  0  0
 22 43  1  0  0  0  0
 23 29  2  0  0  0  0
 23 69  1  0  0  0  0
 24 30  1  0  0  0  0
 24 70  1  0  0  0  0
 25 81  1  0  0  0  0
 26 82  1  0  0  0  0
 27 31  2  0  0  0  0
 27 81  1  0  0  0  0
 28 83  1  0  0  0  0
 29 84  1  0  0  0  0
 30 85  1  0  0  0  0
 31 86  1  0  0  0  0
 32 63  2  0  0  0  0
 33 64  1  0  0  0  0
 33 67  1  0  0  0  0
 34 68  1  0  0  0  0
 34 74  2  0  0  0  0
 35 36  1  0  0  0  0
 35 58  1  0  0  0  0
 35 75  2  0  0  0  0
 36 69  1  0  0  0  0
 36 76  2  0  0  0  0
 37 51  1  0  0  0  0
 37 71  1  0  0  0  0
 37 77  2  0  0  0  0
 38 60  1  0  0  0  0
 38 65  1  0  0  0  0
 38 78  2  0  0  0  0
 39 61  1  0  0  0  0
 39 72  1  0  0  0  0
 39 79  2  0  0  0  0
 40 66  1  0  0  0  0
 40 70  1  0  0  0  0
 40 80  2  0  0  0  0
 41 44  1  0  0  0  0
 42 51  1  0  0  0  0
 43 65  1  0  0  0  0
 44 46  1  0  0  0  0
 45 47  1  0  0  0  0
 45 48  1  0  0  0  0
 46 50  1  0  0  0  0
 47 52  1  0  0  0  0
 48 66  1  0  0  0  0
 49 52  1  0  0  0  0
 49 66  1  0  0  0  0
 50 71  1  0  0  0  0
 51 65  1  0  0  0  0
 52 64  1  0  0  0  0
 53 61  1  0  0  0  0
 54 62  1  0  0  0  0
 55 62  1  0  0  0  0
 56 62  1  0  0  0  0
 57 73  1  0  0  0  0
 58 59  1  0  0  0  0
 59 82  1  0  0  0  0
 60 62  1  0  0  0  0
 60 72  1  0  0  0  0
 61 73  1  0  0  0  0
 63 64  1  0  0  0  0
M  CHG  1  73   1
M  ISO  4  40 100  59 101  70 100  82 101
M  END
> <Batch ID>
0181

> <Smiles>
CNC(C)C(=O)NC(C(=O)N1Cc2cc([101O:1][101CH2:1]CC(=O)C(=O)Nc3cc([100NH:0][100C:0](=O)N4CCCC(n5nc(-c6ccc(Oc7ccc(F)cc7F)cc6)c(C(N)=O)c5N)C4)c(F)cc3F)ccc2CC1C(=O)NC1CCCc2ccccc21)C(C)(C)C

> <Shape>
0.309

> <Color>
0.109

> <Negative vol penalty>
0.000

$$$$

  -OEChem-04052304533D

 86 94  0     1  0  0  0  0  0999 V2000
  -22.6256  -28.6805   16.3948 C   0  0  0  0  0  0  0  0  0  0  0  0
  -23.2461  -28.0128   17.4458 C   0  0  0  0  0  0  0  0  0  0  0  0
  -23.0731   -9.8697   19.9402 C   0  0  0  0  0  0  0  0  0  0  0  0
  -23.8341   -9.8739   22.2332 C   0  0  0  0  0  0  0  0  0  0  0  0
  -22.1980  -27.9695   15.2743 C   0  0  0  0  0  0  0  0  0  0  0  0
  -23.4384  -26.6334   17.3773 C   0  0  0  0  0  0  0  0  0  0  0  0
  -28.0800  -25.2435   18.8498 C   0  0  0  0  0  0  0  0  0  0  0  0
  -22.3284   -8.7169   20.1894 C   0  0  0  0  0  0  0  0  0  0  0  0
  -23.0894   -8.7211   22.4824 C   0  0  0  0  0  0  0  0  0  0  0  0
  -28.3274  -25.2027   20.2213 C   0  0  0  0  0  0  0  0  0  0  0  0
  -19.8609   -7.9254   23.0858 C   0  0  0  0  0  0  0  0  0  0  0  0
  -19.1045   -7.8850   24.2570 C   0  0  0  0  0  0  0  0  0  0  0  0
  -28.0199  -22.8101   20.1993 C   0  0  0  0  0  0  0  0  0  0  0  0
  -20.3446   -5.9458   24.9910 C   0  0  0  0  0  0  0  0  0  0  0  0
  -23.8260  -10.4482   20.9620 C   0  0  0  0  0  0  0  0  0  0  0  0
  -24.1699  -12.9731   20.8442 C   0  0  0  0  0  0  0  0  0  0  0  0
  -22.3939  -26.5821   15.1878 C   0  0  0  0  0  0  0  0  0  0  0  0
  -27.7895  -24.0674   18.1436 C   0  0  0  0  0  0  0  0  0  0  0  0
  -23.0118  -25.9029   16.2552 C   0  0  0  0  0  0  0  0  0  0  0  0
  -27.7718  -22.8384   18.8185 C   0  0  0  0  0  0  0  0  0  0  0  0
  -22.3365   -8.1426   21.4605 C   0  0  0  0  0  0  0  0  0  0  0  0
  -28.2945  -23.9862   20.8968 C   0  0  0  0  0  0  0  0  0  0  0  0
  -20.8591   -6.9760   22.8671 C   0  0  0  0  0  0  0  0  0  0  0  0
  -19.3464   -6.8952   25.2097 C   0  0  0  0  0  0  0  0  0  0  0  0
  -21.1010   -5.9862   23.8197 C   0  0  0  0  0  0  0  0  0  0  0  0
  -24.5960  -11.6386   20.7050 C   0  0  0  0  0  0  0  0  0  0  0  0
  -30.7158  -19.0880   22.9945 C   0  0  0  0  0  0  0  0  0  0  0  0
  -31.8173  -18.7191   22.2510 C   0  0  0  0  0  0  0  0  0  0  0  0
  -25.2625  -13.7220   20.4811 C   0  0  0  0  0  0  0  0  0  0  0  0
  -30.5776  -16.9428   21.9075 C   0  0  0  0  0  0  0  0  0  0  0  0
  -22.9001  -13.4896   21.2643 C   0  0  0  0  0  0  0  0  0  0  0  0
  -30.4550  -20.3173   23.7869 C   0  0  0  0  0  0  0  0  0  0  0  0
  -25.2981  -23.0087   16.4775 C   0  0  0  0  0  0  0  0  0  0  0  0
  -28.7852  -22.7878   24.3479 C   0  0  0  0  0  0  0  0  0  0  0  0
  -27.2972  -20.5476   15.7927 C   0  0  0  0  0  0  0  0  0  0  0  0
  -30.0229  -18.6959   16.6808 C   0  0  0  0  0  0  0  0  0  0  0  0
  -30.7297  -14.7628   20.6542 C   0  0  0  0  0  0  0  0  0  0  0  0
  -21.8722  -25.8494   13.9772 C   0  0  0  0  0  0  0  0  0  0  0  0
  -27.5513  -24.1250   16.6596 C   0  0  0  0  0  0  0  0  0  0  0  0
  -27.4848  -21.5447   18.1027 C   0  0  0  0  0  0  0  0  0  0  0  0
  -22.4504  -24.4455   13.8189 C   0  0  0  0  0  0  0  0  0  0  0  0
  -29.6120  -12.3523   18.2840 C   0  0  0  0  0  0  0  0  0  0  0  0
  -22.4103  -23.6986   15.1484 C   0  0  0  0  0  0  0  0  0  0  0  0
  -28.1723  -12.0615   18.7140 C   0  0  0  0  0  0  0  0  0  0  0  0
  -30.5279  -12.5791   19.4854 C   0  0  0  0  0  0  0  0  0  0  0  0
  -28.6223  -13.3038   20.8684 C   0  0  0  0  0  0  0  0  0  0  0  0
  -23.2606  -24.4110   16.2072 C   0  0  1  0  0  0  0  0  0  0  0  0
  -26.7591  -22.9315   16.1348 C   0  0  1  0  0  0  0  0  0  0  0  0
  -27.6487  -13.1326   19.6909 C   0  0  2  0  0  0  0  0  0  0  0  0
  -33.0495  -19.5134   22.0683 C   0  0  0  0  0  0  0  0  0  0  0  0
  -31.3914  -16.7260   15.9431 C   0  0  0  0  0  0  0  0  0  0  0  0
  -27.4024  -21.2775   25.7534 C   0  0  0  0  0  0  0  0  0  0  0  0
  -29.8039  -21.7108   26.3649 C   0  0  0  0  0  0  0  0  0  0  0  0
  -25.1133  -18.6619   16.7851 C   0  0  0  0  0  0  0  0  0  0  0  0
  -26.8368  -16.8511   16.9234 C   0  0  0  0  0  0  0  0  0  0  0  0
  -26.2979  -17.8921   14.7214 C   0  0  0  0  0  0  0  0  0  0  0  0
  -32.4632  -20.3475   16.4043 C   0  0  0  0  0  0  0  0  0  0  0  0
  -28.4852  -22.6634   22.8639 C   0  0  0  0  0  0  0  0  0  1  0  0
  -27.6101  -19.2154   16.4300 C   0  0  1  0  0  0  0  0  0  0  0  0
  -31.2317  -18.2373   15.8852 C   0  0  2  0  0  0  0  0  0  0  0  0
  -28.8158  -21.5152   25.2131 C   0  0  0  0  0  0  0  0  0  0  0  0
  -26.4681  -18.1796   16.2291 C   0  0  0  0  0  0  0  0  0  0  0  0
  -25.8606  -11.5421   20.2860 N   0  0  0  0  0  0  0  0  0  0  0  0
  -31.7400  -17.4891   21.6273 N   0  0  0  0  0  0  0  0  0  0  0  0
  -26.2385  -12.8255   20.1587 N   0  0  0  0  0  0  0  0  0  0  0  0
  -27.2522  -21.6538   16.6530 N   0  0  0  0  0  0  0  0  0  0  0  0
  -29.9703  -13.6095   20.3641 N   0  0  0  0  0  0  0  0  0  0  0  0
  -25.4740  -15.0534   20.4093 N   0  0  0  0  0  0  0  0  0  0  0  0
  -21.8876  -12.5810   21.6012 N   0  0  0  0  0  0  0  0  0  0  0  0
  -30.0835  -15.6876   21.4738 N   0  0  0  0  0  0  0  0  0  0  0  0
  -29.2269  -20.3738   24.4245 N   0  0  0  0  0  0  0  0  0  0  0  0
  -24.6658  -24.1383   15.9940 N   0  0  0  0  0  0  0  0  0  0  0  0
  -28.8986  -18.7966   15.8889 N   0  0  0  0  0  0  0  0  0  0  0  0
  -32.4732  -18.8620   16.4231 N   0  3  0  0  0  0  0  0  0  0  0  0
  -22.6649  -14.7204   21.3229 O   0  0  0  0  0  0  0  0  0  0  0  0
  -31.3060  -21.2023   23.8189 O   0  0  0  0  0  0  0  0  0  0  0  0
  -24.7824  -22.1093   17.1307 O   0  0  0  0  0  0  0  0  0  0  0  0
  -28.9524  -23.8977   24.8624 O   0  0  0  0  0  0  0  0  0  0  0  0
  -27.1071  -20.6059   14.5753 O   0  0  0  0  0  0  0  0  0  0  0  0
  -30.0704  -18.9369   17.8850 O   0  0  0  0  0  0  0  0  0  0  0  0
  -31.8587  -14.9310   20.1861 O   0  0  0  0  0  0  0  0  0  0  0  0
  -21.6097   -7.0179   21.7042 O   0  0  0  0  0  0  0  0  0  0  0  0
  -28.5350  -23.9436   22.2355 O   0  0  0  0  0  0  0  0  0  1  0  0
  -18.6209   -6.8575   26.3351 F   0  0  0  0  0  0  0  0  0  0  0  0
  -22.0595   -5.0721   23.6158 F   0  0  0  0  0  0  0  0  0  0  0  0
  -29.5283  -17.8531   22.9151 S   0  0  0  0  0  0  0  0  0  0  0  0
  1  2  1  0  0  0  0
  1  5  2  0  0  0  0
  2  6  2  0  0  0  0
  3  8  2  0  0  0  0
  3 15  1  0  0  0  0
  4  9  1  0  0  0  0
  4 15  2  0  0  0  0
  5 17  1  0  0  0  0
  6 19  1  0  0  0  0
  7 10  2  0  0  0  0
  7 18  1  0  0  0  0
  8 21  1  0  0  0  0
  9 21  2  0  0  0  0
 10 22  1  0  0  0  0
 11 12  2  0  0  0  0
 11 23  1  0  0  0  0
 12 24  1  0  0  0  0
 13 20  1  0  0  0  0
 13 22  2  0  0  0  0
 14 24  2  0  0  0  0
 14 25  1  0  0  0  0
 15 26  1  0  0  0  0
 16 26  1  0  0  0  0
 16 29  2  0  0  0  0
 16 31  1  0  0  0  0
 17 19  2  0  0  0  0
 17 38  1  0  0  0  0
 18 20  2  0  0  0  0
 18 39  1  0  0  0  0
 19 47  1  0  0  0  0
 20 40  1  0  0  0  0
 21 82  1  0  0  0  0
 22 83  1  0  0  0  0
 23 25  2  0  0  0  0
 23 82  1  0  0  0  0
 24 84  1  0  0  0  0
 25 85  1  0  0  0  0
 26 63  2  0  0  0  0
 27 28  2  0  0  0  0
 27 32  1  0  0  0  0
 27 86  1  0  0  0  0
 28 50  1  0  0  0  0
 28 64  1  0  0  0  0
 29 65  1  0  0  0  0
 29 68  1  0  0  0  0
 30 64  2  0  0  0  0
 30 70  1  0  0  0  0
 30 86  1  0  0  0  0
 31 69  1  0  0  0  0
 31 75  2  0  0  0  0
 32 71  1  0  0  0  0
 32 76  2  0  0  0  0
 33 48  1  0  0  0  0
 33 72  1  0  0  0  0
 33 77  2  0  0  0  0
 34 58  1  0  0  0  0
 34 61  1  0  0  0  0
 34 78  2  0  0  0  0
 35 59  1  0  0  0  0
 35 66  1  0  0  0  0
 35 79  2  0  0  0  0
 36 60  1  0  0  0  0
 36 73  1  0  0  0  0
 36 80  2  0  0  0  0
 37 67  1  0  0  0  0
 37 70  1  0  0  0  0
 37 81  2  0  0  0  0
 38 41  1  0  0  0  0
 39 48  1  0  0  0  0
 40 66  1  0  0  0  0
 41 43  1  0  0  0  0
 42 44  1  0  0  0  0
 42 45  1  0  0  0  0
 43 47  1  0  0  0  0
 44 49  1  0  0  0  0
 45 67  1  0  0  0  0
 46 49  1  0  0  0  0
 46 67  1  0  0  0  0
 47 72  1  0  0  0  0
 48 66  1  0  0  0  0
 49 65  1  0  0  0  0
 51 60  1  0  0  0  0
 52 61  1  0  0  0  0
 53 61  1  0  0  0  0
 54 62  1  0  0  0  0
 55 62  1  0  0  0  0
 56 62  1  0  0  0  0
 57 74  1  0  0  0  0
 58 83  1  0  0  0  0
 59 62  1  0  0  0  0
 59 73  1  0  0  0  0
 60 74  1  0  0  0  0
 61 71  1  0  0  0  0
 63 65  1  0  0  0  0
M  CHG  1  74   1
M  ISO  4  37 100  58 101  70 100  83 101
M  END
> <Batch ID>
0181

> <Smiles>
CNC(C)C(=O)NC(C(=O)N1Cc2cc([101O:1][101CH2:1]C(=O)C(C)(C)NC(=O)c3sc([100NH:0][100C:0](=O)N4CCCC(n5nc(-c6ccc(Oc7ccc(F)cc7F)cc6)c(C(N)=O)c5N)C4)nc3C)ccc2CC1C(=O)NC1CCCc2ccccc21)C(C)(C)C

> <Shape>
0.197

> <Color>
0.180

> <Negative vol penalty>
0.000

$$$$

  -OEChem-04052304533D

 88 96  0     1  0  0  0  0  0999 V2000
  -26.7196  -34.8117   16.0426 C   0  0  0  0  0  0  0  0  0  0  0  0
  -26.6996  -33.4450   15.7836 C   0  0  0  0  0  0  0  0  0  0  0  0
  -23.0971   -9.7046   20.5010 C   0  0  0  0  0  0  0  0  0  0  0  0
  -23.7594  -10.2250   22.7654 C   0  0  0  0  0  0  0  0  0  0  0  0
  -27.2375  -35.2842   17.2478 C   0  0  0  0  0  0  0  0  0  0  0  0
  -27.1986  -32.5499   16.7293 C   0  0  0  0  0  0  0  0  0  0  0  0
  -25.1035  -26.9236   17.9378 C   0  0  0  0  0  0  0  0  0  0  0  0
  -22.3646   -8.6125   20.9662 C   0  0  0  0  0  0  0  0  0  0  0  0
  -23.0268   -9.1330   23.2307 C   0  0  0  0  0  0  0  0  0  0  0  0
  -25.5248  -25.6583   17.5311 C   0  0  0  0  0  0  0  0  0  0  0  0
  -23.4017   -5.7779   23.4150 C   0  0  0  0  0  0  0  0  0  0  0  0
  -24.0050   -4.9480   24.3599 C   0  0  0  0  0  0  0  0  0  0  0  0
  -26.7885  -25.4292   19.5731 C   0  0  0  0  0  0  0  0  0  0  0  0
  -22.2303   -5.4385   25.9241 C   0  0  0  0  0  0  0  0  0  0  0  0
  -31.5643  -19.0843   21.1675 C   0  0  0  0  0  0  0  0  0  0  0  0
  -23.7945  -10.5108   21.4006 C   0  0  0  0  0  0  0  0  0  0  0  0
  -24.0949  -12.9594   20.7510 C   0  0  0  0  0  0  0  0  0  0  0  0
  -27.7341  -34.3938   18.2128 C   0  0  0  0  0  0  0  0  0  0  0  0
  -25.5310  -27.4565   19.1624 C   0  0  0  0  0  0  0  0  0  0  0  0
  -27.7248  -33.0110   17.9480 C   0  0  0  0  0  0  0  0  0  0  0  0
  -26.3691  -26.7004   19.9943 C   0  0  0  0  0  0  0  0  0  0  0  0
  -22.3294   -8.3267   22.3310 C   0  0  0  0  0  0  0  0  0  0  0  0
  -26.3697  -24.9122   18.3474 C   0  0  0  0  0  0  0  0  0  0  0  0
  -22.2127   -6.4383   23.7247 C   0  0  0  0  0  0  0  0  0  0  0  0
  -23.4193   -4.7782   25.6144 C   0  0  0  0  0  0  0  0  0  0  0  0
  -21.6270   -6.2685   24.9792 C   0  0  0  0  0  0  0  0  0  0  0  0
  -24.5519  -11.6387   20.9206 C   0  0  0  0  0  0  0  0  0  0  0  0
  -30.4258  -19.5729   21.7735 C   0  0  0  0  0  0  0  0  0  0  0  0
  -25.1875  -13.6424   20.2753 C   0  0  0  0  0  0  0  0  0  0  0  0
  -30.3744  -17.2420   21.1677 C   0  0  0  0  0  0  0  0  0  0  0  0
  -22.7986  -13.5187   21.0010 C   0  0  0  0  0  0  0  0  0  0  0  0
  -27.2268  -30.0006   20.0318 C   0  0  0  0  0  0  0  0  0  0  0  0
  -26.4089  -29.0395   23.0201 C   0  0  0  0  0  0  0  0  0  0  0  0
  -30.0555  -21.9608   21.1136 C   0  0  0  0  0  0  0  0  0  0  0  0
  -25.4417  -26.4988   25.0832 C   0  0  0  0  0  0  0  0  0  0  0  0
  -28.5039  -22.8682   19.4170 C   0  0  0  0  0  0  0  0  0  0  0  0
  -30.6214  -14.8479   20.4236 C   0  0  0  0  0  0  0  0  0  0  0  0
  -28.3273  -34.9547   19.4809 C   0  0  0  0  0  0  0  0  0  0  0  0
  -25.0461  -28.8118   19.5989 C   0  0  0  0  0  0  0  0  0  0  0  0
  -26.8403  -27.2189   21.3276 C   0  0  0  0  0  0  0  0  0  0  0  0
  -28.4929  -33.9160   20.5873 C   0  0  0  0  0  0  0  0  0  0  0  0
  -29.6521  -11.9523   18.5924 C   0  0  0  0  0  0  0  0  0  0  0  0
  -29.1246  -32.6426   20.0338 C   0  0  0  0  0  0  0  0  0  0  0  0
  -28.2012  -11.7212   19.0209 C   0  0  0  0  0  0  0  0  0  0  0  0
  -30.5114  -12.4587   19.7495 C   0  0  0  0  0  0  0  0  0  0  0  0
  -28.5350  -13.4115   20.8699 C   0  0  0  0  0  0  0  0  0  0  0  0
  -28.2341  -32.0070   18.9593 C   0  0  1  0  0  0  0  0  0  0  0  0
  -25.9566  -29.4679   20.6323 C   0  0  1  0  0  0  0  0  0  0  0  0
  -27.6161  -12.9629   19.7219 C   0  0  2  0  0  0  0  0  0  0  0  0
  -24.8871  -26.0115   27.4816 C   0  0  0  0  0  0  0  0  0  0  0  0
  -26.7643  -21.3210   18.4553 C   0  0  0  0  0  0  0  0  0  0  0  0
  -31.6509  -23.2082   25.1285 C   0  0  0  0  0  0  0  0  0  0  0  0
  -29.2432  -22.9555   24.4999 C   0  0  0  0  0  0  0  0  0  0  0  0
  -29.3792  -29.0953   23.7157 C   0  0  0  0  0  0  0  0  0  0  0  0
  -28.8585  -27.7241   25.7448 C   0  0  0  0  0  0  0  0  0  0  0  0
  -27.8739  -30.0025   25.4949 C   0  0  0  0  0  0  0  0  0  0  0  0
  -22.6824  -25.6760   24.3989 C   0  0  0  0  0  0  0  0  0  0  0  0
  -31.0246  -21.4546   23.4391 C   0  0  0  0  0  0  0  0  0  0  0  0
  -30.1170  -20.9747   22.2824 C   0  0  2  0  0  0  0  0  0  0  0  0
  -27.0140  -28.1152   24.0489 C   0  0  1  0  0  0  0  0  0  0  0  0
  -24.3371  -26.4087   26.1205 C   0  0  2  0  0  0  0  0  0  0  0  0
  -27.0546  -22.7221   18.9725 C   0  0  2  0  0  0  0  0  0  1  0  0
  -30.6831  -22.8555   23.9947 C   0  0  0  0  0  0  0  0  0  0  0  0
  -28.2743  -28.7250   24.7251 C   0  0  0  0  0  0  0  0  0  0  0  0
  -31.5368  -17.7479   20.8198 N   0  0  0  0  0  0  0  0  0  0  0  0
  -25.8348  -11.4893   20.5803 N   0  0  0  0  0  0  0  0  0  0  0  0
  -26.1932  -12.7249   20.1919 N   0  0  0  0  0  0  0  0  0  0  0  0
  -26.3438  -28.5519   21.7071 N   0  0  0  0  0  0  0  0  0  0  0  0
  -29.8972  -13.6386   20.3623 N   0  0  0  0  0  0  0  0  0  0  0  0
  -25.3763  -14.9322   19.9244 N   0  0  0  0  0  0  0  0  0  0  0  0
  -21.7902  -12.6764   21.4888 N   0  0  0  0  0  0  0  0  0  0  0  0
  -29.9233  -15.9095   20.9983 N   0  0  0  0  0  0  0  0  0  0  0  0
  -27.1298  -31.2999   19.5715 N   0  0  0  0  0  0  0  0  0  0  0  0
  -28.8139  -22.0269   20.4861 N   0  0  0  0  0  0  0  0  0  0  0  0
  -25.9404  -27.7801   24.9782 N   0  0  0  0  0  0  0  0  0  0  0  0
  -23.3225  -25.3972   25.7103 N   0  3  0  0  0  0  0  0  0  0  0  0
  -22.5377  -14.7261   20.7824 O   0  0  0  0  0  0  0  0  0  0  0  0
  -28.2216  -29.2862   19.9906 O   0  0  0  0  0  0  0  0  0  0  0  0
  -26.0022  -30.1503   23.3698 O   0  0  0  0  0  0  0  0  0  0  0  0
  -31.0372  -22.6363   20.8047 O   0  0  0  0  0  0  0  0  0  0  0  0
  -25.8264  -25.5289   24.4338 O   0  0  0  0  0  0  0  0  0  0  0  0
  -29.2801  -23.6601   18.8875 O   0  0  0  0  0  0  0  0  0  0  0  0
  -31.7659  -14.9425   19.9729 O   0  0  0  0  0  0  0  0  0  0  0  0
  -21.6145   -7.2613   22.7854 O   0  0  0  0  0  0  0  0  0  0  0  0
  -26.7863  -23.6671   17.9492 O   0  0  0  0  0  0  0  0  0  1  0  0
  -23.9980   -3.9799   26.5210 F   0  0  0  0  0  0  0  0  0  0  0  0
  -20.4841   -6.8994   25.2821 F   0  0  0  0  0  0  0  0  0  0  0  0
  -29.2666  -18.3172   21.9172 S   0  0  0  0  0  0  0  0  0  0  0  0
  1  2  1  0  0  0  0
  1  5  2  0  0  0  0
  2  6  2  0  0  0  0
  3  8  2  0  0  0  0
  3 16  1  0  0  0  0
  4  9  1  0  0  0  0
  4 16  2  0  0  0  0
  5 18  1  0  0  0  0
  6 20  1  0  0  0  0
  7 10  2  0  0  0  0
  7 19  1  0  0  0  0
  8 22  1  0  0  0  0
  9 22  2  0  0  0  0
 10 23  1  0  0  0  0
 11 12  2  0  0  0  0
 11 24  1  0  0  0  0
 12 25  1  0  0  0  0
 13 21  1  0  0  0  0
 13 23  2  0  0  0  0
 14 25  2  0  0  0  0
 14 26  1  0  0  0  0
 15 28  2  0  0  0  0
 15 65  1  0  0  0  0
 16 27  1  0  0  0  0
 17 27  1  0  0  0  0
 17 29  2  0  0  0  0
 17 31  1  0  0  0  0
 18 20  2  0  0  0  0
 18 38  1  0  0  0  0
 19 21  2  0  0  0  0
 19 39  1  0  0  0  0
 20 47  1  0  0  0  0
 21 40  1  0  0  0  0
 22 84  1  0  0  0  0
 23 85  1  0  0  0  0
 24 26  2  0  0  0  0
 24 84  1  0  0  0  0
 25 86  1  0  0  0  0
 26 87  1  0  0  0  0
 27 66  2  0  0  0  0
 28 59  1  0  0  0  0
 28 88  1  0  0  0  0
 29 67  1  0  0  0  0
 29 70  1  0  0  0  0
 30 65  2  0  0  0  0
 30 72  1  0  0  0  0
 30 88  1  0  0  0  0
 31 71  1  0  0  0  0
 31 77  2  0  0  0  0
 32 48  1  0  0  0  0
 32 73  1  0  0  0  0
 32 78  2  0  0  0  0
 33 60  1  0  0  0  0
 33 68  1  0  0  0  0
 33 79  2  0  0  0  0
 34 59  1  0  0  0  0
 34 74  1  0  0  0  0
 34 80  2  0  0  0  0
 35 61  1  0  0  0  0
 35 75  1  0  0  0  0
 35 81  2  0  0  0  0
 36 62  1  0  0  0  0
 36 74  1  0  0  0  0
 36 82  2  0  0  0  0
 37 69  1  0  0  0  0
 37 72  1  0  0  0  0
 37 83  2  0  0  0  0
 38 41  1  0  0  0  0
 39 48  1  0  0  0  0
 40 68  1  0  0  0  0
 41 43  1  0  0  0  0
 42 44  1  0  0  0  0
 42 45  1  0  0  0  0
 43 47  1  0  0  0  0
 44 49  1  0  0  0  0
 45 69  1  0  0  0  0
 46 49  1  0  0  0  0
 46 69  1  0  0  0  0
 47 73  1  0  0  0  0
 48 68  1  0  0  0  0
 49 67  1  0  0  0  0
 50 61  1  0  0  0  0
 51 62  1  0  0  0  0
 52 63  1  0  0  0  0
 53 63  1  0  0  0  0
 54 64  1  0  0  0  0
 55 64  1  0  0  0  0
 56 64  1  0  0  0  0
 57 76  1  0  0  0  0
 58 59  1  0  0  0  0
 58 63  1  0  0  0  0
 60 64  1  0  0  0  0
 60 75  1  0  0  0  0
 61 76  1  0  0  0  0
 62 85  1  0  0  0  0
 66 67  1  0  0  0  0
M  CHG  1  76   1
M  ISO  4  37 100  62 101  72 100  85 101
M  END
> <Batch ID>
0181

> <Smiles>
CNC(C)C(=O)NC(C(=O)N1Cc2cc([101O:1][101CH:1](C)C(=O)NC(=O)C(CC(C)C)c3cnc([100NH:0][100C:0](=O)N4CCCC(n5nc(-c6ccc(Oc7ccc(F)cc7F)cc6)c(C(N)=O)c5N)C4)s3)ccc2CC1C(=O)NC1CCCc2ccccc21)C(C)(C)C

> <Shape>
0.264

> <Color>
0.189

> <Negative vol penalty>
0.000

$$$$

  -OEChem-04052304533D

 87 95  0     1  0  0  0  0  0999 V2000
  -37.3625  -13.4028   23.9693 C   0  0  0  0  0  0  0  0  0  0  0  0
  -36.7371  -14.5964   23.6233 C   0  0  0  0  0  0  0  0  0  0  0  0
  -21.1064  -25.2204   22.0921 C   0  0  0  0  0  0  0  0  0  0  0  0
  -23.2547  -24.2546   22.6299 C   0  0  0  0  0  0  0  0  0  0  0  0
  -36.9476  -12.2056   23.3876 C   0  0  0  0  0  0  0  0  0  0  0  0
  -35.6969  -14.5934   22.6946 C   0  0  0  0  0  0  0  0  0  0  0  0
  -30.7615  -18.2194   22.6832 C   0  0  0  0  0  0  0  0  0  0  0  0
  -20.6499  -23.9711   21.6721 C   0  0  0  0  0  0  0  0  0  0  0  0
  -22.7982  -23.0053   22.2098 C   0  0  0  0  0  0  0  0  0  0  0  0
  -30.4584  -19.3889   21.9874 C   0  0  0  0  0  0  0  0  0  0  0  0
  -22.0824  -19.4904   21.6169 C   0  0  0  0  0  0  0  0  0  0  0  0
  -22.3681  -18.3896   22.4245 C   0  0  0  0  0  0  0  0  0  0  0  0
  -29.2835  -18.0903   20.3284 C   0  0  0  0  0  0  0  0  0  0  0  0
  -21.1568  -19.4127   24.2475 C   0  0  0  0  0  0  0  0  0  0  0  0
  -22.4088  -25.3622   22.5710 C   0  0  0  0  0  0  0  0  0  0  0  0
  -22.8009  -27.1956   24.3009 C   0  0  0  0  0  0  0  0  0  0  0  0
  -35.8954  -12.1867   22.4586 C   0  0  0  0  0  0  0  0  0  0  0  0
  -30.3364  -16.9734   22.2002 C   0  0  0  0  0  0  0  0  0  0  0  0
  -35.2684  -13.3950   22.0990 C   0  0  0  0  0  0  0  0  0  0  0  0
  -29.5803  -16.9067   21.0212 C   0  0  0  0  0  0  0  0  0  0  0  0
  -21.4958  -22.8635   21.7309 C   0  0  0  0  0  0  0  0  0  0  0  0
  -29.7218  -19.3243   20.8083 C   0  0  0  0  0  0  0  0  0  0  0  0
  -21.3340  -20.5524   22.1246 C   0  0  0  0  0  0  0  0  0  0  0  0
  -21.9052  -18.3507   23.7398 C   0  0  0  0  0  0  0  0  0  0  0  0
  -20.8712  -20.5136   23.4399 C   0  0  0  0  0  0  0  0  0  0  0  0
  -22.8811  -26.6525   23.0045 C   0  0  0  0  0  0  0  0  0  0  0  0
  -29.3238  -27.0787   18.5345 C   0  0  0  0  0  0  0  0  0  0  0  0
  -30.0135  -27.7477   19.5240 C   0  0  0  0  0  0  0  0  0  0  0  0
  -23.3858  -28.4335   24.1913 C   0  0  0  0  0  0  0  0  0  0  0  0
  -29.8533  -25.3587   19.7880 C   0  0  0  0  0  0  0  0  0  0  0  0
  -22.2474  -26.6314   25.4971 C   0  0  0  0  0  0  0  0  0  0  0  0
  -31.8022  -14.3278   21.2224 C   0  0  0  0  0  0  0  0  0  0  0  0
  -28.7759  -13.1681   21.0856 C   0  0  0  0  0  0  0  0  0  0  0  0
  -29.5208  -22.8640   19.7911 C   0  0  0  0  0  0  0  0  0  0  0  0
  -25.4372  -13.8115   20.7931 C   0  0  0  0  0  0  0  0  0  0  0  0
  -27.4354  -30.7100   20.4138 C   0  0  0  0  0  0  0  0  0  0  0  0
  -35.5134  -10.8743   21.8211 C   0  0  0  0  0  0  0  0  0  0  0  0
  -30.6487  -15.7236   22.9766 C   0  0  0  0  0  0  0  0  0  0  0  0
  -29.0830  -15.5957   20.4712 C   0  0  0  0  0  0  0  0  0  0  0  0
  -34.1545  -10.9074   21.1262 C   0  0  0  0  0  0  0  0  0  0  0  0
  -24.1544  -31.9456   21.0345 C   0  0  0  0  0  0  0  0  0  0  0  0
  -34.0273  -12.1578   20.2619 C   0  0  0  0  0  0  0  0  0  0  0  0
  -23.4488  -30.7781   21.7268 C   0  0  0  0  0  0  0  0  0  0  0  0
  -25.1199  -31.4614   19.9550 C   0  0  0  0  0  0  0  0  0  0  0  0
  -25.4030  -29.2985   21.1020 C   0  0  0  0  0  0  0  0  0  0  0  0
  -34.1200  -13.4293   21.1141 C   0  0  1  0  0  0  0  0  0  0  0  0
  -30.6050  -14.4617   22.1203 C   0  0  1  0  0  0  0  0  0  0  0  0
  -24.4605  -29.7344   22.2369 C   0  0  2  0  0  0  0  0  0  0  0  0
  -28.6883  -27.6921   17.3506 C   0  0  0  0  0  0  0  0  0  0  0  0
  -22.9715  -13.3468   20.7484 C   0  0  0  0  0  0  0  0  0  0  0  0
  -29.3474  -12.3659   18.1978 C   0  0  0  0  0  0  0  0  0  0  0  0
  -26.8806  -12.1119   17.8535 C   0  0  0  0  0  0  0  0  0  0  0  0
  -28.0608  -10.6739   19.5154 C   0  0  0  0  0  0  0  0  0  0  0  0
  -25.1950  -14.1902   23.7183 C   0  0  0  0  0  0  0  0  0  0  0  0
  -29.9003  -21.6922   20.6772 C   0  0  0  0  0  0  0  0  0  1  0  0
  -29.6921  -29.8304   20.9549 C   0  0  0  0  0  0  0  0  0  0  0  0
  -30.3004  -29.1880   19.6762 C   0  0  1  0  0  0  0  0  0  0  0  0
  -27.6954  -13.1216   20.0324 C   0  0  1  0  0  0  0  0  0  0  0  0
  -24.2418  -13.3108   21.5837 C   0  0  2  0  0  0  0  0  0  0  0  0
  -28.0069  -12.0930   18.9088 C   0  0  0  0  0  0  0  0  0  0  0  0
  -31.8108  -29.5024   19.6279 C   0  0  0  0  0  0  0  0  0  0  0  0
  -23.4703  -27.4779   22.1353 N   0  0  0  0  0  0  0  0  0  0  0  0
  -29.2313  -25.7087   18.6840 N   0  0  0  0  0  0  0  0  0  0  0  0
  -23.7656  -28.5522   22.8868 N   0  0  0  0  0  0  0  0  0  0  0  0
  -29.4194  -14.4011   21.2631 N   0  0  0  0  0  0  0  0  0  0  0  0
  -26.0535  -30.4750   20.5041 N   0  0  0  0  0  0  0  0  0  0  0  0
  -23.6070  -29.4212   25.0846 N   0  0  0  0  0  0  0  0  0  0  0  0
  -21.6860  -25.3488   25.4332 N   0  0  0  0  0  0  0  0  0  0  0  0
  -30.0018  -24.0564   20.3212 N   0  0  0  0  0  0  0  0  0  0  0  0
  -32.8695  -13.6689   21.8022 N   0  0  0  0  0  0  0  0  0  0  0  0
  -26.4450  -12.8718   20.7412 N   0  0  0  0  0  0  0  0  0  0  0  0
  -28.2497  -29.7282   20.9649 N   0  0  0  0  0  0  0  0  0  0  0  0
  -24.0320  -14.1535   22.7948 N   0  3  0  0  0  0  0  0  0  0  0  0
  -22.2358  -27.2531   26.5866 O   0  0  0  0  0  0  0  0  0  0  0  0
  -31.7603  -14.7870   20.0870 O   0  0  0  0  0  0  0  0  0  0  0  0
  -29.0344  -12.1499   21.7322 O   0  0  0  0  0  0  0  0  0  0  0  0
  -28.8751  -22.7072   18.7601 O   0  0  0  0  0  0  0  0  0  0  0  0
  -25.4718  -14.9233   20.2706 O   0  0  0  0  0  0  0  0  0  0  0  0
  -27.9083  -31.7225   19.8863 O   0  0  0  0  0  0  0  0  0  0  0  0
  -21.0506  -21.6443   21.3213 O   0  0  0  0  0  0  0  0  0  0  0  0
  -29.4251  -20.4642   20.1269 O   0  0  0  0  0  0  0  0  0  1  0  0
  -22.1783  -17.2929   24.5147 F   0  0  0  0  0  0  0  0  0  0  0  0
  -20.1507  -21.5303   23.9328 F   0  0  0  0  0  0  0  0  0  0  0  0
  -32.0599  -30.8256   19.7642 F   0  0  0  0  0  0  0  0  0  0  0  0
  -32.4865  -28.8611   20.6045 F   0  0  0  0  0  0  0  0  0  0  0  0
  -32.3335  -29.1201   18.4411 F   0  0  0  0  0  0  0  0  0  0  0  0
  -30.5716  -26.6260   20.6952 S   0  0  0  0  0  0  0  0  0  0  0  0
  1  2  1  0  0  0  0
  1  5  2  0  0  0  0
  2  6  2  0  0  0  0
  3  8  2  0  0  0  0
  3 15  1  0  0  0  0
  4  9  1  0  0  0  0
  4 15  2  0  0  0  0
  5 17  1  0  0  0  0
  6 19  1  0  0  0  0
  7 10  2  0  0  0  0
  7 18  1  0  0  0  0
  8 21  1  0  0  0  0
  9 21  2  0  0  0  0
 10 22  1  0  0  0  0
 11 12  2  0  0  0  0
 11 23  1  0  0  0  0
 12 24  1  0  0  0  0
 13 20  1  0  0  0  0
 13 22  2  0  0  0  0
 14 24  2  0  0  0  0
 14 25  1  0  0  0  0
 15 26  1  0  0  0  0
 16 26  1  0  0  0  0
 16 29  2  0  0  0  0
 16 31  1  0  0  0  0
 17 19  2  0  0  0  0
 17 37  1  0  0  0  0
 18 20  2  0  0  0  0
 18 38  1  0  0  0  0
 19 46  1  0  0  0  0
 20 39  1  0  0  0  0
 21 80  1  0  0  0  0
 22 81  1  0  0  0  0
 23 25  2  0  0  0  0
 23 80  1  0  0  0  0
 24 82  1  0  0  0  0
 25 83  1  0  0  0  0
 26 62  2  0  0  0  0
 27 28  2  0  0  0  0
 27 49  1  0  0  0  0
 27 63  1  0  0  0  0
 28 57  1  0  0  0  0
 28 87  1  0  0  0  0
 29 64  1  0  0  0  0
 29 67  1  0  0  0  0
 30 63  2  0  0  0  0
 30 69  1  0  0  0  0
 30 87  1  0  0  0  0
 31 68  1  0  0  0  0
 31 74  2  0  0  0  0
 32 47  1  0  0  0  0
 32 70  1  0  0  0  0
 32 75  2  0  0  0  0
 33 58  1  0  0  0  0
 33 65  1  0  0  0  0
 33 76  2  0  0  0  0
 34 55  1  0  0  0  0
 34 69  1  0  0  0  0
 34 77  2  0  0  0  0
 35 59  1  0  0  0  0
 35 71  1  0  0  0  0
 35 78  2  0  0  0  0
 36 66  1  0  0  0  0
 36 72  1  0  0  0  0
 36 79  2  0  0  0  0
 37 40  1  0  0  0  0
 38 47  1  0  0  0  0
 39 65  1  0  0  0  0
 40 42  1  0  0  0  0
 41 43  1  0  0  0  0
 41 44  1  0  0  0  0
 42 46  1  0  0  0  0
 43 48  1  0  0  0  0
 44 66  1  0  0  0  0
 45 48  1  0  0  0  0
 45 66  1  0  0  0  0
 46 70  1  0  0  0  0
 47 65  1  0  0  0  0
 48 64  1  0  0  0  0
 50 59  1  0  0  0  0
 51 60  1  0  0  0  0
 52 60  1  0  0  0  0
 53 60  1  0  0  0  0
 54 73  1  0  0  0  0
 55 81  1  0  0  0  0
 56 57  1  0  0  0  0
 56 72  1  0  0  0  0
 57 61  1  0  0  0  0
 58 60  1  0  0  0  0
 58 71  1  0  0  0  0
 59 73  1  0  0  0  0
 61 84  1  0  0  0  0
 61 85  1  0  0  0  0
 61 86  1  0  0  0  0
 62 64  1  0  0  0  0
M  CHG  1  73   1
M  ISO  4  36 100  55 101  72 100  81 101
M  END
> <Batch ID>
0181

> <Smiles>
CNC(C)C(=O)NC(C(=O)N1Cc2cc([101O:1][101CH2:1]C(=O)Nc3nc(C)c(C(C[100NH:0][100C:0](=O)N4CCCC(n5nc(-c6ccc(Oc7ccc(F)cc7F)cc6)c(C(N)=O)c5N)C4)C(F)(F)F)s3)ccc2CC1C(=O)NC1CCCc2ccccc21)C(C)(C)C

> <Shape>
0.226

> <Color>
0.090

> <Negative vol penalty>
0.000

$$$$

  -OEChem-04052304533D

 86 94  0     1  0  0  0  0  0999 V2000
  -17.9024  -30.6178   25.5514 C   0  0  0  0  0  0  0  0  0  0  0  0
  -18.5541  -29.3979   25.4019 C   0  0  0  0  0  0  0  0  0  0  0  0
  -26.7436  -12.1101   21.7305 C   0  0  0  0  0  0  0  0  0  0  0  0
  -25.8590  -13.8071   20.2559 C   0  0  0  0  0  0  0  0  0  0  0  0
  -17.9502  -31.5625   24.5271 C   0  0  0  0  0  0  0  0  0  0  0  0
  -19.2533  -29.1215   24.2275 C   0  0  0  0  0  0  0  0  0  0  0  0
  -23.7877  -27.0461   25.1088 C   0  0  0  0  0  0  0  0  0  0  0  0
  -25.5061  -11.4666   21.7325 C   0  0  0  0  0  0  0  0  0  0  0  0
  -24.6214  -13.1637   20.2579 C   0  0  0  0  0  0  0  0  0  0  0  0
  -23.8151  -25.6910   25.4355 C   0  0  0  0  0  0  0  0  0  0  0  0
  -23.7609   -9.4170   19.6864 C   0  0  0  0  0  0  0  0  0  0  0  0
  -23.7505   -8.0314   19.5265 C   0  0  0  0  0  0  0  0  0  0  0  0
  -24.4260  -25.1616   23.1627 C   0  0  0  0  0  0  0  0  0  0  0  0
  -22.6716   -7.7915   21.6749 C   0  0  0  0  0  0  0  0  0  0  0  0
  -26.7681  -22.8899   19.9136 C   0  0  0  0  0  0  0  0  0  0  0  0
  -26.9201  -13.2804   20.9923 C   0  0  0  0  0  0  0  0  0  0  0  0
  -29.2674  -13.7302   20.1003 C   0  0  0  0  0  0  0  0  0  0  0  0
  -18.6584  -31.3014   23.3434 C   0  0  0  0  0  0  0  0  0  0  0  0
  -24.0691  -27.4690   23.8017 C   0  0  0  0  0  0  0  0  0  0  0  0
  -19.3096  -30.0630   23.1859 C   0  0  0  0  0  0  0  0  0  0  0  0
  -24.4040  -26.5228   22.8226 C   0  0  0  0  0  0  0  0  0  0  0  0
  -24.4450  -11.9934   20.9962 C   0  0  0  0  0  0  0  0  0  0  0  0
  -24.1315  -24.7483   24.4617 C   0  0  0  0  0  0  0  0  0  0  0  0
  -23.2268   -9.9899   20.8407 C   0  0  0  0  0  0  0  0  0  0  0  0
  -23.2058   -7.2186   20.5206 C   0  0  0  0  0  0  0  0  0  0  0  0
  -22.6821   -9.1771   21.8349 C   0  0  0  0  0  0  0  0  0  0  0  0
  -28.1981  -13.9458   20.9903 C   0  0  0  0  0  0  0  0  0  0  0  0
  -27.0533  -22.3543   21.1378 C   0  0  0  0  0  0  0  0  0  0  0  0
  -30.2427  -14.6026   20.5178 C   0  0  0  0  0  0  0  0  0  0  0  0
  -28.9689  -22.7348   20.0956 C   0  0  0  0  0  0  0  0  0  0  0  0
  -29.3698  -12.8227   18.9951 C   0  0  0  0  0  0  0  0  0  0  0  0
  -22.4425  -29.0000   21.5404 C   0  0  0  0  0  0  0  0  0  0  0  0
  -25.2933  -28.9388   19.9940 C   0  0  0  0  0  0  0  0  0  0  0  0
  -29.9662  -19.7574   23.5940 C   0  0  0  0  0  0  0  0  0  0  0  0
  -24.7238  -22.0425   22.0436 C   0  0  0  0  0  0  0  0  0  0  0  0
  -28.3371  -27.4500   19.5869 C   0  0  0  0  0  0  0  0  0  0  0  0
  -18.6422  -32.3346   22.2449 C   0  0  0  0  0  0  0  0  0  0  0  0
  -24.0615  -28.9365   23.4719 C   0  0  0  0  0  0  0  0  0  0  0  0
  -24.7338  -26.9267   21.4096 C   0  0  0  0  0  0  0  0  0  0  0  0
  -19.7176  -32.1130   21.1844 C   0  0  0  0  0  0  0  0  0  0  0  0
  -31.8631  -16.8316   24.4195 C   0  0  0  0  0  0  0  0  0  0  0  0
  -19.7508  -30.6495   20.7554 C   0  0  0  0  0  0  0  0  0  0  0  0
  -31.2171  -15.7346   23.5743 C   0  0  0  0  0  0  0  0  0  0  0  0
  -30.8306  -17.8455   24.9023 C   0  0  0  0  0  0  0  0  0  0  0  0
  -29.3772  -17.3657   22.9584 C   0  0  0  0  0  0  0  0  0  0  0  0
  -20.0990  -29.7361   21.9369 C   0  0  1  0  0  0  0  0  0  0  0  0
  -23.8617  -29.2137   21.9851 C   0  0  1  0  0  0  0  0  0  0  0  0
  -30.3902  -16.3373   22.4248 C   0  0  2  0  0  0  0  0  0  0  0  0
  -30.4154  -22.8206   19.7757 C   0  0  0  0  0  0  0  0  0  0  0  0
  -30.4366  -27.6003   18.2206 C   0  0  0  0  0  0  0  0  0  0  0  0
  -22.3136  -21.9230   25.0636 C   0  0  0  0  0  0  0  0  0  0  0  0
  -23.8402  -27.6761   17.6267 C   0  0  0  0  0  0  0  0  0  0  0  0
  -26.0686  -26.9917   16.7133 C   0  0  0  0  0  0  0  0  0  0  0  0
  -25.5326  -29.4101   17.0075 C   0  0  0  0  0  0  0  0  0  0  0  0
  -30.0000  -27.9457   21.9844 C   0  0  0  0  0  0  0  0  0  0  0  0
  -24.0884  -21.5140   23.3259 C   0  0  0  0  0  0  0  0  0  0  0  0
  -29.1616  -21.7537   22.3593 C   0  0  0  0  0  0  0  0  0  0  0  0
  -25.9751  -27.9818   19.0462 C   0  0  1  0  0  0  0  0  0  0  0  0
  -29.7380  -28.0284   19.5018 C   0  0  2  0  0  0  0  0  0  0  0  0
  -23.2657  -22.5689   24.0657 C   0  0  2  0  0  0  0  0  0  1  0  0
  -29.1484  -20.2298   22.4184 C   0  0  0  0  0  0  0  0  0  0  0  0
  -25.3461  -28.0068   17.6245 C   0  0  0  0  0  0  0  0  0  0  0  0
  -28.4685  -14.8816   21.9042 N   0  0  0  0  0  0  0  0  0  0  0  0
  -28.4221  -22.2692   21.2233 N   0  0  0  0  0  0  0  0  0  0  0  0
  -29.7189  -15.2617   21.5908 N   0  0  0  0  0  0  0  0  0  0  0  0
  -27.9718  -23.1156   19.2905 N   0  3  0  0  0  0  0  0  0  0  0  0
  -24.7068  -28.3728   21.1348 N   0  0  0  0  0  0  0  0  0  0  0  0
  -30.0509  -18.3779   23.7835 N   0  0  0  0  0  0  0  0  0  0  0  0
  -31.4887  -14.8624   20.0680 N   0  0  0  0  0  0  0  0  0  0  0  0
  -28.2746  -11.9979   18.7041 N   0  0  0  0  0  0  0  0  0  0  0  0
  -26.1119  -21.9644   22.1199 N   0  0  0  0  0  0  0  0  0  0  0  0
  -21.5197  -29.7814   22.2092 N   0  0  0  0  0  0  0  0  0  0  0  0
  -27.3944  -28.3178   19.0776 N   0  0  0  0  0  0  0  0  0  0  0  0
  -30.5582  -27.5719   20.6594 N   0  3  0  0  0  0  0  0  0  0  0  0
  -30.4080  -12.7338   18.2967 O   0  0  0  0  0  0  0  0  0  0  0  0
  -22.2026  -28.1876   20.6549 O   0  0  0  0  0  0  0  0  0  0  0  0
  -25.2878  -30.1449   19.7354 O   0  0  0  0  0  0  0  0  0  0  0  0
  -30.5151  -20.5909   24.3194 O   0  0  0  0  0  0  0  0  0  0  0  0
  -24.0530  -22.4649   21.1078 O   0  0  0  0  0  0  0  0  0  0  0  0
  -28.1029  -26.3378   20.0548 O   0  0  0  0  0  0  0  0  0  0  0  0
  -23.2373  -11.3657   20.9977 O   0  0  0  0  0  0  0  0  0  0  0  0
  -24.1583  -23.4249   24.7777 O   0  0  0  0  0  0  0  0  0  1  0  0
  -23.1944   -5.8882   20.3662 F   0  0  0  0  0  0  0  0  0  0  0  0
  -22.1665   -9.7218   22.9454 F   0  0  0  0  0  0  0  0  0  0  0  0
  -29.6461  -19.7197   21.2621 F   0  0  0  0  0  0  0  0  0  0  0  0
  -27.8699  -19.7837   22.5233 F   0  0  0  0  0  0  0  0  0  0  0  0
  1  2  1  0  0  0  0
  1  5  2  0  0  0  0
  2  6  2  0  0  0  0
  3  8  2  0  0  0  0
  3 16  1  0  0  0  0
  4  9  1  0  0  0  0
  4 16  2  0  0  0  0
  5 18  1  0  0  0  0
  6 20  1  0  0  0  0
  7 10  2  0  0  0  0
  7 19  1  0  0  0  0
  8 22  1  0  0  0  0
  9 22  2  0  0  0  0
 10 23  1  0  0  0  0
 11 12  2  0  0  0  0
 11 24  1  0  0  0  0
 12 25  1  0  0  0  0
 13 21  1  0  0  0  0
 13 23  2  0  0  0  0
 14 25  2  0  0  0  0
 14 26  1  0  0  0  0
 15 28  2  0  0  0  0
 15 66  1  0  0  0  0
 16 27  1  0  0  0  0
 17 27  1  0  0  0  0
 17 29  2  0  0  0  0
 17 31  1  0  0  0  0
 18 20  2  0  0  0  0
 18 37  1  0  0  0  0
 19 21  2  0  0  0  0
 19 38  1  0  0  0  0
 20 46  1  0  0  0  0
 21 39  1  0  0  0  0
 22 81  1  0  0  0  0
 23 82  1  0  0  0  0
 24 26  2  0  0  0  0
 24 81  1  0  0  0  0
 25 83  1  0  0  0  0
 26 84  1  0  0  0  0
 27 63  2  0  0  0  0
 28 64  1  0  0  0  0
 28 71  1  0  0  0  0
 29 65  1  0  0  0  0
 29 69  1  0  0  0  0
 30 49  1  0  0  0  0
 30 64  1  0  0  0  0
 30 66  2  0  0  0  0
 31 70  1  0  0  0  0
 31 75  2  0  0  0  0
 32 47  1  0  0  0  0
 32 72  1  0  0  0  0
 32 76  2  0  0  0  0
 33 58  1  0  0  0  0
 33 67  1  0  0  0  0
 33 77  2  0  0  0  0
 34 61  1  0  0  0  0
 34 68  1  0  0  0  0
 34 78  2  0  0  0  0
 35 56  1  0  0  0  0
 35 71  1  0  0  0  0
 35 79  2  0  0  0  0
 36 59  1  0  0  0  0
 36 73  1  0  0  0  0
 36 80  2  0  0  0  0
 37 40  1  0  0  0  0
 38 47  1  0  0  0  0
 39 67  1  0  0  0  0
 40 42  1  0  0  0  0
 41 43  1  0  0  0  0
 41 44  1  0  0  0  0
 42 46  1  0  0  0  0
 43 48  1  0  0  0  0
 44 68  1  0  0  0  0
 45 48  1  0  0  0  0
 45 68  1  0  0  0  0
 46 72  1  0  0  0  0
 47 67  1  0  0  0  0
 48 65  1  0  0  0  0
 50 59  1  0  0  0  0
 51 60  1  0  0  0  0
 52 62  1  0  0  0  0
 53 62  1  0  0  0  0
 54 62  1  0  0  0  0
 55 74  1  0  0  0  0
 56 60  1  0  0  0  0
 57 61  1  0  0  0  0
 57 64  1  0  0  0  0
 58 62  1  0  0  0  0
 58 73  1  0  0  0  0
 59 74  1  0  0  0  0
 60 82  1  0  0  0  0
 61 85  1  0  0  0  0
 61 86  1  0  0  0  0
 63 65  1  0  0  0  0
M  CHG  2  66   1  74   1
M  ISO  4  34 100  60 101  61 100  82 101
M  END
> <Batch ID>
0181

> <Smiles>
CNC(C)C(=O)NC(C(=O)N1Cc2cc([101O:1][101CH:1](C)CC(=O)Nc3cnc(C)n3C[100C:0](F)(F)[100C:0](=O)N3CCCC(n4nc(-c5ccc(Oc6ccc(F)cc6F)cc5)c(C(N)=O)c4N)C3)ccc2CC1C(=O)NC1CCCc2ccccc21)C(C)(C)C

> <Shape>
0.259

> <Color>
0.072

> <Negative vol penalty>
0.000

$$$$

  -OEChem-04052304533D

 87 95  0     1  0  0  0  0  0999 V2000
  -16.0119  -26.7816   21.0353 C   0  0  0  0  0  0  0  0  0  0  0  0
  -16.9466  -26.5145   20.0401 C   0  0  0  0  0  0  0  0  0  0  0  0
  -26.6651  -12.3335   21.7247 C   0  0  0  0  0  0  0  0  0  0  0  0
  -25.9725  -13.7282   19.8775 C   0  0  0  0  0  0  0  0  0  0  0  0
  -16.4117  -27.4063   22.2160 C   0  0  0  0  0  0  0  0  0  0  0  0
  -18.2814  -26.8730   20.2245 C   0  0  0  0  0  0  0  0  0  0  0  0
  -23.2158  -23.8532   18.2148 C   0  0  0  0  0  0  0  0  0  0  0  0
  -25.4034  -11.7392   21.7490 C   0  0  0  0  0  0  0  0  0  0  0  0
  -24.7108  -13.1339   19.9018 C   0  0  0  0  0  0  0  0  0  0  0  0
  -24.0383  -24.0343   17.1038 C   0  0  0  0  0  0  0  0  0  0  0  0
  -23.7297   -9.3747   20.0052 C   0  0  0  0  0  0  0  0  0  0  0  0
  -23.6695   -7.9858   20.1194 C   0  0  0  0  0  0  0  0  0  0  0  0
  -25.5856  -25.2917   18.4617 C   0  0  0  0  0  0  0  0  0  0  0  0
  -22.4200   -8.2090   22.1751 C   0  0  0  0  0  0  0  0  0  0  0  0
  -26.9496  -13.3281   20.7889 C   0  0  0  0  0  0  0  0  0  0  0  0
  -29.3760  -13.5239   20.0260 C   0  0  0  0  0  0  0  0  0  0  0  0
  -17.7539  -27.7639   22.4189 C   0  0  0  0  0  0  0  0  0  0  0  0
  -23.5673  -24.4002   19.4573 C   0  0  0  0  0  0  0  0  0  0  0  0
  -18.6993  -27.5043   21.4084 C   0  0  0  0  0  0  0  0  0  0  0  0
  -24.7672  -25.1139   19.5876 C   0  0  0  0  0  0  0  0  0  0  0  0
  -24.4263  -12.1393   20.8375 C   0  0  0  0  0  0  0  0  0  0  0  0
  -25.2220  -24.7561   17.2264 C   0  0  0  0  0  0  0  0  0  0  0  0
  -23.1352  -10.1808   20.9760 C   0  0  0  0  0  0  0  0  0  0  0  0
  -23.0146   -7.4030   21.2043 C   0  0  0  0  0  0  0  0  0  0  0  0
  -22.4803   -9.5979   22.0609 C   0  0  0  0  0  0  0  0  0  0  0  0
  -28.2525  -13.9428   20.7637 C   0  0  0  0  0  0  0  0  0  0  0  0
  -29.0819  -22.9873   18.4203 C   0  0  0  0  0  0  0  0  0  0  0  0
  -29.7962  -23.5055   19.4802 C   0  0  0  0  0  0  0  0  0  0  0  0
  -30.3546  -14.4333   20.3446 C   0  0  0  0  0  0  0  0  0  0  0  0
  -29.5539  -21.4541   20.2173 C   0  0  0  0  0  0  0  0  0  0  0  0
  -29.5218  -12.4121   19.1324 C   0  0  0  0  0  0  0  0  0  0  0  0
  -28.6189  -23.6299   17.1635 C   0  0  0  0  0  0  0  0  0  0  0  0
  -22.2661  -26.5397   21.4152 C   0  0  0  0  0  0  0  0  0  0  0  0
  -24.6916  -25.6449   23.3745 C   0  0  0  0  0  0  0  0  0  0  0  0
  -27.8121  -24.3007   23.6943 C   0  0  0  0  0  0  0  0  0  0  0  0
  -30.2021  -20.0984   22.2392 C   0  0  0  0  0  0  0  0  0  0  0  0
  -18.1298  -28.4800   23.6920 C   0  0  0  0  0  0  0  0  0  0  0  0
  -22.6824  -24.1731   20.6523 C   0  0  0  0  0  0  0  0  0  0  0  0
  -25.1999  -25.7041   20.9039 C   0  0  0  0  0  0  0  0  0  0  0  0
  -19.6317  -28.4895   23.9647 C   0  0  0  0  0  0  0  0  0  0  0  0
  -31.7528  -17.3453   23.8802 C   0  0  0  0  0  0  0  0  0  0  0  0
  -20.4008  -28.8723   22.7042 C   0  0  0  0  0  0  0  0  0  0  0  0
  -31.1379  -16.1222   23.1959 C   0  0  0  0  0  0  0  0  0  0  0  0
  -30.7371  -18.4747   24.0427 C   0  0  0  0  0  0  0  0  0  0  0  0
  -29.4310  -17.6473   22.1246 C   0  0  0  0  0  0  0  0  0  0  0  0
  -20.1610  -27.8556   21.5815 C   0  0  1  0  0  0  0  0  0  0  0  0
  -22.8842  -25.2120   21.7511 C   0  0  1  0  0  0  0  0  0  0  0  0
  -30.4333  -16.5074   21.8803 C   0  0  2  0  0  0  0  0  0  0  0  0
  -30.2869  -24.8936   19.6031 C   0  0  0  0  0  0  0  0  0  0  0  0
  -29.8503  -23.3941   24.8437 C   0  0  0  0  0  0  0  0  0  0  0  0
  -25.5035  -24.4925   13.8379 C   0  0  0  0  0  0  0  0  0  0  0  0
  -25.4339  -28.5961   23.5969 C   0  0  0  0  0  0  0  0  0  0  0  0
  -27.6582  -27.8962   24.5083 C   0  0  0  0  0  0  0  0  0  0  0  0
  -25.5691  -27.3217   25.7445 C   0  0  0  0  0  0  0  0  0  0  0  0
  -26.6874  -21.5647   23.7827 C   0  0  0  0  0  0  0  0  0  0  0  0
  -26.1123  -26.1050   23.5958 C   0  0  1  0  0  0  0  0  0  0  0  0
  -28.3559  -23.2254   24.6175 C   0  0  2  0  0  0  0  0  0  0  0  0
  -27.4182  -23.2869   15.0195 C   0  0  2  0  0  0  0  0  0  0  0  0
  -26.0166  -23.9097   15.1508 C   0  0  1  0  0  0  0  0  0  1  0  0
  -26.1845  -27.4704   24.3360 C   0  0  0  0  0  0  0  0  0  0  0  0
  -27.4576  -22.1531   14.0059 C   0  0  0  0  0  0  0  0  0  0  0  0
  -28.4940  -15.0334   21.4960 N   0  0  0  0  0  0  0  0  0  0  0  0
  -30.0674  -22.6279   20.5118 N   0  0  0  0  0  0  0  0  0  0  0  0
  -29.7804  -15.3074   21.2201 N   0  0  0  0  0  0  0  0  0  0  0  0
  -24.2977  -25.4603   22.0416 N   0  0  0  0  0  0  0  0  0  0  0  0
  -30.1132  -18.7882   22.7553 N   0  0  0  0  0  0  0  0  0  0  0  0
  -31.6418  -14.5626   19.9587 N   0  0  0  0  0  0  0  0  0  0  0  0
  -28.4163  -11.5778   18.9179 N   0  0  0  0  0  0  0  0  0  0  0  0
  -29.5996  -20.2694   20.9933 N   0  0  0  0  0  0  0  0  0  0  0  0
  -27.9133  -22.8148   16.2930 N   0  0  0  0  0  0  0  0  0  0  0  0
  -20.9461  -26.6607   21.8056 N   0  0  0  0  0  0  0  0  0  0  0  0
  -26.7916  -25.0142   24.2866 N   0  0  0  0  0  0  0  0  0  0  0  0
  -28.1183  -21.8742   24.0354 N   0  3  0  0  0  0  0  0  0  0  0  0
  -30.6053  -12.1563   18.5544 O   0  0  0  0  0  0  0  0  0  0  0  0
  -28.8938  -24.8088   16.9557 O   0  0  0  0  0  0  0  0  0  0  0  0
  -22.9376  -27.3918   20.8453 O   0  0  0  0  0  0  0  0  0  0  0  0
  -23.9605  -25.4495   24.3486 O   0  0  0  0  0  0  0  0  0  0  0  0
  -28.2514  -24.4914   22.5623 O   0  0  0  0  0  0  0  0  0  0  0  0
  -30.7944  -20.9955   22.8445 O   0  0  0  0  0  0  0  0  0  0  0  0
  -23.1951  -11.5594   20.8608 O   0  0  0  0  0  0  0  0  0  0  0  0
  -26.0263  -24.9349   16.1433 O   0  0  0  0  0  0  0  0  0  1  0  0
  -22.9555   -6.0693   21.3130 F   0  0  0  0  0  0  0  0  0  0  0  0
  -21.9062  -10.3671   22.9961 F   0  0  0  0  0  0  0  0  0  0  0  0
  -28.7003  -21.6286   13.9163 F   0  0  0  0  0  0  0  0  0  0  0  0
  -26.6253  -21.1514   14.3710 F   0  0  0  0  0  0  0  0  0  0  0  0
  -27.0923  -22.5590   12.7716 F   0  0  0  0  0  0  0  0  0  0  0  0
  -28.7319  -21.3345   18.7156 S   0  0  0  0  0  0  0  0  0  0  0  0
  1  2  1  0  0  0  0
  1  5  2  0  0  0  0
  2  6  2  0  0  0  0
  3  8  2  0  0  0  0
  3 15  1  0  0  0  0
  4  9  1  0  0  0  0
  4 15  2  0  0  0  0
  5 17  1  0  0  0  0
  6 19  1  0  0  0  0
  7 10  2  0  0  0  0
  7 18  1  0  0  0  0
  8 21  1  0  0  0  0
  9 21  2  0  0  0  0
 10 22  1  0  0  0  0
 11 12  2  0  0  0  0
 11 23  1  0  0  0  0
 12 24  1  0  0  0  0
 13 20  1  0  0  0  0
 13 22  2  0  0  0  0
 14 24  2  0  0  0  0
 14 25  1  0  0  0  0
 15 26  1  0  0  0  0
 16 26  1  0  0  0  0
 16 29  2  0  0  0  0
 16 31  1  0  0  0  0
 17 19  2  0  0  0  0
 17 37  1  0  0  0  0
 18 20  2  0  0  0  0
 18 38  1  0  0  0  0
 19 46  1  0  0  0  0
 20 39  1  0  0  0  0
 21 80  1  0  0  0  0
 22 81  1  0  0  0  0
 23 25  2  0  0  0  0
 23 80  1  0  0  0  0
 24 82  1  0  0  0  0
 25 83  1  0  0  0  0
 26 62  2  0  0  0  0
 27 28  2  0  0  0  0
 27 32  1  0  0  0  0
 27 87  1  0  0  0  0
 28 49  1  0  0  0  0
 28 63  1  0  0  0  0
 29 64  1  0  0  0  0
 29 67  1  0  0  0  0
 30 63  2  0  0  0  0
 30 69  1  0  0  0  0
 30 87  1  0  0  0  0
 31 68  1  0  0  0  0
 31 74  2  0  0  0  0
 32 70  1  0  0  0  0
 32 75  2  0  0  0  0
 33 47  1  0  0  0  0
 33 71  1  0  0  0  0
 33 76  2  0  0  0  0
 34 56  1  0  0  0  0
 34 65  1  0  0  0  0
 34 77  2  0  0  0  0
 35 57  1  0  0  0  0
 35 72  1  0  0  0  0
 35 78  2  0  0  0  0
 36 66  1  0  0  0  0
 36 69  1  0  0  0  0
 36 79  2  0  0  0  0
 37 40  1  0  0  0  0
 38 47  1  0  0  0  0
 39 65  1  0  0  0  0
 40 42  1  0  0  0  0
 41 43  1  0  0  0  0
 41 44  1  0  0  0  0
 42 46  1  0  0  0  0
 43 48  1  0  0  0  0
 44 66  1  0  0  0  0
 45 48  1  0  0  0  0
 45 66  1  0  0  0  0
 46 71  1  0  0  0  0
 47 65  1  0  0  0  0
 48 64  1  0  0  0  0
 50 57  1  0  0  0  0
 51 59  1  0  0  0  0
 52 60  1  0  0  0  0
 53 60  1  0  0  0  0
 54 60  1  0  0  0  0
 55 73  1  0  0  0  0
 56 60  1  0  0  0  0
 56 72  1  0  0  0  0
 57 73  1  0  0  0  0
 58 59  1  0  0  0  0
 58 61  1  0  0  0  0
 58 70  1  0  0  0  0
 59 81  1  0  0  0  0
 61 84  1  0  0  0  0
 61 85  1  0  0  0  0
 61 86  1  0  0  0  0
 62 64  1  0  0  0  0
M  CHG  1  73   1
M  ISO  4  36 100  59 101  69 100  81 101
M  END
> <Batch ID>
0181

> <Smiles>
CNC(C)C(=O)NC(C(=O)N1Cc2cc([101O:1][101CH:1](C)C(NC(=O)c3sc([100NH:0][100C:0](=O)N4CCCC(n5nc(-c6ccc(Oc7ccc(F)cc7F)cc6)c(C(N)=O)c5N)C4)nc3C)C(F)(F)F)ccc2CC1C(=O)NC1CCCc2ccccc21)C(C)(C)C

> <Shape>
0.235

> <Color>
0.062

> <Negative vol penalty>
0.000

$$$$

  -OEChem-04052304533D

 84 92  0     1  0  0  0  0  0999 V2000
  -19.7930   -9.0037   22.1722 C   0  0  0  0  0  0  0  0  0  0  0  0
  -20.3920  -10.2072   22.5301 C   0  0  0  0  0  0  0  0  0  0  0  0
  -25.8085  -30.7426   20.0035 C   0  0  0  0  0  0  0  0  0  0  0  0
  -25.4871  -29.2344   21.8634 C   0  0  0  0  0  0  0  0  0  0  0  0
  -20.5379   -8.0226   21.5192 C   0  0  0  0  0  0  0  0  0  0  0  0
  -21.7368  -10.4299   22.2360 C   0  0  0  0  0  0  0  0  0  0  0  0
  -22.5666  -15.0394   20.3100 C   0  0  0  0  0  0  0  0  0  0  0  0
  -24.5795  -31.3427   20.2778 C   0  0  0  0  0  0  0  0  0  0  0  0
  -24.2581  -29.8346   22.1377 C   0  0  0  0  0  0  0  0  0  0  0  0
  -22.5927  -16.1081   21.2049 C   0  0  0  0  0  0  0  0  0  0  0  0
  -21.2014  -31.2067   23.5490 C   0  0  0  0  0  0  0  0  0  0  0  0
  -20.9090  -31.5093   24.8789 C   0  0  0  0  0  0  0  0  0  0  0  0
  -25.0045  -16.0663   21.1751 C   0  0  0  0  0  0  0  0  0  0  0  0
  -22.8471  -32.9485   24.9776 C   0  0  0  0  0  0  0  0  0  0  0  0
  -26.2622  -29.6884   20.7963 C   0  0  0  0  0  0  0  0  0  0  0  0
  -28.7899  -29.4332   21.0273 C   0  0  0  0  0  0  0  0  0  0  0  0
  -21.8899   -8.2372   21.2083 C   0  0  0  0  0  0  0  0  0  0  0  0
  -23.7612  -14.4680   19.8486 C   0  0  0  0  0  0  0  0  0  0  0  0
  -22.5008   -9.4503   21.5794 C   0  0  0  0  0  0  0  0  0  0  0  0
  -24.9908  -14.9920   20.2724 C   0  0  0  0  0  0  0  0  0  0  0  0
  -23.8044  -30.8887   21.3448 C   0  0  0  0  0  0  0  0  0  0  0  0
  -23.8117  -16.6199   21.6399 C   0  0  0  0  0  0  0  0  0  0  0  0
  -22.3167  -31.7750   22.9334 C   0  0  0  0  0  0  0  0  0  0  0  0
  -21.7318  -32.3802   25.5932 C   0  0  0  0  0  0  0  0  0  0  0  0
  -23.1395  -32.6459   23.6477 C   0  0  0  0  0  0  0  0  0  0  0  0
  -27.5314  -29.0677   20.5132 C   0  0  0  0  0  0  0  0  0  0  0  0
  -28.6649  -19.8867   22.0655 C   0  0  0  0  0  0  0  0  0  0  0  0
  -29.1369  -19.4352   20.8508 C   0  0  0  0  0  0  0  0  0  0  0  0
  -29.6657  -28.5420   20.4571 C   0  0  0  0  0  0  0  0  0  0  0  0
  -28.7850  -21.5312   20.3094 C   0  0  0  0  0  0  0  0  0  0  0  0
  -29.1363  -30.4842   21.9389 C   0  0  0  0  0  0  0  0  0  0  0  0
  -28.4600  -19.1794   23.3379 C   0  0  0  0  0  0  0  0  0  0  0  0
  -25.0967  -11.5908   20.0520 C   0  0  0  0  0  0  0  0  0  0  0  0
  -27.2874  -12.8947   18.0463 C   0  0  0  0  0  0  0  0  0  0  0  0
  -28.8027  -15.7061   16.8435 C   0  0  0  0  0  0  0  0  0  0  0  0
  -26.0710  -18.5320   22.7519 C   0  0  0  0  0  0  0  0  0  0  0  0
  -29.0263  -23.0119   18.2857 C   0  0  0  0  0  0  0  0  0  0  0  0
  -22.6669   -7.1285   20.5437 C   0  0  0  0  0  0  0  0  0  0  0  0
  -23.7160  -13.3329   18.8627 C   0  0  0  0  0  0  0  0  0  0  0  0
  -26.3015  -14.4274   19.7911 C   0  0  0  0  0  0  0  0  0  0  0  0
  -23.9878   -7.5910   19.9341 C   0  0  0  0  0  0  0  0  0  0  0  0
  -30.2537  -25.8586   16.5344 C   0  0  0  0  0  0  0  0  0  0  0  0
  -24.7492   -8.4743   20.9174 C   0  0  0  0  0  0  0  0  0  0  0  0
  -29.8147  -27.0375   17.4059 C   0  0  0  0  0  0  0  0  0  0  0  0
  -29.2066  -24.7465   16.5154 C   0  0  0  0  0  0  0  0  0  0  0  0
  -28.3387  -25.4538   18.7098 C   0  0  0  0  0  0  0  0  0  0  0  0
  -23.9506   -9.7390   21.2555 C   0  0  1  0  0  0  0  0  0  0  0  0
  -24.9911  -12.4954   18.8570 C   0  0  1  0  0  0  0  0  0  0  0  0
  -29.3897  -26.5712   18.8121 C   0  0  2  0  0  0  0  0  0  0  0  0
  -30.5822  -16.4517   15.2389 C   0  0  0  0  0  0  0  0  0  0  0  0
  -24.4866  -18.3948   24.6933 C   0  0  0  0  0  0  0  0  0  0  0  0
  -29.4368  -12.0224   20.0285 C   0  0  0  0  0  0  0  0  0  0  0  0
  -31.0252  -13.5852   18.8869 C   0  0  0  0  0  0  0  0  0  0  0  0
  -30.0326  -11.6764   17.6244 C   0  0  0  0  0  0  0  0  0  0  0  0
  -26.8626  -17.2520   15.2295 C   0  0  0  0  0  0  0  0  0  0  0  0
  -28.5788  -13.6564   18.2229 C   0  0  1  0  0  0  0  0  0  0  0  0
  -29.1011  -16.1618   15.4265 C   0  0  2  0  0  0  0  0  0  0  0  0
  -24.9514  -17.7319   23.4064 C   0  0  1  0  0  0  0  0  0  1  0  0
  -29.7438  -12.7447   18.7014 C   0  0  0  0  0  0  0  0  0  0  0  0
  -27.5974  -28.0257   19.6803 N   0  0  0  0  0  0  0  0  0  0  0  0
  -29.2061  -20.3767   19.8425 N   0  0  0  0  0  0  0  0  0  0  0  0
  -28.9081  -27.7288   19.6666 N   0  0  0  0  0  0  0  0  0  0  0  0
  -26.2050  -13.3141   18.8326 N   0  0  0  0  0  0  0  0  0  0  0  0
  -28.8560  -24.3531   17.8818 N   0  0  0  0  0  0  0  0  0  0  0  0
  -29.5208  -18.1572   20.6178 N   0  0  0  0  0  0  0  0  0  0  0  0
  -31.0023  -28.3825   20.5597 N   0  0  0  0  0  0  0  0  0  0  0  0
  -28.1136  -31.3077   22.4290 N   0  0  0  0  0  0  0  0  0  0  0  0
  -28.6906  -22.7634   19.6161 N   0  0  0  0  0  0  0  0  0  0  0  0
  -27.2180  -18.5805   23.5655 N   0  0  0  0  0  0  0  0  0  0  0  0
  -24.0473  -10.7007   20.1784 N   0  0  0  0  0  0  0  0  0  0  0  0
  -28.8309  -14.3320   16.9547 N   0  0  0  0  0  0  0  0  0  0  0  0
  -28.3358  -17.4004   15.1087 N   0  3  0  0  0  0  0  0  0  0  0  0
  -30.3200  -30.6975   22.2952 O   0  0  0  0  0  0  0  0  0  0  0  0
  -26.0598  -11.6917   20.8030 O   0  0  0  0  0  0  0  0  0  0  0  0
  -27.2388  -11.9666   17.2352 O   0  0  0  0  0  0  0  0  0  0  0  0
  -28.5716  -16.4908   17.7608 O   0  0  0  0  0  0  0  0  0  0  0  0
  -25.9499  -19.0336   21.6376 O   0  0  0  0  0  0  0  0  0  0  0  0
  -29.4652  -22.1533   17.5162 O   0  0  0  0  0  0  0  0  0  0  0  0
  -22.6052  -31.4742   21.6129 O   0  0  0  0  0  0  0  0  0  0  0  0
  -23.8401  -17.6626   22.5138 O   0  0  0  0  0  0  0  0  0  1  0  0
  -21.4500  -32.6719   26.8698 F   0  0  0  0  0  0  0  0  0  0  0  0
  -24.2117  -33.1958   23.0613 F   0  0  0  0  0  0  0  0  0  0  0  0
  -29.6721  -19.0922   24.4975 S   0  0  0  0  0  0  0  0  0  0  0  0
  -28.2913  -21.5568   21.9527 S   0  0  0  0  0  0  0  0  0  0  0  0
  1  2  1  0  0  0  0
  1  5  2  0  0  0  0
  2  6  2  0  0  0  0
  3  8  2  0  0  0  0
  3 15  1  0  0  0  0
  4  9  1  0  0  0  0
  4 15  2  0  0  0  0
  5 17  1  0  0  0  0
  6 19  1  0  0  0  0
  7 10  2  0  0  0  0
  7 18  1  0  0  0  0
  8 21  1  0  0  0  0
  9 21  2  0  0  0  0
 10 22  1  0  0  0  0
 11 12  2  0  0  0  0
 11 23  1  0  0  0  0
 12 24  1  0  0  0  0
 13 20  1  0  0  0  0
 13 22  2  0  0  0  0
 14 24  2  0  0  0  0
 14 25  1  0  0  0  0
 15 26  1  0  0  0  0
 16 26  1  0  0  0  0
 16 29  2  0  0  0  0
 16 31  1  0  0  0  0
 17 19  2  0  0  0  0
 17 38  1  0  0  0  0
 18 20  2  0  0  0  0
 18 39  1  0  0  0  0
 19 47  1  0  0  0  0
 20 40  1  0  0  0  0
 21 79  1  0  0  0  0
 22 80  1  0  0  0  0
 23 25  2  0  0  0  0
 23 79  1  0  0  0  0
 24 81  1  0  0  0  0
 25 82  1  0  0  0  0
 26 60  2  0  0  0  0
 27 28  2  0  0  0  0
 27 32  1  0  0  0  0
 27 84  1  0  0  0  0
 28 61  1  0  0  0  0
 28 65  1  0  0  0  0
 29 62  1  0  0  0  0
 29 66  1  0  0  0  0
 30 61  2  0  0  0  0
 30 68  1  0  0  0  0
 30 84  1  0  0  0  0
 31 67  1  0  0  0  0
 31 73  2  0  0  0  0
 32 69  1  0  0  0  0
 32 83  2  0  0  0  0
 33 48  1  0  0  0  0
 33 70  1  0  0  0  0
 33 74  2  0  0  0  0
 34 56  1  0  0  0  0
 34 63  1  0  0  0  0
 34 75  2  0  0  0  0
 35 57  1  0  0  0  0
 35 71  1  0  0  0  0
 35 76  2  0  0  0  0
 36 58  1  0  0  0  0
 36 69  1  0  0  0  0
 36 77  2  0  0  0  0
 37 64  1  0  0  0  0
 37 68  1  0  0  0  0
 37 78  2  0  0  0  0
 38 41  1  0  0  0  0
 39 48  1  0  0  0  0
 40 63  1  0  0  0  0
 41 43  1  0  0  0  0
 42 44  1  0  0  0  0
 42 45  1  0  0  0  0
 43 47  1  0  0  0  0
 44 49  1  0  0  0  0
 45 64  1  0  0  0  0
 46 49  1  0  0  0  0
 46 64  1  0  0  0  0
 47 70  1  0  0  0  0
 48 63  1  0  0  0  0
 49 62  1  0  0  0  0
 50 57  1  0  0  0  0
 51 58  1  0  0  0  0
 52 59  1  0  0  0  0
 53 59  1  0  0  0  0
 54 59  1  0  0  0  0
 55 72  1  0  0  0  0
 56 59  1  0  0  0  0
 56 71  1  0  0  0  0
 57 72  1  0  0  0  0
 58 80  1  0  0  0  0
 60 62  1  0  0  0  0
M  CHG  1  72   1
M  ISO  4  37 100  58 101  68 100  80 101
M  END
> <Batch ID>
0181

> <Smiles>
CNC(C)C(=O)NC(C(=O)N1Cc2cc([101O:1][101CH:1](C)C(=O)NC(=S)c3sc([100NH:0][100C:0](=O)N4CCCC(n5nc(-c6ccc(Oc7ccc(F)cc7F)cc6)c(C(N)=O)c5N)C4)nc3N)ccc2CC1C(=O)NC1CCCc2ccccc21)C(C)(C)C

> <Shape>
0.254

> <Color>
0.067

> <Negative vol penalty>
0.000

$$$$

  -OEChem-04052304533D

 81 88  0     1  0  0  0  0  0999 V2000
  -22.5994  -23.3445   19.7290 C   0  0  0  0  0  0  0  0  0  0  0  0
  -23.8666  -23.0096   19.2626 C   0  0  0  0  0  0  0  0  0  0  0  0
  -25.9901  -27.2797   19.0432 C   0  0  0  0  0  0  0  0  0  0  0  0
  -26.5936  -27.6421   21.3544 C   0  0  0  0  0  0  0  0  0  0  0  0
  -22.0293  -22.6208   20.7754 C   0  0  0  0  0  0  0  0  0  0  0  0
  -24.5649  -21.9514   19.8432 C   0  0  0  0  0  0  0  0  0  0  0  0
  -29.2328  -16.7724   18.1985 C   0  0  0  0  0  0  0  0  0  0  0  0
  -24.8275  -28.0275   19.2295 C   0  0  0  0  0  0  0  0  0  0  0  0
  -25.4310  -28.3899   21.5407 C   0  0  0  0  0  0  0  0  0  0  0  0
  -30.4594  -16.2562   18.6141 C   0  0  0  0  0  0  0  0  0  0  0  0
  -22.1381  -27.7965   22.0261 C   0  0  0  0  0  0  0  0  0  0  0  0
  -21.3848  -27.5483   23.1735 C   0  0  0  0  0  0  0  0  0  0  0  0
  -29.3422  -15.0262   20.3629 C   0  0  0  0  0  0  0  0  0  0  0  0
  -21.6883  -29.8420   23.8690 C   0  0  0  0  0  0  0  0  0  0  0  0
  -26.8732  -27.0869   20.1057 C   0  0  0  0  0  0  0  0  0  0  0  0
  -29.3359  -26.7900   19.5101 C   0  0  0  0  0  0  0  0  0  0  0  0
  -22.7169  -21.5470   21.3627 C   0  0  0  0  0  0  0  0  0  0  0  0
  -28.0510  -16.4274   18.8699 C   0  0  0  0  0  0  0  0  0  0  0  0
  -24.0039  -21.2135   20.8994 C   0  0  0  0  0  0  0  0  0  0  0  0
  -28.1016  -15.5374   19.9522 C   0  0  0  0  0  0  0  0  0  0  0  0
  -24.5480  -28.5826   20.4782 C   0  0  0  0  0  0  0  0  0  0  0  0
  -30.5146  -15.3852   19.6983 C   0  0  0  0  0  0  0  0  0  0  0  0
  -22.6666  -29.0675   21.8002 C   0  0  0  0  0  0  0  0  0  0  0  0
  -21.1598  -28.5710   24.0949 C   0  0  0  0  0  0  0  0  0  0  0  0
  -22.4417  -30.0903   22.7217 C   0  0  0  0  0  0  0  0  0  0  0  0
  -28.0740  -26.3141   19.9140 C   0  0  0  0  0  0  0  0  0  0  0  0
  -30.1311  -25.6706   19.4789 C   0  0  0  0  0  0  0  0  0  0  0  0
  -29.7519  -28.1246   19.1917 C   0  0  0  0  0  0  0  0  0  0  0  0
  -25.8455  -18.0353   20.4991 C   0  0  0  0  0  0  0  0  0  0  0  0
  -30.8702  -20.8301   22.4521 C   0  0  0  0  0  0  0  0  0  0  0  0
  -24.3413  -15.1617   20.5413 C   0  0  0  0  0  0  0  0  0  0  0  0
  -33.3687  -15.6935   22.3611 C   0  0  0  0  0  0  0  0  0  0  0  0
  -24.5810  -11.7629   20.3469 C   0  0  0  0  0  0  0  0  0  0  0  0
  -32.4832  -17.5794   23.6945 C   0  0  0  0  0  0  0  0  0  0  0  0
  -22.0793  -20.8242   22.5228 C   0  0  0  0  0  0  0  0  0  0  0  0
  -26.7327  -16.9719   18.3924 C   0  0  0  0  0  0  0  0  0  0  0  0
  -26.8593  -15.1197   20.6942 C   0  0  0  0  0  0  0  0  0  0  0  0
  -22.7298  -19.4787   22.8338 C   0  0  0  0  0  0  0  0  0  0  0  0
  -29.3160  -20.8128   19.1641 C   0  0  0  0  0  0  0  0  0  0  0  0
  -24.2492  -19.6123   22.8543 C   0  0  0  0  0  0  0  0  0  0  0  0
  -28.9311  -22.2825   19.0002 C   0  0  0  0  0  0  0  0  0  0  0  0
  -29.1798  -20.3552   20.6139 C   0  0  0  0  0  0  0  0  0  0  0  0
  -29.5647  -22.6622   21.4225 C   0  0  0  0  0  0  0  0  0  0  0  0
  -24.7825  -20.0564   21.4869 C   0  0  1  0  0  0  0  0  0  0  0  0
  -25.6539  -16.9564   19.4710 C   0  0  1  0  0  0  0  0  0  0  0  0
  -29.7175  -23.1714   19.9794 C   0  0  2  0  0  0  0  0  0  0  0  0
  -35.2052  -16.2064   20.7153 C   0  0  0  0  0  0  0  0  0  0  0  0
  -23.1850   -9.6803   20.4540 C   0  0  0  0  0  0  0  0  0  0  0  0
  -24.1627  -15.4403   23.5745 C   0  0  0  0  0  0  0  0  0  0  0  0
  -23.6526  -12.9924   23.6995 C   0  0  0  0  0  0  0  0  0  0  0  0
  -22.1037  -14.5270   22.4877 C   0  0  0  0  0  0  0  0  0  0  0  0
  -25.3178  -10.9877   17.5873 C   0  0  0  0  0  0  0  0  0  0  0  0
  -31.1480  -19.3497   22.5242 C   0  0  0  0  0  0  0  0  0  0  0  0
  -32.8647  -15.6926   19.8948 C   0  0  0  0  0  0  0  0  0  1  0  0
  -24.3458  -13.9660   21.4629 C   0  0  1  0  0  0  0  0  0  0  0  0
  -33.9249  -15.4091   20.9642 C   0  0  2  0  0  0  0  0  0  0  0  0
  -23.7911  -10.7414   19.5487 C   0  0  2  0  0  0  0  0  0  0  0  0
  -32.2135  -19.0652   23.5730 C   0  0  1  0  0  0  0  0  0  0  0  0
  -23.5900  -14.2406   22.7936 C   0  0  0  0  0  0  0  0  0  0  0  0
  -28.0635  -24.9951   20.1241 N   0  0  0  0  0  0  0  0  0  0  0  0
  -29.3285  -24.6326   19.8511 N   0  0  0  0  0  0  0  0  0  0  0  0
  -25.5951  -15.6840   20.1933 N   0  0  0  0  0  0  0  0  0  0  0  0
  -29.9205  -21.2436   21.5175 N   0  0  0  0  0  0  0  0  0  0  0  0
  -31.4316  -25.4827   19.1695 N   0  0  0  0  0  0  0  0  0  0  0  0
  -28.8076  -29.1568   19.2757 N   0  0  0  0  0  0  0  0  0  0  0  0
  -24.8035  -18.9404   20.5658 N   0  0  0  0  0  0  0  0  0  0  0  0
  -33.0127  -17.0336   22.5263 N   0  0  0  0  0  0  0  0  0  0  0  0
  -23.8080  -12.8522   20.6891 N   0  0  0  0  0  0  0  0  0  0  0  0
  -24.6734  -10.0646   18.5566 N   0  3  0  0  0  0  0  0  0  0  0  0
  -30.9222  -28.3913   18.8273 O   0  0  0  0  0  0  0  0  0  0  0  0
  -26.8628  -18.0450   21.1824 O   0  0  0  0  0  0  0  0  0  0  0  0
  -31.4818  -21.5947   23.2028 O   0  0  0  0  0  0  0  0  0  0  0  0
  -23.2652  -15.6111   20.1390 O   0  0  0  0  0  0  0  0  0  0  0  0
  -33.2607  -14.8247   23.2238 O   0  0  0  0  0  0  0  0  0  0  0  0
  -25.7643  -11.6081   20.6408 O   0  0  0  0  0  0  0  0  0  0  0  0
  -32.2566  -16.9654   24.7343 O   0  0  0  0  0  0  0  0  0  0  0  0
  -23.4137  -29.3126   20.6603 O   0  0  0  0  0  0  0  0  0  0  0  0
  -31.7106  -14.8804   20.1065 O   0  0  0  0  0  0  0  0  0  1  0  0
  -20.4350  -28.3329   25.1959 F   0  0  0  0  0  0  0  0  0  0  0  0
  -22.9458  -31.3136   22.5095 F   0  0  0  0  0  0  0  0  0  0  0  0
  -31.7794  -19.5658   24.7657 F   0  0  0  0  0  0  0  0  0  0  0  0
  1  2  1  0  0  0  0
  1  5  2  0  0  0  0
  2  6  2  0  0  0  0
  3  8  2  0  0  0  0
  3 15  1  0  0  0  0
  4  9  1  0  0  0  0
  4 15  2  0  0  0  0
  5 17  1  0  0  0  0
  6 19  1  0  0  0  0
  7 10  2  0  0  0  0
  7 18  1  0  0  0  0
  8 21  1  0  0  0  0
  9 21  2  0  0  0  0
 10 22  1  0  0  0  0
 11 12  2  0  0  0  0
 11 23  1  0  0  0  0
 12 24  1  0  0  0  0
 13 20  1  0  0  0  0
 13 22  2  0  0  0  0
 14 24  2  0  0  0  0
 14 25  1  0  0  0  0
 15 26  1  0  0  0  0
 16 26  1  0  0  0  0
 16 27  2  0  0  0  0
 16 28  1  0  0  0  0
 17 19  2  0  0  0  0
 17 35  1  0  0  0  0
 18 20  2  0  0  0  0
 18 36  1  0  0  0  0
 19 44  1  0  0  0  0
 20 37  1  0  0  0  0
 21 77  1  0  0  0  0
 22 78  1  0  0  0  0
 23 25  2  0  0  0  0
 23 77  1  0  0  0  0
 24 79  1  0  0  0  0
 25 80  1  0  0  0  0
 26 60  2  0  0  0  0
 27 61  1  0  0  0  0
 27 64  1  0  0  0  0
 28 65  1  0  0  0  0
 28 70  2  0  0  0  0
 29 45  1  0  0  0  0
 29 66  1  0  0  0  0
 29 71  2  0  0  0  0
 30 53  1  0  0  0  0
 30 63  1  0  0  0  0
 30 72  2  0  0  0  0
 31 55  1  0  0  0  0
 31 62  1  0  0  0  0
 31 73  2  0  0  0  0
 32 56  1  0  0  0  0
 32 67  1  0  0  0  0
 32 74  2  0  0  0  0
 33 57  1  0  0  0  0
 33 68  1  0  0  0  0
 33 75  2  0  0  0  0
 34 58  1  0  0  0  0
 34 67  1  0  0  0  0
 34 76  2  0  0  0  0
 35 38  1  0  0  0  0
 36 45  1  0  0  0  0
 37 62  1  0  0  0  0
 38 40  1  0  0  0  0
 39 41  1  0  0  0  0
 39 42  1  0  0  0  0
 40 44  1  0  0  0  0
 41 46  1  0  0  0  0
 42 63  1  0  0  0  0
 43 46  1  0  0  0  0
 43 63  1  0  0  0  0
 44 66  1  0  0  0  0
 45 62  1  0  0  0  0
 46 61  1  0  0  0  0
 47 56  1  0  0  0  0
 48 57  1  0  0  0  0
 49 59  1  0  0  0  0
 50 59  1  0  0  0  0
 51 59  1  0  0  0  0
 52 69  1  0  0  0  0
 53 58  1  0  0  0  0
 54 56  1  0  0  0  0
 54 78  1  0  0  0  0
 55 59  1  0  0  0  0
 55 68  1  0  0  0  0
 57 69  1  0  0  0  0
 58 81  1  0  0  0  0
 60 61  1  0  0  0  0
M  CHG  1  69   1
M  ISO  4  30 100  53 100  54 101  78 101
M  END
> <Batch ID>
0181

> <Smiles>
CNC(C)C(=O)NC(C(=O)N1Cc2cc([101O:1][101CH2:1]C(C)C(=O)NC(=O)C(F)[100CH2:0][100C:0](=O)N3CCCC(n4nc(-c5ccc(Oc6ccc(F)cc6F)cc5)c(C(N)=O)c4N)C3)ccc2CC1C(=O)NC1CCCc2ccccc21)C(C)(C)C

> <Shape>
0.212

> <Color>
0.065

> <Negative vol penalty>
0.000

$$$$

  -OEChem-04052304533D

 83 91  0     1  0  0  0  0  0999 V2000
  -23.2208  -25.6069   17.7248 C   0  0  0  0  0  0  0  0  0  0  0  0
  -24.5612  -25.5857   18.0966 C   0  0  0  0  0  0  0  0  0  0  0  0
  -23.0749   -9.8672   19.9403 C   0  0  0  0  0  0  0  0  0  0  0  0
  -23.8363   -9.8730   22.2332 C   0  0  0  0  0  0  0  0  0  0  0  0
  -22.5897  -24.4285   17.3286 C   0  0  0  0  0  0  0  0  0  0  0  0
  -25.2711  -24.3858   18.0735 C   0  0  0  0  0  0  0  0  0  0  0  0
  -31.1838  -23.6327   16.6670 C   0  0  0  0  0  0  0  0  0  0  0  0
  -22.3320   -8.7134   20.1899 C   0  0  0  0  0  0  0  0  0  0  0  0
  -23.0933   -8.7193   22.4828 C   0  0  0  0  0  0  0  0  0  0  0  0
  -32.3253  -23.4945   17.4554 C   0  0  0  0  0  0  0  0  0  0  0  0
  -21.1109   -5.9800   23.8188 C   0  0  0  0  0  0  0  0  0  0  0  0
  -20.3555   -5.9351   24.9905 C   0  0  0  0  0  0  0  0  0  0  0  0
  -32.1613  -21.0956   17.2617 C   0  0  0  0  0  0  0  0  0  0  0  0
  -19.1092   -7.8721   24.2611 C   0  0  0  0  0  0  0  0  0  0  0  0
  -29.8586  -17.8393   22.7349 C   0  0  0  0  0  0  0  0  0  0  0  0
  -23.8272  -10.4470   20.9619 C   0  0  0  0  0  0  0  0  0  0  0  0
  -24.1673  -12.9724   20.8434 C   0  0  0  0  0  0  0  0  0  0  0  0
  -23.2948  -23.2152   17.2914 C   0  0  0  0  0  0  0  0  0  0  0  0
  -30.5151  -22.5012   16.1781 C   0  0  0  0  0  0  0  0  0  0  0  0
  -24.6485  -23.1897   17.6777 C   0  0  0  0  0  0  0  0  0  0  0  0
  -31.0130  -21.2222   16.4651 C   0  0  0  0  0  0  0  0  0  0  0  0
  -22.3411   -8.1394   21.4612 C   0  0  0  0  0  0  0  0  0  0  0  0
  -32.8126  -22.2257   17.7553 C   0  0  0  0  0  0  0  0  0  0  0  0
  -20.8656   -6.9710   22.8683 C   0  0  0  0  0  0  0  0  0  0  0  0
  -19.3546   -6.8811   25.2116 C   0  0  0  0  0  0  0  0  0  0  0  0
  -19.8647   -7.9170   23.0894 C   0  0  0  0  0  0  0  0  0  0  0  0
  -24.5953  -11.6385   20.7045 C   0  0  0  0  0  0  0  0  0  0  0  0
  -30.7027  -18.9110   22.8943 C   0  0  0  0  0  0  0  0  0  0  0  0
  -30.5691  -16.9522   21.9042 C   0  0  0  0  0  0  0  0  0  0  0  0
  -25.2588  -13.7228   20.4799 C   0  0  0  0  0  0  0  0  0  0  0  0
  -22.8968  -13.4872   21.2635 C   0  0  0  0  0  0  0  0  0  0  0  0
  -27.6046  -21.2796   16.5528 C   0  0  0  0  0  0  0  0  0  0  0  0
  -32.8711  -20.6286   21.0660 C   0  0  0  0  0  0  0  0  0  0  0  0
  -28.6147  -19.1888   14.2876 C   0  0  0  0  0  0  0  0  0  0  0  0
  -31.2292  -17.6468   12.7278 C   0  0  0  0  0  0  0  0  0  0  0  0
  -30.7243  -14.7719   20.6517 C   0  0  0  0  0  0  0  0  0  0  0  0
  -22.5574  -21.9587   16.9014 C   0  0  0  0  0  0  0  0  0  0  0  0
  -29.3005  -22.6679   15.3068 C   0  0  0  0  0  0  0  0  0  0  0  0
  -30.3435  -19.9761   15.9479 C   0  0  0  0  0  0  0  0  0  0  0  0
  -23.4805  -20.7962   16.5457 C   0  0  0  0  0  0  0  0  0  0  0  0
  -29.6100  -12.3588   18.2827 C   0  0  0  0  0  0  0  0  0  0  0  0
  -24.5850  -20.6533   17.5880 C   0  0  0  0  0  0  0  0  0  0  0  0
  -28.1709  -12.0660   18.7130 C   0  0  0  0  0  0  0  0  0  0  0  0
  -30.5258  -12.5875   19.4839 C   0  0  0  0  0  0  0  0  0  0  0  0
  -28.6192  -13.3099   20.8668 C   0  0  0  0  0  0  0  0  0  0  0  0
  -25.4589  -21.9122   17.6420 C   0  0  1  0  0  0  0  0  0  0  0  0
  -28.4035  -21.4340   15.2896 C   0  0  1  0  0  0  0  0  0  0  0  0
  -27.6457  -13.1367   19.6895 C   0  0  2  0  0  0  0  0  0  0  0  0
  -30.5424  -20.1661   23.6510 C   0  0  0  0  0  0  0  0  0  0  0  0
  -31.7399  -15.9602   10.9412 C   0  0  0  0  0  0  0  0  0  0  0  0
  -34.9454  -23.7007   19.9748 C   0  0  0  0  0  0  0  0  0  0  0  0
  -27.8165  -16.9385   16.1872 C   0  0  0  0  0  0  0  0  0  0  0  0
  -29.1908  -15.3729   14.7985 C   0  0  0  0  0  0  0  0  0  0  0  0
  -27.2289  -16.5374   13.7897 C   0  0  0  0  0  0  0  0  0  0  0  0
  -32.7198  -19.6324   11.1171 C   0  0  0  0  0  0  0  0  0  0  0  0
  -34.1069  -21.4926   20.8438 C   0  0  0  0  0  0  0  0  0  0  0  0
  -33.0555  -19.4657   22.0262 C   0  0  0  0  0  0  0  0  0  0  0  0
  -29.3240  -17.8563   14.3028 C   0  0  1  0  0  0  0  0  0  0  0  0
  -31.5417  -17.4344   11.2575 C   0  0  2  0  0  0  0  0  0  0  0  0
  -33.8735  -22.6264   19.8457 C   0  0  2  0  0  0  0  0  0  1  0  0
  -28.4018  -16.6995   14.7811 C   0  0  0  0  0  0  0  0  0  0  0  0
  -25.8600  -11.5438   20.2853 N   0  0  0  0  0  0  0  0  0  0  0  0
  -31.7719  -17.4198   21.5598 N   0  0  0  0  0  0  0  0  0  0  0  0
  -31.8237  -18.6125   22.1770 N   0  0  0  0  0  0  0  0  0  0  0  0
  -26.2360  -12.8277   20.1576 N   0  0  0  0  0  0  0  0  0  0  0  0
  -29.1555  -20.1911   15.1053 N   0  0  0  0  0  0  0  0  0  0  0  0
  -29.9667  -13.6174   20.3622 N   0  0  0  0  0  0  0  0  0  0  0  0
  -25.4683  -15.0545   20.4077 N   0  0  0  0  0  0  0  0  0  0  0  0
  -21.8857  -12.5771   21.6008 N   0  0  0  0  0  0  0  0  0  0  0  0
  -30.0769  -15.6961   21.4711 N   0  0  0  0  0  0  0  0  0  0  0  0
  -26.3865  -21.9316   16.5313 N   0  0  0  0  0  0  0  0  0  0  0  0
  -29.8708  -17.6697   12.9632 N   0  0  0  0  0  0  0  0  0  0  0  0
  -32.7835  -18.1671   10.8808 N   0  3  0  0  0  0  0  0  0  0  0  0
  -22.6598  -14.7176   21.3218 O   0  0  0  0  0  0  0  0  0  0  0  0
  -28.0591  -20.6166   17.4778 O   0  0  0  0  0  0  0  0  0  0  0  0
  -31.7986  -20.8613   20.5101 O   0  0  0  0  0  0  0  0  0  0  0  0
  -27.6217  -19.3372   13.5709 O   0  0  0  0  0  0  0  0  0  0  0  0
  -32.1029  -17.7755   13.5826 O   0  0  0  0  0  0  0  0  0  0  0  0
  -31.8530  -14.9417   20.1835 O   0  0  0  0  0  0  0  0  0  0  0  0
  -21.6160   -7.0137   21.7052 O   0  0  0  0  0  0  0  0  0  0  0  0
  -33.9262  -22.0880   18.5252 O   0  0  0  0  0  0  0  0  0  1  0  0
  -18.6281   -6.8370   26.3361 F   0  0  0  0  0  0  0  0  0  0  0  0
  -19.6236   -8.8707   22.1794 F   0  0  0  0  0  0  0  0  0  0  0  0
  1  2  1  0  0  0  0
  1  5  2  0  0  0  0
  2  6  2  0  0  0  0
  3  8  2  0  0  0  0
  3 16  1  0  0  0  0
  4  9  1  0  0  0  0
  4 16  2  0  0  0  0
  5 18  1  0  0  0  0
  6 20  1  0  0  0  0
  7 10  2  0  0  0  0
  7 19  1  0  0  0  0
  8 22  1  0  0  0  0
  9 22  2  0  0  0  0
 10 23  1  0  0  0  0
 11 12  2  0  0  0  0
 11 24  1  0  0  0  0
 12 25  1  0  0  0  0
 13 21  1  0  0  0  0
 13 23  2  0  0  0  0
 14 25  2  0  0  0  0
 14 26  1  0  0  0  0
 15 28  2  0  0  0  0
 15 29  1  0  0  0  0
 16 27  1  0  0  0  0
 17 27  1  0  0  0  0
 17 30  2  0  0  0  0
 17 31  1  0  0  0  0
 18 20  2  0  0  0  0
 18 37  1  0  0  0  0
 19 21  2  0  0  0  0
 19 38  1  0  0  0  0
 20 46  1  0  0  0  0
 21 39  1  0  0  0  0
 22 80  1  0  0  0  0
 23 81  1  0  0  0  0
 24 26  2  0  0  0  0
 24 80  1  0  0  0  0
 25 82  1  0  0  0  0
 26 83  1  0  0  0  0
 27 62  2  0  0  0  0
 28 49  1  0  0  0  0
 28 64  1  0  0  0  0
 29 63  2  0  0  0  0
 29 70  1  0  0  0  0
 30 65  1  0  0  0  0
 30 68  1  0  0  0  0
 31 69  1  0  0  0  0
 31 74  2  0  0  0  0
 32 47  1  0  0  0  0
 32 71  1  0  0  0  0
 32 75  2  0  0  0  0
 33 56  1  0  0  0  0
 33 57  1  0  0  0  0
 33 76  2  0  0  0  0
 34 58  1  0  0  0  0
 34 66  1  0  0  0  0
 34 77  2  0  0  0  0
 35 59  1  0  0  0  0
 35 72  1  0  0  0  0
 35 78  2  0  0  0  0
 36 67  1  0  0  0  0
 36 70  1  0  0  0  0
 36 79  2  0  0  0  0
 37 40  1  0  0  0  0
 38 47  1  0  0  0  0
 39 66  1  0  0  0  0
 40 42  1  0  0  0  0
 41 43  1  0  0  0  0
 41 44  1  0  0  0  0
 42 46  1  0  0  0  0
 43 48  1  0  0  0  0
 44 67  1  0  0  0  0
 45 48  1  0  0  0  0
 45 67  1  0  0  0  0
 46 71  1  0  0  0  0
 47 66  1  0  0  0  0
 48 65  1  0  0  0  0
 50 59  1  0  0  0  0
 51 60  1  0  0  0  0
 52 61  1  0  0  0  0
 53 61  1  0  0  0  0
 54 61  1  0  0  0  0
 55 73  1  0  0  0  0
 56 60  1  0  0  0  0
 57 64  1  0  0  0  0
 58 61  1  0  0  0  0
 58 72  1  0  0  0  0
 59 73  1  0  0  0  0
 60 81  1  0  0  0  0
 62 65  1  0  0  0  0
 63 64  1  0  0  0  0
M  CHG  1  73   1
M  ISO  4  36 100  60 101  70 100  81 101
M  END
> <Batch ID>
0181

> <Smiles>
CNC(C)C(=O)NC(C(=O)N1Cc2cc([101O:1][101CH:1](C)CC(=O)Cn3nc([100NH:0][100C:0](=O)N4CCCC(n5nc(-c6ccc(Oc7ccc(F)cc7F)cc6)c(C(N)=O)c5N)C4)cc3C)ccc2CC1C(=O)NC1CCCc2ccccc21)C(C)(C)C

> <Shape>
0.177

> <Color>
0.192

> <Negative vol penalty>
0.000

$$$$

  -OEChem-04052304533D

 84 92  0     1  0  0  0  0  0999 V2000
  -25.1261  -32.1025   23.6022 C   0  0  0  0  0  0  0  0  0  0  0  0
  -25.8000  -31.0175   24.1535 C   0  0  0  0  0  0  0  0  0  0  0  0
  -23.0235   -9.8272   20.1121 C   0  0  0  0  0  0  0  0  0  0  0  0
  -23.6353  -10.1201   22.4309 C   0  0  0  0  0  0  0  0  0  0  0  0
  -24.0781  -31.8894   22.7077 C   0  0  0  0  0  0  0  0  0  0  0  0
  -25.4255  -29.7186   23.8114 C   0  0  0  0  0  0  0  0  0  0  0  0
  -29.4042  -26.7481   22.8158 C   0  0  0  0  0  0  0  0  0  0  0  0
  -22.2329   -8.7316   20.4590 C   0  0  0  0  0  0  0  0  0  0  0  0
  -22.8446   -9.0245   22.7779 C   0  0  0  0  0  0  0  0  0  0  0  0
  -30.1144  -26.2483   23.9064 C   0  0  0  0  0  0  0  0  0  0  0  0
  -21.2734   -6.0855   24.2280 C   0  0  0  0  0  0  0  0  0  0  0  0
  -21.8109   -5.1531   25.1153 C   0  0  0  0  0  0  0  0  0  0  0  0
  -28.9570  -24.1432   23.6879 C   0  0  0  0  0  0  0  0  0  0  0  0
  -23.6145   -4.7197   23.5673 C   0  0  0  0  0  0  0  0  0  0  0  0
  -32.2392  -18.5269   21.6033 C   0  0  0  0  0  0  0  0  0  0  0  0
  -29.7506  -17.8461   22.2893 C   0  0  0  0  0  0  0  0  0  0  0  0
  -23.7247  -10.5214   21.0980 C   0  0  0  0  0  0  0  0  0  0  0  0
  -24.1447  -13.0017   20.6749 C   0  0  0  0  0  0  0  0  0  0  0  0
  -23.6968  -30.5874   22.3470 C   0  0  0  0  0  0  0  0  0  0  0  0
  -28.4556  -25.9514   22.1586 C   0  0  0  0  0  0  0  0  0  0  0  0
  -24.3705  -29.4878   22.9123 C   0  0  0  0  0  0  0  0  0  0  0  0
  -28.2379  -24.6343   22.5875 C   0  0  0  0  0  0  0  0  0  0  0  0
  -22.1434   -8.3303   21.7919 C   0  0  0  0  0  0  0  0  0  0  0  0
  -29.8888  -24.9467   24.3445 C   0  0  0  0  0  0  0  0  0  0  0  0
  -21.9063   -6.3350   23.0103 C   0  0  0  0  0  0  0  0  0  0  0  0
  -22.9814   -4.4702   24.7850 C   0  0  0  0  0  0  0  0  0  0  0  0
  -23.0769   -5.6521   22.6800 C   0  0  0  0  0  0  0  0  0  0  0  0
  -24.5421  -11.6528   20.7402 C   0  0  0  0  0  0  0  0  0  0  0  0
  -31.4120  -19.4169   22.2522 C   0  0  0  0  0  0  0  0  0  0  0  0
  -30.5774  -16.9562   21.6397 C   0  0  0  0  0  0  0  0  0  0  0  0
  -25.2786  -13.6754   20.2915 C   0  0  0  0  0  0  0  0  0  0  0  0
  -22.8652  -13.5929   20.9373 C   0  0  0  0  0  0  0  0  0  0  0  0
  -31.8516  -20.7834   22.6016 C   0  0  0  0  0  0  0  0  0  0  0  0
  -25.3210  -26.1416   21.6665 C   0  0  0  0  0  0  0  0  0  0  0  0
  -25.8475  -23.5323   19.8126 C   0  0  0  0  0  0  0  0  0  0  0  0
  -27.8083  -20.8309   19.1022 C   0  0  0  0  0  0  0  0  0  0  0  0
  -31.6219  -22.6801   24.1909 C   0  0  0  0  0  0  0  0  0  0  0  0
  -30.7498  -14.6272   20.6951 C   0  0  0  0  0  0  0  0  0  0  0  0
  -22.5270  -30.4061   21.4126 C   0  0  0  0  0  0  0  0  0  0  0  0
  -27.7170  -26.4964   20.9670 C   0  0  0  0  0  0  0  0  0  0  0  0
  -27.2450  -23.7315   21.9037 C   0  0  0  0  0  0  0  0  0  0  0  0
  -22.4373  -29.0048   20.8137 C   0  0  0  0  0  0  0  0  0  0  0  0
  -29.7212  -11.9459   18.5904 C   0  0  0  0  0  0  0  0  0  0  0  0
  -22.6256  -27.9480   21.8974 C   0  0  0  0  0  0  0  0  0  0  0  0
  -28.2494  -11.7416   18.9567 C   0  0  0  0  0  0  0  0  0  0  0  0
  -30.5638  -12.3123   19.8108 C   0  0  0  0  0  0  0  0  0  0  0  0
  -28.5938  -13.2491   20.9556 C   0  0  0  0  0  0  0  0  0  0  0  0
  -24.0099  -28.0643   22.5468 C   0  0  1  0  0  0  0  0  0  0  0  0
  -26.4041  -25.7691   20.6939 C   0  0  1  0  0  0  0  0  0  0  0  0
  -27.6936  -12.9420   19.7477 C   0  0  2  0  0  0  0  0  0  0  0  0
  -27.9619  -18.8604   17.5560 C   0  0  0  0  0  0  0  0  0  0  0  0
  -31.6190  -22.7253   26.6860 C   0  0  0  0  0  0  0  0  0  0  0  0
  -23.6661  -22.1145   21.4067 C   0  0  0  0  0  0  0  0  0  0  0  0
  -24.5093  -19.9408   20.4943 C   0  0  0  0  0  0  0  0  0  0  0  0
  -23.6107  -21.6771   18.9449 C   0  0  0  0  0  0  0  0  0  0  0  0
  -30.3895  -21.7577   17.9900 C   0  0  0  0  0  0  0  0  0  0  0  0
  -25.8581  -22.0406   20.0444 C   0  0  1  0  0  0  0  0  0  0  0  0
  -28.3655  -20.3077   17.7907 C   0  0  2  0  0  0  0  0  0  0  0  0
  -30.8346  -23.0526   25.4279 C   0  0  1  0  0  0  0  0  0  1  0  0
  -24.4284  -21.4606   20.2369 C   0  0  0  0  0  0  0  0  0  0  0  0
  -30.1530  -19.0925   22.6071 N   0  0  0  0  0  0  0  0  0  0  0  0
  -31.8366  -17.2806   21.2851 N   0  0  0  0  0  0  0  0  0  0  0  0
  -25.8278  -11.4780   20.4236 N   0  0  0  0  0  0  0  0  0  0  0  0
  -26.2483  -12.7260   20.1555 N   0  0  0  0  0  0  0  0  0  0  0  0
  -26.5432  -24.3123   20.7472 N   0  0  0  0  0  0  0  0  0  0  0  0
  -29.9793  -13.4602   20.5077 N   0  0  0  0  0  0  0  0  0  0  0  0
  -25.5308  -14.9814   20.0608 N   0  0  0  0  0  0  0  0  0  0  0  0
  -21.8085  -12.7559   21.3210 N   0  0  0  0  0  0  0  0  0  0  0  0
  -30.0779  -15.6642   21.3414 N   0  0  0  0  0  0  0  0  0  0  0  0
  -31.3210  -21.3584   23.6896 N   0  0  0  0  0  0  0  0  0  0  0  0
  -25.0218  -27.4905   21.6858 N   0  0  0  0  0  0  0  0  0  0  0  0
  -26.5934  -21.4590   18.9267 N   0  0  0  0  0  0  0  0  0  0  0  0
  -32.7522  -21.3664   21.8111 N   0  3  0  0  0  0  0  0  0  0  0  0
  -29.8537  -20.3863   17.7921 N   0  3  0  0  0  0  0  0  0  0  0  0
  -22.6606  -14.8248   20.8186 O   0  0  0  0  0  0  0  0  0  0  0  0
  -24.7947  -25.2695   22.3478 O   0  0  0  0  0  0  0  0  0  0  0  0
  -25.2502  -23.9880   18.8342 O   0  0  0  0  0  0  0  0  0  0  0  0
  -28.3906  -20.6927   20.1757 O   0  0  0  0  0  0  0  0  0  0  0  0
  -32.4264  -23.4100   23.6285 O   0  0  0  0  0  0  0  0  0  0  0  0
  -31.9108  -14.7108   20.2863 O   0  0  0  0  0  0  0  0  0  0  0  0
  -21.3719   -7.2615   22.1308 O   0  0  0  0  0  0  0  0  0  0  0  0
  -30.5802  -24.4566   25.4092 O   0  0  0  0  0  0  0  0  0  1  0  0
  -23.4984   -3.5760   25.6378 F   0  0  0  0  0  0  0  0  0  0  0  0
  -23.6902   -5.8884   21.5121 F   0  0  0  0  0  0  0  0  0  0  0  0
  1  2  1  0  0  0  0
  1  5  2  0  0  0  0
  2  6  2  0  0  0  0
  3  8  2  0  0  0  0
  3 17  1  0  0  0  0
  4  9  1  0  0  0  0
  4 17  2  0  0  0  0
  5 19  1  0  0  0  0
  6 21  1  0  0  0  0
  7 10  2  0  0  0  0
  7 20  1  0  0  0  0
  8 23  1  0  0  0  0
  9 23  2  0  0  0  0
 10 24  1  0  0  0  0
 11 12  2  0  0  0  0
 11 25  1  0  0  0  0
 12 26  1  0  0  0  0
 13 22  1  0  0  0  0
 13 24  2  0  0  0  0
 14 26  2  0  0  0  0
 14 27  1  0  0  0  0
 15 29  1  0  0  0  0
 15 62  2  0  0  0  0
 16 30  2  0  0  0  0
 16 61  1  0  0  0  0
 17 28  1  0  0  0  0
 18 28  1  0  0  0  0
 18 31  2  0  0  0  0
 18 32  1  0  0  0  0
 19 21  2  0  0  0  0
 19 39  1  0  0  0  0
 20 22  2  0  0  0  0
 20 40  1  0  0  0  0
 21 48  1  0  0  0  0
 22 41  1  0  0  0  0
 23 81  1  0  0  0  0
 24 82  1  0  0  0  0
 25 27  2  0  0  0  0
 25 81  1  0  0  0  0
 26 83  1  0  0  0  0
 27 84  1  0  0  0  0
 28 63  2  0  0  0  0
 29 33  1  0  0  0  0
 29 61  2  0  0  0  0
 30 62  1  0  0  0  0
 30 69  1  0  0  0  0
 31 64  1  0  0  0  0
 31 67  1  0  0  0  0
 32 68  1  0  0  0  0
 32 75  2  0  0  0  0
 33 70  1  0  0  0  0
 33 73  2  0  0  0  0
 34 49  1  0  0  0  0
 34 71  1  0  0  0  0
 34 76  2  0  0  0  0
 35 57  1  0  0  0  0
 35 65  1  0  0  0  0
 35 77  2  0  0  0  0
 36 58  1  0  0  0  0
 36 72  1  0  0  0  0
 36 78  2  0  0  0  0
 37 59  1  0  0  0  0
 37 70  1  0  0  0  0
 37 79  2  0  0  0  0
 38 66  1  0  0  0  0
 38 69  1  0  0  0  0
 38 80  2  0  0  0  0
 39 42  1  0  0  0  0
 40 49  1  0  0  0  0
 41 65  1  0  0  0  0
 42 44  1  0  0  0  0
 43 45  1  0  0  0  0
 43 46  1  0  0  0  0
 44 48  1  0  0  0  0
 45 50  1  0  0  0  0
 46 66  1  0  0  0  0
 47 50  1  0  0  0  0
 47 66  1  0  0  0  0
 48 71  1  0  0  0  0
 49 65  1  0  0  0  0
 50 64  1  0  0  0  0
 51 58  1  0  0  0  0
 52 59  1  0  0  0  0
 53 60  1  0  0  0  0
 54 60  1  0  0  0  0
 55 60  1  0  0  0  0
 56 74  1  0  0  0  0
 57 60  1  0  0  0  0
 57 72  1  0  0  0  0
 58 74  1  0  0  0  0
 59 82  1  0  0  0  0
 63 64  1  0  0  0  0
M  CHG  2  73   1  74   1
M  ISO  4  38 100  59 101  69 100  82 101
M  END
> <Batch ID>
0181

> <Smiles>
CNC(C)C(=O)NC(C(=O)N1Cc2cc([101O:1][101CH:1](C)C(=O)NC(=N)c3cnc([100NH:0][100C:0](=O)N4CCCC(n5nc(-c6ccc(Oc7ccc(F)cc7F)cc6)c(C(N)=O)c5N)C4)cn3)ccc2CC1C(=O)NC1CCCc2ccccc21)C(C)(C)C

> <Shape>
0.268

> <Color>
0.181

> <Negative vol penalty>
0.000

$$$$

  -OEChem-04052304533D

 85 93  0     1  0  0  0  0  0999 V2000
  -27.2752  -19.4357   14.6171 C   0  0  0  0  0  0  0  0  0  0  0  0
  -27.4074  -19.7112   15.9744 C   0  0  0  0  0  0  0  0  0  0  0  0
  -23.2004   -9.7572   19.8987 C   0  0  0  0  0  0  0  0  0  0  0  0
  -23.8745   -9.8365   22.2174 C   0  0  0  0  0  0  0  0  0  0  0  0
  -27.3181  -20.4749   13.6886 C   0  0  0  0  0  0  0  0  0  0  0  0
  -27.5837  -21.0261   16.4038 C   0  0  0  0  0  0  0  0  0  0  0  0
  -24.6903  -22.1694   20.3995 C   0  0  0  0  0  0  0  0  0  0  0  0
  -22.5102   -8.5693   20.1399 C   0  0  0  0  0  0  0  0  0  0  0  0
  -23.1842   -8.6487   22.4587 C   0  0  0  0  0  0  0  0  0  0  0  0
  -25.1167  -21.7129   21.6459 C   0  0  0  0  0  0  0  0  0  0  0  0
  -21.2998   -5.8278   23.7663 C   0  0  0  0  0  0  0  0  0  0  0  0
  -20.5046   -5.7598   24.9102 C   0  0  0  0  0  0  0  0  0  0  0  0
  -26.0105  -23.8996   22.1344 C   0  0  0  0  0  0  0  0  0  0  0  0
  -19.1866   -7.6173   24.1042 C   0  0  0  0  0  0  0  0  0  0  0  0
  -23.8827  -10.3907   20.9374 C   0  0  0  0  0  0  0  0  0  0  0  0
  -24.0941  -12.9287   20.7900 C   0  0  0  0  0  0  0  0  0  0  0  0
  -27.4854  -21.8042   14.1076 C   0  0  0  0  0  0  0  0  0  0  0  0
  -24.9308  -23.4938   20.0061 C   0  0  0  0  0  0  0  0  0  0  0  0
  -27.6303  -22.0839   15.4799 C   0  0  0  0  0  0  0  0  0  0  0  0
  -25.5839  -24.3712   20.8835 C   0  0  0  0  0  0  0  0  0  0  0  0
  -22.5020   -8.0151   21.4199 C   0  0  0  0  0  0  0  0  0  0  0  0
  -25.7795  -22.5771   22.5124 C   0  0  0  0  0  0  0  0  0  0  0  0
  -21.0385   -6.7905   22.7913 C   0  0  0  0  0  0  0  0  0  0  0  0
  -19.4480   -6.6546   25.0792 C   0  0  0  0  0  0  0  0  0  0  0  0
  -19.9818   -7.6853   22.9603 C   0  0  0  0  0  0  0  0  0  0  0  0
  -24.5964  -11.6175   20.6886 C   0  0  0  0  0  0  0  0  0  0  0  0
  -30.2175  -19.4211   23.0754 C   0  0  0  0  0  0  0  0  0  0  0  0
  -31.3638  -19.1021   22.3779 C   0  0  0  0  0  0  0  0  0  0  0  0
  -25.1575  -13.7305   20.4543 C   0  0  0  0  0  0  0  0  0  0  0  0
  -30.2348  -17.2565   22.0185 C   0  0  0  0  0  0  0  0  0  0  0  0
  -22.7836  -13.3814   21.1550 C   0  0  0  0  0  0  0  0  0  0  0  0
  -29.8556  -20.6434   23.8382 C   0  0  0  0  0  0  0  0  0  0  0  0
  -26.5695  -24.8738   17.6580 C   0  0  0  0  0  0  0  0  0  0  0  0
  -27.2139  -21.3099   26.3461 C   0  0  0  0  0  0  0  0  0  0  0  0
  -25.2225  -27.5802   18.8342 C   0  0  0  0  0  0  0  0  0  0  0  0
  -23.8124  -29.1976   21.4879 C   0  0  0  0  0  0  0  0  0  0  0  0
  -30.5505  -15.0699   20.8080 C   0  0  0  0  0  0  0  0  0  0  0  0
  -27.5729  -22.8889   13.0633 C   0  0  0  0  0  0  0  0  0  0  0  0
  -24.4408  -23.9781   18.6691 C   0  0  0  0  0  0  0  0  0  0  0  0
  -25.8486  -25.8079   20.5171 C   0  0  0  0  0  0  0  0  0  0  0  0
  -27.3875  -24.2948   13.6284 C   0  0  0  0  0  0  0  0  0  0  0  0
  -29.6530  -12.5675   18.4395 C   0  0  0  0  0  0  0  0  0  0  0  0
  -28.2284  -24.4792   14.8877 C   0  0  0  0  0  0  0  0  0  0  0  0
  -28.2162  -12.2051   18.8218 C   0  0  0  0  0  0  0  0  0  0  0  0
  -30.5102  -12.8615   19.6694 C   0  0  0  0  0  0  0  0  0  0  0  0
  -28.5183  -13.5016   20.9700 C   0  0  0  0  0  0  0  0  0  0  0  0
  -27.7982  -23.5000   15.9866 C   0  0  1  0  0  0  0  0  0  0  0  0
  -25.1945  -25.2051   18.1652 C   0  0  1  0  0  0  0  0  0  0  0  0
  -27.5997  -13.2603   19.7610 C   0  0  2  0  0  0  0  0  0  0  0  0
  -27.2270  -22.0960   27.6329 C   0  0  0  0  0  0  0  0  0  0  0  0
  -22.8443  -31.4144   22.1557 C   0  0  0  0  0  0  0  0  0  0  0  0
  -28.0347  -28.7494   19.0207 C   0  0  0  0  0  0  0  0  0  0  0  0
  -27.1221  -30.5215   20.5357 C   0  0  0  0  0  0  0  0  0  0  0  0
  -26.2956  -30.3425   18.1889 C   0  0  0  0  0  0  0  0  0  0  0  0
  -21.1720  -27.9977   22.0777 C   0  0  0  0  0  0  0  0  0  0  0  0
  -27.3630  -22.7468   24.2785 C   0  0  0  0  0  0  0  0  0  1  0  0
  -28.0962  -21.7618   25.1836 C   0  0  2  0  0  0  0  0  0  0  0  0
  -25.6057  -28.5967   19.8825 C   0  0  1  0  0  0  0  0  0  0  0  0
  -22.5473  -30.0285   21.6047 C   0  0  2  0  0  0  0  0  0  0  0  0
  -26.7614  -29.5250   19.4134 C   0  0  0  0  0  0  0  0  0  0  0  0
  -25.8790  -11.5838   20.3174 N   0  0  0  0  0  0  0  0  0  0  0  0
  -31.3757  -17.8612   21.7716 N   0  0  0  0  0  0  0  0  0  0  0  0
  -26.1917  -12.8839   20.1825 N   0  0  0  0  0  0  0  0  0  0  0  0
  -25.3557  -26.2323   19.1963 N   0  0  0  0  0  0  0  0  0  0  0  0
  -29.8656  -13.8729   20.5100 N   0  0  0  0  0  0  0  0  0  0  0  0
  -32.4341  -19.9251   22.2676 N   0  0  0  0  0  0  0  0  0  0  0  0
  -25.2995  -15.0702   20.3679 N   0  0  0  0  0  0  0  0  0  0  0  0
  -21.8097  -12.4240   21.4701 N   0  0  0  0  0  0  0  0  0  0  0  0
  -29.8255  -15.9700   21.5882 N   0  0  0  0  0  0  0  0  0  0  0  0
  -28.6000  -20.6424   24.4327 N   0  0  0  0  0  0  0  0  0  0  0  0
  -26.5820  -23.9576   16.6236 N   0  0  0  0  0  0  0  0  0  0  0  0
  -24.3782  -29.3022   20.2349 N   0  0  0  0  0  0  0  0  0  0  0  0
  -21.5713  -29.3612   22.5119 N   0  3  0  0  0  0  0  0  0  0  0  0
  -22.4804  -14.5982   21.1845 O   0  0  0  0  0  0  0  0  0  0  0  0
  -30.6517  -21.5773   23.8882 O   0  0  0  0  0  0  0  0  0  0  0  0
  -27.5467  -25.4109   18.1664 O   0  0  0  0  0  0  0  0  0  0  0  0
  -26.4760  -20.3279   26.2284 O   0  0  0  0  0  0  0  0  0  0  0  0
  -24.8131  -27.9679   17.7370 O   0  0  0  0  0  0  0  0  0  0  0  0
  -24.2564  -28.5262   22.4166 O   0  0  0  0  0  0  0  0  0  0  0  0
  -31.6854  -15.2924   20.3785 O   0  0  0  0  0  0  0  0  0  0  0  0
  -21.8284   -6.8562   21.6558 O   0  0  0  0  0  0  0  0  0  0  0  0
  -26.1973  -22.1339   23.7292 O   0  0  0  0  0  0  0  0  0  1  0  0
  -18.6835   -6.5882   26.1770 F   0  0  0  0  0  0  0  0  0  0  0  0
  -19.7251   -8.6116   22.0266 F   0  0  0  0  0  0  0  0  0  0  0  0
  -29.1018  -18.1226   22.9731 S   0  0  0  0  0  0  0  0  0  0  0  0
  1  2  1  0  0  0  0
  1  5  2  0  0  0  0
  2  6  2  0  0  0  0
  3  8  2  0  0  0  0
  3 15  1  0  0  0  0
  4  9  1  0  0  0  0
  4 15  2  0  0  0  0
  5 17  1  0  0  0  0
  6 19  1  0  0  0  0
  7 10  2  0  0  0  0
  7 18  1  0  0  0  0
  8 21  1  0  0  0  0
  9 21  2  0  0  0  0
 10 22  1  0  0  0  0
 11 12  2  0  0  0  0
 11 23  1  0  0  0  0
 12 24  1  0  0  0  0
 13 20  1  0  0  0  0
 13 22  2  0  0  0  0
 14 24  2  0  0  0  0
 14 25  1  0  0  0  0
 15 26  1  0  0  0  0
 16 26  1  0  0  0  0
 16 29  2  0  0  0  0
 16 31  1  0  0  0  0
 17 19  2  0  0  0  0
 17 38  1  0  0  0  0
 18 20  2  0  0  0  0
 18 39  1  0  0  0  0
 19 47  1  0  0  0  0
 20 40  1  0  0  0  0
 21 81  1  0  0  0  0
 22 82  1  0  0  0  0
 23 25  2  0  0  0  0
 23 81  1  0  0  0  0
 24 83  1  0  0  0  0
 25 84  1  0  0  0  0
 26 61  2  0  0  0  0
 27 28  2  0  0  0  0
 27 32  1  0  0  0  0
 27 85  1  0  0  0  0
 28 62  1  0  0  0  0
 28 66  1  0  0  0  0
 29 63  1  0  0  0  0
 29 67  1  0  0  0  0
 30 62  2  0  0  0  0
 30 69  1  0  0  0  0
 30 85  1  0  0  0  0
 31 68  1  0  0  0  0
 31 74  2  0  0  0  0
 32 70  1  0  0  0  0
 32 75  2  0  0  0  0
 33 48  1  0  0  0  0
 33 71  1  0  0  0  0
 33 76  2  0  0  0  0
 34 50  1  0  0  0  0
 34 57  1  0  0  0  0
 34 77  2  0  0  0  0
 35 58  1  0  0  0  0
 35 64  1  0  0  0  0
 35 78  2  0  0  0  0
 36 59  1  0  0  0  0
 36 72  1  0  0  0  0
 36 79  2  0  0  0  0
 37 65  1  0  0  0  0
 37 69  1  0  0  0  0
 37 80  2  0  0  0  0
 38 41  1  0  0  0  0
 39 48  1  0  0  0  0
 40 64  1  0  0  0  0
 41 43  1  0  0  0  0
 42 44  1  0  0  0  0
 42 45  1  0  0  0  0
 43 47  1  0  0  0  0
 44 49  1  0  0  0  0
 45 65  1  0  0  0  0
 46 49  1  0  0  0  0
 46 65  1  0  0  0  0
 47 71  1  0  0  0  0
 48 64  1  0  0  0  0
 49 63  1  0  0  0  0
 51 59  1  0  0  0  0
 52 60  1  0  0  0  0
 53 60  1  0  0  0  0
 54 60  1  0  0  0  0
 55 73  1  0  0  0  0
 56 57  1  0  0  0  0
 56 82  1  0  0  0  0
 57 70  1  0  0  0  0
 58 60  1  0  0  0  0
 58 72  1  0  0  0  0
 59 73  1  0  0  0  0
 61 63  1  0  0  0  0
M  CHG  1  73   1
M  ISO  4  37 100  56 101  69 100  82 101
M  END
> <Batch ID>
0181

> <Smiles>
CNC(C)C(=O)NC(C(=O)N1Cc2cc([101O:1][101CH2:1]C(NC(=O)c3sc([100NH:0][100C:0](=O)N4CCCC(n5nc(-c6ccc(Oc7ccc(F)cc7F)cc6)c(C(N)=O)c5N)C4)nc3N)C(C)=O)ccc2CC1C(=O)NC1CCCc2ccccc21)C(C)(C)C

> <Shape>
0.244

> <Color>
0.196

> <Negative vol penalty>
0.000

$$$$

  -OEChem-04052304533D

 85 93  0     1  0  0  0  0  0999 V2000
  -20.8469  -18.9725   24.9432 C   0  0  0  0  0  0  0  0  0  0  0  0
  -22.1744  -19.3866   24.9841 C   0  0  0  0  0  0  0  0  0  0  0  0
  -25.7795  -13.8509   21.4172 C   0  0  0  0  0  0  0  0  0  0  0  0
  -25.0904  -14.5890   19.2223 C   0  0  0  0  0  0  0  0  0  0  0  0
  -19.9685  -19.5413   24.0219 C   0  0  0  0  0  0  0  0  0  0  0  0
  -22.6246  -20.3691   24.1029 C   0  0  0  0  0  0  0  0  0  0  0  0
  -27.2847  -25.7946   23.6981 C   0  0  0  0  0  0  0  0  0  0  0  0
  -24.7454  -12.9149   21.4270 C   0  0  0  0  0  0  0  0  0  0  0  0
  -24.0563  -13.6529   19.2321 C   0  0  0  0  0  0  0  0  0  0  0  0
  -28.3162  -26.2704   22.8898 C   0  0  0  0  0  0  0  0  0  0  0  0
  -24.1330   -9.8655   20.1007 C   0  0  0  0  0  0  0  0  0  0  0  0
  -24.4325   -8.5732   20.5317 C   0  0  0  0  0  0  0  0  0  0  0  0
  -26.6897  -27.2387   21.3945 C   0  0  0  0  0  0  0  0  0  0  0  0
  -22.8092   -8.7894   22.3080 C   0  0  0  0  0  0  0  0  0  0  0  0
  -30.2861  -22.4708   16.3510 C   0  0  0  0  0  0  0  0  0  0  0  0
  -25.9520  -14.6880   20.3148 C   0  0  0  0  0  0  0  0  0  0  0  0
  -28.3316  -15.4686   19.8293 C   0  0  0  0  0  0  0  0  0  0  0  0
  -20.4058  -20.5381   23.1355 C   0  0  0  0  0  0  0  0  0  0  0  0
  -25.9454  -26.0283   23.3543 C   0  0  0  0  0  0  0  0  0  0  0  0
  -21.7515  -20.9508   23.1680 C   0  0  0  0  0  0  0  0  0  0  0  0
  -25.6431  -26.7670   22.2014 C   0  0  0  0  0  0  0  0  0  0  0  0
  -23.8838  -12.8159   20.3345 C   0  0  0  0  0  0  0  0  0  0  0  0
  -28.0188  -26.9900   21.7363 C   0  0  0  0  0  0  0  0  0  0  0  0
  -23.1716  -10.6198   20.7734 C   0  0  0  0  0  0  0  0  0  0  0  0
  -23.7706   -8.0351   21.6353 C   0  0  0  0  0  0  0  0  0  0  0  0
  -22.5097  -10.0818   21.8770 C   0  0  0  0  0  0  0  0  0  0  0  0
  -31.1528  -23.2192   15.5624 C   0  0  0  0  0  0  0  0  0  0  0  0
  -31.8431  -24.2894   16.1206 C   0  0  0  0  0  0  0  0  0  0  0  0
  -27.0196  -15.6555   20.3042 C   0  0  0  0  0  0  0  0  0  0  0  0
  -30.1458  -22.8306   17.6817 C   0  0  0  0  0  0  0  0  0  0  0  0
  -31.6329  -24.5679   17.4616 C   0  0  0  0  0  0  0  0  0  0  0  0
  -28.9489  -16.6771   20.0410 C   0  0  0  0  0  0  0  0  0  0  0  0
  -28.9380  -14.3064   19.2485 C   0  0  0  0  0  0  0  0  0  0  0  0
  -23.4601  -24.1829   22.6322 C   0  0  0  0  0  0  0  0  0  0  0  0
  -30.9138  -26.8255   19.5675 C   0  0  0  0  0  0  0  0  0  0  0  0
  -21.8540  -27.0011   22.6672 C   0  0  0  0  0  0  0  0  0  0  0  0
  -21.9579  -30.3988   22.3652 C   0  0  0  0  0  0  0  0  0  0  0  0
  -28.9664  -22.2411   19.8283 C   0  0  0  0  0  0  0  0  0  0  0  0
  -19.4310  -21.0898   22.1255 C   0  0  0  0  0  0  0  0  0  0  0  0
  -24.8448  -25.5313   24.2510 C   0  0  0  0  0  0  0  0  0  0  0  0
  -24.2221  -27.0624   21.7989 C   0  0  0  0  0  0  0  0  0  0  0  0
  -19.8957  -22.3922   21.4788 C   0  0  0  0  0  0  0  0  0  0  0  0
  -27.4389  -20.7316   22.6682 C   0  0  0  0  0  0  0  0  0  0  0  0
  -21.3532  -22.2812   21.0426 C   0  0  0  0  0  0  0  0  0  0  0  0
  -27.3016  -19.2611   22.2673 C   0  0  0  0  0  0  0  0  0  0  0  0
  -27.2040  -21.6668   21.4834 C   0  0  0  0  0  0  0  0  0  0  0  0
  -27.8813  -19.9100   19.8946 C   0  0  0  0  0  0  0  0  0  0  0  0
  -22.2715  -22.0316   22.2451 C   0  0  1  0  0  0  0  0  0  0  0  0
  -23.5075  -25.3859   23.5313 C   0  0  1  0  0  0  0  0  0  0  0  0
  -28.1731  -18.9277   21.0406 C   0  0  2  0  0  0  0  0  0  0  0  0
  -33.4083  -26.8964   19.7680 C   0  0  0  0  0  0  0  0  0  0  0  0
  -20.4794  -32.4261   22.4049 C   0  0  0  0  0  0  0  0  0  0  0  0
  -20.8468  -26.3183   19.8691 C   0  0  0  0  0  0  0  0  0  0  0  0
  -20.1929  -28.7194   19.5942 C   0  0  0  0  0  0  0  0  0  0  0  0
  -19.1299  -27.3352   21.3766 C   0  0  0  0  0  0  0  0  0  0  0  0
  -23.3970  -31.5461   24.6828 C   0  0  0  0  0  0  0  0  0  0  0  0
  -30.2322  -26.6967   20.9174 C   0  0  0  0  0  0  0  0  0  1  0  0
  -32.2084  -26.0450   19.3884 C   0  0  2  0  0  0  0  0  0  0  0  0
  -21.5364  -28.0633   21.6426 C   0  0  1  0  0  0  0  0  0  0  0  0
  -21.3705  -31.5048   23.2233 C   0  0  2  0  0  0  0  0  0  0  0  0
  -20.4533  -27.6020   20.6269 C   0  0  0  0  0  0  0  0  0  0  0  0
  -26.8146  -16.8859   20.7818 N   0  0  0  0  0  0  0  0  0  0  0  0
  -30.7992  -23.8635   18.2594 N   0  0  0  0  0  0  0  0  0  0  0  0
  -28.0060  -17.4830   20.6081 N   0  0  0  0  0  0  0  0  0  0  0  0
  -23.1810  -26.5498   22.7048 N   0  0  0  0  0  0  0  0  0  0  0  0
  -28.0667  -21.2933   20.3604 N   0  0  0  0  0  0  0  0  0  0  0  0
  -30.2008  -17.1184   19.7956 N   0  0  0  0  0  0  0  0  0  0  0  0
  -28.1611  -13.1489   19.1040 N   0  0  0  0  0  0  0  0  0  0  0  0
  -29.2603  -22.0617   18.4770 N   0  0  0  0  0  0  0  0  0  0  0  0
  -32.3255  -25.6357   18.0060 N   0  0  0  0  0  0  0  0  0  0  0  0
  -22.4907  -23.2606   22.9773 N   0  0  0  0  0  0  0  0  0  0  0  0
  -21.1789  -29.2615   22.3943 N   0  0  0  0  0  0  0  0  0  0  0  0
  -22.4585  -32.3216   23.8315 N   0  3  0  0  0  0  0  0  0  0  0  0
  -30.1382  -14.2896   18.8841 O   0  0  0  0  0  0  0  0  0  0  0  0
  -24.2438  -24.0986   21.6939 O   0  0  0  0  0  0  0  0  0  0  0  0
  -30.4443  -27.5323   18.6752 O   0  0  0  0  0  0  0  0  0  0  0  0
  -20.9595  -26.5921   23.4116 O   0  0  0  0  0  0  0  0  0  0  0  0
  -23.0013  -30.5319   21.7294 O   0  0  0  0  0  0  0  0  0  0  0  0
  -29.4621  -23.1288   20.5269 O   0  0  0  0  0  0  0  0  0  0  0  0
  -22.8748  -11.9024   20.3437 O   0  0  0  0  0  0  0  0  0  0  0  0
  -29.0237  -27.4550   20.9452 O   0  0  0  0  0  0  0  0  0  1  0  0
  -24.0572   -6.7935   22.0482 F   0  0  0  0  0  0  0  0  0  0  0  0
  -21.5843  -10.8012   22.5265 F   0  0  0  0  0  0  0  0  0  0  0  0
  -31.3223  -22.9105   14.2703 F   0  0  0  0  0  0  0  0  0  0  0  0
  -32.6810  -25.0188   15.3730 F   0  0  0  0  0  0  0  0  0  0  0  0
  1  2  1  0  0  0  0
  1  5  2  0  0  0  0
  2  6  2  0  0  0  0
  3  8  2  0  0  0  0
  3 16  1  0  0  0  0
  4  9  1  0  0  0  0
  4 16  2  0  0  0  0
  5 18  1  0  0  0  0
  6 20  1  0  0  0  0
  7 10  2  0  0  0  0
  7 19  1  0  0  0  0
  8 22  1  0  0  0  0
  9 22  2  0  0  0  0
 10 23  1  0  0  0  0
 11 12  2  0  0  0  0
 11 24  1  0  0  0  0
 12 25  1  0  0  0  0
 13 21  1  0  0  0  0
 13 23  2  0  0  0  0
 14 25  2  0  0  0  0
 14 26  1  0  0  0  0
 15 27  2  0  0  0  0
 15 30  1  0  0  0  0
 16 29  1  0  0  0  0
 17 29  1  0  0  0  0
 17 32  2  0  0  0  0
 17 33  1  0  0  0  0
 18 20  2  0  0  0  0
 18 39  1  0  0  0  0
 19 21  2  0  0  0  0
 19 40  1  0  0  0  0
 20 48  1  0  0  0  0
 21 41  1  0  0  0  0
 22 80  1  0  0  0  0
 23 81  1  0  0  0  0
 24 26  2  0  0  0  0
 24 80  1  0  0  0  0
 25 82  1  0  0  0  0
 26 83  1  0  0  0  0
 27 28  1  0  0  0  0
 27 84  1  0  0  0  0
 28 31  2  0  0  0  0
 28 85  1  0  0  0  0
 29 62  2  0  0  0  0
 30 63  2  0  0  0  0
 30 69  1  0  0  0  0
 31 63  1  0  0  0  0
 31 70  1  0  0  0  0
 32 64  1  0  0  0  0
 32 67  1  0  0  0  0
 33 68  1  0  0  0  0
 33 74  2  0  0  0  0
 34 49  1  0  0  0  0
 34 71  1  0  0  0  0
 34 75  2  0  0  0  0
 35 57  1  0  0  0  0
 35 58  1  0  0  0  0
 35 76  2  0  0  0  0
 36 59  1  0  0  0  0
 36 65  1  0  0  0  0
 36 77  2  0  0  0  0
 37 60  1  0  0  0  0
 37 72  1  0  0  0  0
 37 78  2  0  0  0  0
 38 66  1  0  0  0  0
 38 69  1  0  0  0  0
 38 79  2  0  0  0  0
 39 42  1  0  0  0  0
 40 49  1  0  0  0  0
 41 65  1  0  0  0  0
 42 44  1  0  0  0  0
 43 45  1  0  0  0  0
 43 46  1  0  0  0  0
 44 48  1  0  0  0  0
 45 50  1  0  0  0  0
 46 66  1  0  0  0  0
 47 50  1  0  0  0  0
 47 66  1  0  0  0  0
 48 71  1  0  0  0  0
 49 65  1  0  0  0  0
 50 64  1  0  0  0  0
 51 58  1  0  0  0  0
 52 60  1  0  0  0  0
 53 61  1  0  0  0  0
 54 61  1  0  0  0  0
 55 61  1  0  0  0  0
 56 73  1  0  0  0  0
 57 81  1  0  0  0  0
 58 70  1  0  0  0  0
 59 61  1  0  0  0  0
 59 72  1  0  0  0  0
 60 73  1  0  0  0  0
 62 64  1  0  0  0  0
M  CHG  1  73   1
M  ISO  4  38 100  57 101  69 100  81 101
M  END
> <Batch ID>
0181

> <Smiles>
CNC(C)C(=O)NC(C(=O)N1Cc2cc([101O:1][101CH2:1]C(=O)C(C)Nc3nc([100NH:0][100C:0](=O)N4CCCC(n5nc(-c6ccc(Oc7ccc(F)cc7F)cc6)c(C(N)=O)c5N)C4)cc(F)c3F)ccc2CC1C(=O)NC1CCCc2ccccc21)C(C)(C)C

> <Shape>
0.237

> <Color>
0.057

> <Negative vol penalty>
0.000

$$$$
