
  -OEChem-04052304563D

 87 95  0     1  0  0  0  0  0999 V2000
  -33.6718  -31.4552   25.5477 C   0  0  0  0  0  0  0  0  0  0  0  0
  -34.0574  -30.1777   25.1548 C   0  0  0  0  0  0  0  0  0  0  0  0
  -23.0003   -9.8916   19.9819 C   0  0  0  0  0  0  0  0  0  0  0  0
  -23.7259   -9.9448   22.2858 C   0  0  0  0  0  0  0  0  0  0  0  0
  -32.8026  -32.1966   24.7484 C   0  0  0  0  0  0  0  0  0  0  0  0
  -33.5732  -29.6402   23.9627 C   0  0  0  0  0  0  0  0  0  0  0  0
  -36.5556  -25.9143   20.1249 C   0  0  0  0  0  0  0  0  0  0  0  0
  -22.2345   -8.7569   20.2493 C   0  0  0  0  0  0  0  0  0  0  0  0
  -22.9600   -8.8101   22.5532 C   0  0  0  0  0  0  0  0  0  0  0  0
  -36.5335  -24.5308   19.9540 C   0  0  0  0  0  0  0  0  0  0  0  0
  -23.2061   -5.4709   22.0839 C   0  0  0  0  0  0  0  0  0  0  0  0
  -23.7943   -4.4547   22.8367 C   0  0  0  0  0  0  0  0  0  0  0  0
  -34.9270  -24.7826   18.1721 C   0  0  0  0  0  0  0  0  0  0  0  0
  -22.0706   -4.6980   24.5121 C   0  0  0  0  0  0  0  0  0  0  0  0
  -23.7461  -10.4855   21.0001 C   0  0  0  0  0  0  0  0  0  0  0  0
  -24.1300  -13.0012   20.8220 C   0  0  0  0  0  0  0  0  0  0  0  0
  -32.3152  -31.6717   23.5411 C   0  0  0  0  0  0  0  0  0  0  0  0
  -35.7541  -26.7430   19.3266 C   0  0  0  0  0  0  0  0  0  0  0  0
  -32.6957  -30.3747   23.1471 C   0  0  0  0  0  0  0  0  0  0  0  0
  -34.9428  -26.1765   18.3331 C   0  0  0  0  0  0  0  0  0  0  0  0
  -22.2143   -8.2162   21.5349 C   0  0  0  0  0  0  0  0  0  0  0  0
  -35.7170  -23.9645   18.9795 C   0  0  0  0  0  0  0  0  0  0  0  0
  -22.0501   -6.1008   22.5452 C   0  0  0  0  0  0  0  0  0  0  0  0
  -23.2266   -4.0682   24.0508 C   0  0  0  0  0  0  0  0  0  0  0  0
  -21.4824   -5.7144   23.7593 C   0  0  0  0  0  0  0  0  0  0  0  0
  -24.5379  -11.6573   20.7244 C   0  0  0  0  0  0  0  0  0  0  0  0
  -31.8407  -18.6682   22.2028 C   0  0  0  0  0  0  0  0  0  0  0  0
  -25.2393  -13.7241   20.4568 C   0  0  0  0  0  0  0  0  0  0  0  0
  -30.7339  -19.0707   22.9205 C   0  0  0  0  0  0  0  0  0  0  0  0
  -30.5802  -16.9023   21.8826 C   0  0  0  0  0  0  0  0  0  0  0  0
  -22.8619  -13.5472   21.2084 C   0  0  0  0  0  0  0  0  0  0  0  0
  -33.0780  -19.4750   22.0439 C   0  0  0  0  0  0  0  0  0  0  0  0
  -33.3770  -28.7778   19.8854 C   0  0  0  0  0  0  0  0  0  0  0  0
  -35.1857  -20.4998   19.8781 C   0  0  0  0  0  0  0  0  0  0  0  0
  -33.6952  -29.4123   16.7202 C   0  0  0  0  0  0  0  0  0  0  0  0
  -34.7198  -28.3536   13.6418 C   0  0  0  0  0  0  0  0  0  0  0  0
  -30.7184  -14.6882   20.6889 C   0  0  0  0  0  0  0  0  0  0  0  0
  -31.3405  -32.4921   22.7339 C   0  0  0  0  0  0  0  0  0  0  0  0
  -35.8095  -28.2354   19.5054 C   0  0  0  0  0  0  0  0  0  0  0  0
  -34.0786  -27.0237   17.4365 C   0  0  0  0  0  0  0  0  0  0  0  0
  -31.1684  -31.9968   21.3003 C   0  0  0  0  0  0  0  0  0  0  0  0
  -29.6009  -12.2330   18.3651 C   0  0  0  0  0  0  0  0  0  0  0  0
  -30.9818  -30.4831   21.2772 C   0  0  0  0  0  0  0  0  0  0  0  0
  -28.1505  -11.9749   18.7797 C   0  0  0  0  0  0  0  0  0  0  0  0
  -30.5015  -12.4778   19.5745 C   0  0  0  0  0  0  0  0  0  0  0  0
  -28.5860  -13.2666   20.9078 C   0  0  0  0  0  0  0  0  0  0  0  0
  -32.2114  -29.7669   21.8486 C   0  0  1  0  0  0  0  0  0  0  0  0
  -34.5656  -28.9465   18.9818 C   0  0  1  0  0  0  0  0  0  0  0  0
  -27.6282  -13.0789   19.7200 C   0  0  2  0  0  0  0  0  0  0  0  0
  -34.8146  -29.0770   11.2407 C   0  0  0  0  0  0  0  0  0  0  0  0
  -36.3729  -17.6994   19.5942 C   0  0  0  0  0  0  0  0  0  0  0  0
  -36.7080  -17.6673   22.0775 C   0  0  0  0  0  0  0  0  0  0  0  0
  -30.7105  -28.8464   16.4344 C   0  0  0  0  0  0  0  0  0  0  0  0
  -31.0559  -28.6473   13.9627 C   0  0  0  0  0  0  0  0  0  0  0  0
  -31.5314  -30.8071   15.1168 C   0  0  0  0  0  0  0  0  0  0  0  0
  -37.6749  -28.1991   13.5911 C   0  0  0  0  0  0  0  0  0  0  0  0
  -35.9431  -21.8115   19.9640 C   0  0  0  0  0  0  0  0  0  1  0  0
  -35.3538  -19.5465   21.0581 C   0  0  2  0  0  0  0  0  0  0  0  0
  -33.0982  -28.8514   15.4521 C   0  0  1  0  0  0  0  0  0  0  0  0
  -35.5532  -29.0317   12.5693 C   0  0  2  0  0  0  0  0  0  0  0  0
  -36.5219  -18.5645   20.8498 C   0  0  0  0  0  0  0  0  0  0  0  0
  -31.6137  -29.2717   15.2595 C   0  0  0  0  0  0  0  0  0  0  0  0
  -25.8072  -11.5312   20.3281 N   0  0  0  0  0  0  0  0  0  0  0  0
  -31.7546  -17.4250   21.6073 N   0  0  0  0  0  0  0  0  0  0  0  0
  -26.2064  -12.8051   20.1733 N   0  0  0  0  0  0  0  0  0  0  0  0
  -34.1629  -28.4773   17.6544 N   0  0  0  0  0  0  0  0  0  0  0  0
  -29.9461  -13.5390   20.4171 N   0  0  0  0  0  0  0  0  0  0  0  0
  -25.4721  -15.0498   20.3536 N   0  0  0  0  0  0  0  0  0  0  0  0
  -30.5488  -20.2294   23.5995 N   0  0  0  0  0  0  0  0  0  0  0  0
  -21.8306  -12.6628   21.5528 N   0  0  0  0  0  0  0  0  0  0  0  0
  -30.0738  -15.6436   21.4739 N   0  0  0  0  0  0  0  0  0  0  0  0
  -34.0870  -18.8996   21.2829 N   0  0  0  0  0  0  0  0  0  0  0  0
  -33.2796  -29.7399   20.8725 N   0  0  0  0  0  0  0  0  0  0  0  0
  -33.9818  -29.2648   14.3673 N   0  0  0  0  0  0  0  0  0  0  0  0
  -36.8355  -28.2991   12.3694 N   0  3  0  0  0  0  0  0  0  0  0  0
  -22.6445  -14.7824   21.2312 O   0  0  0  0  0  0  0  0  0  0  0  0
  -33.1548  -20.5705   22.5939 O   0  0  0  0  0  0  0  0  0  0  0  0
  -32.6045  -27.8447   19.6998 O   0  0  0  0  0  0  0  0  0  0  0  0
  -34.5005  -20.2139   18.8959 O   0  0  0  0  0  0  0  0  0  0  0  0
  -33.7511  -30.6350   16.8729 O   0  0  0  0  0  0  0  0  0  0  0  0
  -34.7204  -27.1370   13.8160 O   0  0  0  0  0  0  0  0  0  0  0  0
  -31.8569  -14.8273   20.2346 O   0  0  0  0  0  0  0  0  0  0  0  0
  -21.4669   -7.1091   21.7963 O   0  0  0  0  0  0  0  0  0  0  0  0
  -35.6929  -22.6144   18.8111 O   0  0  0  0  0  0  0  0  0  1  0  0
  -23.7907   -3.0912   24.7729 F   0  0  0  0  0  0  0  0  0  0  0  0
  -20.3713   -6.3150   24.2071 F   0  0  0  0  0  0  0  0  0  0  0  0
  -29.5295  -17.8516   22.8521 S   0  0  0  0  0  0  0  0  0  0  0  0
  1  2  1  0  0  0  0
  1  5  2  0  0  0  0
  2  6  2  0  0  0  0
  3  8  2  0  0  0  0
  3 15  1  0  0  0  0
  4  9  1  0  0  0  0
  4 15  2  0  0  0  0
  5 17  1  0  0  0  0
  6 19  1  0  0  0  0
  7 10  2  0  0  0  0
  7 18  1  0  0  0  0
  8 21  1  0  0  0  0
  9 21  2  0  0  0  0
 10 22  1  0  0  0  0
 11 12  2  0  0  0  0
 11 23  1  0  0  0  0
 12 24  1  0  0  0  0
 13 20  1  0  0  0  0
 13 22  2  0  0  0  0
 14 24  2  0  0  0  0
 14 25  1  0  0  0  0
 15 26  1  0  0  0  0
 16 26  1  0  0  0  0
 16 28  2  0  0  0  0
 16 31  1  0  0  0  0
 17 19  2  0  0  0  0
 17 38  1  0  0  0  0
 18 20  2  0  0  0  0
 18 39  1  0  0  0  0
 19 47  1  0  0  0  0
 20 40  1  0  0  0  0
 21 83  1  0  0  0  0
 22 84  1  0  0  0  0
 23 25  2  0  0  0  0
 23 83  1  0  0  0  0
 24 85  1  0  0  0  0
 25 86  1  0  0  0  0
 26 63  2  0  0  0  0
 27 29  2  0  0  0  0
 27 32  1  0  0  0  0
 27 64  1  0  0  0  0
 28 65  1  0  0  0  0
 28 68  1  0  0  0  0
 29 69  1  0  0  0  0
 29 87  1  0  0  0  0
 30 64  2  0  0  0  0
 30 71  1  0  0  0  0
 30 87  1  0  0  0  0
 31 70  1  0  0  0  0
 31 76  2  0  0  0  0
 32 72  1  0  0  0  0
 32 77  2  0  0  0  0
 33 48  1  0  0  0  0
 33 73  1  0  0  0  0
 33 78  2  0  0  0  0
 34 57  1  0  0  0  0
 34 58  1  0  0  0  0
 34 79  2  0  0  0  0
 35 59  1  0  0  0  0
 35 66  1  0  0  0  0
 35 80  2  0  0  0  0
 36 60  1  0  0  0  0
 36 74  1  0  0  0  0
 36 81  2  0  0  0  0
 37 67  1  0  0  0  0
 37 71  1  0  0  0  0
 37 82  2  0  0  0  0
 38 41  1  0  0  0  0
 39 48  1  0  0  0  0
 40 66  1  0  0  0  0
 41 43  1  0  0  0  0
 42 44  1  0  0  0  0
 42 45  1  0  0  0  0
 43 47  1  0  0  0  0
 44 49  1  0  0  0  0
 45 67  1  0  0  0  0
 46 49  1  0  0  0  0
 46 67  1  0  0  0  0
 47 73  1  0  0  0  0
 48 66  1  0  0  0  0
 49 65  1  0  0  0  0
 50 60  1  0  0  0  0
 51 61  1  0  0  0  0
 52 61  1  0  0  0  0
 53 62  1  0  0  0  0
 54 62  1  0  0  0  0
 55 62  1  0  0  0  0
 56 75  1  0  0  0  0
 57 84  1  0  0  0  0
 58 61  1  0  0  0  0
 58 72  1  0  0  0  0
 59 62  1  0  0  0  0
 59 74  1  0  0  0  0
 60 75  1  0  0  0  0
 63 65  1  0  0  0  0
M  CHG  1  75   1
M  ISO  4  37 100  57 101  71 100  84 101
M  END
> <Batch ID>
0182

> <Smiles>
CNC(C)C(=O)NC(C(=O)N1Cc2cc([101O:1][101CH2:1]C(=O)C(NC(=O)c3nc([100NH:0][100C:0](=O)N4CCCC(n5nc(-c6ccc(Oc7ccc(F)cc7F)cc6)c(C(N)=O)c5N)C4)sc3N)C(C)C)ccc2CC1C(=O)NC1CCCc2ccccc21)C(C)(C)C

> <Shape>
0.174

> <Color>
0.179

> <Negative vol penalty>
0.000

$$$$

  -OEChem-04052304563D

 83 91  0     1  0  0  0  0  0999 V2000
  -20.9347  -32.6126   28.1871 C   0  0  0  0  0  0  0  0  0  0  0  0
  -21.9322  -31.6781   27.9283 C   0  0  0  0  0  0  0  0  0  0  0  0
  -23.1497   -9.8386   21.6318 C   0  0  0  0  0  0  0  0  0  0  0  0
  -23.8759  -11.0406   23.5978 C   0  0  0  0  0  0  0  0  0  0  0  0
  -20.0063  -32.9318   27.1971 C   0  0  0  0  0  0  0  0  0  0  0  0
  -22.0014  -31.0614   26.6796 C   0  0  0  0  0  0  0  0  0  0  0  0
  -26.7509  -28.4172   22.0142 C   0  0  0  0  0  0  0  0  0  0  0  0
  -22.4412   -8.9478   22.4381 C   0  0  0  0  0  0  0  0  0  0  0  0
  -23.1673  -10.1498   24.4041 C   0  0  0  0  0  0  0  0  0  0  0  0
  -27.0134  -27.2587   21.2842 C   0  0  0  0  0  0  0  0  0  0  0  0
  -23.1197   -6.2638   24.3772 C   0  0  0  0  0  0  0  0  0  0  0  0
  -23.2344   -4.9028   24.0942 C   0  0  0  0  0  0  0  0  0  0  0  0
  -25.4039  -27.9471   19.6244 C   0  0  0  0  0  0  0  0  0  0  0  0
  -20.8510   -4.7802   23.7181 C   0  0  0  0  0  0  0  0  0  0  0  0
  -30.5543  -19.3643   21.1555 C   0  0  0  0  0  0  0  0  0  0  0  0
  -23.8671  -10.8850   22.2116 C   0  0  0  0  0  0  0  0  0  0  0  0
  -24.1262  -13.0070   20.8197 C   0  0  0  0  0  0  0  0  0  0  0  0
  -20.0699  -32.3258   25.9324 C   0  0  0  0  0  0  0  0  0  0  0  0
  -25.8034  -29.3456   21.5595 C   0  0  0  0  0  0  0  0  0  0  0  0
  -21.0721  -31.3718   25.6721 C   0  0  0  0  0  0  0  0  0  0  0  0
  -25.1331  -29.1178   20.3491 C   0  0  0  0  0  0  0  0  0  0  0  0
  -22.4500   -9.1034   23.8242 C   0  0  0  0  0  0  0  0  0  0  0  0
  -26.3378  -27.0221   20.0906 C   0  0  0  0  0  0  0  0  0  0  0  0
  -21.8707   -6.8830   24.3308 C   0  0  0  0  0  0  0  0  0  0  0  0
  -22.1000   -4.1610   23.7646 C   0  0  0  0  0  0  0  0  0  0  0  0
  -20.7363   -6.1412   24.0012 C   0  0  0  0  0  0  0  0  0  0  0  0
  -24.5996  -11.8052   21.3793 C   0  0  0  0  0  0  0  0  0  0  0  0
  -30.3391  -18.4899   20.1109 C   0  0  0  0  0  0  0  0  0  0  0  0
  -25.1978  -13.5056   20.1201 C   0  0  0  0  0  0  0  0  0  0  0  0
  -29.0972  -20.5523   20.0260 C   0  0  0  0  0  0  0  0  0  0  0  0
  -22.8333  -13.6181   20.9230 C   0  0  0  0  0  0  0  0  0  0  0  0
  -28.7186  -22.7661   19.4071 C   0  0  0  0  0  0  0  0  0  0  0  0
  -27.7242  -23.8128   18.9861 C   0  0  0  0  0  0  0  0  0  0  0  0
  -23.0561  -30.4810   22.6849 C   0  0  0  0  0  0  0  0  0  0  0  0
  -30.6629  -14.6683   19.8545 C   0  0  0  0  0  0  0  0  0  0  0  0
  -23.2635  -32.4460   20.1124 C   0  0  0  0  0  0  0  0  0  0  0  0
  -24.5078  -33.0009   16.9834 C   0  0  0  0  0  0  0  0  0  0  0  0
  -19.0156  -32.6680   24.9096 C   0  0  0  0  0  0  0  0  0  0  0  0
  -25.5511  -30.6033   22.3449 C   0  0  0  0  0  0  0  0  0  0  0  0
  -24.1213  -30.0930   19.8072 C   0  0  0  0  0  0  0  0  0  0  0  0
  -19.3850  -32.2465   23.4897 C   0  0  0  0  0  0  0  0  0  0  0  0
  -29.6113  -11.3823   18.8868 C   0  0  0  0  0  0  0  0  0  0  0  0
  -19.9195  -30.8179   23.4789 C   0  0  0  0  0  0  0  0  0  0  0  0
  -28.1859  -11.2872   19.4294 C   0  0  0  0  0  0  0  0  0  0  0  0
  -30.5072  -12.2009   19.8111 C   0  0  0  0  0  0  0  0  0  0  0  0
  -28.5605  -13.4772   20.6496 C   0  0  0  0  0  0  0  0  0  0  0  0
  -21.1950  -30.6997   24.3218 C   0  0  1  0  0  0  0  0  0  0  0  0
  -24.1924  -31.2304   22.0486 C   0  0  1  0  0  0  0  0  0  0  0  0
  -27.6147  -12.6842   19.7303 C   0  0  2  0  0  0  0  0  0  0  0  0
  -30.1428  -23.2155   19.5739 C   0  0  0  0  0  0  0  0  0  0  0  0
  -24.4722  -34.6795   15.1183 C   0  0  0  0  0  0  0  0  0  0  0  0
  -20.4600  -31.5232   19.3386 C   0  0  0  0  0  0  0  0  0  0  0  0
  -20.8587  -32.4593   17.0511 C   0  0  0  0  0  0  0  0  0  0  0  0
  -20.8734  -33.9710   19.0353 C   0  0  0  0  0  0  0  0  0  0  0  0
  -27.4324  -33.4223   17.1512 C   0  0  0  0  0  0  0  0  0  0  0  0
  -30.9283  -17.1618   19.8533 C   0  0  0  0  0  0  0  0  0  0  0  0
  -27.5625  -24.9916   19.9089 C   0  0  0  0  0  0  0  0  0  1  0  0
  -29.9885  -15.9814   20.1629 C   0  0  0  0  0  0  0  0  0  0  0  0
  -22.8041  -32.3787   18.6759 C   0  0  1  0  0  0  0  0  0  0  0  0
  -25.1936  -34.2092   16.3717 C   0  0  2  0  0  0  0  0  0  0  0  0
  -21.2666  -32.5635   18.5361 C   0  0  0  0  0  0  0  0  0  0  0  0
  -29.8433  -20.5476   21.1083 N   0  0  0  0  0  0  0  0  0  0  0  0
  -25.8729  -11.5552   21.0625 N   0  0  0  0  0  0  0  0  0  0  0  0
  -28.2334  -21.5850   19.6291 N   0  0  0  0  0  0  0  0  0  0  0  0
  -26.2086  -12.6069   20.2960 N   0  0  0  0  0  0  0  0  0  0  0  0
  -23.9049  -31.3049   20.6147 N   0  0  0  0  0  0  0  0  0  0  0  0
  -29.9191  -13.5121   20.0907 N   0  0  0  0  0  0  0  0  0  0  0  0
  -25.3647  -14.6206   19.3776 N   0  0  0  0  0  0  0  0  0  0  0  0
  -21.8475  -12.9719   21.6813 N   0  0  0  0  0  0  0  0  0  0  0  0
  -22.3311  -31.2255   23.5958 N   0  0  0  0  0  0  0  0  0  0  0  0
  -23.5933  -33.3667   17.9483 N   0  0  0  0  0  0  0  0  0  0  0  0
  -26.6002  -33.8774   16.0078 N   0  3  0  0  0  0  0  0  0  0  0  0
  -22.5553  -14.6967   20.3462 O   0  0  0  0  0  0  0  0  0  0  0  0
  -27.1060  -23.6269   17.9490 O   0  0  0  0  0  0  0  0  0  0  0  0
  -22.8512  -29.3141   22.3716 O   0  0  0  0  0  0  0  0  0  0  0  0
  -31.8153  -14.6724   19.4140 O   0  0  0  0  0  0  0  0  0  0  0  0
  -23.0671  -33.4757   20.7625 O   0  0  0  0  0  0  0  0  0  0  0  0
  -24.7557  -31.8480   16.6370 O   0  0  0  0  0  0  0  0  0  0  0  0
  -21.7586   -8.2345   24.6112 O   0  0  0  0  0  0  0  0  0  0  0  0
  -26.5917  -25.8919   19.3765 O   0  0  0  0  0  0  0  0  0  1  0  0
  -22.2105   -2.8544   23.4913 F   0  0  0  0  0  0  0  0  0  0  0  0
  -19.5338   -6.7308   23.9538 F   0  0  0  0  0  0  0  0  0  0  0  0
  -29.2008  -19.1656   19.0203 S   0  0  0  0  0  0  0  0  0  0  0  0
  1  2  1  0  0  0  0
  1  5  2  0  0  0  0
  2  6  2  0  0  0  0
  3  8  2  0  0  0  0
  3 16  1  0  0  0  0
  4  9  1  0  0  0  0
  4 16  2  0  0  0  0
  5 18  1  0  0  0  0
  6 20  1  0  0  0  0
  7 10  2  0  0  0  0
  7 19  1  0  0  0  0
  8 22  1  0  0  0  0
  9 22  2  0  0  0  0
 10 23  1  0  0  0  0
 11 12  2  0  0  0  0
 11 24  1  0  0  0  0
 12 25  1  0  0  0  0
 13 21  1  0  0  0  0
 13 23  2  0  0  0  0
 14 25  2  0  0  0  0
 14 26  1  0  0  0  0
 15 28  2  0  0  0  0
 15 62  1  0  0  0  0
 16 27  1  0  0  0  0
 17 27  1  0  0  0  0
 17 29  2  0  0  0  0
 17 31  1  0  0  0  0
 18 20  2  0  0  0  0
 18 38  1  0  0  0  0
 19 21  2  0  0  0  0
 19 39  1  0  0  0  0
 20 47  1  0  0  0  0
 21 40  1  0  0  0  0
 22 79  1  0  0  0  0
 23 80  1  0  0  0  0
 24 26  2  0  0  0  0
 24 79  1  0  0  0  0
 25 81  1  0  0  0  0
 26 82  1  0  0  0  0
 27 63  2  0  0  0  0
 28 56  1  0  0  0  0
 28 83  1  0  0  0  0
 29 65  1  0  0  0  0
 29 68  1  0  0  0  0
 30 62  2  0  0  0  0
 30 64  1  0  0  0  0
 30 83  1  0  0  0  0
 31 69  1  0  0  0  0
 31 73  2  0  0  0  0
 32 33  1  0  0  0  0
 32 50  1  0  0  0  0
 32 64  2  0  0  0  0
 33 57  1  0  0  0  0
 33 74  2  0  0  0  0
 34 48  1  0  0  0  0
 34 70  1  0  0  0  0
 34 75  2  0  0  0  0
 35 58  1  0  0  0  0
 35 67  1  0  0  0  0
 35 76  2  0  0  0  0
 36 59  1  0  0  0  0
 36 66  1  0  0  0  0
 36 77  2  0  0  0  0
 37 60  1  0  0  0  0
 37 71  1  0  0  0  0
 37 78  2  0  0  0  0
 38 41  1  0  0  0  0
 39 48  1  0  0  0  0
 40 66  1  0  0  0  0
 41 43  1  0  0  0  0
 42 44  1  0  0  0  0
 42 45  1  0  0  0  0
 43 47  1  0  0  0  0
 44 49  1  0  0  0  0
 45 67  1  0  0  0  0
 46 49  1  0  0  0  0
 46 67  1  0  0  0  0
 47 70  1  0  0  0  0
 48 66  1  0  0  0  0
 49 65  1  0  0  0  0
 51 60  1  0  0  0  0
 52 61  1  0  0  0  0
 53 61  1  0  0  0  0
 54 61  1  0  0  0  0
 55 72  1  0  0  0  0
 56 58  1  0  0  0  0
 57 80  1  0  0  0  0
 59 61  1  0  0  0  0
 59 71  1  0  0  0  0
 60 72  1  0  0  0  0
 63 65  1  0  0  0  0
M  CHG  1  72   1
M  ISO  4  35 100  57 101  58 100  80 101
M  END
> <Batch ID>
0182

> <Smiles>
CNC(C)C(=O)NC(C(=O)N1Cc2cc([101O:1][101CH2:1]C(=O)C(C)Nc3ncc(C=[100CH:0][100C:0](=O)N4CCCC(n5nc(-c6ccc(Oc7ccc(F)cc7F)cc6)c(C(N)=O)c5N)C4)s3)ccc2CC1C(=O)NC1CCCc2ccccc21)C(C)(C)C

> <Shape>
0.277

> <Color>
0.175

> <Negative vol penalty>
0.000

$$$$

  -OEChem-04052304563D

 85 93  0     1  0  0  0  0  0999 V2000
  -29.0618  -31.2039   15.9146 C   0  0  0  0  0  0  0  0  0  0  0  0
  -29.1127  -31.0565   17.2971 C   0  0  0  0  0  0  0  0  0  0  0  0
  -22.9577   -9.8280   20.1058 C   0  0  0  0  0  0  0  0  0  0  0  0
  -23.6513  -10.0540   22.4090 C   0  0  0  0  0  0  0  0  0  0  0  0
  -29.2351  -30.0935   15.0895 C   0  0  0  0  0  0  0  0  0  0  0  0
  -29.3360  -29.7983   17.8552 C   0  0  0  0  0  0  0  0  0  0  0  0
  -32.4501  -26.6652   23.4946 C   0  0  0  0  0  0  0  0  0  0  0  0
  -22.1763   -8.7249   20.4493 C   0  0  0  0  0  0  0  0  0  0  0  0
  -22.8698   -8.9509   22.7526 C   0  0  0  0  0  0  0  0  0  0  0  0
  -32.1658  -25.7620   24.5179 C   0  0  0  0  0  0  0  0  0  0  0  0
  -23.0874   -5.5831   22.5485 C   0  0  0  0  0  0  0  0  0  0  0  0
  -23.6543   -4.6232   23.3869 C   0  0  0  0  0  0  0  0  0  0  0  0
  -32.5303  -23.9288   22.9929 C   0  0  0  0  0  0  0  0  0  0  0  0
  -21.9098   -5.0127   25.0124 C   0  0  0  0  0  0  0  0  0  0  0  0
  -23.6953  -10.4926   21.0856 C   0  0  0  0  0  0  0  0  0  0  0  0
  -24.1080  -12.9830   20.7179 C   0  0  0  0  0  0  0  0  0  0  0  0
  -29.4703  -28.8227   15.6376 C   0  0  0  0  0  0  0  0  0  0  0  0
  -32.7664  -26.2064   22.2078 C   0  0  0  0  0  0  0  0  0  0  0  0
  -29.5113  -28.6697   17.0366 C   0  0  0  0  0  0  0  0  0  0  0  0
  -32.8207  -24.8281   21.9557 C   0  0  0  0  0  0  0  0  0  0  0  0
  -22.1323   -8.2863   21.7727 C   0  0  0  0  0  0  0  0  0  0  0  0
  -32.2031  -24.3936   24.2665 C   0  0  0  0  0  0  0  0  0  0  0  0
  -21.9317   -6.2579   22.9421 C   0  0  0  0  0  0  0  0  0  0  0  0
  -23.0655   -4.3380   24.6188 C   0  0  0  0  0  0  0  0  0  0  0  0
  -21.3429   -5.9726   24.1740 C   0  0  0  0  0  0  0  0  0  0  0  0
  -24.5031  -11.6319   20.7313 C   0  0  0  0  0  0  0  0  0  0  0  0
  -31.8584  -18.6675   21.7670 C   0  0  0  0  0  0  0  0  0  0  0  0
  -25.2299  -13.6648   20.3140 C   0  0  0  0  0  0  0  0  0  0  0  0
  -30.7462  -19.1357   22.4347 C   0  0  0  0  0  0  0  0  0  0  0  0
  -30.5831  -16.8944   21.5672 C   0  0  0  0  0  0  0  0  0  0  0  0
  -22.8403  -13.5694   21.0416 C   0  0  0  0  0  0  0  0  0  0  0  0
  -29.3526  -22.1105   24.2704 C   0  0  0  0  0  0  0  0  0  0  0  0
  -29.2961  -20.7159   23.7165 C   0  0  0  0  0  0  0  0  0  0  0  0
  -31.4563  -26.5213   19.3289 C   0  0  0  0  0  0  0  0  0  0  0  0
  -34.1375  -24.9691   18.3676 C   0  0  0  0  0  0  0  0  0  0  0  0
  -36.7137  -22.8750   19.1579 C   0  0  0  0  0  0  0  0  0  0  0  0
  -30.7149  -14.5927   20.5519 C   0  0  0  0  0  0  0  0  0  0  0  0
  -29.6046  -27.6440   14.7063 C   0  0  0  0  0  0  0  0  0  0  0  0
  -33.0967  -27.1930   21.1215 C   0  0  0  0  0  0  0  0  0  0  0  0
  -33.1747  -24.2839   20.5967 C   0  0  0  0  0  0  0  0  0  0  0  0
  -30.2098  -26.4096   15.3696 C   0  0  0  0  0  0  0  0  0  0  0  0
  -29.6046  -11.9742   18.4099 C   0  0  0  0  0  0  0  0  0  0  0  0
  -29.5489  -26.1509   16.7199 C   0  0  0  0  0  0  0  0  0  0  0  0
  -28.1459  -11.7629   18.8218 C   0  0  0  0  0  0  0  0  0  0  0  0
  -30.4906  -12.3042   19.6098 C   0  0  0  0  0  0  0  0  0  0  0  0
  -28.5649  -13.2126   20.8490 C   0  0  0  0  0  0  0  0  0  0  0  0
  -29.7761  -27.3254   17.6793 C   0  0  1  0  0  0  0  0  0  0  0  0
  -32.9036  -26.6245   19.7191 C   0  0  1  0  0  0  0  0  0  0  0  0
  -27.6220  -12.9417   19.6653 C   0  0  2  0  0  0  0  0  0  0  0  0
  -33.1152  -19.4112   21.5437 C   0  0  0  0  0  0  0  0  0  0  0  0
  -38.7252  -21.7602   18.1536 C   0  0  0  0  0  0  0  0  0  0  0  0
  -30.8043  -23.9117   27.3432 C   0  0  0  0  0  0  0  0  0  0  0  0
  -32.3202  -22.9586   16.9657 C   0  0  0  0  0  0  0  0  0  0  0  0
  -34.2764  -21.4037   16.8110 C   0  0  0  0  0  0  0  0  0  0  0  0
  -34.3502  -23.6163   15.6615 C   0  0  0  0  0  0  0  0  0  0  0  0
  -38.5517  -24.2443   21.0303 C   0  0  0  0  0  0  0  0  0  0  0  0
  -29.9180  -22.2566   25.6670 C   0  0  0  0  0  0  0  0  0  0  0  0
  -34.5268  -23.5225   18.1818 C   0  0  1  0  0  0  0  0  0  0  0  0
  -38.2074  -22.9760   18.9063 C   0  0  2  0  0  0  0  0  0  0  0  0
  -30.6335  -23.5930   25.8638 C   0  0  2  0  0  0  0  0  0  1  0  0
  -33.8598  -22.8852   16.9302 C   0  0  0  0  0  0  0  0  0  0  0  0
  -25.7764  -11.4633   20.3649 N   0  0  0  0  0  0  0  0  0  0  0  0
  -31.7669  -17.3823   21.2692 N   0  0  0  0  0  0  0  0  0  0  0  0
  -26.1912  -12.7174   20.1174 N   0  0  0  0  0  0  0  0  0  0  0  0
  -33.4835  -25.2887   19.5659 N   0  0  0  0  0  0  0  0  0  0  0  0
  -29.9346  -13.4331   20.3589 N   0  0  0  0  0  0  0  0  0  0  0  0
  -25.4780  -14.9762   20.1114 N   0  0  0  0  0  0  0  0  0  0  0  0
  -21.7951  -12.7242   21.4385 N   0  0  0  0  0  0  0  0  0  0  0  0
  -30.4616  -20.3676   23.0685 N   0  0  0  0  0  0  0  0  0  0  0  0
  -30.0694  -15.6125   21.2504 N   0  0  0  0  0  0  0  0  0  0  0  0
  -31.1155  -27.2801   18.2254 N   0  0  0  0  0  0  0  0  0  0  0  0
  -35.9853  -23.4915   18.1626 N   0  0  0  0  0  0  0  0  0  0  0  0
  -38.9444  -23.0785   20.1975 N   0  3  0  0  0  0  0  0  0  0  0  0
  -22.6356  -14.8046   20.9649 O   0  0  0  0  0  0  0  0  0  0  0  0
  -28.9480  -23.0136   23.5542 O   0  0  0  0  0  0  0  0  0  0  0  0
  -28.2728  -20.0860   23.9267 O   0  0  0  0  0  0  0  0  0  0  0  0
  -30.7046  -25.8050   19.9798 O   0  0  0  0  0  0  0  0  0  0  0  0
  -34.4102  -25.7869   17.4852 O   0  0  0  0  0  0  0  0  0  0  0  0
  -36.2404  -22.3031   20.1374 O   0  0  0  0  0  0  0  0  0  0  0  0
  -31.8611  -14.6853   20.1050 O   0  0  0  0  0  0  0  0  0  0  0  0
  -21.3697   -7.2101   22.1084 O   0  0  0  0  0  0  0  0  0  0  0  0
  -31.9254  -23.5099   25.2634 O   0  0  0  0  0  0  0  0  0  1  0  0
  -23.6091   -3.4151   25.4230 F   0  0  0  0  0  0  0  0  0  0  0  0
  -20.2320   -6.6167   24.5571 F   0  0  0  0  0  0  0  0  0  0  0  0
  -29.5296  -17.9269   22.4441 S   0  0  0  0  0  0  0  0  0  0  0  0
  1  2  1  0  0  0  0
  1  5  2  0  0  0  0
  2  6  2  0  0  0  0
  3  8  2  0  0  0  0
  3 15  1  0  0  0  0
  4  9  1  0  0  0  0
  4 15  2  0  0  0  0
  5 17  1  0  0  0  0
  6 19  1  0  0  0  0
  7 10  2  0  0  0  0
  7 18  1  0  0  0  0
  8 21  1  0  0  0  0
  9 21  2  0  0  0  0
 10 22  1  0  0  0  0
 11 12  2  0  0  0  0
 11 23  1  0  0  0  0
 12 24  1  0  0  0  0
 13 20  1  0  0  0  0
 13 22  2  0  0  0  0
 14 24  2  0  0  0  0
 14 25  1  0  0  0  0
 15 26  1  0  0  0  0
 16 26  1  0  0  0  0
 16 28  2  0  0  0  0
 16 31  1  0  0  0  0
 17 19  2  0  0  0  0
 17 38  1  0  0  0  0
 18 20  2  0  0  0  0
 18 39  1  0  0  0  0
 19 47  1  0  0  0  0
 20 40  1  0  0  0  0
 21 81  1  0  0  0  0
 22 82  1  0  0  0  0
 23 25  2  0  0  0  0
 23 81  1  0  0  0  0
 24 83  1  0  0  0  0
 25 84  1  0  0  0  0
 26 62  2  0  0  0  0
 27 29  2  0  0  0  0
 27 50  1  0  0  0  0
 27 63  1  0  0  0  0
 28 64  1  0  0  0  0
 28 67  1  0  0  0  0
 29 69  1  0  0  0  0
 29 85  1  0  0  0  0
 30 63  2  0  0  0  0
 30 70  1  0  0  0  0
 30 85  1  0  0  0  0
 31 68  1  0  0  0  0
 31 74  2  0  0  0  0
 32 33  1  0  0  0  0
 32 57  1  0  0  0  0
 32 75  2  0  0  0  0
 33 69  1  0  0  0  0
 33 76  2  0  0  0  0
 34 48  1  0  0  0  0
 34 71  1  0  0  0  0
 34 77  2  0  0  0  0
 35 58  1  0  0  0  0
 35 65  1  0  0  0  0
 35 78  2  0  0  0  0
 36 59  1  0  0  0  0
 36 72  1  0  0  0  0
 36 79  2  0  0  0  0
 37 66  1  0  0  0  0
 37 70  1  0  0  0  0
 37 80  2  0  0  0  0
 38 41  1  0  0  0  0
 39 48  1  0  0  0  0
 40 65  1  0  0  0  0
 41 43  1  0  0  0  0
 42 44  1  0  0  0  0
 42 45  1  0  0  0  0
 43 47  1  0  0  0  0
 44 49  1  0  0  0  0
 45 66  1  0  0  0  0
 46 49  1  0  0  0  0
 46 66  1  0  0  0  0
 47 71  1  0  0  0  0
 48 65  1  0  0  0  0
 49 64  1  0  0  0  0
 51 59  1  0  0  0  0
 52 60  1  0  0  0  0
 53 61  1  0  0  0  0
 54 61  1  0  0  0  0
 55 61  1  0  0  0  0
 56 73  1  0  0  0  0
 57 60  1  0  0  0  0
 58 61  1  0  0  0  0
 58 72  1  0  0  0  0
 59 73  1  0  0  0  0
 60 82  1  0  0  0  0
 62 64  1  0  0  0  0
M  CHG  1  73   1
M  ISO  4  37 100  60 101  70 100  82 101
M  END
> <Batch ID>
0182

> <Smiles>
CNC(C)C(=O)NC(C(=O)N1Cc2cc([101O:1][101CH:1](C)CC(=O)C(=O)Nc3sc([100NH:0][100C:0](=O)N4CCCC(n5nc(-c6ccc(Oc7ccc(F)cc7F)cc6)c(C(N)=O)c5N)C4)nc3C)ccc2CC1C(=O)NC1CCCc2ccccc21)C(C)(C)C

> <Shape>
0.200

> <Color>
0.195

> <Negative vol penalty>
0.000

$$$$

  -OEChem-04052304563D

 87 95  0     1  0  0  0  0  0999 V2000
  -32.2200   -8.7918   16.2393 C   0  0  0  0  0  0  0  0  0  0  0  0
  -32.6900   -9.7990   17.0760 C   0  0  0  0  0  0  0  0  0  0  0  0
  -20.1086  -29.6172   22.8561 C   0  0  0  0  0  0  0  0  0  0  0  0
  -20.6642  -27.3514   23.4844 C   0  0  0  0  0  0  0  0  0  0  0  0
  -30.9452   -8.8878   15.6828 C   0  0  0  0  0  0  0  0  0  0  0  0
  -31.8859  -10.9034   17.3557 C   0  0  0  0  0  0  0  0  0  0  0  0
  -30.4526  -15.5841   22.5857 C   0  0  0  0  0  0  0  0  0  0  0  0
  -18.8067  -29.2152   22.5576 C   0  0  0  0  0  0  0  0  0  0  0  0
  -19.3623  -26.9494   23.1859 C   0  0  0  0  0  0  0  0  0  0  0  0
  -30.3726  -16.9579   22.8095 C   0  0  0  0  0  0  0  0  0  0  0  0
  -15.2367  -28.8562   21.9733 C   0  0  0  0  0  0  0  0  0  0  0  0
  -14.1900  -29.6580   22.4283 C   0  0  0  0  0  0  0  0  0  0  0  0
  -28.1573  -16.9783   21.8551 C   0  0  0  0  0  0  0  0  0  0  0  0
  -14.9179  -29.3155   24.7065 C   0  0  0  0  0  0  0  0  0  0  0  0
  -31.7918  -24.7714   18.6773 C   0  0  0  0  0  0  0  0  0  0  0  0
  -21.0373  -28.6853   23.3194 C   0  0  0  0  0  0  0  0  0  0  0  0
  -22.8672  -29.5619   24.8657 C   0  0  0  0  0  0  0  0  0  0  0  0
  -30.1214   -9.9892   15.9636 C   0  0  0  0  0  0  0  0  0  0  0  0
  -29.3880  -14.8979   21.9839 C   0  0  0  0  0  0  0  0  0  0  0  0
  -30.5995  -11.0148   16.8014 C   0  0  0  0  0  0  0  0  0  0  0  0
  -28.2252  -15.5954   21.6270 C   0  0  0  0  0  0  0  0  0  0  0  0
  -18.4335  -27.8813   22.7225 C   0  0  0  0  0  0  0  0  0  0  0  0
  -29.2260  -17.6557   22.4416 C   0  0  0  0  0  0  0  0  0  0  0  0
  -16.1240  -28.2839   22.8849 C   0  0  0  0  0  0  0  0  0  0  0  0
  -14.0306  -29.8877   23.7949 C   0  0  0  0  0  0  0  0  0  0  0  0
  -15.9646  -28.5136   24.2515 C   0  0  0  0  0  0  0  0  0  0  0  0
  -22.3825  -29.0998   23.6274 C   0  0  0  0  0  0  0  0  0  0  0  0
  -30.6164  -24.4414   19.3205 C   0  0  0  0  0  0  0  0  0  0  0  0
  -31.9980  -26.1192   18.4648 C   0  0  0  0  0  0  0  0  0  0  0  0
  -24.1961  -29.8237   24.6382 C   0  0  0  0  0  0  0  0  0  0  0  0
  -30.0215  -26.6306   19.4643 C   0  0  0  0  0  0  0  0  0  0  0  0
  -22.1778  -29.7385   26.1104 C   0  0  0  0  0  0  0  0  0  0  0  0
  -29.0232  -13.2334   19.3006 C   0  0  0  0  0  0  0  0  0  0  0  0
  -29.5105  -21.2151   20.7470 C   0  0  0  0  0  0  0  0  0  0  0  0
  -26.0936  -12.6094   20.5459 C   0  0  0  0  0  0  0  0  0  0  0  0
  -23.5812  -13.5520   22.6544 C   0  0  0  0  0  0  0  0  0  0  0  0
  -28.0325  -22.6359   19.2521 C   0  0  0  0  0  0  0  0  0  0  0  0
  -27.8696  -27.4096   20.5353 C   0  0  0  0  0  0  0  0  0  0  0  0
  -28.7691  -10.0718   15.3009 C   0  0  0  0  0  0  0  0  0  0  0  0
  -29.4793  -13.4113   21.7737 C   0  0  0  0  0  0  0  0  0  0  0  0
  -27.0464  -14.9018   20.9963 C   0  0  0  0  0  0  0  0  0  0  0  0
  -27.8358  -11.0928   15.9466 C   0  0  0  0  0  0  0  0  0  0  0  0
  -26.5763  -31.0217   20.5991 C   0  0  0  0  0  0  0  0  0  0  0  0
  -28.5685  -12.4089   16.1868 C   0  0  0  0  0  0  0  0  0  0  0  0
  -25.9321  -31.0359   21.9834 C   0  0  0  0  0  0  0  0  0  0  0  0
  -27.6507  -29.9490   20.4731 C   0  0  0  0  0  0  0  0  0  0  0  0
  -25.8687  -28.5270   21.5018 C   0  0  0  0  0  0  0  0  0  0  0  0
  -29.7474  -12.2164   17.1484 C   0  0  1  0  0  0  0  0  0  0  0  0
  -28.5399  -12.9031   20.6844 C   0  0  1  0  0  0  0  0  0  0  0  0
  -25.7271  -29.6244   22.5681 C   0  0  2  0  0  0  0  0  0  0  0  0
  -21.2963  -12.8614   23.4290 C   0  0  0  0  0  0  0  0  0  0  0  0
  -24.9023  -13.6206   17.9252 C   0  0  0  0  0  0  0  0  0  0  0  0
  -22.6901  -13.8055   19.0830 C   0  0  0  0  0  0  0  0  0  0  0  0
  -23.7950  -11.5805   18.8560 C   0  0  0  0  0  0  0  0  0  0  0  0
  -24.4912  -13.2629   25.4557 C   0  0  0  0  0  0  0  0  0  0  0  0
  -30.0876  -21.1545   22.1563 C   0  0  0  0  0  0  0  0  0  0  0  0
  -30.3667  -19.7345   22.6251 C   0  0  0  0  0  0  0  0  0  1  0  0
  -29.1902  -22.5993   20.2142 C   0  0  2  0  0  0  0  0  0  0  0  0
  -24.7397  -13.2738   20.4785 C   0  0  1  0  0  0  0  0  0  0  0  0
  -22.7917  -12.7742   23.6918 C   0  0  2  0  0  0  0  0  0  0  0  0
  -24.0546  -13.0838   19.0957 C   0  0  0  0  0  0  0  0  0  0  0  0
  -23.3267  -29.0690   22.6832 N   0  0  0  0  0  0  0  0  0  0  0  0
  -29.7053  -25.3487   19.7294 N   0  0  0  0  0  0  0  0  0  0  0  0
  -31.1306  -27.0796   18.8464 N   0  0  0  0  0  0  0  0  0  0  0  0
  -24.4179  -29.5150   23.3284 N   0  0  0  0  0  0  0  0  0  0  0  0
  -27.1864  -13.4486   20.8056 N   0  0  0  0  0  0  0  0  0  0  0  0
  -27.1702  -28.6059   20.8284 N   0  0  0  0  0  0  0  0  0  0  0  0
  -25.1849  -30.2858   25.4327 N   0  0  0  0  0  0  0  0  0  0  0  0
  -20.8139  -29.4212   26.1696 N   0  0  0  0  0  0  0  0  0  0  0  0
  -30.3719  -23.0966   19.5528 N   0  0  0  0  0  0  0  0  0  0  0  0
  -29.0870  -27.6119   19.8798 N   0  0  0  0  0  0  0  0  0  0  0  0
  -29.2764  -12.1260   18.5138 N   0  0  0  0  0  0  0  0  0  0  0  0
  -23.9716  -12.7501   21.6029 N   0  0  0  0  0  0  0  0  0  0  0  0
  -23.0611  -13.3095   25.0562 N   0  3  0  0  0  0  0  0  0  0  0  0
  -22.7503  -30.1805   27.1353 O   0  0  0  0  0  0  0  0  0  0  0  0
  -29.1551  -14.4061   18.9706 O   0  0  0  0  0  0  0  0  0  0  0  0
  -29.3331  -20.2056   20.0653 O   0  0  0  0  0  0  0  0  0  0  0  0
  -26.1777  -11.3898   20.3816 O   0  0  0  0  0  0  0  0  0  0  0  0
  -23.8238  -14.7519   22.7640 O   0  0  0  0  0  0  0  0  0  0  0  0
  -27.8928  -23.4241   18.3286 O   0  0  0  0  0  0  0  0  0  0  0  0
  -27.4253  -26.3047   20.8541 O   0  0  0  0  0  0  0  0  0  0  0  0
  -17.1632  -27.4887   22.4316 O   0  0  0  0  0  0  0  0  0  0  0  0
  -29.1456  -18.9968   22.6583 O   0  0  0  0  0  0  0  0  0  1  0  0
  -13.0263  -30.6590   24.2316 F   0  0  0  0  0  0  0  0  0  0  0  0
  -16.8146  -27.9676   25.1319 F   0  0  0  0  0  0  0  0  0  0  0  0
  -33.1219  -26.5087   17.8440 F   0  0  0  0  0  0  0  0  0  0  0  0
  -27.0277  -21.7722   19.4633 F   0  0  0  0  0  0  0  0  0  0  0  0
  1  2  1  0  0  0  0
  1  5  2  0  0  0  0
  2  6  2  0  0  0  0
  3  8  2  0  0  0  0
  3 16  1  0  0  0  0
  4  9  1  0  0  0  0
  4 16  2  0  0  0  0
  5 18  1  0  0  0  0
  6 20  1  0  0  0  0
  7 10  2  0  0  0  0
  7 19  1  0  0  0  0
  8 22  1  0  0  0  0
  9 22  2  0  0  0  0
 10 23  1  0  0  0  0
 11 12  2  0  0  0  0
 11 24  1  0  0  0  0
 12 25  1  0  0  0  0
 13 21  1  0  0  0  0
 13 23  2  0  0  0  0
 14 25  2  0  0  0  0
 14 26  1  0  0  0  0
 15 28  1  0  0  0  0
 15 29  2  0  0  0  0
 16 27  1  0  0  0  0
 17 27  1  0  0  0  0
 17 30  2  0  0  0  0
 17 32  1  0  0  0  0
 18 20  2  0  0  0  0
 18 39  1  0  0  0  0
 19 21  2  0  0  0  0
 19 40  1  0  0  0  0
 20 48  1  0  0  0  0
 21 41  1  0  0  0  0
 22 82  1  0  0  0  0
 23 83  1  0  0  0  0
 24 26  2  0  0  0  0
 24 82  1  0  0  0  0
 25 84  1  0  0  0  0
 26 85  1  0  0  0  0
 27 62  2  0  0  0  0
 28 63  2  0  0  0  0
 28 70  1  0  0  0  0
 29 64  1  0  0  0  0
 29 86  1  0  0  0  0
 30 65  1  0  0  0  0
 30 68  1  0  0  0  0
 31 63  1  0  0  0  0
 31 64  2  0  0  0  0
 31 71  1  0  0  0  0
 32 69  1  0  0  0  0
 32 75  2  0  0  0  0
 33 49  1  0  0  0  0
 33 72  1  0  0  0  0
 33 76  2  0  0  0  0
 34 56  1  0  0  0  0
 34 58  1  0  0  0  0
 34 77  2  0  0  0  0
 35 59  1  0  0  0  0
 35 66  1  0  0  0  0
 35 78  2  0  0  0  0
 36 60  1  0  0  0  0
 36 73  1  0  0  0  0
 36 79  2  0  0  0  0
 37 58  1  0  0  0  0
 37 80  2  0  0  0  0
 37 87  1  0  0  0  0
 38 67  1  0  0  0  0
 38 71  1  0  0  0  0
 38 81  2  0  0  0  0
 39 42  1  0  0  0  0
 40 49  1  0  0  0  0
 41 66  1  0  0  0  0
 42 44  1  0  0  0  0
 43 45  1  0  0  0  0
 43 46  1  0  0  0  0
 44 48  1  0  0  0  0
 45 50  1  0  0  0  0
 46 67  1  0  0  0  0
 47 50  1  0  0  0  0
 47 67  1  0  0  0  0
 48 72  1  0  0  0  0
 49 66  1  0  0  0  0
 50 65  1  0  0  0  0
 51 60  1  0  0  0  0
 52 61  1  0  0  0  0
 53 61  1  0  0  0  0
 54 61  1  0  0  0  0
 55 74  1  0  0  0  0
 56 57  1  0  0  0  0
 57 83  1  0  0  0  0
 58 70  1  0  0  0  0
 59 61  1  0  0  0  0
 59 73  1  0  0  0  0
 60 74  1  0  0  0  0
 62 65  1  0  0  0  0
M  CHG  1  74   1
M  ISO  4  38 100  57 101  71 100  83 101
M  END
> <Batch ID>
0182

> <Smiles>
CNC(C)C(=O)NC(C(=O)N1Cc2cc([101O:1][101CH2:1]CC(=O)C(Nc3cc(F)nc([100NH:0][100C:0](=O)N4CCCC(n5nc(-c6ccc(Oc7ccc(F)cc7F)cc6)c(C(N)=O)c5N)C4)n3)C(=O)F)ccc2CC1C(=O)NC1CCCc2ccccc21)C(C)(C)C

> <Shape>
0.296

> <Color>
0.062

> <Negative vol penalty>
0.000

$$$$

  -OEChem-04052304563D

 85 93  0     1  0  0  0  0  0999 V2000
  -25.8773  -37.9670   18.6276 C   0  0  0  0  0  0  0  0  0  0  0  0
  -26.5907  -36.7777   18.5187 C   0  0  0  0  0  0  0  0  0  0  0  0
  -24.0017   -9.3235   21.2717 C   0  0  0  0  0  0  0  0  0  0  0  0
  -24.6185  -10.2972   23.3951 C   0  0  0  0  0  0  0  0  0  0  0  0
  -25.0246  -38.1704   19.7117 C   0  0  0  0  0  0  0  0  0  0  0  0
  -26.4526  -35.7913   19.4947 C   0  0  0  0  0  0  0  0  0  0  0  0
  -26.6135  -29.7279   18.6495 C   0  0  0  0  0  0  0  0  0  0  0  0
  -23.5776   -8.1666   21.9254 C   0  0  0  0  0  0  0  0  0  0  0  0
  -24.1942   -9.1403   24.0488 C   0  0  0  0  0  0  0  0  0  0  0  0
  -27.6250  -28.7836   18.8199 C   0  0  0  0  0  0  0  0  0  0  0  0
  -20.8766   -7.1487   23.6865 C   0  0  0  0  0  0  0  0  0  0  0  0
  -19.6540   -6.5982   23.3021 C   0  0  0  0  0  0  0  0  0  0  0  0
  -26.7689  -28.2717   21.0164 C   0  0  0  0  0  0  0  0  0  0  0  0
  -28.3371  -20.5056   20.9406 C   0  0  0  0  0  0  0  0  0  0  0  0
  -20.7718   -4.5476   22.6836 C   0  0  0  0  0  0  0  0  0  0  0  0
  -24.5222  -10.3888   22.0065 C   0  0  0  0  0  0  0  0  0  0  0  0
  -24.1902  -12.7234   21.0334 C   0  0  0  0  0  0  0  0  0  0  0  0
  -24.8686  -37.1821   20.6964 C   0  0  0  0  0  0  0  0  0  0  0  0
  -25.6771  -29.9593   19.6674 C   0  0  0  0  0  0  0  0  0  0  0  0
  -25.5980  -35.9822   20.5938 C   0  0  0  0  0  0  0  0  0  0  0  0
  -25.7450  -29.2177   20.8554 C   0  0  0  0  0  0  0  0  0  0  0  0
  -29.4605  -21.0937   20.3701 C   0  0  0  0  0  0  0  0  0  0  0  0
  -23.6738   -8.0750   23.3139 C   0  0  0  0  0  0  0  0  0  0  0  0
  -27.7046  -28.0574   20.0046 C   0  0  0  0  0  0  0  0  0  0  0  0
  -22.0468   -6.3987   23.5694 C   0  0  0  0  0  0  0  0  0  0  0  0
  -19.6016   -5.2976   22.8007 C   0  0  0  0  0  0  0  0  0  0  0  0
  -28.2248  -19.1200   20.9719 C   0  0  0  0  0  0  0  0  0  0  0  0
  -21.9945   -5.0981   23.0679 C   0  0  0  0  0  0  0  0  0  0  0  0
  -24.9611  -11.5839   21.3318 C   0  0  0  0  0  0  0  0  0  0  0  0
  -29.2552  -18.3733   20.4237 C   0  0  0  0  0  0  0  0  0  0  0  0
  -30.4357  -20.2586   19.8491 C   0  0  0  0  0  0  0  0  0  0  0  0
  -25.0621  -13.5697   20.3930 C   0  0  0  0  0  0  0  0  0  0  0  0
  -28.3274  -25.8367   20.3935 C   0  0  0  0  0  0  0  0  0  1  0  0
  -22.8095  -12.9928   21.3103 C   0  0  0  0  0  0  0  0  0  0  0  0
  -29.2132  -24.8493   20.5729 C   0  0  0  0  0  0  0  0  0  0  0  0
  -28.7116  -23.4557   20.8065 C   0  0  0  0  0  0  0  0  0  0  0  0
  -24.8856  -32.4617   21.4605 C   0  0  0  0  0  0  0  0  0  0  0  0
  -22.5275  -30.4857   22.4888 C   0  0  0  0  0  0  0  0  0  0  0  0
  -21.4148  -27.2908   22.9373 C   0  0  0  0  0  0  0  0  0  0  0  0
  -30.0422  -16.0237   19.9695 C   0  0  0  0  0  0  0  0  0  0  0  0
  -23.9713  -37.4667   21.8748 C   0  0  0  0  0  0  0  0  0  0  0  0
  -24.5761  -30.9624   19.4574 C   0  0  0  0  0  0  0  0  0  0  0  0
  -24.7520  -29.4140   21.9707 C   0  0  0  0  0  0  0  0  0  0  0  0
  -23.5957  -36.2188   22.6698 C   0  0  0  0  0  0  0  0  0  0  0  0
  -29.7236  -12.7539   18.5968 C   0  0  0  0  0  0  0  0  0  0  0  0
  -24.8300  -35.3619   22.9328 C   0  0  0  0  0  0  0  0  0  0  0  0
  -28.3928  -12.2517   19.1614 C   0  0  0  0  0  0  0  0  0  0  0  0
  -30.4852  -13.6049   19.6114 C   0  0  0  0  0  0  0  0  0  0  0  0
  -28.3888  -14.2156   20.7521 C   0  0  0  0  0  0  0  0  0  0  0  0
  -25.4561  -34.8783   21.6192 C   0  0  1  0  0  0  0  0  0  0  0  0
  -23.9841  -31.4820   20.7639 C   0  0  1  0  0  0  0  0  0  0  0  0
  -27.5557  -13.4075   19.7438 C   0  0  2  0  0  0  0  0  0  0  0  0
  -19.4649  -25.9918   23.8361 C   0  0  0  0  0  0  0  0  0  0  0  0
  -23.4653  -31.0531   25.3364 C   0  0  0  0  0  0  0  0  0  0  0  0
  -22.1565  -29.0566   26.0909 C   0  0  0  0  0  0  0  0  0  0  0  0
  -20.9817  -30.9944   25.0482 C   0  0  0  0  0  0  0  0  0  0  0  0
  -20.8682  -26.0632   20.3003 C   0  0  0  0  0  0  0  0  0  0  0  0
  -22.3898  -29.4735   23.6003 C   0  0  1  0  0  0  0  0  0  0  0  0
  -20.0892  -26.6298   22.6049 C   0  0  2  0  0  0  0  0  0  0  0  0
  -22.2683  -30.1419   24.9989 C   0  0  0  0  0  0  0  0  0  0  0  0
  -26.2254  -11.6930   20.9151 N   0  0  0  0  0  0  0  0  0  0  0  0
  -30.3617  -18.9088   19.8611 N   0  0  0  0  0  0  0  0  0  0  0  0
  -26.2556  -12.9111   20.3482 N   0  0  0  0  0  0  0  0  0  0  0  0
  -23.6977  -30.4107   21.7202 N   0  0  0  0  0  0  0  0  0  0  0  0
  -29.6311  -14.6820   20.1166 N   0  0  0  0  0  0  0  0  0  0  0  0
  -24.9166  -14.8054   19.8694 N   0  0  0  0  0  0  0  0  0  0  0  0
  -22.0584  -12.0147   21.9762 N   0  0  0  0  0  0  0  0  0  0  0  0
  -29.5985  -22.5020   20.3261 N   0  0  0  0  0  0  0  0  0  0  0  0
  -29.1338  -16.9620   20.4583 N   0  0  0  0  0  0  0  0  0  0  0  0
  -24.6958  -33.7745   21.0732 N   0  0  0  0  0  0  0  0  0  0  0  0
  -21.2573  -28.6261   23.2427 N   0  0  0  0  0  0  0  0  0  0  0  0
  -20.2824  -25.5713   21.5738 N   0  3  0  0  0  0  0  0  0  0  0  0
  -22.2540  -14.0624   20.9626 O   0  0  0  0  0  0  0  0  0  0  0  0
  -27.6365  -23.2579   21.3622 O   0  0  0  0  0  0  0  0  0  0  0  0
  -25.6924  -32.0567   22.2891 O   0  0  0  0  0  0  0  0  0  0  0  0
  -21.6266  -31.3080   22.3047 O   0  0  0  0  0  0  0  0  0  0  0  0
  -22.4827  -26.6824   22.9305 O   0  0  0  0  0  0  0  0  0  0  0  0
  -31.1083  -16.3196   19.4237 O   0  0  0  0  0  0  0  0  0  0  0  0
  -30.5766  -25.0621   20.5503 O   0  0  0  0  0  0  0  0  0  0  0  0
  -23.2598   -6.9464   23.9522 O   0  0  0  0  0  0  0  0  0  0  0  0
  -28.6912  -27.1356   20.1737 O   0  0  0  0  0  0  0  0  0  1  0  0
  -18.4273   -4.7685   22.4330 F   0  0  0  0  0  0  0  0  0  0  0  0
  -27.1484  -18.5400   21.5180 F   0  0  0  0  0  0  0  0  0  0  0  0
  -23.1152   -4.3723   22.9542 F   0  0  0  0  0  0  0  0  0  0  0  0
  -31.5304  -20.8030   19.2926 F   0  0  0  0  0  0  0  0  0  0  0  0
  1  2  1  0  0  0  0
  1  5  2  0  0  0  0
  2  6  2  0  0  0  0
  3  8  2  0  0  0  0
  3 16  1  0  0  0  0
  4  9  1  0  0  0  0
  4 16  2  0  0  0  0
  5 18  1  0  0  0  0
  6 20  1  0  0  0  0
  7 10  2  0  0  0  0
  7 19  1  0  0  0  0
  8 23  1  0  0  0  0
  9 23  2  0  0  0  0
 10 24  1  0  0  0  0
 11 12  2  0  0  0  0
 11 25  1  0  0  0  0
 12 26  1  0  0  0  0
 13 21  1  0  0  0  0
 13 24  2  0  0  0  0
 14 22  1  0  0  0  0
 14 27  2  0  0  0  0
 15 26  2  0  0  0  0
 15 28  1  0  0  0  0
 16 29  1  0  0  0  0
 17 29  1  0  0  0  0
 17 32  2  0  0  0  0
 17 34  1  0  0  0  0
 18 20  2  0  0  0  0
 18 41  1  0  0  0  0
 19 21  2  0  0  0  0
 19 42  1  0  0  0  0
 20 50  1  0  0  0  0
 21 43  1  0  0  0  0
 22 31  2  0  0  0  0
 22 68  1  0  0  0  0
 23 80  1  0  0  0  0
 24 81  1  0  0  0  0
 25 28  2  0  0  0  0
 25 80  1  0  0  0  0
 26 82  1  0  0  0  0
 27 30  1  0  0  0  0
 27 83  1  0  0  0  0
 28 84  1  0  0  0  0
 29 61  2  0  0  0  0
 30 62  2  0  0  0  0
 30 69  1  0  0  0  0
 31 62  1  0  0  0  0
 31 85  1  0  0  0  0
 32 63  1  0  0  0  0
 32 66  1  0  0  0  0
 33 35  2  0  0  0  0
 33 81  1  0  0  0  0
 34 67  1  0  0  0  0
 34 73  2  0  0  0  0
 35 36  1  0  0  0  0
 35 79  1  0  0  0  0
 36 68  1  0  0  0  0
 36 74  2  0  0  0  0
 37 51  1  0  0  0  0
 37 70  1  0  0  0  0
 37 75  2  0  0  0  0
 38 58  1  0  0  0  0
 38 64  1  0  0  0  0
 38 76  2  0  0  0  0
 39 59  1  0  0  0  0
 39 71  1  0  0  0  0
 39 77  2  0  0  0  0
 40 65  1  0  0  0  0
 40 69  1  0  0  0  0
 40 78  2  0  0  0  0
 41 44  1  0  0  0  0
 42 51  1  0  0  0  0
 43 64  1  0  0  0  0
 44 46  1  0  0  0  0
 45 47  1  0  0  0  0
 45 48  1  0  0  0  0
 46 50  1  0  0  0  0
 47 52  1  0  0  0  0
 48 65  1  0  0  0  0
 49 52  1  0  0  0  0
 49 65  1  0  0  0  0
 50 70  1  0  0  0  0
 51 64  1  0  0  0  0
 52 63  1  0  0  0  0
 53 59  1  0  0  0  0
 54 60  1  0  0  0  0
 55 60  1  0  0  0  0
 56 60  1  0  0  0  0
 57 72  1  0  0  0  0
 58 60  1  0  0  0  0
 58 71  1  0  0  0  0
 59 72  1  0  0  0  0
 61 63  1  0  0  0  0
M  CHG  1  72   1
M  ISO  4  33 101  40 100  69 100  81 101
M  END
> <Batch ID>
0182

> <Smiles>
CNC(C)C(=O)NC(C(=O)N1Cc2cc([101O:1][101CH2:1]C(=O)C(=O)Nc3cc(F)c([100NH:0][100C:0](=O)N4CCCC(n5nc(-c6ccc(Oc7ccc(F)cc7F)cc6)c(C(N)=O)c5N)C4)nc3F)ccc2CC1C(=O)NC1CCCc2ccccc21)C(C)(C)C

> <Shape>
0.348

> <Color>
0.151

> <Negative vol penalty>
0.000

$$$$

  -OEChem-04052304563D

 84 92  0     1  0  0  0  0  0999 V2000
  -21.1934  -29.6131   23.3536 C   0  0  0  0  0  0  0  0  0  0  0  0
  -22.3063  -28.9181   23.8160 C   0  0  0  0  0  0  0  0  0  0  0  0
  -23.0014   -9.8911   19.9819 C   0  0  0  0  0  0  0  0  0  0  0  0
  -23.7258   -9.9461   22.2860 C   0  0  0  0  0  0  0  0  0  0  0  0
  -20.7092  -29.3754   22.0679 C   0  0  0  0  0  0  0  0  0  0  0  0
  -22.9351  -27.9841   22.9933 C   0  0  0  0  0  0  0  0  0  0  0  0
  -28.9262  -26.7389   22.7456 C   0  0  0  0  0  0  0  0  0  0  0  0
  -22.2359   -8.7562   20.2496 C   0  0  0  0  0  0  0  0  0  0  0  0
  -22.9603   -8.8112   22.5538 C   0  0  0  0  0  0  0  0  0  0  0  0
  -29.6988  -25.7293   23.3178 C   0  0  0  0  0  0  0  0  0  0  0  0
  -23.2081   -5.4718   22.0867 C   0  0  0  0  0  0  0  0  0  0  0  0
  -23.7964   -4.4563   22.8404 C   0  0  0  0  0  0  0  0  0  0  0  0
  -29.5347  -24.4549   21.2761 C   0  0  0  0  0  0  0  0  0  0  0  0
  -22.0718   -4.6999   24.5148 C   0  0  0  0  0  0  0  0  0  0  0  0
  -29.7787  -17.7146   22.6610 C   0  0  0  0  0  0  0  0  0  0  0  0
  -23.7464  -10.4860   21.0001 C   0  0  0  0  0  0  0  0  0  0  0  0
  -24.1293  -13.0017   20.8206 C   0  0  0  0  0  0  0  0  0  0  0  0
  -21.3381  -28.4451   21.2255 C   0  0  0  0  0  0  0  0  0  0  0  0
  -28.4421  -26.6091   21.4359 C   0  0  0  0  0  0  0  0  0  0  0  0
  -22.4580  -27.7328   21.6956 C   0  0  0  0  0  0  0  0  0  0  0  0
  -28.7583  -25.4654   20.6887 C   0  0  0  0  0  0  0  0  0  0  0  0
  -22.2153   -8.2163   21.5356 C   0  0  0  0  0  0  0  0  0  0  0  0
  -30.0008  -24.5857   22.5841 C   0  0  0  0  0  0  0  0  0  0  0  0
  -22.0516   -6.1015   22.5471 C   0  0  0  0  0  0  0  0  0  0  0  0
  -23.2283   -4.0703   24.0545 C   0  0  0  0  0  0  0  0  0  0  0  0
  -21.4835   -5.7155   23.7611 C   0  0  0  0  0  0  0  0  0  0  0  0
  -24.5378  -11.6580   20.7240 C   0  0  0  0  0  0  0  0  0  0  0  0
  -31.4272  -19.2989   22.7071 C   0  0  0  0  0  0  0  0  0  0  0  0
  -30.5770  -16.9066   21.8816 C   0  0  0  0  0  0  0  0  0  0  0  0
  -32.2259  -18.4907   21.9284 C   0  0  0  0  0  0  0  0  0  0  0  0
  -25.2384  -13.7249   20.4555 C   0  0  0  0  0  0  0  0  0  0  0  0
  -22.8607  -13.5474   21.2060 C   0  0  0  0  0  0  0  0  0  0  0  0
  -31.8599  -20.6362   23.1881 C   0  0  0  0  0  0  0  0  0  0  0  0
  -25.5540  -26.4808   20.1144 C   0  0  0  0  0  0  0  0  0  0  0  0
  -27.2447  -26.5469   17.3469 C   0  0  0  0  0  0  0  0  0  0  0  0
  -30.1928  -25.9418   15.7376 C   0  0  0  0  0  0  0  0  0  0  0  0
  -30.7169  -14.6917   20.6896 C   0  0  0  0  0  0  0  0  0  0  0  0
  -20.7499  -28.1878   19.8608 C   0  0  0  0  0  0  0  0  0  0  0  0
  -27.6323  -27.7190   20.8238 C   0  0  0  0  0  0  0  0  0  0  0  0
  -28.2798  -25.2866   19.2718 C   0  0  0  0  0  0  0  0  0  0  0  0
  -21.6991  -27.4541   18.9169 C   0  0  0  0  0  0  0  0  0  0  0  0
  -29.6017  -12.2344   18.3669 C   0  0  0  0  0  0  0  0  0  0  0  0
  -22.3450  -26.2676   19.6253 C   0  0  0  0  0  0  0  0  0  0  0  0
  -28.1512  -11.9759   18.7810 C   0  0  0  0  0  0  0  0  0  0  0  0
  -30.5016  -12.4804   19.5766 C   0  0  0  0  0  0  0  0  0  0  0  0
  -28.5851  -13.2693   20.9084 C   0  0  0  0  0  0  0  0  0  0  0  0
  -23.1822  -26.7299   20.8240 C   0  0  1  0  0  0  0  0  0  0  0  0
  -26.7612  -27.2523   19.6616 C   0  0  1  0  0  0  0  0  0  0  0  0
  -27.6280  -13.0803   19.7202 C   0  0  2  0  0  0  0  0  0  0  0  0
  -31.2586  -26.0585   13.4688 C   0  0  0  0  0  0  0  0  0  0  0  0
  -29.2178  -23.1493   24.9440 C   0  0  0  0  0  0  0  0  0  0  0  0
  -25.7362  -24.0297   16.5113 C   0  0  0  0  0  0  0  0  0  0  0  0
  -27.4662  -23.6655   14.7386 C   0  0  0  0  0  0  0  0  0  0  0  0
  -26.0443  -25.7145   14.6889 C   0  0  0  0  0  0  0  0  0  0  0  0
  -32.2325  -27.8741   16.6674 C   0  0  0  0  0  0  0  0  0  0  0  0
  -31.6293  -22.3300   24.9865 C   0  0  0  0  0  0  0  0  0  0  0  0
  -27.8545  -25.5041   16.4414 C   0  0  1  0  0  0  0  0  0  0  0  0
  -31.0095  -26.7893   14.7790 C   0  0  2  0  0  0  0  0  0  0  0  0
  -30.6631  -23.4306   24.5546 C   0  0  1  0  0  0  0  0  0  1  0  0
  -26.7828  -24.7306   15.6224 C   0  0  0  0  0  0  0  0  0  0  0  0
  -30.1894  -18.9253   23.0876 N   0  0  0  0  0  0  0  0  0  0  0  0
  -25.8073  -11.5322   20.3284 N   0  0  0  0  0  0  0  0  0  0  0  0
  -31.8150  -17.2801   21.5014 N   0  0  0  0  0  0  0  0  0  0  0  0
  -26.2061  -12.8061   20.1730 N   0  0  0  0  0  0  0  0  0  0  0  0
  -27.4861  -26.3969   18.7198 N   0  0  0  0  0  0  0  0  0  0  0  0
  -29.9453  -13.5420   20.4182 N   0  0  0  0  0  0  0  0  0  0  0  0
  -33.5153  -18.9385   21.5626 N   0  0  0  0  0  0  0  0  0  0  0  0
  -25.4706  -15.0507   20.3516 N   0  0  0  0  0  0  0  0  0  0  0  0
  -21.8297  -12.6628   21.5505 N   0  0  0  0  0  0  0  0  0  0  0  0
  -30.0715  -15.6474   21.4736 N   0  0  0  0  0  0  0  0  0  0  0  0
  -31.3256  -21.0509   24.4016 N   0  0  0  0  0  0  0  0  0  0  0  0
  -24.4494  -27.2681   20.3780 N   0  0  0  0  0  0  0  0  0  0  0  0
  -28.8430  -26.2002   15.6249 N   0  0  0  0  0  0  0  0  0  0  0  0
  -32.3276  -27.1315   15.3843 N   0  3  0  0  0  0  0  0  0  0  0  0
  -22.6427  -14.7826   21.2279 O   0  0  0  0  0  0  0  0  0  0  0  0
  -32.6306  -21.3007   22.5003 O   0  0  0  0  0  0  0  0  0  0  0  0
  -25.6194  -25.2613   20.2157 O   0  0  0  0  0  0  0  0  0  0  0  0
  -26.5847  -27.4648   16.8535 O   0  0  0  0  0  0  0  0  0  0  0  0
  -30.7010  -25.1289   16.5067 O   0  0  0  0  0  0  0  0  0  0  0  0
  -31.8555  -14.8311   20.2357 O   0  0  0  0  0  0  0  0  0  0  0  0
  -21.4683   -7.1090   21.7972 O   0  0  0  0  0  0  0  0  0  0  0  0
  -30.7542  -23.5984   23.1404 O   0  0  0  0  0  0  0  0  0  1  0  0
  -23.7925   -3.0940   24.7774 F   0  0  0  0  0  0  0  0  0  0  0  0
  -20.3719   -6.3159   24.2079 F   0  0  0  0  0  0  0  0  0  0  0  0
  1  2  1  0  0  0  0
  1  5  2  0  0  0  0
  2  6  2  0  0  0  0
  3  8  2  0  0  0  0
  3 16  1  0  0  0  0
  4  9  1  0  0  0  0
  4 16  2  0  0  0  0
  5 18  1  0  0  0  0
  6 20  1  0  0  0  0
  7 10  2  0  0  0  0
  7 19  1  0  0  0  0
  8 22  1  0  0  0  0
  9 22  2  0  0  0  0
 10 23  1  0  0  0  0
 11 12  2  0  0  0  0
 11 24  1  0  0  0  0
 12 25  1  0  0  0  0
 13 21  1  0  0  0  0
 13 23  2  0  0  0  0
 14 25  2  0  0  0  0
 14 26  1  0  0  0  0
 15 29  1  0  0  0  0
 15 61  2  0  0  0  0
 16 27  1  0  0  0  0
 17 27  1  0  0  0  0
 17 31  2  0  0  0  0
 17 32  1  0  0  0  0
 18 20  2  0  0  0  0
 18 38  1  0  0  0  0
 19 21  2  0  0  0  0
 19 39  1  0  0  0  0
 20 47  1  0  0  0  0
 21 40  1  0  0  0  0
 22 81  1  0  0  0  0
 23 82  1  0  0  0  0
 24 26  2  0  0  0  0
 24 81  1  0  0  0  0
 25 83  1  0  0  0  0
 26 84  1  0  0  0  0
 27 62  2  0  0  0  0
 28 30  2  0  0  0  0
 28 33  1  0  0  0  0
 28 61  1  0  0  0  0
 29 63  2  0  0  0  0
 29 70  1  0  0  0  0
 30 63  1  0  0  0  0
 30 67  1  0  0  0  0
 31 64  1  0  0  0  0
 31 68  1  0  0  0  0
 32 69  1  0  0  0  0
 32 75  2  0  0  0  0
 33 71  1  0  0  0  0
 33 76  2  0  0  0  0
 34 48  1  0  0  0  0
 34 72  1  0  0  0  0
 34 77  2  0  0  0  0
 35 57  1  0  0  0  0
 35 65  1  0  0  0  0
 35 78  2  0  0  0  0
 36 58  1  0  0  0  0
 36 73  1  0  0  0  0
 36 79  2  0  0  0  0
 37 66  1  0  0  0  0
 37 70  1  0  0  0  0
 37 80  2  0  0  0  0
 38 41  1  0  0  0  0
 39 48  1  0  0  0  0
 40 65  1  0  0  0  0
 41 43  1  0  0  0  0
 42 44  1  0  0  0  0
 42 45  1  0  0  0  0
 43 47  1  0  0  0  0
 44 49  1  0  0  0  0
 45 66  1  0  0  0  0
 46 49  1  0  0  0  0
 46 66  1  0  0  0  0
 47 72  1  0  0  0  0
 48 65  1  0  0  0  0
 49 64  1  0  0  0  0
 50 58  1  0  0  0  0
 51 59  1  0  0  0  0
 52 60  1  0  0  0  0
 53 60  1  0  0  0  0
 54 60  1  0  0  0  0
 55 74  1  0  0  0  0
 56 59  1  0  0  0  0
 56 71  1  0  0  0  0
 57 60  1  0  0  0  0
 57 73  1  0  0  0  0
 58 74  1  0  0  0  0
 59 82  1  0  0  0  0
 62 64  1  0  0  0  0
M  CHG  1  74   1
M  ISO  4  37 100  59 101  70 100  82 101
M  END
> <Batch ID>
0182

> <Smiles>
CNC(C)C(=O)NC(C(=O)N1Cc2cc([101O:1][101CH:1](C)CNC(=O)c3ncc([100NH:0][100C:0](=O)N4CCCC(n5nc(-c6ccc(Oc7ccc(F)cc7F)cc6)c(C(N)=O)c5N)C4)nc3N)ccc2CC1C(=O)NC1CCCc2ccccc21)C(C)(C)C

> <Shape>
0.263

> <Color>
0.182

> <Negative vol penalty>
0.000

$$$$

  -OEChem-04052304563D

 84 92  0     1  0  0  0  0  0999 V2000
  -28.4491  -30.0920   19.6239 C   0  0  0  0  0  0  0  0  0  0  0  0
  -28.3950  -29.0862   20.5836 C   0  0  0  0  0  0  0  0  0  0  0  0
  -23.0462   -9.8349   19.9659 C   0  0  0  0  0  0  0  0  0  0  0  0
  -23.7637   -9.8984   22.2720 C   0  0  0  0  0  0  0  0  0  0  0  0
  -27.3354  -30.9001   19.3993 C   0  0  0  0  0  0  0  0  0  0  0  0
  -27.2275  -28.8888   21.3200 C   0  0  0  0  0  0  0  0  0  0  0  0
  -25.9764  -23.9967   21.7033 C   0  0  0  0  0  0  0  0  0  0  0  0
  -22.3023   -8.6847   20.2289 C   0  0  0  0  0  0  0  0  0  0  0  0
  -23.0197   -8.7482   22.5351 C   0  0  0  0  0  0  0  0  0  0  0  0
  -26.6818  -23.2297   22.6296 C   0  0  0  0  0  0  0  0  0  0  0  0
  -23.3335   -5.4155   22.0608 C   0  0  0  0  0  0  0  0  0  0  0  0
  -23.9395   -4.4097   22.8137 C   0  0  0  0  0  0  0  0  0  0  0  0
  -24.8515  -23.4384   24.1871 C   0  0  0  0  0  0  0  0  0  0  0  0
  -22.2063   -4.6158   24.4842 C   0  0  0  0  0  0  0  0  0  0  0  0
  -23.7770  -10.4417   20.9874 C   0  0  0  0  0  0  0  0  0  0  0  0
  -24.1114  -12.9648   20.8148 C   0  0  0  0  0  0  0  0  0  0  0  0
  -26.1504  -30.7062   20.1265 C   0  0  0  0  0  0  0  0  0  0  0  0
  -24.7057  -24.5002   22.0166 C   0  0  0  0  0  0  0  0  0  0  0  0
  -26.0973  -29.6960   21.1058 C   0  0  0  0  0  0  0  0  0  0  0  0
  -24.1310  -24.2093   23.2620 C   0  0  0  0  0  0  0  0  0  0  0  0
  -22.2890   -8.1414   21.5136 C   0  0  0  0  0  0  0  0  0  0  0  0
  -26.1206  -22.9529   23.8728 C   0  0  0  0  0  0  0  0  0  0  0  0
  -22.1639   -6.0214   22.5197 C   0  0  0  0  0  0  0  0  0  0  0  0
  -23.3759   -4.0099   24.0253 C   0  0  0  0  0  0  0  0  0  0  0  0
  -21.6003   -5.6215   23.7313 C   0  0  0  0  0  0  0  0  0  0  0  0
  -24.5462  -11.6295   20.7161 C   0  0  0  0  0  0  0  0  0  0  0  0
  -31.7045  -18.7811   22.2284 C   0  0  0  0  0  0  0  0  0  0  0  0
  -25.2072  -13.7103   20.4542 C   0  0  0  0  0  0  0  0  0  0  0  0
  -30.5880  -19.1608   22.9435 C   0  0  0  0  0  0  0  0  0  0  0  0
  -30.4794  -16.9915   21.9019 C   0  0  0  0  0  0  0  0  0  0  0  0
  -22.8314  -13.4849   21.1982 C   0  0  0  0  0  0  0  0  0  0  0  0
  -29.1482  -21.9549   25.0222 C   0  0  0  0  0  0  0  0  0  0  0  0
  -28.0209  -22.6661   25.2059 C   0  0  0  0  0  0  0  0  0  1  0  0
  -29.1016  -20.6052   24.3667 C   0  0  0  0  0  0  0  0  0  0  0  0
  -23.4507  -27.4075   22.2938 C   0  0  0  0  0  0  0  0  0  0  0  0
  -20.6842  -25.7538   22.6599 C   0  0  0  0  0  0  0  0  0  0  0  0
  -19.1475  -22.8362   23.5389 C   0  0  0  0  0  0  0  0  0  0  0  0
  -30.6652  -14.7827   20.7049 C   0  0  0  0  0  0  0  0  0  0  0  0
  -24.9880  -31.6355   19.8816 C   0  0  0  0  0  0  0  0  0  0  0  0
  -23.9465  -25.3035   20.9963 C   0  0  0  0  0  0  0  0  0  0  0  0
  -22.7614  -24.7093   23.6396 C   0  0  0  0  0  0  0  0  0  0  0  0
  -23.6658  -31.1177   20.4419 C   0  0  0  0  0  0  0  0  0  0  0  0
  -29.6038  -12.3099   18.3734 C   0  0  0  0  0  0  0  0  0  0  0  0
  -23.8532  -30.6071   21.8670 C   0  0  0  0  0  0  0  0  0  0  0  0
  -28.1576  -12.0223   18.7831 C   0  0  0  0  0  0  0  0  0  0  0  0
  -30.4957  -12.5704   19.5859 C   0  0  0  0  0  0  0  0  0  0  0  0
  -28.5609  -13.3186   20.9148 C   0  0  0  0  0  0  0  0  0  0  0  0
  -24.8407  -29.4347   21.9076 C   0  0  1  0  0  0  0  0  0  0  0  0
  -22.8756  -26.1964   21.6153 C   0  0  1  0  0  0  0  0  0  0  0  0
  -27.6106  -13.1140   19.7236 C   0  0  2  0  0  0  0  0  0  0  0  0
  -32.9358  -19.5781   22.0513 C   0  0  0  0  0  0  0  0  0  0  0  0
  -27.9809  -24.0147   25.8635 C   0  0  0  0  0  0  0  0  0  0  0  0
  -16.8740  -21.7998   23.7723 C   0  0  0  0  0  0  0  0  0  0  0  0
  -20.2449  -27.3067   25.2494 C   0  0  0  0  0  0  0  0  0  0  0  0
  -18.5251  -25.6059   25.8958 C   0  0  0  0  0  0  0  0  0  0  0  0
  -18.1914  -27.0011   23.8551 C   0  0  0  0  0  0  0  0  0  0  0  0
  -19.7598  -20.7586   21.5220 C   0  0  0  0  0  0  0  0  0  0  0  0
  -19.9348  -25.1702   23.8333 C   0  0  1  0  0  0  0  0  0  0  0  0
  -18.0654  -22.0214   22.8535 C   0  0  2  0  0  0  0  0  0  0  0  0
  -19.2507  -26.2630   24.7023 C   0  0  0  0  0  0  0  0  0  0  0  0
  -25.8189  -11.5294   20.3235 N   0  0  0  0  0  0  0  0  0  0  0  0
  -31.6441  -17.5373   21.6307 N   0  0  0  0  0  0  0  0  0  0  0  0
  -26.1932  -12.8112   20.1722 N   0  0  0  0  0  0  0  0  0  0  0  0
  -22.0614  -25.4958   22.6105 N   0  0  0  0  0  0  0  0  0  0  0  0
  -29.9168  -13.6189   20.4287 N   0  0  0  0  0  0  0  0  0  0  0  0
  -25.4138  -15.0406   20.3541 N   0  0  0  0  0  0  0  0  0  0  0  0
  -21.8169  -12.5795   21.5379 N   0  0  0  0  0  0  0  0  0  0  0  0
  -30.2754  -20.3310   23.6776 N   0  0  0  0  0  0  0  0  0  0  0  0
  -29.9994  -15.7237   21.4895 N   0  0  0  0  0  0  0  0  0  0  0  0
  -24.1985  -28.2173   21.4604 N   0  0  0  0  0  0  0  0  0  0  0  0
  -19.0136  -24.1838   23.2795 N   0  0  0  0  0  0  0  0  0  0  0  0
  -18.5986  -20.6908   22.4461 N   0  3  0  0  0  0  0  0  0  0  0  0
  -22.5894  -14.7155   21.2224 O   0  0  0  0  0  0  0  0  0  0  0  0
  -28.1111  -19.8904   24.4705 O   0  0  0  0  0  0  0  0  0  0  0  0
  -23.2310  -27.5941   23.4848 O   0  0  0  0  0  0  0  0  0  0  0  0
  -20.0690  -26.4083   21.8145 O   0  0  0  0  0  0  0  0  0  0  0  0
  -20.0217  -22.3283   24.2377 O   0  0  0  0  0  0  0  0  0  0  0  0
  -31.8021  -14.9453   20.2543 O   0  0  0  0  0  0  0  0  0  0  0  0
  -30.3752  -22.4378   25.4371 O   0  0  0  0  0  0  0  0  0  0  0  0
  -21.5629   -7.0192   21.7707 O   0  0  0  0  0  0  0  0  0  0  0  0
  -26.8072  -22.2052   24.7790 O   0  0  0  0  0  0  0  0  0  1  0  0
  -23.9572   -3.0430   24.7475 F   0  0  0  0  0  0  0  0  0  0  0  0
  -20.4761   -6.1991   24.1767 F   0  0  0  0  0  0  0  0  0  0  0  0
  -29.4077  -17.9187   22.8699 S   0  0  0  0  0  0  0  0  0  0  0  0
  1  2  1  0  0  0  0
  1  5  2  0  0  0  0
  2  6  2  0  0  0  0
  3  8  2  0  0  0  0
  3 15  1  0  0  0  0
  4  9  1  0  0  0  0
  4 15  2  0  0  0  0
  5 17  1  0  0  0  0
  6 19  1  0  0  0  0
  7 10  2  0  0  0  0
  7 18  1  0  0  0  0
  8 21  1  0  0  0  0
  9 21  2  0  0  0  0
 10 22  1  0  0  0  0
 11 12  2  0  0  0  0
 11 23  1  0  0  0  0
 12 24  1  0  0  0  0
 13 20  1  0  0  0  0
 13 22  2  0  0  0  0
 14 24  2  0  0  0  0
 14 25  1  0  0  0  0
 15 26  1  0  0  0  0
 16 26  1  0  0  0  0
 16 28  2  0  0  0  0
 16 31  1  0  0  0  0
 17 19  2  0  0  0  0
 17 39  1  0  0  0  0
 18 20  2  0  0  0  0
 18 40  1  0  0  0  0
 19 48  1  0  0  0  0
 20 41  1  0  0  0  0
 21 80  1  0  0  0  0
 22 81  1  0  0  0  0
 23 25  2  0  0  0  0
 23 80  1  0  0  0  0
 24 82  1  0  0  0  0
 25 83  1  0  0  0  0
 26 61  2  0  0  0  0
 27 29  2  0  0  0  0
 27 51  1  0  0  0  0
 27 62  1  0  0  0  0
 28 63  1  0  0  0  0
 28 66  1  0  0  0  0
 29 68  1  0  0  0  0
 29 84  1  0  0  0  0
 30 62  2  0  0  0  0
 30 69  1  0  0  0  0
 30 84  1  0  0  0  0
 31 67  1  0  0  0  0
 31 73  2  0  0  0  0
 32 33  2  0  0  0  0
 32 34  1  0  0  0  0
 32 79  1  0  0  0  0
 33 52  1  0  0  0  0
 33 81  1  0  0  0  0
 34 68  1  0  0  0  0
 34 74  2  0  0  0  0
 35 49  1  0  0  0  0
 35 70  1  0  0  0  0
 35 75  2  0  0  0  0
 36 58  1  0  0  0  0
 36 64  1  0  0  0  0
 36 76  2  0  0  0  0
 37 59  1  0  0  0  0
 37 71  1  0  0  0  0
 37 77  2  0  0  0  0
 38 65  1  0  0  0  0
 38 69  1  0  0  0  0
 38 78  2  0  0  0  0
 39 42  1  0  0  0  0
 40 49  1  0  0  0  0
 41 64  1  0  0  0  0
 42 44  1  0  0  0  0
 43 45  1  0  0  0  0
 43 46  1  0  0  0  0
 44 48  1  0  0  0  0
 45 50  1  0  0  0  0
 46 65  1  0  0  0  0
 47 50  1  0  0  0  0
 47 65  1  0  0  0  0
 48 70  1  0  0  0  0
 49 64  1  0  0  0  0
 50 63  1  0  0  0  0
 53 59  1  0  0  0  0
 54 60  1  0  0  0  0
 55 60  1  0  0  0  0
 56 60  1  0  0  0  0
 57 72  1  0  0  0  0
 58 60  1  0  0  0  0
 58 71  1  0  0  0  0
 59 72  1  0  0  0  0
 61 63  1  0  0  0  0
M  CHG  1  72   1
M  ISO  4  33 101  38 100  69 100  81 101
M  END
> <Batch ID>
0182

> <Smiles>
CNC(C)C(=O)NC(C(=O)N1Cc2cc([101O:1][101CH:1](C)C(=O)C(=O)Nc3sc([100NH:0][100C:0](=O)N4CCCC(n5nc(-c6ccc(Oc7ccc(F)cc7F)cc6)c(C(N)=O)c5N)C4)nc3C)ccc2CC1C(=O)NC1CCCc2ccccc21)C(C)(C)C

> <Shape>
0.258

> <Color>
0.214

> <Negative vol penalty>
0.000

$$$$

  -OEChem-04052304563D

 86 94  0     1  0  0  0  0  0999 V2000
  -26.4668  -23.5784   14.8196 C   0  0  0  0  0  0  0  0  0  0  0  0
  -25.4462  -23.9620   15.6838 C   0  0  0  0  0  0  0  0  0  0  0  0
  -28.6784  -16.2258   22.1681 C   0  0  0  0  0  0  0  0  0  0  0  0
  -26.6537  -16.7984   20.9808 C   0  0  0  0  0  0  0  0  0  0  0  0
  -27.7842  -23.5358   15.2740 C   0  0  0  0  0  0  0  0  0  0  0  0
  -25.7424  -24.3021   17.0032 C   0  0  0  0  0  0  0  0  0  0  0  0
  -23.3499  -28.5031   18.5106 C   0  0  0  0  0  0  0  0  0  0  0  0
  -28.5973  -14.9225   21.6778 C   0  0  0  0  0  0  0  0  0  0  0  0
  -26.5726  -15.4951   20.4905 C   0  0  0  0  0  0  0  0  0  0  0  0
  -22.0035  -28.3814   18.8517 C   0  0  0  0  0  0  0  0  0  0  0  0
  -25.6342  -12.2235   19.2153 C   0  0  0  0  0  0  0  0  0  0  0  0
  -24.3905  -11.5931   19.2523 C   0  0  0  0  0  0  0  0  0  0  0  0
  -22.6061  -28.3308   21.1870 C   0  0  0  0  0  0  0  0  0  0  0  0
  -24.3399  -11.8339   21.6557 C   0  0  0  0  0  0  0  0  0  0  0  0
  -27.7065  -17.1637   21.8197 C   0  0  0  0  0  0  0  0  0  0  0  0
  -28.4472  -19.6033   21.7314 C   0  0  0  0  0  0  0  0  0  0  0  0
  -28.0979  -23.8848   16.5971 C   0  0  0  0  0  0  0  0  0  0  0  0
  -24.3369  -28.5286   19.5063 C   0  0  0  0  0  0  0  0  0  0  0  0
  -27.0651  -24.2627   17.4762 C   0  0  0  0  0  0  0  0  0  0  0  0
  -23.9640  -28.4554   20.8560 C   0  0  0  0  0  0  0  0  0  0  0  0
  -27.5445  -14.5571   20.8390 C   0  0  0  0  0  0  0  0  0  0  0  0
  -21.6317  -28.2924   20.1900 C   0  0  0  0  0  0  0  0  0  0  0  0
  -26.2308  -12.6591   20.3986 C   0  0  0  0  0  0  0  0  0  0  0  0
  -23.7433  -11.3983   20.4724 C   0  0  0  0  0  0  0  0  0  0  0  0
  -25.5836  -12.4643   21.6187 C   0  0  0  0  0  0  0  0  0  0  0  0
  -27.7894  -18.5101   22.3263 C   0  0  0  0  0  0  0  0  0  0  0  0
  -20.5228  -24.3098   25.5363 C   0  0  0  0  0  0  0  0  0  0  0  0
  -28.2327  -20.6465   22.5987 C   0  0  0  0  0  0  0  0  0  0  0  0
  -20.6782  -24.5115   24.1809 C   0  0  0  0  0  0  0  0  0  0  0  0
  -22.3686  -23.1626   25.2417 C   0  0  0  0  0  0  0  0  0  0  0  0
  -29.1860  -19.6698   20.5045 C   0  0  0  0  0  0  0  0  0  0  0  0
  -26.8160  -26.6854   20.2550 C   0  0  0  0  0  0  0  0  0  0  0  0
  -27.4078  -29.0294   22.4177 C   0  0  0  0  0  0  0  0  0  0  0  0
  -20.1698  -25.3644   21.8660 C   0  0  0  0  0  0  0  0  0  0  0  0
  -26.1956  -31.5934   24.3160 C   0  0  0  0  0  0  0  0  0  0  0  0
  -23.9705  -21.7968   26.6255 C   0  0  0  0  0  0  0  0  0  0  0  0
  -29.5307  -23.7779   17.0558 C   0  0  0  0  0  0  0  0  0  0  0  0
  -25.7827  -28.6871   19.1230 C   0  0  0  0  0  0  0  0  0  0  0  0
  -24.9835  -28.4986   21.9638 C   0  0  0  0  0  0  0  0  0  0  0  0
  -29.8080  -24.5143   18.3639 C   0  0  0  0  0  0  0  0  0  0  0  0
  -27.4704  -21.5644   27.2366 C   0  0  0  0  0  0  0  0  0  0  0  0
  -28.7279  -24.1984   19.3937 C   0  0  0  0  0  0  0  0  0  0  0  0
  -28.0101  -20.8597   25.9899 C   0  0  0  0  0  0  0  0  0  0  0  0
  -26.1010  -21.0245   27.6451 C   0  0  0  0  0  0  0  0  0  0  0  0
  -25.6308  -20.3181   25.3323 C   0  0  0  0  0  0  0  0  0  0  0  0
  -27.3496  -24.6628   18.9076 C   0  0  1  0  0  0  0  0  0  0  0  0
  -26.7439  -28.1851   20.1961 C   0  0  1  0  0  0  0  0  0  0  0  0
  -26.9790  -20.8728   24.8444 C   0  0  2  0  0  0  0  0  0  0  0  0
  -26.9118  -33.2976   26.0130 C   0  0  0  0  0  0  0  0  0  0  0  0
  -18.4786  -27.5182   19.1376 C   0  0  0  0  0  0  0  0  0  0  0  0
  -19.7603  -26.2152   26.9671 C   0  0  0  0  0  0  0  0  0  0  0  0
  -27.4804  -26.8601   24.5621 C   0  0  0  0  0  0  0  0  0  0  0  0
  -27.2431  -28.6570   26.2893 C   0  0  0  0  0  0  0  0  0  0  0  0
  -29.2423  -28.6192   24.7978 C   0  0  0  0  0  0  0  0  0  0  0  0
  -25.4287  -33.8426   22.5518 C   0  0  0  0  0  0  0  0  0  0  0  0
  -19.0948  -26.2223   21.2058 C   0  0  0  0  0  0  0  0  0  0  0  0
  -26.9990  -29.2937   23.8467 C   0  0  1  0  0  0  0  0  0  0  0  0
  -26.6976  -33.0091   24.5353 C   0  0  2  0  0  0  0  0  0  0  0  0
  -19.6202  -27.0348   20.0222 C   0  0  2  0  0  0  0  0  0  1  0  0
  -19.4286  -24.8418   26.3744 C   0  0  0  0  0  0  0  0  0  0  0  0
  -27.7219  -28.3547   24.8533 C   0  0  0  0  0  0  0  0  0  0  0  0
  -27.2011  -18.8291   23.4823 N   0  0  0  0  0  0  0  0  0  0  0  0
  -21.4909  -23.5362   26.1463 N   0  0  0  0  0  0  0  0  0  0  0  0
  -27.4887  -20.1346   23.6207 N   0  0  0  0  0  0  0  0  0  0  0  0
  -26.3848  -28.6483   21.5380 N   0  0  0  0  0  0  0  0  0  0  0  0
  -25.1755  -21.0718   26.5111 N   0  0  0  0  0  0  0  0  0  0  0  0
  -28.6098  -21.9425   22.5791 N   0  0  0  0  0  0  0  0  0  0  0  0
  -29.3090  -18.5051   19.7346 N   0  0  0  0  0  0  0  0  0  0  0  0
  -19.9156  -25.2282   23.2282 N   0  0  0  0  0  0  0  0  0  0  0  0
  -23.5215  -22.3612   25.4320 N   0  0  0  0  0  0  0  0  0  0  0  0
  -27.2122  -26.0943   19.0704 N   0  0  0  0  0  0  0  0  0  0  0  0
  -27.2319  -30.7145   24.0819 N   0  0  0  0  0  0  0  0  0  0  0  0
  -25.7161  -33.9953   24.0013 N   0  3  0  0  0  0  0  0  0  0  0  0
  -29.7352  -20.7267   20.1109 O   0  0  0  0  0  0  0  0  0  0  0  0
  -26.5346  -26.1075   21.2983 O   0  0  0  0  0  0  0  0  0  0  0  0
  -28.5901  -29.1634   22.0924 O   0  0  0  0  0  0  0  0  0  0  0  0
  -21.1053  -24.8871   21.2327 O   0  0  0  0  0  0  0  0  0  0  0  0
  -25.0036  -31.2962   24.3526 O   0  0  0  0  0  0  0  0  0  0  0  0
  -23.3946  -21.9316   27.7082 O   0  0  0  0  0  0  0  0  0  0  0  0
  -27.4652  -13.2855   20.3601 O   0  0  0  0  0  0  0  0  0  0  0  0
  -20.3183  -28.1729   20.5257 O   0  0  0  0  0  0  0  0  0  1  0  0
  -22.5483  -10.7943   20.5076 F   0  0  0  0  0  0  0  0  0  0  0  0
  -26.1512  -12.8817   22.7587 F   0  0  0  0  0  0  0  0  0  0  0  0
  -19.1033  -24.0277   27.4367 F   0  0  0  0  0  0  0  0  0  0  0  0
  -18.2378  -24.9871   25.6977 F   0  0  0  0  0  0  0  0  0  0  0  0
  -22.0916  -23.7061   23.6377 S   0  0  0  0  0  0  0  0  0  0  0  0
  1  2  1  0  0  0  0
  1  5  2  0  0  0  0
  2  6  2  0  0  0  0
  3  8  2  0  0  0  0
  3 15  1  0  0  0  0
  4  9  1  0  0  0  0
  4 15  2  0  0  0  0
  5 17  1  0  0  0  0
  6 19  1  0  0  0  0
  7 10  2  0  0  0  0
  7 18  1  0  0  0  0
  8 21  1  0  0  0  0
  9 21  2  0  0  0  0
 10 22  1  0  0  0  0
 11 12  2  0  0  0  0
 11 23  1  0  0  0  0
 12 24  1  0  0  0  0
 13 20  1  0  0  0  0
 13 22  2  0  0  0  0
 14 24  2  0  0  0  0
 14 25  1  0  0  0  0
 15 26  1  0  0  0  0
 16 26  1  0  0  0  0
 16 28  2  0  0  0  0
 16 31  1  0  0  0  0
 17 19  2  0  0  0  0
 17 37  1  0  0  0  0
 18 20  2  0  0  0  0
 18 38  1  0  0  0  0
 19 46  1  0  0  0  0
 20 39  1  0  0  0  0
 21 80  1  0  0  0  0
 22 81  1  0  0  0  0
 23 25  2  0  0  0  0
 23 80  1  0  0  0  0
 24 82  1  0  0  0  0
 25 83  1  0  0  0  0
 26 62  2  0  0  0  0
 27 29  2  0  0  0  0
 27 60  1  0  0  0  0
 27 63  1  0  0  0  0
 28 64  1  0  0  0  0
 28 67  1  0  0  0  0
 29 69  1  0  0  0  0
 29 86  1  0  0  0  0
 30 63  2  0  0  0  0
 30 70  1  0  0  0  0
 30 86  1  0  0  0  0
 31 68  1  0  0  0  0
 31 74  2  0  0  0  0
 32 47  1  0  0  0  0
 32 71  1  0  0  0  0
 32 75  2  0  0  0  0
 33 57  1  0  0  0  0
 33 65  1  0  0  0  0
 33 76  2  0  0  0  0
 34 56  1  0  0  0  0
 34 69  1  0  0  0  0
 34 77  2  0  0  0  0
 35 58  1  0  0  0  0
 35 72  1  0  0  0  0
 35 78  2  0  0  0  0
 36 66  1  0  0  0  0
 36 70  1  0  0  0  0
 36 79  2  0  0  0  0
 37 40  1  0  0  0  0
 38 47  1  0  0  0  0
 39 65  1  0  0  0  0
 40 42  1  0  0  0  0
 41 43  1  0  0  0  0
 41 44  1  0  0  0  0
 42 46  1  0  0  0  0
 43 48  1  0  0  0  0
 44 66  1  0  0  0  0
 45 48  1  0  0  0  0
 45 66  1  0  0  0  0
 46 71  1  0  0  0  0
 47 65  1  0  0  0  0
 48 64  1  0  0  0  0
 49 58  1  0  0  0  0
 50 59  1  0  0  0  0
 51 60  1  0  0  0  0
 52 61  1  0  0  0  0
 53 61  1  0  0  0  0
 54 61  1  0  0  0  0
 55 73  1  0  0  0  0
 56 59  1  0  0  0  0
 57 61  1  0  0  0  0
 57 72  1  0  0  0  0
 58 73  1  0  0  0  0
 59 81  1  0  0  0  0
 60 84  1  0  0  0  0
 60 85  1  0  0  0  0
 62 64  1  0  0  0  0
M  CHG  1  73   1
M  ISO  4  36 100  59 101  70 100  81 101
M  END
> <Batch ID>
0182

> <Smiles>
CNC(C)C(=O)NC(C(=O)N1Cc2cc([101O:1][101CH:1](C)CC(=O)Nc3sc([100NH:0][100C:0](=O)N4CCCC(n5nc(-c6ccc(Oc7ccc(F)cc7F)cc6)c(C(N)=O)c5N)C4)nc3C(C)(F)F)ccc2CC1C(=O)NC1CCCc2ccccc21)C(C)(C)C

> <Shape>
0.218

> <Color>
0.053

> <Negative vol penalty>
0.000

$$$$

  -OEChem-04052304563D

 86 94  0     1  0  0  0  0  0999 V2000
  -29.6208  -35.8092   20.8956 C   0  0  0  0  0  0  0  0  0  0  0  0
  -29.6587  -34.4198   20.9556 C   0  0  0  0  0  0  0  0  0  0  0  0
  -24.8557   -8.7206   21.0583 C   0  0  0  0  0  0  0  0  0  0  0  0
  -23.1610  -10.0616   19.9782 C   0  0  0  0  0  0  0  0  0  0  0  0
  -28.6192  -36.5078   21.5685 C   0  0  0  0  0  0  0  0  0  0  0  0
  -28.6956  -33.7282   21.6896 C   0  0  0  0  0  0  0  0  0  0  0  0
  -26.8661  -29.7161   19.1994 C   0  0  0  0  0  0  0  0  0  0  0  0
  -23.8780   -7.8129   21.4654 C   0  0  0  0  0  0  0  0  0  0  0  0
  -22.1833   -9.1539   20.3851 C   0  0  0  0  0  0  0  0  0  0  0  0
  -27.6579  -28.5690   19.1711 C   0  0  0  0  0  0  0  0  0  0  0  0
  -21.5299   -7.6011   23.8874 C   0  0  0  0  0  0  0  0  0  0  0  0
  -21.5757   -7.1483   25.2059 C   0  0  0  0  0  0  0  0  0  0  0  0
  -26.3257  -27.6132   20.9406 C   0  0  0  0  0  0  0  0  0  0  0  0
  -27.7270  -19.4579   17.9833 C   0  0  0  0  0  0  0  0  0  0  0  0
  -27.6006  -20.1573   15.6742 C   0  0  0  0  0  0  0  0  0  0  0  0
  -21.8263   -4.8783   24.4176 C   0  0  0  0  0  0  0  0  0  0  0  0
  -24.4972   -9.8450   20.3148 C   0  0  0  0  0  0  0  0  0  0  0  0
  -26.2474  -10.7558   18.6978 C   0  0  0  0  0  0  0  0  0  0  0  0
  -27.6378  -35.8239   22.3032 C   0  0  0  0  0  0  0  0  0  0  0  0
  -25.8031  -29.8251   20.1075 C   0  0  0  0  0  0  0  0  0  0  0  0
  -27.6808  -34.4184   22.3740 C   0  0  0  0  0  0  0  0  0  0  0  0
  -25.5204  -28.7617   20.9767 C   0  0  0  0  0  0  0  0  0  0  0  0
  -27.6459  -20.4746   17.0317 C   0  0  0  0  0  0  0  0  0  0  0  0
  -27.7630  -18.1239   17.5773 C   0  0  0  0  0  0  0  0  0  0  0  0
  -22.5418   -8.0294   21.1287 C   0  0  0  0  0  0  0  0  0  0  0  0
  -27.3896  -27.5184   20.0438 C   0  0  0  0  0  0  0  0  0  0  0  0
  -21.6323   -6.6925   22.8340 C   0  0  0  0  0  0  0  0  0  0  0  0
  -21.7239   -5.7869   25.4710 C   0  0  0  0  0  0  0  0  0  0  0  0
  -27.6366  -18.8233   15.2682 C   0  0  0  0  0  0  0  0  0  0  0  0
  -21.7805   -5.3312   23.0991 C   0  0  0  0  0  0  0  0  0  0  0  0
  -27.7178  -17.8066   16.2197 C   0  0  0  0  0  0  0  0  0  0  0  0
  -25.5067  -10.7834   19.8946 C   0  0  0  0  0  0  0  0  0  0  0  0
  -27.0667  -11.8555   18.7757 C   0  0  0  0  0  0  0  0  0  0  0  0
  -26.1992   -9.8200   17.6126 C   0  0  0  0  0  0  0  0  0  0  0  0
  -27.5926  -23.8007   18.7900 C   0  0  0  0  0  0  0  0  0  0  0  0
  -27.6529  -22.3014   18.7362 C   0  0  0  0  0  0  0  0  0  0  0  0
  -25.1038  -31.7743   22.5190 C   0  0  0  0  0  0  0  0  0  0  0  0
  -22.3017  -30.1402   22.5155 C   0  0  0  0  0  0  0  0  0  0  0  0
  -20.6162  -27.2811   21.7212 C   0  0  0  0  0  0  0  0  0  0  0  0
  -27.8977  -17.2384   19.9318 C   0  0  0  0  0  0  0  0  0  0  0  0
  -26.6026  -36.6247   23.0528 C   0  0  0  0  0  0  0  0  0  0  0  0
  -24.9418  -31.0582   20.1072 C   0  0  0  0  0  0  0  0  0  0  0  0
  -24.3782  -28.8207   21.9567 C   0  0  0  0  0  0  0  0  0  0  0  0
  -25.4000  -35.7981   23.5006 C   0  0  0  0  0  0  0  0  0  0  0  0
  -28.0662  -14.9502   22.6545 C   0  0  0  0  0  0  0  0  0  0  0  0
  -25.8586  -34.4915   24.1404 C   0  0  0  0  0  0  0  0  0  0  0  0
  -27.4762  -13.6599   22.0808 C   0  0  0  0  0  0  0  0  0  0  0  0
  -27.3514  -16.1887   22.1170 C   0  0  0  0  0  0  0  0  0  0  0  0
  -26.6762  -14.9797   20.0795 C   0  0  0  0  0  0  0  0  0  0  0  0
  -26.6393  -33.6313   23.1394 C   0  0  1  0  0  0  0  0  0  0  0  0
  -24.2042  -31.2722   21.4253 C   0  0  1  0  0  0  0  0  0  0  0  0
  -27.4060  -13.7080   20.5418 C   0  0  2  0  0  0  0  0  0  0  0  0
  -18.3446  -26.2259   21.8760 C   0  0  0  0  0  0  0  0  0  0  0  0
  -22.7578  -29.5992   25.4836 C   0  0  0  0  0  0  0  0  0  0  0  0
  -21.0202  -27.8016   25.3516 C   0  0  0  0  0  0  0  0  0  0  0  0
  -20.3997  -30.1708   24.8777 C   0  0  0  0  0  0  0  0  0  0  0  0
  -20.3903  -27.0609   18.7785 C   0  0  0  0  0  0  0  0  0  0  0  0
  -28.9154  -24.5297   18.7015 C   0  0  0  0  0  0  0  0  0  0  0  0
  -28.7465  -26.0401   18.7673 C   0  0  0  0  0  0  0  0  0  1  0  0
  -21.7902  -28.8936   23.1962 C   0  0  1  0  0  0  0  0  0  0  0  0
  -19.2886  -27.0561   21.0202 C   0  0  2  0  0  0  0  0  0  0  0  0
  -21.5148  -29.1157   24.7102 C   0  0  0  0  0  0  0  0  0  0  0  0
  -25.8271  -11.8184   20.6756 N   0  0  0  0  0  0  0  0  0  0  0  0
  -26.7784  -12.4514   19.9682 N   0  0  0  0  0  0  0  0  0  0  0  0
  -23.5689  -30.0501   21.9223 N   0  0  0  0  0  0  0  0  0  0  0  0
  -27.3273  -16.1680   20.6528 N   0  0  0  0  0  0  0  0  0  0  0  0
  -27.9985  -12.3611   17.9399 N   0  0  0  0  0  0  0  0  0  0  0  0
  -25.3000   -8.7481   17.6942 N   0  0  0  0  0  0  0  0  0  0  0  0
  -27.6093  -21.8274   17.4428 N   0  0  0  0  0  0  0  0  0  0  0  0
  -27.8450  -17.0931   18.5460 N   0  0  0  0  0  0  0  0  0  0  0  0
  -25.7321  -32.9697   22.2262 N   0  0  0  0  0  0  0  0  0  0  0  0
  -20.6239  -28.4615   22.4338 N   0  0  0  0  0  0  0  0  0  0  0  0
  -19.4994  -26.3450   19.7276 N   0  3  0  0  0  0  0  0  0  0  0  0
  -26.9435   -9.9219   16.6080 O   0  0  0  0  0  0  0  0  0  0  0  0
  -26.4879  -24.3130   18.8890 O   0  0  0  0  0  0  0  0  0  0  0  0
  -27.7557  -21.7202   19.8036 O   0  0  0  0  0  0  0  0  0  0  0  0
  -25.2183  -31.1260   23.5525 O   0  0  0  0  0  0  0  0  0  0  0  0
  -21.5996  -31.1544   22.5042 O   0  0  0  0  0  0  0  0  0  0  0  0
  -21.5514  -26.4871   21.6474 O   0  0  0  0  0  0  0  0  0  0  0  0
  -28.4205  -18.1994   20.5021 O   0  0  0  0  0  0  0  0  0  0  0  0
  -21.5875   -7.1438   21.5255 O   0  0  0  0  0  0  0  0  0  0  0  0
  -28.1613  -26.3978   20.0187 O   0  0  0  0  0  0  0  0  0  1  0  0
  -21.7694   -5.3524   26.7372 F   0  0  0  0  0  0  0  0  0  0  0  0
  -27.5935  -18.5187   13.9647 F   0  0  0  0  0  0  0  0  0  0  0  0
  -21.8806   -4.4536   22.0912 F   0  0  0  0  0  0  0  0  0  0  0  0
  -27.7521  -16.5282   15.8180 F   0  0  0  0  0  0  0  0  0  0  0  0
  1  2  1  0  0  0  0
  1  5  2  0  0  0  0
  2  6  2  0  0  0  0
  3  8  2  0  0  0  0
  3 17  1  0  0  0  0
  4  9  1  0  0  0  0
  4 17  2  0  0  0  0
  5 19  1  0  0  0  0
  6 21  1  0  0  0  0
  7 10  2  0  0  0  0
  7 20  1  0  0  0  0
  8 25  1  0  0  0  0
  9 25  2  0  0  0  0
 10 26  1  0  0  0  0
 11 12  2  0  0  0  0
 11 27  1  0  0  0  0
 12 28  1  0  0  0  0
 13 22  1  0  0  0  0
 13 26  2  0  0  0  0
 14 23  2  0  0  0  0
 14 24  1  0  0  0  0
 15 23  1  0  0  0  0
 15 29  2  0  0  0  0
 16 28  2  0  0  0  0
 16 30  1  0  0  0  0
 17 32  1  0  0  0  0
 18 32  1  0  0  0  0
 18 33  2  0  0  0  0
 18 34  1  0  0  0  0
 19 21  2  0  0  0  0
 19 41  1  0  0  0  0
 20 22  2  0  0  0  0
 20 42  1  0  0  0  0
 21 50  1  0  0  0  0
 22 43  1  0  0  0  0
 23 69  1  0  0  0  0
 24 31  2  0  0  0  0
 24 70  1  0  0  0  0
 25 81  1  0  0  0  0
 26 82  1  0  0  0  0
 27 30  2  0  0  0  0
 27 81  1  0  0  0  0
 28 83  1  0  0  0  0
 29 31  1  0  0  0  0
 29 84  1  0  0  0  0
 30 85  1  0  0  0  0
 31 86  1  0  0  0  0
 32 63  2  0  0  0  0
 33 64  1  0  0  0  0
 33 67  1  0  0  0  0
 34 68  1  0  0  0  0
 34 74  2  0  0  0  0
 35 36  1  0  0  0  0
 35 58  1  0  0  0  0
 35 75  2  0  0  0  0
 36 69  1  0  0  0  0
 36 76  2  0  0  0  0
 37 51  1  0  0  0  0
 37 71  1  0  0  0  0
 37 77  2  0  0  0  0
 38 60  1  0  0  0  0
 38 65  1  0  0  0  0
 38 78  2  0  0  0  0
 39 61  1  0  0  0  0
 39 72  1  0  0  0  0
 39 79  2  0  0  0  0
 40 66  1  0  0  0  0
 40 70  1  0  0  0  0
 40 80  2  0  0  0  0
 41 44  1  0  0  0  0
 42 51  1  0  0  0  0
 43 65  1  0  0  0  0
 44 46  1  0  0  0  0
 45 47  1  0  0  0  0
 45 48  1  0  0  0  0
 46 50  1  0  0  0  0
 47 52  1  0  0  0  0
 48 66  1  0  0  0  0
 49 52  1  0  0  0  0
 49 66  1  0  0  0  0
 50 71  1  0  0  0  0
 51 65  1  0  0  0  0
 52 64  1  0  0  0  0
 53 61  1  0  0  0  0
 54 62  1  0  0  0  0
 55 62  1  0  0  0  0
 56 62  1  0  0  0  0
 57 73  1  0  0  0  0
 58 59  1  0  0  0  0
 59 82  1  0  0  0  0
 60 62  1  0  0  0  0
 60 72  1  0  0  0  0
 61 73  1  0  0  0  0
 63 64  1  0  0  0  0
M  CHG  1  73   1
M  ISO  4  40 100  59 101  70 100  82 101
M  END
> <Batch ID>
0182

> <Smiles>
CNC(C)C(=O)NC(C(=O)N1Cc2cc([101O:1][101CH2:1]CC(=O)C(=O)Nc3cc(F)c(F)c([100NH:0][100C:0](=O)N4CCCC(n5nc(-c6ccc(Oc7ccc(F)cc7F)cc6)c(C(N)=O)c5N)C4)c3)ccc2CC1C(=O)NC1CCCc2ccccc21)C(C)(C)C

> <Shape>
0.308

> <Color>
0.109

> <Negative vol penalty>
0.000

$$$$

  -OEChem-04052304563D

 84 92  0     1  0  0  0  0  0999 V2000
  -26.3616  -16.3997   16.7549 C   0  0  0  0  0  0  0  0  0  0  0  0
  -26.9085  -17.1825   17.7667 C   0  0  0  0  0  0  0  0  0  0  0  0
  -23.0940   -9.8503   19.9699 C   0  0  0  0  0  0  0  0  0  0  0  0
  -23.8095   -9.9351   22.2760 C   0  0  0  0  0  0  0  0  0  0  0  0
  -25.8040  -17.0062   15.6301 C   0  0  0  0  0  0  0  0  0  0  0  0
  -26.8990  -18.5723   17.6537 C   0  0  0  0  0  0  0  0  0  0  0  0
  -25.4811  -20.8606   21.9430 C   0  0  0  0  0  0  0  0  0  0  0  0
  -22.3514   -8.7014   20.2426 C   0  0  0  0  0  0  0  0  0  0  0  0
  -23.0669   -8.7862   22.5487 C   0  0  0  0  0  0  0  0  0  0  0  0
  -26.4322  -20.9568   22.9578 C   0  0  0  0  0  0  0  0  0  0  0  0
  -19.8319   -7.9895   23.1148 C   0  0  0  0  0  0  0  0  0  0  0  0
  -19.0527   -7.9828   24.2717 C   0  0  0  0  0  0  0  0  0  0  0  0
  -26.8730  -23.2411   22.3199 C   0  0  0  0  0  0  0  0  0  0  0  0
  -20.2897   -6.0771   25.0936 C   0  0  0  0  0  0  0  0  0  0  0  0
  -23.8231  -10.4671   20.9866 C   0  0  0  0  0  0  0  0  0  0  0  0
  -24.1542  -12.9890   20.7921 C   0  0  0  0  0  0  0  0  0  0  0  0
  -25.7790  -18.4044   15.5078 C   0  0  0  0  0  0  0  0  0  0  0  0
  -25.2261  -21.9523   21.1006 C   0  0  0  0  0  0  0  0  0  0  0  0
  -26.3417  -19.1980   16.5256 C   0  0  0  0  0  0  0  0  0  0  0  0
  -25.9163  -23.1570   21.2968 C   0  0  0  0  0  0  0  0  0  0  0  0
  -22.3378   -8.1694   21.5319 C   0  0  0  0  0  0  0  0  0  0  0  0
  -27.1304  -22.1462   23.1446 C   0  0  0  0  0  0  0  0  0  0  0  0
  -20.8399   -7.0400   22.9472 C   0  0  0  0  0  0  0  0  0  0  0  0
  -19.2816   -7.0266   25.2611 C   0  0  0  0  0  0  0  0  0  0  0  0
  -21.0688   -6.0838   23.9366 C   0  0  0  0  0  0  0  0  0  0  0  0
  -24.5909  -11.6535   20.7055 C   0  0  0  0  0  0  0  0  0  0  0  0
  -31.7378  -18.8286   22.1578 C   0  0  0  0  0  0  0  0  0  0  0  0
  -25.2493  -13.7328   20.4259 C   0  0  0  0  0  0  0  0  0  0  0  0
  -30.6197  -19.2143   22.8672 C   0  0  0  0  0  0  0  0  0  0  0  0
  -30.5158  -17.0339   21.8486 C   0  0  0  0  0  0  0  0  0  0  0  0
  -22.8732  -13.5106   21.1699 C   0  0  0  0  0  0  0  0  0  0  0  0
  -25.4973  -22.4884   17.9793 C   0  0  0  0  0  0  0  0  0  0  0  0
  -24.0503  -25.2927   18.7306 C   0  0  0  0  0  0  0  0  0  0  0  0
  -23.3557  -27.6516   21.0971 C   0  0  0  0  0  0  0  0  0  0  0  0
  -31.1104  -21.5179   23.7669 C   0  0  0  0  0  0  0  0  0  0  0  0
  -30.7056  -14.8148   20.6713 C   0  0  0  0  0  0  0  0  0  0  0  0
  -25.2079  -19.0131   14.2516 C   0  0  0  0  0  0  0  0  0  0  0  0
  -24.1779  -21.8409   20.0277 C   0  0  0  0  0  0  0  0  0  0  0  0
  -25.6651  -24.3646   20.4325 C   0  0  0  0  0  0  0  0  0  0  0  0
  -24.9010  -20.5028   14.3816 C   0  0  0  0  0  0  0  0  0  0  0  0
  -29.6495  -12.3202   18.3608 C   0  0  0  0  0  0  0  0  0  0  0  0
  -26.0705  -21.2339   15.0331 C   0  0  0  0  0  0  0  0  0  0  0  0
  -28.2033  -12.0342   18.7719 C   0  0  0  0  0  0  0  0  0  0  0  0
  -30.5401  -12.5925   19.5717 C   0  0  0  0  0  0  0  0  0  0  0  0
  -28.6032  -13.3498   20.8924 C   0  0  0  0  0  0  0  0  0  0  0  0
  -26.3281  -20.7094   16.4509 C   0  0  1  0  0  0  0  0  0  0  0  0
  -24.3670  -22.8513   18.9004 C   0  0  1  0  0  0  0  0  0  0  0  0
  -27.6541  -13.1334   19.7024 C   0  0  2  0  0  0  0  0  0  0  0  0
  -22.1837  -29.8493   21.4032 C   0  0  0  0  0  0  0  0  0  0  0  0
  -31.3948  -23.8122   24.7732 C   0  0  0  0  0  0  0  0  0  0  0  0
  -30.0613  -22.0658   26.0095 C   0  0  0  0  0  0  0  0  0  0  0  0
  -26.3534  -26.7143   17.3219 C   0  0  0  0  0  0  0  0  0  0  0  0
  -25.6508  -28.8309   18.4598 C   0  0  0  0  0  0  0  0  0  0  0  0
  -24.0952  -27.6924   16.8766 C   0  0  0  0  0  0  0  0  0  0  0  0
  -21.4982  -26.5139   23.1006 C   0  0  0  0  0  0  0  0  0  0  0  0
  -29.1554  -23.1295   23.9117 C   0  0  0  0  0  0  0  0  0  1  0  0
  -24.5264  -26.6638   19.1455 C   0  0  1  0  0  0  0  0  0  0  0  0
  -22.0579  -28.3360   21.4865 C   0  0  2  0  0  0  0  0  0  0  0  0
  -30.4321  -22.6210   24.6229 C   0  0  0  0  0  0  0  0  0  0  0  0
  -25.1628  -27.4522   17.9662 C   0  0  0  0  0  0  0  0  0  0  0  0
  -25.8640  -11.5516   20.3147 N   0  0  0  0  0  0  0  0  0  0  0  0
  -31.6802  -17.5785   21.5734 N   0  0  0  0  0  0  0  0  0  0  0  0
  -26.2367  -12.8326   20.1525 N   0  0  0  0  0  0  0  0  0  0  0  0
  -24.6351  -24.2040   19.3929 N   0  0  0  0  0  0  0  0  0  0  0  0
  -29.9590  -13.6476   20.4048 N   0  0  0  0  0  0  0  0  0  0  0  0
  -25.4542  -15.0624   20.3141 N   0  0  0  0  0  0  0  0  0  0  0  0
  -21.8597  -12.6069   21.5168 N   0  0  0  0  0  0  0  0  0  0  0  0
  -30.3100  -20.3931   23.5887 N   0  0  0  0  0  0  0  0  0  0  0  0
  -30.0379  -15.7618   21.4471 N   0  0  0  0  0  0  0  0  0  0  0  0
  -25.3566  -21.2535   17.3754 N   0  0  0  0  0  0  0  0  0  0  0  0
  -23.3795  -27.3264   19.7573 N   0  0  0  0  0  0  0  0  0  0  0  0
  -21.6786  -27.9721   22.8810 N   0  3  0  0  0  0  0  0  0  0  0  0
  -22.6296  -14.7411   21.1832 O   0  0  0  0  0  0  0  0  0  0  0  0
  -26.4275  -23.2715   17.8266 O   0  0  0  0  0  0  0  0  0  0  0  0
  -23.1860  -25.1915   17.8563 O   0  0  0  0  0  0  0  0  0  0  0  0
  -24.2596  -27.4311   21.9001 O   0  0  0  0  0  0  0  0  0  0  0  0
  -32.2470  -21.6692   23.3228 O   0  0  0  0  0  0  0  0  0  0  0  0
  -31.8427  -14.9750   20.2201 O   0  0  0  0  0  0  0  0  0  0  0  0
  -21.6131   -7.0486   21.7984 O   0  0  0  0  0  0  0  0  0  0  0  0
  -28.0598  -22.2426   24.1339 O   0  0  0  0  0  0  0  0  0  1  0  0
  -18.5343   -7.0211   26.3727 F   0  0  0  0  0  0  0  0  0  0  0  0
  -22.0366   -5.1699   23.7818 F   0  0  0  0  0  0  0  0  0  0  0  0
  -32.8152  -19.6122   22.0380 F   0  0  0  0  0  0  0  0  0  0  0  0
  -29.4414  -17.9696   22.8052 S   0  0  0  0  0  0  0  0  0  0  0  0
  1  2  1  0  0  0  0
  1  5  2  0  0  0  0
  2  6  2  0  0  0  0
  3  8  2  0  0  0  0
  3 15  1  0  0  0  0
  4  9  1  0  0  0  0
  4 15  2  0  0  0  0
  5 17  1  0  0  0  0
  6 19  1  0  0  0  0
  7 10  2  0  0  0  0
  7 18  1  0  0  0  0
  8 21  1  0  0  0  0
  9 21  2  0  0  0  0
 10 22  1  0  0  0  0
 11 12  2  0  0  0  0
 11 23  1  0  0  0  0
 12 24  1  0  0  0  0
 13 20  1  0  0  0  0
 13 22  2  0  0  0  0
 14 24  2  0  0  0  0
 14 25  1  0  0  0  0
 15 26  1  0  0  0  0
 16 26  1  0  0  0  0
 16 28  2  0  0  0  0
 16 31  1  0  0  0  0
 17 19  2  0  0  0  0
 17 37  1  0  0  0  0
 18 20  2  0  0  0  0
 18 38  1  0  0  0  0
 19 46  1  0  0  0  0
 20 39  1  0  0  0  0
 21 79  1  0  0  0  0
 22 80  1  0  0  0  0
 23 25  2  0  0  0  0
 23 79  1  0  0  0  0
 24 81  1  0  0  0  0
 25 82  1  0  0  0  0
 26 61  2  0  0  0  0
 27 29  2  0  0  0  0
 27 62  1  0  0  0  0
 27 83  1  0  0  0  0
 28 63  1  0  0  0  0
 28 66  1  0  0  0  0
 29 68  1  0  0  0  0
 29 84  1  0  0  0  0
 30 62  2  0  0  0  0
 30 69  1  0  0  0  0
 30 84  1  0  0  0  0
 31 67  1  0  0  0  0
 31 73  2  0  0  0  0
 32 47  1  0  0  0  0
 32 70  1  0  0  0  0
 32 74  2  0  0  0  0
 33 57  1  0  0  0  0
 33 64  1  0  0  0  0
 33 75  2  0  0  0  0
 34 58  1  0  0  0  0
 34 71  1  0  0  0  0
 34 76  2  0  0  0  0
 35 59  1  0  0  0  0
 35 68  1  0  0  0  0
 35 77  2  0  0  0  0
 36 65  1  0  0  0  0
 36 69  1  0  0  0  0
 36 78  2  0  0  0  0
 37 40  1  0  0  0  0
 38 47  1  0  0  0  0
 39 64  1  0  0  0  0
 40 42  1  0  0  0  0
 41 43  1  0  0  0  0
 41 44  1  0  0  0  0
 42 46  1  0  0  0  0
 43 48  1  0  0  0  0
 44 65  1  0  0  0  0
 45 48  1  0  0  0  0
 45 65  1  0  0  0  0
 46 70  1  0  0  0  0
 47 64  1  0  0  0  0
 48 63  1  0  0  0  0
 49 58  1  0  0  0  0
 50 59  1  0  0  0  0
 51 59  1  0  0  0  0
 52 60  1  0  0  0  0
 53 60  1  0  0  0  0
 54 60  1  0  0  0  0
 55 72  1  0  0  0  0
 56 59  1  0  0  0  0
 56 80  1  0  0  0  0
 57 60  1  0  0  0  0
 57 71  1  0  0  0  0
 58 72  1  0  0  0  0
 61 63  1  0  0  0  0
M  CHG  1  72   1
M  ISO  4  36 100  56 101  69 100  80 101
M  END
> <Batch ID>
0182

> <Smiles>
CNC(C)C(=O)NC(C(=O)N1Cc2cc([101O:1][101CH2:1]C(C)(C)C(=O)Nc3sc([100NH:0][100C:0](=O)N4CCCC(n5nc(-c6ccc(Oc7ccc(F)cc7F)cc6)c(C(N)=O)c5N)C4)nc3F)ccc2CC1C(=O)NC1CCCc2ccccc21)C(C)(C)C

> <Shape>
0.215

> <Color>
0.186

> <Negative vol penalty>
0.000

$$$$

  -OEChem-04052304563D

 85 93  0     1  0  0  0  0  0999 V2000
  -16.5391  -29.2774   23.9526 C   0  0  0  0  0  0  0  0  0  0  0  0
  -17.1005  -28.4432   22.9911 C   0  0  0  0  0  0  0  0  0  0  0  0
  -22.2032  -12.7005   19.5322 C   0  0  0  0  0  0  0  0  0  0  0  0
  -22.3272  -12.0742   21.8623 C   0  0  0  0  0  0  0  0  0  0  0  0
  -17.1821  -30.4628   24.3065 C   0  0  0  0  0  0  0  0  0  0  0  0
  -18.3047  -28.7946   22.3821 C   0  0  0  0  0  0  0  0  0  0  0  0
  -21.5321  -24.9046   22.0712 C   0  0  0  0  0  0  0  0  0  0  0  0
  -21.4017  -11.5882   19.2758 C   0  0  0  0  0  0  0  0  0  0  0  0
  -21.5256  -10.9618   21.6059 C   0  0  0  0  0  0  0  0  0  0  0  0
  -21.3047  -23.9675   21.0643 C   0  0  0  0  0  0  0  0  0  0  0  0
  -19.8096   -7.7597   21.4977 C   0  0  0  0  0  0  0  0  0  0  0  0
  -20.1940   -6.5409   22.0565 C   0  0  0  0  0  0  0  0  0  0  0  0
  -23.0110  -25.0113   19.7158 C   0  0  0  0  0  0  0  0  0  0  0  0
  -22.2860   -6.6488   20.8527 C   0  0  0  0  0  0  0  0  0  0  0  0
  -22.6660  -12.9435   20.8254 C   0  0  0  0  0  0  0  0  0  0  0  0
  -23.0671  -15.3815   21.4603 C   0  0  0  0  0  0  0  0  0  0  0  0
  -18.3997  -30.8242   23.7086 C   0  0  0  0  0  0  0  0  0  0  0  0
  -22.4947  -25.9104   21.9033 C   0  0  0  0  0  0  0  0  0  0  0  0
  -18.9639  -29.9867   22.7274 C   0  0  0  0  0  0  0  0  0  0  0  0
  -23.2505  -25.9584   20.7232 C   0  0  0  0  0  0  0  0  0  0  0  0
  -21.0628  -10.7188   20.3126 C   0  0  0  0  0  0  0  0  0  0  0  0
  -22.0421  -24.0225   19.8852 C   0  0  0  0  0  0  0  0  0  0  0  0
  -20.6633   -8.4231   20.6163 C   0  0  0  0  0  0  0  0  0  0  0  0
  -21.4322   -5.9855   21.7341 C   0  0  0  0  0  0  0  0  0  0  0  0
  -21.9015   -7.8676   20.2938 C   0  0  0  0  0  0  0  0  0  0  0  0
  -23.4945  -14.0921   21.0908 C   0  0  0  0  0  0  0  0  0  0  0  0
  -27.6770  -20.9460   19.0991 C   0  0  0  0  0  0  0  0  0  0  0  0
  -24.2281  -16.1032   21.5933 C   0  0  0  0  0  0  0  0  0  0  0  0
  -27.8538  -22.2991   18.8987 C   0  0  0  0  0  0  0  0  0  0  0  0
  -25.5898  -21.4978   18.7131 C   0  0  0  0  0  0  0  0  0  0  0  0
  -21.7392  -15.8821   21.6650 C   0  0  0  0  0  0  0  0  0  0  0  0
  -28.7724  -19.9929   19.4127 C   0  0  0  0  0  0  0  0  0  0  0  0
  -22.4258  -29.0866   21.8013 C   0  0  0  0  0  0  0  0  0  0  0  0
  -25.6525  -28.7652   21.7134 C   0  0  0  0  0  0  0  0  0  0  0  0
  -23.3382  -20.3745   18.5851 C   0  0  0  0  0  0  0  0  0  0  0  0
  -28.3503  -26.8131   20.9665 C   0  0  0  0  0  0  0  0  0  0  0  0
  -29.2630  -17.6042   19.8338 C   0  0  0  0  0  0  0  0  0  0  0  0
  -19.0336  -32.1386   24.0895 C   0  0  0  0  0  0  0  0  0  0  0  0
  -22.7466  -26.8975   23.0099 C   0  0  0  0  0  0  0  0  0  0  0  0
  -24.3097  -27.0060   20.5020 C   0  0  0  0  0  0  0  0  0  0  0  0
  -20.4963  -32.2542   23.6681 C   0  0  0  0  0  0  0  0  0  0  0  0
  -29.0610  -14.5894   21.6687 C   0  0  0  0  0  0  0  0  0  0  0  0
  -20.6738  -31.7947   22.2245 C   0  0  0  0  0  0  0  0  0  0  0  0
  -27.5586  -14.2985   21.7210 C   0  0  0  0  0  0  0  0  0  0  0  0
  -29.4773  -15.1835   20.3239 C   0  0  0  0  0  0  0  0  0  0  0  0
  -27.2101  -16.0647   19.9481 C   0  0  0  0  0  0  0  0  0  0  0  0
  -20.2814  -30.3212   22.0623 C   0  0  1  0  0  0  0  0  0  0  0  0
  -23.3929  -28.1903   22.5217 C   0  0  1  0  0  0  0  0  0  0  0  0
  -26.7291  -15.5305   21.3070 C   0  0  1  0  0  0  0  0  0  0  0  0
  -20.9989  -19.5273   18.3432 C   0  0  0  0  0  0  0  0  0  0  0  0
  -30.8596  -26.8375   20.9656 C   0  0  0  0  0  0  0  0  0  0  0  0
  -25.6323  -30.5052   19.2070 C   0  0  0  0  0  0  0  0  0  0  0  0
  -27.9605  -29.7194   18.7272 C   0  0  0  0  0  0  0  0  0  0  0  0
  -27.4850  -31.0068   20.8103 C   0  0  0  0  0  0  0  0  0  0  0  0
  -28.4885  -24.5579   22.8781 C   0  0  0  0  0  0  0  0  0  0  0  0
  -21.3780  -21.8143   19.3031 C   0  0  0  0  0  0  0  0  0  1  0  0
  -26.6827  -28.6168   20.6200 C   0  0  1  0  0  0  0  0  0  0  0  0
  -21.8831  -20.7730   18.3015 C   0  0  1  0  0  0  0  0  0  0  0  0
  -29.6069  -26.4875   21.7536 C   0  0  2  0  0  0  0  0  0  0  0  0
  -26.9189  -29.9434   19.8442 C   0  0  0  0  0  0  0  0  0  0  0  0
  -24.8234  -13.9972   20.9950 N   0  0  0  0  0  0  0  0  0  0  0  0
  -26.3794  -20.4848   18.9934 N   0  0  0  0  0  0  0  0  0  0  0  0
  -25.2409  -15.2360   21.3063 N   0  0  0  0  0  0  0  0  0  0  0  0
  -24.5145  -27.9526   21.6108 N   0  0  0  0  0  0  0  0  0  0  0  0
  -28.6513  -16.3507   20.0097 N   0  0  0  0  0  0  0  0  0  0  0  0
  -24.4712  -17.3886   21.9267 N   0  0  0  0  0  0  0  0  0  0  0  0
  -29.0065  -23.0113   18.9433 N   0  0  0  0  0  0  0  0  0  0  0  0
  -20.6599  -15.0061   21.4862 N   0  0  0  0  0  0  0  0  0  0  0  0
  -24.1878  -21.4757   18.5200 N   0  0  0  0  0  0  0  0  0  0  0  0
  -28.3844  -18.6632   19.5793 N   0  0  0  0  0  0  0  0  0  0  0  0
  -21.3330  -29.4604   22.5599 N   0  0  0  0  0  0  0  0  0  0  0  0
  -27.8787  -28.0759   21.2567 N   0  0  0  0  0  0  0  0  0  0  0  0
  -29.6497  -25.0349   22.0836 N   0  3  0  0  0  0  0  0  0  0  0  0
  -21.5156  -17.0754   21.9807 O   0  0  0  0  0  0  0  0  0  0  0  0
  -29.9275  -20.4061   19.4670 O   0  0  0  0  0  0  0  0  0  0  0  0
  -22.6550  -29.4161   20.6434 O   0  0  0  0  0  0  0  0  0  0  0  0
  -25.8535  -29.5673   22.6288 O   0  0  0  0  0  0  0  0  0  0  0  0
  -23.6534  -19.2124   18.8238 O   0  0  0  0  0  0  0  0  0  0  0  0
  -27.8404  -26.0272   20.1710 O   0  0  0  0  0  0  0  0  0  0  0  0
  -30.4823  -17.7734   19.9326 O   0  0  0  0  0  0  0  0  0  0  0  0
  -20.2805   -9.6334   20.0629 O   0  0  0  0  0  0  0  0  0  0  0  0
  -21.8217  -23.1095   18.9005 O   0  0  0  0  0  0  0  0  0  1  0  0
  -21.8019   -4.8158   22.2720 F   0  0  0  0  0  0  0  0  0  0  0  0
  -22.7264   -8.5008   19.4486 F   0  0  0  0  0  0  0  0  0  0  0  0
  -26.3409  -23.0333   18.5618 S   0  0  0  0  0  0  0  0  0  0  0  0
  1  2  1  0  0  0  0
  1  5  2  0  0  0  0
  2  6  2  0  0  0  0
  3  8  2  0  0  0  0
  3 15  1  0  0  0  0
  4  9  1  0  0  0  0
  4 15  2  0  0  0  0
  5 17  1  0  0  0  0
  6 19  1  0  0  0  0
  7 10  2  0  0  0  0
  7 18  1  0  0  0  0
  8 21  1  0  0  0  0
  9 21  2  0  0  0  0
 10 22  1  0  0  0  0
 11 12  2  0  0  0  0
 11 23  1  0  0  0  0
 12 24  1  0  0  0  0
 13 20  1  0  0  0  0
 13 22  2  0  0  0  0
 14 24  2  0  0  0  0
 14 25  1  0  0  0  0
 15 26  1  0  0  0  0
 16 26  1  0  0  0  0
 16 28  2  0  0  0  0
 16 31  1  0  0  0  0
 17 19  2  0  0  0  0
 17 38  1  0  0  0  0
 18 20  2  0  0  0  0
 18 39  1  0  0  0  0
 19 47  1  0  0  0  0
 20 40  1  0  0  0  0
 21 81  1  0  0  0  0
 22 82  1  0  0  0  0
 23 25  2  0  0  0  0
 23 81  1  0  0  0  0
 24 83  1  0  0  0  0
 25 84  1  0  0  0  0
 26 61  2  0  0  0  0
 27 29  2  0  0  0  0
 27 32  1  0  0  0  0
 27 62  1  0  0  0  0
 28 63  1  0  0  0  0
 28 66  1  0  0  0  0
 29 67  1  0  0  0  0
 29 85  1  0  0  0  0
 30 62  2  0  0  0  0
 30 69  1  0  0  0  0
 30 85  1  0  0  0  0
 31 68  1  0  0  0  0
 31 74  2  0  0  0  0
 32 70  1  0  0  0  0
 32 75  2  0  0  0  0
 33 48  1  0  0  0  0
 33 71  1  0  0  0  0
 33 76  2  0  0  0  0
 34 57  1  0  0  0  0
 34 64  1  0  0  0  0
 34 77  2  0  0  0  0
 35 58  1  0  0  0  0
 35 69  1  0  0  0  0
 35 78  2  0  0  0  0
 36 59  1  0  0  0  0
 36 72  1  0  0  0  0
 36 79  2  0  0  0  0
 37 65  1  0  0  0  0
 37 70  1  0  0  0  0
 37 80  2  0  0  0  0
 38 41  1  0  0  0  0
 39 48  1  0  0  0  0
 40 64  1  0  0  0  0
 41 43  1  0  0  0  0
 42 44  1  0  0  0  0
 42 45  1  0  0  0  0
 43 47  1  0  0  0  0
 44 49  1  0  0  0  0
 45 65  1  0  0  0  0
 46 49  1  0  0  0  0
 46 65  1  0  0  0  0
 47 71  1  0  0  0  0
 48 64  1  0  0  0  0
 49 63  1  0  0  0  0
 50 58  1  0  0  0  0
 51 59  1  0  0  0  0
 52 60  1  0  0  0  0
 53 60  1  0  0  0  0
 54 60  1  0  0  0  0
 55 73  1  0  0  0  0
 56 58  1  0  0  0  0
 56 82  1  0  0  0  0
 57 60  1  0  0  0  0
 57 72  1  0  0  0  0
 59 73  1  0  0  0  0
 61 63  1  0  0  0  0
M  CHG  1  73   1
M  ISO  4  37 100  56 101  70 100  82 101
M  END
> <Batch ID>
0182

> <Smiles>
CNC(C)C(=O)NC(C(=O)N1Cc2cc([101O:1][101CH2:1]C(C)C(=O)Nc3nc(C(=O)[100NH:0][100C:0](=O)N4CCCC(n5nc(-c6ccc(Oc7ccc(F)cc7F)cc6)c(C(N)=O)c5N)C4)c(N)s3)ccc2CC1C(=O)NC1CCCc2ccccc21)C(C)(C)C

> <Shape>
0.247

> <Color>
0.089

> <Negative vol penalty>
0.000

$$$$

  -OEChem-04052304563D

 87 95  0     1  0  0  0  0  0999 V2000
  -16.9382  -30.7249   23.2282 C   0  0  0  0  0  0  0  0  0  0  0  0
  -18.2635  -30.7198   22.8052 C   0  0  0  0  0  0  0  0  0  0  0  0
  -24.0579  -10.8413   23.8543 C   0  0  0  0  0  0  0  0  0  0  0  0
  -23.5430  -12.7855   25.1929 C   0  0  0  0  0  0  0  0  0  0  0  0
  -16.4397  -29.6537   23.9684 C   0  0  0  0  0  0  0  0  0  0  0  0
  -19.0915  -29.6438   23.1231 C   0  0  0  0  0  0  0  0  0  0  0  0
  -23.5786  -27.3059   19.6726 C   0  0  0  0  0  0  0  0  0  0  0  0
  -23.4023  -10.0300   24.7803 C   0  0  0  0  0  0  0  0  0  0  0  0
  -22.8872  -11.9742   26.1189 C   0  0  0  0  0  0  0  0  0  0  0  0
  -24.9614  -27.4835   19.6857 C   0  0  0  0  0  0  0  0  0  0  0  0
  -20.2154   -9.2085   25.5562 C   0  0  0  0  0  0  0  0  0  0  0  0
  -19.3472   -8.2340   25.0641 C   0  0  0  0  0  0  0  0  0  0  0  0
  -25.1987  -25.4901   21.0234 C   0  0  0  0  0  0  0  0  0  0  0  0
  -20.6805   -6.5153   26.1156 C   0  0  0  0  0  0  0  0  0  0  0  0
  -24.1283  -12.2190   24.0606 C   0  0  0  0  0  0  0  0  0  0  0  0
  -24.2450  -13.6858   21.9767 C   0  0  0  0  0  0  0  0  0  0  0  0
  -17.2593  -28.5596   24.2874 C   0  0  0  0  0  0  0  0  0  0  0  0
  -22.9936  -26.2233   20.3451 C   0  0  0  0  0  0  0  0  0  0  0  0
  -18.6039  -28.5575   23.8695 C   0  0  0  0  0  0  0  0  0  0  0  0
  -23.8084  -25.2996   21.0152 C   0  0  0  0  0  0  0  0  0  0  0  0
  -22.8169  -10.5965   25.9126 C   0  0  0  0  0  0  0  0  0  0  0  0
  -25.7714  -26.5772   20.3635 C   0  0  0  0  0  0  0  0  0  0  0  0
  -21.3162   -8.8364   26.3279 C   0  0  0  0  0  0  0  0  0  0  0  0
  -28.9748  -21.9295   19.2462 C   0  0  0  0  0  0  0  0  0  0  0  0
  -19.5797   -6.8874   25.3438 C   0  0  0  0  0  0  0  0  0  0  0  0
  -21.5487   -7.4898   26.6076 C   0  0  0  0  0  0  0  0  0  0  0  0
  -24.8060  -13.0575   23.1047 C   0  0  0  0  0  0  0  0  0  0  0  0
  -30.0966  -21.2524   19.6791 C   0  0  0  0  0  0  0  0  0  0  0  0
  -27.7657  -21.3398   19.5536 C   0  0  0  0  0  0  0  0  0  0  0  0
  -25.2943  -14.3604   21.4020 C   0  0  0  0  0  0  0  0  0  0  0  0
  -28.8153  -19.6155   20.5988 C   0  0  0  0  0  0  0  0  0  0  0  0
  -22.8959  -13.6618   21.4918 C   0  0  0  0  0  0  0  0  0  0  0  0
  -20.9425  -25.9230   22.7548 C   0  0  0  0  0  0  0  0  0  0  0  0
  -29.1246  -25.5155   18.4034 C   0  0  0  0  0  0  0  0  0  0  0  0
  -21.1052  -22.7751   21.9887 C   0  0  0  0  0  0  0  0  0  0  0  0
  -22.8688  -20.2299   20.5539 C   0  0  0  0  0  0  0  0  0  0  0  0
  -29.7878  -17.6246   21.7975 C   0  0  0  0  0  0  0  0  0  0  0  0
  -16.6888  -27.4465   25.1301 C   0  0  0  0  0  0  0  0  0  0  0  0
  -21.5026  -26.0309   20.2991 C   0  0  0  0  0  0  0  0  0  0  0  0
  -23.2314  -24.1095   21.7357 C   0  0  0  0  0  0  0  0  0  0  0  0
  -17.5282  -26.1717   25.1047 C   0  0  0  0  0  0  0  0  0  0  0  0
  -30.2632  -14.1382   22.3415 C   0  0  0  0  0  0  0  0  0  0  0  0
  -19.0045  -26.5006   25.3028 C   0  0  0  0  0  0  0  0  0  0  0  0
  -28.8397  -13.5979   22.4957 C   0  0  0  0  0  0  0  0  0  0  0  0
  -30.4149  -15.5236   22.9670 C   0  0  0  0  0  0  0  0  0  0  0  0
  -28.0124  -15.9797   22.6680 C   0  0  0  0  0  0  0  0  0  0  0  0
  -19.5264  -27.3970   24.1734 C   0  0  1  0  0  0  0  0  0  0  0  0
  -20.9741  -25.1796   21.4494 C   0  0  1  0  0  0  0  0  0  0  0  0
  -27.7940  -14.6141   21.9963 C   0  0  2  0  0  0  0  0  0  0  0  0
  -22.7614  -17.7614   20.1153 C   0  0  0  0  0  0  0  0  0  0  0  0
  -21.7971  -22.2284   24.9098 C   0  0  0  0  0  0  0  0  0  0  0  0
  -22.5945  -19.9566   24.2232 C   0  0  0  0  0  0  0  0  0  0  0  0
  -20.2050  -20.5910   23.8908 C   0  0  0  0  0  0  0  0  0  0  0  0
  -22.9587  -20.6293   17.6228 C   0  0  0  0  0  0  0  0  0  0  0  0
  -29.0600  -24.3053   19.3127 C   0  0  0  0  0  0  0  0  0  0  0  0
  -27.7074  -27.3883   19.2455 C   0  0  0  0  0  0  0  0  0  1  0  0
  -21.9775  -21.6165   22.4080 C   0  0  1  0  0  0  0  0  0  0  0  0
  -22.4577  -19.1486   19.5710 C   0  0  2  0  0  0  0  0  0  0  0  0
  -29.1240  -26.8742   19.0693 C   0  0  0  0  0  0  0  0  0  0  0  0
  -21.6545  -21.1215   23.8461 C   0  0  0  0  0  0  0  0  0  0  0  0
  -26.1105  -13.3103   23.2402 N   0  0  0  0  0  0  0  0  0  0  0  0
  -30.0533  -20.0887   20.3605 N   0  0  0  0  0  0  0  0  0  0  0  0
  -27.6487  -20.1787   20.2309 N   0  0  0  0  0  0  0  0  0  0  0  0
  -26.3779  -14.1049   22.1898 N   0  0  0  0  0  0  0  0  0  0  0  0
  -21.7676  -23.9682   21.6670 N   0  0  0  0  0  0  0  0  0  0  0  0
  -29.3938  -16.4337   22.4435 N   0  0  0  0  0  0  0  0  0  0  0  0
  -31.3666  -21.8104   19.3913 N   0  0  0  0  0  0  0  0  0  0  0  0
  -26.5790  -21.9902   19.1342 N   0  0  0  0  0  0  0  0  0  0  0  0
  -25.3866  -15.1413   20.3047 N   0  0  0  0  0  0  0  0  0  0  0  0
  -21.9435  -12.9190   22.2028 N   0  0  0  0  0  0  0  0  0  0  0  0
  -28.7310  -18.3943   21.3125 N   0  0  0  0  0  0  0  0  0  0  0  0
  -19.7684  -26.6161   22.9792 N   0  0  0  0  0  0  0  0  0  0  0  0
  -21.8245  -20.5962   21.3764 N   0  0  0  0  0  0  0  0  0  0  0  0
  -23.1854  -19.3170   18.2814 N   0  3  0  0  0  0  0  0  0  0  0  0
  -22.5490  -14.2673   20.4494 O   0  0  0  0  0  0  0  0  0  0  0  0
  -21.9111  -25.8703   23.5037 O   0  0  0  0  0  0  0  0  0  0  0  0
  -29.2009  -25.4108   17.1793 O   0  0  0  0  0  0  0  0  0  0  0  0
  -19.8818  -22.6248   21.9414 O   0  0  0  0  0  0  0  0  0  0  0  0
  -24.0038  -20.6998   20.5911 O   0  0  0  0  0  0  0  0  0  0  0  0
  -30.9763  -17.9251   21.6589 O   0  0  0  0  0  0  0  0  0  0  0  0
  -22.1768   -9.8052   26.8163 O   0  0  0  0  0  0  0  0  0  0  0  0
  -29.0562  -23.1141   18.5536 O   0  0  0  0  0  0  0  0  0  0  0  0
  -27.1213  -26.7485   20.3784 O   0  0  0  0  0  0  0  0  0  1  0  0
  -18.7450   -5.9518   24.8725 F   0  0  0  0  0  0  0  0  0  0  0  0
  -22.6039   -7.1264   27.3494 F   0  0  0  0  0  0  0  0  0  0  0  0
  -29.8402  -27.7743   18.3444 F   0  0  0  0  0  0  0  0  0  0  0  0
  -29.7225  -26.8055   20.2897 F   0  0  0  0  0  0  0  0  0  0  0  0
  1  2  1  0  0  0  0
  1  5  2  0  0  0  0
  2  6  2  0  0  0  0
  3  8  2  0  0  0  0
  3 15  1  0  0  0  0
  4  9  1  0  0  0  0
  4 15  2  0  0  0  0
  5 17  1  0  0  0  0
  6 19  1  0  0  0  0
  7 10  2  0  0  0  0
  7 18  1  0  0  0  0
  8 21  1  0  0  0  0
  9 21  2  0  0  0  0
 10 22  1  0  0  0  0
 11 12  2  0  0  0  0
 11 23  1  0  0  0  0
 12 25  1  0  0  0  0
 13 20  1  0  0  0  0
 13 22  2  0  0  0  0
 14 25  2  0  0  0  0
 14 26  1  0  0  0  0
 15 27  1  0  0  0  0
 16 27  1  0  0  0  0
 16 30  2  0  0  0  0
 16 32  1  0  0  0  0
 17 19  2  0  0  0  0
 17 38  1  0  0  0  0
 18 20  2  0  0  0  0
 18 39  1  0  0  0  0
 19 47  1  0  0  0  0
 20 40  1  0  0  0  0
 21 81  1  0  0  0  0
 22 83  1  0  0  0  0
 23 26  2  0  0  0  0
 23 81  1  0  0  0  0
 24 28  1  0  0  0  0
 24 29  2  0  0  0  0
 24 82  1  0  0  0  0
 25 84  1  0  0  0  0
 26 85  1  0  0  0  0
 27 61  2  0  0  0  0
 28 62  2  0  0  0  0
 28 67  1  0  0  0  0
 29 63  1  0  0  0  0
 29 68  1  0  0  0  0
 30 64  1  0  0  0  0
 30 69  1  0  0  0  0
 31 62  1  0  0  0  0
 31 63  2  0  0  0  0
 31 71  1  0  0  0  0
 32 70  1  0  0  0  0
 32 75  2  0  0  0  0
 33 48  1  0  0  0  0
 33 72  1  0  0  0  0
 33 76  2  0  0  0  0
 34 55  1  0  0  0  0
 34 59  1  0  0  0  0
 34 77  2  0  0  0  0
 35 57  1  0  0  0  0
 35 65  1  0  0  0  0
 35 78  2  0  0  0  0
 36 58  1  0  0  0  0
 36 73  1  0  0  0  0
 36 79  2  0  0  0  0
 37 66  1  0  0  0  0
 37 71  1  0  0  0  0
 37 80  2  0  0  0  0
 38 41  1  0  0  0  0
 39 48  1  0  0  0  0
 40 65  1  0  0  0  0
 41 43  1  0  0  0  0
 42 44  1  0  0  0  0
 42 45  1  0  0  0  0
 43 47  1  0  0  0  0
 44 49  1  0  0  0  0
 45 66  1  0  0  0  0
 46 49  1  0  0  0  0
 46 66  1  0  0  0  0
 47 72  1  0  0  0  0
 48 65  1  0  0  0  0
 49 64  1  0  0  0  0
 50 58  1  0  0  0  0
 51 60  1  0  0  0  0
 52 60  1  0  0  0  0
 53 60  1  0  0  0  0
 54 74  1  0  0  0  0
 55 82  1  0  0  0  0
 56 59  1  0  0  0  0
 56 83  1  0  0  0  0
 57 60  1  0  0  0  0
 57 73  1  0  0  0  0
 58 74  1  0  0  0  0
 59 86  1  0  0  0  0
 59 87  1  0  0  0  0
 61 64  1  0  0  0  0
M  CHG  1  74   1
M  ISO  4  37 100  56 101  71 100  83 101
M  END
> <Batch ID>
0182

> <Smiles>
CNC(C)C(=O)NC(C(=O)N1Cc2cc([101O:1][101CH2:1]C(F)(F)C(=O)COc3c(N)nc([100NH:0][100C:0](=O)N4CCCC(n5nc(-c6ccc(Oc7ccc(F)cc7F)cc6)c(C(N)=O)c5N)C4)nc3N)ccc2CC1C(=O)NC1CCCc2ccccc21)C(C)(C)C

> <Shape>
0.199

> <Color>
0.114

> <Negative vol penalty>
0.000

$$$$

  -OEChem-04052304563D

 85 93  0     1  0  0  0  0  0999 V2000
  -29.9653  -24.2981   25.6186 C   0  0  0  0  0  0  0  0  0  0  0  0
  -30.6939  -23.5090   24.7344 C   0  0  0  0  0  0  0  0  0  0  0  0
  -23.0971   -9.8954   19.9510 C   0  0  0  0  0  0  0  0  0  0  0  0
  -23.8507   -9.9308   22.2462 C   0  0  0  0  0  0  0  0  0  0  0  0
  -28.6897  -24.7393   25.2688 C   0  0  0  0  0  0  0  0  0  0  0  0
  -30.1469  -23.1596   23.5002 C   0  0  0  0  0  0  0  0  0  0  0  0
  -33.4464  -23.6835   19.6945 C   0  0  0  0  0  0  0  0  0  0  0  0
  -22.3564   -8.7426   20.2120 C   0  0  0  0  0  0  0  0  0  0  0  0
  -23.1099   -8.7781   22.5072 C   0  0  0  0  0  0  0  0  0  0  0  0
  -34.4075  -22.6850   19.5431 C   0  0  0  0  0  0  0  0  0  0  0  0
  -21.1305   -6.0496   23.8693 C   0  0  0  0  0  0  0  0  0  0  0  0
  -20.3711   -6.0167   25.0389 C   0  0  0  0  0  0  0  0  0  0  0  0
  -33.0938  -21.6966   17.7777 C   0  0  0  0  0  0  0  0  0  0  0  0
  -19.1221   -7.9413   24.2821 C   0  0  0  0  0  0  0  0  0  0  0  0
  -31.4736  -19.4597   22.6837 C   0  0  0  0  0  0  0  0  0  0  0  0
  -29.7406  -17.7923   22.6606 C   0  0  0  0  0  0  0  0  0  0  0  0
  -23.8443  -10.4895   20.9681 C   0  0  0  0  0  0  0  0  0  0  0  0
  -24.1780  -13.0142   20.8205 C   0  0  0  0  0  0  0  0  0  0  0  0
  -28.1307  -24.4032   24.0257 C   0  0  0  0  0  0  0  0  0  0  0  0
  -32.2946  -23.6899   18.8948 C   0  0  0  0  0  0  0  0  0  0  0  0
  -28.8621  -23.5955   23.1340 C   0  0  0  0  0  0  0  0  0  0  0  0
  -32.1208  -22.6978   17.9193 C   0  0  0  0  0  0  0  0  0  0  0  0
  -22.3628   -8.1840   21.4901 C   0  0  0  0  0  0  0  0  0  0  0  0
  -34.2299  -21.6897   18.5866 C   0  0  0  0  0  0  0  0  0  0  0  0
  -20.8857   -7.0284   22.9061 C   0  0  0  0  0  0  0  0  0  0  0  0
  -19.3670   -6.9625   25.2453 C   0  0  0  0  0  0  0  0  0  0  0  0
  -19.8815   -7.9743   23.1125 C   0  0  0  0  0  0  0  0  0  0  0  0
  -30.2107  -19.0323   23.0783 C   0  0  0  0  0  0  0  0  0  0  0  0
  -24.6101  -11.6799   20.6990 C   0  0  0  0  0  0  0  0  0  0  0  0
  -32.2211  -18.6164   21.8775 C   0  0  0  0  0  0  0  0  0  0  0  0
  -30.5655  -17.0237   21.8553 C   0  0  0  0  0  0  0  0  0  0  0  0
  -25.2686  -13.7632   20.4517 C   0  0  0  0  0  0  0  0  0  0  0  0
  -22.9047  -13.5305   21.2301 C   0  0  0  0  0  0  0  0  0  0  0  0
  -33.5771  -19.0206   21.4248 C   0  0  0  0  0  0  0  0  0  0  0  0
  -29.1738  -23.4635   19.4546 C   0  0  0  0  0  0  0  0  0  0  0  0
  -28.9547  -24.0790   16.2772 C   0  0  0  0  0  0  0  0  0  0  0  0
  -30.4309  -23.9957   13.2014 C   0  0  0  0  0  0  0  0  0  0  0  0
  -30.7308  -14.8291   20.6294 C   0  0  0  0  0  0  0  0  0  0  0  0
  -26.7295  -24.8641   23.7114 C   0  0  0  0  0  0  0  0  0  0  0  0
  -31.2801  -24.7892   19.0523 C   0  0  0  0  0  0  0  0  0  0  0  0
  -30.9116  -22.6713   17.0217 C   0  0  0  0  0  0  0  0  0  0  0  0
  -26.3722  -24.7615   22.2309 C   0  0  0  0  0  0  0  0  0  0  0  0
  -29.6310  -12.3850   18.2855 C   0  0  0  0  0  0  0  0  0  0  0  0
  -26.7948  -23.4063   21.6725 C   0  0  0  0  0  0  0  0  0  0  0  0
  -28.1911  -12.0934   18.7145 C   0  0  0  0  0  0  0  0  0  0  0  0
  -30.5420  -12.6304   19.4870 C   0  0  0  0  0  0  0  0  0  0  0  0
  -28.6289  -13.3640   20.8548 C   0  0  0  0  0  0  0  0  0  0  0  0
  -28.3129  -23.2161   21.7759 C   0  0  1  0  0  0  0  0  0  0  0  0
  -29.8975  -24.4052   18.5342 C   0  0  1  0  0  0  0  0  0  0  0  0
  -27.6599  -13.1742   19.6764 C   0  0  2  0  0  0  0  0  0  0  0  0
  -29.9900  -24.5305   10.7896 C   0  0  0  0  0  0  0  0  0  0  0  0
  -36.5331  -17.2893   20.6716 C   0  0  0  0  0  0  0  0  0  0  0  0
  -27.2404  -21.5664   16.0360 C   0  0  0  0  0  0  0  0  0  0  0  0
  -27.6281  -21.6235   13.5632 C   0  0  0  0  0  0  0  0  0  0  0  0
  -26.4391  -23.5100   14.6814 C   0  0  0  0  0  0  0  0  0  0  0  0
  -32.6332  -25.9710   13.1166 C   0  0  0  0  0  0  0  0  0  0  0  0
  -35.6035  -18.3581   18.5906 C   0  0  0  0  0  0  0  0  0  0  0  0
  -34.7088  -19.4378   17.9903 C   0  0  0  0  0  0  0  0  0  1  0  0
  -28.9291  -23.2370   15.0244 C   0  0  1  0  0  0  0  0  0  0  0  0
  -30.5437  -25.0442   12.1095 C   0  0  2  0  0  0  0  0  0  0  0  0
  -35.5784  -18.3454   20.1229 C   0  0  1  0  0  0  0  0  0  0  0  0
  -27.5811  -22.4833   14.8443 C   0  0  0  0  0  0  0  0  0  0  0  0
  -25.8764  -11.5836   20.2853 N   0  0  0  0  0  0  0  0  0  0  0  0
  -31.7981  -17.4051   21.4516 N   0  0  0  0  0  0  0  0  0  0  0  0
  -26.2494  -12.8669   20.1435 N   0  0  0  0  0  0  0  0  0  0  0  0
  -29.9450  -23.7642   17.2185 N   0  0  0  0  0  0  0  0  0  0  0  0
  -29.9772  -13.6692   20.3512 N   0  0  0  0  0  0  0  0  0  0  0  0
  -25.4748  -15.0945   20.3642 N   0  0  0  0  0  0  0  0  0  0  0  0
  -21.8949  -12.6218   21.5749 N   0  0  0  0  0  0  0  0  0  0  0  0
  -30.0781  -15.7612   21.4355 N   0  0  0  0  0  0  0  0  0  0  0  0
  -34.2443  -18.1082   20.6219 N   0  0  0  0  0  0  0  0  0  0  0  0
  -28.9874  -23.9572   20.7317 N   0  0  0  0  0  0  0  0  0  0  0  0
  -29.2642  -24.1334   13.9233 N   0  0  0  0  0  0  0  0  0  0  0  0
  -31.9693  -25.4268   11.9041 N   0  3  0  0  0  0  0  0  0  0  0  0
  -22.6641  -14.7608   21.2729 O   0  0  0  0  0  0  0  0  0  0  0  0
  -34.0344  -20.1005   21.7898 O   0  0  0  0  0  0  0  0  0  0  0  0
  -28.8101  -22.3705   19.0365 O   0  0  0  0  0  0  0  0  0  0  0  0
  -28.1310  -24.9872   16.4124 O   0  0  0  0  0  0  0  0  0  0  0  0
  -31.2900  -23.1377   13.3923 O   0  0  0  0  0  0  0  0  0  0  0  0
  -31.8606  -14.9964   20.1629 O   0  0  0  0  0  0  0  0  0  0  0  0
  -21.6399   -7.0593   21.7451 O   0  0  0  0  0  0  0  0  0  0  0  0
  -35.1662  -20.7135   18.4371 O   0  0  0  0  0  0  0  0  0  1  0  0
  -18.6368   -6.9299   26.3678 F   0  0  0  0  0  0  0  0  0  0  0  0
  -19.6409   -8.9163   22.1903 F   0  0  0  0  0  0  0  0  0  0  0  0
  -29.4501  -19.8118   23.8579 F   0  0  0  0  0  0  0  0  0  0  0  0
  1  2  1  0  0  0  0
  1  5  2  0  0  0  0
  2  6  2  0  0  0  0
  3  8  2  0  0  0  0
  3 17  1  0  0  0  0
  4  9  1  0  0  0  0
  4 17  2  0  0  0  0
  5 19  1  0  0  0  0
  6 21  1  0  0  0  0
  7 10  2  0  0  0  0
  7 20  1  0  0  0  0
  8 23  1  0  0  0  0
  9 23  2  0  0  0  0
 10 24  1  0  0  0  0
 11 12  2  0  0  0  0
 11 25  1  0  0  0  0
 12 26  1  0  0  0  0
 13 22  1  0  0  0  0
 13 24  2  0  0  0  0
 14 26  2  0  0  0  0
 14 27  1  0  0  0  0
 15 28  2  0  0  0  0
 15 30  1  0  0  0  0
 16 28  1  0  0  0  0
 16 31  2  0  0  0  0
 17 29  1  0  0  0  0
 18 29  1  0  0  0  0
 18 32  2  0  0  0  0
 18 33  1  0  0  0  0
 19 21  2  0  0  0  0
 19 39  1  0  0  0  0
 20 22  2  0  0  0  0
 20 40  1  0  0  0  0
 21 48  1  0  0  0  0
 22 41  1  0  0  0  0
 23 81  1  0  0  0  0
 24 82  1  0  0  0  0
 25 27  2  0  0  0  0
 25 81  1  0  0  0  0
 26 83  1  0  0  0  0
 27 84  1  0  0  0  0
 28 85  1  0  0  0  0
 29 63  2  0  0  0  0
 30 34  1  0  0  0  0
 30 64  2  0  0  0  0
 31 64  1  0  0  0  0
 31 70  1  0  0  0  0
 32 65  1  0  0  0  0
 32 68  1  0  0  0  0
 33 69  1  0  0  0  0
 33 75  2  0  0  0  0
 34 71  1  0  0  0  0
 34 76  2  0  0  0  0
 35 49  1  0  0  0  0
 35 72  1  0  0  0  0
 35 77  2  0  0  0  0
 36 59  1  0  0  0  0
 36 66  1  0  0  0  0
 36 78  2  0  0  0  0
 37 60  1  0  0  0  0
 37 73  1  0  0  0  0
 37 79  2  0  0  0  0
 38 67  1  0  0  0  0
 38 70  1  0  0  0  0
 38 80  2  0  0  0  0
 39 42  1  0  0  0  0
 40 49  1  0  0  0  0
 41 66  1  0  0  0  0
 42 44  1  0  0  0  0
 43 45  1  0  0  0  0
 43 46  1  0  0  0  0
 44 48  1  0  0  0  0
 45 50  1  0  0  0  0
 46 67  1  0  0  0  0
 47 50  1  0  0  0  0
 47 67  1  0  0  0  0
 48 72  1  0  0  0  0
 49 66  1  0  0  0  0
 50 65  1  0  0  0  0
 51 60  1  0  0  0  0
 52 61  1  0  0  0  0
 53 62  1  0  0  0  0
 54 62  1  0  0  0  0
 55 62  1  0  0  0  0
 56 74  1  0  0  0  0
 57 58  1  0  0  0  0
 57 61  1  0  0  0  0
 58 82  1  0  0  0  0
 59 62  1  0  0  0  0
 59 73  1  0  0  0  0
 60 74  1  0  0  0  0
 61 71  1  0  0  0  0
 63 65  1  0  0  0  0
M  CHG  1  74   1
M  ISO  4  38 100  58 101  70 100  82 101
M  END
> <Batch ID>
0182

> <Smiles>
CNC(C)C(=O)NC(C(=O)N1Cc2cc([101O:1][101CH2:1]CC(C)NC(=O)c3cc(F)cc([100NH:0][100C:0](=O)N4CCCC(n5nc(-c6ccc(Oc7ccc(F)cc7F)cc6)c(C(N)=O)c5N)C4)n3)ccc2CC1C(=O)NC1CCCc2ccccc21)C(C)(C)C

> <Shape>
0.214

> <Color>
0.203

> <Negative vol penalty>
0.000

$$$$

  -OEChem-04052304563D

 83 91  0     1  0  0  0  0  0999 V2000
  -25.7238  -37.9210   26.8328 C   0  0  0  0  0  0  0  0  0  0  0  0
  -25.0635  -36.7865   27.2935 C   0  0  0  0  0  0  0  0  0  0  0  0
  -24.4638   -9.2336   21.5624 C   0  0  0  0  0  0  0  0  0  0  0  0
  -22.6247  -10.2779   20.3945 C   0  0  0  0  0  0  0  0  0  0  0  0
  -25.9994  -38.0620   25.4734 C   0  0  0  0  0  0  0  0  0  0  0  0
  -24.6773  -35.7928   26.3947 C   0  0  0  0  0  0  0  0  0  0  0  0
  -23.8164  -28.6950   25.9507 C   0  0  0  0  0  0  0  0  0  0  0  0
  -23.7067   -8.0723   21.7163 C   0  0  0  0  0  0  0  0  0  0  0  0
  -21.8675   -9.1165   20.5484 C   0  0  0  0  0  0  0  0  0  0  0  0
  -22.8643  -27.7467   25.5791 C   0  0  0  0  0  0  0  0  0  0  0  0
  -21.2198   -6.9682   23.7215 C   0  0  0  0  0  0  0  0  0  0  0  0
  -21.2227   -6.3548   24.9742 C   0  0  0  0  0  0  0  0  0  0  0  0
  -23.4636  -28.0613   23.2637 C   0  0  0  0  0  0  0  0  0  0  0  0
  -22.1309   -4.3449   23.9880 C   0  0  0  0  0  0  0  0  0  0  0  0
  -23.9228  -10.3364   20.9016 C   0  0  0  0  0  0  0  0  0  0  0  0
  -25.5637  -11.8562   19.6747 C   0  0  0  0  0  0  0  0  0  0  0  0
  -25.6249  -37.0651   24.5588 C   0  0  0  0  0  0  0  0  0  0  0  0
  -24.5929  -29.3426   24.9791 C   0  0  0  0  0  0  0  0  0  0  0  0
  -24.9469  -35.9212   25.0216 C   0  0  0  0  0  0  0  0  0  0  0  0
  -24.4266  -29.0156   23.6258 C   0  0  0  0  0  0  0  0  0  0  0  0
  -22.4085   -8.0137   21.2093 C   0  0  0  0  0  0  0  0  0  0  0  0
  -22.6858  -27.4318   24.2352 C   0  0  0  0  0  0  0  0  0  0  0  0
  -21.6723   -6.2699   22.6020 C   0  0  0  0  0  0  0  0  0  0  0  0
  -21.6783   -5.0432   25.1075 C   0  0  0  0  0  0  0  0  0  0  0  0
  -22.1279   -4.9583   22.7352 C   0  0  0  0  0  0  0  0  0  0  0  0
  -24.7042  -11.5365   20.7428 C   0  0  0  0  0  0  0  0  0  0  0  0
  -22.1653  -18.6311   22.0215 C   0  0  0  0  0  0  0  0  0  0  0  0
  -26.0629  -13.0951   19.9946 C   0  0  0  0  0  0  0  0  0  0  0  0
  -21.1947  -18.5313   21.0468 C   0  0  0  0  0  0  0  0  0  0  0  0
  -21.3987  -20.6841   22.1081 C   0  0  0  0  0  0  0  0  0  0  0  0
  -22.1470  -25.1996   23.7905 C   0  0  0  0  0  0  0  0  0  1  0  0
  -25.8823  -11.1008   18.4984 C   0  0  0  0  0  0  0  0  0  0  0  0
  -21.3176  -24.2087   23.4415 C   0  0  0  0  0  0  0  0  0  0  0  0
  -21.8437  -22.8057   23.3854 C   0  0  0  0  0  0  0  0  0  0  0  0
  -24.9567  -32.3583   24.0425 C   0  0  0  0  0  0  0  0  0  0  0  0
  -27.3016  -31.0918   22.1932 C   0  0  0  0  0  0  0  0  0  0  0  0
  -28.5810  -28.3531   20.6092 C   0  0  0  0  0  0  0  0  0  0  0  0
  -24.0101  -17.5753   23.3737 C   0  0  0  0  0  0  0  0  0  0  0  0
  -25.9023  -37.2838   23.0925 C   0  0  0  0  0  0  0  0  0  0  0  0
  -25.6342  -30.3438   25.3985 C   0  0  0  0  0  0  0  0  0  0  0  0
  -25.2491  -29.6676   22.5455 C   0  0  0  0  0  0  0  0  0  0  0  0
  -25.7925  -36.0120   22.2555 C   0  0  0  0  0  0  0  0  0  0  0  0
  -27.1013  -15.8533   23.7693 C   0  0  0  0  0  0  0  0  0  0  0  0
  -24.5217  -35.2469   22.6111 C   0  0  0  0  0  0  0  0  0  0  0  0
  -26.9178  -14.5829   22.9359 C   0  0  0  0  0  0  0  0  0  0  0  0
  -25.8088  -16.2606   24.4744 C   0  0  0  0  0  0  0  0  0  0  0  0
  -24.4533  -15.1158   22.7652 C   0  0  0  0  0  0  0  0  0  0  0  0
  -24.5339  -34.8100   24.0810 C   0  0  1  0  0  0  0  0  0  0  0  0
  -26.0113  -31.3158   24.2847 C   0  0  1  0  0  0  0  0  0  0  0  0
  -25.7114  -14.7026   21.9842 C   0  0  2  0  0  0  0  0  0  0  0  0
  -30.4888  -27.6366   19.1449 C   0  0  0  0  0  0  0  0  0  0  0  0
  -25.9624  -32.4277   19.7990 C   0  0  0  0  0  0  0  0  0  0  0  0
  -27.3069  -30.9364   18.3034 C   0  0  0  0  0  0  0  0  0  0  0  0
  -28.4598  -32.5603   19.8057 C   0  0  0  0  0  0  0  0  0  0  0  0
  -29.5551  -26.4191   22.6265 C   0  0  0  0  0  0  0  0  0  0  0  0
  -27.3687  -30.5089   20.8023 C   0  0  1  0  0  0  0  0  0  0  0  0
  -29.9840  -27.7744   20.5728 C   0  0  2  0  0  0  0  0  0  0  0  0
  -27.2575  -31.5973   19.6976 C   0  0  0  0  0  0  0  0  0  0  0  0
  -24.6578  -12.4950   21.6719 N   0  0  0  0  0  0  0  0  0  0  0  0
  -22.2840  -19.8649   22.6309 N   0  0  0  0  0  0  0  0  0  0  0  0
  -25.4945  -13.4290   21.1886 N   0  0  0  0  0  0  0  0  0  0  0  0
  -26.2499  -30.6445   23.0054 N   0  0  0  0  0  0  0  0  0  0  0  0
  -24.7110  -16.3583   23.5100 N   0  0  0  0  0  0  0  0  0  0  0  0
  -26.9283  -13.9205   19.3683 N   0  0  0  0  0  0  0  0  0  0  0  0
  -25.2805   -9.8468   18.3263 N   0  0  0  0  0  0  0  0  0  0  0  0
  -23.0090  -17.5585   22.4031 N   0  0  0  0  0  0  0  0  0  0  0  0
  -21.1754  -22.0427   22.4376 N   0  0  0  0  0  0  0  0  0  0  0  0
  -25.3864  -33.6539   24.2575 N   0  0  0  0  0  0  0  0  0  0  0  0
  -28.5978  -29.7249   20.7472 N   0  0  0  0  0  0  0  0  0  0  0  0
  -30.0056  -26.4278   21.2109 N   0  3  0  0  0  0  0  0  0  0  0  0
  -26.6897  -11.5181   17.6339 O   0  0  0  0  0  0  0  0  0  0  0  0
  -22.7576  -22.4456   24.1195 O   0  0  0  0  0  0  0  0  0  0  0  0
  -23.8364  -32.0129   23.6855 O   0  0  0  0  0  0  0  0  0  0  0  0
  -28.1551  -31.9085   22.5485 O   0  0  0  0  0  0  0  0  0  0  0  0
  -27.5713  -27.6581   20.5202 O   0  0  0  0  0  0  0  0  0  0  0  0
  -24.2962  -18.5680   24.0480 O   0  0  0  0  0  0  0  0  0  0  0  0
  -19.9907  -24.4261   23.1308 O   0  0  0  0  0  0  0  0  0  0  0  0
  -21.6695   -6.8806   21.3591 O   0  0  0  0  0  0  0  0  0  0  0  0
  -21.7568  -26.5070   23.8696 O   0  0  0  0  0  0  0  0  0  1  0  0
  -21.6824   -4.4548   26.3108 F   0  0  0  0  0  0  0  0  0  0  0  0
  -22.5650   -4.2829   21.6635 F   0  0  0  0  0  0  0  0  0  0  0  0
  -20.9166  -17.4337   20.3382 F   0  0  0  0  0  0  0  0  0  0  0  0
  -20.3905  -20.0368   20.8795 S   0  0  0  0  0  0  0  0  0  0  0  0
  1  2  1  0  0  0  0
  1  5  2  0  0  0  0
  2  6  2  0  0  0  0
  3  8  2  0  0  0  0
  3 15  1  0  0  0  0
  4  9  1  0  0  0  0
  4 15  2  0  0  0  0
  5 17  1  0  0  0  0
  6 19  1  0  0  0  0
  7 10  2  0  0  0  0
  7 18  1  0  0  0  0
  8 21  1  0  0  0  0
  9 21  2  0  0  0  0
 10 22  1  0  0  0  0
 11 12  2  0  0  0  0
 11 23  1  0  0  0  0
 12 24  1  0  0  0  0
 13 20  1  0  0  0  0
 13 22  2  0  0  0  0
 14 24  2  0  0  0  0
 14 25  1  0  0  0  0
 15 26  1  0  0  0  0
 16 26  1  0  0  0  0
 16 28  2  0  0  0  0
 16 32  1  0  0  0  0
 17 19  2  0  0  0  0
 17 39  1  0  0  0  0
 18 20  2  0  0  0  0
 18 40  1  0  0  0  0
 19 48  1  0  0  0  0
 20 41  1  0  0  0  0
 21 78  1  0  0  0  0
 22 79  1  0  0  0  0
 23 25  2  0  0  0  0
 23 78  1  0  0  0  0
 24 80  1  0  0  0  0
 25 81  1  0  0  0  0
 26 59  2  0  0  0  0
 27 29  2  0  0  0  0
 27 60  1  0  0  0  0
 27 66  1  0  0  0  0
 28 61  1  0  0  0  0
 28 64  1  0  0  0  0
 29 82  1  0  0  0  0
 29 83  1  0  0  0  0
 30 60  2  0  0  0  0
 30 67  1  0  0  0  0
 30 83  1  0  0  0  0
 31 33  2  0  0  0  0
 31 79  1  0  0  0  0
 32 65  1  0  0  0  0
 32 71  2  0  0  0  0
 33 34  1  0  0  0  0
 33 77  1  0  0  0  0
 34 67  1  0  0  0  0
 34 72  2  0  0  0  0
 35 49  1  0  0  0  0
 35 68  1  0  0  0  0
 35 73  2  0  0  0  0
 36 56  1  0  0  0  0
 36 62  1  0  0  0  0
 36 74  2  0  0  0  0
 37 57  1  0  0  0  0
 37 69  1  0  0  0  0
 37 75  2  0  0  0  0
 38 63  1  0  0  0  0
 38 66  1  0  0  0  0
 38 76  2  0  0  0  0
 39 42  1  0  0  0  0
 40 49  1  0  0  0  0
 41 62  1  0  0  0  0
 42 44  1  0  0  0  0
 43 45  1  0  0  0  0
 43 46  1  0  0  0  0
 44 48  1  0  0  0  0
 45 50  1  0  0  0  0
 46 63  1  0  0  0  0
 47 50  1  0  0  0  0
 47 63  1  0  0  0  0
 48 68  1  0  0  0  0
 49 62  1  0  0  0  0
 50 61  1  0  0  0  0
 51 57  1  0  0  0  0
 52 58  1  0  0  0  0
 53 58  1  0  0  0  0
 54 58  1  0  0  0  0
 55 70  1  0  0  0  0
 56 58  1  0  0  0  0
 56 69  1  0  0  0  0
 57 70  1  0  0  0  0
 59 61  1  0  0  0  0
M  CHG  1  70   1
M  ISO  4  31 101  38 100  66 100  79 101
M  END
> <Batch ID>
0182

> <Smiles>
CNC(C)C(=O)NC(C(=O)N1Cc2cc([101O:1][101CH2:1]C(=O)C(=O)Nc3nc([100NH:0][100C:0](=O)N4CCCC(n5nc(-c6ccc(Oc7ccc(F)cc7F)cc6)c(C(N)=O)c5N)C4)c(F)s3)ccc2CC1C(=O)NC1CCCc2ccccc21)C(C)(C)C

> <Shape>
0.251

> <Color>
0.110

> <Negative vol penalty>
0.000

$$$$

  -OEChem-04052304563D

 84 92  0     1  0  0  0  0  0999 V2000
  -16.8656  -30.4512   23.6053 C   0  0  0  0  0  0  0  0  0  0  0  0
  -18.1866  -30.8823   23.6733 C   0  0  0  0  0  0  0  0  0  0  0  0
  -26.5771  -13.1460   20.4759 C   0  0  0  0  0  0  0  0  0  0  0  0
  -24.2480  -13.5235   20.9950 C   0  0  0  0  0  0  0  0  0  0  0  0
  -16.5832  -29.1140   23.3295 C   0  0  0  0  0  0  0  0  0  0  0  0
  -19.2260  -29.9761   23.4665 C   0  0  0  0  0  0  0  0  0  0  0  0
  -24.6125  -31.1028   20.7792 C   0  0  0  0  0  0  0  0  0  0  0  0
  -26.4522  -11.8173   20.8814 C   0  0  0  0  0  0  0  0  0  0  0  0
  -24.1230  -12.1947   21.4006 C   0  0  0  0  0  0  0  0  0  0  0  0
  -25.8781  -31.3798   21.2944 C   0  0  0  0  0  0  0  0  0  0  0  0
  -23.7689   -9.1687   19.9382 C   0  0  0  0  0  0  0  0  0  0  0  0
  -22.6503   -8.4610   19.4984 C   0  0  0  0  0  0  0  0  0  0  0  0
  -26.4667  -29.0498   21.0846 C   0  0  0  0  0  0  0  0  0  0  0  0
  -21.9782   -8.0988   21.7906 C   0  0  0  0  0  0  0  0  0  0  0  0
  -30.0474  -25.3144   22.6199 C   0  0  0  0  0  0  0  0  0  0  0  0
  -25.4750  -13.9991   20.5327 C   0  0  0  0  0  0  0  0  0  0  0  0
  -25.3991  -15.8894   18.8213 C   0  0  0  0  0  0  0  0  0  0  0  0
  -17.6195  -28.1930   23.1097 C   0  0  0  0  0  0  0  0  0  0  0  0
  -24.2602  -29.7932   20.4224 C   0  0  0  0  0  0  0  0  0  0  0  0
  -18.9573  -28.6250   23.1888 C   0  0  0  0  0  0  0  0  0  0  0  0
  -25.1970  -28.7593   20.5627 C   0  0  0  0  0  0  0  0  0  0  0  0
  -25.2251  -11.3416   21.3437 C   0  0  0  0  0  0  0  0  0  0  0  0
  -26.8044  -30.3528   21.4499 C   0  0  0  0  0  0  0  0  0  0  0  0
  -23.9922   -9.3415   21.3043 C   0  0  0  0  0  0  0  0  0  0  0  0
  -21.7550   -7.9261   20.4246 C   0  0  0  0  0  0  0  0  0  0  0  0
  -23.0968   -8.8065   22.2304 C   0  0  0  0  0  0  0  0  0  0  0  0
  -25.6036  -15.3720   20.1145 C   0  0  0  0  0  0  0  0  0  0  0  0
  -29.7386  -24.9607   21.3231 C   0  0  0  0  0  0  0  0  0  0  0  0
  -25.6443  -17.2349   18.9471 C   0  0  0  0  0  0  0  0  0  0  0  0
  -30.2598  -27.2851   21.6812 C   0  0  0  0  0  0  0  0  0  0  0  0
  -29.3941  -23.7043   20.7872 C   0  0  0  0  0  0  0  0  0  0  0  0
  -29.2668  -22.5171   21.4733 C   0  0  0  0  0  0  0  0  0  0  0  0
  -25.0211  -15.2141   17.6143 C   0  0  0  0  0  0  0  0  0  0  0  0
  -28.8867  -21.2776   20.7663 C   0  0  0  0  0  0  0  0  0  0  0  0
  -22.0591  -27.7178   21.3976 C   0  0  0  0  0  0  0  0  0  0  0  0
  -23.1828  -25.9551   18.9171 C   0  0  0  0  0  0  0  0  0  0  0  0
  -25.7568  -25.2640   16.7855 C   0  0  0  0  0  0  0  0  0  0  0  0
  -30.8460  -29.6356   22.3574 C   0  0  0  0  0  0  0  0  0  0  0  0
  -17.2660  -26.7479   22.8615 C   0  0  0  0  0  0  0  0  0  0  0  0
  -22.9002  -29.5155   19.8431 C   0  0  0  0  0  0  0  0  0  0  0  0
  -24.8752  -27.3398   20.1757 C   0  0  0  0  0  0  0  0  0  0  0  0
  -18.4180  -25.9294   22.2844 C   0  0  0  0  0  0  0  0  0  0  0  0
  -26.2591  -20.1145   23.0412 C   0  0  0  0  0  0  0  0  0  0  0  0
  -19.7057  -26.2026   23.0553 C   0  0  0  0  0  0  0  0  0  0  0  0
  -25.8740  -18.7881   22.3913 C   0  0  0  0  0  0  0  0  0  0  0  0
  -27.7484  -20.4175   22.8831 C   0  0  0  0  0  0  0  0  0  0  0  0
  -27.8324  -19.0507   20.8178 C   0  0  0  0  0  0  0  0  0  0  0  0
  -20.1118  -27.6773   22.9459 C   0  0  1  0  0  0  0  0  0  0  0  0
  -22.4726  -28.0588   19.9939 C   0  0  1  0  0  0  0  0  0  0  0  0
  -26.3296  -18.7484   20.9240 C   0  0  1  0  0  0  0  0  0  0  0  0
  -26.3920  -23.7459   14.8910 C   0  0  0  0  0  0  0  0  0  0  0  0
  -23.5895  -23.6649   20.8918 C   0  0  0  0  0  0  0  0  0  0  0  0
  -25.0660  -22.5597   19.1987 C   0  0  0  0  0  0  0  0  0  0  0  0
  -22.6635  -22.9770   18.6729 C   0  0  0  0  0  0  0  0  0  0  0  0
  -26.1359  -27.5418   14.9344 C   0  0  0  0  0  0  0  0  0  0  0  0
  -29.9879  -32.0295   22.2749 C   0  0  0  0  0  0  0  0  0  0  0  0
  -28.5782  -31.9172   21.6988 C   0  0  0  0  0  0  0  0  0  1  0  0
  -24.2731  -24.9253   18.7448 C   0  0  1  0  0  0  0  0  0  0  0  0
  -25.7973  -25.0910   15.2779 C   0  0  2  0  0  0  0  0  0  0  0  0
  -30.9764  -31.0047   21.7122 C   0  0  2  0  0  0  0  0  0  0  0  0
  -23.9037  -23.5581   19.3862 C   0  0  0  0  0  0  0  0  0  0  0  0
  -30.3469  -26.6468   22.8271 N   0  0  0  0  0  0  0  0  0  0  0  0
  -25.9522  -16.3121   20.9969 N   0  0  0  0  0  0  0  0  0  0  0  0
  -25.9686  -17.4339   20.2569 N   0  0  0  0  0  0  0  0  0  0  0  0
  -28.1722  -20.3159   21.4785 N   0  0  0  0  0  0  0  0  0  0  0  0
  -23.5301  -27.1177   19.6197 N   0  0  0  0  0  0  0  0  0  0  0  0
  -25.6122  -18.2555   18.0641 N   0  0  0  0  0  0  0  0  0  0  0  0
  -24.8081  -13.8297   17.6619 N   0  0  0  0  0  0  0  0  0  0  0  0
  -30.4842  -28.6606   21.4367 N   0  0  0  0  0  0  0  0  0  0  0  0
  -20.7206  -27.9398   21.6595 N   0  0  0  0  0  0  0  0  0  0  0  0
  -24.5492  -24.8588   17.3138 N   0  0  0  0  0  0  0  0  0  0  0  0
  -26.6210  -26.1656   14.6553 N   0  3  0  0  0  0  0  0  0  0  0  0
  -24.8925  -15.8179   16.5224 O   0  0  0  0  0  0  0  0  0  0  0  0
  -29.2298  -21.1671   19.5879 O   0  0  0  0  0  0  0  0  0  0  0  0
  -22.8924  -27.2838   22.1844 O   0  0  0  0  0  0  0  0  0  0  0  0
  -22.0661  -25.7392   18.4396 O   0  0  0  0  0  0  0  0  0  0  0  0
  -26.7031  -25.7101   17.4305 O   0  0  0  0  0  0  0  0  0  0  0  0
  -31.0416  -29.4951   23.5612 O   0  0  0  0  0  0  0  0  0  0  0  0
  -25.1028  -10.0451   21.7393 O   0  0  0  0  0  0  0  0  0  0  0  0
  -28.0402  -30.6202   21.9531 O   0  0  0  0  0  0  0  0  0  1  0  0
  -20.6800   -7.2478   20.0020 F   0  0  0  0  0  0  0  0  0  0  0  0
  -23.3054   -8.9703   23.5440 F   0  0  0  0  0  0  0  0  0  0  0  0
  -30.7994  -30.9165   20.3635 F   0  0  0  0  0  0  0  0  0  0  0  0
  -29.8217  -26.3450   20.3140 S   0  0  0  0  0  0  0  0  0  0  0  0
  1  2  1  0  0  0  0
  1  5  2  0  0  0  0
  2  6  2  0  0  0  0
  3  8  2  0  0  0  0
  3 16  1  0  0  0  0
  4  9  1  0  0  0  0
  4 16  2  0  0  0  0
  5 18  1  0  0  0  0
  6 20  1  0  0  0  0
  7 10  2  0  0  0  0
  7 19  1  0  0  0  0
  8 22  1  0  0  0  0
  9 22  2  0  0  0  0
 10 23  1  0  0  0  0
 11 12  2  0  0  0  0
 11 24  1  0  0  0  0
 12 25  1  0  0  0  0
 13 21  1  0  0  0  0
 13 23  2  0  0  0  0
 14 25  2  0  0  0  0
 14 26  1  0  0  0  0
 15 28  2  0  0  0  0
 15 62  1  0  0  0  0
 16 27  1  0  0  0  0
 17 27  1  0  0  0  0
 17 29  2  0  0  0  0
 17 33  1  0  0  0  0
 18 20  2  0  0  0  0
 18 39  1  0  0  0  0
 19 21  2  0  0  0  0
 19 40  1  0  0  0  0
 20 48  1  0  0  0  0
 21 41  1  0  0  0  0
 22 79  1  0  0  0  0
 23 80  1  0  0  0  0
 24 26  2  0  0  0  0
 24 79  1  0  0  0  0
 25 81  1  0  0  0  0
 26 82  1  0  0  0  0
 27 63  2  0  0  0  0
 28 31  1  0  0  0  0
 28 84  1  0  0  0  0
 29 64  1  0  0  0  0
 29 67  1  0  0  0  0
 30 62  2  0  0  0  0
 30 69  1  0  0  0  0
 30 84  1  0  0  0  0
 31 32  2  0  0  0  0
 32 34  1  0  0  0  0
 33 68  1  0  0  0  0
 33 73  2  0  0  0  0
 34 65  1  0  0  0  0
 34 74  2  0  0  0  0
 35 49  1  0  0  0  0
 35 70  1  0  0  0  0
 35 75  2  0  0  0  0
 36 58  1  0  0  0  0
 36 66  1  0  0  0  0
 36 76  2  0  0  0  0
 37 59  1  0  0  0  0
 37 71  1  0  0  0  0
 37 77  2  0  0  0  0
 38 60  1  0  0  0  0
 38 69  1  0  0  0  0
 38 78  2  0  0  0  0
 39 42  1  0  0  0  0
 40 49  1  0  0  0  0
 41 66  1  0  0  0  0
 42 44  1  0  0  0  0
 43 45  1  0  0  0  0
 43 46  1  0  0  0  0
 44 48  1  0  0  0  0
 45 50  1  0  0  0  0
 46 65  1  0  0  0  0
 47 50  1  0  0  0  0
 47 65  1  0  0  0  0
 48 70  1  0  0  0  0
 49 66  1  0  0  0  0
 50 64  1  0  0  0  0
 51 59  1  0  0  0  0
 52 61  1  0  0  0  0
 53 61  1  0  0  0  0
 54 61  1  0  0  0  0
 55 72  1  0  0  0  0
 56 57  1  0  0  0  0
 56 60  1  0  0  0  0
 57 80  1  0  0  0  0
 58 61  1  0  0  0  0
 58 71  1  0  0  0  0
 59 72  1  0  0  0  0
 60 83  1  0  0  0  0
 63 64  1  0  0  0  0
M  CHG  1  72   1
M  ISO  4  32 100  34 100  57 101  80 101
M  END
> <Batch ID>
0182

> <Smiles>
CNC(C)C(=O)NC(C(=O)N1Cc2cc([101O:1][101CH2:1]CC(F)C(=O)Nc3ncc(C=[100CH:0][100C:0](=O)N4CCCC(n5nc(-c6ccc(Oc7ccc(F)cc7F)cc6)c(C(N)=O)c5N)C4)s3)ccc2CC1C(=O)NC1CCCc2ccccc21)C(C)(C)C

> <Shape>
0.260

> <Color>
0.082

> <Negative vol penalty>
0.000

$$$$

  -OEChem-04052304563D

 87 95  0     1  0  0  0  0  0999 V2000
  -29.6847  -36.5306   19.4303 C   0  0  0  0  0  0  0  0  0  0  0  0
  -29.7270  -35.1574   19.2112 C   0  0  0  0  0  0  0  0  0  0  0  0
  -23.2694   -9.1970   20.5934 C   0  0  0  0  0  0  0  0  0  0  0  0
  -23.0989  -10.8176   22.3771 C   0  0  0  0  0  0  0  0  0  0  0  0
  -29.1238  -37.0310   20.6045 C   0  0  0  0  0  0  0  0  0  0  0  0
  -29.2095  -34.2837   20.1669 C   0  0  0  0  0  0  0  0  0  0  0  0
  -26.3672  -28.9588   19.1315 C   0  0  0  0  0  0  0  0  0  0  0  0
  -22.4541   -8.3216   21.3108 C   0  0  0  0  0  0  0  0  0  0  0  0
  -22.2836   -9.9423   23.0945 C   0  0  0  0  0  0  0  0  0  0  0  0
  -26.8098  -27.6372   19.1654 C   0  0  0  0  0  0  0  0  0  0  0  0
  -22.7785   -6.1725   23.8993 C   0  0  0  0  0  0  0  0  0  0  0  0
  -23.1685   -4.8352   23.9693 C   0  0  0  0  0  0  0  0  0  0  0  0
  -25.9903  -27.4270   21.4245 C   0  0  0  0  0  0  0  0  0  0  0  0
  -21.1031   -4.1770   22.9025 C   0  0  0  0  0  0  0  0  0  0  0  0
  -23.5919  -10.4450   21.1265 C   0  0  0  0  0  0  0  0  0  0  0  0
  -24.0249  -12.3267   19.4594 C   0  0  0  0  0  0  0  0  0  0  0  0
  -28.5904  -36.1635   21.5708 C   0  0  0  0  0  0  0  0  0  0  0  0
  -25.7415  -29.5288   20.2495 C   0  0  0  0  0  0  0  0  0  0  0  0
  -28.6422  -34.7730   21.3558 C   0  0  0  0  0  0  0  0  0  0  0  0
  -25.5384  -28.7553   21.4013 C   0  0  0  0  0  0  0  0  0  0  0  0
  -21.9612   -8.6943   22.5613 C   0  0  0  0  0  0  0  0  0  0  0  0
  -26.6240  -26.8719   20.3130 C   0  0  0  0  0  0  0  0  0  0  0  0
  -21.5508   -6.5122   23.3310 C   0  0  0  0  0  0  0  0  0  0  0  0
  -22.3308   -3.8374   23.4709 C   0  0  0  0  0  0  0  0  0  0  0  0
  -20.7131   -5.5145   22.8325 C   0  0  0  0  0  0  0  0  0  0  0  0
  -24.4345  -11.3494   20.3862 C   0  0  0  0  0  0  0  0  0  0  0  0
  -29.4251  -19.7608   18.7945 C   0  0  0  0  0  0  0  0  0  0  0  0
  -30.7160  -19.2807   18.8664 C   0  0  0  0  0  0  0  0  0  0  0  0
  -25.1938  -12.9130   19.0395 C   0  0  0  0  0  0  0  0  0  0  0  0
  -29.6518  -17.4536   19.4489 C   0  0  0  0  0  0  0  0  0  0  0  0
  -22.7057  -12.6735   19.0176 C   0  0  0  0  0  0  0  0  0  0  0  0
  -28.9101  -21.1063   18.4320 C   0  0  0  0  0  0  0  0  0  0  0  0
  -26.3959  -31.9602   22.1896 C   0  0  0  0  0  0  0  0  0  0  0  0
  -26.8711  -23.3821   19.3518 C   0  0  0  0  0  0  0  0  0  0  0  0
  -23.4681  -31.2712   23.4045 C   0  0  0  0  0  0  0  0  0  0  0  0
  -20.9957  -28.9662   23.8746 C   0  0  0  0  0  0  0  0  0  0  0  0
  -30.2092  -15.0854   20.1025 C   0  0  0  0  0  0  0  0  0  0  0  0
  -28.0372  -36.7491   22.8458 C   0  0  0  0  0  0  0  0  0  0  0  0
  -25.2458  -30.9475   20.1876 C   0  0  0  0  0  0  0  0  0  0  0  0
  -24.8541  -29.3139   22.6212 C   0  0  0  0  0  0  0  0  0  0  0  0
  -27.1722  -35.7730   23.6392 C   0  0  0  0  0  0  0  0  0  0  0  0
  -30.0124  -11.5459   19.7702 C   0  0  0  0  0  0  0  0  0  0  0  0
  -27.8587  -34.4149   23.7441 C   0  0  0  0  0  0  0  0  0  0  0  0
  -28.5100  -11.2596   19.8246 C   0  0  0  0  0  0  0  0  0  0  0  0
  -30.4073  -12.6839   20.7097 C   0  0  0  0  0  0  0  0  0  0  0  0
  -28.1394  -13.6390   20.5918 C   0  0  0  0  0  0  0  0  0  0  0  0
  -28.0687  -33.7944   22.3576 C   0  0  1  0  0  0  0  0  0  0  0  0
  -25.0824  -31.5840   21.5644 C   0  0  1  0  0  0  0  0  0  0  0  0
  -27.6837  -12.5436   19.6140 C   0  0  2  0  0  0  0  0  0  0  0  0
  -18.7397  -28.6863   24.9373 C   0  0  0  0  0  0  0  0  0  0  0  0
  -24.4750  -21.6844   18.5099 C   0  0  0  0  0  0  0  0  0  0  0  0
  -25.5167  -21.4673   16.2411 C   0  0  0  0  0  0  0  0  0  0  0  0
  -24.7856  -31.1036   26.1515 C   0  0  0  0  0  0  0  0  0  0  0  0
  -22.7425  -29.9185   26.9819 C   0  0  0  0  0  0  0  0  0  0  0  0
  -22.5659  -32.2555   26.1276 C   0  0  0  0  0  0  0  0  0  0  0  0
  -19.7191  -28.3532   21.2759 C   0  0  0  0  0  0  0  0  0  0  0  0
  -27.0703  -24.8672   19.1139 C   0  0  0  0  0  0  0  0  0  1  0  0
  -26.8788  -22.4943   18.1104 C   0  0  2  0  0  0  0  0  0  0  0  0
  -22.9492  -30.3643   24.4940 C   0  0  1  0  0  0  0  0  0  0  0  0
  -19.4940  -29.0430   23.6659 C   0  0  2  0  0  0  0  0  0  0  0  0
  -25.4679  -22.3057   17.5223 C   0  0  0  0  0  0  0  0  0  0  0  0
  -23.2755  -30.9002   25.9166 C   0  0  0  0  0  0  0  0  0  0  0  0
  -25.7601  -11.3137   20.5460 N   0  0  0  0  0  0  0  0  0  0  0  0
  -30.8479  -17.9580   19.2419 N   0  0  0  0  0  0  0  0  0  0  0  0
  -26.1936  -12.2758   19.7138 N   0  0  0  0  0  0  0  0  0  0  0  0
  -24.3930  -30.7079   22.5138 N   0  0  0  0  0  0  0  0  0  0  0  0
  -29.5858  -13.8681   20.4494 N   0  0  0  0  0  0  0  0  0  0  0  0
  -31.8145  -20.0247   18.5932 N   0  0  0  0  0  0  0  0  0  0  0  0
  -25.4537  -13.9062   18.1629 N   0  0  0  0  0  0  0  0  0  0  0  0
  -21.6163  -11.9711   19.5507 N   0  0  0  0  0  0  0  0  0  0  0  0
  -29.3255  -16.1332   19.8462 N   0  0  0  0  0  0  0  0  0  0  0  0
  -27.5301  -21.2583   18.4597 N   0  0  0  0  0  0  0  0  0  0  0  0
  -26.8308  -33.2306   21.8634 N   0  0  0  0  0  0  0  0  0  0  0  0
  -21.5245  -30.1878   24.2342 N   0  0  0  0  0  0  0  0  0  0  0  0
  -19.0719  -28.1028   22.5895 N   0  3  0  0  0  0  0  0  0  0  0  0
  -22.5003  -13.5683   18.1628 O   0  0  0  0  0  0  0  0  0  0  0  0
  -29.7047  -21.9874   18.1147 O   0  0  0  0  0  0  0  0  0  0  0  0
  -26.9714  -31.1579   22.9153 O   0  0  0  0  0  0  0  0  0  0  0  0
  -26.6840  -22.9294   20.4815 O   0  0  0  0  0  0  0  0  0  0  0  0
  -23.0623  -32.4343   23.3415 O   0  0  0  0  0  0  0  0  0  0  0  0
  -21.6351  -27.9257   23.7364 O   0  0  0  0  0  0  0  0  0  0  0  0
  -31.4356  -15.1835   20.0110 O   0  0  0  0  0  0  0  0  0  0  0  0
  -21.1654   -7.8405   23.2615 O   0  0  0  0  0  0  0  0  0  0  0  0
  -27.0557  -25.5819   20.3490 O   0  0  0  0  0  0  0  0  0  1  0  0
  -22.7061   -2.5533   23.5368 F   0  0  0  0  0  0  0  0  0  0  0  0
  -19.5330   -5.8347   22.2843 F   0  0  0  0  0  0  0  0  0  0  0  0
  -28.3235  -18.5137   19.2100 S   0  0  0  0  0  0  0  0  0  0  0  0
  1  2  1  0  0  0  0
  1  5  2  0  0  0  0
  2  6  2  0  0  0  0
  3  8  2  0  0  0  0
  3 15  1  0  0  0  0
  4  9  1  0  0  0  0
  4 15  2  0  0  0  0
  5 17  1  0  0  0  0
  6 19  1  0  0  0  0
  7 10  2  0  0  0  0
  7 18  1  0  0  0  0
  8 21  1  0  0  0  0
  9 21  2  0  0  0  0
 10 22  1  0  0  0  0
 11 12  2  0  0  0  0
 11 23  1  0  0  0  0
 12 24  1  0  0  0  0
 13 20  1  0  0  0  0
 13 22  2  0  0  0  0
 14 24  2  0  0  0  0
 14 25  1  0  0  0  0
 15 26  1  0  0  0  0
 16 26  1  0  0  0  0
 16 29  2  0  0  0  0
 16 31  1  0  0  0  0
 17 19  2  0  0  0  0
 17 38  1  0  0  0  0
 18 20  2  0  0  0  0
 18 39  1  0  0  0  0
 19 47  1  0  0  0  0
 20 40  1  0  0  0  0
 21 83  1  0  0  0  0
 22 84  1  0  0  0  0
 23 25  2  0  0  0  0
 23 83  1  0  0  0  0
 24 85  1  0  0  0  0
 25 86  1  0  0  0  0
 26 63  2  0  0  0  0
 27 28  2  0  0  0  0
 27 32  1  0  0  0  0
 27 87  1  0  0  0  0
 28 64  1  0  0  0  0
 28 68  1  0  0  0  0
 29 65  1  0  0  0  0
 29 69  1  0  0  0  0
 30 64  2  0  0  0  0
 30 71  1  0  0  0  0
 30 87  1  0  0  0  0
 31 70  1  0  0  0  0
 31 76  2  0  0  0  0
 32 72  1  0  0  0  0
 32 77  2  0  0  0  0
 33 48  1  0  0  0  0
 33 73  1  0  0  0  0
 33 78  2  0  0  0  0
 34 57  1  0  0  0  0
 34 58  1  0  0  0  0
 34 79  2  0  0  0  0
 35 59  1  0  0  0  0
 35 66  1  0  0  0  0
 35 80  2  0  0  0  0
 36 60  1  0  0  0  0
 36 74  1  0  0  0  0
 36 81  2  0  0  0  0
 37 67  1  0  0  0  0
 37 71  1  0  0  0  0
 37 82  2  0  0  0  0
 38 41  1  0  0  0  0
 39 48  1  0  0  0  0
 40 66  1  0  0  0  0
 41 43  1  0  0  0  0
 42 44  1  0  0  0  0
 42 45  1  0  0  0  0
 43 47  1  0  0  0  0
 44 49  1  0  0  0  0
 45 67  1  0  0  0  0
 46 49  1  0  0  0  0
 46 67  1  0  0  0  0
 47 73  1  0  0  0  0
 48 66  1  0  0  0  0
 49 65  1  0  0  0  0
 50 60  1  0  0  0  0
 51 61  1  0  0  0  0
 52 61  1  0  0  0  0
 53 62  1  0  0  0  0
 54 62  1  0  0  0  0
 55 62  1  0  0  0  0
 56 75  1  0  0  0  0
 57 84  1  0  0  0  0
 58 61  1  0  0  0  0
 58 72  1  0  0  0  0
 59 62  1  0  0  0  0
 59 74  1  0  0  0  0
 60 75  1  0  0  0  0
 63 65  1  0  0  0  0
M  CHG  1  75   1
M  ISO  4  37 100  57 101  71 100  84 101
M  END
> <Batch ID>
0182

> <Smiles>
CNC(C)C(=O)NC(C(=O)N1Cc2cc([101O:1][101CH2:1]C(=O)C(NC(=O)c3sc([100NH:0][100C:0](=O)N4CCCC(n5nc(-c6ccc(Oc7ccc(F)cc7F)cc6)c(C(N)=O)c5N)C4)nc3N)C(C)C)ccc2CC1C(=O)NC1CCCc2ccccc21)C(C)(C)C

> <Shape>
0.289

> <Color>
0.127

> <Negative vol penalty>
0.000

$$$$

  -OEChem-04052304563D

 83 91  0     1  0  0  0  0  0999 V2000
  -20.6970  -33.3417   23.7431 C   0  0  0  0  0  0  0  0  0  0  0  0
  -21.9169  -32.6748   23.6941 C   0  0  0  0  0  0  0  0  0  0  0  0
  -26.3532  -12.6736   21.5242 C   0  0  0  0  0  0  0  0  0  0  0  0
  -25.5255  -13.7491   19.5253 C   0  0  0  0  0  0  0  0  0  0  0  0
  -19.5068  -32.6247   23.6286 C   0  0  0  0  0  0  0  0  0  0  0  0
  -21.9473  -31.2902   23.5315 C   0  0  0  0  0  0  0  0  0  0  0  0
  -25.3907  -29.8090   20.1265 C   0  0  0  0  0  0  0  0  0  0  0  0
  -25.1409  -11.9978   21.6625 C   0  0  0  0  0  0  0  0  0  0  0  0
  -24.3132  -13.0731   19.6636 C   0  0  0  0  0  0  0  0  0  0  0  0
  -26.7226  -29.7827   20.5379 C   0  0  0  0  0  0  0  0  0  0  0  0
  -23.6223   -9.3017   20.2993 C   0  0  0  0  0  0  0  0  0  0  0  0
  -23.6697   -7.9408   20.6012 C   0  0  0  0  0  0  0  0  0  0  0  0
  -26.5667  -27.3984   20.8694 C   0  0  0  0  0  0  0  0  0  0  0  0
  -22.4418   -8.3506   22.6412 C   0  0  0  0  0  0  0  0  0  0  0  0
  -29.3141  -21.3998   17.1872 C   0  0  0  0  0  0  0  0  0  0  0  0
  -26.5455  -13.5493   20.4556 C   0  0  0  0  0  0  0  0  0  0  0  0
  -28.9367  -13.8157   19.6077 C   0  0  0  0  0  0  0  0  0  0  0  0
  -19.5228  -31.2318   23.4548 C   0  0  0  0  0  0  0  0  0  0  0  0
  -24.6324  -28.6299   20.0939 C   0  0  0  0  0  0  0  0  0  0  0  0
  -20.7561  -30.5537   23.4158 C   0  0  0  0  0  0  0  0  0  0  0  0
  -25.2262  -27.4120   20.4548 C   0  0  0  0  0  0  0  0  0  0  0  0
  -24.1209  -12.1975   20.7323 C   0  0  0  0  0  0  0  0  0  0  0  0
  -27.3099  -28.5777   20.9122 C   0  0  0  0  0  0  0  0  0  0  0  0
  -22.9848  -10.1872   21.1684 C   0  0  0  0  0  0  0  0  0  0  0  0
  -23.0794   -7.4652   21.7721 C   0  0  0  0  0  0  0  0  0  0  0  0
  -22.3945   -9.7116   22.3393 C   0  0  0  0  0  0  0  0  0  0  0  0
  -27.7973  -14.2482   20.3124 C   0  0  0  0  0  0  0  0  0  0  0  0
  -29.3136  -21.6055   18.5509 C   0  0  0  0  0  0  0  0  0  0  0  0
  -29.8487  -14.8291   19.7743 C   0  0  0  0  0  0  0  0  0  0  0  0
  -29.3394  -23.7001   17.9015 C   0  0  0  0  0  0  0  0  0  0  0  0
  -29.1514  -12.6061   18.8685 C   0  0  0  0  0  0  0  0  0  0  0  0
  -29.3597  -25.1830   17.9826 C   0  0  0  0  0  0  0  0  0  0  0  0
  -22.0100  -27.6079   21.5711 C   0  0  0  0  0  0  0  0  0  0  0  0
  -22.3253  -25.0885   19.5523 C   0  0  0  0  0  0  0  0  0  0  0  0
  -24.3702  -23.1839   17.5933 C   0  0  0  0  0  0  0  0  0  0  0  0
  -29.3560  -27.0824   19.5613 C   0  0  0  0  0  0  0  0  0  0  0  0
  -29.2986  -20.6733   20.8912 C   0  0  0  0  0  0  0  0  0  0  0  0
  -18.2093  -30.4940   23.3830 C   0  0  0  0  0  0  0  0  0  0  0  0
  -23.2047  -28.6711   19.6222 C   0  0  0  0  0  0  0  0  0  0  0  0
  -24.4612  -26.1151   20.4180 C   0  0  0  0  0  0  0  0  0  0  0  0
  -18.3373  -29.0741   22.8373 C   0  0  0  0  0  0  0  0  0  0  0  0
  -31.0811  -18.2903   22.8460 C   0  0  0  0  0  0  0  0  0  0  0  0
  -19.5012  -28.3485   23.5049 C   0  0  0  0  0  0  0  0  0  0  0  0
  -30.5494  -16.9438   22.3498 C   0  0  0  0  0  0  0  0  0  0  0  0
  -29.9855  -19.3543   22.8821 C   0  0  0  0  0  0  0  0  0  0  0  0
  -28.7139  -18.1799   21.1290 C   0  0  0  0  0  0  0  0  0  0  0  0
  -20.8308  -29.0555   23.2157 C   0  0  1  0  0  0  0  0  0  0  0  0
  -22.3770  -27.4897   20.1189 C   0  0  1  0  0  0  0  0  0  0  0  0
  -29.7956  -17.0934   21.0137 C   0  0  2  0  0  0  0  0  0  0  0  0
  -24.3479  -21.1702   16.0961 C   0  0  0  0  0  0  0  0  0  0  0  0
  -30.7530  -27.5337   21.5974 C   0  0  0  0  0  0  0  0  0  0  0  0
  -22.2071  -23.2720   22.0011 C   0  0  0  0  0  0  0  0  0  0  0  0
  -23.1256  -21.4218   20.5865 C   0  0  0  0  0  0  0  0  0  0  0  0
  -20.9201  -22.4425   20.0238 C   0  0  0  0  0  0  0  0  0  0  0  0
  -25.2426  -24.7707   15.2524 C   0  0  0  0  0  0  0  0  0  0  0  0
  -23.0378  -23.7586   19.6055 C   0  0  1  0  0  0  0  0  0  0  0  0
  -24.2200  -22.6839   16.1679 C   0  0  2  0  0  0  0  0  0  0  0  0
  -29.3423  -27.3515   21.0601 C   0  0  1  0  0  0  0  0  0  1  0  0
  -22.3368  -22.7483   20.5569 C   0  0  0  0  0  0  0  0  0  0  0  0
  -27.9676  -15.4432   20.8843 N   0  0  0  0  0  0  0  0  0  0  0  0
  -29.3285  -22.9239   18.9624 N   0  0  0  0  0  0  0  0  0  0  0  0
  -29.2246  -15.7702   20.5392 N   0  0  0  0  0  0  0  0  0  0  0  0
  -23.0665  -26.2082   19.9557 N   0  0  0  0  0  0  0  0  0  0  0  0
  -29.3181  -19.4429   21.5815 N   0  0  0  0  0  0  0  0  0  0  0  0
  -31.1156  -14.9980   19.3398 N   0  0  0  0  0  0  0  0  0  0  0  0
  -28.1089  -11.6719   18.7985 N   0  0  0  0  0  0  0  0  0  0  0  0
  -29.3001  -20.5550   19.5018 N   0  0  0  0  0  0  0  0  0  0  0  0
  -29.3667  -25.7171   19.2700 N   0  0  0  0  0  0  0  0  0  0  0  0
  -21.2878  -28.7453   21.8780 N   0  0  0  0  0  0  0  0  0  0  0  0
  -23.1501  -23.3002   18.2250 N   0  0  0  0  0  0  0  0  0  0  0  0
  -25.2669  -23.2859   15.2947 N   0  3  0  0  0  0  0  0  0  0  0  0
  -30.2412  -12.3535   18.3011 O   0  0  0  0  0  0  0  0  0  0  0  0
  -29.3432  -25.8388   16.9445 O   0  0  0  0  0  0  0  0  0  0  0  0
  -22.3551  -26.7313   22.3548 O   0  0  0  0  0  0  0  0  0  0  0  0
  -21.1565  -25.1331   19.1604 O   0  0  0  0  0  0  0  0  0  0  0  0
  -25.4611  -23.4417   18.0973 O   0  0  0  0  0  0  0  0  0  0  0  0
  -29.3390  -27.9864   18.7291 O   0  0  0  0  0  0  0  0  0  0  0  0
  -29.3094  -21.7527   21.4886 O   0  0  0  0  0  0  0  0  0  0  0  0
  -22.9379  -11.5379   20.8668 O   0  0  0  0  0  0  0  0  0  0  0  0
  -28.6095  -28.5493   21.3147 O   0  0  0  0  0  0  0  0  0  1  0  0
  -23.1236   -6.1581   22.0611 F   0  0  0  0  0  0  0  0  0  0  0  0
  -21.7796  -10.5572   23.1775 F   0  0  0  0  0  0  0  0  0  0  0  0
  -29.3319  -22.9115   16.3774 S   0  0  0  0  0  0  0  0  0  0  0  0
  1  2  1  0  0  0  0
  1  5  2  0  0  0  0
  2  6  2  0  0  0  0
  3  8  2  0  0  0  0
  3 16  1  0  0  0  0
  4  9  1  0  0  0  0
  4 16  2  0  0  0  0
  5 18  1  0  0  0  0
  6 20  1  0  0  0  0
  7 10  2  0  0  0  0
  7 19  1  0  0  0  0
  8 22  1  0  0  0  0
  9 22  2  0  0  0  0
 10 23  1  0  0  0  0
 11 12  2  0  0  0  0
 11 24  1  0  0  0  0
 12 25  1  0  0  0  0
 13 21  1  0  0  0  0
 13 23  2  0  0  0  0
 14 25  2  0  0  0  0
 14 26  1  0  0  0  0
 15 28  2  0  0  0  0
 15 83  1  0  0  0  0
 16 27  1  0  0  0  0
 17 27  1  0  0  0  0
 17 29  2  0  0  0  0
 17 31  1  0  0  0  0
 18 20  2  0  0  0  0
 18 38  1  0  0  0  0
 19 21  2  0  0  0  0
 19 39  1  0  0  0  0
 20 47  1  0  0  0  0
 21 40  1  0  0  0  0
 22 79  1  0  0  0  0
 23 80  1  0  0  0  0
 24 26  2  0  0  0  0
 24 79  1  0  0  0  0
 25 81  1  0  0  0  0
 26 82  1  0  0  0  0
 27 60  2  0  0  0  0
 28 61  1  0  0  0  0
 28 67  1  0  0  0  0
 29 62  1  0  0  0  0
 29 65  1  0  0  0  0
 30 32  1  0  0  0  0
 30 61  2  0  0  0  0
 30 83  1  0  0  0  0
 31 66  1  0  0  0  0
 31 72  2  0  0  0  0
 32 68  1  0  0  0  0
 32 73  2  0  0  0  0
 33 48  1  0  0  0  0
 33 69  1  0  0  0  0
 33 74  2  0  0  0  0
 34 56  1  0  0  0  0
 34 63  1  0  0  0  0
 34 75  2  0  0  0  0
 35 57  1  0  0  0  0
 35 70  1  0  0  0  0
 35 76  2  0  0  0  0
 36 58  1  0  0  0  0
 36 68  1  0  0  0  0
 36 77  2  0  0  0  0
 37 64  1  0  0  0  0
 37 67  1  0  0  0  0
 37 78  2  0  0  0  0
 38 41  1  0  0  0  0
 39 48  1  0  0  0  0
 40 63  1  0  0  0  0
 41 43  1  0  0  0  0
 42 44  1  0  0  0  0
 42 45  1  0  0  0  0
 43 47  1  0  0  0  0
 44 49  1  0  0  0  0
 45 64  1  0  0  0  0
 46 49  1  0  0  0  0
 46 64  1  0  0  0  0
 47 69  1  0  0  0  0
 48 63  1  0  0  0  0
 49 62  1  0  0  0  0
 50 57  1  0  0  0  0
 51 58  1  0  0  0  0
 52 59  1  0  0  0  0
 53 59  1  0  0  0  0
 54 59  1  0  0  0  0
 55 71  1  0  0  0  0
 56 59  1  0  0  0  0
 56 70  1  0  0  0  0
 57 71  1  0  0  0  0
 58 80  1  0  0  0  0
 60 62  1  0  0  0  0
M  CHG  1  71   1
M  ISO  4  37 100  58 101  67 100  80 101
M  END
> <Batch ID>
0182

> <Smiles>
CNC(C)C(=O)NC(C(=O)N1Cc2cc([101O:1][101CH:1](C)C(=O)NC(=O)c3nc([100NH:0][100C:0](=O)N4CCCC(n5nc(-c6ccc(Oc7ccc(F)cc7F)cc6)c(C(N)=O)c5N)C4)cs3)ccc2CC1C(=O)NC1CCCc2ccccc21)C(C)(C)C

> <Shape>
0.302

> <Color>
0.081

> <Negative vol penalty>
0.000

$$$$

  -OEChem-04052304563D

 85 93  0     1  0  0  0  0  0999 V2000
  -42.2405  -26.6224   25.9971 C   0  0  0  0  0  0  0  0  0  0  0  0
  -41.7887  -25.8969   27.0948 C   0  0  0  0  0  0  0  0  0  0  0  0
  -23.0658   -9.8738   19.9498 C   0  0  0  0  0  0  0  0  0  0  0  0
  -23.8591   -9.8740   22.2318 C   0  0  0  0  0  0  0  0  0  0  0  0
  -41.4182  -27.5846   25.4125 C   0  0  0  0  0  0  0  0  0  0  0  0
  -40.5146  -26.1341   27.6093 C   0  0  0  0  0  0  0  0  0  0  0  0
  -35.6259  -20.8567   27.9858 C   0  0  0  0  0  0  0  0  0  0  0  0
  -22.3280   -8.7182   20.2064 C   0  0  0  0  0  0  0  0  0  0  0  0
  -23.1213   -8.7184   22.4884 C   0  0  0  0  0  0  0  0  0  0  0  0
  -34.7062  -19.8516   28.2859 C   0  0  0  0  0  0  0  0  0  0  0  0
  -19.9040   -7.9117   23.1352 C   0  0  0  0  0  0  0  0  0  0  0  0
  -19.1643   -7.8659   24.3169 C   0  0  0  0  0  0  0  0  0  0  0  0
  -33.1549  -21.5067   29.1241 C   0  0  0  0  0  0  0  0  0  0  0  0
  -20.4203   -5.9284   25.0280 C   0  0  0  0  0  0  0  0  0  0  0  0
  -23.8314  -10.4517   20.9625 C   0  0  0  0  0  0  0  0  0  0  0  0
  -24.1663  -12.9780   20.8467 C   0  0  0  0  0  0  0  0  0  0  0  0
  -40.1296  -27.8269   25.9141 C   0  0  0  0  0  0  0  0  0  0  0  0
  -35.3071  -22.1936   28.2398 C   0  0  0  0  0  0  0  0  0  0  0  0
  -39.6747  -27.1014   27.0317 C   0  0  0  0  0  0  0  0  0  0  0  0
  -34.0672  -22.5188   28.8140 C   0  0  0  0  0  0  0  0  0  0  0  0
  -22.3557   -8.1405   21.4757 C   0  0  0  0  0  0  0  0  0  0  0  0
  -33.4739  -20.1758   28.8539 C   0  0  0  0  0  0  0  0  0  0  0  0
  -20.9018   -6.9657   22.8998 C   0  0  0  0  0  0  0  0  0  0  0  0
  -19.4225   -6.8743   25.2633 C   0  0  0  0  0  0  0  0  0  0  0  0
  -21.1599   -5.9741   23.8462 C   0  0  0  0  0  0  0  0  0  0  0  0
  -24.5942  -11.6451   20.6979 C   0  0  0  0  0  0  0  0  0  0  0  0
  -30.5946  -17.8515   22.8655 C   0  0  0  0  0  0  0  0  0  0  0  0
  -25.2515  -13.7310   20.4703 C   0  0  0  0  0  0  0  0  0  0  0  0
  -29.6928  -18.8412   22.5347 C   0  0  0  0  0  0  0  0  0  0  0  0
  -30.4421  -18.8265   24.8240 C   0  0  0  0  0  0  0  0  0  0  0  0
  -22.9010  -13.4896   21.2861 C   0  0  0  0  0  0  0  0  0  0  0  0
  -36.3830  -25.7839   28.0716 C   0  0  0  0  0  0  0  0  0  0  0  0
  -30.7577  -14.6941   20.6785 C   0  0  0  0  0  0  0  0  0  0  0  0
  -33.4201  -25.7036   27.2809 C   0  0  0  0  0  0  0  0  0  0  0  0
  -30.2848  -25.1340   26.0631 C   0  0  0  0  0  0  0  0  0  0  0  0
  -31.4015  -18.5586   27.1358 C   0  0  0  0  0  0  0  0  0  0  0  0
  -39.2950  -28.9103   25.2782 C   0  0  0  0  0  0  0  0  0  0  0  0
  -36.2915  -23.3036   27.9896 C   0  0  0  0  0  0  0  0  0  0  0  0
  -33.7811  -23.9674   29.1018 C   0  0  0  0  0  0  0  0  0  0  0  0
  -37.8165  -28.8381   25.6511 C   0  0  0  0  0  0  0  0  0  0  0  0
  -29.5612  -12.4042   18.1957 C   0  0  0  0  0  0  0  0  0  0  0  0
  -37.6544  -28.6341   27.1541 C   0  0  0  0  0  0  0  0  0  0  0  0
  -28.1381  -12.0888   18.6543 C   0  0  0  0  0  0  0  0  0  0  0  0
  -30.4988  -12.6044   19.3823 C   0  0  0  0  0  0  0  0  0  0  0  0
  -28.6146  -13.3301   20.8124 C   0  0  0  0  0  0  0  0  0  0  0  0
  -38.2894  -27.3125   27.6031 C   0  0  1  0  0  0  0  0  0  0  0  0
  -35.6226  -24.6105   27.5271 C   0  0  1  0  0  0  0  0  0  0  0  0
  -27.6283  -13.1508   19.6447 C   0  0  2  0  0  0  0  0  0  0  0  0
  -28.2864  -26.3313   25.1303 C   0  0  0  0  0  0  0  0  0  0  0  0
  -30.4676  -17.1545   29.6767 C   0  0  0  0  0  0  0  0  0  0  0  0
  -30.1281  -19.4000   30.7217 C   0  0  0  0  0  0  0  0  0  0  0  0
  -32.6678  -26.6278   30.0887 C   0  0  0  0  0  0  0  0  0  0  0  0
  -30.3194  -26.9414   29.2796 C   0  0  0  0  0  0  0  0  0  0  0  0
  -32.1710  -28.2799   28.2782 C   0  0  0  0  0  0  0  0  0  0  0  0
  -30.4794  -23.6930   23.4854 C   0  0  0  0  0  0  0  0  0  0  0  0
  -31.1266  -16.8255   21.9468 C   0  0  0  0  0  0  0  0  0  0  0  0
  -30.1415  -15.6834   21.6354 C   0  0  0  0  0  0  0  0  0  0  0  0
  -31.9865  -25.8178   27.7338 C   0  0  1  0  0  0  0  0  0  0  0  0
  -29.5896  -25.6189   24.8037 C   0  0  2  0  0  0  0  0  0  0  0  0
  -31.3090  -19.2590   28.4927 C   0  0  1  0  0  0  0  0  0  1  0  0
  -30.2201  -18.6406   29.3942 C   0  0  0  0  0  0  0  0  0  0  0  0
  -31.7990  -26.8914   28.8427 C   0  0  0  0  0  0  0  0  0  0  0  0
  -25.8530  -11.5534   20.2608 N   0  0  0  0  0  0  0  0  0  0  0  0
  -31.0257  -17.8417   24.1776 N   0  0  0  0  0  0  0  0  0  0  0  0
  -26.2254  -12.8382   20.1317 N   0  0  0  0  0  0  0  0  0  0  0  0
  -34.2335  -24.8017   27.9776 N   0  0  0  0  0  0  0  0  0  0  0  0
  -29.9684  -13.6043   20.3109 N   0  0  0  0  0  0  0  0  0  0  0  0
  -25.4581  -15.0632   20.3991 N   0  0  0  0  0  0  0  0  0  0  0  0
  -21.8960  -12.5771   21.6348 N   0  0  0  0  0  0  0  0  0  0  0  0
  -30.5972  -19.1788   26.1857 N   0  0  0  0  0  0  0  0  0  0  0  0
  -37.4282  -26.1986   27.2686 N   0  0  0  0  0  0  0  0  0  0  0  0
  -31.1962  -26.0569   26.5310 N   0  0  0  0  0  0  0  0  0  0  0  0
  -29.2847  -24.4697   23.9052 N   0  3  0  0  0  0  0  0  0  0  0  0
  -22.6631  -14.7195   21.3514 O   0  0  0  0  0  0  0  0  0  0  0  0
  -36.0461  -26.2786   29.1409 O   0  0  0  0  0  0  0  0  0  0  0  0
  -31.9053  -14.8875   20.2689 O   0  0  0  0  0  0  0  0  0  0  0  0
  -33.8122  -26.3981   26.3390 O   0  0  0  0  0  0  0  0  0  0  0  0
  -30.0408  -24.0470   26.5822 O   0  0  0  0  0  0  0  0  0  0  0  0
  -32.1311  -17.5850   26.9713 O   0  0  0  0  0  0  0  0  0  0  0  0
  -21.6357   -7.0130   21.7265 O   0  0  0  0  0  0  0  0  0  0  0  0
  -32.5788  -19.1901   29.1402 O   0  0  0  0  0  0  0  0  0  1  0  0
  -18.7132   -6.8314   26.3987 F   0  0  0  0  0  0  0  0  0  0  0  0
  -22.1181   -5.0634   23.6263 F   0  0  0  0  0  0  0  0  0  0  0  0
  -29.1544  -19.0246   21.3264 F   0  0  0  0  0  0  0  0  0  0  0  0
  -29.3626  -19.8034   23.9155 S   0  0  0  0  0  0  0  0  0  0  0  0
  1  2  1  0  0  0  0
  1  5  2  0  0  0  0
  2  6  2  0  0  0  0
  3  8  2  0  0  0  0
  3 15  1  0  0  0  0
  4  9  1  0  0  0  0
  4 15  2  0  0  0  0
  5 17  1  0  0  0  0
  6 19  1  0  0  0  0
  7 10  2  0  0  0  0
  7 18  1  0  0  0  0
  8 21  1  0  0  0  0
  9 21  2  0  0  0  0
 10 22  1  0  0  0  0
 11 12  2  0  0  0  0
 11 23  1  0  0  0  0
 12 24  1  0  0  0  0
 13 20  1  0  0  0  0
 13 22  2  0  0  0  0
 14 24  2  0  0  0  0
 14 25  1  0  0  0  0
 15 26  1  0  0  0  0
 16 26  1  0  0  0  0
 16 28  2  0  0  0  0
 16 31  1  0  0  0  0
 17 19  2  0  0  0  0
 17 37  1  0  0  0  0
 18 20  2  0  0  0  0
 18 38  1  0  0  0  0
 19 46  1  0  0  0  0
 20 39  1  0  0  0  0
 21 80  1  0  0  0  0
 22 81  1  0  0  0  0
 23 25  2  0  0  0  0
 23 80  1  0  0  0  0
 24 82  1  0  0  0  0
 25 83  1  0  0  0  0
 26 63  2  0  0  0  0
 27 29  2  0  0  0  0
 27 56  1  0  0  0  0
 27 64  1  0  0  0  0
 28 65  1  0  0  0  0
 28 68  1  0  0  0  0
 29 84  1  0  0  0  0
 29 85  1  0  0  0  0
 30 64  2  0  0  0  0
 30 70  1  0  0  0  0
 30 85  1  0  0  0  0
 31 69  1  0  0  0  0
 31 74  2  0  0  0  0
 32 47  1  0  0  0  0
 32 71  1  0  0  0  0
 32 75  2  0  0  0  0
 33 57  1  0  0  0  0
 33 67  1  0  0  0  0
 33 76  2  0  0  0  0
 34 58  1  0  0  0  0
 34 66  1  0  0  0  0
 34 77  2  0  0  0  0
 35 59  1  0  0  0  0
 35 72  1  0  0  0  0
 35 78  2  0  0  0  0
 36 60  1  0  0  0  0
 36 70  1  0  0  0  0
 36 79  2  0  0  0  0
 37 40  1  0  0  0  0
 38 47  1  0  0  0  0
 39 66  1  0  0  0  0
 40 42  1  0  0  0  0
 41 43  1  0  0  0  0
 41 44  1  0  0  0  0
 42 46  1  0  0  0  0
 43 48  1  0  0  0  0
 44 67  1  0  0  0  0
 45 48  1  0  0  0  0
 45 67  1  0  0  0  0
 46 71  1  0  0  0  0
 47 66  1  0  0  0  0
 48 65  1  0  0  0  0
 49 59  1  0  0  0  0
 50 61  1  0  0  0  0
 51 61  1  0  0  0  0
 52 62  1  0  0  0  0
 53 62  1  0  0  0  0
 54 62  1  0  0  0  0
 55 73  1  0  0  0  0
 56 57  1  0  0  0  0
 58 62  1  0  0  0  0
 58 72  1  0  0  0  0
 59 73  1  0  0  0  0
 60 61  1  0  0  0  0
 60 81  1  0  0  0  0
 63 65  1  0  0  0  0
M  CHG  1  73   1
M  ISO  4  33 100  57 100  60 101  81 101
M  END
> <Batch ID>
0182

> <Smiles>
CNC(C)C(=O)NC(C(=O)N1Cc2cc([101O:1][101CH:1](C(=O)Nc3nc(C[100CH2:0][100C:0](=O)N4CCCC(n5nc(-c6ccc(Oc7ccc(F)cc7F)cc6)c(C(N)=O)c5N)C4)c(F)s3)C(C)C)ccc2CC1C(=O)NC1CCCc2ccccc21)C(C)(C)C

> <Shape>
0.170

> <Color>
0.187

> <Negative vol penalty>
0.000

$$$$

  -OEChem-04052304563D

 85 93  0     1  0  0  0  0  0999 V2000
  -21.6468  -34.8154   16.3102 C   0  0  0  0  0  0  0  0  0  0  0  0
  -22.4687  -33.7021   16.1667 C   0  0  0  0  0  0  0  0  0  0  0  0
  -24.3993   -9.7811   20.6731 C   0  0  0  0  0  0  0  0  0  0  0  0
  -24.8331  -10.4884   22.9422 C   0  0  0  0  0  0  0  0  0  0  0  0
  -21.7377  -35.6045   17.4560 C   0  0  0  0  0  0  0  0  0  0  0  0
  -23.3828  -33.3780   17.1686 C   0  0  0  0  0  0  0  0  0  0  0  0
  -25.1066  -27.7633   18.9033 C   0  0  0  0  0  0  0  0  0  0  0  0
  -24.1154   -8.4937   21.1286 C   0  0  0  0  0  0  0  0  0  0  0  0
  -24.5492   -9.2009   23.3977 C   0  0  0  0  0  0  0  0  0  0  0  0
  -26.2211  -26.9859   18.5911 C   0  0  0  0  0  0  0  0  0  0  0  0
  -22.9256   -5.1122   21.7327 C   0  0  0  0  0  0  0  0  0  0  0  0
  -21.7972   -4.4756   21.2159 C   0  0  0  0  0  0  0  0  0  0  0  0
  -27.3074  -27.7446   20.6069 C   0  0  0  0  0  0  0  0  0  0  0  0
  -28.3598  -22.1632   21.8345 C   0  0  0  0  0  0  0  0  0  0  0  0
  -20.4012   -6.2472   22.0817 C   0  0  0  0  0  0  0  0  0  0  0  0
  -24.7582  -10.7785   21.5799 C   0  0  0  0  0  0  0  0  0  0  0  0
  -24.1457  -13.1738   20.9513 C   0  0  0  0  0  0  0  0  0  0  0  0
  -22.6466  -35.2844   18.4768 C   0  0  0  0  0  0  0  0  0  0  0  0
  -25.0885  -28.5470   20.0660 C   0  0  0  0  0  0  0  0  0  0  0  0
  -23.4869  -34.1644   18.3286 C   0  0  0  0  0  0  0  0  0  0  0  0
  -26.1905  -28.5291   20.9329 C   0  0  0  0  0  0  0  0  0  0  0  0
  -27.2884  -21.3710   22.2354 C   0  0  0  0  0  0  0  0  0  0  0  0
  -24.1903   -8.2036   22.4909 C   0  0  0  0  0  0  0  0  0  0  0  0
  -27.3228  -26.9787   19.4415 C   0  0  0  0  0  0  0  0  0  0  0  0
  -22.7918   -6.3163   22.4241 C   0  0  0  0  0  0  0  0  0  0  0  0
  -20.5350   -5.0431   21.3904 C   0  0  0  0  0  0  0  0  0  0  0  0
  -21.5296   -6.8838   22.5985 C   0  0  0  0  0  0  0  0  0  0  0  0
  -27.3304  -19.9944   22.0352 C   0  0  0  0  0  0  0  0  0  0  0  0
  -25.0522  -12.1084   21.1098 C   0  0  0  0  0  0  0  0  0  0  0  0
  -24.9137  -14.2112   20.4820 C   0  0  0  0  0  0  0  0  0  0  0  0
  -29.4551  -21.5541   21.2386 C   0  0  0  0  0  0  0  0  0  0  0  0
  -28.4517  -19.4403   21.4341 C   0  0  0  0  0  0  0  0  0  0  0  0
  -22.7355  -13.2214   21.2057 C   0  0  0  0  0  0  0  0  0  0  0  0
  -24.8643  -31.6596   20.6699 C   0  0  0  0  0  0  0  0  0  0  0  0
  -29.8193  -24.3916   19.8729 C   0  0  0  0  0  0  0  0  0  0  0  0
  -24.7176  -30.6549   23.7507 C   0  0  0  0  0  0  0  0  0  0  0  0
  -25.4378  -28.2343   26.0460 C   0  0  0  0  0  0  0  0  0  0  0  0
  -29.5374  -17.3094   20.6426 C   0  0  0  0  0  0  0  0  0  0  0  0
  -22.7418  -36.1944   19.6757 C   0  0  0  0  0  0  0  0  0  0  0  0
  -23.8680  -29.3593   20.4021 C   0  0  0  0  0  0  0  0  0  0  0  0
  -26.2128  -29.3369   22.2038 C   0  0  0  0  0  0  0  0  0  0  0  0
  -23.4743  -35.5678   20.8594 C   0  0  0  0  0  0  0  0  0  0  0  0
  -29.6827  -14.2744   18.7865 C   0  0  0  0  0  0  0  0  0  0  0  0
  -24.7647  -34.8995   20.3956 C   0  0  0  0  0  0  0  0  0  0  0  0
  -28.4164  -13.5280   19.2125 C   0  0  0  0  0  0  0  0  0  0  0  0
  -30.3022  -15.0493   19.9483 C   0  0  0  0  0  0  0  0  0  0  0  0
  -28.1176  -15.2089   21.0759 C   0  0  0  0  0  0  0  0  0  0  0  0
  -24.4737  -33.7661   19.4045 C   0  0  1  0  0  0  0  0  0  0  0  0
  -24.1636  -30.5176   21.3499 C   0  0  1  0  0  0  0  0  0  0  0  0
  -27.4216  -14.4661   19.9237 C   0  0  2  0  0  0  0  0  0  0  0  0
  -32.1075  -24.1451   20.8583 C   0  0  0  0  0  0  0  0  0  0  0  0
  -25.2282  -27.7141   28.4920 C   0  0  0  0  0  0  0  0  0  0  0  0
  -27.0220  -32.5625   24.3513 C   0  0  0  0  0  0  0  0  0  0  0  0
  -27.3866  -31.3339   26.5020 C   0  0  0  0  0  0  0  0  0  0  0  0
  -25.2273  -32.5138   26.0923 C   0  0  0  0  0  0  0  0  0  0  0  0
  -23.7668  -25.8501   25.5145 C   0  0  0  0  0  0  0  0  0  0  0  0
  -29.1785  -25.7194   20.2330 C   0  0  0  0  0  0  0  0  0  1  0  0
  -30.6505  -23.7266   20.9611 C   0  0  2  0  0  0  0  0  0  0  0  0
  -25.7315  -30.3792   24.8347 C   0  0  1  0  0  0  0  0  0  0  0  0
  -24.5875  -27.5791   27.1195 C   0  0  2  0  0  0  0  0  0  0  0  0
  -26.3425  -31.6835   25.4202 C   0  0  0  0  0  0  0  0  0  0  0  0
  -26.3006  -12.4386   20.7687 N   0  0  0  0  0  0  0  0  0  0  0  0
  -26.1841  -13.7231   20.3911 N   0  0  0  0  0  0  0  0  0  0  0  0
  -29.4695  -20.2265   21.0577 N   0  3  0  0  0  0  0  0  0  0  0  0
  -24.9982  -30.1199   22.4854 N   0  0  0  0  0  0  0  0  0  0  0  0
  -29.3026  -15.9200   20.5708 N   0  0  0  0  0  0  0  0  0  0  0  0
  -26.1629  -21.9643   22.8435 N   0  0  0  0  0  0  0  0  0  0  0  0
  -24.6197  -15.4842   20.1422 N   0  0  0  0  0  0  0  0  0  0  0  0
  -22.1038  -12.0660   21.6858 N   0  0  0  0  0  0  0  0  0  0  0  0
  -28.5026  -18.0397   21.2261 N   0  0  0  0  0  0  0  0  0  0  0  0
  -30.5501  -22.2905   20.8206 N   0  0  0  0  0  0  0  0  0  0  0  0
  -24.0102  -32.5881   20.1059 N   0  0  0  0  0  0  0  0  0  0  0  0
  -25.0577  -29.5403   25.8199 N   0  0  0  0  0  0  0  0  0  0  0  0
  -24.4083  -26.1292   26.8250 N   0  3  0  0  0  0  0  0  0  0  0  0
  -22.0527  -14.2528   20.9973 O   0  0  0  0  0  0  0  0  0  0  0  0
  -26.0891  -31.6966   20.6590 O   0  0  0  0  0  0  0  0  0  0  0  0
  -29.6780  -23.8915   18.7566 O   0  0  0  0  0  0  0  0  0  0  0  0
  -23.7102  -31.3144   24.0185 O   0  0  0  0  0  0  0  0  0  0  0  0
  -26.3504  -27.6475   25.4687 O   0  0  0  0  0  0  0  0  0  0  0  0
  -30.5679  -17.8174   20.1932 O   0  0  0  0  0  0  0  0  0  0  0  0
  -23.9131   -6.9475   22.9358 O   0  0  0  0  0  0  0  0  0  0  0  0
  -28.4122  -26.2214   19.1389 O   0  0  0  0  0  0  0  0  0  1  0  0
  -19.4517   -4.4324   20.8927 F   0  0  0  0  0  0  0  0  0  0  0  0
  -21.3949   -8.0410   23.2608 F   0  0  0  0  0  0  0  0  0  0  0  0
  -26.3045  -19.2196   22.4162 F   0  0  0  0  0  0  0  0  0  0  0  0
  1  2  1  0  0  0  0
  1  5  2  0  0  0  0
  2  6  2  0  0  0  0
  3  8  2  0  0  0  0
  3 16  1  0  0  0  0
  4  9  1  0  0  0  0
  4 16  2  0  0  0  0
  5 18  1  0  0  0  0
  6 20  1  0  0  0  0
  7 10  2  0  0  0  0
  7 19  1  0  0  0  0
  8 23  1  0  0  0  0
  9 23  2  0  0  0  0
 10 24  1  0  0  0  0
 11 12  2  0  0  0  0
 11 25  1  0  0  0  0
 12 26  1  0  0  0  0
 13 21  1  0  0  0  0
 13 24  2  0  0  0  0
 14 22  2  0  0  0  0
 14 31  1  0  0  0  0
 15 26  2  0  0  0  0
 15 27  1  0  0  0  0
 16 29  1  0  0  0  0
 17 29  1  0  0  0  0
 17 30  2  0  0  0  0
 17 33  1  0  0  0  0
 18 20  2  0  0  0  0
 18 39  1  0  0  0  0
 19 21  2  0  0  0  0
 19 40  1  0  0  0  0
 20 48  1  0  0  0  0
 21 41  1  0  0  0  0
 22 28  1  0  0  0  0
 22 67  1  0  0  0  0
 23 81  1  0  0  0  0
 24 82  1  0  0  0  0
 25 27  2  0  0  0  0
 25 81  1  0  0  0  0
 26 83  1  0  0  0  0
 27 84  1  0  0  0  0
 28 32  2  0  0  0  0
 28 85  1  0  0  0  0
 29 62  2  0  0  0  0
 30 63  1  0  0  0  0
 30 68  1  0  0  0  0
 31 64  2  0  0  0  0
 31 71  1  0  0  0  0
 32 64  1  0  0  0  0
 32 70  1  0  0  0  0
 33 69  1  0  0  0  0
 33 75  2  0  0  0  0
 34 49  1  0  0  0  0
 34 72  1  0  0  0  0
 34 76  2  0  0  0  0
 35 57  1  0  0  0  0
 35 58  1  0  0  0  0
 35 77  2  0  0  0  0
 36 59  1  0  0  0  0
 36 65  1  0  0  0  0
 36 78  2  0  0  0  0
 37 60  1  0  0  0  0
 37 73  1  0  0  0  0
 37 79  2  0  0  0  0
 38 66  1  0  0  0  0
 38 70  1  0  0  0  0
 38 80  2  0  0  0  0
 39 42  1  0  0  0  0
 40 49  1  0  0  0  0
 41 65  1  0  0  0  0
 42 44  1  0  0  0  0
 43 45  1  0  0  0  0
 43 46  1  0  0  0  0
 44 48  1  0  0  0  0
 45 50  1  0  0  0  0
 46 66  1  0  0  0  0
 47 50  1  0  0  0  0
 47 66  1  0  0  0  0
 48 72  1  0  0  0  0
 49 65  1  0  0  0  0
 50 63  1  0  0  0  0
 51 58  1  0  0  0  0
 52 60  1  0  0  0  0
 53 61  1  0  0  0  0
 54 61  1  0  0  0  0
 55 61  1  0  0  0  0
 56 74  1  0  0  0  0
 57 82  1  0  0  0  0
 58 71  1  0  0  0  0
 59 61  1  0  0  0  0
 59 73  1  0  0  0  0
 60 74  1  0  0  0  0
 62 63  1  0  0  0  0
M  CHG  2  64   1  74   1
M  ISO  4  38 100  57 101  70 100  82 101
M  END
> <Batch ID>
0182

> <Smiles>
CNC(C)C(=O)NC(C(=O)N1Cc2cc([101O:1][101CH2:1]C(=O)C(C)Nc3cc(N)c(F)c([100NH:0][100C:0](=O)N4CCCC(n5nc(-c6ccc(Oc7ccc(F)cc7F)cc6)c(C(N)=O)c5N)C4)n3)ccc2CC1C(=O)NC1CCCc2ccccc21)C(C)(C)C

> <Shape>
0.309

> <Color>
0.144

> <Negative vol penalty>
0.000

$$$$

  -OEChem-04052304563D

 82 90  0     1  0  0  0  0  0999 V2000
  -17.3775  -27.1034   23.2327 C   0  0  0  0  0  0  0  0  0  0  0  0
  -18.5463  -26.3550   23.1369 C   0  0  0  0  0  0  0  0  0  0  0  0
  -25.3742  -14.2703   21.8665 C   0  0  0  0  0  0  0  0  0  0  0  0
  -25.9066  -14.5560   19.5273 C   0  0  0  0  0  0  0  0  0  0  0  0
  -17.3345  -28.3964   22.7128 C   0  0  0  0  0  0  0  0  0  0  0  0
  -19.6725  -26.8987   22.5200 C   0  0  0  0  0  0  0  0  0  0  0  0
  -26.8271  -26.7827   22.8596 C   0  0  0  0  0  0  0  0  0  0  0  0
  -25.3013  -12.8898   21.6813 C   0  0  0  0  0  0  0  0  0  0  0  0
  -25.8337  -13.1754   19.3421 C   0  0  0  0  0  0  0  0  0  0  0  0
  -27.9407  -26.5772   22.0464 C   0  0  0  0  0  0  0  0  0  0  0  0
  -24.6212   -9.3181   21.7463 C   0  0  0  0  0  0  0  0  0  0  0  0
  -23.5455   -8.6411   22.3209 C   0  0  0  0  0  0  0  0  0  0  0  0
  -27.7746  -28.8500   21.2550 C   0  0  0  0  0  0  0  0  0  0  0  0
  -22.0096   -9.9768   21.0193 C   0  0  0  0  0  0  0  0  0  0  0  0
  -25.6769  -15.1035   20.7894 C   0  0  0  0  0  0  0  0  0  0  0  0
  -26.8890  -17.2819   21.3304 C   0  0  0  0  0  0  0  0  0  0  0  0
  -18.4637  -28.9598   22.0979 C   0  0  0  0  0  0  0  0  0  0  0  0
  -26.1711  -28.0221   22.8684 C   0  0  0  0  0  0  0  0  0  0  0  0
  -19.6441  -28.2000   21.9903 C   0  0  0  0  0  0  0  0  0  0  0  0
  -26.6544  -29.0694   22.0711 C   0  0  0  0  0  0  0  0  0  0  0  0
  -25.5310  -12.3423   20.4191 C   0  0  0  0  0  0  0  0  0  0  0  0
  -28.4129  -27.6100   21.2418 C   0  0  0  0  0  0  0  0  0  0  0  0
  -24.3911  -10.3245   20.8083 C   0  0  0  0  0  0  0  0  0  0  0  0
  -22.2398   -8.9704   21.9574 C   0  0  0  0  0  0  0  0  0  0  0  0
  -23.0853  -10.6538   20.4448 C   0  0  0  0  0  0  0  0  0  0  0  0
  -25.7518  -16.5297   20.9800 C   0  0  0  0  0  0  0  0  0  0  0  0
  -27.1159  -25.9397   18.1910 C   0  0  0  0  0  0  0  0  0  0  0  0
  -25.8265  -26.4101   18.3262 C   0  0  0  0  0  0  0  0  0  0  0  0
  -26.4393  -18.5786   21.3856 C   0  0  0  0  0  0  0  0  0  0  0  0
  -25.4464  -24.2870   18.7235 C   0  0  0  0  0  0  0  0  0  0  0  0
  -28.2317  -16.8475   21.5834 C   0  0  0  0  0  0  0  0  0  0  0  0
  -28.3825  -26.6622   17.8700 C   0  0  0  0  0  0  0  0  0  0  0  0
  -23.2452  -29.0168   22.1247 C   0  0  0  0  0  0  0  0  0  0  0  0
  -24.3236  -31.8362   23.3123 C   0  0  0  0  0  0  0  0  0  0  0  0
  -26.9837  -33.8512   24.0264 C   0  0  0  0  0  0  0  0  0  0  0  0
  -23.4873  -22.8040   19.2796 C   0  0  0  0  0  0  0  0  0  0  0  0
  -18.3547  -30.3439   21.5087 C   0  0  0  0  0  0  0  0  0  0  0  0
  -24.9872  -28.2359   23.7713 C   0  0  0  0  0  0  0  0  0  0  0  0
  -25.9982  -30.4250   22.0595 C   0  0  0  0  0  0  0  0  0  0  0  0
  -19.7064  -30.9843   21.2039 C   0  0  0  0  0  0  0  0  0  0  0  0
  -21.7334  -20.4402   21.2830 C   0  0  0  0  0  0  0  0  0  0  0  0
  -20.6146  -29.9953   20.4801 C   0  0  0  0  0  0  0  0  0  0  0  0
  -22.7160  -19.2740   21.4116 C   0  0  0  0  0  0  0  0  0  0  0  0
  -21.8004  -21.0885   19.9014 C   0  0  0  0  0  0  0  0  0  0  0  0
  -24.1261  -20.3334   19.6015 C   0  0  0  0  0  0  0  0  0  0  0  0
  -20.8941  -28.7641   21.3504 C   0  0  1  0  0  0  0  0  0  0  0  0
  -24.0869  -29.3799   23.3152 C   0  0  1  0  0  0  0  0  0  0  0  0
  -24.1413  -19.6897   20.9976 C   0  0  2  0  0  0  0  0  0  0  0  0
  -25.3923  -27.8142   18.1756 C   0  0  0  0  0  0  0  0  0  0  0  0
  -27.5483  -36.1123   24.9572 C   0  0  0  0  0  0  0  0  0  0  0  0
  -31.0579  -25.5923   20.4788 C   0  0  0  0  0  0  0  0  0  0  0  0
  -23.4535  -33.1303   20.6897 C   0  0  0  0  0  0  0  0  0  0  0  0
  -24.8681  -35.1104   21.2783 C   0  0  0  0  0  0  0  0  0  0  0  0
  -22.9458  -34.4758   22.7358 C   0  0  0  0  0  0  0  0  0  0  0  0
  -28.5351  -32.6746   26.2553 C   0  0  0  0  0  0  0  0  0  0  0  0
  -29.6941  -26.1219   18.4283 C   0  0  0  0  0  0  0  0  0  0  0  0
  -25.0271  -33.0405   22.7347 C   0  0  1  0  0  0  0  0  0  0  0  0
  -27.3449  -34.6386   25.2730 C   0  0  2  0  0  0  0  0  0  0  0  0
  -29.7147  -26.0883   19.9590 C   0  0  2  0  0  0  0  0  0  1  0  0
  -24.0850  -33.9132   21.8582 C   0  0  0  0  0  0  0  0  0  0  0  0
  -24.6617  -17.2855   20.8237 N   0  0  0  0  0  0  0  0  0  0  0  0
  -24.8677  -25.4637   18.6311 N   0  0  0  0  0  0  0  0  0  0  0  0
  -25.1118  -18.5262   21.0772 N   0  0  0  0  0  0  0  0  0  0  0  0
  -24.8401  -30.5827   22.9547 N   0  0  0  0  0  0  0  0  0  0  0  0
  -23.1799  -21.4598   19.5789 N   0  0  0  0  0  0  0  0  0  0  0  0
  -27.0539  -19.7470   21.6674 N   0  0  0  0  0  0  0  0  0  0  0  0
  -28.5215  -15.4799   21.4831 N   0  0  0  0  0  0  0  0  0  0  0  0
  -24.8366  -23.0430   19.0210 N   0  0  0  0  0  0  0  0  0  0  0  0
  -21.8846  -29.0728   22.3594 N   0  0  0  0  0  0  0  0  0  0  0  0
  -25.6182  -33.7489   23.8647 N   0  0  0  0  0  0  0  0  0  0  0  0
  -28.6014  -34.1090   25.8743 N   0  3  0  0  0  0  0  0  0  0  0  0
  -29.1437  -17.6463   21.9054 O   0  0  0  0  0  0  0  0  0  0  0  0
  -28.3350  -27.6697   17.1681 O   0  0  0  0  0  0  0  0  0  0  0  0
  -23.7898  -28.7101   21.0706 O   0  0  0  0  0  0  0  0  0  0  0  0
  -23.3559  -32.0017   24.0592 O   0  0  0  0  0  0  0  0  0  0  0  0
  -27.8284  -33.3777   23.2696 O   0  0  0  0  0  0  0  0  0  0  0  0
  -22.6222  -23.6834   19.2813 O   0  0  0  0  0  0  0  0  0  0  0  0
  -25.4601  -10.9951   20.2381 O   0  0  0  0  0  0  0  0  0  0  0  0
  -29.4994  -27.4120   20.4466 O   0  0  0  0  0  0  0  0  0  1  0  0
  -21.2069   -8.3191   22.5082 F   0  0  0  0  0  0  0  0  0  0  0  0
  -22.8581  -11.6189   19.5433 F   0  0  0  0  0  0  0  0  0  0  0  0
  -27.1410  -24.2455   18.4563 S   0  0  0  0  0  0  0  0  0  0  0  0
  1  2  1  0  0  0  0
  1  5  2  0  0  0  0
  2  6  2  0  0  0  0
  3  8  2  0  0  0  0
  3 15  1  0  0  0  0
  4  9  1  0  0  0  0
  4 15  2  0  0  0  0
  5 17  1  0  0  0  0
  6 19  1  0  0  0  0
  7 10  2  0  0  0  0
  7 18  1  0  0  0  0
  8 21  1  0  0  0  0
  9 21  2  0  0  0  0
 10 22  1  0  0  0  0
 11 12  2  0  0  0  0
 11 23  1  0  0  0  0
 12 24  1  0  0  0  0
 13 20  1  0  0  0  0
 13 22  2  0  0  0  0
 14 24  2  0  0  0  0
 14 25  1  0  0  0  0
 15 26  1  0  0  0  0
 16 26  1  0  0  0  0
 16 29  2  0  0  0  0
 16 31  1  0  0  0  0
 17 19  2  0  0  0  0
 17 37  1  0  0  0  0
 18 20  2  0  0  0  0
 18 38  1  0  0  0  0
 19 46  1  0  0  0  0
 20 39  1  0  0  0  0
 21 78  1  0  0  0  0
 22 79  1  0  0  0  0
 23 25  2  0  0  0  0
 23 78  1  0  0  0  0
 24 80  1  0  0  0  0
 25 81  1  0  0  0  0
 26 61  2  0  0  0  0
 27 28  2  0  0  0  0
 27 32  1  0  0  0  0
 27 82  1  0  0  0  0
 28 49  1  0  0  0  0
 28 62  1  0  0  0  0
 29 63  1  0  0  0  0
 29 66  1  0  0  0  0
 30 62  2  0  0  0  0
 30 68  1  0  0  0  0
 30 82  1  0  0  0  0
 31 67  1  0  0  0  0
 31 72  2  0  0  0  0
 32 56  1  0  0  0  0
 32 73  2  0  0  0  0
 33 47  1  0  0  0  0
 33 69  1  0  0  0  0
 33 74  2  0  0  0  0
 34 57  1  0  0  0  0
 34 64  1  0  0  0  0
 34 75  2  0  0  0  0
 35 58  1  0  0  0  0
 35 70  1  0  0  0  0
 35 76  2  0  0  0  0
 36 65  1  0  0  0  0
 36 68  1  0  0  0  0
 36 77  2  0  0  0  0
 37 40  1  0  0  0  0
 38 47  1  0  0  0  0
 39 64  1  0  0  0  0
 40 42  1  0  0  0  0
 41 43  1  0  0  0  0
 41 44  1  0  0  0  0
 42 46  1  0  0  0  0
 43 48  1  0  0  0  0
 44 65  1  0  0  0  0
 45 48  1  0  0  0  0
 45 65  1  0  0  0  0
 46 69  1  0  0  0  0
 47 64  1  0  0  0  0
 48 63  1  0  0  0  0
 50 58  1  0  0  0  0
 51 59  1  0  0  0  0
 52 60  1  0  0  0  0
 53 60  1  0  0  0  0
 54 60  1  0  0  0  0
 55 71  1  0  0  0  0
 56 59  1  0  0  0  0
 57 60  1  0  0  0  0
 57 70  1  0  0  0  0
 58 71  1  0  0  0  0
 59 79  1  0  0  0  0
 61 63  1  0  0  0  0
M  CHG  1  71   1
M  ISO  4  36 100  59 101  68 100  79 101
M  END
> <Batch ID>
0182

> <Smiles>
CNC(C)C(=O)NC(C(=O)N1Cc2cc([101O:1][101CH:1](C)CC(=O)c3sc([100NH:0][100C:0](=O)N4CCCC(n5nc(-c6ccc(Oc7ccc(F)cc7F)cc6)c(C(N)=O)c5N)C4)nc3C)ccc2CC1C(=O)NC1CCCc2ccccc21)C(C)(C)C

> <Shape>
0.260

> <Color>
0.092

> <Negative vol penalty>
0.000

$$$$

  -OEChem-04052304563D

 86 94  0     1  0  0  0  0  0999 V2000
  -23.8682   -8.2929   22.9128 C   0  0  0  0  0  0  0  0  0  0  0  0
  -24.6572   -9.3909   22.5852 C   0  0  0  0  0  0  0  0  0  0  0  0
  -24.0950  -30.3651   21.2114 C   0  0  0  0  0  0  0  0  0  0  0  0
  -25.4946  -29.8438   23.1104 C   0  0  0  0  0  0  0  0  0  0  0  0
  -22.5107   -8.2917   22.5951 C   0  0  0  0  0  0  0  0  0  0  0  0
  -24.0891  -10.4880   21.9385 C   0  0  0  0  0  0  0  0  0  0  0  0
  -25.5668  -14.9002   23.9369 C   0  0  0  0  0  0  0  0  0  0  0  0
  -23.4803  -31.3810   21.9433 C   0  0  0  0  0  0  0  0  0  0  0  0
  -24.8799  -30.8597   23.8424 C   0  0  0  0  0  0  0  0  0  0  0  0
  -26.8359  -15.3626   23.5911 C   0  0  0  0  0  0  0  0  0  0  0  0
  -23.9292  -33.5527   26.0923 C   0  0  0  0  0  0  0  0  0  0  0  0
  -24.7473  -34.4042   26.8347 C   0  0  0  0  0  0  0  0  0  0  0  0
  -25.8457  -16.8508   21.9712 C   0  0  0  0  0  0  0  0  0  0  0  0
  -25.8803  -35.0804   24.8108 C   0  0  0  0  0  0  0  0  0  0  0  0
  -25.1021  -29.5965   21.7950 C   0  0  0  0  0  0  0  0  0  0  0  0
  -26.8813  -28.6567   20.2268 C   0  0  0  0  0  0  0  0  0  0  0  0
  -21.9237   -9.3934   21.9529 C   0  0  0  0  0  0  0  0  0  0  0  0
  -24.4265  -15.4026   23.2937 C   0  0  0  0  0  0  0  0  0  0  0  0
  -22.7227  -10.5010   21.6107 C   0  0  0  0  0  0  0  0  0  0  0  0
  -24.5631  -16.3950   22.3125 C   0  0  0  0  0  0  0  0  0  0  0  0
  -23.8727  -31.6283   23.2588 C   0  0  0  0  0  0  0  0  0  0  0  0
  -26.9756  -16.3359   22.6062 C   0  0  0  0  0  0  0  0  0  0  0  0
  -24.0868  -33.4649   24.7091 C   0  0  0  0  0  0  0  0  0  0  0  0
  -25.7228  -35.1681   26.1940 C   0  0  0  0  0  0  0  0  0  0  0  0
  -25.0623  -34.2288   24.0684 C   0  0  0  0  0  0  0  0  0  0  0  0
  -25.7371  -28.5466   21.0396 C   0  0  0  0  0  0  0  0  0  0  0  0
  -31.0445  -22.1746   19.9422 C   0  0  0  0  0  0  0  0  0  0  0  0
  -29.7829  -21.6222   20.0168 C   0  0  0  0  0  0  0  0  0  0  0  0
  -27.0768  -27.3890   19.7357 C   0  0  0  0  0  0  0  0  0  0  0  0
  -30.8998  -19.8192   19.4586 C   0  0  0  0  0  0  0  0  0  0  0  0
  -27.6946  -29.8024   19.9413 C   0  0  0  0  0  0  0  0  0  0  0  0
  -22.1378  -14.1470   21.4802 C   0  0  0  0  0  0  0  0  0  0  0  0
  -29.8337  -17.0141   20.4803 C   0  0  0  0  0  0  0  0  0  0  0  0
  -20.8526  -17.1151   21.7277 C   0  0  0  0  0  0  0  0  0  0  0  0
  -21.3411  -20.4466   22.2842 C   0  0  0  0  0  0  0  0  0  0  0  0
  -27.3136  -21.8719   20.4485 C   0  0  0  0  0  0  0  0  0  0  0  0
  -20.4620   -9.3265   21.5873 C   0  0  0  0  0  0  0  0  0  0  0  0
  -23.0628  -14.9127   23.6969 C   0  0  0  0  0  0  0  0  0  0  0  0
  -23.3691  -16.9815   21.6062 C   0  0  0  0  0  0  0  0  0  0  0  0
  -19.8588  -10.6845   21.2377 C   0  0  0  0  0  0  0  0  0  0  0  0
  -24.0989  -23.2990   19.8951 C   0  0  0  0  0  0  0  0  0  0  0  0
  -20.7747  -11.4460   20.2848 C   0  0  0  0  0  0  0  0  0  0  0  0
  -24.3327  -24.8005   20.0766 C   0  0  0  0  0  0  0  0  0  0  0  0
  -24.9390  -22.4726   20.8672 C   0  0  0  0  0  0  0  0  0  0  0  0
  -26.6101  -24.2747   21.0379 C   0  0  0  0  0  0  0  0  0  0  0  0
  -22.1380  -11.7202   20.9312 C   0  0  1  0  0  0  0  0  0  0  0  0
  -22.0082  -15.1234   22.6149 C   0  0  1  0  0  0  0  0  0  0  0  0
  -25.8342  -25.1459   20.0366 C   0  0  2  0  0  0  0  0  0  0  0  0
  -30.7111  -16.2993   18.2471 C   0  0  0  0  0  0  0  0  0  0  0  0
  -20.1062  -22.6289   22.3842 C   0  0  0  0  0  0  0  0  0  0  0  0
  -20.7095  -17.1710   18.6803 C   0  0  0  0  0  0  0  0  0  0  0  0
  -20.3854  -19.6502   18.8105 C   0  0  0  0  0  0  0  0  0  0  0  0
  -18.7046  -18.1188   19.8364 C   0  0  0  0  0  0  0  0  0  0  0  0
  -22.0828  -20.8693   25.1179 C   0  0  0  0  0  0  0  0  0  0  0  0
  -28.3973  -17.2279   20.9212 C   0  0  0  0  0  0  0  0  0  1  0  0
  -30.1794  -17.4627   19.0672 C   0  0  2  0  0  0  0  0  0  0  0  0
  -20.9630  -18.3971   20.9383 C   0  0  1  0  0  0  0  0  0  0  0  0
  -20.6149  -21.4356   23.1780 C   0  0  2  0  0  0  0  0  0  0  0  0
  -31.4950  -23.5630   20.1708 C   0  0  0  0  0  0  0  0  0  0  0  0
  -20.2135  -18.3220   19.5781 C   0  0  0  0  0  0  0  0  0  0  0  0
  -25.2406  -27.3069   21.0658 N   0  0  0  0  0  0  0  0  0  0  0  0
  -29.6980  -20.2718   19.7395 N   0  0  0  0  0  0  0  0  0  0  0  0
  -26.0767  -26.6264   20.2633 N   0  0  0  0  0  0  0  0  0  0  0  0
  -22.0574  -16.4654   22.0312 N   0  0  0  0  0  0  0  0  0  0  0  0
  -26.3504  -22.8513   20.7705 N   0  0  0  0  0  0  0  0  0  0  0  0
  -28.0050  -26.8634   18.9082 N   0  0  0  0  0  0  0  0  0  0  0  0
  -27.3524  -31.0279   20.5290 N   0  0  0  0  0  0  0  0  0  0  0  0
  -28.6180  -22.3556   20.3526 N   0  0  0  0  0  0  0  0  0  0  0  0
  -31.1817  -18.5034   19.1342 N   0  0  0  0  0  0  0  0  0  0  0  0
  -22.0426  -12.8229   21.8636 N   0  0  0  0  0  0  0  0  0  0  0  0
  -20.4955  -19.4611   21.8202 N   0  0  0  0  0  0  0  0  0  0  0  0
  -21.5268  -21.9355   24.2454 N   0  3  0  0  0  0  0  0  0  0  0  0
  -28.6855  -29.7448   19.1743 O   0  0  0  0  0  0  0  0  0  0  0  0
  -22.3098  -14.5642   20.3409 O   0  0  0  0  0  0  0  0  0  0  0  0
  -30.6649  -16.4965   21.2268 O   0  0  0  0  0  0  0  0  0  0  0  0
  -19.7389  -16.7089   22.0688 O   0  0  0  0  0  0  0  0  0  0  0  0
  -22.5378  -20.5410   22.0206 O   0  0  0  0  0  0  0  0  0  0  0  0
  -27.0005  -20.6962   20.2443 O   0  0  0  0  0  0  0  0  0  0  0  0
  -23.2733  -32.6196   23.9732 O   0  0  0  0  0  0  0  0  0  0  0  0
  -28.2132  -16.7885   22.2663 O   0  0  0  0  0  0  0  0  0  1  0  0
  -26.5073  -35.9869   26.9070 F   0  0  0  0  0  0  0  0  0  0  0  0
  -25.2176  -34.1496   22.7397 F   0  0  0  0  0  0  0  0  0  0  0  0
  -30.4888  -24.4310   20.5108 F   0  0  0  0  0  0  0  0  0  0  0  0
  -32.4167  -23.6947   21.1778 F   0  0  0  0  0  0  0  0  0  0  0  0
  -32.0897  -24.1247   19.0714 F   0  0  0  0  0  0  0  0  0  0  0  0
  -32.1784  -20.9628   19.5098 S   0  0  0  0  0  0  0  0  0  0  0  0
  1  2  1  0  0  0  0
  1  5  2  0  0  0  0
  2  6  2  0  0  0  0
  3  8  2  0  0  0  0
  3 15  1  0  0  0  0
  4  9  1  0  0  0  0
  4 15  2  0  0  0  0
  5 17  1  0  0  0  0
  6 19  1  0  0  0  0
  7 10  2  0  0  0  0
  7 18  1  0  0  0  0
  8 21  1  0  0  0  0
  9 21  2  0  0  0  0
 10 22  1  0  0  0  0
 11 12  2  0  0  0  0
 11 23  1  0  0  0  0
 12 24  1  0  0  0  0
 13 20  1  0  0  0  0
 13 22  2  0  0  0  0
 14 24  2  0  0  0  0
 14 25  1  0  0  0  0
 15 26  1  0  0  0  0
 16 26  1  0  0  0  0
 16 29  2  0  0  0  0
 16 31  1  0  0  0  0
 17 19  2  0  0  0  0
 17 37  1  0  0  0  0
 18 20  2  0  0  0  0
 18 38  1  0  0  0  0
 19 46  1  0  0  0  0
 20 39  1  0  0  0  0
 21 79  1  0  0  0  0
 22 80  1  0  0  0  0
 23 25  2  0  0  0  0
 23 79  1  0  0  0  0
 24 81  1  0  0  0  0
 25 82  1  0  0  0  0
 26 61  2  0  0  0  0
 27 28  2  0  0  0  0
 27 59  1  0  0  0  0
 27 86  1  0  0  0  0
 28 62  1  0  0  0  0
 28 68  1  0  0  0  0
 29 63  1  0  0  0  0
 29 66  1  0  0  0  0
 30 62  2  0  0  0  0
 30 69  1  0  0  0  0
 30 86  1  0  0  0  0
 31 67  1  0  0  0  0
 31 73  2  0  0  0  0
 32 47  1  0  0  0  0
 32 70  1  0  0  0  0
 32 74  2  0  0  0  0
 33 55  1  0  0  0  0
 33 56  1  0  0  0  0
 33 75  2  0  0  0  0
 34 57  1  0  0  0  0
 34 64  1  0  0  0  0
 34 76  2  0  0  0  0
 35 58  1  0  0  0  0
 35 71  1  0  0  0  0
 35 77  2  0  0  0  0
 36 65  1  0  0  0  0
 36 68  1  0  0  0  0
 36 78  2  0  0  0  0
 37 40  1  0  0  0  0
 38 47  1  0  0  0  0
 39 64  1  0  0  0  0
 40 42  1  0  0  0  0
 41 43  1  0  0  0  0
 41 44  1  0  0  0  0
 42 46  1  0  0  0  0
 43 48  1  0  0  0  0
 44 65  1  0  0  0  0
 45 48  1  0  0  0  0
 45 65  1  0  0  0  0
 46 70  1  0  0  0  0
 47 64  1  0  0  0  0
 48 63  1  0  0  0  0
 49 56  1  0  0  0  0
 50 58  1  0  0  0  0
 51 60  1  0  0  0  0
 52 60  1  0  0  0  0
 53 60  1  0  0  0  0
 54 72  1  0  0  0  0
 55 80  1  0  0  0  0
 56 69  1  0  0  0  0
 57 60  1  0  0  0  0
 57 71  1  0  0  0  0
 58 72  1  0  0  0  0
 59 83  1  0  0  0  0
 59 84  1  0  0  0  0
 59 85  1  0  0  0  0
 61 63  1  0  0  0  0
M  CHG  1  72   1
M  ISO  4  36 100  55 101  68 100  80 101
M  END
> <Batch ID>
0182

> <Smiles>
CNC(C)C(=O)NC(C(=O)N1Cc2cc([101O:1][101CH2:1]C(=O)C(C)Nc3nc([100NH:0][100C:0](=O)N4CCCC(n5nc(-c6ccc(Oc7ccc(F)cc7F)cc6)c(C(N)=O)c5N)C4)c(C(F)(F)F)s3)ccc2CC1C(=O)NC1CCCc2ccccc21)C(C)(C)C

> <Shape>
0.201

> <Color>
0.091

> <Negative vol penalty>
0.000

$$$$

  -OEChem-04052304563D

 86 94  0     1  0  0  0  0  0999 V2000
  -26.6577  -38.0022   23.5754 C   0  0  0  0  0  0  0  0  0  0  0  0
  -27.0094  -37.2314   22.4719 C   0  0  0  0  0  0  0  0  0  0  0  0
  -24.7546   -8.7075   21.4957 C   0  0  0  0  0  0  0  0  0  0  0  0
  -23.1308  -10.4364   21.0361 C   0  0  0  0  0  0  0  0  0  0  0  0
  -26.4238  -37.3899   24.8060 C   0  0  0  0  0  0  0  0  0  0  0  0
  -27.1284  -35.8479   22.5987 C   0  0  0  0  0  0  0  0  0  0  0  0
  -26.1576  -29.7977   18.8881 C   0  0  0  0  0  0  0  0  0  0  0  0
  -23.8713   -8.1184   22.4004 C   0  0  0  0  0  0  0  0  0  0  0  0
  -22.2475   -9.8473   21.9407 C   0  0  0  0  0  0  0  0  0  0  0  0
  -26.8367  -28.6347   18.5272 C   0  0  0  0  0  0  0  0  0  0  0  0
  -21.1322   -6.1396   22.2782 C   0  0  0  0  0  0  0  0  0  0  0  0
  -20.9719   -4.7553   22.2197 C   0  0  0  0  0  0  0  0  0  0  0  0
  -26.3315  -27.6779   20.6833 C   0  0  0  0  0  0  0  0  0  0  0  0
  -25.6075  -19.8581   19.0137 C   0  0  0  0  0  0  0  0  0  0  0  0
  -21.7421   -4.5697   24.5021 C   0  0  0  0  0  0  0  0  0  0  0  0
  -24.3844   -9.8665   20.8136 C   0  0  0  0  0  0  0  0  0  0  0  0
  -25.4046  -10.2110   18.5010 C   0  0  0  0  0  0  0  0  0  0  0  0
  -26.5306  -35.9971   24.9456 C   0  0  0  0  0  0  0  0  0  0  0  0
  -25.5687  -29.9139   20.1554 C   0  0  0  0  0  0  0  0  0  0  0  0
  -26.8971  -35.2165   23.8326 C   0  0  0  0  0  0  0  0  0  0  0  0
  -25.6433  -28.8424   21.0568 C   0  0  0  0  0  0  0  0  0  0  0  0
  -25.5910  -18.4479   19.2165 C   0  0  0  0  0  0  0  0  0  0  0  0
  -22.6178   -8.6883   22.6229 C   0  0  0  0  0  0  0  0  0  0  0  0
  -26.9262  -27.5758   19.4259 C   0  0  0  0  0  0  0  0  0  0  0  0
  -21.5976   -6.7390   23.4486 C   0  0  0  0  0  0  0  0  0  0  0  0
  -21.2769   -3.9703   23.3317 C   0  0  0  0  0  0  0  0  0  0  0  0
  -21.9025   -5.9541   24.5606 C   0  0  0  0  0  0  0  0  0  0  0  0
  -25.2966  -10.4758   19.8794 C   0  0  0  0  0  0  0  0  0  0  0  0
  -26.4098  -11.0416   18.0695 C   0  0  0  0  0  0  0  0  0  0  0  0
  -26.8683  -20.3892   19.1739 C   0  0  0  0  0  0  0  0  0  0  0  0
  -26.8401  -17.9548   19.5238 C   0  0  0  0  0  0  0  0  0  0  0  0
  -26.8915  -25.2646   19.0683 C   0  0  0  0  0  0  0  0  0  1  0  0
  -24.6625   -9.2962   17.6836 C   0  0  0  0  0  0  0  0  0  0  0  0
  -27.4423  -24.0893   18.7412 C   0  0  0  0  0  0  0  0  0  0  0  0
  -26.5902  -22.8557   18.7620 C   0  0  0  0  0  0  0  0  0  0  0  0
  -25.9805  -31.8372   22.6524 C   0  0  0  0  0  0  0  0  0  0  0  0
  -23.3864  -30.2626   23.7987 C   0  0  0  0  0  0  0  0  0  0  0  0
  -21.4497  -27.4530   23.7551 C   0  0  0  0  0  0  0  0  0  0  0  0
  -28.5776  -16.2251   20.1034 C   0  0  0  0  0  0  0  0  0  0  0  0
  -26.3144  -35.3853   26.3071 C   0  0  0  0  0  0  0  0  0  0  0  0
  -24.8167  -31.1646   20.5194 C   0  0  0  0  0  0  0  0  0  0  0  0
  -25.0108  -28.9092   22.4221 C   0  0  0  0  0  0  0  0  0  0  0  0
  -26.0957  -33.8751   26.2684 C   0  0  0  0  0  0  0  0  0  0  0  0
  -30.3969  -13.2056   19.6037 C   0  0  0  0  0  0  0  0  0  0  0  0
  -27.1313  -33.2085   25.3685 C   0  0  0  0  0  0  0  0  0  0  0  0
  -29.3051  -12.1397   19.4862 C   0  0  0  0  0  0  0  0  0  0  0  0
  -30.0328  -14.2801   20.6268 C   0  0  0  0  0  0  0  0  0  0  0  0
  -27.6292  -13.8431   20.3089 C   0  0  0  0  0  0  0  0  0  0  0  0
  -27.0120  -33.7103   23.9244 C   0  0  1  0  0  0  0  0  0  0  0  0
  -24.6963  -31.3722   22.0260 C   0  0  1  0  0  0  0  0  0  0  0  0
  -27.9217  -12.7744   19.2431 C   0  0  2  0  0  0  0  0  0  0  0  0
  -19.4190  -26.4434   24.8296 C   0  0  0  0  0  0  0  0  0  0  0  0
  -25.0152  -29.6630   26.3082 C   0  0  0  0  0  0  0  0  0  0  0  0
  -23.3326  -27.9047   26.8959 C   0  0  0  0  0  0  0  0  0  0  0  0
  -22.6334  -30.2940   26.7365 C   0  0  0  0  0  0  0  0  0  0  0  0
  -20.0211  -27.2863   21.1686 C   0  0  0  0  0  0  0  0  0  0  0  0
  -23.1702  -29.0159   24.6221 C   0  0  1  0  0  0  0  0  0  0  0  0
  -19.9457  -27.2676   23.6651 C   0  0  2  0  0  0  0  0  0  0  0  0
  -24.3669  -17.6186   19.1071 C   0  0  0  0  0  0  0  0  0  0  0  0
  -23.5516  -29.2186   26.1157 C   0  0  0  0  0  0  0  0  0  0  0  0
  -26.1641  -11.4020   20.2960 N   0  0  0  0  0  0  0  0  0  0  0  0
  -26.8268  -11.7264   19.1728 N   0  0  0  0  0  0  0  0  0  0  0  0
  -24.2920  -30.1557   22.7336 N   0  0  0  0  0  0  0  0  0  0  0  0
  -28.7120  -14.8391   20.3307 N   0  0  0  0  0  0  0  0  0  0  0  0
  -26.9689  -11.2455   16.8578 N   0  0  0  0  0  0  0  0  0  0  0  0
  -23.6648   -8.5188   18.2876 N   0  0  0  0  0  0  0  0  0  0  0  0
  -27.3321  -21.7225   19.0660 N   0  0  0  0  0  0  0  0  0  0  0  0
  -27.2803  -16.6364   19.7990 N   0  0  0  0  0  0  0  0  0  0  0  0
  -25.8943  -33.0755   23.2594 N   0  0  0  0  0  0  0  0  0  0  0  0
  -21.7821  -28.6210   24.4081 N   0  0  0  0  0  0  0  0  0  0  0  0
  -19.5843  -26.5737   22.3967 N   0  3  0  0  0  0  0  0  0  0  0  0
  -24.8888   -9.1599   16.4574 O   0  0  0  0  0  0  0  0  0  0  0  0
  -25.3878  -22.9165   18.5286 O   0  0  0  0  0  0  0  0  0  0  0  0
  -26.9754  -31.1245   22.5909 O   0  0  0  0  0  0  0  0  0  0  0  0
  -22.7691  -31.2913   24.0855 O   0  0  0  0  0  0  0  0  0  0  0  0
  -22.2496  -26.6408   23.2957 O   0  0  0  0  0  0  0  0  0  0  0  0
  -29.5470  -16.9869   20.1469 O   0  0  0  0  0  0  0  0  0  0  0  0
  -28.7692  -23.9658   18.3824 O   0  0  0  0  0  0  0  0  0  0  0  0
  -21.7555   -8.1136   23.5054 O   0  0  0  0  0  0  0  0  0  0  0  0
  -27.5890  -26.4398   19.0765 O   0  0  0  0  0  0  0  0  0  1  0  0
  -21.1214   -2.6410   23.2759 F   0  0  0  0  0  0  0  0  0  0  0  0
  -22.3488   -6.5243   25.6882 F   0  0  0  0  0  0  0  0  0  0  0  0
  -23.2397  -18.3294   18.7910 F   0  0  0  0  0  0  0  0  0  0  0  0
  -24.4416  -16.6413   18.1506 F   0  0  0  0  0  0  0  0  0  0  0  0
  -24.0619  -16.9612   20.2677 F   0  0  0  0  0  0  0  0  0  0  0  0
  -28.0255  -19.1898   19.5671 S   0  0  0  0  0  0  0  0  0  0  0  0
  1  2  1  0  0  0  0
  1  5  2  0  0  0  0
  2  6  2  0  0  0  0
  3  8  2  0  0  0  0
  3 16  1  0  0  0  0
  4  9  1  0  0  0  0
  4 16  2  0  0  0  0
  5 18  1  0  0  0  0
  6 20  1  0  0  0  0
  7 10  2  0  0  0  0
  7 19  1  0  0  0  0
  8 23  1  0  0  0  0
  9 23  2  0  0  0  0
 10 24  1  0  0  0  0
 11 12  2  0  0  0  0
 11 25  1  0  0  0  0
 12 26  1  0  0  0  0
 13 21  1  0  0  0  0
 13 24  2  0  0  0  0
 14 22  1  0  0  0  0
 14 30  2  0  0  0  0
 15 26  2  0  0  0  0
 15 27  1  0  0  0  0
 16 28  1  0  0  0  0
 17 28  1  0  0  0  0
 17 29  2  0  0  0  0
 17 33  1  0  0  0  0
 18 20  2  0  0  0  0
 18 40  1  0  0  0  0
 19 21  2  0  0  0  0
 19 41  1  0  0  0  0
 20 49  1  0  0  0  0
 21 42  1  0  0  0  0
 22 31  2  0  0  0  0
 22 59  1  0  0  0  0
 23 79  1  0  0  0  0
 24 80  1  0  0  0  0
 25 27  2  0  0  0  0
 25 79  1  0  0  0  0
 26 81  1  0  0  0  0
 27 82  1  0  0  0  0
 28 61  2  0  0  0  0
 29 62  1  0  0  0  0
 29 65  1  0  0  0  0
 30 67  1  0  0  0  0
 30 86  1  0  0  0  0
 31 68  1  0  0  0  0
 31 86  1  0  0  0  0
 32 34  2  0  0  0  0
 32 80  1  0  0  0  0
 33 66  1  0  0  0  0
 33 72  2  0  0  0  0
 34 35  1  0  0  0  0
 34 78  1  0  0  0  0
 35 67  1  0  0  0  0
 35 73  2  0  0  0  0
 36 50  1  0  0  0  0
 36 69  1  0  0  0  0
 36 74  2  0  0  0  0
 37 57  1  0  0  0  0
 37 63  1  0  0  0  0
 37 75  2  0  0  0  0
 38 58  1  0  0  0  0
 38 70  1  0  0  0  0
 38 76  2  0  0  0  0
 39 64  1  0  0  0  0
 39 68  1  0  0  0  0
 39 77  2  0  0  0  0
 40 43  1  0  0  0  0
 41 50  1  0  0  0  0
 42 63  1  0  0  0  0
 43 45  1  0  0  0  0
 44 46  1  0  0  0  0
 44 47  1  0  0  0  0
 45 49  1  0  0  0  0
 46 51  1  0  0  0  0
 47 64  1  0  0  0  0
 48 51  1  0  0  0  0
 48 64  1  0  0  0  0
 49 69  1  0  0  0  0
 50 63  1  0  0  0  0
 51 62  1  0  0  0  0
 52 58  1  0  0  0  0
 53 60  1  0  0  0  0
 54 60  1  0  0  0  0
 55 60  1  0  0  0  0
 56 71  1  0  0  0  0
 57 60  1  0  0  0  0
 57 70  1  0  0  0  0
 58 71  1  0  0  0  0
 59 83  1  0  0  0  0
 59 84  1  0  0  0  0
 59 85  1  0  0  0  0
 61 62  1  0  0  0  0
M  CHG  1  71   1
M  ISO  4  32 101  39 100  68 100  80 101
M  END
> <Batch ID>
0182

> <Smiles>
CNC(C)C(=O)NC(C(=O)N1Cc2cc([101O:1][101CH2:1]C(=O)C(=O)Nc3cc(C(F)(F)F)c([100NH:0][100C:0](=O)N4CCCC(n5nc(-c6ccc(Oc7ccc(F)cc7F)cc6)c(C(N)=O)c5N)C4)s3)ccc2CC1C(=O)NC1CCCc2ccccc21)C(C)(C)C

> <Shape>
0.313

> <Color>
0.102

> <Negative vol penalty>
0.000

$$$$

  -OEChem-04052304563D

 88 96  0     1  0  0  0  0  0999 V2000
  -27.1258  -31.8163   28.4585 C   0  0  0  0  0  0  0  0  0  0  0  0
  -27.5898  -31.0798   27.3732 C   0  0  0  0  0  0  0  0  0  0  0  0
  -22.4901  -10.2964   22.2153 C   0  0  0  0  0  0  0  0  0  0  0  0
  -24.6053   -9.7754   21.1705 C   0  0  0  0  0  0  0  0  0  0  0  0
  -25.7580  -31.8838   28.7201 C   0  0  0  0  0  0  0  0  0  0  0  0
  -26.6861  -30.4095   26.5495 C   0  0  0  0  0  0  0  0  0  0  0  0
  -27.1592  -29.5406   20.5057 C   0  0  0  0  0  0  0  0  0  0  0  0
  -22.0671   -8.9825   22.0141 C   0  0  0  0  0  0  0  0  0  0  0  0
  -24.1824   -8.4615   20.9694 C   0  0  0  0  0  0  0  0  0  0  0  0
  -27.5961  -28.4568   19.7453 C   0  0  0  0  0  0  0  0  0  0  0  0
  -22.5476   -5.9625   23.4569 C   0  0  0  0  0  0  0  0  0  0  0  0
  -21.9170   -5.3148   24.5191 C   0  0  0  0  0  0  0  0  0  0  0  0
  -25.3122  -27.7240   19.4883 C   0  0  0  0  0  0  0  0  0  0  0  0
  -19.9373   -5.0223   23.1653 C   0  0  0  0  0  0  0  0  0  0  0  0
  -23.7592  -10.6928   21.7934 C   0  0  0  0  0  0  0  0  0  0  0  0
  -24.8766  -12.5625   23.1213 C   0  0  0  0  0  0  0  0  0  0  0  0
  -24.8365  -31.2220   27.8934 C   0  0  0  0  0  0  0  0  0  0  0  0
  -25.7941  -29.7184   20.7728 C   0  0  0  0  0  0  0  0  0  0  0  0
  -25.3048  -30.4672   26.8010 C   0  0  0  0  0  0  0  0  0  0  0  0
  -24.8603  -28.8122   20.2503 C   0  0  0  0  0  0  0  0  0  0  0  0
  -22.9132   -8.0650   21.3912 C   0  0  0  0  0  0  0  0  0  0  0  0
  -26.6729  -27.5467   19.2389 C   0  0  0  0  0  0  0  0  0  0  0  0
  -21.8731   -6.1402   22.2489 C   0  0  0  0  0  0  0  0  0  0  0  0
  -20.6118   -4.8447   24.3733 C   0  0  0  0  0  0  0  0  0  0  0  0
  -20.5680   -5.6701   22.1031 C   0  0  0  0  0  0  0  0  0  0  0  0
  -24.1965  -12.0500   22.0003 C   0  0  0  0  0  0  0  0  0  0  0  0
  -29.8646  -20.4508   20.5976 C   0  0  0  0  0  0  0  0  0  0  0  0
  -25.0622  -13.8923   22.8321 C   0  0  0  0  0  0  0  0  0  0  0  0
  -30.5293  -19.6541   21.5062 C   0  0  0  0  0  0  0  0  0  0  0  0
  -28.5607  -18.6897   20.5076 C   0  0  0  0  0  0  0  0  0  0  0  0
  -25.3026  -11.8960   24.3172 C   0  0  0  0  0  0  0  0  0  0  0  0
  -30.2866  -21.8236   20.2173 C   0  0  0  0  0  0  0  0  0  0  0  0
  -24.0143  -29.7907   23.4054 C   0  0  0  0  0  0  0  0  0  0  0  0
  -28.4499  -24.4786   18.5148 C   0  0  0  0  0  0  0  0  0  0  0  0
  -21.6664  -30.6202   21.3266 C   0  0  0  0  0  0  0  0  0  0  0  0
  -20.4781  -30.5698   18.1278 C   0  0  0  0  0  0  0  0  0  0  0  0
  -26.4751  -17.9574   19.2991 C   0  0  0  0  0  0  0  0  0  0  0  0
  -23.3709  -31.2854   28.2438 C   0  0  0  0  0  0  0  0  0  0  0  0
  -25.3366  -30.9075   21.5723 C   0  0  0  0  0  0  0  0  0  0  0  0
  -23.3819  -28.9695   20.4913 C   0  0  0  0  0  0  0  0  0  0  0  0
  -22.4527  -30.8537   27.1032 C   0  0  0  0  0  0  0  0  0  0  0  0
  -23.1253  -16.7615   19.1391 C   0  0  0  0  0  0  0  0  0  0  0  0
  -22.9566  -29.5592   26.4730 C   0  0  0  0  0  0  0  0  0  0  0  0
  -23.1613  -15.4713   19.9615 C   0  0  0  0  0  0  0  0  0  0  0  0
  -24.4114  -16.9601   18.3391 C   0  0  0  0  0  0  0  0  0  0  0  0
  -25.6854  -15.5971   19.9479 C   0  0  0  0  0  0  0  0  0  0  0  0
  -24.3540  -29.7467   25.8699 C   0  0  1  0  0  0  0  0  0  0  0  0
  -23.9674  -30.7050   22.2140 C   0  0  1  0  0  0  0  0  0  0  0  0
  -24.4377  -15.3864   20.8212 C   0  0  2  0  0  0  0  0  0  0  0  0
  -18.5144  -31.2957   16.7442 C   0  0  0  0  0  0  0  0  0  0  0  0
  -20.0148  -28.3235   22.4701 C   0  0  0  0  0  0  0  0  0  0  0  0
  -18.5229  -28.4910   20.4665 C   0  0  0  0  0  0  0  0  0  0  0  0
  -18.7240  -30.4208   22.0344 C   0  0  0  0  0  0  0  0  0  0  0  0
  -22.1699  -32.3015   16.4255 C   0  0  0  0  0  0  0  0  0  0  0  0
  -28.3944  -25.9694   18.7866 C   0  0  0  0  0  0  0  0  0  1  0  0
  -29.7789  -23.7935   18.7967 C   0  0  2  0  0  0  0  0  0  0  0  0
  -20.6545  -29.8643   20.4996 C   0  0  1  0  0  0  0  0  0  0  0  0
  -19.8998  -31.6656   17.2507 C   0  0  2  0  0  0  0  0  0  0  0  0
  -19.5070  -29.2706   21.3646 C   0  0  0  0  0  0  0  0  0  0  0  0
  -30.6388  -23.7592   17.5528 C   0  0  0  0  0  0  0  0  0  0  0  0
  -23.9655  -12.9786   21.0685 N   0  0  0  0  0  0  0  0  0  0  0  0
  -28.7358  -19.8993   20.0236 N   0  0  0  0  0  0  0  0  0  0  0  0
  -24.5034  -14.0880   21.6034 N   0  0  0  0  0  0  0  0  0  0  0  0
  -22.9847  -30.1447   21.2842 N   0  0  0  0  0  0  0  0  0  0  0  0
  -25.5783  -16.8710   19.2195 N   0  0  0  0  0  0  0  0  0  0  0  0
  -25.6472  -14.9016   23.5114 N   0  0  0  0  0  0  0  0  0  0  0  0
  -31.6524  -19.9394   22.2099 N   0  0  0  0  0  0  0  0  0  0  0  0
  -25.0314  -10.5276   24.4522 N   0  0  0  0  0  0  0  0  0  0  0  0
  -27.5288  -17.7709   20.1933 N   0  0  0  0  0  0  0  0  0  0  0  0
  -29.4875  -22.4705   19.2834 N   0  0  0  0  0  0  0  0  0  0  0  0
  -24.2682  -30.4364   24.6005 N   0  0  0  0  0  0  0  0  0  0  0  0
  -20.2051  -30.7861   19.4620 N   0  0  0  0  0  0  0  0  0  0  0  0
  -20.7817  -31.9065   16.0738 N   0  3  0  0  0  0  0  0  0  0  0  0
  -25.8913  -12.4997   25.2458 O   0  0  0  0  0  0  0  0  0  0  0  0
  -31.3032  -22.2988   20.7165 O   0  0  0  0  0  0  0  0  0  0  0  0
  -23.8320  -28.5886   23.2521 O   0  0  0  0  0  0  0  0  0  0  0  0
  -27.4820  -23.8664   18.0625 O   0  0  0  0  0  0  0  0  0  0  0  0
  -21.3019  -31.6007   21.9803 O   0  0  0  0  0  0  0  0  0  0  0  0
  -21.1058  -29.6153   17.6744 O   0  0  0  0  0  0  0  0  0  0  0  0
  -26.3048  -18.9888   18.6440 O   0  0  0  0  0  0  0  0  0  0  0  0
  -22.5009   -6.7828   21.1951 O   0  0  0  0  0  0  0  0  0  0  0  0
  -27.0968  -26.4876   18.4969 O   0  0  0  0  0  0  0  0  0  1  0  0
  -20.0069   -4.2213   25.3929 F   0  0  0  0  0  0  0  0  0  0  0  0
  -19.9154   -5.8369   20.9447 F   0  0  0  0  0  0  0  0  0  0  0  0
  -31.8073  -23.1217   17.7859 F   0  0  0  0  0  0  0  0  0  0  0  0
  -30.9276  -25.0003   17.1059 F   0  0  0  0  0  0  0  0  0  0  0  0
  -30.0131  -23.0972   16.5535 F   0  0  0  0  0  0  0  0  0  0  0  0
  -29.7157  -18.1519   21.6573 S   0  0  0  0  0  0  0  0  0  0  0  0
  1  2  1  0  0  0  0
  1  5  2  0  0  0  0
  2  6  2  0  0  0  0
  3  8  2  0  0  0  0
  3 15  1  0  0  0  0
  4  9  1  0  0  0  0
  4 15  2  0  0  0  0
  5 17  1  0  0  0  0
  6 19  1  0  0  0  0
  7 10  2  0  0  0  0
  7 18  1  0  0  0  0
  8 21  1  0  0  0  0
  9 21  2  0  0  0  0
 10 22  1  0  0  0  0
 11 12  2  0  0  0  0
 11 23  1  0  0  0  0
 12 24  1  0  0  0  0
 13 20  1  0  0  0  0
 13 22  2  0  0  0  0
 14 24  2  0  0  0  0
 14 25  1  0  0  0  0
 15 26  1  0  0  0  0
 16 26  1  0  0  0  0
 16 28  2  0  0  0  0
 16 31  1  0  0  0  0
 17 19  2  0  0  0  0
 17 38  1  0  0  0  0
 18 20  2  0  0  0  0
 18 39  1  0  0  0  0
 19 47  1  0  0  0  0
 20 40  1  0  0  0  0
 21 81  1  0  0  0  0
 22 82  1  0  0  0  0
 23 25  2  0  0  0  0
 23 81  1  0  0  0  0
 24 83  1  0  0  0  0
 25 84  1  0  0  0  0
 26 61  2  0  0  0  0
 27 29  2  0  0  0  0
 27 32  1  0  0  0  0
 27 62  1  0  0  0  0
 28 63  1  0  0  0  0
 28 66  1  0  0  0  0
 29 67  1  0  0  0  0
 29 88  1  0  0  0  0
 30 62  2  0  0  0  0
 30 69  1  0  0  0  0
 30 88  1  0  0  0  0
 31 68  1  0  0  0  0
 31 74  2  0  0  0  0
 32 70  1  0  0  0  0
 32 75  2  0  0  0  0
 33 48  1  0  0  0  0
 33 71  1  0  0  0  0
 33 76  2  0  0  0  0
 34 55  1  0  0  0  0
 34 56  1  0  0  0  0
 34 77  2  0  0  0  0
 35 57  1  0  0  0  0
 35 64  1  0  0  0  0
 35 78  2  0  0  0  0
 36 58  1  0  0  0  0
 36 72  1  0  0  0  0
 36 79  2  0  0  0  0
 37 65  1  0  0  0  0
 37 69  1  0  0  0  0
 37 80  2  0  0  0  0
 38 41  1  0  0  0  0
 39 48  1  0  0  0  0
 40 64  1  0  0  0  0
 41 43  1  0  0  0  0
 42 44  1  0  0  0  0
 42 45  1  0  0  0  0
 43 47  1  0  0  0  0
 44 49  1  0  0  0  0
 45 65  1  0  0  0  0
 46 49  1  0  0  0  0
 46 65  1  0  0  0  0
 47 71  1  0  0  0  0
 48 64  1  0  0  0  0
 49 63  1  0  0  0  0
 50 58  1  0  0  0  0
 51 59  1  0  0  0  0
 52 59  1  0  0  0  0
 53 59  1  0  0  0  0
 54 73  1  0  0  0  0
 55 82  1  0  0  0  0
 56 60  1  0  0  0  0
 56 70  1  0  0  0  0
 57 59  1  0  0  0  0
 57 72  1  0  0  0  0
 58 73  1  0  0  0  0
 60 85  1  0  0  0  0
 60 86  1  0  0  0  0
 60 87  1  0  0  0  0
 61 63  1  0  0  0  0
M  CHG  1  73   1
M  ISO  4  37 100  55 101  69 100  82 101
M  END
> <Batch ID>
0182

> <Smiles>
CNC(C)C(=O)NC(C(=O)N1Cc2cc([101O:1][101CH2:1]C(=O)C(NC(=O)c3nc([100NH:0][100C:0](=O)N4CCCC(n5nc(-c6ccc(Oc7ccc(F)cc7F)cc6)c(C(N)=O)c5N)C4)sc3N)C(F)(F)F)ccc2CC1C(=O)NC1CCCc2ccccc21)C(C)(C)C

> <Shape>
0.274

> <Color>
0.092

> <Negative vol penalty>
0.000

$$$$

  -OEChem-04052304563D

 84 92  0     1  0  0  0  0  0999 V2000
  -19.7984   -9.3028   20.1078 C   0  0  0  0  0  0  0  0  0  0  0  0
  -19.7185  -10.6291   20.5200 C   0  0  0  0  0  0  0  0  0  0  0  0
  -22.8145  -29.2460   19.7826 C   0  0  0  0  0  0  0  0  0  0  0  0
  -22.8138  -27.7978   21.7164 C   0  0  0  0  0  0  0  0  0  0  0  0
  -21.0012   -8.6080   20.2277 C   0  0  0  0  0  0  0  0  0  0  0  0
  -20.8412  -11.2611   21.0534 C   0  0  0  0  0  0  0  0  0  0  0  0
  -22.4045  -17.1476   20.4129 C   0  0  0  0  0  0  0  0  0  0  0  0
  -21.4197  -29.2350   19.7738 C   0  0  0  0  0  0  0  0  0  0  0  0
  -21.4190  -27.7868   21.7077 C   0  0  0  0  0  0  0  0  0  0  0  0
  -22.2398  -18.2573   21.2408 C   0  0  0  0  0  0  0  0  0  0  0  0
  -18.9076  -29.8287   22.6792 C   0  0  0  0  0  0  0  0  0  0  0  0
  -18.2520  -30.0002   23.8984 C   0  0  0  0  0  0  0  0  0  0  0  0
  -24.4745  -17.9451   22.0937 C   0  0  0  0  0  0  0  0  0  0  0  0
  -17.1990  -27.8417   23.6357 C   0  0  0  0  0  0  0  0  0  0  0  0
  -28.2097  -24.8603   23.8729 C   0  0  0  0  0  0  0  0  0  0  0  0
  -23.5115  -28.5273   20.7538 C   0  0  0  0  0  0  0  0  0  0  0  0
  -25.7916  -29.4423   21.4409 C   0  0  0  0  0  0  0  0  0  0  0  0
  -22.1418   -9.2347   20.7539 C   0  0  0  0  0  0  0  0  0  0  0  0
  -23.6035  -16.4206   20.4272 C   0  0  0  0  0  0  0  0  0  0  0  0
  -22.0601  -10.5736   21.1817 C   0  0  0  0  0  0  0  0  0  0  0  0
  -24.6529  -16.8281   21.2632 C   0  0  0  0  0  0  0  0  0  0  0  0
  -20.7220  -28.5054   20.7364 C   0  0  0  0  0  0  0  0  0  0  0  0
  -23.2738  -18.6545   22.0834 C   0  0  0  0  0  0  0  0  0  0  0  0
  -18.7088  -28.6638   21.9382 C   0  0  0  0  0  0  0  0  0  0  0  0
  -17.3978  -29.0067   24.3767 C   0  0  0  0  0  0  0  0  0  0  0  0
  -17.8545  -27.6702   22.4165 C   0  0  0  0  0  0  0  0  0  0  0  0
  -24.9523  -28.5379   20.7630 C   0  0  0  0  0  0  0  0  0  0  0  0
  -28.1758  -24.2319   22.6456 C   0  0  0  0  0  0  0  0  0  0  0  0
  -27.0640  -29.0277   21.1319 C   0  0  0  0  0  0  0  0  0  0  0  0
  -26.1560  -23.7234   23.3324 C   0  0  0  0  0  0  0  0  0  0  0  0
  -25.4513  -30.5575   22.2754 C   0  0  0  0  0  0  0  0  0  0  0  0
  -24.4046  -13.4293   21.1439 C   0  0  0  0  0  0  0  0  0  0  0  0
  -27.3157  -14.3613   20.0582 C   0  0  0  0  0  0  0  0  0  0  0  0
  -24.1465  -22.4554   22.4946 C   0  0  0  0  0  0  0  0  0  0  0  0
  -29.5018  -16.9110   19.4525 C   0  0  0  0  0  0  0  0  0  0  0  0
  -28.9163  -23.4963   19.2582 C   0  0  0  0  0  0  0  0  0  0  0  0
  -23.4072   -8.4285   20.9078 C   0  0  0  0  0  0  0  0  0  0  0  0
  -23.7751  -15.2420   19.5087 C   0  0  0  0  0  0  0  0  0  0  0  0
  -25.9673  -16.0937   21.3014 C   0  0  0  0  0  0  0  0  0  0  0  0
  -24.6505   -9.2842   21.1363 C   0  0  0  0  0  0  0  0  0  0  0  0
  -29.5652  -26.8013   17.7228 C   0  0  0  0  0  0  0  0  0  0  0  0
  -24.3781  -10.3501   22.1929 C   0  0  0  0  0  0  0  0  0  0  0  0
  -28.4746  -27.6752   18.3399 C   0  0  0  0  0  0  0  0  0  0  0  0
  -29.1372  -25.3397   17.6320 C   0  0  0  0  0  0  0  0  0  0  0  0
  -27.5991  -25.6353   19.5453 C   0  0  0  0  0  0  0  0  0  0  0  0
  -23.2627  -11.3012   21.7425 C   0  0  1  0  0  0  0  0  0  0  0  0
  -24.8510  -14.2686   19.9804 C   0  0  1  0  0  0  0  0  0  0  0  0
  -28.0164  -27.1061   19.6940 C   0  0  2  0  0  0  0  0  0  0  0  0
  -21.7717  -23.2322   22.5676 C   0  0  0  0  0  0  0  0  0  0  0  0
  -31.8184  -17.3584   18.5978 C   0  0  0  0  0  0  0  0  0  0  0  0
  -28.4788  -13.3721   22.6999 C   0  0  0  0  0  0  0  0  0  0  0  0
  -30.5541  -14.6786   22.1952 C   0  0  0  0  0  0  0  0  0  0  0  0
  -29.8528  -12.8219   20.6841 C   0  0  0  0  0  0  0  0  0  0  0  0
  -29.3527  -21.8232   21.0160 C   0  0  0  0  0  0  0  0  0  0  0  0
  -28.4838  -18.5665   17.2205 C   0  0  0  0  0  0  0  0  0  0  0  0
  -29.2756  -24.2030   21.6611 C   0  0  0  0  0  0  0  0  0  0  0  0
  -22.2502  -20.7729   22.4302 C   0  0  0  0  0  0  0  0  0  1  0  0
  -28.5410  -14.9832   20.6833 C   0  0  1  0  0  0  0  0  0  0  0  0
  -22.7309  -22.1171   22.9823 C   0  0  1  0  0  0  0  0  0  0  0  0
  -30.3455  -17.2468   18.2360 C   0  0  2  0  0  0  0  0  0  0  0  0
  -29.3313  -13.9768   21.5666 C   0  0  0  0  0  0  0  0  0  0  0  0
  -25.6342  -27.6181   20.0751 N   0  0  0  0  0  0  0  0  0  0  0  0
  -26.9991  -23.5791   22.3342 N   0  0  0  0  0  0  0  0  0  0  0  0
  -26.9154  -27.9426   20.3191 N   0  0  0  0  0  0  0  0  0  0  0  0
  -26.0842  -14.9440   20.3893 N   0  0  0  0  0  0  0  0  0  0  0  0
  -28.6658  -24.8370   18.9228 N   0  0  0  0  0  0  0  0  0  0  0  0
  -28.2843  -29.4891   21.4788 N   0  0  0  0  0  0  0  0  0  0  0  0
  -24.0959  -30.8437   22.4883 N   0  0  0  0  0  0  0  0  0  0  0  0
  -24.8380  -23.2174   23.4327 N   0  0  0  0  0  0  0  0  0  0  0  0
  -23.7705  -12.2563   20.7811 N   0  0  0  0  0  0  0  0  0  0  0  0
  -29.3158  -15.5512   19.5854 N   0  0  0  0  0  0  0  0  0  0  0  0
  -29.0797  -23.1972   20.6193 N   0  0  0  0  0  0  0  0  0  0  0  0
  -29.9077  -18.5423   17.6436 N   0  3  0  0  0  0  0  0  0  0  0  0
  -26.3234  -31.2887   22.8029 O   0  0  0  0  0  0  0  0  0  0  0  0
  -24.6207  -13.8164   22.2863 O   0  0  0  0  0  0  0  0  0  0  0  0
  -27.4470  -13.3985   19.2982 O   0  0  0  0  0  0  0  0  0  0  0  0
  -24.5580  -22.0808   21.4003 O   0  0  0  0  0  0  0  0  0  0  0  0
  -29.0557  -17.7688   20.2112 O   0  0  0  0  0  0  0  0  0  0  0  0
  -28.9993  -22.6183   18.3897 O   0  0  0  0  0  0  0  0  0  0  0  0
  -19.3609  -28.4947   20.7283 O   0  0  0  0  0  0  0  0  0  0  0  0
  -23.1155  -19.7368   22.8930 O   0  0  0  0  0  0  0  0  0  1  0  0
  -16.7695  -29.1708   25.5482 F   0  0  0  0  0  0  0  0  0  0  0  0
  -17.6605  -26.5484   21.7097 F   0  0  0  0  0  0  0  0  0  0  0  0
  -26.7122  -24.6328   24.6772 S   0  0  0  0  0  0  0  0  0  0  0  0
  1  2  1  0  0  0  0
  1  5  2  0  0  0  0
  2  6  2  0  0  0  0
  3  8  2  0  0  0  0
  3 16  1  0  0  0  0
  4  9  1  0  0  0  0
  4 16  2  0  0  0  0
  5 18  1  0  0  0  0
  6 20  1  0  0  0  0
  7 10  2  0  0  0  0
  7 19  1  0  0  0  0
  8 22  1  0  0  0  0
  9 22  2  0  0  0  0
 10 23  1  0  0  0  0
 11 12  2  0  0  0  0
 11 24  1  0  0  0  0
 12 25  1  0  0  0  0
 13 21  1  0  0  0  0
 13 23  2  0  0  0  0
 14 25  2  0  0  0  0
 14 26  1  0  0  0  0
 15 28  2  0  0  0  0
 15 84  1  0  0  0  0
 16 27  1  0  0  0  0
 17 27  1  0  0  0  0
 17 29  2  0  0  0  0
 17 31  1  0  0  0  0
 18 20  2  0  0  0  0
 18 37  1  0  0  0  0
 19 21  2  0  0  0  0
 19 38  1  0  0  0  0
 20 46  1  0  0  0  0
 21 39  1  0  0  0  0
 22 80  1  0  0  0  0
 23 81  1  0  0  0  0
 24 26  2  0  0  0  0
 24 80  1  0  0  0  0
 25 82  1  0  0  0  0
 26 83  1  0  0  0  0
 27 62  2  0  0  0  0
 28 56  1  0  0  0  0
 28 63  1  0  0  0  0
 29 64  1  0  0  0  0
 29 67  1  0  0  0  0
 30 63  2  0  0  0  0
 30 69  1  0  0  0  0
 30 84  1  0  0  0  0
 31 68  1  0  0  0  0
 31 74  2  0  0  0  0
 32 47  1  0  0  0  0
 32 70  1  0  0  0  0
 32 75  2  0  0  0  0
 33 58  1  0  0  0  0
 33 65  1  0  0  0  0
 33 76  2  0  0  0  0
 34 59  1  0  0  0  0
 34 69  1  0  0  0  0
 34 77  2  0  0  0  0
 35 60  1  0  0  0  0
 35 71  1  0  0  0  0
 35 78  2  0  0  0  0
 36 66  1  0  0  0  0
 36 72  1  0  0  0  0
 36 79  2  0  0  0  0
 37 40  1  0  0  0  0
 38 47  1  0  0  0  0
 39 65  1  0  0  0  0
 40 42  1  0  0  0  0
 41 43  1  0  0  0  0
 41 44  1  0  0  0  0
 42 46  1  0  0  0  0
 43 48  1  0  0  0  0
 44 66  1  0  0  0  0
 45 48  1  0  0  0  0
 45 66  1  0  0  0  0
 46 70  1  0  0  0  0
 47 65  1  0  0  0  0
 48 64  1  0  0  0  0
 49 59  1  0  0  0  0
 50 60  1  0  0  0  0
 51 61  1  0  0  0  0
 52 61  1  0  0  0  0
 53 61  1  0  0  0  0
 54 72  1  0  0  0  0
 55 73  1  0  0  0  0
 56 72  1  0  0  0  0
 57 59  1  0  0  0  0
 57 81  1  0  0  0  0
 58 61  1  0  0  0  0
 58 71  1  0  0  0  0
 60 73  1  0  0  0  0
 62 64  1  0  0  0  0
M  CHG  1  73   1
M  ISO  4  36 100  57 101  72 100  81 101
M  END
> <Batch ID>
0182

> <Smiles>
CNC(C)C(=O)NC(C(=O)N1Cc2cc([101O:1][101CH2:1]C(C)C(=O)Nc3nc(C[100N:0](C)[100C:0](=O)N4CCCC(n5nc(-c6ccc(Oc7ccc(F)cc7F)cc6)c(C(N)=O)c5N)C4)cs3)ccc2CC1C(=O)NC1CCCc2ccccc21)C(C)(C)C

> <Shape>
0.289

> <Color>
0.052

> <Negative vol penalty>
0.000

$$$$

  -OEChem-04052304563D

 85 93  0     1  0  0  0  0  0999 V2000
  -24.0941   -8.3854   21.6465 C   0  0  0  0  0  0  0  0  0  0  0  0
  -24.6501   -9.4879   21.0056 C   0  0  0  0  0  0  0  0  0  0  0  0
  -20.8007  -28.5909   25.1905 C   0  0  0  0  0  0  0  0  0  0  0  0
  -22.1671  -26.7405   25.9292 C   0  0  0  0  0  0  0  0  0  0  0  0
  -22.7713   -8.4293   22.0850 C   0  0  0  0  0  0  0  0  0  0  0  0
  -23.8832  -10.6346   20.8018 C   0  0  0  0  0  0  0  0  0  0  0  0
  -26.3996  -14.8811   21.9333 C   0  0  0  0  0  0  0  0  0  0  0  0
  -19.7052  -28.0510   25.8643 C   0  0  0  0  0  0  0  0  0  0  0  0
  -21.0717  -26.2006   26.6031 C   0  0  0  0  0  0  0  0  0  0  0  0
  -27.3243  -15.3418   20.9972 C   0  0  0  0  0  0  0  0  0  0  0  0
  -18.2982  -24.4280   25.8310 C   0  0  0  0  0  0  0  0  0  0  0  0
  -18.0624  -23.0602   25.6932 C   0  0  0  0  0  0  0  0  0  0  0  0
  -25.7103  -16.9492   20.2031 C   0  0  0  0  0  0  0  0  0  0  0  0
  -18.3079  -22.7774   28.0800 C   0  0  0  0  0  0  0  0  0  0  0  0
  -22.0317  -27.9357   25.2229 C   0  0  0  0  0  0  0  0  0  0  0  0
  -24.1139  -29.3976   25.0360 C   0  0  0  0  0  0  0  0  0  0  0  0
  -21.9908   -9.5806   21.8951 C   0  0  0  0  0  0  0  0  0  0  0  0
  -25.1175  -15.4445   22.0042 C   0  0  0  0  0  0  0  0  0  0  0  0
  -22.5484  -10.6934   21.2370 C   0  0  0  0  0  0  0  0  0  0  0  0
  -24.7721  -16.4955   21.1427 C   0  0  0  0  0  0  0  0  0  0  0  0
  -19.8407  -26.8559   26.5706 C   0  0  0  0  0  0  0  0  0  0  0  0
  -26.9788  -16.3741   20.1299 C   0  0  0  0  0  0  0  0  0  0  0  0
  -18.5389  -24.9706   27.0933 C   0  0  0  0  0  0  0  0  0  0  0  0
  -18.0672  -22.2349   26.8177 C   0  0  0  0  0  0  0  0  0  0  0  0
  -18.5437  -24.1453   28.2178 C   0  0  0  0  0  0  0  0  0  0  0  0
  -23.1635  -28.4926   24.5265 C   0  0  0  0  0  0  0  0  0  0  0  0
  -28.7156  -24.1098   19.0075 C   0  0  0  0  0  0  0  0  0  0  0  0
  -24.9762  -29.6154   23.9894 C   0  0  0  0  0  0  0  0  0  0  0  0
  -27.9411  -24.5204   20.0723 C   0  0  0  0  0  0  0  0  0  0  0  0
  -29.4868  -22.7299   20.5276 C   0  0  0  0  0  0  0  0  0  0  0  0
  -24.2088  -29.9884   26.3390 C   0  0  0  0  0  0  0  0  0  0  0  0
  -29.7457  -18.2725   19.5580 C   0  0  0  0  0  0  0  0  0  0  0  0
  -30.3546  -19.6345   19.7336 C   0  0  0  0  0  0  0  0  0  0  0  0
  -22.1609  -14.3502   21.5981 C   0  0  0  0  0  0  0  0  0  0  0  0
  -21.3398  -17.3188   22.6158 C   0  0  0  0  0  0  0  0  0  0  0  0
  -22.2094  -20.5980   22.9868 C   0  0  0  0  0  0  0  0  0  0  0  0
  -26.4804  -26.3773   19.1980 C   0  0  0  0  0  0  0  0  0  0  0  0
  -20.5512   -9.5638   22.3443 C   0  0  0  0  0  0  0  0  0  0  0  0
  -24.1406  -14.9542   23.0375 C   0  0  0  0  0  0  0  0  0  0  0  0
  -23.4155  -17.1479   21.1918 C   0  0  0  0  0  0  0  0  0  0  0  0
  -19.9217  -10.9522   22.4237 C   0  0  0  0  0  0  0  0  0  0  0  0
  -25.1181  -29.6669   19.2028 C   0  0  0  0  0  0  0  0  0  0  0  0
  -20.2441  -11.7572   21.1688 C   0  0  0  0  0  0  0  0  0  0  0  0
  -24.5541  -29.8237   20.6169 C   0  0  0  0  0  0  0  0  0  0  0  0
  -24.9304  -28.2469   18.6716 C   0  0  0  0  0  0  0  0  0  0  0  0
  -24.8753  -27.3407   20.9618 C   0  0  0  0  0  0  0  0  0  0  0  0
  -21.7562  -11.9643   21.0196 C   0  0  1  0  0  0  0  0  0  0  0  0
  -22.6888  -15.2533   22.6767 C   0  0  1  0  0  0  0  0  0  0  0  0
  -25.0991  -28.7372   21.5646 C   0  0  2  0  0  0  0  0  0  0  0  0
  -27.8819  -18.8718   17.9869 C   0  0  0  0  0  0  0  0  0  0  0  0
  -21.3159  -22.7912   23.8168 C   0  0  0  0  0  0  0  0  0  0  0  0
  -19.6348  -17.5741   20.0983 C   0  0  0  0  0  0  0  0  0  0  0  0
  -19.5481  -20.0451   20.4917 C   0  0  0  0  0  0  0  0  0  0  0  0
  -18.5737  -18.4812   22.1733 C   0  0  0  0  0  0  0  0  0  0  0  0
  -24.3371  -20.8233   25.0316 C   0  0  0  0  0  0  0  0  0  0  0  0
  -30.2896  -21.6429   21.1821 C   0  0  0  0  0  0  0  0  0  0  0  0
  -28.2550  -18.1995   19.2963 C   0  0  1  0  0  0  0  0  0  1  0  0
  -21.0861  -18.6470   21.9446 C   0  0  1  0  0  0  0  0  0  0  0  0
  -22.1040  -21.5401   24.1724 C   0  0  2  0  0  0  0  0  0  0  0  0
  -19.7357  -18.6735   21.1745 C   0  0  0  0  0  0  0  0  0  0  0  0
  -23.3995  -28.1585   23.2550 N   0  0  0  0  0  0  0  0  0  0  0  0
  -29.6028  -23.0835   19.2668 N   0  0  0  0  0  0  0  0  0  0  0  0
  -24.5079  -28.8574   22.9567 N   0  0  0  0  0  0  0  0  0  0  0  0
  -22.4930  -16.6292   22.2153 N   0  0  0  0  0  0  0  0  0  0  0  0
  -25.4742  -27.2720   19.6196 N   0  0  0  0  0  0  0  0  0  0  0  0
  -26.0816  -30.3795   23.8609 N   0  0  0  0  0  0  0  0  0  0  0  0
  -23.2399  -29.6559   27.2956 N   0  0  0  0  0  0  0  0  0  0  0  0
  -26.9432  -25.5188   20.1947 N   0  0  0  0  0  0  0  0  0  0  0  0
  -29.8306  -20.3277   20.8004 N   0  0  0  0  0  0  0  0  0  0  0  0
  -22.2143  -13.0060   21.9138 N   0  0  0  0  0  0  0  0  0  0  0  0
  -21.1988  -19.6600   22.9884 N   0  0  0  0  0  0  0  0  0  0  0  0
  -23.4614  -21.9534   24.6279 N   0  3  0  0  0  0  0  0  0  0  0  0
  -25.1162  -30.8003   26.6407 O   0  0  0  0  0  0  0  0  0  0  0  0
  -30.4966  -17.3118   19.6530 O   0  0  0  0  0  0  0  0  0  0  0  0
  -31.2394  -19.9663   18.9605 O   0  0  0  0  0  0  0  0  0  0  0  0
  -21.7352  -14.8370   20.5572 O   0  0  0  0  0  0  0  0  0  0  0  0
  -20.5479  -16.9116   23.4694 O   0  0  0  0  0  0  0  0  0  0  0  0
  -23.0972  -20.6876   22.1416 O   0  0  0  0  0  0  0  0  0  0  0  0
  -26.9198  -26.3914   18.0453 O   0  0  0  0  0  0  0  0  0  0  0  0
  -18.7720  -26.3289   27.2285 O   0  0  0  0  0  0  0  0  0  0  0  0
  -27.8792  -16.8253   19.2148 O   0  0  0  0  0  0  0  0  0  1  0  0
  -17.8393  -20.9216   26.6854 F   0  0  0  0  0  0  0  0  0  0  0  0
  -18.7732  -24.6610   29.4332 F   0  0  0  0  0  0  0  0  0  0  0  0
  -28.6211  -24.6687   17.7959 F   0  0  0  0  0  0  0  0  0  0  0  0
  -28.3298  -23.5893   21.4591 S   0  0  0  0  0  0  0  0  0  0  0  0
  1  2  1  0  0  0  0
  1  5  2  0  0  0  0
  2  6  2  0  0  0  0
  3  8  2  0  0  0  0
  3 15  1  0  0  0  0
  4  9  1  0  0  0  0
  4 15  2  0  0  0  0
  5 17  1  0  0  0  0
  6 19  1  0  0  0  0
  7 10  2  0  0  0  0
  7 18  1  0  0  0  0
  8 21  1  0  0  0  0
  9 21  2  0  0  0  0
 10 22  1  0  0  0  0
 11 12  2  0  0  0  0
 11 23  1  0  0  0  0
 12 24  1  0  0  0  0
 13 20  1  0  0  0  0
 13 22  2  0  0  0  0
 14 24  2  0  0  0  0
 14 25  1  0  0  0  0
 15 26  1  0  0  0  0
 16 26  1  0  0  0  0
 16 28  2  0  0  0  0
 16 31  1  0  0  0  0
 17 19  2  0  0  0  0
 17 38  1  0  0  0  0
 18 20  2  0  0  0  0
 18 39  1  0  0  0  0
 19 47  1  0  0  0  0
 20 40  1  0  0  0  0
 21 80  1  0  0  0  0
 22 81  1  0  0  0  0
 23 25  2  0  0  0  0
 23 80  1  0  0  0  0
 24 82  1  0  0  0  0
 25 83  1  0  0  0  0
 26 61  2  0  0  0  0
 27 29  2  0  0  0  0
 27 62  1  0  0  0  0
 27 84  1  0  0  0  0
 28 63  1  0  0  0  0
 28 66  1  0  0  0  0
 29 68  1  0  0  0  0
 29 85  1  0  0  0  0
 30 56  1  0  0  0  0
 30 62  2  0  0  0  0
 30 85  1  0  0  0  0
 31 67  1  0  0  0  0
 31 73  2  0  0  0  0
 32 33  1  0  0  0  0
 32 57  1  0  0  0  0
 32 74  2  0  0  0  0
 33 69  1  0  0  0  0
 33 75  2  0  0  0  0
 34 48  1  0  0  0  0
 34 70  1  0  0  0  0
 34 76  2  0  0  0  0
 35 58  1  0  0  0  0
 35 64  1  0  0  0  0
 35 77  2  0  0  0  0
 36 59  1  0  0  0  0
 36 71  1  0  0  0  0
 36 78  2  0  0  0  0
 37 65  1  0  0  0  0
 37 68  1  0  0  0  0
 37 79  2  0  0  0  0
 38 41  1  0  0  0  0
 39 48  1  0  0  0  0
 40 64  1  0  0  0  0
 41 43  1  0  0  0  0
 42 44  1  0  0  0  0
 42 45  1  0  0  0  0
 43 47  1  0  0  0  0
 44 49  1  0  0  0  0
 45 65  1  0  0  0  0
 46 49  1  0  0  0  0
 46 65  1  0  0  0  0
 47 70  1  0  0  0  0
 48 64  1  0  0  0  0
 49 63  1  0  0  0  0
 50 57  1  0  0  0  0
 51 59  1  0  0  0  0
 52 60  1  0  0  0  0
 53 60  1  0  0  0  0
 54 60  1  0  0  0  0
 55 72  1  0  0  0  0
 56 69  1  0  0  0  0
 57 81  1  0  0  0  0
 58 60  1  0  0  0  0
 58 71  1  0  0  0  0
 59 72  1  0  0  0  0
 61 63  1  0  0  0  0
M  CHG  1  72   1
M  ISO  4  37 100  57 101  68 100  81 101
M  END
> <Batch ID>
0182

> <Smiles>
CNC(C)C(=O)NC(C(=O)N1Cc2cc([101O:1][101CH:1](C)C(=O)C(=O)NCc3nc(F)c([100NH:0][100C:0](=O)N4CCCC(n5nc(-c6ccc(Oc7ccc(F)cc7F)cc6)c(C(N)=O)c5N)C4)s3)ccc2CC1C(=O)NC1CCCc2ccccc21)C(C)(C)C

> <Shape>
0.178

> <Color>
0.088

> <Negative vol penalty>
0.000

$$$$

  -OEChem-04052304563D

 87 95  0     1  0  0  0  0  0999 V2000
  -29.2472  -30.9599   17.8365 C   0  0  0  0  0  0  0  0  0  0  0  0
  -28.9080  -29.8783   18.6430 C   0  0  0  0  0  0  0  0  0  0  0  0
  -23.0006   -9.8924   19.9803 C   0  0  0  0  0  0  0  0  0  0  0  0
  -23.7269   -9.9426   22.2840 C   0  0  0  0  0  0  0  0  0  0  0  0
  -29.2683  -30.8146   16.4500 C   0  0  0  0  0  0  0  0  0  0  0  0
  -28.5887  -28.6509   18.0633 C   0  0  0  0  0  0  0  0  0  0  0  0
  -30.8118  -24.7552   20.4140 C   0  0  0  0  0  0  0  0  0  0  0  0
  -22.2350   -8.7572   20.2463 C   0  0  0  0  0  0  0  0  0  0  0  0
  -22.9612   -8.8075   22.5501 C   0  0  0  0  0  0  0  0  0  0  0  0
  -30.2447  -24.3279   21.6139 C   0  0  0  0  0  0  0  0  0  0  0  0
  -23.2074   -5.4689   22.0763 C   0  0  0  0  0  0  0  0  0  0  0  0
  -23.7960   -4.4517   22.8276 C   0  0  0  0  0  0  0  0  0  0  0  0
  -29.1520  -22.5213   20.4470 C   0  0  0  0  0  0  0  0  0  0  0  0
  -22.0727   -4.6926   24.5037 C   0  0  0  0  0  0  0  0  0  0  0  0
  -23.7466  -10.4850   20.9991 C   0  0  0  0  0  0  0  0  0  0  0  0
  -24.1302  -13.0010   20.8242 C   0  0  0  0  0  0  0  0  0  0  0  0
  -28.9585  -29.5822   15.8534 C   0  0  0  0  0  0  0  0  0  0  0  0
  -30.5441  -24.0741   19.2179 C   0  0  0  0  0  0  0  0  0  0  0  0
  -28.6044  -28.4894   16.6674 C   0  0  0  0  0  0  0  0  0  0  0  0
  -29.7190  -22.9405   19.2338 C   0  0  0  0  0  0  0  0  0  0  0  0
  -22.2152   -8.2148   21.5313 C   0  0  0  0  0  0  0  0  0  0  0  0
  -29.4124  -23.2126   21.6300 C   0  0  0  0  0  0  0  0  0  0  0  0
  -22.0516   -6.0981   22.5387 C   0  0  0  0  0  0  0  0  0  0  0  0
  -23.2286   -4.0635   24.0413 C   0  0  0  0  0  0  0  0  0  0  0  0
  -21.4842   -5.7099   23.7524 C   0  0  0  0  0  0  0  0  0  0  0  0
  -24.5382  -11.6573   20.7247 C   0  0  0  0  0  0  0  0  0  0  0  0
  -31.8415  -18.6665   22.2098 C   0  0  0  0  0  0  0  0  0  0  0  0
  -25.2394  -13.7245   20.4597 C   0  0  0  0  0  0  0  0  0  0  0  0
  -30.7352  -19.0685   22.9284 C   0  0  0  0  0  0  0  0  0  0  0  0
  -30.5802  -16.9014   21.8882 C   0  0  0  0  0  0  0  0  0  0  0  0
  -22.8621  -13.5463   21.2116 C   0  0  0  0  0  0  0  0  0  0  0  0
  -29.1663  -24.8433   16.4586 C   0  0  0  0  0  0  0  0  0  0  0  0
  -30.1573  -21.8807   15.5851 C   0  0  0  0  0  0  0  0  0  0  0  0
  -31.0731  -18.7341   16.5374 C   0  0  0  0  0  0  0  0  0  0  0  0
  -29.2829  -20.5511   24.3601 C   0  0  0  0  0  0  0  0  0  0  0  0
  -30.7184  -14.6889   20.6916 C   0  0  0  0  0  0  0  0  0  0  0  0
  -28.9489  -29.4863   14.3483 C   0  0  0  0  0  0  0  0  0  0  0  0
  -31.1850  -24.5318   17.9364 C   0  0  0  0  0  0  0  0  0  0  0  0
  -29.4164  -22.1623   17.9803 C   0  0  0  0  0  0  0  0  0  0  0  0
  -28.9621  -28.0508   13.8294 C   0  0  0  0  0  0  0  0  0  0  0  0
  -29.6005  -12.2367   18.3647 C   0  0  0  0  0  0  0  0  0  0  0  0
  -27.9424  -27.2017   14.5819 C   0  0  0  0  0  0  0  0  0  0  0  0
  -28.1502  -11.9779   18.7794 C   0  0  0  0  0  0  0  0  0  0  0  0
  -30.5014  -12.4799   19.5742 C   0  0  0  0  0  0  0  0  0  0  0  0
  -28.5862  -13.2668   20.9092 C   0  0  0  0  0  0  0  0  0  0  0  0
  -28.2760  -27.1352   16.0772 C   0  0  1  0  0  0  0  0  0  0  0  0
  -30.4321  -24.0685   16.6931 C   0  0  1  0  0  0  0  0  0  0  0  0
  -27.6281  -13.0805   19.7213 C   0  0  2  0  0  0  0  0  0  0  0  0
  -31.9313  -16.3876   16.3033 C   0  0  0  0  0  0  0  0  0  0  0  0
  -30.4892  -21.9682   26.0613 C   0  0  0  0  0  0  0  0  0  0  0  0
  -27.9985  -22.2257   25.7658 C   0  0  0  0  0  0  0  0  0  0  0  0
  -27.2774  -21.2959   14.7640 C   0  0  0  0  0  0  0  0  0  0  0  0
  -27.8518  -18.8592   14.7428 C   0  0  0  0  0  0  0  0  0  0  0  0
  -29.0098  -20.4253   13.1843 C   0  0  0  0  0  0  0  0  0  0  0  0
  -33.8791  -19.5999   16.9061 C   0  0  0  0  0  0  0  0  0  0  0  0
  -29.5954  -23.0429   23.9951 C   0  0  0  0  0  0  0  0  0  1  0  0
  -29.5659  -20.4932   15.6498 C   0  0  1  0  0  0  0  0  0  0  0  0
  -32.2530  -17.8651   16.1412 C   0  0  2  0  0  0  0  0  0  0  0  0
  -33.0878  -19.4389   22.0282 C   0  0  0  0  0  0  0  0  0  0  0  0
  -29.3304  -21.9414   25.0490 C   0  0  0  0  0  0  0  0  0  0  0  0
  -28.4302  -20.2840   14.6087 C   0  0  0  0  0  0  0  0  0  0  0  0
  -25.8074  -11.5318   20.3278 N   0  0  0  0  0  0  0  0  0  0  0  0
  -31.7546  -17.4239   21.6129 N   0  0  0  0  0  0  0  0  0  0  0  0
  -26.2065  -12.8060   20.1747 N   0  0  0  0  0  0  0  0  0  0  0  0
  -30.0617  -22.6530   16.7514 N   0  0  0  0  0  0  0  0  0  0  0  0
  -29.9461  -13.5400   20.4184 N   0  0  0  0  0  0  0  0  0  0  0  0
  -25.4719  -15.0504   20.3582 N   0  0  0  0  0  0  0  0  0  0  0  0
  -21.8311  -12.6613   21.5552 N   0  0  0  0  0  0  0  0  0  0  0  0
  -30.4482  -20.2450   23.6631 N   0  0  0  0  0  0  0  0  0  0  0  0
  -30.0739  -15.6432   21.4780 N   0  0  0  0  0  0  0  0  0  0  0  0
  -29.3585  -26.2039   16.3125 N   0  0  0  0  0  0  0  0  0  0  0  0
  -30.6835  -19.5661   15.5093 N   0  0  0  0  0  0  0  0  0  0  0  0
  -33.4381  -18.1836   16.9869 N   0  3  0  0  0  0  0  0  0  0  0  0
  -22.6446  -14.7815   21.2362 O   0  0  0  0  0  0  0  0  0  0  0  0
  -28.0948  -24.2505   16.4120 O   0  0  0  0  0  0  0  0  0  0  0  0
  -30.6910  -22.2625   14.5406 O   0  0  0  0  0  0  0  0  0  0  0  0
  -30.5471  -18.6776   17.6468 O   0  0  0  0  0  0  0  0  0  0  0  0
  -28.2867  -19.8352   24.4449 O   0  0  0  0  0  0  0  0  0  0  0  0
  -31.8567  -14.8288   20.2371 O   0  0  0  0  0  0  0  0  0  0  0  0
  -21.4680   -7.1073   21.7913 O   0  0  0  0  0  0  0  0  0  0  0  0
  -28.8570  -22.7937   22.7997 O   0  0  0  0  0  0  0  0  0  1  0  0
  -23.7931   -3.0856   24.7619 F   0  0  0  0  0  0  0  0  0  0  0  0
  -20.3732   -6.3098   24.2013 F   0  0  0  0  0  0  0  0  0  0  0  0
  -33.0880  -20.6597   22.6537 F   0  0  0  0  0  0  0  0  0  0  0  0
  -34.2111  -18.8104   22.5019 F   0  0  0  0  0  0  0  0  0  0  0  0
  -33.3645  -19.7149   20.7147 F   0  0  0  0  0  0  0  0  0  0  0  0
  -29.5304  -17.8499   22.8593 S   0  0  0  0  0  0  0  0  0  0  0  0
  1  2  1  0  0  0  0
  1  5  2  0  0  0  0
  2  6  2  0  0  0  0
  3  8  2  0  0  0  0
  3 15  1  0  0  0  0
  4  9  1  0  0  0  0
  4 15  2  0  0  0  0
  5 17  1  0  0  0  0
  6 19  1  0  0  0  0
  7 10  2  0  0  0  0
  7 18  1  0  0  0  0
  8 21  1  0  0  0  0
  9 21  2  0  0  0  0
 10 22  1  0  0  0  0
 11 12  2  0  0  0  0
 11 23  1  0  0  0  0
 12 24  1  0  0  0  0
 13 20  1  0  0  0  0
 13 22  2  0  0  0  0
 14 24  2  0  0  0  0
 14 25  1  0  0  0  0
 15 26  1  0  0  0  0
 16 26  1  0  0  0  0
 16 28  2  0  0  0  0
 16 31  1  0  0  0  0
 17 19  2  0  0  0  0
 17 37  1  0  0  0  0
 18 20  2  0  0  0  0
 18 38  1  0  0  0  0
 19 46  1  0  0  0  0
 20 39  1  0  0  0  0
 21 80  1  0  0  0  0
 22 81  1  0  0  0  0
 23 25  2  0  0  0  0
 23 80  1  0  0  0  0
 24 82  1  0  0  0  0
 25 83  1  0  0  0  0
 26 62  2  0  0  0  0
 27 29  2  0  0  0  0
 27 59  1  0  0  0  0
 27 63  1  0  0  0  0
 28 64  1  0  0  0  0
 28 67  1  0  0  0  0
 29 69  1  0  0  0  0
 29 87  1  0  0  0  0
 30 63  2  0  0  0  0
 30 70  1  0  0  0  0
 30 87  1  0  0  0  0
 31 68  1  0  0  0  0
 31 74  2  0  0  0  0
 32 47  1  0  0  0  0
 32 71  1  0  0  0  0
 32 75  2  0  0  0  0
 33 57  1  0  0  0  0
 33 65  1  0  0  0  0
 33 76  2  0  0  0  0
 34 58  1  0  0  0  0
 34 72  1  0  0  0  0
 34 77  2  0  0  0  0
 35 60  1  0  0  0  0
 35 69  1  0  0  0  0
 35 78  2  0  0  0  0
 36 66  1  0  0  0  0
 36 70  1  0  0  0  0
 36 79  2  0  0  0  0
 37 40  1  0  0  0  0
 38 47  1  0  0  0  0
 39 65  1  0  0  0  0
 40 42  1  0  0  0  0
 41 43  1  0  0  0  0
 41 44  1  0  0  0  0
 42 46  1  0  0  0  0
 43 48  1  0  0  0  0
 44 66  1  0  0  0  0
 45 48  1  0  0  0  0
 45 66  1  0  0  0  0
 46 71  1  0  0  0  0
 47 65  1  0  0  0  0
 48 64  1  0  0  0  0
 49 58  1  0  0  0  0
 50 60  1  0  0  0  0
 51 60  1  0  0  0  0
 52 61  1  0  0  0  0
 53 61  1  0  0  0  0
 54 61  1  0  0  0  0
 55 73  1  0  0  0  0
 56 60  1  0  0  0  0
 56 81  1  0  0  0  0
 57 61  1  0  0  0  0
 57 72  1  0  0  0  0
 58 73  1  0  0  0  0
 59 84  1  0  0  0  0
 59 85  1  0  0  0  0
 59 86  1  0  0  0  0
 62 64  1  0  0  0  0
M  CHG  1  73   1
M  ISO  4  36 100  56 101  70 100  81 101
M  END
> <Batch ID>
0182

> <Smiles>
CNC(C)C(=O)NC(C(=O)N1Cc2cc([101O:1][101CH2:1]C(C)(C)C(=O)Nc3sc([100NH:0][100C:0](=O)N4CCCC(n5nc(-c6ccc(Oc7ccc(F)cc7F)cc6)c(C(N)=O)c5N)C4)nc3C(F)(F)F)ccc2CC1C(=O)NC1CCCc2ccccc21)C(C)(C)C

> <Shape>
0.233

> <Color>
0.190

> <Negative vol penalty>
0.000

$$$$

  -OEChem-04052304563D

 88 96  0     1  0  0  0  0  0999 V2000
  -26.2271  -35.1791   23.0434 C   0  0  0  0  0  0  0  0  0  0  0  0
  -26.8356  -33.9299   23.1112 C   0  0  0  0  0  0  0  0  0  0  0  0
  -24.8353   -8.6315   21.0770 C   0  0  0  0  0  0  0  0  0  0  0  0
  -23.1143  -10.0617   20.1660 C   0  0  0  0  0  0  0  0  0  0  0  0
  -24.8411  -35.2848   23.1516 C   0  0  0  0  0  0  0  0  0  0  0  0
  -26.0585  -32.7857   23.2883 C   0  0  0  0  0  0  0  0  0  0  0  0
  -27.1008  -27.2273   20.9381 C   0  0  0  0  0  0  0  0  0  0  0  0
  -23.8788   -7.6533   21.3485 C   0  0  0  0  0  0  0  0  0  0  0  0
  -22.1577   -9.0835   20.4375 C   0  0  0  0  0  0  0  0  0  0  0  0
  -27.6822  -26.0776   21.4709 C   0  0  0  0  0  0  0  0  0  0  0  0
  -21.5184   -7.0616   23.6944 C   0  0  0  0  0  0  0  0  0  0  0  0
  -21.5659   -6.4383   24.9413 C   0  0  0  0  0  0  0  0  0  0  0  0
  -25.4913  -25.2332   22.0242 C   0  0  0  0  0  0  0  0  0  0  0  0
  -21.8824   -4.3007   23.8607 C   0  0  0  0  0  0  0  0  0  0  0  0
  -24.4531   -9.8357   20.4857 C   0  0  0  0  0  0  0  0  0  0  0  0
  -26.1912  -10.9977   19.0241 C   0  0  0  0  0  0  0  0  0  0  0  0
  -24.0457  -34.1404   23.3204 C   0  0  0  0  0  0  0  0  0  0  0  0
  -25.7085  -27.3938   20.9542 C   0  0  0  0  0  0  0  0  0  0  0  0
  -24.6606  -32.8764   23.4002 C   0  0  0  0  0  0  0  0  0  0  0  0
  -24.8945  -26.3848   21.4887 C   0  0  0  0  0  0  0  0  0  0  0  0
  -22.5400   -7.8793   21.0288 C   0  0  0  0  0  0  0  0  0  0  0  0
  -26.8777  -25.0816   22.0167 C   0  0  0  0  0  0  0  0  0  0  0  0
  -21.6529   -6.3045   22.5306 C   0  0  0  0  0  0  0  0  0  0  0  0
  -21.7479   -5.0579   25.0245 C   0  0  0  0  0  0  0  0  0  0  0  0
  -21.8349   -4.9241   22.6138 C   0  0  0  0  0  0  0  0  0  0  0  0
  -25.4407  -10.8468   20.2055 C   0  0  0  0  0  0  0  0  0  0  0  0
  -28.6904  -19.6094   16.9124 C   0  0  0  0  0  0  0  0  0  0  0  0
  -29.0431  -20.1908   18.1122 C   0  0  0  0  0  0  0  0  0  0  0  0
  -26.9806  -12.0973   19.2569 C   0  0  0  0  0  0  0  0  0  0  0  0
  -28.1199  -18.3604   18.8915 C   0  0  0  0  0  0  0  0  0  0  0  0
  -26.1761  -10.2140   17.8235 C   0  0  0  0  0  0  0  0  0  0  0  0
  -23.7147  -29.4851   22.2788 C   0  0  0  0  0  0  0  0  0  0  0  0
  -28.7839  -22.6219   20.0676 C   0  0  0  0  0  0  0  0  0  0  0  0
  -21.4917  -27.8639   20.5606 C   0  0  0  0  0  0  0  0  0  0  0  0
  -20.5824  -24.9688   18.9991 C   0  0  0  0  0  0  0  0  0  0  0  0
  -27.6602  -17.2971   21.1286 C   0  0  0  0  0  0  0  0  0  0  0  0
  -22.5555  -34.3092   23.4798 C   0  0  0  0  0  0  0  0  0  0  0  0
  -25.0953  -28.6278   20.3514 C   0  0  0  0  0  0  0  0  0  0  0  0
  -23.3935  -26.5060   21.5118 C   0  0  0  0  0  0  0  0  0  0  0  0
  -21.7720  -33.0128   23.2904 C   0  0  0  0  0  0  0  0  0  0  0  0
  -27.8680  -14.6712   23.5241 C   0  0  0  0  0  0  0  0  0  0  0  0
  -22.4254  -31.8755   24.0692 C   0  0  0  0  0  0  0  0  0  0  0  0
  -27.3168  -13.4545   22.7771 C   0  0  0  0  0  0  0  0  0  0  0  0
  -27.1250  -15.9520   23.1483 C   0  0  0  0  0  0  0  0  0  0  0  0
  -26.4977  -15.0089   20.9605 C   0  0  0  0  0  0  0  0  0  0  0  0
  -23.8496  -31.6097   23.5668 C   0  0  1  0  0  0  0  0  0  0  0  0
  -23.6970  -28.9223   20.8857 C   0  0  1  0  0  0  0  0  0  0  0  0
  -27.2572  -13.7057   21.2575 C   0  0  2  0  0  0  0  0  0  0  0  0
  -28.8825  -20.0840   15.5265 C   0  0  0  0  0  0  0  0  0  0  0  0
  -18.6910  -23.9329   17.7156 C   0  0  0  0  0  0  0  0  0  0  0  0
  -32.2573  -22.8086   21.5158 C   0  0  0  0  0  0  0  0  0  0  0  0
  -32.6871  -24.8426   20.1238 C   0  0  0  0  0  0  0  0  0  0  0  0
  -26.3989  -21.8482   23.0058 C   0  0  0  0  0  0  0  0  0  0  0  0
  -19.9327  -27.4982   23.1579 C   0  0  0  0  0  0  0  0  0  0  0  0
  -18.6050  -25.7022   22.0266 C   0  0  0  0  0  0  0  0  0  0  0  0
  -18.5247  -28.0414   21.1637 C   0  0  0  0  0  0  0  0  0  0  0  0
  -22.2717  -24.5753   16.6011 C   0  0  0  0  0  0  0  0  0  0  0  0
  -28.3248  -22.0355   21.3970 C   0  0  0  0  0  0  0  0  0  0  0  0
  -31.1421  -23.0723   19.2326 C   0  0  0  0  0  0  0  0  0  0  0  0
  -30.0523  -22.0210   19.4752 C   0  0  2  0  0  0  0  0  0  0  0  0
  -20.6139  -26.6617   20.8122 C   0  0  1  0  0  0  0  0  0  0  0  0
  -19.9965  -24.7075   17.6232 C   0  0  2  0  0  0  0  0  0  0  0  0
  -31.6503  -23.7821   20.5047 C   0  0  0  0  0  0  0  0  0  0  0  0
  -27.0692  -22.7122   21.9458 C   0  0  2  0  0  0  0  0  0  1  0  0
  -19.4475  -26.9742   21.7915 C   0  0  0  0  0  0  0  0  0  0  0  0
  -25.7277  -11.7761   21.1209 N   0  0  0  0  0  0  0  0  0  0  0  0
  -28.7164  -19.4763   19.2482 N   0  0  0  0  0  0  0  0  0  0  0  0
  -26.6674  -12.5214   20.5147 N   0  0  0  0  0  0  0  0  0  0  0  0
  -22.8417  -27.7341   20.9161 N   0  0  0  0  0  0  0  0  0  0  0  0
  -27.1128  -16.1262   21.6942 N   0  0  0  0  0  0  0  0  0  0  0  0
  -27.9052  -12.7331   18.5063 N   0  0  0  0  0  0  0  0  0  0  0  0
  -25.3049   -9.1185   17.7516 N   0  0  0  0  0  0  0  0  0  0  0  0
  -29.6833  -21.4133   18.2145 N   0  0  0  0  0  0  0  0  0  0  0  0
  -27.6220  -17.3367   19.7352 N   0  0  0  0  0  0  0  0  0  0  0  0
  -23.8172  -30.8623   22.3279 N   0  0  0  0  0  0  0  0  0  0  0  0
  -20.1829  -26.1894   19.5009 N   0  0  0  0  0  0  0  0  0  0  0  0
  -20.9524  -23.9201   16.7942 N   0  3  0  0  0  0  0  0  0  0  0  0
  -26.9252  -10.4676   16.8498 O   0  0  0  0  0  0  0  0  0  0  0  0
  -23.6393  -28.7263   23.2380 O   0  0  0  0  0  0  0  0  0  0  0  0
  -28.1516  -23.4998   19.4806 O   0  0  0  0  0  0  0  0  0  0  0  0
  -20.9992  -28.8781   20.0602 O   0  0  0  0  0  0  0  0  0  0  0  0
  -21.3177  -24.1684   19.5729 O   0  0  0  0  0  0  0  0  0  0  0  0
  -28.1530  -18.1863   21.8275 O   0  0  0  0  0  0  0  0  0  0  0  0
  -21.6063   -6.9249   21.2934 O   0  0  0  0  0  0  0  0  0  0  0  0
  -27.4458  -23.9525   22.5409 O   0  0  0  0  0  0  0  0  0  1  0  0
  -21.7950   -4.4597   26.2220 F   0  0  0  0  0  0  0  0  0  0  0  0
  -21.9659   -4.1916   21.4992 F   0  0  0  0  0  0  0  0  0  0  0  0
  -27.9194  -18.1059   17.2063 S   0  0  0  0  0  0  0  0  0  0  0  0
  1  2  1  0  0  0  0
  1  5  2  0  0  0  0
  2  6  2  0  0  0  0
  3  8  2  0  0  0  0
  3 15  1  0  0  0  0
  4  9  1  0  0  0  0
  4 15  2  0  0  0  0
  5 17  1  0  0  0  0
  6 19  1  0  0  0  0
  7 10  2  0  0  0  0
  7 18  1  0  0  0  0
  8 21  1  0  0  0  0
  9 21  2  0  0  0  0
 10 22  1  0  0  0  0
 11 12  2  0  0  0  0
 11 23  1  0  0  0  0
 12 24  1  0  0  0  0
 13 20  1  0  0  0  0
 13 22  2  0  0  0  0
 14 24  2  0  0  0  0
 14 25  1  0  0  0  0
 15 26  1  0  0  0  0
 16 26  1  0  0  0  0
 16 29  2  0  0  0  0
 16 31  1  0  0  0  0
 17 19  2  0  0  0  0
 17 37  1  0  0  0  0
 18 20  2  0  0  0  0
 18 38  1  0  0  0  0
 19 46  1  0  0  0  0
 20 39  1  0  0  0  0
 21 84  1  0  0  0  0
 22 85  1  0  0  0  0
 23 25  2  0  0  0  0
 23 84  1  0  0  0  0
 24 86  1  0  0  0  0
 25 87  1  0  0  0  0
 26 66  2  0  0  0  0
 27 28  2  0  0  0  0
 27 49  1  0  0  0  0
 27 88  1  0  0  0  0
 28 67  1  0  0  0  0
 28 73  1  0  0  0  0
 29 68  1  0  0  0  0
 29 71  1  0  0  0  0
 30 67  2  0  0  0  0
 30 74  1  0  0  0  0
 30 88  1  0  0  0  0
 31 72  1  0  0  0  0
 31 78  2  0  0  0  0
 32 47  1  0  0  0  0
 32 75  1  0  0  0  0
 32 79  2  0  0  0  0
 33 58  1  0  0  0  0
 33 60  1  0  0  0  0
 33 80  2  0  0  0  0
 34 61  1  0  0  0  0
 34 69  1  0  0  0  0
 34 81  2  0  0  0  0
 35 62  1  0  0  0  0
 35 76  1  0  0  0  0
 35 82  2  0  0  0  0
 36 70  1  0  0  0  0
 36 74  1  0  0  0  0
 36 83  2  0  0  0  0
 37 40  1  0  0  0  0
 38 47  1  0  0  0  0
 39 69  1  0  0  0  0
 40 42  1  0  0  0  0
 41 43  1  0  0  0  0
 41 44  1  0  0  0  0
 42 46  1  0  0  0  0
 43 48  1  0  0  0  0
 44 70  1  0  0  0  0
 45 48  1  0  0  0  0
 45 70  1  0  0  0  0
 46 75  1  0  0  0  0
 47 69  1  0  0  0  0
 48 68  1  0  0  0  0
 50 62  1  0  0  0  0
 51 63  1  0  0  0  0
 52 63  1  0  0  0  0
 53 64  1  0  0  0  0
 54 65  1  0  0  0  0
 55 65  1  0  0  0  0
 56 65  1  0  0  0  0
 57 77  1  0  0  0  0
 58 64  1  0  0  0  0
 59 60  1  0  0  0  0
 59 63  1  0  0  0  0
 60 73  1  0  0  0  0
 61 65  1  0  0  0  0
 61 76  1  0  0  0  0
 62 77  1  0  0  0  0
 64 85  1  0  0  0  0
 66 68  1  0  0  0  0
M  CHG  1  77   1
M  ISO  4  36 100  64 101  74 100  85 101
M  END
> <Batch ID>
0182

> <Smiles>
CNC(C)C(=O)NC(C(=O)N1Cc2cc([101O:1][101CH:1](C)CC(=O)C(CC(C)C)Nc3nc([100NH:0][100C:0](=O)N4CCCC(n5nc(-c6ccc(Oc7ccc(F)cc7F)cc6)c(C(N)=O)c5N)C4)sc3C)ccc2CC1C(=O)NC1CCCc2ccccc21)C(C)(C)C

> <Shape>
0.287

> <Color>
0.086

> <Negative vol penalty>
0.000

$$$$

  -OEChem-04052304563D

 86 94  0     1  0  0  0  0  0999 V2000
  -17.7933  -32.7455   21.6319 C   0  0  0  0  0  0  0  0  0  0  0  0
  -19.0163  -32.6282   20.9793 C   0  0  0  0  0  0  0  0  0  0  0  0
  -26.4143  -12.8011   21.5428 C   0  0  0  0  0  0  0  0  0  0  0  0
  -26.0042  -13.6427   19.3156 C   0  0  0  0  0  0  0  0  0  0  0  0
  -17.6183  -32.1719   22.8905 C   0  0  0  0  0  0  0  0  0  0  0  0
  -20.0654  -31.9380   21.5854 C   0  0  0  0  0  0  0  0  0  0  0  0
  -24.3187  -28.5215   18.8029 C   0  0  0  0  0  0  0  0  0  0  0  0
  -25.1782  -12.1552   21.5264 C   0  0  0  0  0  0  0  0  0  0  0  0
  -24.7680  -12.9967   19.2992 C   0  0  0  0  0  0  0  0  0  0  0  0
  -25.6312  -28.7890   18.4163 C   0  0  0  0  0  0  0  0  0  0  0  0
  -23.8609   -9.3304   20.2157 C   0  0  0  0  0  0  0  0  0  0  0  0
  -23.8115   -8.0136   20.6729 C   0  0  0  0  0  0  0  0  0  0  0  0
  -26.4307  -27.7929   20.4627 C   0  0  0  0  0  0  0  0  0  0  0  0
  -22.2386   -8.6675   22.3862 C   0  0  0  0  0  0  0  0  0  0  0  0
  -28.9275  -21.9387   15.9122 C   0  0  0  0  0  0  0  0  0  0  0  0
  -26.8273  -13.5449   20.4374 C   0  0  0  0  0  0  0  0  0  0  0  0
  -29.3412  -13.6926   20.0294 C   0  0  0  0  0  0  0  0  0  0  0  0
  -18.6627  -31.4660   23.5083 C   0  0  0  0  0  0  0  0  0  0  0  0
  -24.0513  -27.8964   20.0294 C   0  0  0  0  0  0  0  0  0  0  0  0
  -19.9046  -31.3555   22.8541 C   0  0  0  0  0  0  0  0  0  0  0  0
  -25.1140  -27.5163   20.8614 C   0  0  0  0  0  0  0  0  0  0  0  0
  -24.3550  -12.2530   20.4046 C   0  0  0  0  0  0  0  0  0  0  0  0
  -26.6873  -28.4273   19.2475 C   0  0  0  0  0  0  0  0  0  0  0  0
  -23.0993  -10.3158   20.8438 C   0  0  0  0  0  0  0  0  0  0  0  0
  -23.0004   -7.6821   21.7581 C   0  0  0  0  0  0  0  0  0  0  0  0
  -22.2881   -9.9844   21.9290 C   0  0  0  0  0  0  0  0  0  0  0  0
  -29.4199  -23.2166   16.1529 C   0  0  0  0  0  0  0  0  0  0  0  0
  -28.8742  -21.0136   16.9489 C   0  0  0  0  0  0  0  0  0  0  0  0
  -28.1039  -14.2129   20.4540 C   0  0  0  0  0  0  0  0  0  0  0  0
  -29.8433  -23.5172   17.4375 C   0  0  0  0  0  0  0  0  0  0  0  0
  -29.3222  -21.4128   18.1978 C   0  0  0  0  0  0  0  0  0  0  0  0
  -30.2357  -14.7115   20.2487 C   0  0  0  0  0  0  0  0  0  0  0  0
  -29.6539  -12.4035   19.4852 C   0  0  0  0  0  0  0  0  0  0  0  0
  -22.4846  -28.7168   22.6706 C   0  0  0  0  0  0  0  0  0  0  0  0
  -23.0986  -25.6473   23.5210 C   0  0  0  0  0  0  0  0  0  0  0  0
  -30.8198  -25.3401   18.8755 C   0  0  0  0  0  0  0  0  0  0  0  0
  -25.0546  -22.8750   23.1533 C   0  0  0  0  0  0  0  0  0  0  0  0
  -29.6590  -20.6500   20.5750 C   0  0  0  0  0  0  0  0  0  0  0  0
  -18.4411  -30.9036   24.8900 C   0  0  0  0  0  0  0  0  0  0  0  0
  -22.6312  -27.5907   20.4198 C   0  0  0  0  0  0  0  0  0  0  0  0
  -24.8813  -26.8246   22.1790 C   0  0  0  0  0  0  0  0  0  0  0  0
  -19.4847  -29.8680   25.3007 C   0  0  0  0  0  0  0  0  0  0  0  0
  -30.9771  -18.4975   23.0862 C   0  0  0  0  0  0  0  0  0  0  0  0
  -20.8889  -30.3672   24.9754 C   0  0  0  0  0  0  0  0  0  0  0  0
  -30.5076  -17.1064   22.6542 C   0  0  0  0  0  0  0  0  0  0  0  0
  -29.9254  -19.5666   22.7954 C   0  0  0  0  0  0  0  0  0  0  0  0
  -28.9677  -18.2058   20.9789 C   0  0  0  0  0  0  0  0  0  0  0  0
  -21.0587  -30.5934   23.4683 C   0  0  1  0  0  0  0  0  0  0  0  0
  -22.4501  -27.4133   21.9241 C   0  0  1  0  0  0  0  0  0  0  0  0
  -30.0196  -17.1051   21.1922 C   0  0  2  0  0  0  0  0  0  0  0  0
  -32.4538  -26.9073   17.7495 C   0  0  0  0  0  0  0  0  0  0  0  0
  -25.3328  -20.5327   24.0098 C   0  0  0  0  0  0  0  0  0  0  0  0
  -24.3193  -26.7366   26.0965 C   0  0  0  0  0  0  0  0  0  0  0  0
  -25.4021  -24.5063   26.4444 C   0  0  0  0  0  0  0  0  0  0  0  0
  -22.9148  -24.6886   26.3925 C   0  0  0  0  0  0  0  0  0  0  0  0
  -24.6185  -21.7163   20.4651 C   0  0  0  0  0  0  0  0  0  0  0  0
  -30.1052  -27.7117   18.3165 C   0  0  0  0  0  0  0  0  0  0  0  0
  -28.9776  -27.7937   19.3422 C   0  0  0  0  0  0  0  0  0  1  0  0
  -24.2213  -24.9420   24.2429 C   0  0  1  0  0  0  0  0  0  0  0  0
  -31.2751  -26.7965   18.7164 C   0  0  1  0  0  0  0  0  0  0  0  0
  -24.7014  -21.4136   22.9431 C   0  0  2  0  0  0  0  0  0  0  0  0
  -24.2190  -25.2332   25.7702 C   0  0  0  0  0  0  0  0  0  0  0  0
  -28.1999  -15.4650   20.9089 N   0  0  0  0  0  0  0  0  0  0  0  0
  -29.8069  -22.6451   18.4698 N   0  0  0  0  0  0  0  0  0  0  0  0
  -29.5082  -15.7400   20.7714 N   0  0  0  0  0  0  0  0  0  0  0  0
  -23.4749  -26.5532   22.5192 N   0  0  0  0  0  0  0  0  0  0  0  0
  -29.5140  -19.5082   21.3911 N   0  0  0  0  0  0  0  0  0  0  0  0
  -31.5656  -14.8191   20.0437 N   0  0  0  0  0  0  0  0  0  0  0  0
  -28.6157  -11.4755   19.3265 N   0  0  0  0  0  0  0  0  0  0  0  0
  -30.3433  -24.8195   17.6760 N   0  0  0  0  0  0  0  0  0  0  0  0
  -29.2648  -20.4657   19.2502 N   0  0  0  0  0  0  0  0  0  0  0  0
  -21.2525  -29.3316   22.7865 N   0  0  0  0  0  0  0  0  0  0  0  0
  -24.1001  -23.5283   23.9039 N   0  0  0  0  0  0  0  0  0  0  0  0
  -25.1791  -20.9520   21.6090 N   0  3  0  0  0  0  0  0  0  0  0  0
  -30.8223  -12.0783   19.1649 O   0  0  0  0  0  0  0  0  0  0  0  0
  -23.5500  -29.1333   23.1103 O   0  0  0  0  0  0  0  0  0  0  0  0
  -21.9305  -25.3981   23.8295 O   0  0  0  0  0  0  0  0  0  0  0  0
  -30.8935  -24.7592   19.9547 O   0  0  0  0  0  0  0  0  0  0  0  0
  -26.0770  -23.3849   22.7003 O   0  0  0  0  0  0  0  0  0  0  0  0
  -30.1258  -21.7050   21.0121 O   0  0  0  0  0  0  0  0  0  0  0  0
  -23.1488  -11.6226   20.3881 O   0  0  0  0  0  0  0  0  0  0  0  0
  -27.9693  -28.6879   18.8728 O   0  0  0  0  0  0  0  0  0  1  0  0
  -22.9518   -6.4172   22.1961 F   0  0  0  0  0  0  0  0  0  0  0  0
  -21.5532  -10.9265   22.5357 F   0  0  0  0  0  0  0  0  0  0  0  0
  -29.4772  -24.1178   15.1637 F   0  0  0  0  0  0  0  0  0  0  0  0
  -28.4018  -19.7794   16.7315 F   0  0  0  0  0  0  0  0  0  0  0  0
  1  2  1  0  0  0  0
  1  5  2  0  0  0  0
  2  6  2  0  0  0  0
  3  8  2  0  0  0  0
  3 16  1  0  0  0  0
  4  9  1  0  0  0  0
  4 16  2  0  0  0  0
  5 18  1  0  0  0  0
  6 20  1  0  0  0  0
  7 10  2  0  0  0  0
  7 19  1  0  0  0  0
  8 22  1  0  0  0  0
  9 22  2  0  0  0  0
 10 23  1  0  0  0  0
 11 12  2  0  0  0  0
 11 24  1  0  0  0  0
 12 25  1  0  0  0  0
 13 21  1  0  0  0  0
 13 23  2  0  0  0  0
 14 25  2  0  0  0  0
 14 26  1  0  0  0  0
 15 27  1  0  0  0  0
 15 28  2  0  0  0  0
 16 29  1  0  0  0  0
 17 29  1  0  0  0  0
 17 32  2  0  0  0  0
 17 33  1  0  0  0  0
 18 20  2  0  0  0  0
 18 39  1  0  0  0  0
 19 21  2  0  0  0  0
 19 40  1  0  0  0  0
 20 48  1  0  0  0  0
 21 41  1  0  0  0  0
 22 81  1  0  0  0  0
 23 82  1  0  0  0  0
 24 26  2  0  0  0  0
 24 81  1  0  0  0  0
 25 83  1  0  0  0  0
 26 84  1  0  0  0  0
 27 30  2  0  0  0  0
 27 85  1  0  0  0  0
 28 31  1  0  0  0  0
 28 86  1  0  0  0  0
 29 63  2  0  0  0  0
 30 64  1  0  0  0  0
 30 70  1  0  0  0  0
 31 64  2  0  0  0  0
 31 71  1  0  0  0  0
 32 65  1  0  0  0  0
 32 68  1  0  0  0  0
 33 69  1  0  0  0  0
 33 75  2  0  0  0  0
 34 49  1  0  0  0  0
 34 72  1  0  0  0  0
 34 76  2  0  0  0  0
 35 59  1  0  0  0  0
 35 66  1  0  0  0  0
 35 77  2  0  0  0  0
 36 60  1  0  0  0  0
 36 70  1  0  0  0  0
 36 78  2  0  0  0  0
 37 61  1  0  0  0  0
 37 73  1  0  0  0  0
 37 79  2  0  0  0  0
 38 67  1  0  0  0  0
 38 71  1  0  0  0  0
 38 80  2  0  0  0  0
 39 42  1  0  0  0  0
 40 49  1  0  0  0  0
 41 66  1  0  0  0  0
 42 44  1  0  0  0  0
 43 45  1  0  0  0  0
 43 46  1  0  0  0  0
 44 48  1  0  0  0  0
 45 50  1  0  0  0  0
 46 67  1  0  0  0  0
 47 50  1  0  0  0  0
 47 67  1  0  0  0  0
 48 72  1  0  0  0  0
 49 66  1  0  0  0  0
 50 65  1  0  0  0  0
 51 60  1  0  0  0  0
 52 61  1  0  0  0  0
 53 62  1  0  0  0  0
 54 62  1  0  0  0  0
 55 62  1  0  0  0  0
 56 74  1  0  0  0  0
 57 58  1  0  0  0  0
 57 60  1  0  0  0  0
 58 82  1  0  0  0  0
 59 62  1  0  0  0  0
 59 73  1  0  0  0  0
 61 74  1  0  0  0  0
 63 65  1  0  0  0  0
M  CHG  1  74   1
M  ISO  4  38 100  58 101  71 100  82 101
M  END
> <Batch ID>
0182

> <Smiles>
CNC(C)C(=O)NC(C(=O)N1Cc2cc([101O:1][101CH2:1]CC(C)C(=O)Nc3nc([100NH:0][100C:0](=O)N4CCCC(n5nc(-c6ccc(Oc7ccc(F)cc7F)cc6)c(C(N)=O)c5N)C4)c(F)cc3F)ccc2CC1C(=O)NC1CCCc2ccccc21)C(C)(C)C

> <Shape>
0.266

> <Color>
0.112

> <Negative vol penalty>
0.000

$$$$

  -OEChem-04052304563D

 85 93  0     1  0  0  0  0  0999 V2000
  -24.8956   -7.3094   24.5028 C   0  0  0  0  0  0  0  0  0  0  0  0
  -25.9681   -8.1085   24.1196 C   0  0  0  0  0  0  0  0  0  0  0  0
  -25.0025  -30.8803   21.0438 C   0  0  0  0  0  0  0  0  0  0  0  0
  -24.6951  -29.4419   22.9605 C   0  0  0  0  0  0  0  0  0  0  0  0
  -23.7101   -7.3373   23.7695 C   0  0  0  0  0  0  0  0  0  0  0  0
  -25.8559   -8.9350   23.0021 C   0  0  0  0  0  0  0  0  0  0  0  0
  -28.3848  -14.4606   22.2415 C   0  0  0  0  0  0  0  0  0  0  0  0
  -24.3258  -31.9055   21.7045 C   0  0  0  0  0  0  0  0  0  0  0  0
  -24.0184  -30.4672   23.6212 C   0  0  0  0  0  0  0  0  0  0  0  0
  -29.5376  -14.8816   21.5799 C   0  0  0  0  0  0  0  0  0  0  0  0
  -24.9999  -34.1974   24.0973 C   0  0  0  0  0  0  0  0  0  0  0  0
  -25.5532  -35.4768   24.0472 C   0  0  0  0  0  0  0  0  0  0  0  0
  -28.2172  -15.4187   19.6338 C   0  0  0  0  0  0  0  0  0  0  0  0
  -28.2388  -20.5753   17.8442 C   0  0  0  0  0  0  0  0  0  0  0  0
  -23.5500  -36.3012   22.9772 C   0  0  0  0  0  0  0  0  0  0  0  0
  -25.1871  -29.6485   21.6717 C   0  0  0  0  0  0  0  0  0  0  0  0
  -30.4384  -19.7990   18.4734 C   0  0  0  0  0  0  0  0  0  0  0  0
  -27.2687  -28.3278   21.0157 C   0  0  0  0  0  0  0  0  0  0  0  0
  -23.5800   -8.1718   22.6482 C   0  0  0  0  0  0  0  0  0  0  0  0
  -27.1390  -14.5054   21.5993 C   0  0  0  0  0  0  0  0  0  0  0  0
  -24.6680   -8.9730   22.2524 C   0  0  0  0  0  0  0  0  0  0  0  0
  -27.0498  -15.0001   20.2903 C   0  0  0  0  0  0  0  0  0  0  0  0
  -28.1398  -21.2712   19.0489 C   0  0  0  0  0  0  0  0  0  0  0  0
  -30.3394  -20.4950   19.6782 C   0  0  0  0  0  0  0  0  0  0  0  0
  -23.8337  -31.6989   22.9932 C   0  0  0  0  0  0  0  0  0  0  0  0
  -29.4543  -15.3580   20.2749 C   0  0  0  0  0  0  0  0  0  0  0  0
  -23.7217  -33.9698   23.5872 C   0  0  0  0  0  0  0  0  0  0  0  0
  -24.8283  -36.5288   23.4872 C   0  0  0  0  0  0  0  0  0  0  0  0
  -29.3881  -19.8391   17.5564 C   0  0  0  0  0  0  0  0  0  0  0  0
  -22.9968  -35.0217   23.0272 C   0  0  0  0  0  0  0  0  0  0  0  0
  -29.1901  -21.2311   19.9659 C   0  0  0  0  0  0  0  0  0  0  0  0
  -25.8856  -28.5889   20.9895 C   0  0  0  0  0  0  0  0  0  0  0  0
  -27.4250  -27.2239   20.2134 C   0  0  0  0  0  0  0  0  0  0  0  0
  -30.6349  -17.0647   19.1959 C   0  0  0  0  0  0  0  0  0  1  0  0
  -31.6440  -19.0103   18.1423 C   0  0  0  0  0  0  0  0  0  0  0  0
  -28.3184  -29.0210   21.7037 C   0  0  0  0  0  0  0  0  0  0  0  0
  -31.6891  -17.5754   18.5487 C   0  0  0  0  0  0  0  0  0  0  0  0
  -24.9689  -12.3398   20.7600 C   0  0  0  0  0  0  0  0  0  0  0  0
  -23.2416  -14.9594   19.9373 C   0  0  0  0  0  0  0  0  0  0  0  0
  -23.2227  -18.2470   19.0218 C   0  0  0  0  0  0  0  0  0  0  0  0
  -25.8378  -22.1571   18.5366 C   0  0  0  0  0  0  0  0  0  0  0  0
  -22.2953   -8.1325   21.8592 C   0  0  0  0  0  0  0  0  0  0  0  0
  -25.9012  -14.0727   22.3361 C   0  0  0  0  0  0  0  0  0  0  0  0
  -25.7335  -15.0876   19.5636 C   0  0  0  0  0  0  0  0  0  0  0  0
  -22.1280   -9.3150   20.9085 C   0  0  0  0  0  0  0  0  0  0  0  0
  -24.1714  -24.9444   17.0766 C   0  0  0  0  0  0  0  0  0  0  0  0
  -23.4135   -9.5546   20.1231 C   0  0  0  0  0  0  0  0  0  0  0  0
  -24.5826  -26.1195   17.9666 C   0  0  0  0  0  0  0  0  0  0  0  0
  -23.9720  -23.6635   17.8849 C   0  0  0  0  0  0  0  0  0  0  0  0
  -25.5152  -24.4623   19.6311 C   0  0  0  0  0  0  0  0  0  0  0  0
  -24.5764   -9.9013   21.0607 C   0  0  1  0  0  0  0  0  0  0  0  0
  -24.7581  -13.6804   21.4050 C   0  0  1  0  0  0  0  0  0  0  0  0
  -25.7909  -25.7593   18.8531 C   0  0  2  0  0  0  0  0  0  0  0  0
  -21.6618  -20.1040   18.3794 C   0  0  0  0  0  0  0  0  0  0  0  0
  -22.8929  -13.7080   17.1765 C   0  0  0  0  0  0  0  0  0  0  0  0
  -22.1832  -15.9530   16.3253 C   0  0  0  0  0  0  0  0  0  0  0  0
  -20.8413  -14.8088   18.0896 C   0  0  0  0  0  0  0  0  0  0  0  0
  -24.0699  -19.9098   21.3187 C   0  0  0  0  0  0  0  0  0  0  0  0
  -23.0925  -15.7923   18.6871 C   0  0  1  0  0  0  0  0  0  0  0  0
  -22.4066  -19.4264   19.5191 C   0  0  2  0  0  0  0  0  0  0  0  0
  -22.2777  -15.0622   17.5823 C   0  0  0  0  0  0  0  0  0  0  0  0
  -25.2113  -27.7209   20.2306 N   0  0  0  0  0  0  0  0  0  0  0  0
  -26.1748  -26.9036   19.7724 N   0  0  0  0  0  0  0  0  0  0  0  0
  -24.5525  -14.6467   20.3242 N   0  0  0  0  0  0  0  0  0  0  0  0
  -25.1582  -23.3832   18.6968 N   0  0  0  0  0  0  0  0  0  0  0  0
  -31.3938  -20.4660   20.6185 N   0  0  0  0  0  0  0  0  0  0  0  0
  -28.5085  -26.5058   19.8493 N   0  0  0  0  0  0  0  0  0  0  0  0
  -27.9830  -30.1352   22.4850 N   0  0  0  0  0  0  0  0  0  0  0  0
  -26.9699  -22.0164   19.3386 N   0  0  0  0  0  0  0  0  0  0  0  0
  -24.4806  -11.2778   21.4971 N   0  0  0  0  0  0  0  0  0  0  0  0
  -22.5184  -17.0649   19.1105 N   0  0  0  0  0  0  0  0  0  0  0  0
  -23.2938  -20.4343   20.1657 N   0  3  0  0  0  0  0  0  0  0  0  0
  -32.5573  -19.5509   17.5270 O   0  0  0  0  0  0  0  0  0  0  0  0
  -29.5202  -28.6729   21.6147 O   0  0  0  0  0  0  0  0  0  0  0  0
  -25.5315  -12.2739   19.6734 O   0  0  0  0  0  0  0  0  0  0  0  0
  -22.2325  -14.6055   20.5521 O   0  0  0  0  0  0  0  0  0  0  0  0
  -24.3689  -18.3632   18.5936 O   0  0  0  0  0  0  0  0  0  0  0  0
  -25.4600  -21.3068   17.7266 O   0  0  0  0  0  0  0  0  0  0  0  0
  -32.8221  -16.8395   18.2747 O   0  0  0  0  0  0  0  0  0  0  0  0
  -23.1735  -32.6992   23.6384 O   0  0  0  0  0  0  0  0  0  0  0  0
  -30.5780  -15.7689   19.6266 O   0  0  0  0  0  0  0  0  0  1  0  0
  -25.3591  -37.7577   23.4406 F   0  0  0  0  0  0  0  0  0  0  0  0
  -29.4706  -19.1741   16.3952 F   0  0  0  0  0  0  0  0  0  0  0  0
  -21.7679  -34.8095   22.5367 F   0  0  0  0  0  0  0  0  0  0  0  0
  -29.0942  -21.9003   21.1252 F   0  0  0  0  0  0  0  0  0  0  0  0
  1  2  1  0  0  0  0
  1  5  2  0  0  0  0
  2  6  2  0  0  0  0
  3  8  2  0  0  0  0
  3 16  1  0  0  0  0
  4  9  1  0  0  0  0
  4 16  2  0  0  0  0
  5 19  1  0  0  0  0
  6 21  1  0  0  0  0
  7 10  2  0  0  0  0
  7 20  1  0  0  0  0
  8 25  1  0  0  0  0
  9 25  2  0  0  0  0
 10 26  1  0  0  0  0
 11 12  2  0  0  0  0
 11 27  1  0  0  0  0
 12 28  1  0  0  0  0
 13 22  1  0  0  0  0
 13 26  2  0  0  0  0
 14 23  1  0  0  0  0
 14 29  2  0  0  0  0
 15 28  2  0  0  0  0
 15 30  1  0  0  0  0
 16 32  1  0  0  0  0
 17 24  2  0  0  0  0
 17 29  1  0  0  0  0
 17 35  1  0  0  0  0
 18 32  1  0  0  0  0
 18 33  2  0  0  0  0
 18 36  1  0  0  0  0
 19 21  2  0  0  0  0
 19 42  1  0  0  0  0
 20 22  2  0  0  0  0
 20 43  1  0  0  0  0
 21 51  1  0  0  0  0
 22 44  1  0  0  0  0
 23 31  2  0  0  0  0
 23 69  1  0  0  0  0
 24 31  1  0  0  0  0
 24 66  1  0  0  0  0
 25 80  1  0  0  0  0
 26 81  1  0  0  0  0
 27 30  2  0  0  0  0
 27 80  1  0  0  0  0
 28 82  1  0  0  0  0
 29 83  1  0  0  0  0
 30 84  1  0  0  0  0
 31 85  1  0  0  0  0
 32 62  2  0  0  0  0
 33 63  1  0  0  0  0
 33 67  1  0  0  0  0
 34 37  2  0  0  0  0
 34 81  1  0  0  0  0
 35 37  1  0  0  0  0
 35 73  2  0  0  0  0
 36 68  1  0  0  0  0
 36 74  2  0  0  0  0
 37 79  1  0  0  0  0
 38 52  1  0  0  0  0
 38 70  1  0  0  0  0
 38 75  2  0  0  0  0
 39 59  1  0  0  0  0
 39 64  1  0  0  0  0
 39 76  2  0  0  0  0
 40 60  1  0  0  0  0
 40 71  1  0  0  0  0
 40 77  2  0  0  0  0
 41 65  1  0  0  0  0
 41 69  1  0  0  0  0
 41 78  2  0  0  0  0
 42 45  1  0  0  0  0
 43 52  1  0  0  0  0
 44 64  1  0  0  0  0
 45 47  1  0  0  0  0
 46 48  1  0  0  0  0
 46 49  1  0  0  0  0
 47 51  1  0  0  0  0
 48 53  1  0  0  0  0
 49 65  1  0  0  0  0
 50 53  1  0  0  0  0
 50 65  1  0  0  0  0
 51 70  1  0  0  0  0
 52 64  1  0  0  0  0
 53 63  1  0  0  0  0
 54 60  1  0  0  0  0
 55 61  1  0  0  0  0
 56 61  1  0  0  0  0
 57 61  1  0  0  0  0
 58 72  1  0  0  0  0
 59 61  1  0  0  0  0
 59 71  1  0  0  0  0
 60 72  1  0  0  0  0
 62 63  1  0  0  0  0
M  CHG  1  72   1
M  ISO  4  34 101  41 100  69 100  81 101
M  END
> <Batch ID>
0182

> <Smiles>
CNC(C)C(=O)NC(C(=O)N1Cc2cc([101O:1][101CH2:1]C(=O)C(=O)c3c(F)cc([100NH:0][100C:0](=O)N4CCCC(n5nc(-c6ccc(Oc7ccc(F)cc7F)cc6)c(C(N)=O)c5N)C4)c(F)c3N)ccc2CC1C(=O)NC1CCCc2ccccc21)C(C)(C)C

> <Shape>
0.242

> <Color>
0.083

> <Negative vol penalty>
0.000

$$$$

  -OEChem-04052304563D

 84 92  0     1  0  0  0  0  0999 V2000
  -18.6788  -25.0536   20.8831 C   0  0  0  0  0  0  0  0  0  0  0  0
  -19.6605  -25.6277   20.0818 C   0  0  0  0  0  0  0  0  0  0  0  0
  -24.6321  -14.0934   23.0135 C   0  0  0  0  0  0  0  0  0  0  0  0
  -26.0857  -14.9338   21.2763 C   0  0  0  0  0  0  0  0  0  0  0  0
  -18.0921  -25.7978   21.9058 C   0  0  0  0  0  0  0  0  0  0  0  0
  -20.0552  -26.9468   20.3019 C   0  0  0  0  0  0  0  0  0  0  0  0
  -25.0862  -27.5139   20.1879 C   0  0  0  0  0  0  0  0  0  0  0  0
  -24.8220  -12.7938   22.5438 C   0  0  0  0  0  0  0  0  0  0  0  0
  -26.2757  -13.6342   20.8066 C   0  0  0  0  0  0  0  0  0  0  0  0
  -25.6948  -27.5487   18.9341 C   0  0  0  0  0  0  0  0  0  0  0  0
  -23.6658  -10.8635   20.0215 C   0  0  0  0  0  0  0  0  0  0  0  0
  -22.5406  -10.0484   19.8997 C   0  0  0  0  0  0  0  0  0  0  0  0
  -22.9752  -23.7027   17.9504 C   0  0  0  0  0  0  0  0  0  0  0  0
  -23.7685  -24.3268   16.9448 C   0  0  0  0  0  0  0  0  0  0  0  0
  -25.7971  -29.9557   19.0572 C   0  0  0  0  0  0  0  0  0  0  0  0
  -23.5104   -8.4769   21.4576 C   0  0  0  0  0  0  0  0  0  0  0  0
  -25.2639  -15.1634   22.3797 C   0  0  0  0  0  0  0  0  0  0  0  0
  -25.8348  -17.1812   23.8323 C   0  0  0  0  0  0  0  0  0  0  0  0
  -18.4867  -27.1236   22.1448 C   0  0  0  0  0  0  0  0  0  0  0  0
  -24.8181  -28.7024   20.8822 C   0  0  0  0  0  0  0  0  0  0  0  0
  -19.4723  -27.7099   21.3279 C   0  0  0  0  0  0  0  0  0  0  0  0
  -25.1873  -29.9331   20.3208 C   0  0  0  0  0  0  0  0  0  0  0  0
  -25.6438  -12.5642   21.4404 C   0  0  0  0  0  0  0  0  0  0  0  0
  -26.0477  -28.7698   18.3672 C   0  0  0  0  0  0  0  0  0  0  0  0
  -24.7134  -10.4854   20.8614 C   0  0  0  0  0  0  0  0  0  0  0  0
  -22.4628   -8.8550   20.6177 C   0  0  0  0  0  0  0  0  0  0  0  0
  -24.6356   -9.2921   21.5794 C   0  0  0  0  0  0  0  0  0  0  0  0
  -25.0676  -16.5061   22.8641 C   0  0  0  0  0  0  0  0  0  0  0  0
  -25.2457  -18.4176   23.9363 C   0  0  0  0  0  0  0  0  0  0  0  0
  -23.5748  -22.5689   18.4529 C   0  0  0  0  0  0  0  0  0  0  0  0
  -24.9445  -23.6462   16.7171 C   0  0  0  0  0  0  0  0  0  0  0  0
  -26.9778  -16.7309   24.5716 C   0  0  0  0  0  0  0  0  0  0  0  0
  -22.1851  -30.1468   21.9237 C   0  0  0  0  0  0  0  0  0  0  0  0
  -24.3102  -32.1840   23.2860 C   0  0  0  0  0  0  0  0  0  0  0  0
  -27.4439  -33.5357   23.2751 C   0  0  0  0  0  0  0  0  0  0  0  0
  -26.5842  -26.6522   16.0891 C   0  0  0  0  0  0  0  0  0  0  0  0
  -21.9584  -21.7020   20.1798 C   0  0  0  0  0  0  0  0  0  0  0  0
  -17.7902  -27.9037   23.2316 C   0  0  0  0  0  0  0  0  0  0  0  0
  -24.1853  -28.6463   22.2456 C   0  0  0  0  0  0  0  0  0  0  0  0
  -24.9398  -31.2363   21.0342 C   0  0  0  0  0  0  0  0  0  0  0  0
  -18.5312  -29.1743   23.6397 C   0  0  0  0  0  0  0  0  0  0  0  0
  -21.0150  -20.6042   23.4328 C   0  0  0  0  0  0  0  0  0  0  0  0
  -18.9738  -29.9540   22.4056 C   0  0  0  0  0  0  0  0  0  0  0  0
  -22.0208  -19.4942   23.7467 C   0  0  0  0  0  0  0  0  0  0  0  0
  -20.6137  -20.6056   21.9588 C   0  0  0  0  0  0  0  0  0  0  0  0
  -22.7399  -19.5352   21.3243 C   0  0  0  0  0  0  0  0  0  0  0  0
  -19.9449  -29.1301   21.5515 C   0  0  1  0  0  0  0  0  0  0  0  0
  -23.4926  -29.9481   22.6368 C   0  0  1  0  0  0  0  0  0  0  0  0
  -23.2235  -19.5347   22.7837 C   0  0  2  0  0  0  0  0  0  0  0  0
  -28.8744  -35.2028   24.4882 C   0  0  0  0  0  0  0  0  0  0  0  0
  -28.5456  -28.1767   15.8461 C   0  0  0  0  0  0  0  0  0  0  0  0
  -22.8188  -34.4622   21.9092 C   0  0  0  0  0  0  0  0  0  0  0  0
  -24.7939  -35.9337   22.3583 C   0  0  0  0  0  0  0  0  0  0  0  0
  -23.5193  -34.9448   24.2610 C   0  0  0  0  0  0  0  0  0  0  0  0
  -29.4094  -31.4618   24.0463 C   0  0  0  0  0  0  0  0  0  0  0  0
  -25.0004  -33.4553   22.8541 C   0  0  1  0  0  0  0  0  0  0  0  0
  -28.4547  -33.7445   24.3882 C   0  0  2  0  0  0  0  0  0  0  0  0
  -27.4509  -27.6891   16.7801 C   0  0  1  0  0  0  0  0  0  1  0  0
  -24.0361  -34.6747   22.8311 C   0  0  0  0  0  0  0  0  0  0  0  0
  -24.0674  -17.2518   22.3871 N   0  0  0  0  0  0  0  0  0  0  0  0
  -24.2019  -18.4081   23.0585 N   0  0  0  0  0  0  0  0  0  0  0  0
  -24.3128  -31.1296   22.3620 N   0  0  0  0  0  0  0  0  0  0  0  0
  -21.8039  -20.6493   21.1066 N   0  0  0  0  0  0  0  0  0  0  0  0
  -25.5239  -19.5010   24.6922 N   0  0  0  0  0  0  0  0  0  0  0  0
  -27.4529  -15.4325   24.3420 N   0  0  0  0  0  0  0  0  0  0  0  0
  -23.1445  -21.6565   19.4480 N   0  0  0  0  0  0  0  0  0  0  0  0
  -21.2669  -29.1372   22.1403 N   0  0  0  0  0  0  0  0  0  0  0  0
  -26.1483  -33.6178   23.7397 N   0  0  0  0  0  0  0  0  0  0  0  0
  -27.0148  -25.3048   16.3195 N   0  0  0  0  0  0  0  0  0  0  0  0
  -29.6723  -32.9207   24.1434 N   0  3  0  0  0  0  0  0  0  0  0  0
  -27.5506  -17.4527   25.4227 O   0  0  0  0  0  0  0  0  0  0  0  0
  -22.0209  -31.1433   21.2295 O   0  0  0  0  0  0  0  0  0  0  0  0
  -23.7943  -32.1262   24.4050 O   0  0  0  0  0  0  0  0  0  0  0  0
  -27.7709  -33.3248   22.1092 O   0  0  0  0  0  0  0  0  0  0  0  0
  -25.6054  -26.9432   15.4102 O   0  0  0  0  0  0  0  0  0  0  0  0
  -21.1142  -22.5942   20.0646 O   0  0  0  0  0  0  0  0  0  0  0  0
  -25.7413  -24.2608   14.3311 O   0  0  0  0  0  0  0  0  0  0  0  0
  -27.2170  -22.7942   15.7503 O   0  0  0  0  0  0  0  0  0  0  0  0
  -25.8295  -11.2962   20.9819 O   0  0  0  0  0  0  0  0  0  0  0  0
  -26.6412  -28.8066   17.1432 O   0  0  0  0  0  0  0  0  0  1  0  0
  -21.3815   -8.0731   20.5018 F   0  0  0  0  0  0  0  0  0  0  0  0
  -25.6383   -8.9241   22.3887 F   0  0  0  0  0  0  0  0  0  0  0  0
  -25.0882  -22.2608   17.7133 S   0  0  0  0  0  0  0  0  0  0  0  0
  -26.3050  -23.9143   15.6214 S   0  0  0  0  0  0  0  0  0  0  0  0
  1  2  1  0  0  0  0
  1  5  2  0  0  0  0
  2  6  2  0  0  0  0
  3  8  2  0  0  0  0
  3 17  1  0  0  0  0
  4  9  1  0  0  0  0
  4 17  2  0  0  0  0
  5 19  1  0  0  0  0
  6 21  1  0  0  0  0
  7 10  2  0  0  0  0
  7 20  1  0  0  0  0
  8 23  1  0  0  0  0
  9 23  2  0  0  0  0
 10 24  1  0  0  0  0
 11 12  2  0  0  0  0
 11 25  1  0  0  0  0
 12 26  1  0  0  0  0
 13 14  1  0  0  0  0
 13 30  2  0  0  0  0
 14 31  2  0  0  0  0
 15 22  1  0  0  0  0
 15 24  2  0  0  0  0
 16 26  2  0  0  0  0
 16 27  1  0  0  0  0
 17 28  1  0  0  0  0
 18 28  1  0  0  0  0
 18 29  2  0  0  0  0
 18 32  1  0  0  0  0
 19 21  2  0  0  0  0
 19 38  1  0  0  0  0
 20 22  2  0  0  0  0
 20 39  1  0  0  0  0
 21 47  1  0  0  0  0
 22 40  1  0  0  0  0
 23 79  1  0  0  0  0
 24 80  1  0  0  0  0
 25 27  2  0  0  0  0
 25 79  1  0  0  0  0
 26 81  1  0  0  0  0
 27 82  1  0  0  0  0
 28 60  2  0  0  0  0
 29 61  1  0  0  0  0
 29 64  1  0  0  0  0
 30 66  1  0  0  0  0
 30 83  1  0  0  0  0
 31 83  1  0  0  0  0
 31 84  1  0  0  0  0
 32 65  1  0  0  0  0
 32 71  2  0  0  0  0
 33 48  1  0  0  0  0
 33 67  1  0  0  0  0
 33 72  2  0  0  0  0
 34 56  1  0  0  0  0
 34 62  1  0  0  0  0
 34 73  2  0  0  0  0
 35 57  1  0  0  0  0
 35 68  1  0  0  0  0
 35 74  2  0  0  0  0
 36 58  1  0  0  0  0
 36 69  1  0  0  0  0
 36 75  2  0  0  0  0
 37 63  1  0  0  0  0
 37 66  1  0  0  0  0
 37 76  2  0  0  0  0
 38 41  1  0  0  0  0
 39 48  1  0  0  0  0
 40 62  1  0  0  0  0
 41 43  1  0  0  0  0
 42 44  1  0  0  0  0
 42 45  1  0  0  0  0
 43 47  1  0  0  0  0
 44 49  1  0  0  0  0
 45 63  1  0  0  0  0
 46 49  1  0  0  0  0
 46 63  1  0  0  0  0
 47 67  1  0  0  0  0
 48 62  1  0  0  0  0
 49 61  1  0  0  0  0
 50 57  1  0  0  0  0
 51 58  1  0  0  0  0
 52 59  1  0  0  0  0
 53 59  1  0  0  0  0
 54 59  1  0  0  0  0
 55 70  1  0  0  0  0
 56 59  1  0  0  0  0
 56 68  1  0  0  0  0
 57 70  1  0  0  0  0
 58 80  1  0  0  0  0
 60 61  1  0  0  0  0
 69 84  1  0  0  0  0
 77 84  2  0  0  0  0
 78 84  2  0  0  0  0
M  CHG  1  70   1
M  ISO  4  37 100  58 101  66 100  80 101
M  END
> <Batch ID>
0182

> <Smiles>
CNC(C)C(=O)NC(C(=O)N1Cc2cc([101O:1][101CH:1](C)C(=O)NS(=O)(=O)c3ccc([100NH:0][100C:0](=O)N4CCCC(n5nc(-c6ccc(Oc7ccc(F)cc7F)cc6)c(C(N)=O)c5N)C4)s3)ccc2CC1C(=O)NC1CCCc2ccccc21)C(C)(C)C

> <Shape>
0.204

> <Color>
0.093

> <Negative vol penalty>
0.000

$$$$

  -OEChem-04052304563D

 87 95  0     1  0  0  0  0  0999 V2000
  -28.2079  -11.1591   19.5668 C   0  0  0  0  0  0  0  0  0  0  0  0
  -28.4946  -12.4988   19.3248 C   0  0  0  0  0  0  0  0  0  0  0  0
  -19.3946  -28.6253   23.0159 C   0  0  0  0  0  0  0  0  0  0  0  0
  -20.5821  -26.5290   22.8361 C   0  0  0  0  0  0  0  0  0  0  0  0
  -26.8979  -10.7656   19.8373 C   0  0  0  0  0  0  0  0  0  0  0  0
  -27.4713  -13.4456   19.3521 C   0  0  0  0  0  0  0  0  0  0  0  0
  -28.7612  -17.6275   21.9001 C   0  0  0  0  0  0  0  0  0  0  0  0
  -18.1887  -27.9616   22.7903 C   0  0  0  0  0  0  0  0  0  0  0  0
  -19.3761  -25.8652   22.6106 C   0  0  0  0  0  0  0  0  0  0  0  0
  -29.5823  -18.5444   21.2451 C   0  0  0  0  0  0  0  0  0  0  0  0
  -16.6503  -23.6703   21.6298 C   0  0  0  0  0  0  0  0  0  0  0  0
  -16.6111  -22.7282   20.6019 C   0  0  0  0  0  0  0  0  0  0  0  0
  -27.6522  -19.8979   20.7330 C   0  0  0  0  0  0  0  0  0  0  0  0
  -17.1991  -24.4446   19.0065 C   0  0  0  0  0  0  0  0  0  0  0  0
  -30.3340  -26.7290   18.2137 C   0  0  0  0  0  0  0  0  0  0  0  0
  -20.5913  -27.9090   23.0388 C   0  0  0  0  0  0  0  0  0  0  0  0
  -22.4550  -28.8374   24.5126 C   0  0  0  0  0  0  0  0  0  0  0  0
  -25.8596  -11.7095   19.8774 C   0  0  0  0  0  0  0  0  0  0  0  0
  -27.3758  -17.8338   21.9671 C   0  0  0  0  0  0  0  0  0  0  0  0
  -26.1460  -13.0642   19.6220 C   0  0  0  0  0  0  0  0  0  0  0  0
  -26.8161  -18.9834   21.3917 C   0  0  0  0  0  0  0  0  0  0  0  0
  -28.4764  -26.1854   19.5006 C   0  0  0  0  0  0  0  0  0  0  0  0
  -29.6910  -25.7301   18.9110 C   0  0  0  0  0  0  0  0  0  0  0  0
  -18.1794  -26.5816   22.5877 C   0  0  0  0  0  0  0  0  0  0  0  0
  -29.0275  -19.6783   20.6590 C   0  0  0  0  0  0  0  0  0  0  0  0
  -16.9637  -24.9996   21.3460 C   0  0  0  0  0  0  0  0  0  0  0  0
  -16.8856  -23.1154   19.2903 C   0  0  0  0  0  0  0  0  0  0  0  0
  -17.2381  -25.3867   20.0344 C   0  0  0  0  0  0  0  0  0  0  0  0
  -21.8373  -28.5941   23.2712 C   0  0  0  0  0  0  0  0  0  0  0  0
  -23.6066  -29.5158   24.1960 C   0  0  0  0  0  0  0  0  0  0  0  0
  -28.2375  -27.5153   19.2317 C   0  0  0  0  0  0  0  0  0  0  0  0
  -22.0263  -28.4817   25.8337 C   0  0  0  0  0  0  0  0  0  0  0  0
  -31.6045  -22.4933   18.7730 C   0  0  0  0  0  0  0  0  0  0  0  0
  -31.3794  -23.9445   18.4603 C   0  0  0  0  0  0  0  0  0  0  0  0
  -24.8203  -16.2586   20.9222 C   0  0  0  0  0  0  0  0  0  0  0  0
  -23.2195  -18.5211   22.6078 C   0  0  0  0  0  0  0  0  0  0  0  0
  -23.2036  -21.6519   23.9659 C   0  0  0  0  0  0  0  0  0  0  0  0
  -27.0096  -29.7142   19.2884 C   0  0  0  0  0  0  0  0  0  0  0  0
  -24.4517  -11.2298   20.1272 C   0  0  0  0  0  0  0  0  0  0  0  0
  -26.5071  -16.8489   22.7005 C   0  0  0  0  0  0  0  0  0  0  0  0
  -25.3371  -19.2615   21.4533 C   0  0  0  0  0  0  0  0  0  0  0  0
  -23.4854  -12.3487   20.5075 C   0  0  0  0  0  0  0  0  0  0  0  0
  -25.4255  -32.4692   20.8940 C   0  0  0  0  0  0  0  0  0  0  0  0
  -23.6527  -13.5402   19.5699 C   0  0  0  0  0  0  0  0  0  0  0  0
  -24.3859  -31.8100   21.8033 C   0  0  0  0  0  0  0  0  0  0  0  0
  -25.5744  -31.7233   19.5691 C   0  0  0  0  0  0  0  0  0  0  0  0
  -24.8004  -29.6252   20.6025 C   0  0  0  0  0  0  0  0  0  0  0  0
  -25.0672  -14.1244   19.6672 C   0  0  1  0  0  0  0  0  0  0  0  0
  -25.0465  -16.8987   22.2627 C   0  0  1  0  0  0  0  0  0  0  0  0
  -24.6620  -30.3034   21.9753 C   0  0  2  0  0  0  0  0  0  0  0  0
  -21.7400  -23.2343   25.2510 C   0  0  0  0  0  0  0  0  0  0  0  0
  -21.6313  -19.1095   20.0698 C   0  0  0  0  0  0  0  0  0  0  0  0
  -20.8972  -21.2642   21.1122 C   0  0  0  0  0  0  0  0  0  0  0  0
  -20.2734  -19.0929   22.1698 C   0  0  0  0  0  0  0  0  0  0  0  0
  -25.1003  -21.7461   26.2358 C   0  0  0  0  0  0  0  0  0  0  0  0
  -31.6566  -22.1224   20.2389 C   0  0  0  0  0  0  0  0  0  0  0  0
  -31.1663  -20.7048   20.4924 C   0  0  0  0  0  0  0  0  0  1  0  0
  -22.6682  -19.8926   22.3008 C   0  0  1  0  0  0  0  0  0  0  0  0
  -22.8031  -22.1507   25.3426 C   0  0  2  0  0  0  0  0  0  0  0  0
  -27.5730  -25.3301   20.3109 C   0  0  0  0  0  0  0  0  0  0  0  0
  -21.3952  -19.8339   21.4101 C   0  0  0  0  0  0  0  0  0  0  0  0
  -22.5383  -29.0788   22.2427 N   0  0  0  0  0  0  0  0  0  0  0  0
  -23.6083  -29.6335   22.8372 N   0  0  0  0  0  0  0  0  0  0  0  0
  -24.5287  -18.2656   22.1760 N   0  0  0  0  0  0  0  0  0  0  0  0
  -25.8386  -30.3032   19.8106 N   0  0  0  0  0  0  0  0  0  0  0  0
  -24.6076  -30.0174   24.9502 N   0  0  0  0  0  0  0  0  0  0  0  0
  -20.8185  -27.7859   25.9795 N   0  0  0  0  0  0  0  0  0  0  0  0
  -30.2069  -24.4168   19.0093 N   0  0  0  0  0  0  0  0  0  0  0  0
  -27.1701  -28.3669   19.6100 N   0  0  0  0  0  0  0  0  0  0  0  0
  -25.1996  -14.9313   20.8613 N   0  0  0  0  0  0  0  0  0  0  0  0
  -22.4671  -20.5491   23.5880 N   0  0  0  0  0  0  0  0  0  0  0  0
  -23.9860  -22.7117   26.0547 N   0  3  0  0  0  0  0  0  0  0  0  0
  -22.6864  -28.7868   26.8559 O   0  0  0  0  0  0  0  0  0  0  0  0
  -31.7161  -21.7279   17.8273 O   0  0  0  0  0  0  0  0  0  0  0  0
  -32.2450  -24.5031   17.8072 O   0  0  0  0  0  0  0  0  0  0  0  0
  -24.3359  -16.9197   20.0111 O   0  0  0  0  0  0  0  0  0  0  0  0
  -22.5169  -17.7089   23.2148 O   0  0  0  0  0  0  0  0  0  0  0  0
  -24.0793  -22.1893   23.2915 O   0  0  0  0  0  0  0  0  0  0  0  0
  -27.8246  -30.3646   18.6290 O   0  0  0  0  0  0  0  0  0  0  0  0
  -17.0029  -25.9335   22.3677 O   0  0  0  0  0  0  0  0  0  0  0  0
  -29.8266  -20.5744   20.0185 O   0  0  0  0  0  0  0  0  0  1  0  0
  -16.8495  -22.2103   18.3035 F   0  0  0  0  0  0  0  0  0  0  0  0
  -17.5410  -26.6621   19.7558 F   0  0  0  0  0  0  0  0  0  0  0  0
  -28.0085  -24.0400   20.4502 F   0  0  0  0  0  0  0  0  0  0  0  0
  -27.3883  -25.7772   21.5911 F   0  0  0  0  0  0  0  0  0  0  0  0
  -26.3168  -25.2305   19.7796 F   0  0  0  0  0  0  0  0  0  0  0  0
  -29.4743  -28.2089   18.2717 S   0  0  0  0  0  0  0  0  0  0  0  0
  1  2  1  0  0  0  0
  1  5  2  0  0  0  0
  2  6  2  0  0  0  0
  3  8  2  0  0  0  0
  3 16  1  0  0  0  0
  4  9  1  0  0  0  0
  4 16  2  0  0  0  0
  5 18  1  0  0  0  0
  6 20  1  0  0  0  0
  7 10  2  0  0  0  0
  7 19  1  0  0  0  0
  8 24  1  0  0  0  0
  9 24  2  0  0  0  0
 10 25  1  0  0  0  0
 11 12  2  0  0  0  0
 11 26  1  0  0  0  0
 12 27  1  0  0  0  0
 13 21  1  0  0  0  0
 13 25  2  0  0  0  0
 14 27  2  0  0  0  0
 14 28  1  0  0  0  0
 15 23  2  0  0  0  0
 15 87  1  0  0  0  0
 16 29  1  0  0  0  0
 17 29  1  0  0  0  0
 17 30  2  0  0  0  0
 17 32  1  0  0  0  0
 18 20  2  0  0  0  0
 18 39  1  0  0  0  0
 19 21  2  0  0  0  0
 19 40  1  0  0  0  0
 20 48  1  0  0  0  0
 21 41  1  0  0  0  0
 22 23  1  0  0  0  0
 22 31  2  0  0  0  0
 22 60  1  0  0  0  0
 23 68  1  0  0  0  0
 24 80  1  0  0  0  0
 25 81  1  0  0  0  0
 26 28  2  0  0  0  0
 26 80  1  0  0  0  0
 27 82  1  0  0  0  0
 28 83  1  0  0  0  0
 29 62  2  0  0  0  0
 30 63  1  0  0  0  0
 30 66  1  0  0  0  0
 31 69  1  0  0  0  0
 31 87  1  0  0  0  0
 32 67  1  0  0  0  0
 32 73  2  0  0  0  0
 33 34  1  0  0  0  0
 33 56  1  0  0  0  0
 33 74  2  0  0  0  0
 34 68  1  0  0  0  0
 34 75  2  0  0  0  0
 35 49  1  0  0  0  0
 35 70  1  0  0  0  0
 35 76  2  0  0  0  0
 36 58  1  0  0  0  0
 36 64  1  0  0  0  0
 36 77  2  0  0  0  0
 37 59  1  0  0  0  0
 37 71  1  0  0  0  0
 37 78  2  0  0  0  0
 38 65  1  0  0  0  0
 38 69  1  0  0  0  0
 38 79  2  0  0  0  0
 39 42  1  0  0  0  0
 40 49  1  0  0  0  0
 41 64  1  0  0  0  0
 42 44  1  0  0  0  0
 43 45  1  0  0  0  0
 43 46  1  0  0  0  0
 44 48  1  0  0  0  0
 45 50  1  0  0  0  0
 46 65  1  0  0  0  0
 47 50  1  0  0  0  0
 47 65  1  0  0  0  0
 48 70  1  0  0  0  0
 49 64  1  0  0  0  0
 50 63  1  0  0  0  0
 51 59  1  0  0  0  0
 52 61  1  0  0  0  0
 53 61  1  0  0  0  0
 54 61  1  0  0  0  0
 55 72  1  0  0  0  0
 56 57  1  0  0  0  0
 57 81  1  0  0  0  0
 58 61  1  0  0  0  0
 58 71  1  0  0  0  0
 59 72  1  0  0  0  0
 60 84  1  0  0  0  0
 60 85  1  0  0  0  0
 60 86  1  0  0  0  0
 62 63  1  0  0  0  0
M  CHG  1  72   1
M  ISO  4  38 100  57 101  69 100  81 101
M  END
> <Batch ID>
0182

> <Smiles>
CNC(C)C(=O)NC(C(=O)N1Cc2cc([101O:1][101CH2:1]CC(=O)C(=O)Nc3csc([100NH:0][100C:0](=O)N4CCCC(n5nc(-c6ccc(Oc7ccc(F)cc7F)cc6)c(C(N)=O)c5N)C4)c3C(F)(F)F)ccc2CC1C(=O)NC1CCCc2ccccc21)C(C)(C)C

> <Shape>
0.230

> <Color>
0.062

> <Negative vol penalty>
0.000

$$$$

  -OEChem-04052304563D

 83 91  0     1  0  0  0  0  0999 V2000
  -27.7388  -36.2531   23.1004 C   0  0  0  0  0  0  0  0  0  0  0  0
  -28.1984  -35.2219   22.2876 C   0  0  0  0  0  0  0  0  0  0  0  0
  -26.7674  -12.6832   21.8380 C   0  0  0  0  0  0  0  0  0  0  0  0
  -26.0500  -14.2462   20.1411 C   0  0  0  0  0  0  0  0  0  0  0  0
  -27.0169  -35.9591   24.2564 C   0  0  0  0  0  0  0  0  0  0  0  0
  -27.9374  -33.8958   22.6311 C   0  0  0  0  0  0  0  0  0  0  0  0
  -26.3968  -31.1321   18.6772 C   0  0  0  0  0  0  0  0  0  0  0  0
  -25.4781  -12.1541   21.8957 C   0  0  0  0  0  0  0  0  0  0  0  0
  -24.7607  -13.7170   20.1987 C   0  0  0  0  0  0  0  0  0  0  0  0
  -27.3749  -30.7003   17.7824 C   0  0  0  0  0  0  0  0  0  0  0  0
  -22.4633  -10.1506   22.2307 C   0  0  0  0  0  0  0  0  0  0  0  0
  -22.3326   -8.7621   22.2518 C   0  0  0  0  0  0  0  0  0  0  0  0
  -27.3673  -28.5282   18.8317 C   0  0  0  0  0  0  0  0  0  0  0  0
  -23.4492   -8.6244   20.1138 C   0  0  0  0  0  0  0  0  0  0  0  0
  -30.5939  -22.9693   21.1273 C   0  0  0  0  0  0  0  0  0  0  0  0
  -27.0533  -13.7294   20.9608 C   0  0  0  0  0  0  0  0  0  0  0  0
  -29.4399  -13.8576   20.0687 C   0  0  0  0  0  0  0  0  0  0  0  0
  -26.7386  -34.6292   24.6091 C   0  0  0  0  0  0  0  0  0  0  0  0
  -25.9036  -30.2671   19.6646 C   0  0  0  0  0  0  0  0  0  0  0  0
  -27.2123  -33.5837   23.7936 C   0  0  0  0  0  0  0  0  0  0  0  0
  -26.3811  -28.9507   19.7362 C   0  0  0  0  0  0  0  0  0  0  0  0
  -24.4748  -12.6709   21.0760 C   0  0  0  0  0  0  0  0  0  0  0  0
  -27.8624  -29.3991   17.8614 C   0  0  0  0  0  0  0  0  0  0  0  0
  -23.0869  -10.7761   21.1510 C   0  0  0  0  0  0  0  0  0  0  0  0
  -22.8255   -7.9989   21.1934 C   0  0  0  0  0  0  0  0  0  0  0  0
  -23.5799  -10.0129   20.0926 C   0  0  0  0  0  0  0  0  0  0  0  0
  -28.3848  -14.2768   20.9012 C   0  0  0  0  0  0  0  0  0  0  0  0
  -30.4838  -14.6894   20.3923 C   0  0  0  0  0  0  0  0  0  0  0  0
  -30.0429  -21.7394   20.8344 C   0  0  0  0  0  0  0  0  0  0  0  0
  -29.5771  -23.5003   19.2581 C   0  0  0  0  0  0  0  0  0  0  0  0
  -29.4732  -12.8100   19.0904 C   0  0  0  0  0  0  0  0  0  0  0  0
  -29.1040  -24.3224   18.1151 C   0  0  0  0  0  0  0  0  0  0  0  0
  -25.8894  -30.2672   22.8432 C   0  0  0  0  0  0  0  0  0  0  0  0
  -24.0182  -27.6473   22.4466 C   0  0  0  0  0  0  0  0  0  0  0  0
  -23.0612  -25.0448   20.4572 C   0  0  0  0  0  0  0  0  0  0  0  0
  -29.1470  -26.5990   17.1585 C   0  0  0  0  0  0  0  0  0  0  0  0
  -30.7527  -20.1967   22.6951 C   0  0  0  0  0  0  0  0  0  0  0  0
  -25.9953  -34.3590   25.8933 C   0  0  0  0  0  0  0  0  0  0  0  0
  -24.8293  -30.7400   20.6052 C   0  0  0  0  0  0  0  0  0  0  0  0
  -25.8699  -27.9766   20.7649 C   0  0  0  0  0  0  0  0  0  0  0  0
  -25.4389  -32.9407   25.9882 C   0  0  0  0  0  0  0  0  0  0  0  0
  -32.2386  -17.2525   24.0372 C   0  0  0  0  0  0  0  0  0  0  0  0
  -26.4980  -31.9231   25.5762 C   0  0  0  0  0  0  0  0  0  0  0  0
  -31.5193  -16.1173   23.3051 C   0  0  0  0  0  0  0  0  0  0  0  0
  -31.2978  -18.4170   24.3415 C   0  0  0  0  0  0  0  0  0  0  0  0
  -29.8418  -17.8037   22.4513 C   0  0  0  0  0  0  0  0  0  0  0  0
  -26.9281  -32.1335   24.1195 C   0  0  1  0  0  0  0  0  0  0  0  0
  -24.7698  -29.9329   21.8984 C   0  0  1  0  0  0  0  0  0  0  0  0
  -30.7639  -16.6356   22.0656 C   0  0  2  0  0  0  0  0  0  0  0  0
  -21.5405  -23.0489   20.4205 C   0  0  0  0  0  0  0  0  0  0  0  0
  -31.0559  -28.1768   16.7485 C   0  0  0  0  0  0  0  0  0  0  0  0
  -25.9465  -26.1476   24.2748 C   0  0  0  0  0  0  0  0  0  0  0  0
  -24.9510  -24.0035   23.4502 C   0  0  0  0  0  0  0  0  0  0  0  0
  -23.5288  -25.6476   24.6737 C   0  0  0  0  0  0  0  0  0  0  0  0
  -21.5561  -26.0889   18.1326 C   0  0  0  0  0  0  0  0  0  0  0  0
  -24.2691  -26.1648   22.3122 C   0  0  1  0  0  0  0  0  0  0  0  0
  -21.6886  -24.5221   20.0733 C   0  0  2  0  0  0  0  0  0  0  0  0
  -29.7245  -27.9766   17.4551 C   0  0  1  0  0  0  0  0  0  1  0  0
  -24.6851  -25.5096   23.6595 C   0  0  0  0  0  0  0  0  0  0  0  0
  -30.3282  -23.9802   20.2244 N   0  0  0  0  0  0  0  0  0  0  0  0
  -28.7273  -15.2956   21.6941 N   0  0  0  0  0  0  0  0  0  0  0  0
  -30.0093  -15.5235   21.3614 N   0  0  0  0  0  0  0  0  0  0  0  0
  -24.8242  -28.4882   21.6661 N   0  0  0  0  0  0  0  0  0  0  0  0
  -30.6206  -18.8577   23.1201 N   0  0  0  0  0  0  0  0  0  0  0  0
  -31.7523  -14.7812   19.9397 N   0  0  0  0  0  0  0  0  0  0  0  0
  -28.3127  -12.0518   18.8836 N   0  0  0  0  0  0  0  0  0  0  0  0
  -30.0913  -20.4913   21.5034 N   0  0  0  0  0  0  0  0  0  0  0  0
  -29.5077  -25.6564   18.1231 N   0  0  0  0  0  0  0  0  0  0  0  0
  -25.9328  -31.5970   23.2161 N   0  0  0  0  0  0  0  0  0  0  0  0
  -23.0620  -25.5985   21.7200 N   0  0  0  0  0  0  0  0  0  0  0  0
  -21.4632  -24.6849   18.6092 N   0  3  0  0  0  0  0  0  0  0  0  0
  -30.5065  -12.5432   18.4311 O   0  0  0  0  0  0  0  0  0  0  0  0
  -28.3838  -23.8060   17.2650 O   0  0  0  0  0  0  0  0  0  0  0  0
  -26.6562  -29.3836   23.2080 O   0  0  0  0  0  0  0  0  0  0  0  0
  -23.1347  -28.0444   23.2104 O   0  0  0  0  0  0  0  0  0  0  0  0
  -24.0360  -24.9661   19.7129 O   0  0  0  0  0  0  0  0  0  0  0  0
  -28.4323  -26.3799   16.1832 O   0  0  0  0  0  0  0  0  0  0  0  0
  -31.4271  -21.0144   23.3265 O   0  0  0  0  0  0  0  0  0  0  0  0
  -23.2166  -12.1546   21.1318 O   0  0  0  0  0  0  0  0  0  0  0  0
  -28.8175  -28.9752   16.9897 O   0  0  0  0  0  0  0  0  0  1  0  0
  -22.7013   -6.6654   21.2146 F   0  0  0  0  0  0  0  0  0  0  0  0
  -24.1810  -10.6080   19.0532 F   0  0  0  0  0  0  0  0  0  0  0  0
  -29.1524  -21.8415   19.3722 S   0  0  0  0  0  0  0  0  0  0  0  0
  1  2  1  0  0  0  0
  1  5  2  0  0  0  0
  2  6  2  0  0  0  0
  3  8  2  0  0  0  0
  3 16  1  0  0  0  0
  4  9  1  0  0  0  0
  4 16  2  0  0  0  0
  5 18  1  0  0  0  0
  6 20  1  0  0  0  0
  7 10  2  0  0  0  0
  7 19  1  0  0  0  0
  8 22  1  0  0  0  0
  9 22  2  0  0  0  0
 10 23  1  0  0  0  0
 11 12  2  0  0  0  0
 11 24  1  0  0  0  0
 12 25  1  0  0  0  0
 13 21  1  0  0  0  0
 13 23  2  0  0  0  0
 14 25  2  0  0  0  0
 14 26  1  0  0  0  0
 15 29  2  0  0  0  0
 15 60  1  0  0  0  0
 16 27  1  0  0  0  0
 17 27  1  0  0  0  0
 17 28  2  0  0  0  0
 17 31  1  0  0  0  0
 18 20  2  0  0  0  0
 18 38  1  0  0  0  0
 19 21  2  0  0  0  0
 19 39  1  0  0  0  0
 20 47  1  0  0  0  0
 21 40  1  0  0  0  0
 22 79  1  0  0  0  0
 23 80  1  0  0  0  0
 24 26  2  0  0  0  0
 24 79  1  0  0  0  0
 25 81  1  0  0  0  0
 26 82  1  0  0  0  0
 27 61  2  0  0  0  0
 28 62  1  0  0  0  0
 28 65  1  0  0  0  0
 29 67  1  0  0  0  0
 29 83  1  0  0  0  0
 30 32  1  0  0  0  0
 30 60  2  0  0  0  0
 30 83  1  0  0  0  0
 31 66  1  0  0  0  0
 31 72  2  0  0  0  0
 32 68  1  0  0  0  0
 32 73  2  0  0  0  0
 33 48  1  0  0  0  0
 33 69  1  0  0  0  0
 33 74  2  0  0  0  0
 34 56  1  0  0  0  0
 34 63  1  0  0  0  0
 34 75  2  0  0  0  0
 35 57  1  0  0  0  0
 35 70  1  0  0  0  0
 35 76  2  0  0  0  0
 36 58  1  0  0  0  0
 36 68  1  0  0  0  0
 36 77  2  0  0  0  0
 37 64  1  0  0  0  0
 37 67  1  0  0  0  0
 37 78  2  0  0  0  0
 38 41  1  0  0  0  0
 39 48  1  0  0  0  0
 40 63  1  0  0  0  0
 41 43  1  0  0  0  0
 42 44  1  0  0  0  0
 42 45  1  0  0  0  0
 43 47  1  0  0  0  0
 44 49  1  0  0  0  0
 45 64  1  0  0  0  0
 46 49  1  0  0  0  0
 46 64  1  0  0  0  0
 47 69  1  0  0  0  0
 48 63  1  0  0  0  0
 49 62  1  0  0  0  0
 50 57  1  0  0  0  0
 51 58  1  0  0  0  0
 52 59  1  0  0  0  0
 53 59  1  0  0  0  0
 54 59  1  0  0  0  0
 55 71  1  0  0  0  0
 56 59  1  0  0  0  0
 56 70  1  0  0  0  0
 57 71  1  0  0  0  0
 58 80  1  0  0  0  0
 61 62  1  0  0  0  0
M  CHG  1  71   1
M  ISO  4  37 100  58 101  67 100  80 101
M  END
> <Batch ID>
0182

> <Smiles>
CNC(C)C(=O)NC(C(=O)N1Cc2cc([101O:1][101CH:1](C)C(=O)NC(=O)c3ncc([100NH:0][100C:0](=O)N4CCCC(n5nc(-c6ccc(Oc7ccc(F)cc7F)cc6)c(C(N)=O)c5N)C4)s3)ccc2CC1C(=O)NC1CCCc2ccccc21)C(C)(C)C

> <Shape>
0.277

> <Color>
0.064

> <Negative vol penalty>
0.000

$$$$

  -OEChem-04052304563D

 85 93  0     1  0  0  0  0  0999 V2000
  -22.5883  -34.7971   22.4290 C   0  0  0  0  0  0  0  0  0  0  0  0
  -23.5335  -33.8894   21.9620 C   0  0  0  0  0  0  0  0  0  0  0  0
  -24.6870   -9.8554   21.8843 C   0  0  0  0  0  0  0  0  0  0  0  0
  -24.7156  -11.1904   23.8978 C   0  0  0  0  0  0  0  0  0  0  0  0
  -21.5934  -34.3746   23.3096 C   0  0  0  0  0  0  0  0  0  0  0  0
  -23.4849  -32.5588   22.3763 C   0  0  0  0  0  0  0  0  0  0  0  0
  -24.1377  -29.3073   18.5492 C   0  0  0  0  0  0  0  0  0  0  0  0
  -24.3760   -8.7242   22.6387 C   0  0  0  0  0  0  0  0  0  0  0  0
  -24.4045  -10.0591   24.6523 C   0  0  0  0  0  0  0  0  0  0  0  0
  -25.4414  -29.1110   18.0958 C   0  0  0  0  0  0  0  0  0  0  0  0
  -23.2193   -5.5550   23.9929 C   0  0  0  0  0  0  0  0  0  0  0  0
  -22.2142   -4.7136   23.5159 C   0  0  0  0  0  0  0  0  0  0  0  0
  -25.5694  -27.0655   19.3680 C   0  0  0  0  0  0  0  0  0  0  0  0
  -26.9994  -20.2461   20.7129 C   0  0  0  0  0  0  0  0  0  0  0  0
  -20.6345   -6.5383   23.6257 C   0  0  0  0  0  0  0  0  0  0  0  0
  -29.1684  -21.6960   19.8328 C   0  0  0  0  0  0  0  0  0  0  0  0
  -24.8568  -11.0885   22.5139 C   0  0  0  0  0  0  0  0  0  0  0  0
  -24.2749  -13.1629   21.1479 C   0  0  0  0  0  0  0  0  0  0  0  0
  -21.5268  -33.0361   23.7274 C   0  0  0  0  0  0  0  0  0  0  0  0
  -23.5429  -28.3882   19.4255 C   0  0  0  0  0  0  0  0  0  0  0  0
  -22.4890  -32.1184   23.2644 C   0  0  0  0  0  0  0  0  0  0  0  0
  -24.2571  -27.2511   19.8290 C   0  0  0  0  0  0  0  0  0  0  0  0
  -26.8740  -21.6163   20.5047 C   0  0  0  0  0  0  0  0  0  0  0  0
  -27.9675  -22.3532   20.0600 C   0  0  0  0  0  0  0  0  0  0  0  0
  -24.2347   -8.8260   24.0227 C   0  0  0  0  0  0  0  0  0  0  0  0
  -26.1585  -27.9915   18.5075 C   0  0  0  0  0  0  0  0  0  0  0  0
  -22.9319   -6.8881   24.2864 C   0  0  0  0  0  0  0  0  0  0  0  0
  -20.9219   -5.2053   23.3323 C   0  0  0  0  0  0  0  0  0  0  0  0
  -21.6396   -7.3797   24.1028 C   0  0  0  0  0  0  0  0  0  0  0  0
  -25.1787  -12.2574   21.7352 C   0  0  0  0  0  0  0  0  0  0  0  0
  -25.0739  -14.0892   20.5234 C   0  0  0  0  0  0  0  0  0  0  0  0
  -28.2247  -19.6423   20.4691 C   0  0  0  0  0  0  0  0  0  0  0  0
  -22.8412  -13.1665   21.1654 C   0  0  0  0  0  0  0  0  0  0  0  0
  -28.4392  -26.0062   19.2765 C   0  0  0  0  0  0  0  0  0  0  0  0
  -28.8927  -24.5783   19.4000 C   0  0  0  0  0  0  0  0  0  0  0  0
  -22.4026  -28.5296   22.3892 C   0  0  0  0  0  0  0  0  0  0  0  0
  -21.4607  -25.4909   21.7553 C   0  0  0  0  0  0  0  0  0  0  0  0
  -21.9074  -22.6396   19.9340 C   0  0  0  0  0  0  0  0  0  0  0  0
  -29.4987  -17.4690   20.4854 C   0  0  0  0  0  0  0  0  0  0  0  0
  -20.4614  -32.6368   24.7174 C   0  0  0  0  0  0  0  0  0  0  0  0
  -22.1262  -28.6006   19.8843 C   0  0  0  0  0  0  0  0  0  0  0  0
  -23.6568  -26.2240   20.7528 C   0  0  0  0  0  0  0  0  0  0  0  0
  -20.2551  -31.1274   24.8144 C   0  0  0  0  0  0  0  0  0  0  0  0
  -30.0524  -14.0626   19.6095 C   0  0  0  0  0  0  0  0  0  0  0  0
  -21.5976  -30.4106   24.9182 C   0  0  0  0  0  0  0  0  0  0  0  0
  -28.7595  -13.3638   20.0361 C   0  0  0  0  0  0  0  0  0  0  0  0
  -30.4446  -15.1731   20.5825 C   0  0  0  0  0  0  0  0  0  0  0  0
  -28.0996  -15.4624   21.2801 C   0  0  0  0  0  0  0  0  0  0  0  0
  -22.4546  -30.6612   23.6715 C   0  0  1  0  0  0  0  0  0  0  0  0
  -21.8021  -27.8667   21.1819 C   0  0  1  0  0  0  0  0  0  0  0  0
  -27.6293  -14.3791   20.2957 C   0  0  2  0  0  0  0  0  0  0  0  0
  -28.9038  -26.3582   16.8246 C   0  0  0  0  0  0  0  0  0  0  0  0
  -21.0095  -20.3115   19.6674 C   0  0  0  0  0  0  0  0  0  0  0  0
  -22.9081  -24.6435   24.3041 C   0  0  0  0  0  0  0  0  0  0  0  0
  -22.7999  -22.2765   23.4956 C   0  0  0  0  0  0  0  0  0  0  0  0
  -20.6945  -23.5369   23.9445 C   0  0  0  0  0  0  0  0  0  0  0  0
  -21.1255  -23.1383   17.1234 C   0  0  0  0  0  0  0  0  0  0  0  0
  -27.8766  -26.4479   17.9404 C   0  0  2  0  0  0  0  0  0  1  0  0
  -22.0816  -24.1241   21.9140 C   0  0  1  0  0  0  0  0  0  0  0  0
  -20.9229  -21.7535   19.1923 C   0  0  2  0  0  0  0  0  0  0  0  0
  -22.1333  -23.6654   23.3987 C   0  0  0  0  0  0  0  0  0  0  0  0
  -26.4543  -12.5792   21.5043 N   0  0  0  0  0  0  0  0  0  0  0  0
  -26.3577  -13.6973   20.7650 N   0  0  0  0  0  0  0  0  0  0  0  0
  -29.2615  -20.3756   20.0413 N   0  3  0  0  0  0  0  0  0  0  0  0
  -22.2709  -26.4795   21.1789 N   0  0  0  0  0  0  0  0  0  0  0  0
  -29.3266  -16.0991   20.7764 N   0  0  0  0  0  0  0  0  0  0  0  0
  -25.6296  -22.2385   20.7497 N   0  0  0  0  0  0  0  0  0  0  0  0
  -24.7966  -15.1926   19.7967 N   0  0  0  0  0  0  0  0  0  0  0  0
  -22.1788  -12.1410   21.8538 N   0  0  0  0  0  0  0  0  0  0  0  0
  -27.8835  -23.7472   19.8366 N   0  0  0  0  0  0  0  0  0  0  0  0
  -28.3573  -18.2469   20.6769 N   0  0  0  0  0  0  0  0  0  0  0  0
  -21.9991  -29.8386   22.5714 N   0  0  0  0  0  0  0  0  0  0  0  0
  -21.3309  -23.2306   21.0383 N   0  0  0  0  0  0  0  0  0  0  0  0
  -21.2001  -21.7834   17.7283 N   0  3  0  0  0  0  0  0  0  0  0  0
  -22.1673  -14.0437   20.5738 O   0  0  0  0  0  0  0  0  0  0  0  0
  -28.5427  -26.7107   20.2707 O   0  0  0  0  0  0  0  0  0  0  0  0
  -30.0614  -24.3516   19.1335 O   0  0  0  0  0  0  0  0  0  0  0  0
  -23.1737  -27.8996   23.1035 O   0  0  0  0  0  0  0  0  0  0  0  0
  -20.2972  -25.6729   22.1224 O   0  0  0  0  0  0  0  0  0  0  0  0
  -23.0723  -22.7893   19.5721 O   0  0  0  0  0  0  0  0  0  0  0  0
  -30.5713  -17.9142   20.0690 O   0  0  0  0  0  0  0  0  0  0  0  0
  -23.9310   -7.7224   24.7591 O   0  0  0  0  0  0  0  0  0  0  0  0
  -27.4314  -27.7978   18.0670 O   0  0  0  0  0  0  0  0  0  1  0  0
  -19.9572   -4.3976   22.8727 F   0  0  0  0  0  0  0  0  0  0  0  0
  -21.3577   -8.6598   24.3819 F   0  0  0  0  0  0  0  0  0  0  0  0
  1  2  1  0  0  0  0
  1  5  2  0  0  0  0
  2  6  2  0  0  0  0
  3  8  2  0  0  0  0
  3 17  1  0  0  0  0
  4  9  1  0  0  0  0
  4 17  2  0  0  0  0
  5 19  1  0  0  0  0
  6 21  1  0  0  0  0
  7 10  2  0  0  0  0
  7 20  1  0  0  0  0
  8 25  1  0  0  0  0
  9 25  2  0  0  0  0
 10 26  1  0  0  0  0
 11 12  2  0  0  0  0
 11 27  1  0  0  0  0
 12 28  1  0  0  0  0
 13 22  1  0  0  0  0
 13 26  2  0  0  0  0
 14 23  1  0  0  0  0
 14 32  2  0  0  0  0
 15 28  2  0  0  0  0
 15 29  1  0  0  0  0
 16 24  1  0  0  0  0
 16 64  2  0  0  0  0
 17 30  1  0  0  0  0
 18 30  1  0  0  0  0
 18 31  2  0  0  0  0
 18 33  1  0  0  0  0
 19 21  2  0  0  0  0
 19 40  1  0  0  0  0
 20 22  2  0  0  0  0
 20 41  1  0  0  0  0
 21 49  1  0  0  0  0
 22 42  1  0  0  0  0
 23 24  2  0  0  0  0
 23 67  1  0  0  0  0
 24 70  1  0  0  0  0
 25 82  1  0  0  0  0
 26 83  1  0  0  0  0
 27 29  2  0  0  0  0
 27 82  1  0  0  0  0
 28 84  1  0  0  0  0
 29 85  1  0  0  0  0
 30 62  2  0  0  0  0
 31 63  1  0  0  0  0
 31 68  1  0  0  0  0
 32 64  1  0  0  0  0
 32 71  1  0  0  0  0
 33 69  1  0  0  0  0
 33 75  2  0  0  0  0
 34 35  1  0  0  0  0
 34 58  1  0  0  0  0
 34 76  2  0  0  0  0
 35 70  1  0  0  0  0
 35 77  2  0  0  0  0
 36 50  1  0  0  0  0
 36 72  1  0  0  0  0
 36 78  2  0  0  0  0
 37 59  1  0  0  0  0
 37 65  1  0  0  0  0
 37 79  2  0  0  0  0
 38 60  1  0  0  0  0
 38 73  1  0  0  0  0
 38 80  2  0  0  0  0
 39 66  1  0  0  0  0
 39 71  1  0  0  0  0
 39 81  2  0  0  0  0
 40 43  1  0  0  0  0
 41 50  1  0  0  0  0
 42 65  1  0  0  0  0
 43 45  1  0  0  0  0
 44 46  1  0  0  0  0
 44 47  1  0  0  0  0
 45 49  1  0  0  0  0
 46 51  1  0  0  0  0
 47 66  1  0  0  0  0
 48 51  1  0  0  0  0
 48 66  1  0  0  0  0
 49 72  1  0  0  0  0
 50 65  1  0  0  0  0
 51 63  1  0  0  0  0
 52 58  1  0  0  0  0
 53 60  1  0  0  0  0
 54 61  1  0  0  0  0
 55 61  1  0  0  0  0
 56 61  1  0  0  0  0
 57 74  1  0  0  0  0
 58 83  1  0  0  0  0
 59 61  1  0  0  0  0
 59 73  1  0  0  0  0
 60 74  1  0  0  0  0
 62 63  1  0  0  0  0
M  CHG  2  64   1  74   1
M  ISO  4  39 100  58 101  71 100  83 101
M  END
> <Batch ID>
0182

> <Smiles>
CNC(C)C(=O)NC(C(=O)N1Cc2cc([101O:1][101CH:1](C)C(=O)C(=O)Nc3cnc([100NH:0][100C:0](=O)N4CCCC(n5nc(-c6ccc(Oc7ccc(F)cc7F)cc6)c(C(N)=O)c5N)C4)cc3N)ccc2CC1C(=O)NC1CCCc2ccccc21)C(C)(C)C

> <Shape>
0.254

> <Color>
0.122

> <Negative vol penalty>
0.000

$$$$

  -OEChem-04052304563D

 84 92  0     1  0  0  0  0  0999 V2000
  -16.7793  -29.6180   24.0403 C   0  0  0  0  0  0  0  0  0  0  0  0
  -17.9170  -30.1777   24.6126 C   0  0  0  0  0  0  0  0  0  0  0  0
  -26.2632  -13.4428   21.5718 C   0  0  0  0  0  0  0  0  0  0  0  0
  -25.0451  -14.6137   19.8448 C   0  0  0  0  0  0  0  0  0  0  0  0
  -16.9018  -28.5645   23.1353 C   0  0  0  0  0  0  0  0  0  0  0  0
  -19.1781  -29.6835   24.2811 C   0  0  0  0  0  0  0  0  0  0  0  0
  -25.9606  -31.8196   23.4142 C   0  0  0  0  0  0  0  0  0  0  0  0
  -25.4110  -12.3477   21.4303 C   0  0  0  0  0  0  0  0  0  0  0  0
  -24.1930  -13.5185   19.7033 C   0  0  0  0  0  0  0  0  0  0  0  0
  -27.2514  -31.5040   23.8358 C   0  0  0  0  0  0  0  0  0  0  0  0
  -21.5282  -12.2099   21.3212 C   0  0  0  0  0  0  0  0  0  0  0  0
  -20.1587  -12.4610   21.2372 C   0  0  0  0  0  0  0  0  0  0  0  0
  -27.3463  -29.7334   22.2002 C   0  0  0  0  0  0  0  0  0  0  0  0
  -20.1024  -11.4242   19.0557 C   0  0  0  0  0  0  0  0  0  0  0  0
  -26.0802  -14.5759   20.7791 C   0  0  0  0  0  0  0  0  0  0  0  0
  -28.1640  -15.9432   20.2351 C   0  0  0  0  0  0  0  0  0  0  0  0
  -18.1656  -28.0635   22.7851 C   0  0  0  0  0  0  0  0  0  0  0  0
  -25.3477  -31.0863   22.3881 C   0  0  0  0  0  0  0  0  0  0  0  0
  -19.3176  -28.6214   23.3716 C   0  0  0  0  0  0  0  0  0  0  0  0
  -26.0485  -30.0434   21.7656 C   0  0  0  0  0  0  0  0  0  0  0  0
  -24.3759  -12.3855   20.4961 C   0  0  0  0  0  0  0  0  0  0  0  0
  -27.9434  -30.4589   23.2308 C   0  0  0  0  0  0  0  0  0  0  0  0
  -22.1849  -11.5661   20.2724 C   0  0  0  0  0  0  0  0  0  0  0  0
  -19.4458  -12.0681   20.1045 C   0  0  0  0  0  0  0  0  0  0  0  0
  -21.4720  -11.1732   19.1397 C   0  0  0  0  0  0  0  0  0  0  0  0
  -26.9598  -15.7078   20.9251 C   0  0  0  0  0  0  0  0  0  0  0  0
  -30.0461  -25.4253   20.0800 C   0  0  0  0  0  0  0  0  0  0  0  0
  -28.6143  -17.1428   20.7297 C   0  0  0  0  0  0  0  0  0  0  0  0
  -30.3803  -24.7847   18.9053 C   0  0  0  0  0  0  0  0  0  0  0  0
  -29.0759  -23.4971   20.4683 C   0  0  0  0  0  0  0  0  0  0  0  0
  -28.8172  -15.1485   19.2363 C   0  0  0  0  0  0  0  0  0  0  0  0
  -30.4353  -26.8183   20.4174 C   0  0  0  0  0  0  0  0  0  0  0  0
  -22.7556  -29.2586   22.1770 C   0  0  0  0  0  0  0  0  0  0  0  0
  -23.5115  -29.2261   19.0227 C   0  0  0  0  0  0  0  0  0  0  0  0
  -25.9050  -29.5622   16.6134 C   0  0  0  0  0  0  0  0  0  0  0  0
  -30.2328  -28.5698   22.1469 C   0  0  0  0  0  0  0  0  0  0  0  0
  -27.7187  -22.4116   22.2921 C   0  0  0  0  0  0  0  0  0  0  0  0
  -18.2453  -26.8922   21.8383 C   0  0  0  0  0  0  0  0  0  0  0  0
  -23.9648  -31.4566   21.9266 C   0  0  0  0  0  0  0  0  0  0  0  0
  -25.4429  -29.2385   20.6458 C   0  0  0  0  0  0  0  0  0  0  0  0
  -19.6390  -26.6745   21.2547 C   0  0  0  0  0  0  0  0  0  0  0  0
  -27.0412  -19.8708   24.6926 C   0  0  0  0  0  0  0  0  0  0  0  0
  -20.6950  -26.7476   22.3530 C   0  0  0  0  0  0  0  0  0  0  0  0
  -27.0587  -18.5806   23.8697 C   0  0  0  0  0  0  0  0  0  0  0  0
  -26.4323  -21.0337   23.9112 C   0  0  0  0  0  0  0  0  0  0  0  0
  -27.0466  -19.9847   21.7684 C   0  0  0  0  0  0  0  0  0  0  0  0
  -20.7043  -28.1292   23.0183 C   0  0  1  0  0  0  0  0  0  0  0  0
  -23.2432  -30.3116   21.2225 C   0  0  1  0  0  0  0  0  0  0  0  0
  -27.7104  -18.8007   22.4904 C   0  0  2  0  0  0  0  0  0  0  0  0
  -26.2285  -29.4424   14.1277 C   0  0  0  0  0  0  0  0  0  0  0  0
  -30.6042  -28.4844   24.6280 C   0  0  0  0  0  0  0  0  0  0  0  0
  -23.4172  -26.1794   19.1596 C   0  0  0  0  0  0  0  0  0  0  0  0
  -24.6475  -26.1129   16.9801 C   0  0  0  0  0  0  0  0  0  0  0  0
  -22.3884  -27.1635   17.1036 C   0  0  0  0  0  0  0  0  0  0  0  0
  -26.7644  -32.3907   16.4722 C   0  0  0  0  0  0  0  0  0  0  0  0
  -24.3662  -28.3519   18.1371 C   0  0  1  0  0  0  0  0  0  0  0  0
  -25.9222  -30.3449   15.3128 C   0  0  2  0  0  0  0  0  0  0  0  0
  -29.6084  -28.7854   23.5191 C   0  0  1  0  0  0  0  0  0  1  0  0
  -23.7158  -26.9657   17.8675 C   0  0  0  0  0  0  0  0  0  0  0  0
  -26.6638  -16.6797   21.7922 N   0  0  0  0  0  0  0  0  0  0  0  0
  -29.2978  -24.6886   20.9774 N   0  0  0  0  0  0  0  0  0  0  0  0
  -27.6886  -17.5375   21.6503 N   0  0  0  0  0  0  0  0  0  0  0  0
  -24.0860  -29.6350   20.2345 N   0  0  0  0  0  0  0  0  0  0  0  0
  -27.1022  -21.1849   22.6177 N   0  0  0  0  0  0  0  0  0  0  0  0
  -29.7078  -17.8880   20.4626 N   0  0  0  0  0  0  0  0  0  0  0  0
  -31.0987  -25.2659   17.8611 N   0  0  0  0  0  0  0  0  0  0  0  0
  -28.2178  -13.9441   18.8434 N   0  0  0  0  0  0  0  0  0  0  0  0
  -28.3520  -22.4267   21.0498 N   0  0  0  0  0  0  0  0  0  0  0  0
  -29.9986  -27.2839   21.6564 N   0  0  0  0  0  0  0  0  0  0  0  0
  -21.3840  -29.0907   22.1768 N   0  0  0  0  0  0  0  0  0  0  0  0
  -24.6351  -29.1301   16.9327 N   0  0  0  0  0  0  0  0  0  0  0  0
  -26.9562  -31.4168   15.3669 N   0  3  0  0  0  0  0  0  0  0  0  0
  -29.9086  -15.4883   18.7196 O   0  0  0  0  0  0  0  0  0  0  0  0
  -31.0783  -27.4736   19.6017 O   0  0  0  0  0  0  0  0  0  0  0  0
  -23.5641  -28.6428   22.8619 O   0  0  0  0  0  0  0  0  0  0  0  0
  -22.3785  -29.5406   18.6496 O   0  0  0  0  0  0  0  0  0  0  0  0
  -26.9175  -29.3517   17.2775 O   0  0  0  0  0  0  0  0  0  0  0  0
  -30.8494  -29.4540   21.5570 O   0  0  0  0  0  0  0  0  0  0  0  0
  -27.7104  -23.3687   23.0704 O   0  0  0  0  0  0  0  0  0  0  0  0
  -23.5444  -11.3169   20.3576 O   0  0  0  0  0  0  0  0  0  0  0  0
  -29.2033  -30.1483   23.6409 O   0  0  0  0  0  0  0  0  0  1  0  0
  -18.1304  -12.3078   20.0247 F   0  0  0  0  0  0  0  0  0  0  0  0
  -22.0971  -10.5532   18.1294 F   0  0  0  0  0  0  0  0  0  0  0  0
  -29.7384  -23.1943   18.9145 S   0  0  0  0  0  0  0  0  0  0  0  0
  1  2  1  0  0  0  0
  1  5  2  0  0  0  0
  2  6  2  0  0  0  0
  3  8  2  0  0  0  0
  3 15  1  0  0  0  0
  4  9  1  0  0  0  0
  4 15  2  0  0  0  0
  5 17  1  0  0  0  0
  6 19  1  0  0  0  0
  7 10  2  0  0  0  0
  7 18  1  0  0  0  0
  8 21  1  0  0  0  0
  9 21  2  0  0  0  0
 10 22  1  0  0  0  0
 11 12  2  0  0  0  0
 11 23  1  0  0  0  0
 12 24  1  0  0  0  0
 13 20  1  0  0  0  0
 13 22  2  0  0  0  0
 14 24  2  0  0  0  0
 14 25  1  0  0  0  0
 15 26  1  0  0  0  0
 16 26  1  0  0  0  0
 16 28  2  0  0  0  0
 16 31  1  0  0  0  0
 17 19  2  0  0  0  0
 17 38  1  0  0  0  0
 18 20  2  0  0  0  0
 18 39  1  0  0  0  0
 19 47  1  0  0  0  0
 20 40  1  0  0  0  0
 21 80  1  0  0  0  0
 22 81  1  0  0  0  0
 23 25  2  0  0  0  0
 23 80  1  0  0  0  0
 24 82  1  0  0  0  0
 25 83  1  0  0  0  0
 26 60  2  0  0  0  0
 27 29  2  0  0  0  0
 27 32  1  0  0  0  0
 27 61  1  0  0  0  0
 28 62  1  0  0  0  0
 28 65  1  0  0  0  0
 29 66  1  0  0  0  0
 29 84  1  0  0  0  0
 30 61  2  0  0  0  0
 30 68  1  0  0  0  0
 30 84  1  0  0  0  0
 31 67  1  0  0  0  0
 31 73  2  0  0  0  0
 32 69  1  0  0  0  0
 32 74  2  0  0  0  0
 33 48  1  0  0  0  0
 33 70  1  0  0  0  0
 33 75  2  0  0  0  0
 34 56  1  0  0  0  0
 34 63  1  0  0  0  0
 34 76  2  0  0  0  0
 35 57  1  0  0  0  0
 35 71  1  0  0  0  0
 35 77  2  0  0  0  0
 36 58  1  0  0  0  0
 36 69  1  0  0  0  0
 36 78  2  0  0  0  0
 37 64  1  0  0  0  0
 37 68  1  0  0  0  0
 37 79  2  0  0  0  0
 38 41  1  0  0  0  0
 39 48  1  0  0  0  0
 40 63  1  0  0  0  0
 41 43  1  0  0  0  0
 42 44  1  0  0  0  0
 42 45  1  0  0  0  0
 43 47  1  0  0  0  0
 44 49  1  0  0  0  0
 45 64  1  0  0  0  0
 46 49  1  0  0  0  0
 46 64  1  0  0  0  0
 47 70  1  0  0  0  0
 48 63  1  0  0  0  0
 49 62  1  0  0  0  0
 50 57  1  0  0  0  0
 51 58  1  0  0  0  0
 52 59  1  0  0  0  0
 53 59  1  0  0  0  0
 54 59  1  0  0  0  0
 55 72  1  0  0  0  0
 56 59  1  0  0  0  0
 56 71  1  0  0  0  0
 57 72  1  0  0  0  0
 58 81  1  0  0  0  0
 60 62  1  0  0  0  0
M  CHG  1  72   1
M  ISO  4  37 100  58 101  68 100  81 101
M  END
> <Batch ID>
0182

> <Smiles>
CNC(C)C(=O)NC(C(=O)N1Cc2cc([101O:1][101CH:1](C)C(=O)NC(=O)c3nc([100NH:0][100C:0](=O)N4CCCC(n5nc(-c6ccc(Oc7ccc(F)cc7F)cc6)c(C(N)=O)c5N)C4)sc3N)ccc2CC1C(=O)NC1CCCc2ccccc21)C(C)(C)C

> <Shape>
0.297

> <Color>
0.099

> <Negative vol penalty>
0.000

$$$$

  -OEChem-04052304563D

 84 92  0     1  0  0  0  0  0999 V2000
  -18.9180  -25.7422   23.5311 C   0  0  0  0  0  0  0  0  0  0  0  0
  -19.8434  -25.7804   22.4930 C   0  0  0  0  0  0  0  0  0  0  0  0
  -23.7173  -13.5991   21.4939 C   0  0  0  0  0  0  0  0  0  0  0  0
  -26.0974  -13.8164   21.1406 C   0  0  0  0  0  0  0  0  0  0  0  0
  -18.3456  -26.9251   23.9970 C   0  0  0  0  0  0  0  0  0  0  0  0
  -20.1961  -27.0014   21.9195 C   0  0  0  0  0  0  0  0  0  0  0  0
  -25.1928  -27.4532   21.2312 C   0  0  0  0  0  0  0  0  0  0  0  0
  -23.7289  -12.3775   20.8207 C   0  0  0  0  0  0  0  0  0  0  0  0
  -26.1091  -12.5947   20.4675 C   0  0  0  0  0  0  0  0  0  0  0  0
  -25.7478  -26.7880   20.1388 C   0  0  0  0  0  0  0  0  0  0  0  0
  -23.1943   -9.0291   19.5103 C   0  0  0  0  0  0  0  0  0  0  0  0
  -22.4879   -7.9689   20.0783 C   0  0  0  0  0  0  0  0  0  0  0  0
  -25.7630  -28.8551   18.8954 C   0  0  0  0  0  0  0  0  0  0  0  0
  -23.8660   -8.1111   22.0576 C   0  0  0  0  0  0  0  0  0  0  0  0
  -24.9016  -14.3186   21.6538 C   0  0  0  0  0  0  0  0  0  0  0  0
  -25.0755  -15.7939   23.7276 C   0  0  0  0  0  0  0  0  0  0  0  0
  -18.6988  -28.1623   23.4353 C   0  0  0  0  0  0  0  0  0  0  0  0
  -24.9082  -28.8245   21.1599 C   0  0  0  0  0  0  0  0  0  0  0  0
  -19.6269  -28.2019   22.3774 C   0  0  0  0  0  0  0  0  0  0  0  0
  -25.2068  -29.5359   19.9891 C   0  0  0  0  0  0  0  0  0  0  0  0
  -24.9248  -11.8753   20.3076 C   0  0  0  0  0  0  0  0  0  0  0  0
  -26.0303  -27.4883   18.9697 C   0  0  0  0  0  0  0  0  0  0  0  0
  -24.2366   -9.6302   20.2159 C   0  0  0  0  0  0  0  0  0  0  0  0
  -22.8237   -7.5099   21.3519 C   0  0  0  0  0  0  0  0  0  0  0  0
  -24.5725   -9.1712   21.4896 C   0  0  0  0  0  0  0  0  0  0  0  0
  -24.8901  -15.5809   22.3485 C   0  0  0  0  0  0  0  0  0  0  0  0
  -29.8983  -23.4699   19.4935 C   0  0  0  0  0  0  0  0  0  0  0  0
  -24.9749  -17.1550   23.8814 C   0  0  0  0  0  0  0  0  0  0  0  0
  -30.7498  -22.4019   19.6842 C   0  0  0  0  0  0  0  0  0  0  0  0
  -28.4032  -21.9364   19.9655 C   0  0  0  0  0  0  0  0  0  0  0  0
  -25.3172  -14.8461   24.7760 C   0  0  0  0  0  0  0  0  0  0  0  0
  -30.3374  -24.8369   19.1373 C   0  0  0  0  0  0  0  0  0  0  0  0
  -29.3312  -25.9312   18.9517 C   0  0  0  0  0  0  0  0  0  0  0  0
  -22.2667  -30.5807   21.3648 C   0  0  0  0  0  0  0  0  0  0  0  0
  -24.3664  -33.0503   21.2426 C   0  0  0  0  0  0  0  0  0  0  0  0
  -27.4431  -34.1937   20.3079 C   0  0  0  0  0  0  0  0  0  0  0  0
  -25.9000  -21.7599   20.1875 C   0  0  0  0  0  0  0  0  0  0  0  0
  -18.0180  -29.4097   23.9405 C   0  0  0  0  0  0  0  0  0  0  0  0
  -24.3343  -29.5329   22.3563 C   0  0  0  0  0  0  0  0  0  0  0  0
  -24.9390  -31.0131   19.8687 C   0  0  0  0  0  0  0  0  0  0  0  0
  -18.7259  -30.6985   23.5306 C   0  0  0  0  0  0  0  0  0  0  0  0
  -22.8901  -21.0000   21.9312 C   0  0  0  0  0  0  0  0  0  0  0  0
  -19.0875  -30.6609   22.0491 C   0  0  0  0  0  0  0  0  0  0  0  0
  -23.0809  -19.5454   22.3669 C   0  0  0  0  0  0  0  0  0  0  0  0
  -23.4928  -21.2628   20.5522 C   0  0  0  0  0  0  0  0  0  0  0  0
  -25.0883  -19.4075   20.8377 C   0  0  0  0  0  0  0  0  0  0  0  0
  -20.0537  -29.5093   21.7461 C   0  0  1  0  0  0  0  0  0  0  0  0
  -23.6090  -30.8252   21.9943 C   0  0  1  0  0  0  0  0  0  0  0  0
  -24.5548  -19.1104   22.2486 C   0  0  2  0  0  0  0  0  0  0  0  0
  -28.8573  -36.2667   20.3065 C   0  0  0  0  0  0  0  0  0  0  0  0
  -27.6948  -27.7774   16.0029 C   0  0  0  0  0  0  0  0  0  0  0  0
  -22.7339  -34.1595   18.9158 C   0  0  0  0  0  0  0  0  0  0  0  0
  -24.6680  -35.6488   18.3597 C   0  0  0  0  0  0  0  0  0  0  0  0
  -23.5111  -35.8783   20.5578 C   0  0  0  0  0  0  0  0  0  0  0  0
  -29.5163  -32.9204   21.9929 C   0  0  0  0  0  0  0  0  0  0  0  0
  -28.8381  -26.1436   17.5377 C   0  0  0  0  0  0  0  0  0  0  0  0
  -24.9892  -33.8704   20.1388 C   0  0  1  0  0  0  0  0  0  0  0  0
  -28.4899  -34.9970   21.0585 C   0  0  2  0  0  0  0  0  0  0  0  0
  -27.8422  -27.2986   17.4410 C   0  0  2  0  0  0  0  0  0  1  0  0
  -23.9789  -34.8610   19.4943 C   0  0  0  0  0  0  0  0  0  0  0  0
  -24.6869  -16.7158   21.6742 N   0  0  0  0  0  0  0  0  0  0  0  0
  -28.5523  -23.2048   19.6540 N   0  0  0  0  0  0  0  0  0  0  0  0
  -24.7440  -17.6551   22.6337 N   0  0  0  0  0  0  0  0  0  0  0  0
  -24.3715  -31.6597   21.0634 N   0  0  0  0  0  0  0  0  0  0  0  0
  -24.8913  -20.8297   20.5163 N   0  0  0  0  0  0  0  0  0  0  0  0
  -25.0623  -17.9610   24.9609 N   0  0  0  0  0  0  0  0  0  0  0  0
  -32.1021  -22.3786   19.5904 N   0  0  0  0  0  0  0  0  0  0  0  0
  -25.3912  -13.4866   24.4436 N   0  0  0  0  0  0  0  0  0  0  0  0
  -27.1943  -21.2415   20.2174 N   0  0  0  0  0  0  0  0  0  0  0  0
  -21.3974  -29.8555   22.1571 N   0  0  0  0  0  0  0  0  0  0  0  0
  -26.1654  -34.5095   20.7190 N   0  0  0  0  0  0  0  0  0  0  0  0
  -29.7270  -34.1876   21.2468 N   0  3  0  0  0  0  0  0  0  0  0  0
  -25.4468  -15.1930   25.9745 O   0  0  0  0  0  0  0  0  0  0  0  0
  -31.5106  -25.1478   18.9941 O   0  0  0  0  0  0  0  0  0  0  0  0
  -29.0194  -26.5808   19.9376 O   0  0  0  0  0  0  0  0  0  0  0  0
  -22.0363  -31.0189   20.2438 O   0  0  0  0  0  0  0  0  0  0  0  0
  -23.8993  -33.6219   22.2308 O   0  0  0  0  0  0  0  0  0  0  0  0
  -27.7299  -33.3712   19.4408 O   0  0  0  0  0  0  0  0  0  0  0  0
  -25.6375  -22.9369   19.9273 O   0  0  0  0  0  0  0  0  0  0  0  0
  -24.9365  -10.6831   19.6509 O   0  0  0  0  0  0  0  0  0  0  0  0
  -26.5714  -26.8413   17.9018 O   0  0  0  0  0  0  0  0  0  1  0  0
  -22.1442   -6.4929   21.8979 F   0  0  0  0  0  0  0  0  0  0  0  0
  -25.5721   -9.7456   22.1728 F   0  0  0  0  0  0  0  0  0  0  0  0
  -29.8393  -21.0043   20.0830 S   0  0  0  0  0  0  0  0  0  0  0  0
  1  2  1  0  0  0  0
  1  5  2  0  0  0  0
  2  6  2  0  0  0  0
  3  8  2  0  0  0  0
  3 15  1  0  0  0  0
  4  9  1  0  0  0  0
  4 15  2  0  0  0  0
  5 17  1  0  0  0  0
  6 19  1  0  0  0  0
  7 10  2  0  0  0  0
  7 18  1  0  0  0  0
  8 21  1  0  0  0  0
  9 21  2  0  0  0  0
 10 22  1  0  0  0  0
 11 12  2  0  0  0  0
 11 23  1  0  0  0  0
 12 24  1  0  0  0  0
 13 20  1  0  0  0  0
 13 22  2  0  0  0  0
 14 24  2  0  0  0  0
 14 25  1  0  0  0  0
 15 26  1  0  0  0  0
 16 26  1  0  0  0  0
 16 28  2  0  0  0  0
 16 31  1  0  0  0  0
 17 19  2  0  0  0  0
 17 38  1  0  0  0  0
 18 20  2  0  0  0  0
 18 39  1  0  0  0  0
 19 47  1  0  0  0  0
 20 40  1  0  0  0  0
 21 80  1  0  0  0  0
 22 81  1  0  0  0  0
 23 25  2  0  0  0  0
 23 80  1  0  0  0  0
 24 82  1  0  0  0  0
 25 83  1  0  0  0  0
 26 61  2  0  0  0  0
 27 29  2  0  0  0  0
 27 32  1  0  0  0  0
 27 62  1  0  0  0  0
 28 63  1  0  0  0  0
 28 66  1  0  0  0  0
 29 67  1  0  0  0  0
 29 84  1  0  0  0  0
 30 62  2  0  0  0  0
 30 69  1  0  0  0  0
 30 84  1  0  0  0  0
 31 68  1  0  0  0  0
 31 73  2  0  0  0  0
 32 33  1  0  0  0  0
 32 74  2  0  0  0  0
 33 56  1  0  0  0  0
 33 75  2  0  0  0  0
 34 48  1  0  0  0  0
 34 70  1  0  0  0  0
 34 76  2  0  0  0  0
 35 57  1  0  0  0  0
 35 64  1  0  0  0  0
 35 77  2  0  0  0  0
 36 58  1  0  0  0  0
 36 71  1  0  0  0  0
 36 78  2  0  0  0  0
 37 65  1  0  0  0  0
 37 69  1  0  0  0  0
 37 79  2  0  0  0  0
 38 41  1  0  0  0  0
 39 48  1  0  0  0  0
 40 64  1  0  0  0  0
 41 43  1  0  0  0  0
 42 44  1  0  0  0  0
 42 45  1  0  0  0  0
 43 47  1  0  0  0  0
 44 49  1  0  0  0  0
 45 65  1  0  0  0  0
 46 49  1  0  0  0  0
 46 65  1  0  0  0  0
 47 70  1  0  0  0  0
 48 64  1  0  0  0  0
 49 63  1  0  0  0  0
 50 58  1  0  0  0  0
 51 59  1  0  0  0  0
 52 60  1  0  0  0  0
 53 60  1  0  0  0  0
 54 60  1  0  0  0  0
 55 72  1  0  0  0  0
 56 59  1  0  0  0  0
 57 60  1  0  0  0  0
 57 71  1  0  0  0  0
 58 72  1  0  0  0  0
 59 81  1  0  0  0  0
 61 63  1  0  0  0  0
M  CHG  1  72   1
M  ISO  4  37 100  59 101  69 100  81 101
M  END
> <Batch ID>
0182

> <Smiles>
CNC(C)C(=O)NC(C(=O)N1Cc2cc([101O:1][101CH:1](C)CC(=O)C(=O)c3nc([100NH:0][100C:0](=O)N4CCCC(n5nc(-c6ccc(Oc7ccc(F)cc7F)cc6)c(C(N)=O)c5N)C4)sc3N)ccc2CC1C(=O)NC1CCCc2ccccc21)C(C)(C)C

> <Shape>
0.238

> <Color>
0.111

> <Negative vol penalty>
0.000

$$$$

  -OEChem-04052304563D

 85 93  0     1  0  0  0  0  0999 V2000
  -19.5542  -28.1380   26.8499 C   0  0  0  0  0  0  0  0  0  0  0  0
  -20.7654  -27.6540   26.3659 C   0  0  0  0  0  0  0  0  0  0  0  0
  -24.1805   -9.6156   22.1634 C   0  0  0  0  0  0  0  0  0  0  0  0
  -23.1843  -10.2729   20.0628 C   0  0  0  0  0  0  0  0  0  0  0  0
  -18.5958  -28.6269   25.9631 C   0  0  0  0  0  0  0  0  0  0  0  0
  -21.0184  -27.6577   24.9946 C   0  0  0  0  0  0  0  0  0  0  0  0
  -26.4147  -28.5793   22.2493 C   0  0  0  0  0  0  0  0  0  0  0  0
  -23.2633   -8.5704   22.2714 C   0  0  0  0  0  0  0  0  0  0  0  0
  -22.2670   -9.2276   20.1707 C   0  0  0  0  0  0  0  0  0  0  0  0
  -27.3614  -27.7015   21.7231 C   0  0  0  0  0  0  0  0  0  0  0  0
  -22.8541   -5.4721   20.9806 C   0  0  0  0  0  0  0  0  0  0  0  0
  -23.3388   -4.2210   21.3619 C   0  0  0  0  0  0  0  0  0  0  0  0
  -26.4014  -27.9910   19.5291 C   0  0  0  0  0  0  0  0  0  0  0  0
  -21.9000   -4.2549   23.3024 C   0  0  0  0  0  0  0  0  0  0  0  0
  -29.2533  -18.9274   16.5488 C   0  0  0  0  0  0  0  0  0  0  0  0
  -24.1410  -10.4669   21.0592 C   0  0  0  0  0  0  0  0  0  0  0  0
  -26.3544  -11.5075   20.3341 C   0  0  0  0  0  0  0  0  0  0  0  0
  -18.8411  -28.6455   24.5810 C   0  0  0  0  0  0  0  0  0  0  0  0
  -25.4458  -29.1621   21.4198 C   0  0  0  0  0  0  0  0  0  0  0  0
  -20.0619  -28.1461   24.0884 C   0  0  0  0  0  0  0  0  0  0  0  0
  -25.4451  -28.8778   20.0468 C   0  0  0  0  0  0  0  0  0  0  0  0
  -22.3065   -8.3763   21.2750 C   0  0  0  0  0  0  0  0  0  0  0  0
  -27.3531  -27.4050   20.3633 C   0  0  0  0  0  0  0  0  0  0  0  0
  -21.8923   -6.1147   21.7602 C   0  0  0  0  0  0  0  0  0  0  0  0
  -22.8618   -3.6124   22.5228 C   0  0  0  0  0  0  0  0  0  0  0  0
  -21.4153   -5.5061   22.9211 C   0  0  0  0  0  0  0  0  0  0  0  0
  -29.4250  -20.2714   16.8611 C   0  0  0  0  0  0  0  0  0  0  0  0
  -28.4261  -18.1363   17.3382 C   0  0  0  0  0  0  0  0  0  0  0  0
  -25.0879  -11.5472   20.9474 C   0  0  0  0  0  0  0  0  0  0  0  0
  -28.7527  -20.7720   17.9643 C   0  0  0  0  0  0  0  0  0  0  0  0
  -27.7986  -18.7323   18.4202 C   0  0  0  0  0  0  0  0  0  0  0  0
  -26.8533  -12.7771   20.4938 C   0  0  0  0  0  0  0  0  0  0  0  0
  -27.9673  -25.2171   19.8096 C   0  0  0  0  0  0  0  0  0  1  0  0
  -27.0204  -10.4201   19.6785 C   0  0  0  0  0  0  0  0  0  0  0  0
  -28.7986  -24.2871   19.3240 C   0  0  0  0  0  0  0  0  0  0  0  0
  -28.3654  -22.8516   19.3265 C   0  0  0  0  0  0  0  0  0  0  0  0
  -22.2714  -29.0796   21.2778 C   0  0  0  0  0  0  0  0  0  0  0  0
  -22.7050  -31.3208   18.9732 C   0  0  0  0  0  0  0  0  0  0  0  0
  -24.7619  -32.7038   16.6272 C   0  0  0  0  0  0  0  0  0  0  0  0
  -26.2327  -18.3085   20.3475 C   0  0  0  0  0  0  0  0  0  0  0  0
  -17.7559  -29.1399   23.6577 C   0  0  0  0  0  0  0  0  0  0  0  0
  -24.4481  -30.1277   21.9983 C   0  0  0  0  0  0  0  0  0  0  0  0
  -24.4386  -29.4929   19.1101 C   0  0  0  0  0  0  0  0  0  0  0  0
  -18.2517  -29.4553   22.2489 C   0  0  0  0  0  0  0  0  0  0  0  0
  -25.1926  -16.6380   23.3148 C   0  0  0  0  0  0  0  0  0  0  0  0
  -19.1389  -28.3280   21.7303 C   0  0  0  0  0  0  0  0  0  0  0  0
  -25.1768  -15.1613   22.9129 C   0  0  0  0  0  0  0  0  0  0  0  0
  -24.7309  -17.5415   22.1727 C   0  0  0  0  0  0  0  0  0  0  0  0
  -25.4252  -15.8713   20.5002 C   0  0  0  0  0  0  0  0  0  0  0  0
  -20.3834  -28.1564   22.6097 C   0  0  1  0  0  0  0  0  0  0  0  0
  -23.1873  -30.2638   21.1503 C   0  0  1  0  0  0  0  0  0  0  0  0
  -25.9443  -14.9272   21.5970 C   0  0  2  0  0  0  0  0  0  0  0  0
  -24.8237  -34.4972   14.8730 C   0  0  0  0  0  0  0  0  0  0  0  0
  -21.0108  -29.5747   17.1318 C   0  0  0  0  0  0  0  0  0  0  0  0
  -21.8847  -30.8941   15.1917 C   0  0  0  0  0  0  0  0  0  0  0  0
  -20.5444  -32.0261   16.9651 C   0  0  0  0  0  0  0  0  0  0  0  0
  -26.9856  -34.1121   17.9801 C   0  0  0  0  0  0  0  0  0  0  0  0
  -22.9085  -31.2909   17.4776 C   0  0  1  0  0  0  0  0  0  0  0  0
  -25.1161  -34.1484   16.3241 C   0  0  2  0  0  0  0  0  0  0  0  0
  -21.6050  -30.9332   16.7093 C   0  0  0  0  0  0  0  0  0  0  0  0
  -24.8001  -12.7471   21.4588 N   0  0  0  0  0  0  0  0  0  0  0  0
  -27.9410  -20.0344   18.7548 N   0  0  0  0  0  0  0  0  0  0  0  0
  -25.8928  -13.4730   21.1672 N   0  0  0  0  0  0  0  0  0  0  0  0
  -23.4798  -30.4259   19.7247 N   0  0  0  0  0  0  0  0  0  0  0  0
  -25.5051  -17.2665   20.9604 N   0  0  0  0  0  0  0  0  0  0  0  0
  -28.0155  -13.3550   20.1227 N   0  0  0  0  0  0  0  0  0  0  0  0
  -26.3652   -9.1834   19.6030 N   0  0  0  0  0  0  0  0  0  0  0  0
  -28.9317  -22.1411   18.2770 N   0  0  0  0  0  0  0  0  0  0  0  0
  -26.9566  -17.9209   19.2205 N   0  0  0  0  0  0  0  0  0  0  0  0
  -21.3591  -29.1825   22.3105 N   0  0  0  0  0  0  0  0  0  0  0  0
  -23.4786  -32.5846   17.1173 N   0  0  0  0  0  0  0  0  0  0  0  0
  -26.5632  -34.3923   16.5837 N   0  3  0  0  0  0  0  0  0  0  0  0
  -28.1694  -10.5370   19.1889 O   0  0  0  0  0  0  0  0  0  0  0  0
  -27.5999  -22.4260   20.1848 O   0  0  0  0  0  0  0  0  0  0  0  0
  -22.3831  -28.1425   20.4961 O   0  0  0  0  0  0  0  0  0  0  0  0
  -21.8940  -32.1141   19.4574 O   0  0  0  0  0  0  0  0  0  0  0  0
  -25.5440  -31.7736   16.4438 O   0  0  0  0  0  0  0  0  0  0  0  0
  -26.2365  -19.4540   20.8057 O   0  0  0  0  0  0  0  0  0  0  0  0
  -30.0443  -24.5970   18.8172 O   0  0  0  0  0  0  0  0  0  0  0  0
  -21.4115   -7.3563   21.3799 O   0  0  0  0  0  0  0  0  0  0  0  0
  -28.2756  -26.5480   19.8471 O   0  0  0  0  0  0  0  0  0  1  0  0
  -23.3263   -2.4103   22.8880 F   0  0  0  0  0  0  0  0  0  0  0  0
  -20.4905   -6.1179   23.6736 F   0  0  0  0  0  0  0  0  0  0  0  0
  -30.2189  -21.0453   16.1096 F   0  0  0  0  0  0  0  0  0  0  0  0
  -28.2511  -16.8404   17.0487 F   0  0  0  0  0  0  0  0  0  0  0  0
  1  2  1  0  0  0  0
  1  5  2  0  0  0  0
  2  6  2  0  0  0  0
  3  8  2  0  0  0  0
  3 16  1  0  0  0  0
  4  9  1  0  0  0  0
  4 16  2  0  0  0  0
  5 18  1  0  0  0  0
  6 20  1  0  0  0  0
  7 10  2  0  0  0  0
  7 19  1  0  0  0  0
  8 22  1  0  0  0  0
  9 22  2  0  0  0  0
 10 23  1  0  0  0  0
 11 12  2  0  0  0  0
 11 24  1  0  0  0  0
 12 25  1  0  0  0  0
 13 21  1  0  0  0  0
 13 23  2  0  0  0  0
 14 25  2  0  0  0  0
 14 26  1  0  0  0  0
 15 27  1  0  0  0  0
 15 28  2  0  0  0  0
 16 29  1  0  0  0  0
 17 29  1  0  0  0  0
 17 32  2  0  0  0  0
 17 34  1  0  0  0  0
 18 20  2  0  0  0  0
 18 41  1  0  0  0  0
 19 21  2  0  0  0  0
 19 42  1  0  0  0  0
 20 50  1  0  0  0  0
 21 43  1  0  0  0  0
 22 80  1  0  0  0  0
 23 81  1  0  0  0  0
 24 26  2  0  0  0  0
 24 80  1  0  0  0  0
 25 82  1  0  0  0  0
 26 83  1  0  0  0  0
 27 30  2  0  0  0  0
 27 84  1  0  0  0  0
 28 31  1  0  0  0  0
 28 85  1  0  0  0  0
 29 61  2  0  0  0  0
 30 62  1  0  0  0  0
 30 68  1  0  0  0  0
 31 62  2  0  0  0  0
 31 69  1  0  0  0  0
 32 63  1  0  0  0  0
 32 66  1  0  0  0  0
 33 35  2  0  0  0  0
 33 81  1  0  0  0  0
 34 67  1  0  0  0  0
 34 73  2  0  0  0  0
 35 36  1  0  0  0  0
 35 79  1  0  0  0  0
 36 68  1  0  0  0  0
 36 74  2  0  0  0  0
 37 51  1  0  0  0  0
 37 70  1  0  0  0  0
 37 75  2  0  0  0  0
 38 58  1  0  0  0  0
 38 64  1  0  0  0  0
 38 76  2  0  0  0  0
 39 59  1  0  0  0  0
 39 71  1  0  0  0  0
 39 77  2  0  0  0  0
 40 65  1  0  0  0  0
 40 69  1  0  0  0  0
 40 78  2  0  0  0  0
 41 44  1  0  0  0  0
 42 51  1  0  0  0  0
 43 64  1  0  0  0  0
 44 46  1  0  0  0  0
 45 47  1  0  0  0  0
 45 48  1  0  0  0  0
 46 50  1  0  0  0  0
 47 52  1  0  0  0  0
 48 65  1  0  0  0  0
 49 52  1  0  0  0  0
 49 65  1  0  0  0  0
 50 70  1  0  0  0  0
 51 64  1  0  0  0  0
 52 63  1  0  0  0  0
 53 59  1  0  0  0  0
 54 60  1  0  0  0  0
 55 60  1  0  0  0  0
 56 60  1  0  0  0  0
 57 72  1  0  0  0  0
 58 60  1  0  0  0  0
 58 71  1  0  0  0  0
 59 72  1  0  0  0  0
 61 63  1  0  0  0  0
M  CHG  1  72   1
M  ISO  4  33 101  40 100  69 100  81 101
M  END
> <Batch ID>
0182

> <Smiles>
CNC(C)C(=O)NC(C(=O)N1Cc2cc([101O:1][101CH2:1]C(=O)C(=O)Nc3nc([100NH:0][100C:0](=O)N4CCCC(n5nc(-c6ccc(Oc7ccc(F)cc7F)cc6)c(C(N)=O)c5N)C4)c(F)cc3F)ccc2CC1C(=O)NC1CCCc2ccccc21)C(C)(C)C

> <Shape>
0.265

> <Color>
0.114

> <Negative vol penalty>
0.000

$$$$

  -OEChem-04052304563D

 82 90  0     1  0  0  0  0  0999 V2000
  -18.1301  -24.3201   21.5808 C   0  0  0  0  0  0  0  0  0  0  0  0
  -19.4598  -24.3003   21.1720 C   0  0  0  0  0  0  0  0  0  0  0  0
  -22.5860  -10.9394   21.7667 C   0  0  0  0  0  0  0  0  0  0  0  0
  -23.4413  -12.1184   23.6943 C   0  0  0  0  0  0  0  0  0  0  0  0
  -17.6510  -25.3874   22.3391 C   0  0  0  0  0  0  0  0  0  0  0  0
  -20.3108  -25.3485   21.5203 C   0  0  0  0  0  0  0  0  0  0  0  0
  -24.8191  -23.7274   23.1611 C   0  0  0  0  0  0  0  0  0  0  0  0
  -21.6955  -10.2458   22.5861 C   0  0  0  0  0  0  0  0  0  0  0  0
  -22.5508  -11.4247   24.5137 C   0  0  0  0  0  0  0  0  0  0  0  0
  -25.7363  -23.3129   22.1964 C   0  0  0  0  0  0  0  0  0  0  0  0
  -18.7314  -10.8341   24.1031 C   0  0  0  0  0  0  0  0  0  0  0  0
  -17.4111  -10.7139   23.6698 C   0  0  0  0  0  0  0  0  0  0  0  0
  -32.5365  -18.3589   19.2171 C   0  0  0  0  0  0  0  0  0  0  0  0
  -32.3909  -16.9544   19.3139 C   0  0  0  0  0  0  0  0  0  0  0  0
  -26.8578  -25.4426   22.3563 C   0  0  0  0  0  0  0  0  0  0  0  0
  -17.6243   -8.3074   23.6874 C   0  0  0  0  0  0  0  0  0  0  0  0
  -23.4590  -11.8757   22.3208 C   0  0  0  0  0  0  0  0  0  0  0  0
  -24.1560  -13.8199   20.8235 C   0  0  0  0  0  0  0  0  0  0  0  0
  -18.4990  -26.4445   22.7052 C   0  0  0  0  0  0  0  0  0  0  0  0
  -24.9080  -25.0088   23.7237 C   0  0  0  0  0  0  0  0  0  0  0  0
  -19.8422  -26.4317   22.2832 C   0  0  0  0  0  0  0  0  0  0  0  0
  -25.9420  -25.8700   23.3298 C   0  0  0  0  0  0  0  0  0  0  0  0
  -21.6778  -10.4884   23.9596 C   0  0  0  0  0  0  0  0  0  0  0  0
  -26.7542  -24.1716   21.7918 C   0  0  0  0  0  0  0  0  0  0  0  0
  -19.4983   -9.6910   24.3285 C   0  0  0  0  0  0  0  0  0  0  0  0
  -16.8575   -9.4506   23.4620 C   0  0  0  0  0  0  0  0  0  0  0  0
  -18.9448   -8.4276   24.1207 C   0  0  0  0  0  0  0  0  0  0  0  0
  -24.3795  -12.5921   21.4750 C   0  0  0  0  0  0  0  0  0  0  0  0
  -31.3429  -18.8967   19.6392 C   0  0  0  0  0  0  0  0  0  0  0  0
  -25.3274  -14.0703   20.1516 C   0  0  0  0  0  0  0  0  0  0  0  0
  -31.1188  -16.7340   19.7884 C   0  0  0  0  0  0  0  0  0  0  0  0
  -29.7767  -20.7251   20.1581 C   0  0  0  0  0  0  0  0  0  0  0  0
  -22.9934  -14.6590   20.8256 C   0  0  0  0  0  0  0  0  0  0  0  0
  -30.9866  -20.3267   19.7257 C   0  0  0  0  0  0  0  0  0  0  0  0
  -29.3531  -22.1532   20.2762 C   0  0  0  0  0  0  0  0  0  0  0  0
  -23.0191  -27.5644   23.7923 C   0  0  0  0  0  0  0  0  0  0  0  0
  -25.2854  -28.7023   25.8149 C   0  0  0  0  0  0  0  0  0  0  0  0
  -28.5203  -28.5951   26.8969 C   0  0  0  0  0  0  0  0  0  0  0  0
  -30.8896  -14.2306   19.9519 C   0  0  0  0  0  0  0  0  0  0  0  0
  -17.9238  -27.5998   23.4857 C   0  0  0  0  0  0  0  0  0  0  0  0
  -23.9267  -25.4310   24.7826 C   0  0  0  0  0  0  0  0  0  0  0  0
  -26.0933  -27.2484   23.9178 C   0  0  0  0  0  0  0  0  0  0  0  0
  -18.9849  -28.4879   24.1303 C   0  0  0  0  0  0  0  0  0  0  0  0
  -29.3330  -11.0969   19.2934 C   0  0  0  0  0  0  0  0  0  0  0  0
  -20.0892  -28.8126   23.1293 C   0  0  0  0  0  0  0  0  0  0  0  0
  -27.8871  -11.3075   19.7487 C   0  0  0  0  0  0  0  0  0  0  0  0
  -30.3246  -11.8235   20.2002 C   0  0  0  0  0  0  0  0  0  0  0  0
  -28.6064  -13.4634   20.8540 C   0  0  0  0  0  0  0  0  0  0  0  0
  -20.8026  -27.5381   22.6621 C   0  0  1  0  0  0  0  0  0  0  0  0
  -23.8045  -26.9459   24.9140 C   0  0  1  0  0  0  0  0  0  0  0  0
  -27.5667  -12.8038   19.9333 C   0  0  2  0  0  0  0  0  0  0  0  0
  -30.0855  -29.6706   28.5373 C   0  0  0  0  0  0  0  0  0  0  0  0
  -25.4807  -31.1581   24.0147 C   0  0  0  0  0  0  0  0  0  0  0  0
  -27.6538  -31.7142   25.1267 C   0  0  0  0  0  0  0  0  0  0  0  0
  -25.5497  -31.6528   26.4652 C   0  0  0  0  0  0  0  0  0  0  0  0
  -29.0028  -26.0313   28.2945 C   0  0  0  0  0  0  0  0  0  0  0  0
  -27.9441  -22.3747   20.7861 C   0  0  0  0  0  0  0  0  0  1  0  0
  -26.5664  -29.4848   25.6540 C   0  0  1  0  0  0  0  0  0  0  0  0
  -29.1140  -28.5266   28.2924 C   0  0  2  0  0  0  0  0  0  0  0  0
  -26.3089  -30.9773   25.3024 C   0  0  0  0  0  0  0  0  0  0  0  0
  -25.5972  -12.0969   21.2381 N   0  0  0  0  0  0  0  0  0  0  0  0
  -26.1493  -13.0181   20.4303 N   0  0  0  0  0  0  0  0  0  0  0  0
  -25.1054  -27.6174   24.9452 N   0  0  0  0  0  0  0  0  0  0  0  0
  -29.9604  -13.2365   20.3249 N   0  0  0  0  0  0  0  0  0  0  0  0
  -25.7243  -15.0856   19.3553 N   0  0  0  0  0  0  0  0  0  0  0  0
  -21.8771  -14.2521   21.5689 N   0  0  0  0  0  0  0  0  0  0  0  0
  -30.4201  -15.5371   20.0832 N   0  0  0  0  0  0  0  0  0  0  0  0
  -21.7308  -27.0790   23.6731 N   0  0  0  0  0  0  0  0  0  0  0  0
  -27.3253  -29.2828   26.8835 N   0  0  0  0  0  0  0  0  0  0  0  0
  -29.8440  -27.2413   28.4822 N   0  3  0  0  0  0  0  0  0  0  0  0
  -22.9401  -15.7296   20.1740 O   0  0  0  0  0  0  0  0  0  0  0  0
  -30.0964  -23.0839   19.9796 O   0  0  0  0  0  0  0  0  0  0  0  0
  -23.5426  -28.4197   23.0880 O   0  0  0  0  0  0  0  0  0  0  0  0
  -24.4777  -29.0368   26.6851 O   0  0  0  0  0  0  0  0  0  0  0  0
  -29.0643  -28.0923   25.9162 O   0  0  0  0  0  0  0  0  0  0  0  0
  -32.0090  -13.9434   19.5202 O   0  0  0  0  0  0  0  0  0  0  0  0
  -30.4734  -17.9129   19.9894 O   0  0  0  0  0  0  0  0  0  0  0  0
  -32.0044  -21.1773   19.3485 O   0  0  0  0  0  0  0  0  0  0  0  0
  -20.8088   -9.8120   24.7594 O   0  0  0  0  0  0  0  0  0  0  0  0
  -27.6504  -23.7697   20.8499 O   0  0  0  0  0  0  0  0  0  1  0  0
  -15.5890   -9.3353   23.0474 F   0  0  0  0  0  0  0  0  0  0  0  0
  -19.6762   -7.3257   24.3367 F   0  0  0  0  0  0  0  0  0  0  0  0
  1  2  1  0  0  0  0
  1  5  2  0  0  0  0
  2  6  2  0  0  0  0
  3  8  2  0  0  0  0
  3 17  1  0  0  0  0
  4  9  1  0  0  0  0
  4 17  2  0  0  0  0
  5 19  1  0  0  0  0
  6 21  1  0  0  0  0
  7 10  2  0  0  0  0
  7 20  1  0  0  0  0
  8 23  1  0  0  0  0
  9 23  2  0  0  0  0
 10 24  1  0  0  0  0
 11 12  2  0  0  0  0
 11 25  1  0  0  0  0
 12 26  1  0  0  0  0
 13 14  1  0  0  0  0
 13 29  2  0  0  0  0
 14 31  2  0  0  0  0
 15 22  1  0  0  0  0
 15 24  2  0  0  0  0
 16 26  2  0  0  0  0
 16 27  1  0  0  0  0
 17 28  1  0  0  0  0
 18 28  1  0  0  0  0
 18 30  2  0  0  0  0
 18 33  1  0  0  0  0
 19 21  2  0  0  0  0
 19 40  1  0  0  0  0
 20 22  2  0  0  0  0
 20 41  1  0  0  0  0
 21 49  1  0  0  0  0
 22 42  1  0  0  0  0
 23 79  1  0  0  0  0
 24 80  1  0  0  0  0
 25 27  2  0  0  0  0
 25 79  1  0  0  0  0
 26 81  1  0  0  0  0
 27 82  1  0  0  0  0
 28 61  2  0  0  0  0
 29 34  1  0  0  0  0
 29 77  1  0  0  0  0
 30 62  1  0  0  0  0
 30 65  1  0  0  0  0
 31 67  1  0  0  0  0
 31 77  1  0  0  0  0
 32 34  2  0  0  0  0
 32 35  1  0  0  0  0
 33 66  1  0  0  0  0
 33 71  2  0  0  0  0
 34 78  1  0  0  0  0
 35 57  1  0  0  0  0
 35 72  2  0  0  0  0
 36 50  1  0  0  0  0
 36 68  1  0  0  0  0
 36 73  2  0  0  0  0
 37 58  1  0  0  0  0
 37 63  1  0  0  0  0
 37 74  2  0  0  0  0
 38 59  1  0  0  0  0
 38 69  1  0  0  0  0
 38 75  2  0  0  0  0
 39 64  1  0  0  0  0
 39 67  1  0  0  0  0
 39 76  2  0  0  0  0
 40 43  1  0  0  0  0
 41 50  1  0  0  0  0
 42 63  1  0  0  0  0
 43 45  1  0  0  0  0
 44 46  1  0  0  0  0
 44 47  1  0  0  0  0
 45 49  1  0  0  0  0
 46 51  1  0  0  0  0
 47 64  1  0  0  0  0
 48 51  1  0  0  0  0
 48 64  1  0  0  0  0
 49 68  1  0  0  0  0
 50 63  1  0  0  0  0
 51 62  1  0  0  0  0
 52 59  1  0  0  0  0
 53 60  1  0  0  0  0
 54 60  1  0  0  0  0
 55 60  1  0  0  0  0
 56 70  1  0  0  0  0
 57 80  1  0  0  0  0
 58 60  1  0  0  0  0
 58 69  1  0  0  0  0
 59 70  1  0  0  0  0
 61 62  1  0  0  0  0
M  CHG  1  70   1
M  ISO  4  39 100  57 101  67 100  80 101
M  END
> <Batch ID>
0182

> <Smiles>
CNC(C)C(=O)NC(C(=O)N1Cc2cc([101O:1][101CH2:1]C(=O)CC(=O)c3ccc([100NH:0][100C:0](=O)N4CCCC(n5nc(-c6ccc(Oc7ccc(F)cc7F)cc6)c(C(N)=O)c5N)C4)o3)ccc2CC1C(=O)NC1CCCc2ccccc21)C(C)(C)C

> <Shape>
0.226

> <Color>
0.131

> <Negative vol penalty>
0.000

$$$$

  -OEChem-04052304563D

 84 92  0     1  0  0  0  0  0999 V2000
  -18.1832  -28.3505   23.0032 C   0  0  0  0  0  0  0  0  0  0  0  0
  -17.8446  -27.2219   22.2637 C   0  0  0  0  0  0  0  0  0  0  0  0
  -29.8764  -21.9456   19.7134 C   0  0  0  0  0  0  0  0  0  0  0  0
  -31.0077  -21.7776   17.5853 C   0  0  0  0  0  0  0  0  0  0  0  0
  -19.5096  -28.5672   23.3745 C   0  0  0  0  0  0  0  0  0  0  0  0
  -18.8324  -26.3097   21.8940 C   0  0  0  0  0  0  0  0  0  0  0  0
  -18.4373  -19.4012   23.8958 C   0  0  0  0  0  0  0  0  0  0  0  0
  -30.3729  -23.2390   19.8753 C   0  0  0  0  0  0  0  0  0  0  0  0
  -31.5041  -23.0711   17.7471 C   0  0  0  0  0  0  0  0  0  0  0  0
  -18.3254  -18.0205   24.0609 C   0  0  0  0  0  0  0  0  0  0  0  0
  -29.6559  -26.3425   18.7405 C   0  0  0  0  0  0  0  0  0  0  0  0
  -28.7708  -27.3260   19.1822 C   0  0  0  0  0  0  0  0  0  0  0  0
  -20.4700  -17.7077   22.9879 C   0  0  0  0  0  0  0  0  0  0  0  0
  -30.1600  -27.7049   21.1222 C   0  0  0  0  0  0  0  0  0  0  0  0
  -30.1939  -21.2149   18.5685 C   0  0  0  0  0  0  0  0  0  0  0  0
  -28.4720  -19.5024   17.7873 C   0  0  0  0  0  0  0  0  0  0  0  0
  -20.5126  -27.6523   23.0174 C   0  0  0  0  0  0  0  0  0  0  0  0
  -19.5743  -19.9421   23.2892 C   0  0  0  0  0  0  0  0  0  0  0  0
  -20.1737  -26.5151   22.2596 C   0  0  0  0  0  0  0  0  0  0  0  0
  -20.5932  -19.0908   22.8310 C   0  0  0  0  0  0  0  0  0  0  0  0
  -31.1867  -23.8018   18.8921 C   0  0  0  0  0  0  0  0  0  0  0  0
  -19.3392  -17.1759   23.6078 C   0  0  0  0  0  0  0  0  0  0  0  0
  -30.7930  -26.0401   19.4898 C   0  0  0  0  0  0  0  0  0  0  0  0
  -29.0229  -28.0072   20.3730 C   0  0  0  0  0  0  0  0  0  0  0  0
  -31.0451  -26.7214   20.6805 C   0  0  0  0  0  0  0  0  0  0  0  0
  -29.6819  -19.8785   18.4010 C   0  0  0  0  0  0  0  0  0  0  0  0
  -25.5291  -13.1114   21.2219 C   0  0  0  0  0  0  0  0  0  0  0  0
  -24.8012  -14.2452   20.9271 C   0  0  0  0  0  0  0  0  0  0  0  0
  -28.4499  -18.1324   17.8828 C   0  0  0  0  0  0  0  0  0  0  0  0
  -23.1360  -12.8965   21.3940 C   0  0  0  0  0  0  0  0  0  0  0  0
  -26.9838  -12.8756   21.2230 C   0  0  0  0  0  0  0  0  0  0  0  0
  -27.4587  -20.3185   17.1848 C   0  0  0  0  0  0  0  0  0  0  0  0
  -21.3937  -23.0283   22.1751 C   0  0  0  0  0  0  0  0  0  0  0  0
  -20.4478  -14.1047   22.6275 C   0  0  0  0  0  0  0  0  0  0  0  0
  -23.4926  -21.1419   23.3777 C   0  0  0  0  0  0  0  0  0  0  0  0
  -25.4180  -18.9605   25.1586 C   0  0  0  0  0  0  0  0  0  0  0  0
  -29.1744  -13.5141   20.9321 C   0  0  0  0  0  0  0  0  0  0  0  0
  -21.9398  -27.9534   23.4010 C   0  0  0  0  0  0  0  0  0  0  0  0
  -19.7094  -21.4190   23.0352 C   0  0  0  0  0  0  0  0  0  0  0  0
  -21.7824  -19.7149   22.1533 C   0  0  0  0  0  0  0  0  0  0  0  0
  -22.8679  -26.7465   23.2902 C   0  0  0  0  0  0  0  0  0  0  0  0
  -32.0522  -14.8541   19.2209 C   0  0  0  0  0  0  0  0  0  0  0  0
  -22.6469  -26.0229   21.9657 C   0  0  0  0  0  0  0  0  0  0  0  0
  -31.6021  -16.2633   18.8363 C   0  0  0  0  0  0  0  0  0  0  0  0
  -31.4670  -14.4262   20.5633 C   0  0  0  0  0  0  0  0  0  0  0  0
  -29.5224  -15.9315   20.2449 C   0  0  0  0  0  0  0  0  0  0  0  0
  -21.2129  -25.4899   21.8608 C   0  0  1  0  0  0  0  0  0  0  0  0
  -21.1581  -21.9232   23.1623 C   0  0  1  0  0  0  0  0  0  0  0  0
  -30.0685  -16.3853   18.8804 C   0  0  1  0  0  0  0  0  0  0  0  0
  -17.9299  -14.2475   22.5143 C   0  0  0  0  0  0  0  0  0  0  0  0
  -27.7710  -18.6084   25.9566 C   0  0  0  0  0  0  0  0  0  0  0  0
  -24.3169  -20.3001   20.5642 C   0  0  0  0  0  0  0  0  0  0  0  0
  -26.2709  -19.1022   21.5717 C   0  0  0  0  0  0  0  0  0  0  0  0
  -26.0604  -21.5749   21.8250 C   0  0  0  0  0  0  0  0  0  0  0  0
  -24.5854  -19.0084   27.9983 C   0  0  0  0  0  0  0  0  0  0  0  0
  -20.6633  -13.2298   21.4084 C   0  0  0  0  0  0  0  0  0  0  0  0
  -19.2319  -15.0254   22.5972 C   0  0  1  0  0  0  0  0  0  1  0  0
  -24.5117  -20.0592   23.1274 C   0  0  1  0  0  0  0  0  0  0  0  0
  -26.4025  -19.1800   26.2931 C   0  0  2  0  0  0  0  0  0  0  0  0
  -25.2634  -20.2529   21.7803 C   0  0  0  0  0  0  0  0  0  0  0  0
  -30.3779  -18.8320   18.8530 N   0  0  0  0  0  0  0  0  0  0  0  0
  -23.4288  -14.1237   21.0248 N   0  0  0  0  0  0  0  0  0  0  0  0
  -27.8242  -13.8071   20.9108 N   0  0  0  0  0  0  0  0  0  0  0  0
  -29.6028  -17.7848   18.5232 N   0  0  0  0  0  0  0  0  0  0  0  0
  -22.2011  -20.9214   22.8838 N   0  0  0  0  0  0  0  0  0  0  0  0
  -30.0125  -14.5876   20.5786 N   0  0  0  0  0  0  0  0  0  0  0  0
  -25.3579  -15.4245   20.5597 N   0  0  0  0  0  0  0  0  0  0  0  0
  -27.5570  -17.2033   17.4806 N   0  0  0  0  0  0  0  0  0  0  0  0
  -27.6400  -21.7082   17.1723 N   0  0  0  0  0  0  0  0  0  0  0  0
  -21.8457  -12.4258   21.5885 N   0  0  0  0  0  0  0  0  0  0  0  0
  -21.0631  -24.2843   22.6472 N   0  0  0  0  0  0  0  0  0  0  0  0
  -25.3808  -20.0379   24.2990 N   0  0  0  0  0  0  0  0  0  0  0  0
  -25.9124  -18.5242   27.5384 N   0  3  0  0  0  0  0  0  0  0  0  0
  -26.4155  -19.8309   16.6872 O   0  0  0  0  0  0  0  0  0  0  0  0
  -21.8438  -22.7627   21.0667 O   0  0  0  0  0  0  0  0  0  0  0  0
  -21.2130  -14.0848   23.5924 O   0  0  0  0  0  0  0  0  0  0  0  0
  -23.8311  -22.1591   23.9893 O   0  0  0  0  0  0  0  0  0  0  0  0
  -24.7515  -17.9342   25.0443 O   0  0  0  0  0  0  0  0  0  0  0  0
  -29.6339  -12.4113   21.2382 O   0  0  0  0  0  0  0  0  0  0  0  0
  -31.6711  -25.0640   19.0496 O   0  0  0  0  0  0  0  0  0  0  0  0
  -19.2257  -15.8292   23.7762 O   0  0  0  0  0  0  0  0  0  1  0  0
  -28.1737  -28.9527   20.7961 F   0  0  0  0  0  0  0  0  0  0  0  0
  -32.1364  -26.4362   21.4040 F   0  0  0  0  0  0  0  0  0  0  0  0
  -24.4622  -11.8359   21.6417 S   0  0  0  0  0  0  0  0  0  0  0  0
  1  2  1  0  0  0  0
  1  5  2  0  0  0  0
  2  6  2  0  0  0  0
  3  8  2  0  0  0  0
  3 15  1  0  0  0  0
  4  9  1  0  0  0  0
  4 15  2  0  0  0  0
  5 17  1  0  0  0  0
  6 19  1  0  0  0  0
  7 10  2  0  0  0  0
  7 18  1  0  0  0  0
  8 21  1  0  0  0  0
  9 21  2  0  0  0  0
 10 22  1  0  0  0  0
 11 12  2  0  0  0  0
 11 23  1  0  0  0  0
 12 24  1  0  0  0  0
 13 20  1  0  0  0  0
 13 22  2  0  0  0  0
 14 24  2  0  0  0  0
 14 25  1  0  0  0  0
 15 26  1  0  0  0  0
 16 26  1  0  0  0  0
 16 29  2  0  0  0  0
 16 32  1  0  0  0  0
 17 19  2  0  0  0  0
 17 38  1  0  0  0  0
 18 20  2  0  0  0  0
 18 39  1  0  0  0  0
 19 47  1  0  0  0  0
 20 40  1  0  0  0  0
 21 80  1  0  0  0  0
 22 81  1  0  0  0  0
 23 25  2  0  0  0  0
 23 80  1  0  0  0  0
 24 82  1  0  0  0  0
 25 83  1  0  0  0  0
 26 61  2  0  0  0  0
 27 28  2  0  0  0  0
 27 31  1  0  0  0  0
 27 84  1  0  0  0  0
 28 62  1  0  0  0  0
 28 67  1  0  0  0  0
 29 64  1  0  0  0  0
 29 68  1  0  0  0  0
 30 62  2  0  0  0  0
 30 70  1  0  0  0  0
 30 84  1  0  0  0  0
 31 63  2  0  0  0  0
 32 69  1  0  0  0  0
 32 74  2  0  0  0  0
 33 48  1  0  0  0  0
 33 71  1  0  0  0  0
 33 75  2  0  0  0  0
 34 56  1  0  0  0  0
 34 57  1  0  0  0  0
 34 76  2  0  0  0  0
 35 58  1  0  0  0  0
 35 65  1  0  0  0  0
 35 77  2  0  0  0  0
 36 59  1  0  0  0  0
 36 72  1  0  0  0  0
 36 78  2  0  0  0  0
 37 63  1  0  0  0  0
 37 66  1  0  0  0  0
 37 79  2  0  0  0  0
 38 41  1  0  0  0  0
 39 48  1  0  0  0  0
 40 65  1  0  0  0  0
 41 43  1  0  0  0  0
 42 44  1  0  0  0  0
 42 45  1  0  0  0  0
 43 47  1  0  0  0  0
 44 49  1  0  0  0  0
 45 66  1  0  0  0  0
 46 49  1  0  0  0  0
 46 66  1  0  0  0  0
 47 71  1  0  0  0  0
 48 65  1  0  0  0  0
 49 64  1  0  0  0  0
 50 57  1  0  0  0  0
 51 59  1  0  0  0  0
 52 60  1  0  0  0  0
 53 60  1  0  0  0  0
 54 60  1  0  0  0  0
 55 73  1  0  0  0  0
 56 70  1  0  0  0  0
 57 81  1  0  0  0  0
 58 60  1  0  0  0  0
 58 72  1  0  0  0  0
 59 73  1  0  0  0  0
 61 64  1  0  0  0  0
M  CHG  1  73   1
M  ISO  4  37 100  57 101  63 100  81 101
M  END
> <Batch ID>
0182

> <Smiles>
CNC(C)C(=O)NC(C(=O)N1Cc2cc([101O:1][101CH:1](C)C(=O)CNc3nc(N)c(C=[100N:0][100C:0](=O)N4CCCC(n5nc(-c6ccc(Oc7ccc(F)cc7F)cc6)c(C(N)=O)c5N)C4)s3)ccc2CC1C(=O)NC1CCCc2ccccc21)C(C)(C)C

> <Shape>
0.216

> <Color>
0.078

> <Negative vol penalty>
0.000

$$$$

  -OEChem-04052304563D

 84 92  0     1  0  0  0  0  0999 V2000
  -28.2728  -24.8008   16.7375 C   0  0  0  0  0  0  0  0  0  0  0  0
  -27.1279  -25.5136   17.0751 C   0  0  0  0  0  0  0  0  0  0  0  0
  -26.4786  -16.0422   18.7298 C   0  0  0  0  0  0  0  0  0  0  0  0
  -24.6384  -15.3759   20.1464 C   0  0  0  0  0  0  0  0  0  0  0  0
  -29.3776  -24.8214   17.5862 C   0  0  0  0  0  0  0  0  0  0  0  0
  -27.0916  -26.2568   18.2554 C   0  0  0  0  0  0  0  0  0  0  0  0
  -23.1483  -29.1077   18.9808 C   0  0  0  0  0  0  0  0  0  0  0  0
  -27.2923  -15.0858   19.3369 C   0  0  0  0  0  0  0  0  0  0  0  0
  -25.4521  -14.4193   20.7535 C   0  0  0  0  0  0  0  0  0  0  0  0
  -21.8914  -28.5908   19.2918 C   0  0  0  0  0  0  0  0  0  0  0  0
  -27.7719  -11.7438   19.1519 C   0  0  0  0  0  0  0  0  0  0  0  0
  -28.5674  -10.9505   18.3252 C   0  0  0  0  0  0  0  0  0  0  0  0
  -22.2016  -29.2378   21.5949 C   0  0  0  0  0  0  0  0  0  0  0  0
  -30.5469  -11.7779   19.4360 C   0  0  0  0  0  0  0  0  0  0  0  0
  -19.0101  -20.8802   22.7038 C   0  0  0  0  0  0  0  0  0  0  0  0
  -25.1516  -16.1873   19.1346 C   0  0  0  0  0  0  0  0  0  0  0  0
  -23.4980  -17.0032   17.3717 C   0  0  0  0  0  0  0  0  0  0  0  0
  -29.3495  -25.5555   18.7834 C   0  0  0  0  0  0  0  0  0  0  0  0
  -23.9472  -29.6848   19.9784 C   0  0  0  0  0  0  0  0  0  0  0  0
  -28.2050  -26.3096   19.1133 C   0  0  0  0  0  0  0  0  0  0  0  0
  -23.4672  -29.7637   21.2935 C   0  0  0  0  0  0  0  0  0  0  0  0
  -26.7791  -14.2743   20.3487 C   0  0  0  0  0  0  0  0  0  0  0  0
  -21.4191  -28.6531   20.5995 C   0  0  0  0  0  0  0  0  0  0  0  0
  -28.3639  -12.5542   20.1206 C   0  0  0  0  0  0  0  0  0  0  0  0
  -29.9549  -10.9675   18.4672 C   0  0  0  0  0  0  0  0  0  0  0  0
  -29.7514  -12.5713   20.2627 C   0  0  0  0  0  0  0  0  0  0  0  0
  -24.3107  -17.1756   18.5082 C   0  0  0  0  0  0  0  0  0  0  0  0
  -18.1363  -23.3488   23.2235 C   0  0  0  0  0  0  0  0  0  0  0  0
  -19.6747  -21.9858   22.2207 C   0  0  0  0  0  0  0  0  0  0  0  0
  -17.4713  -22.2431   23.7059 C   0  0  0  0  0  0  0  0  0  0  0  0
  -22.9076  -18.2288   17.1827 C   0  0  0  0  0  0  0  0  0  0  0  0
  -23.2949  -15.8392   16.5596 C   0  0  0  0  0  0  0  0  0  0  0  0
  -17.6841  -24.7449   23.4907 C   0  0  0  0  0  0  0  0  0  0  0  0
  -26.7975  -29.0336   21.2257 C   0  0  0  0  0  0  0  0  0  0  0  0
  -19.0002  -26.5083   22.2252 C   0  0  0  0  0  0  0  0  0  0  0  0
  -26.3125  -31.8264   22.8026 C   0  0  0  0  0  0  0  0  0  0  0  0
  -24.0980  -34.1276   24.0057 C   0  0  0  0  0  0  0  0  0  0  0  0
  -21.6488  -22.7647   20.8633 C   0  0  0  0  0  0  0  0  0  0  0  0
  -30.5761  -25.5492   19.6612 C   0  0  0  0  0  0  0  0  0  0  0  0
  -25.2895  -30.2620   19.6216 C   0  0  0  0  0  0  0  0  0  0  0  0
  -24.2775  -30.3914   22.3971 C   0  0  0  0  0  0  0  0  0  0  0  0
  -30.2870  -25.9975   21.0901 C   0  0  0  0  0  0  0  0  0  0  0  0
  -23.6557  -22.9003   17.9254 C   0  0  0  0  0  0  0  0  0  0  0  0
  -29.4972  -27.2977   21.0772 C   0  0  0  0  0  0  0  0  0  0  0  0
  -23.9724  -21.4316   17.6346 C   0  0  0  0  0  0  0  0  0  0  0  0
  -23.6306  -23.1888   19.4254 C   0  0  0  0  0  0  0  0  0  0  0  0
  -23.0728  -20.8411   19.9213 C   0  0  0  0  0  0  0  0  0  0  0  0
  -28.1315  -27.1004   20.4070 C   0  0  1  0  0  0  0  0  0  0  0  0
  -26.2327  -30.3644   20.8163 C   0  0  1  0  0  0  0  0  0  0  0  0
  -23.0451  -20.4879   18.4252 C   0  0  2  0  0  0  0  0  0  0  0  0
  -23.9983  -36.2849   25.2838 C   0  0  0  0  0  0  0  0  0  0  0  0
  -26.8618  -30.3134   25.3948 C   0  0  0  0  0  0  0  0  0  0  0  0
  -25.8362  -32.2243   26.6458 C   0  0  0  0  0  0  0  0  0  0  0  0
  -27.8899  -32.5902   25.2779 C   0  0  0  0  0  0  0  0  0  0  0  0
  -22.8291  -35.5461   21.7393 C   0  0  0  0  0  0  0  0  0  0  0  0
  -18.7200  -25.8477   23.5586 C   0  0  0  0  0  0  0  0  0  0  0  0
  -20.0127  -27.6355   22.2251 C   0  0  0  0  0  0  0  0  0  1  0  0
  -25.6764  -32.2167   24.1149 C   0  0  1  0  0  0  0  0  0  0  0  0
  -24.0659  -35.6421   23.9072 C   0  0  2  0  0  0  0  0  0  0  0  0
  -26.5514  -31.8225   25.3381 C   0  0  0  0  0  0  0  0  0  0  0  0
  -17.8964  -20.9890   23.4550 N   0  0  0  0  0  0  0  0  0  0  0  0
  -24.2451  -18.4133   19.0061 N   0  0  0  0  0  0  0  0  0  0  0  0
  -19.2498  -23.2400   22.4720 N   0  0  0  0  0  0  0  0  0  0  0  0
  -23.3842  -19.0297   18.1785 N   0  0  0  0  0  0  0  0  0  0  0  0
  -25.5862  -30.9360   21.9994 N   0  0  0  0  0  0  0  0  0  0  0  0
  -22.7282  -22.2592   20.1082 N   0  0  0  0  0  0  0  0  0  0  0  0
  -16.3083  -22.4220   24.4888 N   0  0  0  0  0  0  0  0  0  0  0  0
  -22.0325  -18.6888   16.2635 N   0  0  0  0  0  0  0  0  0  0  0  0
  -23.9796  -14.6631   16.8945 N   0  0  0  0  0  0  0  0  0  0  0  0
  -20.8400  -21.7859   21.4398 N   0  0  0  0  0  0  0  0  0  0  0  0
  -27.5034  -28.3907   20.2267 N   0  0  0  0  0  0  0  0  0  0  0  0
  -25.3892  -33.6440   24.0207 N   0  0  0  0  0  0  0  0  0  0  0  0
  -22.8788  -36.0851   23.1228 N   0  3  0  0  0  0  0  0  0  0  0  0
  -22.5416  -15.8467   15.5566 O   0  0  0  0  0  0  0  0  0  0  0  0
  -16.4860  -24.9724   23.6436 O   0  0  0  0  0  0  0  0  0  0  0  0
  -26.6081  -28.6212   22.3640 O   0  0  0  0  0  0  0  0  0  0  0  0
  -18.4060  -26.1594   21.2056 O   0  0  0  0  0  0  0  0  0  0  0  0
  -27.4102  -32.3000   22.4982 O   0  0  0  0  0  0  0  0  0  0  0  0
  -23.0796  -33.4424   24.0673 O   0  0  0  0  0  0  0  0  0  0  0  0
  -21.4403  -23.9762   20.9667 O   0  0  0  0  0  0  0  0  0  0  0  0
  -27.5728  -13.3407   20.9412 O   0  0  0  0  0  0  0  0  0  0  0  0
  -20.1929  -28.1487   20.9058 O   0  0  0  0  0  0  0  0  0  1  0  0
  -30.7185  -10.2045   17.6743 F   0  0  0  0  0  0  0  0  0  0  0  0
  -30.3259  -13.3469   21.1923 F   0  0  0  0  0  0  0  0  0  0  0  0
  1  2  1  0  0  0  0
  1  5  2  0  0  0  0
  2  6  2  0  0  0  0
  3  8  2  0  0  0  0
  3 16  1  0  0  0  0
  4  9  1  0  0  0  0
  4 16  2  0  0  0  0
  5 18  1  0  0  0  0
  6 20  1  0  0  0  0
  7 10  2  0  0  0  0
  7 19  1  0  0  0  0
  8 22  1  0  0  0  0
  9 22  2  0  0  0  0
 10 23  1  0  0  0  0
 11 12  2  0  0  0  0
 11 24  1  0  0  0  0
 12 25  1  0  0  0  0
 13 21  1  0  0  0  0
 13 23  2  0  0  0  0
 14 25  2  0  0  0  0
 14 26  1  0  0  0  0
 15 29  1  0  0  0  0
 15 61  2  0  0  0  0
 16 27  1  0  0  0  0
 17 27  1  0  0  0  0
 17 31  2  0  0  0  0
 17 32  1  0  0  0  0
 18 20  2  0  0  0  0
 18 39  1  0  0  0  0
 19 21  2  0  0  0  0
 19 40  1  0  0  0  0
 20 48  1  0  0  0  0
 21 41  1  0  0  0  0
 22 81  1  0  0  0  0
 23 82  1  0  0  0  0
 24 26  2  0  0  0  0
 24 81  1  0  0  0  0
 25 83  1  0  0  0  0
 26 84  1  0  0  0  0
 27 62  2  0  0  0  0
 28 30  2  0  0  0  0
 28 33  1  0  0  0  0
 28 63  1  0  0  0  0
 29 63  2  0  0  0  0
 29 70  1  0  0  0  0
 30 61  1  0  0  0  0
 30 67  1  0  0  0  0
 31 64  1  0  0  0  0
 31 68  1  0  0  0  0
 32 69  1  0  0  0  0
 32 74  2  0  0  0  0
 33 56  1  0  0  0  0
 33 75  2  0  0  0  0
 34 49  1  0  0  0  0
 34 71  1  0  0  0  0
 34 76  2  0  0  0  0
 35 56  1  0  0  0  0
 35 57  1  0  0  0  0
 35 77  2  0  0  0  0
 36 58  1  0  0  0  0
 36 65  1  0  0  0  0
 36 78  2  0  0  0  0
 37 59  1  0  0  0  0
 37 72  1  0  0  0  0
 37 79  2  0  0  0  0
 38 66  1  0  0  0  0
 38 70  1  0  0  0  0
 38 80  2  0  0  0  0
 39 42  1  0  0  0  0
 40 49  1  0  0  0  0
 41 65  1  0  0  0  0
 42 44  1  0  0  0  0
 43 45  1  0  0  0  0
 43 46  1  0  0  0  0
 44 48  1  0  0  0  0
 45 50  1  0  0  0  0
 46 66  1  0  0  0  0
 47 50  1  0  0  0  0
 47 66  1  0  0  0  0
 48 71  1  0  0  0  0
 49 65  1  0  0  0  0
 50 64  1  0  0  0  0
 51 59  1  0  0  0  0
 52 60  1  0  0  0  0
 53 60  1  0  0  0  0
 54 60  1  0  0  0  0
 55 73  1  0  0  0  0
 57 82  1  0  0  0  0
 58 60  1  0  0  0  0
 58 72  1  0  0  0  0
 59 73  1  0  0  0  0
 62 64  1  0  0  0  0
M  CHG  1  73   1
M  ISO  4  38 100  57 101  70 100  82 101
M  END
> <Batch ID>
0182

> <Smiles>
CNC(C)C(=O)NC(C(=O)N1Cc2cc([101O:1][101CH2:1]C(=O)CC(=O)c3nc([100NH:0][100C:0](=O)N4CCCC(n5nc(-c6ccc(Oc7ccc(F)cc7F)cc6)c(C(N)=O)c5N)C4)cnc3N)ccc2CC1C(=O)NC1CCCc2ccccc21)C(C)(C)C

> <Shape>
0.273

> <Color>
0.054

> <Negative vol penalty>
0.000

$$$$

  -OEChem-04052304563D

 84 92  0     1  0  0  0  0  0999 V2000
  -27.9389  -37.8935   22.9697 C   0  0  0  0  0  0  0  0  0  0  0  0
  -28.4179  -36.7260   22.3841 C   0  0  0  0  0  0  0  0  0  0  0  0
  -24.6329   -8.9782   21.6829 C   0  0  0  0  0  0  0  0  0  0  0  0
  -23.4846  -10.8175   22.7485 C   0  0  0  0  0  0  0  0  0  0  0  0
  -26.9940  -37.8221   23.9924 C   0  0  0  0  0  0  0  0  0  0  0  0
  -27.9529  -35.4863   22.8216 C   0  0  0  0  0  0  0  0  0  0  0  0
  -27.0629  -30.4763   19.4137 C   0  0  0  0  0  0  0  0  0  0  0  0
  -24.0225   -8.0863   22.5646 C   0  0  0  0  0  0  0  0  0  0  0  0
  -22.8740   -9.9255   23.6301 C   0  0  0  0  0  0  0  0  0  0  0  0
  -27.8381  -29.3374   19.2000 C   0  0  0  0  0  0  0  0  0  0  0  0
  -21.0080   -6.5936   22.9081 C   0  0  0  0  0  0  0  0  0  0  0  0
  -20.4710   -5.4215   22.3759 C   0  0  0  0  0  0  0  0  0  0  0  0
  -26.5916  -28.1758   20.9077 C   0  0  0  0  0  0  0  0  0  0  0  0
  -21.9485   -4.1122   23.7688 C   0  0  0  0  0  0  0  0  0  0  0  0
  -24.3640  -10.3439   21.7749 C   0  0  0  0  0  0  0  0  0  0  0  0
  -24.5108  -11.6894   19.6126 C   0  0  0  0  0  0  0  0  0  0  0  0
  -26.5100  -36.5813   24.4361 C   0  0  0  0  0  0  0  0  0  0  0  0
  -26.0517  -30.4770   20.3853 C   0  0  0  0  0  0  0  0  0  0  0  0
  -27.0016  -35.3982   23.8521 C   0  0  0  0  0  0  0  0  0  0  0  0
  -25.8033  -29.3152   21.1300 C   0  0  0  0  0  0  0  0  0  0  0  0
  -26.5260  -19.1774   18.2787 C   0  0  0  0  0  0  0  0  0  0  0  0
  -23.1430   -8.5599   23.5382 C   0  0  0  0  0  0  0  0  0  0  0  0
  -27.6045  -28.1879   19.9490 C   0  0  0  0  0  0  0  0  0  0  0  0
  -22.0154   -6.5251   23.8705 C   0  0  0  0  0  0  0  0  0  0  0  0
  -20.9412   -4.1808   22.8063 C   0  0  0  0  0  0  0  0  0  0  0  0
  -22.4856   -5.2844   24.3009 C   0  0  0  0  0  0  0  0  0  0  0  0
  -26.6019  -20.5999   18.2495 C   0  0  0  0  0  0  0  0  0  0  0  0
  -24.9948  -11.2658   20.8648 C   0  0  0  0  0  0  0  0  0  0  0  0
  -25.4694  -12.5572   19.1496 C   0  0  0  0  0  0  0  0  0  0  0  0
  -27.5816  -18.6168   18.9635 C   0  0  0  0  0  0  0  0  0  0  0  0
  -27.7126  -21.0724   18.9134 C   0  0  0  0  0  0  0  0  0  0  0  0
  -27.7250  -25.9290   19.3542 C   0  0  0  0  0  0  0  0  0  1  0  0
  -23.3026  -11.3305   18.9290 C   0  0  0  0  0  0  0  0  0  0  0  0
  -28.3686  -24.7782   19.1238 C   0  0  0  0  0  0  0  0  0  0  0  0
  -27.5796  -23.5758   18.6995 C   0  0  0  0  0  0  0  0  0  0  0  0
  -25.5068  -32.1146   23.0545 C   0  0  0  0  0  0  0  0  0  0  0  0
  -22.6889  -30.5086   23.0022 C   0  0  0  0  0  0  0  0  0  0  0  0
  -20.9287  -27.7795   21.9531 C   0  0  0  0  0  0  0  0  0  0  0  0
  -29.0051  -16.7845   19.9446 C   0  0  0  0  0  0  0  0  0  0  0  0
  -25.5238  -36.5525   25.5768 C   0  0  0  0  0  0  0  0  0  0  0  0
  -25.2067  -31.7052   20.5851 C   0  0  0  0  0  0  0  0  0  0  0  0
  -24.7163  -29.2579   22.1710 C   0  0  0  0  0  0  0  0  0  0  0  0
  -24.8042  -35.2146   25.7263 C   0  0  0  0  0  0  0  0  0  0  0  0
  -30.1317  -13.5338   20.8617 C   0  0  0  0  0  0  0  0  0  0  0  0
  -25.7991  -34.0612   25.6444 C   0  0  0  0  0  0  0  0  0  0  0  0
  -28.8558  -12.6888   20.8412 C   0  0  0  0  0  0  0  0  0  0  0  0
  -29.8677  -14.9471   21.3781 C   0  0  0  0  0  0  0  0  0  0  0  0
  -27.5107  -14.8217   20.6723 C   0  0  0  0  0  0  0  0  0  0  0  0
  -26.5032  -34.0356   24.2824 C   0  0  1  0  0  0  0  0  0  0  0  0
  -24.5436  -31.7573   21.9580 C   0  0  1  0  0  0  0  0  0  0  0  0
  -27.7141  -13.4100   20.0983 C   0  0  2  0  0  0  0  0  0  0  0  0
  -25.4339  -18.4017   17.6428 C   0  0  0  0  0  0  0  0  0  0  0  0
  -18.6561  -26.7254   22.1001 C   0  0  0  0  0  0  0  0  0  0  0  0
  -23.2974  -29.5999   25.8507 C   0  0  0  0  0  0  0  0  0  0  0  0
  -21.5336  -27.8419   25.5923 C   0  0  0  0  0  0  0  0  0  0  0  0
  -20.9172  -30.2549   25.4507 C   0  0  0  0  0  0  0  0  0  0  0  0
  -20.5422  -27.9286   19.0227 C   0  0  0  0  0  0  0  0  0  0  0  0
  -22.1997  -29.1896   23.5500 C   0  0  1  0  0  0  0  0  0  0  0  0
  -19.5627  -27.6507   21.3035 C   0  0  2  0  0  0  0  0  0  0  0  0
  -22.0088  -29.2229   25.0927 C   0  0  0  0  0  0  0  0  0  0  0  0
  -26.1697  -11.8189   21.1774 N   0  0  0  0  0  0  0  0  0  0  0  0
  -26.4320  -12.5989   20.1149 N   0  0  0  0  0  0  0  0  0  0  0  0
  -23.9212  -30.4862   22.3338 N   0  0  0  0  0  0  0  0  0  0  0  0
  -28.7769  -15.5695   20.6247 N   0  0  0  0  0  0  0  0  0  0  0  0
  -25.5744  -13.2811   18.0150 N   0  0  0  0  0  0  0  0  0  0  0  0
  -22.4287  -10.4258   19.5471 N   0  0  0  0  0  0  0  0  0  0  0  0
  -28.1708  -22.3949   19.1270 N   0  0  0  0  0  0  0  0  0  0  0  0
  -27.9041  -17.2642   19.2359 N   0  0  0  0  0  0  0  0  0  0  0  0
  -25.6314  -33.4733   23.2733 N   0  0  0  0  0  0  0  0  0  0  0  0
  -20.9890  -28.8620   22.8050 N   0  0  0  0  0  0  0  0  0  0  0  0
  -19.6950  -27.1048   19.9231 N   0  3  0  0  0  0  0  0  0  0  0  0
  -23.0147  -11.7856   17.7961 O   0  0  0  0  0  0  0  0  0  0  0  0
  -26.5443  -23.6975   18.0535 O   0  0  0  0  0  0  0  0  0  0  0  0
  -26.0923  -31.2235   23.6585 O   0  0  0  0  0  0  0  0  0  0  0  0
  -21.9995  -31.5200   23.1552 O   0  0  0  0  0  0  0  0  0  0  0  0
  -21.8489  -26.9959   21.7301 O   0  0  0  0  0  0  0  0  0  0  0  0
  -30.1049  -17.3432   19.9654 O   0  0  0  0  0  0  0  0  0  0  0  0
  -29.7361  -24.6525   19.2601 O   0  0  0  0  0  0  0  0  0  0  0  0
  -22.5469   -7.6898   24.3985 O   0  0  0  0  0  0  0  0  0  0  0  0
  -28.3601  -27.0750   19.7428 O   0  0  0  0  0  0  0  0  0  1  0  0
  -20.4244   -3.0552   22.2963 F   0  0  0  0  0  0  0  0  0  0  0  0
  -23.4523   -5.2123   25.2261 F   0  0  0  0  0  0  0  0  0  0  0  0
  -25.7024  -21.3832   17.6496 F   0  0  0  0  0  0  0  0  0  0  0  0
  -28.6581  -19.8036   19.5678 S   0  0  0  0  0  0  0  0  0  0  0  0
  1  2  1  0  0  0  0
  1  5  2  0  0  0  0
  2  6  2  0  0  0  0
  3  8  2  0  0  0  0
  3 15  1  0  0  0  0
  4  9  1  0  0  0  0
  4 15  2  0  0  0  0
  5 17  1  0  0  0  0
  6 19  1  0  0  0  0
  7 10  2  0  0  0  0
  7 18  1  0  0  0  0
  8 22  1  0  0  0  0
  9 22  2  0  0  0  0
 10 23  1  0  0  0  0
 11 12  2  0  0  0  0
 11 24  1  0  0  0  0
 12 25  1  0  0  0  0
 13 20  1  0  0  0  0
 13 23  2  0  0  0  0
 14 25  2  0  0  0  0
 14 26  1  0  0  0  0
 15 28  1  0  0  0  0
 16 28  1  0  0  0  0
 16 29  2  0  0  0  0
 16 33  1  0  0  0  0
 17 19  2  0  0  0  0
 17 40  1  0  0  0  0
 18 20  2  0  0  0  0
 18 41  1  0  0  0  0
 19 49  1  0  0  0  0
 20 42  1  0  0  0  0
 21 27  1  0  0  0  0
 21 30  2  0  0  0  0
 21 52  1  0  0  0  0
 22 79  1  0  0  0  0
 23 80  1  0  0  0  0
 24 26  2  0  0  0  0
 24 79  1  0  0  0  0
 25 81  1  0  0  0  0
 26 82  1  0  0  0  0
 27 31  2  0  0  0  0
 27 83  1  0  0  0  0
 28 61  2  0  0  0  0
 29 62  1  0  0  0  0
 29 65  1  0  0  0  0
 30 68  1  0  0  0  0
 30 84  1  0  0  0  0
 31 67  1  0  0  0  0
 31 84  1  0  0  0  0
 32 34  2  0  0  0  0
 32 80  1  0  0  0  0
 33 66  1  0  0  0  0
 33 72  2  0  0  0  0
 34 35  1  0  0  0  0
 34 78  1  0  0  0  0
 35 67  1  0  0  0  0
 35 73  2  0  0  0  0
 36 50  1  0  0  0  0
 36 69  1  0  0  0  0
 36 74  2  0  0  0  0
 37 58  1  0  0  0  0
 37 63  1  0  0  0  0
 37 75  2  0  0  0  0
 38 59  1  0  0  0  0
 38 70  1  0  0  0  0
 38 76  2  0  0  0  0
 39 64  1  0  0  0  0
 39 68  1  0  0  0  0
 39 77  2  0  0  0  0
 40 43  1  0  0  0  0
 41 50  1  0  0  0  0
 42 63  1  0  0  0  0
 43 45  1  0  0  0  0
 44 46  1  0  0  0  0
 44 47  1  0  0  0  0
 45 49  1  0  0  0  0
 46 51  1  0  0  0  0
 47 64  1  0  0  0  0
 48 51  1  0  0  0  0
 48 64  1  0  0  0  0
 49 69  1  0  0  0  0
 50 63  1  0  0  0  0
 51 62  1  0  0  0  0
 53 59  1  0  0  0  0
 54 60  1  0  0  0  0
 55 60  1  0  0  0  0
 56 60  1  0  0  0  0
 57 71  1  0  0  0  0
 58 60  1  0  0  0  0
 58 70  1  0  0  0  0
 59 71  1  0  0  0  0
 61 62  1  0  0  0  0
M  CHG  1  71   1
M  ISO  4  32 101  39 100  68 100  80 101
M  END
> <Batch ID>
0182

> <Smiles>
CNC(C)C(=O)NC(C(=O)N1Cc2cc([101O:1][101CH2:1]C(=O)C(=O)Nc3sc([100NH:0][100C:0](=O)N4CCCC(n5nc(-c6ccc(Oc7ccc(F)cc7F)cc6)c(C(N)=O)c5N)C4)c(C)c3F)ccc2CC1C(=O)NC1CCCc2ccccc21)C(C)(C)C

> <Shape>
0.341

> <Color>
0.108

> <Negative vol penalty>
0.000

$$$$

  -OEChem-04052304563D

 84 92  0     1  0  0  0  0  0999 V2000
  -28.6046  -32.1189   27.2020 C   0  0  0  0  0  0  0  0  0  0  0  0
  -28.4464  -30.9882   26.4072 C   0  0  0  0  0  0  0  0  0  0  0  0
  -24.6965   -8.2296   21.3955 C   0  0  0  0  0  0  0  0  0  0  0  0
  -23.0371   -9.9840   21.3231 C   0  0  0  0  0  0  0  0  0  0  0  0
  -27.5483  -33.0162   27.3539 C   0  0  0  0  0  0  0  0  0  0  0  0
  -27.2313  -30.7535   25.7645 C   0  0  0  0  0  0  0  0  0  0  0  0
  -27.8280  -29.3226   20.9436 C   0  0  0  0  0  0  0  0  0  0  0  0
  -23.9312   -7.5447   22.3393 C   0  0  0  0  0  0  0  0  0  0  0  0
  -22.2717   -9.2991   22.2668 C   0  0  0  0  0  0  0  0  0  0  0  0
  -28.1972  -27.9980   20.7136 C   0  0  0  0  0  0  0  0  0  0  0  0
  -21.1881   -5.5679   22.3617 C   0  0  0  0  0  0  0  0  0  0  0  0
  -21.0142   -4.1956   22.1828 C   0  0  0  0  0  0  0  0  0  0  0  0
  -25.9030  -27.4533   20.2043 C   0  0  0  0  0  0  0  0  0  0  0  0
  -22.0651   -3.7840   24.3190 C   0  0  0  0  0  0  0  0  0  0  0  0
  -24.2495   -9.4493   20.8874 C   0  0  0  0  0  0  0  0  0  0  0  0
  -24.9718  -10.0356   18.5121 C   0  0  0  0  0  0  0  0  0  0  0  0
  -26.3228  -32.7975   26.7050 C   0  0  0  0  0  0  0  0  0  0  0  0
  -26.4895  -29.7208   20.8161 C   0  0  0  0  0  0  0  0  0  0  0  0
  -26.1572  -31.6480   25.9089 C   0  0  0  0  0  0  0  0  0  0  0  0
  -25.5199  -28.7841   20.4307 C   0  0  0  0  0  0  0  0  0  0  0  0
  -22.7188   -8.0794   22.7749 C   0  0  0  0  0  0  0  0  0  0  0  0
  -27.2342  -27.0625   20.3467 C   0  0  0  0  0  0  0  0  0  0  0  0
  -21.8005   -6.0484   23.5192 C   0  0  0  0  0  0  0  0  0  0  0  0
  -21.4527   -3.3036   23.1615 C   0  0  0  0  0  0  0  0  0  0  0  0
  -22.2390   -5.1564   24.4979 C   0  0  0  0  0  0  0  0  0  0  0  0
  -25.0399  -10.1576   19.9129 C   0  0  0  0  0  0  0  0  0  0  0  0
  -26.4390  -19.8279   19.9512 C   0  0  0  0  0  0  0  0  0  0  0  0
  -25.9191  -10.9134   18.0445 C   0  0  0  0  0  0  0  0  0  0  0  0
  -25.0917  -19.5369   19.9040 C   0  0  0  0  0  0  0  0  0  0  0  0
  -26.5681  -17.6437   20.1013 C   0  0  0  0  0  0  0  0  0  0  0  0
  -24.1277   -9.2033   17.7056 C   0  0  0  0  0  0  0  0  0  0  0  0
  -28.4679  -22.9929   19.7985 C   0  0  0  0  0  0  0  0  0  0  0  0
  -28.2886  -21.5075   19.9241 C   0  0  0  0  0  0  0  0  0  0  0  0
  -24.3106  -30.9284   22.7904 C   0  0  0  0  0  0  0  0  0  0  0  0
  -22.5508  -31.1689   20.0761 C   0  0  0  0  0  0  0  0  0  0  0  0
  -21.9596  -30.0700   16.8996 C   0  0  0  0  0  0  0  0  0  0  0  0
  -28.3538  -15.8788   20.3078 C   0  0  0  0  0  0  0  0  0  0  0  0
  -25.1945  -33.7709   26.9372 C   0  0  0  0  0  0  0  0  0  0  0  0
  -26.1118  -31.1592   21.0416 C   0  0  0  0  0  0  0  0  0  0  0  0
  -24.0727  -29.1651   20.2605 C   0  0  0  0  0  0  0  0  0  0  0  0
  -24.0619  -33.6442   25.9216 C   0  0  0  0  0  0  0  0  0  0  0  0
  -30.0794  -12.9399   19.2771 C   0  0  0  0  0  0  0  0  0  0  0  0
  -23.6814  -32.1800   25.7263 C   0  0  0  0  0  0  0  0  0  0  0  0
  -28.9757  -11.8833   19.1898 C   0  0  0  0  0  0  0  0  0  0  0  0
  -29.8529  -13.9016   20.4423 C   0  0  0  0  0  0  0  0  0  0  0  0
  -27.4261  -13.4811   20.3868 C   0  0  0  0  0  0  0  0  0  0  0  0
  -24.8625  -31.3717   25.1757 C   0  0  1  0  0  0  0  0  0  0  0  0
  -24.6365  -31.3431   21.3834 C   0  0  1  0  0  0  0  0  0  0  0  0
  -27.5762  -12.5289   19.1891 C   0  0  2  0  0  0  0  0  0  0  0  0
  -20.4303  -30.4308   14.9430 C   0  0  0  0  0  0  0  0  0  0  0  0
  -20.3473  -29.6267   21.5170 C   0  0  0  0  0  0  0  0  0  0  0  0
  -19.2876  -29.1971   19.2897 C   0  0  0  0  0  0  0  0  0  0  0  0
  -19.5406  -31.5364   20.1182 C   0  0  0  0  0  0  0  0  0  0  0  0
  -24.2028  -30.8809   15.1477 C   0  0  0  0  0  0  0  0  0  0  0  0
  -28.5261  -23.7741   21.0928 C   0  0  0  0  0  0  0  0  0  0  0  0
  -28.7066  -25.2662   20.8577 C   0  0  0  0  0  0  0  0  0  1  0  0
  -21.5859  -30.2677   19.3442 C   0  0  1  0  0  0  0  0  0  0  0  0
  -21.7466  -30.8205   15.5974 C   0  0  2  0  0  0  0  0  0  0  0  0
  -20.2172  -30.1491   20.0723 C   0  0  0  0  0  0  0  0  0  0  0  0
  -25.9580  -11.0430   20.3093 N   0  0  0  0  0  0  0  0  0  0  0  0
  -27.2871  -18.7436   20.0647 N   0  0  0  0  0  0  0  0  0  0  0  0
  -26.4756  -11.4853   19.1506 N   0  0  0  0  0  0  0  0  0  0  0  0
  -23.7522  -30.5822   20.4984 N   0  0  0  0  0  0  0  0  0  0  0  0
  -28.5083  -14.4779   20.3736 N   0  0  0  0  0  0  0  0  0  0  0  0
  -26.3220  -11.2441   16.7993 N   0  0  0  0  0  0  0  0  0  0  0  0
  -23.2100   -8.3608   18.3478 N   0  0  0  0  0  0  0  0  0  0  0  0
  -26.9603  -21.1413   19.8904 N   0  0  0  0  0  0  0  0  0  0  0  0
  -27.0307  -16.3091   20.2128 N   0  0  0  0  0  0  0  0  0  0  0  0
  -25.0222  -31.6123   23.7576 N   0  0  0  0  0  0  0  0  0  0  0  0
  -21.4958  -30.7855   17.9833 N   0  0  0  0  0  0  0  0  0  0  0  0
  -22.8518  -30.5249   14.6424 N   0  3  0  0  0  0  0  0  0  0  0  0
  -24.1969   -9.1945   16.4532 O   0  0  0  0  0  0  0  0  0  0  0  0
  -28.5635  -23.4515   18.6702 O   0  0  0  0  0  0  0  0  0  0  0  0
  -29.3058  -20.8398   20.0098 O   0  0  0  0  0  0  0  0  0  0  0  0
  -23.4744  -30.0538   22.9842 O   0  0  0  0  0  0  0  0  0  0  0  0
  -22.2528  -32.3517   20.2598 O   0  0  0  0  0  0  0  0  0  0  0  0
  -22.4815  -28.9584   16.9502 O   0  0  0  0  0  0  0  0  0  0  0  0
  -29.3250  -16.6395   20.3064 O   0  0  0  0  0  0  0  0  0  0  0  0
  -21.9716   -7.4112   23.6957 O   0  0  0  0  0  0  0  0  0  0  0  0
  -27.5918  -25.7688   20.1223 O   0  0  0  0  0  0  0  0  0  1  0  0
  -21.2843   -1.9859   22.9903 F   0  0  0  0  0  0  0  0  0  0  0  0
  -22.8269   -5.6121   25.6126 F   0  0  0  0  0  0  0  0  0  0  0  0
  -24.1075  -20.4335   19.7964 F   0  0  0  0  0  0  0  0  0  0  0  0
  -24.8660  -17.8397   20.0031 S   0  0  0  0  0  0  0  0  0  0  0  0
  1  2  1  0  0  0  0
  1  5  2  0  0  0  0
  2  6  2  0  0  0  0
  3  8  2  0  0  0  0
  3 15  1  0  0  0  0
  4  9  1  0  0  0  0
  4 15  2  0  0  0  0
  5 17  1  0  0  0  0
  6 19  1  0  0  0  0
  7 10  2  0  0  0  0
  7 18  1  0  0  0  0
  8 21  1  0  0  0  0
  9 21  2  0  0  0  0
 10 22  1  0  0  0  0
 11 12  2  0  0  0  0
 11 23  1  0  0  0  0
 12 24  1  0  0  0  0
 13 20  1  0  0  0  0
 13 22  2  0  0  0  0
 14 24  2  0  0  0  0
 14 25  1  0  0  0  0
 15 26  1  0  0  0  0
 16 26  1  0  0  0  0
 16 28  2  0  0  0  0
 16 31  1  0  0  0  0
 17 19  2  0  0  0  0
 17 38  1  0  0  0  0
 18 20  2  0  0  0  0
 18 39  1  0  0  0  0
 19 47  1  0  0  0  0
 20 40  1  0  0  0  0
 21 79  1  0  0  0  0
 22 80  1  0  0  0  0
 23 25  2  0  0  0  0
 23 79  1  0  0  0  0
 24 81  1  0  0  0  0
 25 82  1  0  0  0  0
 26 60  2  0  0  0  0
 27 29  2  0  0  0  0
 27 61  1  0  0  0  0
 27 67  1  0  0  0  0
 28 62  1  0  0  0  0
 28 65  1  0  0  0  0
 29 83  1  0  0  0  0
 29 84  1  0  0  0  0
 30 61  2  0  0  0  0
 30 68  1  0  0  0  0
 30 84  1  0  0  0  0
 31 66  1  0  0  0  0
 31 72  2  0  0  0  0
 32 33  1  0  0  0  0
 32 55  1  0  0  0  0
 32 73  2  0  0  0  0
 33 67  1  0  0  0  0
 33 74  2  0  0  0  0
 34 48  1  0  0  0  0
 34 69  1  0  0  0  0
 34 75  2  0  0  0  0
 35 57  1  0  0  0  0
 35 63  1  0  0  0  0
 35 76  2  0  0  0  0
 36 58  1  0  0  0  0
 36 70  1  0  0  0  0
 36 77  2  0  0  0  0
 37 64  1  0  0  0  0
 37 68  1  0  0  0  0
 37 78  2  0  0  0  0
 38 41  1  0  0  0  0
 39 48  1  0  0  0  0
 40 63  1  0  0  0  0
 41 43  1  0  0  0  0
 42 44  1  0  0  0  0
 42 45  1  0  0  0  0
 43 47  1  0  0  0  0
 44 49  1  0  0  0  0
 45 64  1  0  0  0  0
 46 49  1  0  0  0  0
 46 64  1  0  0  0  0
 47 69  1  0  0  0  0
 48 63  1  0  0  0  0
 49 62  1  0  0  0  0
 50 58  1  0  0  0  0
 51 59  1  0  0  0  0
 52 59  1  0  0  0  0
 53 59  1  0  0  0  0
 54 71  1  0  0  0  0
 55 56  1  0  0  0  0
 56 80  1  0  0  0  0
 57 59  1  0  0  0  0
 57 70  1  0  0  0  0
 58 71  1  0  0  0  0
 60 62  1  0  0  0  0
M  CHG  1  71   1
M  ISO  4  37 100  56 101  68 100  80 101
M  END
> <Batch ID>
0182

> <Smiles>
CNC(C)C(=O)NC(C(=O)N1Cc2cc([101O:1][101CH2:1]CC(=O)C(=O)Nc3nc([100NH:0][100C:0](=O)N4CCCC(n5nc(-c6ccc(Oc7ccc(F)cc7F)cc6)c(C(N)=O)c5N)C4)sc3F)ccc2CC1C(=O)NC1CCCc2ccccc21)C(C)(C)C

> <Shape>
0.300

> <Color>
0.111

> <Negative vol penalty>
0.000

$$$$

  -OEChem-04052304563D

 84 92  0     1  0  0  0  0  0999 V2000
  -19.1024  -34.0219   21.2321 C   0  0  0  0  0  0  0  0  0  0  0  0
  -20.3604  -33.6470   20.7712 C   0  0  0  0  0  0  0  0  0  0  0  0
  -26.5662  -12.3932   21.1493 C   0  0  0  0  0  0  0  0  0  0  0  0
  -25.4872  -13.6799   19.4122 C   0  0  0  0  0  0  0  0  0  0  0  0
  -18.5785  -33.4328   22.3820 C   0  0  0  0  0  0  0  0  0  0  0  0
  -21.0956  -32.6834   21.4607 C   0  0  0  0  0  0  0  0  0  0  0  0
  -24.8618  -28.5014   19.0457 C   0  0  0  0  0  0  0  0  0  0  0  0
  -25.3557  -11.7609   21.4329 C   0  0  0  0  0  0  0  0  0  0  0  0
  -24.2767  -13.0475   19.6958 C   0  0  0  0  0  0  0  0  0  0  0  0
  -26.2477  -28.4603   18.8996 C   0  0  0  0  0  0  0  0  0  0  0  0
  -23.4818   -9.2677   20.1270 C   0  0  0  0  0  0  0  0  0  0  0  0
  -23.4990   -7.8843   20.3042 C   0  0  0  0  0  0  0  0  0  0  0  0
  -26.4178  -27.1738   20.9332 C   0  0  0  0  0  0  0  0  0  0  0  0
  -22.6460   -8.1610   22.5476 C   0  0  0  0  0  0  0  0  0  0  0  0
  -26.6320  -13.3527   20.1390 C   0  0  0  0  0  0  0  0  0  0  0  0
  -28.8642  -13.5905   18.9273 C   0  0  0  0  0  0  0  0  0  0  0  0
  -19.3036  -32.4545   23.0805 C   0  0  0  0  0  0  0  0  0  0  0  0
  -24.2433  -27.8874   20.1442 C   0  0  0  0  0  0  0  0  0  0  0  0
  -20.5815  -32.0817   22.6218 C   0  0  0  0  0  0  0  0  0  0  0  0
  -25.0236  -27.2064   21.0895 C   0  0  0  0  0  0  0  0  0  0  0  0
  -24.2109  -12.0880   20.7061 C   0  0  0  0  0  0  0  0  0  0  0  0
  -27.0262  -27.7989   19.8450 C   0  0  0  0  0  0  0  0  0  0  0  0
  -23.0468  -10.0978   21.1602 C   0  0  0  0  0  0  0  0  0  0  0  0
  -23.0811   -7.3309   21.5145 C   0  0  0  0  0  0  0  0  0  0  0  0
  -22.6289   -9.5445   22.3704 C   0  0  0  0  0  0  0  0  0  0  0  0
  -27.8820  -14.0067   19.8459 C   0  0  0  0  0  0  0  0  0  0  0  0
  -27.8995  -22.9580   17.0416 C   0  0  0  0  0  0  0  0  0  0  0  0
  -28.7783  -23.5457   17.9272 C   0  0  0  0  0  0  0  0  0  0  0  0
  -29.8482  -14.5441   19.0212 C   0  0  0  0  0  0  0  0  0  0  0  0
  -28.7600  -21.5229   18.7744 C   0  0  0  0  0  0  0  0  0  0  0  0
  -28.8852  -12.4444   18.0660 C   0  0  0  0  0  0  0  0  0  0  0  0
  -22.4676  -28.9047   22.5765 C   0  0  0  0  0  0  0  0  0  0  0  0
  -22.1902  -25.7322   23.1934 C   0  0  0  0  0  0  0  0  0  0  0  0
  -23.4812  -22.5912   22.8553 C   0  0  0  0  0  0  0  0  0  0  0  0
  -30.0594  -25.5663   18.7029 C   0  0  0  0  0  0  0  0  0  0  0  0
  -29.8264  -20.2818   20.6898 C   0  0  0  0  0  0  0  0  0  0  0  0
  -18.7159  -31.8802   24.3452 C   0  0  0  0  0  0  0  0  0  0  0  0
  -22.7450  -27.9179   20.2731 C   0  0  0  0  0  0  0  0  0  0  0  0
  -24.4067  -26.5138   22.2762 C   0  0  0  0  0  0  0  0  0  0  0  0
  -19.4003  -30.5960   24.8064 C   0  0  0  0  0  0  0  0  0  0  0  0
  -31.7634  -17.6567   22.1161 C   0  0  0  0  0  0  0  0  0  0  0  0
  -20.9169  -30.7525   24.7588 C   0  0  0  0  0  0  0  0  0  0  0  0
  -31.0809  -16.3849   21.6073 C   0  0  0  0  0  0  0  0  0  0  0  0
  -30.7516  -18.7596   22.4224 C   0  0  0  0  0  0  0  0  0  0  0  0
  -29.1453  -17.8048   20.8170 C   0  0  0  0  0  0  0  0  0  0  0  0
  -21.3990  -31.0221   23.3283 C   0  0  1  0  0  0  0  0  0  0  0  0
  -22.2638  -27.6984   21.7041 C   0  0  1  0  0  0  0  0  0  0  0  0
  -30.1290  -16.6873   20.4333 C   0  0  2  0  0  0  0  0  0  0  0  0
  -27.1907  -23.5290   15.8782 C   0  0  0  0  0  0  0  0  0  0  0  0
  -23.0506  -20.2045   23.5001 C   0  0  0  0  0  0  0  0  0  0  0  0
  -23.1542  -26.3263   26.0267 C   0  0  0  0  0  0  0  0  0  0  0  0
  -23.6094  -23.8807   26.3099 C   0  0  0  0  0  0  0  0  0  0  0  0
  -21.2824  -24.6737   25.8867 C   0  0  0  0  0  0  0  0  0  0  0  0
  -23.2713  -21.7435   20.0275 C   0  0  0  0  0  0  0  0  0  0  0  0
  -28.8958  -27.7852   18.3753 C   0  0  0  0  0  0  0  0  0  1  0  0
  -22.9718  -24.7288   24.0066 C   0  0  1  0  0  0  0  0  0  0  0  0
  -22.8408  -21.2779   22.4435 C   0  0  2  0  0  0  0  0  0  0  0  0
  -30.2108  -27.0260   18.3175 C   0  0  0  0  0  0  0  0  0  0  0  0
  -22.7665  -24.9170   25.5363 C   0  0  0  0  0  0  0  0  0  0  0  0
  -28.2120  -15.1366   20.4771 N   0  0  0  0  0  0  0  0  0  0  0  0
  -29.2725  -22.7245   18.9217 N   0  0  0  0  0  0  0  0  0  0  0  0
  -29.4127  -15.4385   19.9543 N   0  0  0  0  0  0  0  0  0  0  0  0
  -22.9383  -26.5772   22.3615 N   0  0  0  0  0  0  0  0  0  0  0  0
  -29.8871  -18.9943   21.2638 N   0  0  0  0  0  0  0  0  0  0  0  0
  -31.0349  -14.6964   18.3960 N   0  0  0  0  0  0  0  0  0  0  0  0
  -27.7930  -11.5666   18.0953 N   0  0  0  0  0  0  0  0  0  0  0  0
  -29.1787  -24.9009   17.8604 N   0  0  0  0  0  0  0  0  0  0  0  0
  -28.9963  -20.3768   19.5734 N   0  0  0  0  0  0  0  0  0  0  0  0
  -21.4118  -29.7959   22.5597 N   0  0  0  0  0  0  0  0  0  0  0  0
  -22.5872  -23.4122   23.5096 N   0  0  0  0  0  0  0  0  0  0  0  0
  -23.4268  -20.7956   21.1609 N   0  3  0  0  0  0  0  0  0  0  0  0
  -29.8515  -12.1971   17.3053 O   0  0  0  0  0  0  0  0  0  0  0  0
  -23.5053  -29.0177   23.2184 O   0  0  0  0  0  0  0  0  0  0  0  0
  -20.9605  -25.7602   23.2873 O   0  0  0  0  0  0  0  0  0  0  0  0
  -24.6578  -22.8602   22.6234 O   0  0  0  0  0  0  0  0  0  0  0  0
  -30.6633  -25.1117   19.6699 O   0  0  0  0  0  0  0  0  0  0  0  0
  -30.4849  -21.2238   21.1380 O   0  0  0  0  0  0  0  0  0  0  0  0
  -23.0296  -11.4711   20.9824 O   0  0  0  0  0  0  0  0  0  0  0  0
  -28.3792  -27.7578   19.7052 O   0  0  0  0  0  0  0  0  0  1  0  0
  -23.0962   -6.0023   21.6839 F   0  0  0  0  0  0  0  0  0  0  0  0
  -22.2088  -10.3368   23.3662 F   0  0  0  0  0  0  0  0  0  0  0  0
  -31.1063  -27.6497   19.1330 F   0  0  0  0  0  0  0  0  0  0  0  0
  -30.7160  -27.1442   17.0573 F   0  0  0  0  0  0  0  0  0  0  0  0
  -27.6770  -21.3098   17.4604 S   0  0  0  0  0  0  0  0  0  0  0  0
  1  2  1  0  0  0  0
  1  5  2  0  0  0  0
  2  6  2  0  0  0  0
  3  8  2  0  0  0  0
  3 15  1  0  0  0  0
  4  9  1  0  0  0  0
  4 15  2  0  0  0  0
  5 17  1  0  0  0  0
  6 19  1  0  0  0  0
  7 10  2  0  0  0  0
  7 18  1  0  0  0  0
  8 21  1  0  0  0  0
  9 21  2  0  0  0  0
 10 22  1  0  0  0  0
 11 12  2  0  0  0  0
 11 23  1  0  0  0  0
 12 24  1  0  0  0  0
 13 20  1  0  0  0  0
 13 22  2  0  0  0  0
 14 24  2  0  0  0  0
 14 25  1  0  0  0  0
 15 26  1  0  0  0  0
 16 26  1  0  0  0  0
 16 29  2  0  0  0  0
 16 31  1  0  0  0  0
 17 19  2  0  0  0  0
 17 37  1  0  0  0  0
 18 20  2  0  0  0  0
 18 38  1  0  0  0  0
 19 46  1  0  0  0  0
 20 39  1  0  0  0  0
 21 78  1  0  0  0  0
 22 79  1  0  0  0  0
 23 25  2  0  0  0  0
 23 78  1  0  0  0  0
 24 80  1  0  0  0  0
 25 81  1  0  0  0  0
 26 60  2  0  0  0  0
 27 28  2  0  0  0  0
 27 49  1  0  0  0  0
 27 84  1  0  0  0  0
 28 61  1  0  0  0  0
 28 67  1  0  0  0  0
 29 62  1  0  0  0  0
 29 65  1  0  0  0  0
 30 61  2  0  0  0  0
 30 68  1  0  0  0  0
 30 84  1  0  0  0  0
 31 66  1  0  0  0  0
 31 72  2  0  0  0  0
 32 47  1  0  0  0  0
 32 69  1  0  0  0  0
 32 73  2  0  0  0  0
 33 56  1  0  0  0  0
 33 63  1  0  0  0  0
 33 74  2  0  0  0  0
 34 57  1  0  0  0  0
 34 70  1  0  0  0  0
 34 75  2  0  0  0  0
 35 58  1  0  0  0  0
 35 67  1  0  0  0  0
 35 76  2  0  0  0  0
 36 64  1  0  0  0  0
 36 68  1  0  0  0  0
 36 77  2  0  0  0  0
 37 40  1  0  0  0  0
 38 47  1  0  0  0  0
 39 63  1  0  0  0  0
 40 42  1  0  0  0  0
 41 43  1  0  0  0  0
 41 44  1  0  0  0  0
 42 46  1  0  0  0  0
 43 48  1  0  0  0  0
 44 64  1  0  0  0  0
 45 48  1  0  0  0  0
 45 64  1  0  0  0  0
 46 69  1  0  0  0  0
 47 63  1  0  0  0  0
 48 62  1  0  0  0  0
 50 57  1  0  0  0  0
 51 59  1  0  0  0  0
 52 59  1  0  0  0  0
 53 59  1  0  0  0  0
 54 71  1  0  0  0  0
 55 58  1  0  0  0  0
 55 79  1  0  0  0  0
 56 59  1  0  0  0  0
 56 70  1  0  0  0  0
 57 71  1  0  0  0  0
 58 82  1  0  0  0  0
 58 83  1  0  0  0  0
 60 62  1  0  0  0  0
M  CHG  1  71   1
M  ISO  4  36 100  55 101  68 100  79 101
M  END
> <Batch ID>
0182

> <Smiles>
CNC(C)C(=O)NC(C(=O)N1Cc2cc([101O:1][101CH2:1]C(F)(F)C(=O)Nc3nc([100NH:0][100C:0](=O)N4CCCC(n5nc(-c6ccc(Oc7ccc(F)cc7F)cc6)c(C(N)=O)c5N)C4)sc3C)ccc2CC1C(=O)NC1CCCc2ccccc21)C(C)(C)C

> <Shape>
0.262

> <Color>
0.124

> <Negative vol penalty>
0.000

$$$$

  -OEChem-04052304563D

 85 93  0     1  0  0  0  0  0999 V2000
  -27.6914  -32.6619   28.0056 C   0  0  0  0  0  0  0  0  0  0  0  0
  -27.9946  -31.7034   27.0439 C   0  0  0  0  0  0  0  0  0  0  0  0
  -26.3606  -11.7315   21.2940 C   0  0  0  0  0  0  0  0  0  0  0  0
  -25.9632  -12.6765   19.1063 C   0  0  0  0  0  0  0  0  0  0  0  0
  -26.3616  -32.9904   28.2657 C   0  0  0  0  0  0  0  0  0  0  0  0
  -26.9680  -31.0720   26.3425 C   0  0  0  0  0  0  0  0  0  0  0  0
  -27.0901  -29.2292   20.5035 C   0  0  0  0  0  0  0  0  0  0  0  0
  -25.0409  -11.2823   21.3397 C   0  0  0  0  0  0  0  0  0  0  0  0
  -24.6435  -12.2273   19.1519 C   0  0  0  0  0  0  0  0  0  0  0  0
  -27.3223  -27.9859   19.9169 C   0  0  0  0  0  0  0  0  0  0  0  0
  -21.8782   -9.5727   21.8782 C   0  0  0  0  0  0  0  0  0  0  0  0
  -21.6516   -8.2700   22.3222 C   0  0  0  0  0  0  0  0  0  0  0  0
  -24.9433  -27.6046   19.7975 C   0  0  0  0  0  0  0  0  0  0  0  0
  -23.0081   -7.4176   20.5138 C   0  0  0  0  0  0  0  0  0  0  0  0
  -29.8465  -21.2982   18.5564 C   0  0  0  0  0  0  0  0  0  0  0  0
  -26.8218  -12.4286   20.1773 C   0  0  0  0  0  0  0  0  0  0  0  0
  -29.3023  -12.2002   19.6271 C   0  0  0  0  0  0  0  0  0  0  0  0
  -25.3186  -32.3697   27.5604 C   0  0  0  0  0  0  0  0  0  0  0  0
  -25.7808  -29.6656   20.7518 C   0  0  0  0  0  0  0  0  0  0  0  0
  -25.6230  -31.3916   26.5944 C   0  0  0  0  0  0  0  0  0  0  0  0
  -24.6971  -28.8550   20.3850 C   0  0  0  0  0  0  0  0  0  0  0  0
  -29.8032  -19.9856   18.1146 C   0  0  0  0  0  0  0  0  0  0  0  0
  -24.1823  -11.5302   20.2687 C   0  0  0  0  0  0  0  0  0  0  0  0
  -26.2489  -27.1722   19.5665 C   0  0  0  0  0  0  0  0  0  0  0  0
  -22.6698   -9.7979   20.7519 C   0  0  0  0  0  0  0  0  0  0  0  0
  -22.2165   -7.1924   21.6400 C   0  0  0  0  0  0  0  0  0  0  0  0
  -23.2347   -8.7203   20.0697 C   0  0  0  0  0  0  0  0  0  0  0  0
  -29.3327  -19.7472   16.8281 C   0  0  0  0  0  0  0  0  0  0  0  0
  -28.9257  -20.8135   16.0339 C   0  0  0  0  0  0  0  0  0  0  0  0
  -28.1848  -12.8934   20.1297 C   0  0  0  0  0  0  0  0  0  0  0  0
  -29.0081  -22.0889   16.5690 C   0  0  0  0  0  0  0  0  0  0  0  0
  -30.3534  -13.0654   19.8090 C   0  0  0  0  0  0  0  0  0  0  0  0
  -29.3829  -10.8913   19.0475 C   0  0  0  0  0  0  0  0  0  0  0  0
  -24.1261  -30.4263   23.3571 C   0  0  0  0  0  0  0  0  0  0  0  0
  -27.4391  -24.7908   17.1047 C   0  0  0  0  0  0  0  0  0  0  0  0
  -21.8712  -31.3015   21.1957 C   0  0  0  0  0  0  0  0  0  0  0  0
  -20.5818  -30.9599   18.0544 C   0  0  0  0  0  0  0  0  0  0  0  0
  -30.7148  -19.0133   20.2523 C   0  0  0  0  0  0  0  0  0  0  0  0
  -23.8948  -32.7236   27.9097 C   0  0  0  0  0  0  0  0  0  0  0  0
  -25.5464  -31.0209   21.3608 C   0  0  0  0  0  0  0  0  0  0  0  0
  -23.2718  -29.2859   20.6119 C   0  0  0  0  0  0  0  0  0  0  0  0
  -22.8812  -32.2791   26.8584 C   0  0  0  0  0  0  0  0  0  0  0  0
  -31.8221  -16.6279   22.6525 C   0  0  0  0  0  0  0  0  0  0  0  0
  -23.1502  -30.8392   26.4327 C   0  0  0  0  0  0  0  0  0  0  0  0
  -31.1215  -15.3350   22.2286 C   0  0  0  0  0  0  0  0  0  0  0  0
  -30.9329  -17.8514   22.4381 C   0  0  0  0  0  0  0  0  0  0  0  0
  -29.6793  -16.6946   20.6606 C   0  0  0  0  0  0  0  0  0  0  0  0
  -24.5382  -30.7026   25.7952 C   0  0  1  0  0  0  0  0  0  0  0  0
  -24.1852  -31.1442   22.0384 C   0  0  1  0  0  0  0  0  0  0  0  0
  -30.5597  -15.4417   20.7973 C   0  0  2  0  0  0  0  0  0  0  0  0
  -28.5794  -25.4280   14.9690 C   0  0  0  0  0  0  0  0  0  0  0  0
  -18.7131  -31.7772   16.5924 C   0  0  0  0  0  0  0  0  0  0  0  0
  -19.9142  -29.5055   22.6971 C   0  0  0  0  0  0  0  0  0  0  0  0
  -18.4007  -29.6075   20.7053 C   0  0  0  0  0  0  0  0  0  0  0  0
  -18.9606  -31.6942   21.9522 C   0  0  0  0  0  0  0  0  0  0  0  0
  -22.4693  -32.1136   16.0884 C   0  0  0  0  0  0  0  0  0  0  0  0
  -27.6492  -25.8220   18.1983 C   0  0  0  0  0  0  0  0  0  1  0  0
  -28.6270  -24.5255   16.1905 C   0  0  2  0  0  0  0  0  0  0  0  0
  -20.7241  -30.6039   20.5054 C   0  0  1  0  0  0  0  0  0  0  0  0
  -20.1563  -31.9890   17.0228 C   0  0  2  0  0  0  0  0  0  0  0  0
  -19.5267  -30.3435   21.4624 C   0  0  0  0  0  0  0  0  0  0  0  0
  -29.4597  -22.3597   17.8141 N   0  0  0  0  0  0  0  0  0  0  0  0
  -28.4969  -14.1055   20.5960 N   0  0  0  0  0  0  0  0  0  0  0  0
  -29.8224  -14.1806   20.3873 N   0  0  0  0  0  0  0  0  0  0  0  0
  -23.0945  -30.6168   21.2159 N   0  0  0  0  0  0  0  0  0  0  0  0
  -30.4410  -17.8887   21.0591 N   0  0  0  0  0  0  0  0  0  0  0  0
  -31.6708  -12.9734   19.5291 N   0  0  0  0  0  0  0  0  0  0  0  0
  -28.2073  -10.1364   18.9358 N   0  0  0  0  0  0  0  0  0  0  0  0
  -30.2250  -18.9217   18.9499 N   0  0  0  0  0  0  0  0  0  0  0  0
  -28.5988  -23.1420   15.7693 N   0  0  0  0  0  0  0  0  0  0  0  0
  -24.5204  -31.1960   24.4348 N   0  0  0  0  0  0  0  0  0  0  0  0
  -20.3924  -31.4180   19.3411 N   0  0  0  0  0  0  0  0  0  0  0  0
  -21.0247  -31.9013   15.8148 N   0  3  0  0  0  0  0  0  0  0  0  0
  -30.4681  -10.3990   18.6557 O   0  0  0  0  0  0  0  0  0  0  0  0
  -23.7492  -29.2608   23.3942 O   0  0  0  0  0  0  0  0  0  0  0  0
  -26.3610  -24.2125   16.9652 O   0  0  0  0  0  0  0  0  0  0  0  0
  -21.6904  -32.4162   21.6921 O   0  0  0  0  0  0  0  0  0  0  0  0
  -21.0333  -29.8582   17.7493 O   0  0  0  0  0  0  0  0  0  0  0  0
  -31.3615  -19.9745   20.6767 O   0  0  0  0  0  0  0  0  0  0  0  0
  -22.8945  -11.0918   20.3128 O   0  0  0  0  0  0  0  0  0  0  0  0
  -26.4728  -25.9579   18.9944 O   0  0  0  0  0  0  0  0  0  1  0  0
  -22.0000   -5.9416   22.0675 F   0  0  0  0  0  0  0  0  0  0  0  0
  -23.9969   -8.9305   18.9878 F   0  0  0  0  0  0  0  0  0  0  0  0
  -29.2678  -18.4987   16.3450 F   0  0  0  0  0  0  0  0  0  0  0  0
  -28.4699  -20.5984   14.7933 F   0  0  0  0  0  0  0  0  0  0  0  0
  1  2  1  0  0  0  0
  1  5  2  0  0  0  0
  2  6  2  0  0  0  0
  3  8  2  0  0  0  0
  3 16  1  0  0  0  0
  4  9  1  0  0  0  0
  4 16  2  0  0  0  0
  5 18  1  0  0  0  0
  6 20  1  0  0  0  0
  7 10  2  0  0  0  0
  7 19  1  0  0  0  0
  8 23  1  0  0  0  0
  9 23  2  0  0  0  0
 10 24  1  0  0  0  0
 11 12  2  0  0  0  0
 11 25  1  0  0  0  0
 12 26  1  0  0  0  0
 13 21  1  0  0  0  0
 13 24  2  0  0  0  0
 14 26  2  0  0  0  0
 14 27  1  0  0  0  0
 15 22  1  0  0  0  0
 15 62  2  0  0  0  0
 16 30  1  0  0  0  0
 17 30  1  0  0  0  0
 17 32  2  0  0  0  0
 17 33  1  0  0  0  0
 18 20  2  0  0  0  0
 18 39  1  0  0  0  0
 19 21  2  0  0  0  0
 19 40  1  0  0  0  0
 20 48  1  0  0  0  0
 21 41  1  0  0  0  0
 22 28  2  0  0  0  0
 22 69  1  0  0  0  0
 23 80  1  0  0  0  0
 24 81  1  0  0  0  0
 25 27  2  0  0  0  0
 25 80  1  0  0  0  0
 26 82  1  0  0  0  0
 27 83  1  0  0  0  0
 28 29  1  0  0  0  0
 28 84  1  0  0  0  0
 29 31  2  0  0  0  0
 29 85  1  0  0  0  0
 30 63  2  0  0  0  0
 31 62  1  0  0  0  0
 31 70  1  0  0  0  0
 32 64  1  0  0  0  0
 32 67  1  0  0  0  0
 33 68  1  0  0  0  0
 33 74  2  0  0  0  0
 34 49  1  0  0  0  0
 34 71  1  0  0  0  0
 34 75  2  0  0  0  0
 35 57  1  0  0  0  0
 35 58  1  0  0  0  0
 35 76  2  0  0  0  0
 36 59  1  0  0  0  0
 36 65  1  0  0  0  0
 36 77  2  0  0  0  0
 37 60  1  0  0  0  0
 37 72  1  0  0  0  0
 37 78  2  0  0  0  0
 38 66  1  0  0  0  0
 38 69  1  0  0  0  0
 38 79  2  0  0  0  0
 39 42  1  0  0  0  0
 40 49  1  0  0  0  0
 41 65  1  0  0  0  0
 42 44  1  0  0  0  0
 43 45  1  0  0  0  0
 43 46  1  0  0  0  0
 44 48  1  0  0  0  0
 45 50  1  0  0  0  0
 46 66  1  0  0  0  0
 47 50  1  0  0  0  0
 47 66  1  0  0  0  0
 48 71  1  0  0  0  0
 49 65  1  0  0  0  0
 50 64  1  0  0  0  0
 51 58  1  0  0  0  0
 52 60  1  0  0  0  0
 53 61  1  0  0  0  0
 54 61  1  0  0  0  0
 55 61  1  0  0  0  0
 56 73  1  0  0  0  0
 57 81  1  0  0  0  0
 58 70  1  0  0  0  0
 59 61  1  0  0  0  0
 59 72  1  0  0  0  0
 60 73  1  0  0  0  0
 63 64  1  0  0  0  0
M  CHG  1  73   1
M  ISO  4  38 100  57 101  69 100  81 101
M  END
> <Batch ID>
0182

> <Smiles>
CNC(C)C(=O)NC(C(=O)N1Cc2cc([101O:1][101CH2:1]C(=O)C(C)Nc3ncc([100NH:0][100C:0](=O)N4CCCC(n5nc(-c6ccc(Oc7ccc(F)cc7F)cc6)c(C(N)=O)c5N)C4)c(F)c3F)ccc2CC1C(=O)NC1CCCc2ccccc21)C(C)(C)C

> <Shape>
0.288

> <Color>
0.081

> <Negative vol penalty>
0.000

$$$$

  -OEChem-04052304563D

 84 92  0     1  0  0  0  0  0999 V2000
  -26.7431  -31.8998   11.9376 C   0  0  0  0  0  0  0  0  0  0  0  0
  -26.4015  -30.5512   11.9430 C   0  0  0  0  0  0  0  0  0  0  0  0
  -23.2660   -9.8416   19.8237 C   0  0  0  0  0  0  0  0  0  0  0  0
  -23.7135   -9.8284   22.1979 C   0  0  0  0  0  0  0  0  0  0  0  0
  -27.7887  -32.3561   12.7391 C   0  0  0  0  0  0  0  0  0  0  0  0
  -27.1061  -29.6579   12.7492 C   0  0  0  0  0  0  0  0  0  0  0  0
  -24.0597  -26.4683   15.2373 C   0  0  0  0  0  0  0  0  0  0  0  0
  -22.5498   -8.6516   19.9521 C   0  0  0  0  0  0  0  0  0  0  0  0
  -22.9973   -8.6383   22.3262 C   0  0  0  0  0  0  0  0  0  0  0  0
  -23.5369  -25.3950   14.5173 C   0  0  0  0  0  0  0  0  0  0  0  0
  -23.5134   -5.3461   21.7556 C   0  0  0  0  0  0  0  0  0  0  0  0
  -24.0750   -4.3322   22.5316 C   0  0  0  0  0  0  0  0  0  0  0  0
  -25.2163  -23.9473   15.4675 C   0  0  0  0  0  0  0  0  0  0  0  0
  -22.1558   -4.3916   23.9981 C   0  0  0  0  0  0  0  0  0  0  0  0
  -25.5535  -18.9347   16.6063 C   0  0  0  0  0  0  0  0  0  0  0  0
  -23.8479  -10.4300   20.9466 C   0  0  0  0  0  0  0  0  0  0  0  0
  -24.0851  -12.9698   20.9170 C   0  0  0  0  0  0  0  0  0  0  0  0
  -28.5002  -31.4695   13.5628 C   0  0  0  0  0  0  0  0  0  0  0  0
  -25.1733  -26.2912   16.0709 C   0  0  0  0  0  0  0  0  0  0  0  0
  -28.1631  -30.1025   13.5615 C   0  0  0  0  0  0  0  0  0  0  0  0
  -25.7497  -25.0194   16.1991 C   0  0  0  0  0  0  0  0  0  0  0  0
  -27.6934  -18.9929   15.7008 C   0  0  0  0  0  0  0  0  0  0  0  0
  -26.3652  -19.5062   15.6512 C   0  0  0  0  0  0  0  0  0  0  0  0
  -22.4154   -8.0499   21.2033 C   0  0  0  0  0  0  0  0  0  0  0  0
  -24.1170  -24.1349   14.6301 C   0  0  0  0  0  0  0  0  0  0  0  0
  -22.2730   -5.8828   22.1008 C   0  0  0  0  0  0  0  0  0  0  0  0
  -23.3962   -3.8549   23.6528 C   0  0  0  0  0  0  0  0  0  0  0  0
  -21.5942   -5.4055   23.2220 C   0  0  0  0  0  0  0  0  0  0  0  0
  -24.5883  -11.6590   20.8146 C   0  0  0  0  0  0  0  0  0  0  0  0
  -27.8464  -18.0487   16.6923 C   0  0  0  0  0  0  0  0  0  0  0  0
  -25.1799  -13.7745   20.7159 C   0  0  0  0  0  0  0  0  0  0  0  0
  -22.7477  -13.4197   21.1711 C   0  0  0  0  0  0  0  0  0  0  0  0
  -29.0560  -17.2765   17.0763 C   0  0  0  0  0  0  0  0  0  0  0  0
  -28.1267  -27.4639   16.1479 C   0  0  0  0  0  0  0  0  0  0  0  0
  -28.2845  -25.8305   18.9460 C   0  0  0  0  0  0  0  0  0  0  0  0
  -27.1136  -23.2718   20.8771 C   0  0  0  0  0  0  0  0  0  0  0  0
  -24.6202  -21.0256   14.6584 C   0  0  0  0  0  0  0  0  0  0  0  0
  -29.8160  -15.1058   17.9897 C   0  0  0  0  0  0  0  0  0  0  0  0
  -29.6535  -32.0013   14.3763 C   0  0  0  0  0  0  0  0  0  0  0  0
  -25.7088  -27.4534   16.8615 C   0  0  0  0  0  0  0  0  0  0  0  0
  -26.9341  -24.7723   17.0961 C   0  0  0  0  0  0  0  0  0  0  0  0
  -30.1058  -31.0534   15.4840 C   0  0  0  0  0  0  0  0  0  0  0  0
  -30.1117  -12.6401   20.5056 C   0  0  0  0  0  0  0  0  0  0  0  0
  -30.2361  -29.6308   14.9491 C   0  0  0  0  0  0  0  0  0  0  0  0
  -28.6596  -12.2761   20.8269 C   0  0  0  0  0  0  0  0  0  0  0  0
  -30.3138  -12.9039   19.0141 C   0  0  0  0  0  0  0  0  0  0  0  0
  -27.9452  -13.5160   18.7445 C   0  0  0  0  0  0  0  0  0  0  0  0
  -28.8875  -29.1067   14.4411 C   0  0  1  0  0  0  0  0  0  0  0  0
  -27.1630  -27.2692   17.2841 C   0  0  1  0  0  0  0  0  0  0  0  0
  -27.6751  -13.3096   20.2437 C   0  0  1  0  0  0  0  0  0  0  0  0
  -28.7851  -19.4248   14.7920 C   0  0  0  0  0  0  0  0  0  0  0  0
  -27.4642  -22.1618   23.1002 C   0  0  0  0  0  0  0  0  0  0  0  0
  -24.0529  -21.4346   12.2355 C   0  0  0  0  0  0  0  0  0  0  0  0
  -30.8049  -24.4855   17.8741 C   0  0  0  0  0  0  0  0  0  0  0  0
  -30.5616  -22.7569   19.6689 C   0  0  0  0  0  0  0  0  0  0  0  0
  -30.9199  -25.1480   20.2829 C   0  0  0  0  0  0  0  0  0  0  0  0
  -24.3528  -23.8851   21.7492 C   0  0  0  0  0  0  0  0  0  0  0  0
  -28.6841  -24.4306   19.3456 C   0  0  1  0  0  0  0  0  0  0  0  0
  -26.6889  -23.2220   22.3336 C   0  0  2  0  0  0  0  0  0  0  0  0
  -24.5229  -22.0603   13.5403 C   0  0  1  0  0  0  0  0  0  1  0  0
  -30.2215  -24.2100   19.2744 C   0  0  0  0  0  0  0  0  0  0  0  0
  -25.9006  -11.6283   20.5676 N   0  0  0  0  0  0  0  0  0  0  0  0
  -26.2312  -12.9297   20.5130 N   0  0  0  0  0  0  0  0  0  0  0  0
  -27.4252  -25.9417   17.8437 N   0  0  0  0  0  0  0  0  0  0  0  0
  -29.3503  -13.8999   18.5420 N   0  0  0  0  0  0  0  0  0  0  0  0
  -25.3361  -15.1152   20.6947 N   0  0  0  0  0  0  0  0  0  0  0  0
  -21.7433  -12.4596   21.3543 N   0  0  0  0  0  0  0  0  0  0  0  0
  -25.8998  -20.4867   14.7429 N   0  0  0  0  0  0  0  0  0  0  0  0
  -28.8175  -16.0089   17.6080 N   0  0  0  0  0  0  0  0  0  0  0  0
  -28.0495  -28.7080   15.5515 N   0  0  0  0  0  0  0  0  0  0  0  0
  -28.1083  -24.2032   20.6667 N   0  0  0  0  0  0  0  0  0  0  0  0
  -25.2356  -22.9095   22.4390 N   0  3  0  0  0  0  0  0  0  0  0  0
  -22.4491  -14.6372   21.2175 O   0  0  0  0  0  0  0  0  0  0  0  0
  -30.1652  -17.7632   16.8746 O   0  0  0  0  0  0  0  0  0  0  0  0
  -28.8853  -26.5533   15.8363 O   0  0  0  0  0  0  0  0  0  0  0  0
  -28.7132  -26.7896   19.5925 O   0  0  0  0  0  0  0  0  0  0  0  0
  -26.6156  -22.5535   20.0130 O   0  0  0  0  0  0  0  0  0  0  0  0
  -23.6535  -20.7625   15.3680 O   0  0  0  0  0  0  0  0  0  0  0  0
  -31.0171  -15.3720   17.8808 O   0  0  0  0  0  0  0  0  0  0  0  0
  -21.7164   -6.8888   21.3289 O   0  0  0  0  0  0  0  0  0  0  0  0
  -23.6091  -23.0857   13.9278 O   0  0  0  0  0  0  0  0  0  1  0  0
  -23.9349   -2.8802   24.3970 F   0  0  0  0  0  0  0  0  0  0  0  0
  -20.4018   -5.9164   23.5580 F   0  0  0  0  0  0  0  0  0  0  0  0
  -26.3926  -17.7843   17.5575 S   0  0  0  0  0  0  0  0  0  0  0  0
  1  2  1  0  0  0  0
  1  5  2  0  0  0  0
  2  6  2  0  0  0  0
  3  8  2  0  0  0  0
  3 16  1  0  0  0  0
  4  9  1  0  0  0  0
  4 16  2  0  0  0  0
  5 18  1  0  0  0  0
  6 20  1  0  0  0  0
  7 10  2  0  0  0  0
  7 19  1  0  0  0  0
  8 24  1  0  0  0  0
  9 24  2  0  0  0  0
 10 25  1  0  0  0  0
 11 12  2  0  0  0  0
 11 26  1  0  0  0  0
 12 27  1  0  0  0  0
 13 21  1  0  0  0  0
 13 25  2  0  0  0  0
 14 27  2  0  0  0  0
 14 28  1  0  0  0  0
 15 23  2  0  0  0  0
 15 84  1  0  0  0  0
 16 29  1  0  0  0  0
 17 29  1  0  0  0  0
 17 31  2  0  0  0  0
 17 32  1  0  0  0  0
 18 20  2  0  0  0  0
 18 39  1  0  0  0  0
 19 21  2  0  0  0  0
 19 40  1  0  0  0  0
 20 48  1  0  0  0  0
 21 41  1  0  0  0  0
 22 23  1  0  0  0  0
 22 30  2  0  0  0  0
 22 51  1  0  0  0  0
 23 68  1  0  0  0  0
 24 80  1  0  0  0  0
 25 81  1  0  0  0  0
 26 28  2  0  0  0  0
 26 80  1  0  0  0  0
 27 82  1  0  0  0  0
 28 83  1  0  0  0  0
 29 62  2  0  0  0  0
 30 33  1  0  0  0  0
 30 84  1  0  0  0  0
 31 63  1  0  0  0  0
 31 66  1  0  0  0  0
 32 67  1  0  0  0  0
 32 73  2  0  0  0  0
 33 69  1  0  0  0  0
 33 74  2  0  0  0  0
 34 49  1  0  0  0  0
 34 70  1  0  0  0  0
 34 75  2  0  0  0  0
 35 58  1  0  0  0  0
 35 64  1  0  0  0  0
 35 76  2  0  0  0  0
 36 59  1  0  0  0  0
 36 71  1  0  0  0  0
 36 77  2  0  0  0  0
 37 60  1  0  0  0  0
 37 68  1  0  0  0  0
 37 78  2  0  0  0  0
 38 65  1  0  0  0  0
 38 69  1  0  0  0  0
 38 79  2  0  0  0  0
 39 42  1  0  0  0  0
 40 49  1  0  0  0  0
 41 64  1  0  0  0  0
 42 44  1  0  0  0  0
 43 45  1  0  0  0  0
 43 46  1  0  0  0  0
 44 48  1  0  0  0  0
 45 50  1  0  0  0  0
 46 65  1  0  0  0  0
 47 50  1  0  0  0  0
 47 65  1  0  0  0  0
 48 70  1  0  0  0  0
 49 64  1  0  0  0  0
 50 63  1  0  0  0  0
 52 59  1  0  0  0  0
 53 60  1  0  0  0  0
 54 61  1  0  0  0  0
 55 61  1  0  0  0  0
 56 61  1  0  0  0  0
 57 72  1  0  0  0  0
 58 61  1  0  0  0  0
 58 71  1  0  0  0  0
 59 72  1  0  0  0  0
 60 81  1  0  0  0  0
 62 63  1  0  0  0  0
M  CHG  1  72   1
M  ISO  4  38 100  60 101  69 100  81 101
M  END
> <Batch ID>
0182

> <Smiles>
CNC(C)C(=O)NC(C(=O)N1Cc2cc([101O:1][101CH:1](C)C(=O)Nc3csc(C(=O)[100NH:0][100C:0](=O)N4CCCC(n5nc(-c6ccc(Oc7ccc(F)cc7F)cc6)c(C(N)=O)c5N)C4)c3C)ccc2CC1C(=O)NC1CCCc2ccccc21)C(C)(C)C

> <Shape>
0.184

> <Color>
0.183

> <Negative vol penalty>
0.000

$$$$

  -OEChem-04052304563D

 84 92  0     1  0  0  0  0  0999 V2000
  -34.5398  -32.6577   22.1892 C   0  0  0  0  0  0  0  0  0  0  0  0
  -34.6586  -31.4023   22.7768 C   0  0  0  0  0  0  0  0  0  0  0  0
  -23.0159   -9.9251   19.9531 C   0  0  0  0  0  0  0  0  0  0  0  0
  -23.7793   -9.9180   22.2453 C   0  0  0  0  0  0  0  0  0  0  0  0
  -33.3040  -33.0857   21.7059 C   0  0  0  0  0  0  0  0  0  0  0  0
  -33.5414  -30.5746   22.8824 C   0  0  0  0  0  0  0  0  0  0  0  0
  -34.5390  -25.7872   21.5668 C   0  0  0  0  0  0  0  0  0  0  0  0
  -22.2617   -8.7782   20.2007 C   0  0  0  0  0  0  0  0  0  0  0  0
  -23.0251   -8.7711   22.4929 C   0  0  0  0  0  0  0  0  0  0  0  0
  -35.2048  -24.9956   22.5016 C   0  0  0  0  0  0  0  0  0  0  0  0
  -23.2842   -5.4482   21.9251 C   0  0  0  0  0  0  0  0  0  0  0  0
  -23.8912   -4.4151   22.6390 C   0  0  0  0  0  0  0  0  0  0  0  0
  -33.1054  -23.9931   23.1392 C   0  0  0  0  0  0  0  0  0  0  0  0
  -22.1941   -4.5993   24.3487 C   0  0  0  0  0  0  0  0  0  0  0  0
  -23.7747  -10.4950   20.9754 C   0  0  0  0  0  0  0  0  0  0  0  0
  -24.1399  -13.0172   20.8624 C   0  0  0  0  0  0  0  0  0  0  0  0
  -32.1731  -32.2590   21.7970 C   0  0  0  0  0  0  0  0  0  0  0  0
  -33.1476  -25.6954   21.4186 C   0  0  0  0  0  0  0  0  0  0  0  0
  -32.2890  -30.9925   22.4011 C   0  0  0  0  0  0  0  0  0  0  0  0
  -32.4246  -24.7829   22.2001 C   0  0  0  0  0  0  0  0  0  0  0  0
  -22.2662   -8.2012   21.4706 C   0  0  0  0  0  0  0  0  0  0  0  0
  -34.4877  -24.1005   23.2899 C   0  0  0  0  0  0  0  0  0  0  0  0
  -22.1321   -6.0571   22.4230 C   0  0  0  0  0  0  0  0  0  0  0  0
  -23.3462   -3.9906   23.8507 C   0  0  0  0  0  0  0  0  0  0  0  0
  -21.5871   -5.6326   23.6348 C   0  0  0  0  0  0  0  0  0  0  0  0
  -24.5545  -11.6795   20.7200 C   0  0  0  0  0  0  0  0  0  0  0  0
  -31.8369  -18.6954   22.2731 C   0  0  0  0  0  0  0  0  0  0  0  0
  -25.2384  -13.7576   20.4997 C   0  0  0  0  0  0  0  0  0  0  0  0
  -30.7393  -19.0720   23.0184 C   0  0  0  0  0  0  0  0  0  0  0  0
  -30.5822  -16.9302   21.9272 C   0  0  0  0  0  0  0  0  0  0  0  0
  -22.8749  -13.5436   21.2849 C   0  0  0  0  0  0  0  0  0  0  0  0
  -33.0426  -19.5385   22.1394 C   0  0  0  0  0  0  0  0  0  0  0  0
  -30.7141  -27.7051   21.7966 C   0  0  0  0  0  0  0  0  0  0  0  0
  -28.9970  -25.2432   20.5666 C   0  0  0  0  0  0  0  0  0  0  0  0
  -28.7317  -21.8854   20.0171 C   0  0  0  0  0  0  0  0  0  0  0  0
  -34.4955  -21.2440   23.2148 C   0  0  0  0  0  0  0  0  0  0  0  0
  -30.7144  -14.7516   20.6692 C   0  0  0  0  0  0  0  0  0  0  0  0
  -30.8484  -32.7841   21.3031 C   0  0  0  0  0  0  0  0  0  0  0  0
  -32.4476  -26.5371   20.3871 C   0  0  0  0  0  0  0  0  0  0  0  0
  -30.9321  -24.6316   22.0655 C   0  0  0  0  0  0  0  0  0  0  0  0
  -29.7938  -31.6965   21.1153 C   0  0  0  0  0  0  0  0  0  0  0  0
  -29.5739  -12.3556   18.2952 C   0  0  0  0  0  0  0  0  0  0  0  0
  -29.7610  -30.7699   22.3266 C   0  0  0  0  0  0  0  0  0  0  0  0
  -28.1322  -12.0762   18.7261 C   0  0  0  0  0  0  0  0  0  0  0  0
  -30.4929  -12.5722   19.4961 C   0  0  0  0  0  0  0  0  0  0  0  0
  -28.5950  -13.3101   20.8826 C   0  0  0  0  0  0  0  0  0  0  0  0
  -31.1055  -30.0559   22.5116 C   0  0  1  0  0  0  0  0  0  0  0  0
  -30.9631  -26.7301   20.6807 C   0  0  1  0  0  0  0  0  0  0  0  0
  -27.6187  -13.1496   19.7058 C   0  0  2  0  0  0  0  0  0  0  0  0
  -27.1973  -20.1675   19.0212 C   0  0  0  0  0  0  0  0  0  0  0  0
  -35.4447  -21.3578   25.5199 C   0  0  0  0  0  0  0  0  0  0  0  0
  -27.1767  -25.4583   23.0059 C   0  0  0  0  0  0  0  0  0  0  0  0
  -26.2850  -23.1848   22.4541 C   0  0  0  0  0  0  0  0  0  0  0  0
  -25.9821  -25.0661   20.8441 C   0  0  0  0  0  0  0  0  0  0  0  0
  -30.7632  -21.0526   18.0326 C   0  0  0  0  0  0  0  0  0  0  0  0
  -28.2770  -24.0484   21.1437 C   0  0  1  0  0  0  0  0  0  0  0  0
  -28.3776  -21.0935   18.7714 C   0  0  2  0  0  0  0  0  0  0  0  0
  -34.5669  -22.0504   24.4929 C   0  0  1  0  0  0  0  0  0  1  0  0
  -26.9580  -24.4434   21.8661 C   0  0  0  0  0  0  0  0  0  0  0  0
  -25.8178  -11.5731   20.2995 N   0  0  0  0  0  0  0  0  0  0  0  0
  -31.7488  -17.4673   21.6470 N   0  0  0  0  0  0  0  0  0  0  0  0
  -26.2064  -12.8535   20.1745 N   0  0  0  0  0  0  0  0  0  0  0  0
  -30.2924  -25.4812   21.0474 N   0  0  0  0  0  0  0  0  0  0  0  0
  -29.9450  -13.6055   20.3776 N   0  0  0  0  0  0  0  0  0  0  0  0
  -25.4611  -15.0873   20.4304 N   0  0  0  0  0  0  0  0  0  0  0  0
  -21.8551  -12.6428   21.6210 N   0  0  0  0  0  0  0  0  0  0  0  0
  -30.0770  -15.6801   21.4914 N   0  0  0  0  0  0  0  0  0  0  0  0
  -33.3620  -20.3494   23.1575 N   0  0  0  0  0  0  0  0  0  0  0  0
  -31.2326  -28.9655   21.5686 N   0  0  0  0  0  0  0  0  0  0  0  0
  -28.0967  -23.1091   20.0421 N   0  0  0  0  0  0  0  0  0  0  0  0
  -33.7436  -19.4438   21.0100 N   0  3  0  0  0  0  0  0  0  0  0  0
  -29.5388  -20.2676   18.3351 N   0  3  0  0  0  0  0  0  0  0  0  0
  -22.6502  -14.7761   21.3463 O   0  0  0  0  0  0  0  0  0  0  0  0
  -30.0959  -27.3413   22.7901 O   0  0  0  0  0  0  0  0  0  0  0  0
  -28.4337  -25.9355   19.7151 O   0  0  0  0  0  0  0  0  0  0  0  0
  -29.4923  -21.4594   20.8834 O   0  0  0  0  0  0  0  0  0  0  0  0
  -35.2892  -21.3314   22.2882 O   0  0  0  0  0  0  0  0  0  0  0  0
  -31.8443  -14.9112   20.2003 O   0  0  0  0  0  0  0  0  0  0  0  0
  -21.5302   -7.0821   21.7127 O   0  0  0  0  0  0  0  0  0  0  0  0
  -35.1351  -23.3270   24.2035 O   0  0  0  0  0  0  0  0  0  1  0  0
  -23.9283   -2.9974   24.5354 F   0  0  0  0  0  0  0  0  0  0  0  0
  -20.4798   -6.2128   24.1176 F   0  0  0  0  0  0  0  0  0  0  0  0
  -30.6195  -20.2136   23.7013 F   0  0  0  0  0  0  0  0  0  0  0  0
  -29.5414  -17.8472   22.9376 S   0  0  0  0  0  0  0  0  0  0  0  0
  1  2  1  0  0  0  0
  1  5  2  0  0  0  0
  2  6  2  0  0  0  0
  3  8  2  0  0  0  0
  3 15  1  0  0  0  0
  4  9  1  0  0  0  0
  4 15  2  0  0  0  0
  5 17  1  0  0  0  0
  6 19  1  0  0  0  0
  7 10  2  0  0  0  0
  7 18  1  0  0  0  0
  8 21  1  0  0  0  0
  9 21  2  0  0  0  0
 10 22  1  0  0  0  0
 11 12  2  0  0  0  0
 11 23  1  0  0  0  0
 12 24  1  0  0  0  0
 13 20  1  0  0  0  0
 13 22  2  0  0  0  0
 14 24  2  0  0  0  0
 14 25  1  0  0  0  0
 15 26  1  0  0  0  0
 16 26  1  0  0  0  0
 16 28  2  0  0  0  0
 16 31  1  0  0  0  0
 17 19  2  0  0  0  0
 17 38  1  0  0  0  0
 18 20  2  0  0  0  0
 18 39  1  0  0  0  0
 19 47  1  0  0  0  0
 20 40  1  0  0  0  0
 21 79  1  0  0  0  0
 22 80  1  0  0  0  0
 23 25  2  0  0  0  0
 23 79  1  0  0  0  0
 24 81  1  0  0  0  0
 25 82  1  0  0  0  0
 26 60  2  0  0  0  0
 27 29  2  0  0  0  0
 27 32  1  0  0  0  0
 27 61  1  0  0  0  0
 28 62  1  0  0  0  0
 28 65  1  0  0  0  0
 29 83  1  0  0  0  0
 29 84  1  0  0  0  0
 30 61  2  0  0  0  0
 30 67  1  0  0  0  0
 30 84  1  0  0  0  0
 31 66  1  0  0  0  0
 31 73  2  0  0  0  0
 32 68  1  0  0  0  0
 32 71  2  0  0  0  0
 33 48  1  0  0  0  0
 33 69  1  0  0  0  0
 33 74  2  0  0  0  0
 34 56  1  0  0  0  0
 34 63  1  0  0  0  0
 34 75  2  0  0  0  0
 35 57  1  0  0  0  0
 35 70  1  0  0  0  0
 35 76  2  0  0  0  0
 36 58  1  0  0  0  0
 36 68  1  0  0  0  0
 36 77  2  0  0  0  0
 37 64  1  0  0  0  0
 37 67  1  0  0  0  0
 37 78  2  0  0  0  0
 38 41  1  0  0  0  0
 39 48  1  0  0  0  0
 40 63  1  0  0  0  0
 41 43  1  0  0  0  0
 42 44  1  0  0  0  0
 42 45  1  0  0  0  0
 43 47  1  0  0  0  0
 44 49  1  0  0  0  0
 45 64  1  0  0  0  0
 46 49  1  0  0  0  0
 46 64  1  0  0  0  0
 47 69  1  0  0  0  0
 48 63  1  0  0  0  0
 49 62  1  0  0  0  0
 50 57  1  0  0  0  0
 51 58  1  0  0  0  0
 52 59  1  0  0  0  0
 53 59  1  0  0  0  0
 54 59  1  0  0  0  0
 55 72  1  0  0  0  0
 56 59  1  0  0  0  0
 56 70  1  0  0  0  0
 57 72  1  0  0  0  0
 58 80  1  0  0  0  0
 60 62  1  0  0  0  0
M  CHG  2  71   1  72   1
M  ISO  4  37 100  58 101  67 100  80 101
M  END
> <Batch ID>
0182

> <Smiles>
CNC(C)C(=O)NC(C(=O)N1Cc2cc([101O:1][101CH:1](C)C(=O)NC(=N)c3nc([100NH:0][100C:0](=O)N4CCCC(n5nc(-c6ccc(Oc7ccc(F)cc7F)cc6)c(C(N)=O)c5N)C4)sc3F)ccc2CC1C(=O)NC1CCCc2ccccc21)C(C)(C)C

> <Shape>
0.240

> <Color>
0.204

> <Negative vol penalty>
0.000

$$$$

  -OEChem-04052304563D

 84 92  0     1  0  0  0  0  0999 V2000
  -18.3120  -24.7153   24.2089 C   0  0  0  0  0  0  0  0  0  0  0  0
  -19.1148  -24.4000   23.1173 C   0  0  0  0  0  0  0  0  0  0  0  0
  -26.9046  -12.3384   21.8452 C   0  0  0  0  0  0  0  0  0  0  0  0
  -26.1849  -14.0437   20.2925 C   0  0  0  0  0  0  0  0  0  0  0  0
  -17.9625  -26.0423   24.4555 C   0  0  0  0  0  0  0  0  0  0  0  0
  -19.5677  -25.4115   22.2710 C   0  0  0  0  0  0  0  0  0  0  0  0
  -26.6122  -26.4973   21.2287 C   0  0  0  0  0  0  0  0  0  0  0  0
  -25.6007  -11.8472   21.9102 C   0  0  0  0  0  0  0  0  0  0  0  0
  -24.8810  -13.5525   20.3575 C   0  0  0  0  0  0  0  0  0  0  0  0
  -27.9372  -26.6324   20.8137 C   0  0  0  0  0  0  0  0  0  0  0  0
  -22.5324   -9.9204   22.2063 C   0  0  0  0  0  0  0  0  0  0  0  0
  -22.3553   -8.5389   22.1316 C   0  0  0  0  0  0  0  0  0  0  0  0
  -27.3234  -28.5197   19.4319 C   0  0  0  0  0  0  0  0  0  0  0  0
  -23.3950   -8.5237   19.9508 C   0  0  0  0  0  0  0  0  0  0  0  0
  -31.1558  -22.3787   21.9502 C   0  0  0  0  0  0  0  0  0  0  0  0
  -27.1967  -13.4366   21.0363 C   0  0  0  0  0  0  0  0  0  0  0  0
  -29.5553  -13.5549   20.0716 C   0  0  0  0  0  0  0  0  0  0  0  0
  -18.4193  -27.0716   23.6174 C   0  0  0  0  0  0  0  0  0  0  0  0
  -25.6393  -27.3836   20.7582 C   0  0  0  0  0  0  0  0  0  0  0  0
  -19.2229  -26.7533   22.5059 C   0  0  0  0  0  0  0  0  0  0  0  0
  -25.9968  -28.3971   19.8538 C   0  0  0  0  0  0  0  0  0  0  0  0
  -30.4512  -21.3362   21.3836 C   0  0  0  0  0  0  0  0  0  0  0  0
  -24.5889  -12.4543   21.1663 C   0  0  0  0  0  0  0  0  0  0  0  0
  -28.2918  -27.6409   19.9174 C   0  0  0  0  0  0  0  0  0  0  0  0
  -23.1407  -10.6036   21.1533 C   0  0  0  0  0  0  0  0  0  0  0  0
  -22.7866   -7.8405   21.0038 C   0  0  0  0  0  0  0  0  0  0  0  0
  -23.5720   -9.9053   20.0255 C   0  0  0  0  0  0  0  0  0  0  0  0
  -28.5433  -13.9448   20.9692 C   0  0  0  0  0  0  0  0  0  0  0  0
  -29.7382  -21.6472   20.2438 C   0  0  0  0  0  0  0  0  0  0  0  0
  -30.6371  -14.3274   20.4172 C   0  0  0  0  0  0  0  0  0  0  0  0
  -30.4361  -23.8086   20.3363 C   0  0  0  0  0  0  0  0  0  0  0  0
  -29.5205  -12.5816   19.0194 C   0  0  0  0  0  0  0  0  0  0  0  0
  -22.0388  -28.4372   20.8065 C   0  0  0  0  0  0  0  0  0  0  0  0
  -23.7185  -31.0041   20.8156 C   0  0  0  0  0  0  0  0  0  0  0  0
  -25.9235  -33.5716   21.2439 C   0  0  0  0  0  0  0  0  0  0  0  0
  -29.7544  -25.5505   18.6492 C   0  0  0  0  0  0  0  0  0  0  0  0
  -31.1694  -19.6393   23.1015 C   0  0  0  0  0  0  0  0  0  0  0  0
  -17.9763  -28.4859   23.8970 C   0  0  0  0  0  0  0  0  0  0  0  0
  -24.1888  -27.2376   21.1305 C   0  0  0  0  0  0  0  0  0  0  0  0
  -24.9104  -29.3060   19.3472 C   0  0  0  0  0  0  0  0  0  0  0  0
  -18.8061  -29.5395   23.1678 C   0  0  0  0  0  0  0  0  0  0  0  0
  -32.5979  -16.5591   24.1734 C   0  0  0  0  0  0  0  0  0  0  0  0
  -18.9950  -29.1517   21.7047 C   0  0  0  0  0  0  0  0  0  0  0  0
  -31.8165  -15.5040   23.3871 C   0  0  0  0  0  0  0  0  0  0  0  0
  -31.7079  -17.7271   24.5944 C   0  0  0  0  0  0  0  0  0  0  0  0
  -30.1699  -17.3006   22.7177 C   0  0  0  0  0  0  0  0  0  0  0  0
  -19.7542  -27.8253   21.5792 C   0  0  1  0  0  0  0  0  0  0  0  0
  -23.4606  -28.5872   21.2618 C   0  0  1  0  0  0  0  0  0  0  0  0
  -31.0385  -16.1355   22.2160 C   0  0  2  0  0  0  0  0  0  0  0  0
  -26.0166  -36.0664   21.4982 C   0  0  0  0  0  0  0  0  0  0  0  0
  -31.4666  -27.3414   18.1350 C   0  0  0  0  0  0  0  0  0  0  0  0
  -29.1380  -27.5295   17.1820 C   0  0  0  0  0  0  0  0  0  0  0  0
  -23.2065  -31.3242   17.8258 C   0  0  0  0  0  0  0  0  0  0  0  0
  -24.2273  -33.6059   17.9674 C   0  0  0  0  0  0  0  0  0  0  0  0
  -22.1575  -33.0851   19.2586 C   0  0  0  0  0  0  0  0  0  0  0  0
  -27.1583  -33.3684   23.9259 C   0  0  0  0  0  0  0  0  0  0  0  0
  -24.3630  -32.0969   20.0010 C   0  0  1  0  0  0  0  0  0  0  0  0
  -25.9414  -34.7315   22.2230 C   0  0  2  0  0  0  0  0  0  0  0  0
  -29.9852  -27.0437   18.3574 C   0  0  0  0  0  0  0  0  0  1  0  0
  -23.5032  -32.5051   18.7715 C   0  0  0  0  0  0  0  0  0  0  0  0
  -31.1706  -23.6321   21.4511 N   0  0  0  0  0  0  0  0  0  0  0  0
  -28.9463  -14.8913   21.8211 N   0  0  0  0  0  0  0  0  0  0  0  0
  -29.7081  -22.8775   19.6908 N   0  0  0  0  0  0  0  0  0  0  0  0
  -30.2236  -15.1025   21.4604 N   0  0  0  0  0  0  0  0  0  0  0  0
  -24.0165  -29.6850   20.4525 N   0  0  0  0  0  0  0  0  0  0  0  0
  -31.0059  -18.2776   23.4329 N   0  0  0  0  0  0  0  0  0  0  0  0
  -28.9934  -20.6196   19.6132 N   0  0  0  0  0  0  0  0  0  0  0  0
  -31.8923  -14.4123   19.9276 N   0  0  0  0  0  0  0  0  0  0  0  0
  -28.3287  -11.8775   18.7997 N   0  0  0  0  0  0  0  0  0  0  0  0
  -30.4792  -20.0414   21.9584 N   0  0  0  0  0  0  0  0  0  0  0  0
  -30.4273  -25.1125   19.7847 N   0  0  0  0  0  0  0  0  0  0  0  0
  -21.1697  -28.0302   21.8007 N   0  0  0  0  0  0  0  0  0  0  0  0
  -24.6368  -33.1897   20.9280 N   0  0  0  0  0  0  0  0  0  0  0  0
  -27.1171  -34.6237   23.1324 N   0  3  0  0  0  0  0  0  0  0  0  0
  -30.5217  -12.3316   18.3062 O   0  0  0  0  0  0  0  0  0  0  0  0
  -21.7499  -28.6744   19.6395 O   0  0  0  0  0  0  0  0  0  0  0  0
  -22.9664  -31.3087   21.7456 O   0  0  0  0  0  0  0  0  0  0  0  0
  -26.9484  -33.0582   20.8006 O   0  0  0  0  0  0  0  0  0  0  0  0
  -29.0392  -24.8710   17.9157 O   0  0  0  0  0  0  0  0  0  0  0  0
  -31.8917  -20.3867   23.7660 O   0  0  0  0  0  0  0  0  0  0  0  0
  -23.3165  -11.9751   21.2294 O   0  0  0  0  0  0  0  0  0  0  0  0
  -29.5880  -27.7699   19.5198 O   0  0  0  0  0  0  0  0  0  1  0  0
  -22.6179   -6.5136   20.9328 F   0  0  0  0  0  0  0  0  0  0  0  0
  -24.1582  -10.5559   19.0112 F   0  0  0  0  0  0  0  0  0  0  0  0
  1  2  1  0  0  0  0
  1  5  2  0  0  0  0
  2  6  2  0  0  0  0
  3  8  2  0  0  0  0
  3 16  1  0  0  0  0
  4  9  1  0  0  0  0
  4 16  2  0  0  0  0
  5 18  1  0  0  0  0
  6 20  1  0  0  0  0
  7 10  2  0  0  0  0
  7 19  1  0  0  0  0
  8 23  1  0  0  0  0
  9 23  2  0  0  0  0
 10 24  1  0  0  0  0
 11 12  2  0  0  0  0
 11 25  1  0  0  0  0
 12 26  1  0  0  0  0
 13 21  1  0  0  0  0
 13 24  2  0  0  0  0
 14 26  2  0  0  0  0
 14 27  1  0  0  0  0
 15 22  1  0  0  0  0
 15 61  2  0  0  0  0
 16 28  1  0  0  0  0
 17 28  1  0  0  0  0
 17 30  2  0  0  0  0
 17 32  1  0  0  0  0
 18 20  2  0  0  0  0
 18 38  1  0  0  0  0
 19 21  2  0  0  0  0
 19 39  1  0  0  0  0
 20 47  1  0  0  0  0
 21 40  1  0  0  0  0
 22 29  2  0  0  0  0
 22 70  1  0  0  0  0
 23 81  1  0  0  0  0
 24 82  1  0  0  0  0
 25 27  2  0  0  0  0
 25 81  1  0  0  0  0
 26 83  1  0  0  0  0
 27 84  1  0  0  0  0
 28 62  2  0  0  0  0
 29 63  1  0  0  0  0
 29 67  1  0  0  0  0
 30 64  1  0  0  0  0
 30 68  1  0  0  0  0
 31 61  1  0  0  0  0
 31 63  2  0  0  0  0
 31 71  1  0  0  0  0
 32 69  1  0  0  0  0
 32 75  2  0  0  0  0
 33 48  1  0  0  0  0
 33 72  1  0  0  0  0
 33 76  2  0  0  0  0
 34 57  1  0  0  0  0
 34 65  1  0  0  0  0
 34 77  2  0  0  0  0
 35 58  1  0  0  0  0
 35 73  1  0  0  0  0
 35 78  2  0  0  0  0
 36 59  1  0  0  0  0
 36 71  1  0  0  0  0
 36 79  2  0  0  0  0
 37 66  1  0  0  0  0
 37 70  1  0  0  0  0
 37 80  2  0  0  0  0
 38 41  1  0  0  0  0
 39 48  1  0  0  0  0
 40 65  1  0  0  0  0
 41 43  1  0  0  0  0
 42 44  1  0  0  0  0
 42 45  1  0  0  0  0
 43 47  1  0  0  0  0
 44 49  1  0  0  0  0
 45 66  1  0  0  0  0
 46 49  1  0  0  0  0
 46 66  1  0  0  0  0
 47 72  1  0  0  0  0
 48 65  1  0  0  0  0
 49 64  1  0  0  0  0
 50 58  1  0  0  0  0
 51 59  1  0  0  0  0
 52 59  1  0  0  0  0
 53 60  1  0  0  0  0
 54 60  1  0  0  0  0
 55 60  1  0  0  0  0
 56 74  1  0  0  0  0
 57 60  1  0  0  0  0
 57 73  1  0  0  0  0
 58 74  1  0  0  0  0
 59 82  1  0  0  0  0
 62 64  1  0  0  0  0
M  CHG  1  74   1
M  ISO  4  37 100  59 101  70 100  82 101
M  END
> <Batch ID>
0182

> <Smiles>
CNC(C)C(=O)NC(C(=O)N1Cc2cc([101O:1][101C:1](C)(C)C(=O)Nc3ncc([100NH:0][100C:0](=O)N4CCCC(n5nc(-c6ccc(Oc7ccc(F)cc7F)cc6)c(C(N)=O)c5N)C4)c(N)n3)ccc2CC1C(=O)NC1CCCc2ccccc21)C(C)(C)C

> <Shape>
0.331

> <Color>
0.084

> <Negative vol penalty>
0.000

$$$$

  -OEChem-04052304563D

 85 93  0     1  0  0  0  0  0999 V2000
  -19.5860  -28.0119   26.8304 C   0  0  0  0  0  0  0  0  0  0  0  0
  -20.8021  -27.5464   26.3404 C   0  0  0  0  0  0  0  0  0  0  0  0
  -24.1784   -9.6301   22.1615 C   0  0  0  0  0  0  0  0  0  0  0  0
  -23.1856  -10.3025   20.0640 C   0  0  0  0  0  0  0  0  0  0  0  0
  -18.6159  -28.4860   25.9484 C   0  0  0  0  0  0  0  0  0  0  0  0
  -21.0482  -27.5539   24.9679 C   0  0  0  0  0  0  0  0  0  0  0  0
  -26.4161  -28.5578   22.1959 C   0  0  0  0  0  0  0  0  0  0  0  0
  -23.2450   -8.5995   22.2729 C   0  0  0  0  0  0  0  0  0  0  0  0
  -22.2522   -9.2719   20.1754 C   0  0  0  0  0  0  0  0  0  0  0  0
  -27.3735  -27.6945   21.6649 C   0  0  0  0  0  0  0  0  0  0  0  0
  -22.7825   -5.5078   20.9845 C   0  0  0  0  0  0  0  0  0  0  0  0
  -23.2486   -4.2493   21.3646 C   0  0  0  0  0  0  0  0  0  0  0  0
  -26.3983  -27.9692   19.4757 C   0  0  0  0  0  0  0  0  0  0  0  0
  -29.5122  -20.2656   16.7956 C   0  0  0  0  0  0  0  0  0  0  0  0
  -21.8171   -4.3066   23.3100 C   0  0  0  0  0  0  0  0  0  0  0  0
  -24.1486  -10.4817   21.0571 C   0  0  0  0  0  0  0  0  0  0  0  0
  -26.3758  -11.4868   20.3241 C   0  0  0  0  0  0  0  0  0  0  0  0
  -18.8540  -28.5083   24.5651 C   0  0  0  0  0  0  0  0  0  0  0  0
  -25.4343  -29.1257   21.3712 C   0  0  0  0  0  0  0  0  0  0  0  0
  -20.0799  -28.0276   24.0664 C   0  0  0  0  0  0  0  0  0  0  0  0
  -25.4311  -28.8414   19.9982 C   0  0  0  0  0  0  0  0  0  0  0  0
  -29.3518  -18.9166   16.4941 C   0  0  0  0  0  0  0  0  0  0  0  0
  -22.2820   -8.4204   21.2799 C   0  0  0  0  0  0  0  0  0  0  0  0
  -27.3629  -27.3978   20.3051 C   0  0  0  0  0  0  0  0  0  0  0  0
  -21.8337   -6.1657   21.7672 C   0  0  0  0  0  0  0  0  0  0  0  0
  -22.7660   -3.6487   22.5273 C   0  0  0  0  0  0  0  0  0  0  0  0
  -21.3510   -5.5651   22.9299 C   0  0  0  0  0  0  0  0  0  0  0  0
  -28.5399  -18.1187   17.2947 C   0  0  0  0  0  0  0  0  0  0  0  0
  -25.1121  -11.5468   20.9417 C   0  0  0  0  0  0  0  0  0  0  0  0
  -26.8952  -12.7484   20.4818 C   0  0  0  0  0  0  0  0  0  0  0  0
  -28.8517  -20.7869   17.8989 C   0  0  0  0  0  0  0  0  0  0  0  0
  -27.9041  -18.6944   18.3855 C   0  0  0  0  0  0  0  0  0  0  0  0
  -28.0078  -25.2196   19.7483 C   0  0  0  0  0  0  0  0  0  1  0  0
  -27.0222  -10.3888   19.6667 C   0  0  0  0  0  0  0  0  0  0  0  0
  -28.8507  -24.3024   19.2586 C   0  0  0  0  0  0  0  0  0  0  0  0
  -28.4396  -22.8604   19.2631 C   0  0  0  0  0  0  0  0  0  0  0  0
  -22.2609  -28.9947   21.2449 C   0  0  0  0  0  0  0  0  0  0  0  0
  -22.6488  -31.2422   18.9383 C   0  0  0  0  0  0  0  0  0  0  0  0
  -24.6727  -32.6563   16.5822 C   0  0  0  0  0  0  0  0  0  0  0  0
  -26.3618  -18.2889   20.3357 C   0  0  0  0  0  0  0  0  0  0  0  0
  -17.7568  -28.9861   23.6472 C   0  0  0  0  0  0  0  0  0  0  0  0
  -24.4249  -30.0759   21.9547 C   0  0  0  0  0  0  0  0  0  0  0  0
  -24.4108  -29.4410   19.0666 C   0  0  0  0  0  0  0  0  0  0  0  0
  -18.2408  -29.3090   22.2359 C   0  0  0  0  0  0  0  0  0  0  0  0
  -25.3054  -16.6359   23.3070 C   0  0  0  0  0  0  0  0  0  0  0  0
  -19.1425  -28.1954   21.7129 C   0  0  0  0  0  0  0  0  0  0  0  0
  -25.2649  -15.1596   22.9057 C   0  0  0  0  0  0  0  0  0  0  0  0
  -24.8543  -17.5463   22.1662 C   0  0  0  0  0  0  0  0  0  0  0  0
  -25.5164  -15.8648   20.4919 C   0  0  0  0  0  0  0  0  0  0  0  0
  -20.3938  -28.0428   22.5861 C   0  0  1  0  0  0  0  0  0  0  0  0
  -23.1580  -30.1928   21.1129 C   0  0  1  0  0  0  0  0  0  0  0  0
  -26.0242  -14.9129   21.5873 C   0  0  2  0  0  0  0  0  0  0  0  0
  -24.6984  -34.4504   14.8278 C   0  0  0  0  0  0  0  0  0  0  0  0
  -20.9724  -29.4704   17.1052 C   0  0  0  0  0  0  0  0  0  0  0  0
  -21.8164  -30.8029   15.1609 C   0  0  0  0  0  0  0  0  0  0  0  0
  -20.4677  -31.9143   16.9410 C   0  0  0  0  0  0  0  0  0  0  0  0
  -26.8813  -34.0985   17.9242 C   0  0  0  0  0  0  0  0  0  0  0  0
  -22.8453  -31.2154   17.4417 C   0  0  1  0  0  0  0  0  0  0  0  0
  -25.0033  -34.1062   16.2774 C   0  0  2  0  0  0  0  0  0  0  0  0
  -21.5436  -30.8378   16.6798 C   0  0  0  0  0  0  0  0  0  0  0  0
  -24.8451  -12.7512   21.4537 N   0  0  0  0  0  0  0  0  0  0  0  0
  -25.9482  -13.4596   21.1582 N   0  0  0  0  0  0  0  0  0  0  0  0
  -28.0760  -19.9961   18.6530 N   0  3  0  0  0  0  0  0  0  0  0  0
  -23.4409  -30.3592   19.6859 N   0  0  0  0  0  0  0  0  0  0  0  0
  -25.6199  -17.2587   20.9514 N   0  0  0  0  0  0  0  0  0  0  0  0
  -30.0113  -18.3616   15.3782 N   0  0  0  0  0  0  0  0  0  0  0  0
  -28.0652  -13.3077   20.1065 N   0  0  0  0  0  0  0  0  0  0  0  0
  -26.3473   -9.1626   19.5938 N   0  0  0  0  0  0  0  0  0  0  0  0
  -29.0114  -22.1586   18.2108 N   0  0  0  0  0  0  0  0  0  0  0  0
  -27.0757  -17.8896   19.2063 N   0  0  0  0  0  0  0  0  0  0  0  0
  -21.3522  -29.0837   22.2822 N   0  0  0  0  0  0  0  0  0  0  0  0
  -23.3938  -32.5176   17.0787 N   0  0  0  0  0  0  0  0  0  0  0  0
  -26.4478  -34.3722   16.5299 N   0  3  0  0  0  0  0  0  0  0  0  0
  -28.1712  -10.4874   19.1732 O   0  0  0  0  0  0  0  0  0  0  0  0
  -27.6849  -22.4232   20.1252 O   0  0  0  0  0  0  0  0  0  0  0  0
  -22.3830  -28.0594   20.4626 O   0  0  0  0  0  0  0  0  0  0  0  0
  -21.8281  -32.0230   19.4266 O   0  0  0  0  0  0  0  0  0  0  0  0
  -25.4679  -31.7382   16.3949 O   0  0  0  0  0  0  0  0  0  0  0  0
  -26.3853  -19.4343   20.7934 O   0  0  0  0  0  0  0  0  0  0  0  0
  -30.0890  -24.6312   18.7456 O   0  0  0  0  0  0  0  0  0  0  0  0
  -21.3712   -7.4148   21.3881 O   0  0  0  0  0  0  0  0  0  0  0  0
  -28.2959  -26.5550   19.7844 O   0  0  0  0  0  0  0  0  0  1  0  0
  -23.2126   -2.4395   22.8914 F   0  0  0  0  0  0  0  0  0  0  0  0
  -20.4385   -6.1918   23.6853 F   0  0  0  0  0  0  0  0  0  0  0  0
  -28.3767  -16.8174   17.0156 F   0  0  0  0  0  0  0  0  0  0  0  0
  1  2  1  0  0  0  0
  1  5  2  0  0  0  0
  2  6  2  0  0  0  0
  3  8  2  0  0  0  0
  3 16  1  0  0  0  0
  4  9  1  0  0  0  0
  4 16  2  0  0  0  0
  5 18  1  0  0  0  0
  6 20  1  0  0  0  0
  7 10  2  0  0  0  0
  7 19  1  0  0  0  0
  8 23  1  0  0  0  0
  9 23  2  0  0  0  0
 10 24  1  0  0  0  0
 11 12  2  0  0  0  0
 11 25  1  0  0  0  0
 12 26  1  0  0  0  0
 13 21  1  0  0  0  0
 13 24  2  0  0  0  0
 14 22  2  0  0  0  0
 14 31  1  0  0  0  0
 15 26  2  0  0  0  0
 15 27  1  0  0  0  0
 16 29  1  0  0  0  0
 17 29  1  0  0  0  0
 17 30  2  0  0  0  0
 17 34  1  0  0  0  0
 18 20  2  0  0  0  0
 18 41  1  0  0  0  0
 19 21  2  0  0  0  0
 19 42  1  0  0  0  0
 20 50  1  0  0  0  0
 21 43  1  0  0  0  0
 22 28  1  0  0  0  0
 22 66  1  0  0  0  0
 23 81  1  0  0  0  0
 24 82  1  0  0  0  0
 25 27  2  0  0  0  0
 25 81  1  0  0  0  0
 26 83  1  0  0  0  0
 27 84  1  0  0  0  0
 28 32  2  0  0  0  0
 28 85  1  0  0  0  0
 29 61  2  0  0  0  0
 30 62  1  0  0  0  0
 30 67  1  0  0  0  0
 31 63  2  0  0  0  0
 31 69  1  0  0  0  0
 32 63  1  0  0  0  0
 32 70  1  0  0  0  0
 33 35  2  0  0  0  0
 33 82  1  0  0  0  0
 34 68  1  0  0  0  0
 34 74  2  0  0  0  0
 35 36  1  0  0  0  0
 35 80  1  0  0  0  0
 36 69  1  0  0  0  0
 36 75  2  0  0  0  0
 37 51  1  0  0  0  0
 37 71  1  0  0  0  0
 37 76  2  0  0  0  0
 38 58  1  0  0  0  0
 38 64  1  0  0  0  0
 38 77  2  0  0  0  0
 39 59  1  0  0  0  0
 39 72  1  0  0  0  0
 39 78  2  0  0  0  0
 40 65  1  0  0  0  0
 40 70  1  0  0  0  0
 40 79  2  0  0  0  0
 41 44  1  0  0  0  0
 42 51  1  0  0  0  0
 43 64  1  0  0  0  0
 44 46  1  0  0  0  0
 45 47  1  0  0  0  0
 45 48  1  0  0  0  0
 46 50  1  0  0  0  0
 47 52  1  0  0  0  0
 48 65  1  0  0  0  0
 49 52  1  0  0  0  0
 49 65  1  0  0  0  0
 50 71  1  0  0  0  0
 51 64  1  0  0  0  0
 52 62  1  0  0  0  0
 53 59  1  0  0  0  0
 54 60  1  0  0  0  0
 55 60  1  0  0  0  0
 56 60  1  0  0  0  0
 57 73  1  0  0  0  0
 58 60  1  0  0  0  0
 58 72  1  0  0  0  0
 59 73  1  0  0  0  0
 61 62  1  0  0  0  0
M  CHG  2  63   1  73   1
M  ISO  4  33 101  40 100  70 100  82 101
M  END
> <Batch ID>
0182

> <Smiles>
CNC(C)C(=O)NC(C(=O)N1Cc2cc([101O:1][101CH2:1]C(=O)C(=O)Nc3cc(N)c(F)c([100NH:0][100C:0](=O)N4CCCC(n5nc(-c6ccc(Oc7ccc(F)cc7F)cc6)c(C(N)=O)c5N)C4)n3)ccc2CC1C(=O)NC1CCCc2ccccc21)C(C)(C)C

> <Shape>
0.267

> <Color>
0.107

> <Negative vol penalty>
0.000

$$$$

  -OEChem-04052304563D

 85 93  0     1  0  0  0  0  0999 V2000
  -23.1159  -17.9034   19.0778 C   0  0  0  0  0  0  0  0  0  0  0  0
  -23.6954  -18.5729   20.1509 C   0  0  0  0  0  0  0  0  0  0  0  0
  -25.9129  -12.9573   21.5365 C   0  0  0  0  0  0  0  0  0  0  0  0
  -25.3193  -13.6335   19.2943 C   0  0  0  0  0  0  0  0  0  0  0  0
  -22.6072  -18.6261   17.9994 C   0  0  0  0  0  0  0  0  0  0  0  0
  -23.7675  -19.9654   20.1456 C   0  0  0  0  0  0  0  0  0  0  0  0
  -23.5775  -25.5822   24.5876 C   0  0  0  0  0  0  0  0  0  0  0  0
  -24.8089  -12.1056   21.5720 C   0  0  0  0  0  0  0  0  0  0  0  0
  -24.2153  -12.7817   19.3297 C   0  0  0  0  0  0  0  0  0  0  0  0
  -24.3066  -26.7263   24.9092 C   0  0  0  0  0  0  0  0  0  0  0  0
  -23.9821   -9.0488   20.3863 C   0  0  0  0  0  0  0  0  0  0  0  0
  -24.1729   -7.7609   20.8868 C   0  0  0  0  0  0  0  0  0  0  0  0
  -23.3237  -27.8738   23.0287 C   0  0  0  0  0  0  0  0  0  0  0  0
  -22.5428   -8.1919   22.6172 C   0  0  0  0  0  0  0  0  0  0  0  0
  -28.7262  -25.8044   19.6465 C   0  0  0  0  0  0  0  0  0  0  0  0
  -26.1680  -13.7214   20.3977 C   0  0  0  0  0  0  0  0  0  0  0  0
  -28.6089  -14.2904   19.9222 C   0  0  0  0  0  0  0  0  0  0  0  0
  -22.6645  -20.0287   17.9854 C   0  0  0  0  0  0  0  0  0  0  0  0
  -22.7229  -25.5719   23.4759 C   0  0  0  0  0  0  0  0  0  0  0  0
  -23.2604  -20.7075   19.0654 C   0  0  0  0  0  0  0  0  0  0  0  0
  -22.5830  -26.7292   22.6967 C   0  0  0  0  0  0  0  0  0  0  0  0
  -23.9601  -12.0177   20.4686 C   0  0  0  0  0  0  0  0  0  0  0  0
  -24.1820  -27.8714   24.1279 C   0  0  0  0  0  0  0  0  0  0  0  0
  -23.0717   -9.9083   21.0013 C   0  0  0  0  0  0  0  0  0  0  0  0
  -23.4532   -7.3325   22.0022 C   0  0  0  0  0  0  0  0  0  0  0  0
  -22.3520   -9.4799   22.1167 C   0  0  0  0  0  0  0  0  0  0  0  0
  -27.3080  -14.6019   20.3607 C   0  0  0  0  0  0  0  0  0  0  0  0
  -27.6910  -24.9479   19.9578 C   0  0  0  0  0  0  0  0  0  0  0  0
  -29.3151  -15.4570   20.0861 C   0  0  0  0  0  0  0  0  0  0  0  0
  -27.5291  -27.1680   20.8783 C   0  0  0  0  0  0  0  0  0  0  0  0
  -29.1322  -13.0568   19.4121 C   0  0  0  0  0  0  0  0  0  0  0  0
  -27.8293  -28.8094   22.5036 C   0  0  0  0  0  0  0  0  0  0  0  0
  -27.2789  -30.0301   23.1916 C   0  0  0  0  0  0  0  0  0  0  0  0
  -22.5909  -23.9202   20.7634 C   0  0  0  0  0  0  0  0  0  0  0  0
  -27.5137  -21.1155   20.1948 C   0  0  0  0  0  0  0  0  0  0  0  0
  -19.7891  -25.5109   20.3861 C   0  0  0  0  0  0  0  0  0  0  0  0
  -17.8787  -28.2346   21.1468 C   0  0  0  0  0  0  0  0  0  0  0  0
  -22.1440  -20.7644   16.7760 C   0  0  0  0  0  0  0  0  0  0  0  0
  -21.9231  -24.3383   23.1582 C   0  0  0  0  0  0  0  0  0  0  0  0
  -21.6635  -26.7762   21.5047 C   0  0  0  0  0  0  0  0  0  0  0  0
  -21.9221  -22.2551   17.0188 C   0  0  0  0  0  0  0  0  0  0  0  0
  -29.4544  -19.4150   22.7578 C   0  0  0  0  0  0  0  0  0  0  0  0
  -23.1244  -22.8643   17.7331 C   0  0  0  0  0  0  0  0  0  0  0  0
  -29.2131  -17.9488   22.4015 C   0  0  0  0  0  0  0  0  0  0  0  0
  -28.2191  -20.2695   22.4857 C   0  0  0  0  0  0  0  0  0  0  0  0
  -27.4689  -18.6994   20.7260 C   0  0  0  0  0  0  0  0  0  0  0  0
  -23.3349  -22.2183   19.1078 C   0  0  1  0  0  0  0  0  0  0  0  0
  -21.4729  -24.2767   21.7019 C   0  0  1  0  0  0  0  0  0  0  0  0
  -28.7011  -17.8089   20.9572 C   0  0  2  0  0  0  0  0  0  0  0  0
  -29.1895  -28.3436   22.9397 C   0  0  0  0  0  0  0  0  0  0  0  0
  -26.5425  -31.2733   25.2248 C   0  0  0  0  0  0  0  0  0  0  0  0
  -15.6486  -29.2756   20.6566 C   0  0  0  0  0  0  0  0  0  0  0  0
  -20.8121  -26.4110   17.6560 C   0  0  0  0  0  0  0  0  0  0  0  0
  -19.0210  -28.1603   17.6392 C   0  0  0  0  0  0  0  0  0  0  0  0
  -18.4020  -25.7445   17.6992 C   0  0  0  0  0  0  0  0  0  0  0  0
  -17.0595  -28.0957   23.9873 C   0  0  0  0  0  0  0  0  0  0  0  0
  -27.4764  -23.5421   19.5639 C   0  0  0  0  0  0  0  0  0  0  0  0
  -27.7766  -22.5200   20.6765 C   0  0  0  0  0  0  0  0  0  0  0  0
  -26.1551  -28.7995   25.0773 C   0  0  0  0  0  0  0  0  0  1  0  0
  -27.0925  -29.9496   24.7006 C   0  0  1  0  0  0  0  0  0  0  0  0
  -19.3810  -26.8248   19.7648 C   0  0  1  0  0  0  0  0  0  0  0  0
  -16.4304  -28.3587   21.5844 C   0  0  2  0  0  0  0  0  0  0  0  0
  -19.4229  -26.7840   18.2110 C   0  0  0  0  0  0  0  0  0  0  0  0
  -28.6349  -27.0780   20.1731 N   0  0  0  0  0  0  0  0  0  0  0  0
  -27.1918  -15.8672   20.7725 N   0  0  0  0  0  0  0  0  0  0  0  0
  -27.0861  -28.3072   21.5679 N   0  0  0  0  0  0  0  0  0  0  0  0
  -28.4288  -16.3610   20.5935 N   0  0  0  0  0  0  0  0  0  0  0  0
  -20.9076  -25.5428   21.2310 N   0  0  0  0  0  0  0  0  0  0  0  0
  -27.7465  -20.0870   21.1081 N   0  0  0  0  0  0  0  0  0  0  0  0
  -30.6014  -15.7874   19.8444 N   0  0  0  0  0  0  0  0  0  0  0  0
  -28.2697  -11.9568   19.3095 N   0  0  0  0  0  0  0  0  0  0  0  0
  -22.3859  -22.7457   20.0647 N   0  0  0  0  0  0  0  0  0  0  0  0
  -18.0709  -27.1489   20.3188 N   0  0  0  0  0  0  0  0  0  0  0  0
  -16.3524  -28.9110   22.9664 N   0  3  0  0  0  0  0  0  0  0  0  0
  -30.3331  -12.9290   19.0732 O   0  0  0  0  0  0  0  0  0  0  0  0
  -27.0223  -30.9950   22.4860 O   0  0  0  0  0  0  0  0  0  0  0  0
  -23.5664  -24.6569   20.6782 O   0  0  0  0  0  0  0  0  0  0  0  0
  -27.1160  -20.9396   19.0402 O   0  0  0  0  0  0  0  0  0  0  0  0
  -19.1352  -24.4951   20.1368 O   0  0  0  0  0  0  0  0  0  0  0  0
  -18.7515  -29.0242   21.5009 O   0  0  0  0  0  0  0  0  0  0  0  0
  -22.8829  -11.1864   20.5027 O   0  0  0  0  0  0  0  0  0  0  0  0
  -24.8929  -28.9892   24.4392 O   0  0  0  0  0  0  0  0  0  1  0  0
  -23.6353   -6.0951   22.4818 F   0  0  0  0  0  0  0  0  0  0  0  0
  -21.4752  -10.3007   22.7110 F   0  0  0  0  0  0  0  0  0  0  0  0
  -26.5523  -25.7589   20.9512 S   0  0  0  0  0  0  0  0  0  0  0  0
  1  2  1  0  0  0  0
  1  5  2  0  0  0  0
  2  6  2  0  0  0  0
  3  8  2  0  0  0  0
  3 16  1  0  0  0  0
  4  9  1  0  0  0  0
  4 16  2  0  0  0  0
  5 18  1  0  0  0  0
  6 20  1  0  0  0  0
  7 10  2  0  0  0  0
  7 19  1  0  0  0  0
  8 22  1  0  0  0  0
  9 22  2  0  0  0  0
 10 23  1  0  0  0  0
 11 12  2  0  0  0  0
 11 24  1  0  0  0  0
 12 25  1  0  0  0  0
 13 21  1  0  0  0  0
 13 23  2  0  0  0  0
 14 25  2  0  0  0  0
 14 26  1  0  0  0  0
 15 28  2  0  0  0  0
 15 64  1  0  0  0  0
 16 27  1  0  0  0  0
 17 27  1  0  0  0  0
 17 29  2  0  0  0  0
 17 31  1  0  0  0  0
 18 20  2  0  0  0  0
 18 38  1  0  0  0  0
 19 21  2  0  0  0  0
 19 39  1  0  0  0  0
 20 47  1  0  0  0  0
 21 40  1  0  0  0  0
 22 81  1  0  0  0  0
 23 82  1  0  0  0  0
 24 26  2  0  0  0  0
 24 81  1  0  0  0  0
 25 83  1  0  0  0  0
 26 84  1  0  0  0  0
 27 65  2  0  0  0  0
 28 57  1  0  0  0  0
 28 85  1  0  0  0  0
 29 67  1  0  0  0  0
 29 70  1  0  0  0  0
 30 64  2  0  0  0  0
 30 66  1  0  0  0  0
 30 85  1  0  0  0  0
 31 71  1  0  0  0  0
 31 75  2  0  0  0  0
 32 33  1  0  0  0  0
 32 50  1  0  0  0  0
 32 66  2  0  0  0  0
 33 60  1  0  0  0  0
 33 76  2  0  0  0  0
 34 48  1  0  0  0  0
 34 72  1  0  0  0  0
 34 77  2  0  0  0  0
 35 58  1  0  0  0  0
 35 69  1  0  0  0  0
 35 78  2  0  0  0  0
 36 61  1  0  0  0  0
 36 68  1  0  0  0  0
 36 79  2  0  0  0  0
 37 62  1  0  0  0  0
 37 73  1  0  0  0  0
 37 80  2  0  0  0  0
 38 41  1  0  0  0  0
 39 48  1  0  0  0  0
 40 68  1  0  0  0  0
 41 43  1  0  0  0  0
 42 44  1  0  0  0  0
 42 45  1  0  0  0  0
 43 47  1  0  0  0  0
 44 49  1  0  0  0  0
 45 69  1  0  0  0  0
 46 49  1  0  0  0  0
 46 69  1  0  0  0  0
 47 72  1  0  0  0  0
 48 68  1  0  0  0  0
 49 67  1  0  0  0  0
 51 60  1  0  0  0  0
 52 62  1  0  0  0  0
 53 63  1  0  0  0  0
 54 63  1  0  0  0  0
 55 63  1  0  0  0  0
 56 74  1  0  0  0  0
 57 58  1  0  0  0  0
 59 60  1  0  0  0  0
 59 82  1  0  0  0  0
 61 63  1  0  0  0  0
 61 73  1  0  0  0  0
 62 74  1  0  0  0  0
 65 67  1  0  0  0  0
M  CHG  1  74   1
M  ISO  4  35 100  58 100  59 101  82 101
M  END
> <Batch ID>
0182

> <Smiles>
CNC(C)C(=O)NC(C(=O)N1Cc2cc([101O:1][101CH2:1]C(C)C(=O)C(C)Nc3ncc(C=[100CH:0][100C:0](=O)N4CCCC(n5nc(-c6ccc(Oc7ccc(F)cc7F)cc6)c(C(N)=O)c5N)C4)s3)ccc2CC1C(=O)NC1CCCc2ccccc21)C(C)(C)C

> <Shape>
0.227

> <Color>
0.064

> <Negative vol penalty>
0.000

$$$$

  -OEChem-04052304563D

 86 94  0     1  0  0  0  0  0999 V2000
  -30.4911  -35.6294   20.9740 C   0  0  0  0  0  0  0  0  0  0  0  0
  -30.3952  -34.2421   21.0142 C   0  0  0  0  0  0  0  0  0  0  0  0
  -21.7898   -7.0979   23.1792 C   0  0  0  0  0  0  0  0  0  0  0  0
  -22.4197   -7.0648   20.8470 C   0  0  0  0  0  0  0  0  0  0  0  0
  -29.5643  -36.4113   21.6623 C   0  0  0  0  0  0  0  0  0  0  0  0
  -29.3730  -33.6358   21.7436 C   0  0  0  0  0  0  0  0  0  0  0  0
  -27.1553  -29.8553   19.2071 C   0  0  0  0  0  0  0  0  0  0  0  0
  -21.0867   -5.9057   23.0062 C   0  0  0  0  0  0  0  0  0  0  0  0
  -21.7166   -5.8726   20.6740 C   0  0  0  0  0  0  0  0  0  0  0  0
  -27.8328  -28.6377   19.1582 C   0  0  0  0  0  0  0  0  0  0  0  0
  -22.1914   -2.5879   21.3105 C   0  0  0  0  0  0  0  0  0  0  0  0
  -22.8133   -1.5694   20.5882 C   0  0  0  0  0  0  0  0  0  0  0  0
  -26.4220  -27.7889   20.9213 C   0  0  0  0  0  0  0  0  0  0  0  0
  -21.0122   -1.6115   18.9783 C   0  0  0  0  0  0  0  0  0  0  0  0
  -22.4563   -7.6775   22.0996 C   0  0  0  0  0  0  0  0  0  0  0  0
  -24.5348   -9.0540   22.6405 C   0  0  0  0  0  0  0  0  0  0  0  0
  -28.5245  -35.8145   22.3926 C   0  0  0  0  0  0  0  0  0  0  0  0
  -26.1115  -30.0528   20.1225 C   0  0  0  0  0  0  0  0  0  0  0  0
  -28.4323  -34.4104   22.4433 C   0  0  0  0  0  0  0  0  0  0  0  0
  -25.7312  -29.0090   20.9781 C   0  0  0  0  0  0  0  0  0  0  0  0
  -21.0500   -5.2931   21.7536 C   0  0  0  0  0  0  0  0  0  0  0  0
  -27.4681  -27.6053   20.0174 C   0  0  0  0  0  0  0  0  0  0  0  0
  -20.9799   -3.1181   20.8668 C   0  0  0  0  0  0  0  0  0  0  0  0
  -22.2237   -1.0813   19.4221 C   0  0  0  0  0  0  0  0  0  0  0  0
  -20.3904   -2.6299   19.7007 C   0  0  0  0  0  0  0  0  0  0  0  0
  -23.1824   -8.9093   22.2775 C   0  0  0  0  0  0  0  0  0  0  0  0
  -26.5363  -15.8845   19.9414 C   0  0  0  0  0  0  0  0  0  0  0  0
  -24.7375  -10.4120   22.6752 C   0  0  0  0  0  0  0  0  0  0  0  0
  -27.8041  -15.3891   19.7191 C   0  0  0  0  0  0  0  0  0  0  0  0
  -27.5718  -17.7822   19.5720 C   0  0  0  0  0  0  0  0  0  0  0  0
  -25.5198   -8.0507   22.9212 C   0  0  0  0  0  0  0  0  0  0  0  0
  -25.6132  -32.0249   22.5651 C   0  0  0  0  0  0  0  0  0  0  0  0
  -22.6667  -30.6683   22.5540 C   0  0  0  0  0  0  0  0  0  0  0  0
  -27.0227  -20.2386   19.4878 C   0  0  0  0  0  0  0  0  0  0  0  0
  -20.7103  -27.9966   21.7286 C   0  0  0  0  0  0  0  0  0  0  0  0
  -24.1067  -15.4888   20.4771 C   0  0  0  0  0  0  0  0  0  0  0  0
  -27.5744  -36.7001   23.1591 C   0  0  0  0  0  0  0  0  0  0  0  0
  -25.3730  -31.3629   20.1443 C   0  0  0  0  0  0  0  0  0  0  0  0
  -24.6041  -29.1634   21.9651 C   0  0  0  0  0  0  0  0  0  0  0  0
  -26.2996  -35.9866   23.6018 C   0  0  0  0  0  0  0  0  0  0  0  0
  -21.4341  -14.2419   22.4719 C   0  0  0  0  0  0  0  0  0  0  0  0
  -26.6329  -34.6328   24.2206 C   0  0  0  0  0  0  0  0  0  0  0  0
  -21.7619  -12.7553   22.6290 C   0  0  0  0  0  0  0  0  0  0  0  0
  -21.8096  -14.7620   21.0854 C   0  0  0  0  0  0  0  0  0  0  0  0
  -23.5226  -13.0094   20.8339 C   0  0  0  0  0  0  0  0  0  0  0  0
  -27.3229  -33.7161   23.2032 C   0  0  1  0  0  0  0  0  0  0  0  0
  -24.6648  -31.6277   21.4694 C   0  0  1  0  0  0  0  0  0  0  0  0
  -23.2219  -12.4556   22.2362 C   0  0  2  0  0  0  0  0  0  0  0  0
  -18.3483  -27.1628   21.8810 C   0  0  0  0  0  0  0  0  0  0  0  0
  -23.0808  -30.0426   25.5115 C   0  0  0  0  0  0  0  0  0  0  0  0
  -21.1776  -28.4227   25.3637 C   0  0  0  0  0  0  0  0  0  0  0  0
  -20.7862  -30.8473   24.9268 C   0  0  0  0  0  0  0  0  0  0  0  0
  -20.4521  -27.8421   18.7844 C   0  0  0  0  0  0  0  0  0  0  0  0
  -27.7615  -21.5376   19.1890 C   0  0  0  0  0  0  0  0  0  0  0  0
  -27.1987  -22.7597   19.9180 C   0  0  0  0  0  0  0  0  0  0  0  0
  -27.3875  -25.2483   20.3244 C   0  0  0  0  0  0  0  0  0  1  0  0
  -22.0403  -29.4669   23.2198 C   0  0  1  0  0  0  0  0  0  0  0  0
  -19.3644  -27.9107   21.0318 C   0  0  2  0  0  0  0  0  0  0  0  0
  -21.7938  -29.6923   24.7383 C   0  0  0  0  0  0  0  0  0  0  0  0
  -27.9569  -24.0451   19.5944 C   0  0  0  0  0  0  0  0  0  0  0  0
  -22.5692  -10.0817   22.0948 N   0  0  0  0  0  0  0  0  0  0  0  0
  -26.4012  -17.2566   19.8578 N   0  0  0  0  0  0  0  0  0  0  0  0
  -23.5407  -10.9762   22.3441 N   0  0  0  0  0  0  0  0  0  0  0  0
  -23.9168  -30.4653   21.9526 N   0  0  0  0  0  0  0  0  0  0  0  0
  -23.2074  -14.4457   20.7838 N   0  0  0  0  0  0  0  0  0  0  0  0
  -25.8210  -11.1667   22.9564 N   0  0  0  0  0  0  0  0  0  0  0  0
  -25.1431   -6.7032   22.8394 N   0  0  0  0  0  0  0  0  0  0  0  0
  -25.4157  -15.0704   20.2400 N   0  0  0  0  0  0  0  0  0  0  0  0
  -27.8865  -19.1508   19.3960 N   0  0  0  0  0  0  0  0  0  0  0  0
  -26.3525  -33.1584   22.2858 N   0  0  0  0  0  0  0  0  0  0  0  0
  -20.8346  -29.1603   22.4578 N   0  0  0  0  0  0  0  0  0  0  0  0
  -19.5003  -27.2015   19.7282 N   0  3  0  0  0  0  0  0  0  0  0  0
  -26.6947   -8.3407   23.2514 O   0  0  0  0  0  0  0  0  0  0  0  0
  -25.6689  -31.3535   23.5887 O   0  0  0  0  0  0  0  0  0  0  0  0
  -22.0655  -31.7454   22.5608 O   0  0  0  0  0  0  0  0  0  0  0  0
  -25.8224  -20.2149   19.7393 O   0  0  0  0  0  0  0  0  0  0  0  0
  -21.5644  -27.1174   21.6384 O   0  0  0  0  0  0  0  0  0  0  0  0
  -23.7484  -16.6691   20.4550 O   0  0  0  0  0  0  0  0  0  0  0  0
  -20.3642   -4.1297   21.5845 O   0  0  0  0  0  0  0  0  0  0  0  0
  -28.1282  -26.4161   19.9722 O   0  0  0  0  0  0  0  0  0  1  0  0
  -22.8217   -0.1043   18.7278 F   0  0  0  0  0  0  0  0  0  0  0  0
  -19.2272   -3.1362   19.2688 F   0  0  0  0  0  0  0  0  0  0  0  0
  -28.1501  -14.0995   19.7525 F   0  0  0  0  0  0  0  0  0  0  0  0
  -27.9045  -24.2744   18.2570 F   0  0  0  0  0  0  0  0  0  0  0  0
  -29.2659  -23.9093   19.9204 F   0  0  0  0  0  0  0  0  0  0  0  0
  -28.8783  -16.6847   19.3893 S   0  0  0  0  0  0  0  0  0  0  0  0
  1  2  1  0  0  0  0
  1  5  2  0  0  0  0
  2  6  2  0  0  0  0
  3  8  2  0  0  0  0
  3 15  1  0  0  0  0
  4  9  1  0  0  0  0
  4 15  2  0  0  0  0
  5 17  1  0  0  0  0
  6 19  1  0  0  0  0
  7 10  2  0  0  0  0
  7 18  1  0  0  0  0
  8 21  1  0  0  0  0
  9 21  2  0  0  0  0
 10 22  1  0  0  0  0
 11 12  2  0  0  0  0
 11 23  1  0  0  0  0
 12 24  1  0  0  0  0
 13 20  1  0  0  0  0
 13 22  2  0  0  0  0
 14 24  2  0  0  0  0
 14 25  1  0  0  0  0
 15 26  1  0  0  0  0
 16 26  1  0  0  0  0
 16 28  2  0  0  0  0
 16 31  1  0  0  0  0
 17 19  2  0  0  0  0
 17 37  1  0  0  0  0
 18 20  2  0  0  0  0
 18 38  1  0  0  0  0
 19 46  1  0  0  0  0
 20 39  1  0  0  0  0
 21 79  1  0  0  0  0
 22 80  1  0  0  0  0
 23 25  2  0  0  0  0
 23 79  1  0  0  0  0
 24 81  1  0  0  0  0
 25 82  1  0  0  0  0
 26 61  2  0  0  0  0
 27 29  2  0  0  0  0
 27 62  1  0  0  0  0
 27 68  1  0  0  0  0
 28 63  1  0  0  0  0
 28 66  1  0  0  0  0
 29 83  1  0  0  0  0
 29 86  1  0  0  0  0
 30 62  2  0  0  0  0
 30 69  1  0  0  0  0
 30 86  1  0  0  0  0
 31 67  1  0  0  0  0
 31 73  2  0  0  0  0
 32 47  1  0  0  0  0
 32 70  1  0  0  0  0
 32 74  2  0  0  0  0
 33 57  1  0  0  0  0
 33 64  1  0  0  0  0
 33 75  2  0  0  0  0
 34 54  1  0  0  0  0
 34 69  1  0  0  0  0
 34 76  2  0  0  0  0
 35 58  1  0  0  0  0
 35 71  1  0  0  0  0
 35 77  2  0  0  0  0
 36 65  1  0  0  0  0
 36 68  1  0  0  0  0
 36 78  2  0  0  0  0
 37 40  1  0  0  0  0
 38 47  1  0  0  0  0
 39 64  1  0  0  0  0
 40 42  1  0  0  0  0
 41 43  1  0  0  0  0
 41 44  1  0  0  0  0
 42 46  1  0  0  0  0
 43 48  1  0  0  0  0
 44 65  1  0  0  0  0
 45 48  1  0  0  0  0
 45 65  1  0  0  0  0
 46 70  1  0  0  0  0
 47 64  1  0  0  0  0
 48 63  1  0  0  0  0
 49 58  1  0  0  0  0
 50 59  1  0  0  0  0
 51 59  1  0  0  0  0
 52 59  1  0  0  0  0
 53 72  1  0  0  0  0
 54 55  1  0  0  0  0
 55 60  1  0  0  0  0
 56 60  1  0  0  0  0
 56 80  1  0  0  0  0
 57 59  1  0  0  0  0
 57 71  1  0  0  0  0
 58 72  1  0  0  0  0
 60 84  1  0  0  0  0
 60 85  1  0  0  0  0
 61 63  1  0  0  0  0
M  CHG  1  72   1
M  ISO  4  36 100  56 101  68 100  80 101
M  END
> <Batch ID>
0182

> <Smiles>
CNC(C)C(=O)NC(C(=O)N1Cc2cc([101O:1][101CH2:1]C(F)(F)CCC(=O)Nc3nc([100NH:0][100C:0](=O)N4CCCC(n5nc(-c6ccc(Oc7ccc(F)cc7F)cc6)c(C(N)=O)c5N)C4)c(F)s3)ccc2CC1C(=O)NC1CCCc2ccccc21)C(C)(C)C

> <Shape>
0.277

> <Color>
0.074

> <Negative vol penalty>
0.000

$$$$

  -OEChem-04052304563D

 86 94  0     1  0  0  0  0  0999 V2000
  -24.7783  -25.0389   32.7362 C   0  0  0  0  0  0  0  0  0  0  0  0
  -25.4403  -23.8185   32.8241 C   0  0  0  0  0  0  0  0  0  0  0  0
  -23.2878   -9.8004   19.9139 C   0  0  0  0  0  0  0  0  0  0  0  0
  -23.7423   -9.9405   22.2827 C   0  0  0  0  0  0  0  0  0  0  0  0
  -23.8541  -25.2574   31.7154 C   0  0  0  0  0  0  0  0  0  0  0  0
  -25.1776  -22.8154   31.8917 C   0  0  0  0  0  0  0  0  0  0  0  0
  -29.1587  -18.7351   29.6540 C   0  0  0  0  0  0  0  0  0  0  0  0
  -22.5621   -8.6276   20.1225 C   0  0  0  0  0  0  0  0  0  0  0  0
  -23.0165   -8.7678   22.4913 C   0  0  0  0  0  0  0  0  0  0  0  0
  -29.4238  -17.4061   29.9817 C   0  0  0  0  0  0  0  0  0  0  0  0
  -19.7700   -7.8559   22.7136 C   0  0  0  0  0  0  0  0  0  0  0  0
  -18.8693   -7.8338   23.7784 C   0  0  0  0  0  0  0  0  0  0  0  0
  -27.9619  -16.6826   28.2044 C   0  0  0  0  0  0  0  0  0  0  0  0
  -20.0771   -5.9866   24.7615 C   0  0  0  0  0  0  0  0  0  0  0  0
  -23.8780  -10.4568   20.9940 C   0  0  0  0  0  0  0  0  0  0  0  0
  -24.1365  -12.9869   20.7956 C   0  0  0  0  0  0  0  0  0  0  0  0
  -23.5871  -24.2599   30.7644 C   0  0  0  0  0  0  0  0  0  0  0  0
  -28.2833  -19.0484   28.6043 C   0  0  0  0  0  0  0  0  0  0  0  0
  -24.2480  -23.0202   30.8580 C   0  0  0  0  0  0  0  0  0  0  0  0
  -27.6895  -18.0164   27.8637 C   0  0  0  0  0  0  0  0  0  0  0  0
  -22.4264   -8.1113   21.4112 C   0  0  0  0  0  0  0  0  0  0  0  0
  -28.8231  -16.3797   29.2587 C   0  0  0  0  0  0  0  0  0  0  0  0
  -20.8242   -6.9434   22.6726 C   0  0  0  0  0  0  0  0  0  0  0  0
  -19.0229   -6.8992   24.8024 C   0  0  0  0  0  0  0  0  0  0  0  0
  -20.9777   -6.0088   23.6966 C   0  0  0  0  0  0  0  0  0  0  0  0
  -24.6283  -11.6680   20.7790 C   0  0  0  0  0  0  0  0  0  0  0  0
  -32.0922  -13.5267   26.1476 C   0  0  0  0  0  0  0  0  0  0  0  0
  -33.0804  -13.7587   25.2139 C   0  0  0  0  0  0  0  0  0  0  0  0
  -25.2374  -13.7671   20.5390 C   0  0  0  0  0  0  0  0  0  0  0  0
  -31.4580  -13.2048   23.8462 C   0  0  0  0  0  0  0  0  0  0  0  0
  -22.8037  -13.4642   21.0226 C   0  0  0  0  0  0  0  0  0  0  0  0
  -32.1172  -13.6231   27.6299 C   0  0  0  0  0  0  0  0  0  0  0  0
  -25.5132  -20.5908   28.3782 C   0  0  0  0  0  0  0  0  0  0  0  0
  -25.9773  -20.1578   25.1971 C   0  0  0  0  0  0  0  0  0  0  0  0
  -27.4561  -18.3572   22.7035 C   0  0  0  0  0  0  0  0  0  0  0  0
  -31.0992  -12.9538   21.3653 C   0  0  0  0  0  0  0  0  0  0  0  0
  -22.5450  -24.5254   29.7069 C   0  0  0  0  0  0  0  0  0  0  0  0
  -28.0287  -20.4869   28.2461 C   0  0  0  0  0  0  0  0  0  0  0  0
  -26.7579  -18.2996   26.7146 C   0  0  0  0  0  0  0  0  0  0  0  0
  -22.6000  -23.5454   28.5378 C   0  0  0  0  0  0  0  0  0  0  0  0
  -29.4607  -13.6588   18.2838 C   0  0  0  0  0  0  0  0  0  0  0  0
  -22.7170  -22.1124   29.0476 C   0  0  0  0  0  0  0  0  0  0  0  0
  -27.9899  -13.3541   18.5773 C   0  0  0  0  0  0  0  0  0  0  0  0
  -30.3953  -12.6836   18.9975 C   0  0  0  0  0  0  0  0  0  0  0  0
  -28.7049  -12.2547   20.7376 C   0  0  0  0  0  0  0  0  0  0  0  0
  -24.0084  -21.9164   29.8510 C   0  0  1  0  0  0  0  0  0  0  0  0
  -26.7202  -20.6915   27.4890 C   0  0  1  0  0  0  0  0  0  0  0  0
  -27.7273  -13.2506   20.0925 C   0  0  2  0  0  0  0  0  0  0  0  0
  -28.1500  -17.7437   20.3713 C   0  0  0  0  0  0  0  0  0  0  0  0
  -23.1987  -18.9017   25.0898 C   0  0  0  0  0  0  0  0  0  0  0  0
  -23.7920  -17.9489   22.8518 C   0  0  0  0  0  0  0  0  0  0  0  0
  -23.7310  -20.4215   23.1764 C   0  0  0  0  0  0  0  0  0  0  0  0
  -29.8946  -20.0263   22.8656 C   0  0  0  0  0  0  0  0  0  0  0  0
  -30.3607  -14.7903   30.1337 C   0  0  0  0  0  0  0  0  0  1  0  0
  -25.6157  -19.0831   24.2004 C   0  0  1  0  0  0  0  0  0  0  0  0
  -28.2309  -18.7899   21.4720 C   0  0  2  0  0  0  0  0  0  0  0  0
  -30.7887  -13.3865   29.7120 C   0  0  1  0  0  0  0  0  0  0  0  0
  -24.1004  -19.0831   23.8524 C   0  0  0  0  0  0  0  0  0  0  0  0
  -29.8023  -12.3382   30.1925 C   0  0  0  0  0  0  0  0  0  0  0  0
  -25.9396  -11.6097   20.5314 N   0  0  0  0  0  0  0  0  0  0  0  0
  -32.7187  -13.5743   23.8937 N   0  0  0  0  0  0  0  0  0  0  0  0
  -26.2810  -12.9018   20.3899 N   0  0  0  0  0  0  0  0  0  0  0  0
  -26.5356  -19.7221   26.4071 N   0  0  0  0  0  0  0  0  0  0  0  0
  -30.0907  -12.6412   20.4294 N   0  0  0  0  0  0  0  0  0  0  0  0
  -34.3400  -14.1459   25.5281 N   0  0  0  0  0  0  0  0  0  0  0  0
  -25.4048  -15.1021   20.4286 N   0  0  0  0  0  0  0  0  0  0  0  0
  -21.7917  -12.5270   21.2714 N   0  0  0  0  0  0  0  0  0  0  0  0
  -30.6841  -12.9118   22.6959 N   0  0  0  0  0  0  0  0  0  0  0  0
  -30.9301  -13.3157   28.2750 N   0  0  0  0  0  0  0  0  0  0  0  0
  -25.1425  -21.7874   28.9613 N   0  0  0  0  0  0  0  0  0  0  0  0
  -26.4927  -19.2803   23.0513 N   0  0  0  0  0  0  0  0  0  0  0  0
  -29.6660  -19.0044   21.8118 N   0  3  0  0  0  0  0  0  0  0  0  0
  -22.5155  -14.6846   20.9890 O   0  0  0  0  0  0  0  0  0  0  0  0
  -33.1503  -13.9791   28.1907 O   0  0  0  0  0  0  0  0  0  0  0  0
  -24.9584  -19.5078   28.5233 O   0  0  0  0  0  0  0  0  0  0  0  0
  -25.7784  -21.3408   24.9096 O   0  0  0  0  0  0  0  0  0  0  0  0
  -27.6802  -17.3037   23.2955 O   0  0  0  0  0  0  0  0  0  0  0  0
  -32.2395  -13.2645   21.0112 O   0  0  0  0  0  0  0  0  0  0  0  0
  -21.7180   -6.9671   21.6152 O   0  0  0  0  0  0  0  0  0  0  0  0
  -29.0796  -15.0816   29.5769 O   0  0  0  0  0  0  0  0  0  1  0  0
  -18.1588   -6.8790   25.8256 F   0  0  0  0  0  0  0  0  0  0  0  0
  -21.9892   -5.1303   23.6634 F   0  0  0  0  0  0  0  0  0  0  0  0
  -29.7233  -12.3268   31.5418 F   0  0  0  0  0  0  0  0  0  0  0  0
  -28.5612  -12.5888   29.7192 F   0  0  0  0  0  0  0  0  0  0  0  0
  -30.1541  -11.0988   29.7883 F   0  0  0  0  0  0  0  0  0  0  0  0
  -30.6467  -13.0599   25.3514 S   0  0  0  0  0  0  0  0  0  0  0  0
  1  2  1  0  0  0  0
  1  5  2  0  0  0  0
  2  6  2  0  0  0  0
  3  8  2  0  0  0  0
  3 15  1  0  0  0  0
  4  9  1  0  0  0  0
  4 15  2  0  0  0  0
  5 17  1  0  0  0  0
  6 19  1  0  0  0  0
  7 10  2  0  0  0  0
  7 18  1  0  0  0  0
  8 21  1  0  0  0  0
  9 21  2  0  0  0  0
 10 22  1  0  0  0  0
 11 12  2  0  0  0  0
 11 23  1  0  0  0  0
 12 24  1  0  0  0  0
 13 20  1  0  0  0  0
 13 22  2  0  0  0  0
 14 24  2  0  0  0  0
 14 25  1  0  0  0  0
 15 26  1  0  0  0  0
 16 26  1  0  0  0  0
 16 29  2  0  0  0  0
 16 31  1  0  0  0  0
 17 19  2  0  0  0  0
 17 37  1  0  0  0  0
 18 20  2  0  0  0  0
 18 38  1  0  0  0  0
 19 46  1  0  0  0  0
 20 39  1  0  0  0  0
 21 79  1  0  0  0  0
 22 80  1  0  0  0  0
 23 25  2  0  0  0  0
 23 79  1  0  0  0  0
 24 81  1  0  0  0  0
 25 82  1  0  0  0  0
 26 60  2  0  0  0  0
 27 28  2  0  0  0  0
 27 32  1  0  0  0  0
 27 86  1  0  0  0  0
 28 61  1  0  0  0  0
 28 65  1  0  0  0  0
 29 62  1  0  0  0  0
 29 66  1  0  0  0  0
 30 61  2  0  0  0  0
 30 68  1  0  0  0  0
 30 86  1  0  0  0  0
 31 67  1  0  0  0  0
 31 73  2  0  0  0  0
 32 69  1  0  0  0  0
 32 74  2  0  0  0  0
 33 47  1  0  0  0  0
 33 70  1  0  0  0  0
 33 75  2  0  0  0  0
 34 55  1  0  0  0  0
 34 63  1  0  0  0  0
 34 76  2  0  0  0  0
 35 56  1  0  0  0  0
 35 71  1  0  0  0  0
 35 77  2  0  0  0  0
 36 64  1  0  0  0  0
 36 68  1  0  0  0  0
 36 78  2  0  0  0  0
 37 40  1  0  0  0  0
 38 47  1  0  0  0  0
 39 63  1  0  0  0  0
 40 42  1  0  0  0  0
 41 43  1  0  0  0  0
 41 44  1  0  0  0  0
 42 46  1  0  0  0  0
 43 48  1  0  0  0  0
 44 64  1  0  0  0  0
 45 48  1  0  0  0  0
 45 64  1  0  0  0  0
 46 70  1  0  0  0  0
 47 63  1  0  0  0  0
 48 62  1  0  0  0  0
 49 56  1  0  0  0  0
 50 58  1  0  0  0  0
 51 58  1  0  0  0  0
 52 58  1  0  0  0  0
 53 72  1  0  0  0  0
 54 57  1  0  0  0  0
 54 80  1  0  0  0  0
 55 58  1  0  0  0  0
 55 71  1  0  0  0  0
 56 72  1  0  0  0  0
 57 59  1  0  0  0  0
 57 69  1  0  0  0  0
 59 83  1  0  0  0  0
 59 84  1  0  0  0  0
 59 85  1  0  0  0  0
 60 62  1  0  0  0  0
M  CHG  1  72   1
M  ISO  4  36 100  54 101  68 100  80 101
M  END
> <Batch ID>
0182

> <Smiles>
CNC(C)C(=O)NC(C(=O)N1Cc2cc([101O:1][101CH2:1]C(NC(=O)c3sc([100NH:0][100C:0](=O)N4CCCC(n5nc(-c6ccc(Oc7ccc(F)cc7F)cc6)c(C(N)=O)c5N)C4)nc3N)C(F)(F)F)ccc2CC1C(=O)NC1CCCc2ccccc21)C(C)(C)C

> <Shape>
0.147

> <Color>
0.164

> <Negative vol penalty>
0.000

$$$$

  -OEChem-04052304563D

 84 92  0     1  0  0  0  0  0999 V2000
  -33.4030  -12.8009   23.2257 C   0  0  0  0  0  0  0  0  0  0  0  0
  -32.8042  -13.9158   22.6480 C   0  0  0  0  0  0  0  0  0  0  0  0
  -18.8887  -29.8771   23.9536 C   0  0  0  0  0  0  0  0  0  0  0  0
  -19.2936  -27.7581   22.8659 C   0  0  0  0  0  0  0  0  0  0  0  0
  -32.8138  -11.5448   23.0883 C   0  0  0  0  0  0  0  0  0  0  0  0
  -31.6162  -13.7751   21.9316 C   0  0  0  0  0  0  0  0  0  0  0  0
  -27.0043  -17.7927   21.6244 C   0  0  0  0  0  0  0  0  0  0  0  0
  -17.6296  -29.9428   23.3570 C   0  0  0  0  0  0  0  0  0  0  0  0
  -18.0344  -27.8237   22.2694 C   0  0  0  0  0  0  0  0  0  0  0  0
  -26.6576  -18.7519   20.6739 C   0  0  0  0  0  0  0  0  0  0  0  0
  -14.8243  -27.2601   23.1626 C   0  0  0  0  0  0  0  0  0  0  0  0
  -14.0403  -26.1065   23.1785 C   0  0  0  0  0  0  0  0  0  0  0  0
  -25.1223  -17.1884   19.6651 C   0  0  0  0  0  0  0  0  0  0  0  0
  -13.9975  -26.1024   20.7628 C   0  0  0  0  0  0  0  0  0  0  0  0
  -19.7207  -28.7848   23.7080 C   0  0  0  0  0  0  0  0  0  0  0  0
  -21.3449  -28.1401   25.5665 C   0  0  0  0  0  0  0  0  0  0  0  0
  -31.6129  -11.3901   22.3780 C   0  0  0  0  0  0  0  0  0  0  0  0
  -26.4196  -16.5185   21.5959 C   0  0  0  0  0  0  0  0  0  0  0  0
  -31.0111  -12.5156   21.7833 C   0  0  0  0  0  0  0  0  0  0  0  0
  -25.4614  -16.2158   20.6180 C   0  0  0  0  0  0  0  0  0  0  0  0
  -17.2024  -28.9161   22.5149 C   0  0  0  0  0  0  0  0  0  0  0  0
  -25.7186  -18.4489   19.6923 C   0  0  0  0  0  0  0  0  0  0  0  0
  -15.1948  -27.8349   21.9469 C   0  0  0  0  0  0  0  0  0  0  0  0
  -13.6270  -25.5276   21.9786 C   0  0  0  0  0  0  0  0  0  0  0  0
  -14.7814  -27.2560   20.7470 C   0  0  0  0  0  0  0  0  0  0  0  0
  -21.0217  -28.7166   24.3235 C   0  0  0  0  0  0  0  0  0  0  0  0
  -28.1439  -24.7211   19.7088 C   0  0  0  0  0  0  0  0  0  0  0  0
  -29.1143  -25.7001   19.7533 C   0  0  0  0  0  0  0  0  0  0  0  0
  -22.6989  -28.3331   25.6928 C   0  0  0  0  0  0  0  0  0  0  0  0
  -27.4872  -26.8042   20.7245 C   0  0  0  0  0  0  0  0  0  0  0  0
  -20.4971  -27.4884   26.5216 C   0  0  0  0  0  0  0  0  0  0  0  0
  -28.1864  -23.3383   19.1684 C   0  0  0  0  0  0  0  0  0  0  0  0
  -27.5116  -13.5575   21.2165 C   0  0  0  0  0  0  0  0  0  0  0  0
  -24.4413  -12.7558   21.8894 C   0  0  0  0  0  0  0  0  0  0  0  0
  -21.1531  -13.6678   21.9389 C   0  0  0  0  0  0  0  0  0  0  0  0
  -26.8483  -21.2836   18.8720 C   0  0  0  0  0  0  0  0  0  0  0  0
  -27.1028  -29.0843   21.7246 C   0  0  0  0  0  0  0  0  0  0  0  0
  -31.0384  -10.0050   22.2162 C   0  0  0  0  0  0  0  0  0  0  0  0
  -26.7846  -15.5038   22.6445 C   0  0  0  0  0  0  0  0  0  0  0  0
  -24.7895  -14.8692   20.5561 C   0  0  0  0  0  0  0  0  0  0  0  0
  -29.5820   -9.9992   21.7590 C   0  0  0  0  0  0  0  0  0  0  0  0
  -26.1982  -31.3137   24.3492 C   0  0  0  0  0  0  0  0  0  0  0  0
  -29.3828  -10.9692   20.5987 C   0  0  0  0  0  0  0  0  0  0  0  0
  -24.8000  -30.8444   24.7577 C   0  0  0  0  0  0  0  0  0  0  0  0
  -26.4183  -31.1956   22.8421 C   0  0  0  0  0  0  0  0  0  0  0  0
  -24.7375  -29.4014   22.6839 C   0  0  0  0  0  0  0  0  0  0  0  0
  -29.7091  -12.4072   21.0196 C   0  0  1  0  0  0  0  0  0  0  0  0
  -26.5063  -14.0683   22.2095 C   0  0  1  0  0  0  0  0  0  0  0  0
  -24.4917  -29.4406   24.2010 C   0  0  2  0  0  0  0  0  0  0  0  0
  -18.8726  -12.7865   22.5047 C   0  0  0  0  0  0  0  0  0  0  0  0
  -24.3976  -21.5281   18.3869 C   0  0  0  0  0  0  0  0  0  0  0  0
  -24.4318  -11.1297   19.3076 C   0  0  0  0  0  0  0  0  0  0  0  0
  -21.9321  -11.0720   19.4352 C   0  0  0  0  0  0  0  0  0  0  0  0
  -23.2959  -10.0233   21.2415 C   0  0  0  0  0  0  0  0  0  0  0  0
  -20.7404  -15.7381   24.0131 C   0  0  0  0  0  0  0  0  0  0  0  0
  -23.1885  -12.5437   21.0742 C   0  0  1  0  0  0  0  0  0  0  0  0
  -20.0892  -13.5432   23.0146 C   0  0  2  0  0  0  0  0  0  0  0  0
  -25.4510  -20.7515   19.1609 C   0  0  1  0  0  0  0  0  0  1  0  0
  -23.2260  -11.2170   20.2644 C   0  0  0  0  0  0  0  0  0  0  0  0
  -22.0847  -29.2369   23.7045 N   0  0  0  0  0  0  0  0  0  0  0  0
  -28.7394  -26.8954   20.3350 N   0  0  0  0  0  0  0  0  0  0  0  0
  -23.0891  -28.9882   24.5620 N   0  0  0  0  0  0  0  0  0  0  0  0
  -25.1846  -13.9087   21.5997 N   0  0  0  0  0  0  0  0  0  0  0  0
  -26.1108  -29.8379   22.3869 N   0  0  0  0  0  0  0  0  0  0  0  0
  -30.3697  -25.5412   19.2697 N   0  0  0  0  0  0  0  0  0  0  0  0
  -23.5819  -28.0046   26.6597 N   0  0  0  0  0  0  0  0  0  0  0  0
  -19.1300  -27.3757   26.2340 N   0  0  0  0  0  0  0  0  0  0  0  0
  -26.7058  -27.7960   21.3677 N   0  0  0  0  0  0  0  0  0  0  0  0
  -27.0062  -22.6066   19.2889 N   0  0  0  0  0  0  0  0  0  0  0  0
  -28.6207  -12.9672   21.7918 N   0  0  0  0  0  0  0  0  0  0  0  0
  -22.0722  -12.6423   22.0082 N   0  0  0  0  0  0  0  0  0  0  0  0
  -19.6479  -14.8933   23.4656 N   0  3  0  0  0  0  0  0  0  0  0  0
  -20.9359  -27.0345   27.6055 O   0  0  0  0  0  0  0  0  0  0  0  0
  -29.2333  -22.9179   18.6835 O   0  0  0  0  0  0  0  0  0  0  0  0
  -27.2963  -13.6878   20.0172 O   0  0  0  0  0  0  0  0  0  0  0  0
  -24.7452  -11.9326   22.7564 O   0  0  0  0  0  0  0  0  0  0  0  0
  -21.1652  -14.5814   21.1167 O   0  0  0  0  0  0  0  0  0  0  0  0
  -27.7207  -20.5947   18.3482 O   0  0  0  0  0  0  0  0  0  0  0  0
  -28.2308  -29.5379   21.5154 O   0  0  0  0  0  0  0  0  0  0  0  0
  -15.9738  -28.9797   21.9328 O   0  0  0  0  0  0  0  0  0  0  0  0
  -25.3789  -19.3830   18.7628 O   0  0  0  0  0  0  0  0  0  1  0  0
  -12.8755  -24.4189   21.9940 F   0  0  0  0  0  0  0  0  0  0  0  0
  -15.1352  -27.8030   19.5759 F   0  0  0  0  0  0  0  0  0  0  0  0
  -26.7000  -25.3094   20.4232 S   0  0  0  0  0  0  0  0  0  0  0  0
  1  2  1  0  0  0  0
  1  5  2  0  0  0  0
  2  6  2  0  0  0  0
  3  8  2  0  0  0  0
  3 15  1  0  0  0  0
  4  9  1  0  0  0  0
  4 15  2  0  0  0  0
  5 17  1  0  0  0  0
  6 19  1  0  0  0  0
  7 10  2  0  0  0  0
  7 18  1  0  0  0  0
  8 21  1  0  0  0  0
  9 21  2  0  0  0  0
 10 22  1  0  0  0  0
 11 12  2  0  0  0  0
 11 23  1  0  0  0  0
 12 24  1  0  0  0  0
 13 20  1  0  0  0  0
 13 22  2  0  0  0  0
 14 24  2  0  0  0  0
 14 25  1  0  0  0  0
 15 26  1  0  0  0  0
 16 26  1  0  0  0  0
 16 29  2  0  0  0  0
 16 31  1  0  0  0  0
 17 19  2  0  0  0  0
 17 38  1  0  0  0  0
 18 20  2  0  0  0  0
 18 39  1  0  0  0  0
 19 47  1  0  0  0  0
 20 40  1  0  0  0  0
 21 80  1  0  0  0  0
 22 81  1  0  0  0  0
 23 25  2  0  0  0  0
 23 80  1  0  0  0  0
 24 82  1  0  0  0  0
 25 83  1  0  0  0  0
 26 60  2  0  0  0  0
 27 28  2  0  0  0  0
 27 32  1  0  0  0  0
 27 84  1  0  0  0  0
 28 61  1  0  0  0  0
 28 65  1  0  0  0  0
 29 62  1  0  0  0  0
 29 66  1  0  0  0  0
 30 61  2  0  0  0  0
 30 68  1  0  0  0  0
 30 84  1  0  0  0  0
 31 67  1  0  0  0  0
 31 73  2  0  0  0  0
 32 69  1  0  0  0  0
 32 74  2  0  0  0  0
 33 48  1  0  0  0  0
 33 70  1  0  0  0  0
 33 75  2  0  0  0  0
 34 56  1  0  0  0  0
 34 63  1  0  0  0  0
 34 76  2  0  0  0  0
 35 57  1  0  0  0  0
 35 71  1  0  0  0  0
 35 77  2  0  0  0  0
 36 58  1  0  0  0  0
 36 69  1  0  0  0  0
 36 78  2  0  0  0  0
 37 64  1  0  0  0  0
 37 68  1  0  0  0  0
 37 79  2  0  0  0  0
 38 41  1  0  0  0  0
 39 48  1  0  0  0  0
 40 63  1  0  0  0  0
 41 43  1  0  0  0  0
 42 44  1  0  0  0  0
 42 45  1  0  0  0  0
 43 47  1  0  0  0  0
 44 49  1  0  0  0  0
 45 64  1  0  0  0  0
 46 49  1  0  0  0  0
 46 64  1  0  0  0  0
 47 70  1  0  0  0  0
 48 63  1  0  0  0  0
 49 62  1  0  0  0  0
 50 57  1  0  0  0  0
 51 58  1  0  0  0  0
 52 59  1  0  0  0  0
 53 59  1  0  0  0  0
 54 59  1  0  0  0  0
 55 72  1  0  0  0  0
 56 59  1  0  0  0  0
 56 71  1  0  0  0  0
 57 72  1  0  0  0  0
 58 81  1  0  0  0  0
 60 62  1  0  0  0  0
M  CHG  1  72   1
M  ISO  4  37 100  58 101  68 100  81 101
M  END
> <Batch ID>
0182

> <Smiles>
CNC(C)C(=O)NC(C(=O)N1Cc2cc([101O:1][101CH:1](C)C(=O)NC(=O)c3sc([100NH:0][100C:0](=O)N4CCCC(n5nc(-c6ccc(Oc7ccc(F)cc7F)cc6)c(C(N)=O)c5N)C4)nc3N)ccc2CC1C(=O)NC1CCCc2ccccc21)C(C)(C)C

> <Shape>
0.224

> <Color>
0.077

> <Negative vol penalty>
0.000

$$$$

  -OEChem-04052304563D

 86 94  0     1  0  0  0  0  0999 V2000
  -23.7527   -8.5955   21.2997 C   0  0  0  0  0  0  0  0  0  0  0  0
  -24.8604   -9.3714   20.9732 C   0  0  0  0  0  0  0  0  0  0  0  0
  -21.1532  -28.1657   21.3979 C   0  0  0  0  0  0  0  0  0  0  0  0
  -22.7937  -26.9756   22.7130 C   0  0  0  0  0  0  0  0  0  0  0  0
  -22.4914   -9.1837   21.3839 C   0  0  0  0  0  0  0  0  0  0  0  0
  -24.7072  -10.7358   20.7297 C   0  0  0  0  0  0  0  0  0  0  0  0
  -28.6869  -15.1877   22.0889 C   0  0  0  0  0  0  0  0  0  0  0  0
  -20.1663  -27.2775   21.8251 C   0  0  0  0  0  0  0  0  0  0  0  0
  -21.8068  -26.0874   23.1403 C   0  0  0  0  0  0  0  0  0  0  0  0
  -29.6392  -15.8603   21.3242 C   0  0  0  0  0  0  0  0  0  0  0  0
  -19.6481  -23.7223   24.8622 C   0  0  0  0  0  0  0  0  0  0  0  0
  -19.6114  -23.3957   26.2177 C   0  0  0  0  0  0  0  0  0  0  0  0
  -28.0593  -17.6409   20.9339 C   0  0  0  0  0  0  0  0  0  0  0  0
  -30.6742  -23.3918   20.2046 C   0  0  0  0  0  0  0  0  0  0  0  0
  -19.2666  -25.7226   26.7689 C   0  0  0  0  0  0  0  0  0  0  0  0
  -22.4670  -28.0148   21.8417 C   0  0  0  0  0  0  0  0  0  0  0  0
  -23.8694  -30.1386   22.0158 C   0  0  0  0  0  0  0  0  0  0  0  0
  -22.3242  -10.5579   21.1507 C   0  0  0  0  0  0  0  0  0  0  0  0
  -27.4080  -15.7325   22.2731 C   0  0  0  0  0  0  0  0  0  0  0  0
  -23.4422  -11.3427   20.8095 C   0  0  0  0  0  0  0  0  0  0  0  0
  -27.0935  -16.9746   21.7034 C   0  0  0  0  0  0  0  0  0  0  0  0
  -30.7788  -24.8110   20.2754 C   0  0  0  0  0  0  0  0  0  0  0  0
  -20.4930  -26.2383   22.6964 C   0  0  0  0  0  0  0  0  0  0  0  0
  -29.3245  -17.0857   20.7442 C   0  0  0  0  0  0  0  0  0  0  0  0
  -19.4942  -25.0490   24.4600 C   0  0  0  0  0  0  0  0  0  0  0  0
  -19.4205  -24.3958   27.1711 C   0  0  0  0  0  0  0  0  0  0  0  0
  -19.3034  -26.0492   25.4133 C   0  0  0  0  0  0  0  0  0  0  0  0
  -23.4870  -28.9316   21.4002 C   0  0  0  0  0  0  0  0  0  0  0  0
  -30.5025  -25.4111   19.0667 C   0  0  0  0  0  0  0  0  0  0  0  0
  -24.8703  -30.6308   21.2143 C   0  0  0  0  0  0  0  0  0  0  0  0
  -30.3217  -22.9612   18.9443 C   0  0  0  0  0  0  0  0  0  0  0  0
  -23.3650  -30.7592   23.2058 C   0  0  0  0  0  0  0  0  0  0  0  0
  -29.9109  -19.2737   18.2209 C   0  0  0  0  0  0  0  0  0  0  0  0
  -29.9551  -18.0072   18.6890 C   0  0  0  0  0  0  0  0  0  1  0  0
  -30.2148  -20.4506   19.1199 C   0  0  0  0  0  0  0  0  0  0  0  0
  -24.4541  -14.8223   21.5317 C   0  0  0  0  0  0  0  0  0  0  0  0
  -23.6311  -17.4410   23.2600 C   0  0  0  0  0  0  0  0  0  0  0  0
  -24.5174  -20.5017   24.4821 C   0  0  0  0  0  0  0  0  0  0  0  0
  -28.7279  -28.0285   17.4463 C   0  0  0  0  0  0  0  0  0  0  0  0
  -20.9339  -11.1398   21.2069 C   0  0  0  0  0  0  0  0  0  0  0  0
  -26.4008  -15.0073   23.1228 C   0  0  0  0  0  0  0  0  0  0  0  0
  -25.7414  -17.6120   21.8878 C   0  0  0  0  0  0  0  0  0  0  0  0
  -20.9146  -12.6633   21.3015 C   0  0  0  0  0  0  0  0  0  0  0  0
  -26.3901  -30.6016   16.6778 C   0  0  0  0  0  0  0  0  0  0  0  0
  -21.8780  -13.2732   20.2882 C   0  0  0  0  0  0  0  0  0  0  0  0
  -25.4155  -30.5743   17.8565 C   0  0  0  0  0  0  0  0  0  0  0  0
  -26.8659  -29.1989   16.3063 C   0  0  0  0  0  0  0  0  0  0  0  0
  -26.4635  -28.3958   18.6012 C   0  0  0  0  0  0  0  0  0  0  0  0
  -23.3203  -12.8307   20.5625 C   0  0  1  0  0  0  0  0  0  0  0  0
  -24.9613  -15.4101   22.8181 C   0  0  1  0  0  0  0  0  0  0  0  0
  -25.9991  -29.7924   19.0486 C   0  0  2  0  0  0  0  0  0  0  0  0
  -31.1431  -25.5444   21.5110 C   0  0  0  0  0  0  0  0  0  0  0  0
  -30.9254  -16.2330   17.2020 C   0  0  0  0  0  0  0  0  0  0  0  0
  -23.6206  -22.4205   25.8279 C   0  0  0  0  0  0  0  0  0  0  0  0
  -21.9938  -18.3596   20.8547 C   0  0  0  0  0  0  0  0  0  0  0  0
  -21.9169  -20.6474   21.8687 C   0  0  0  0  0  0  0  0  0  0  0  0
  -20.8869  -18.7181   23.0684 C   0  0  0  0  0  0  0  0  0  0  0  0
  -26.5934  -20.1630   26.5641 C   0  0  0  0  0  0  0  0  0  0  0  0
  -30.5008  -26.8512   18.7230 C   0  0  0  0  0  0  0  0  0  0  0  0
  -29.6667  -16.7746   17.8627 C   0  0  0  0  0  0  0  0  0  0  0  0
  -23.4056  -18.9007   22.9475 C   0  0  1  0  0  0  0  0  0  0  0  0
  -24.3891  -21.1088   25.8675 C   0  0  2  0  0  0  0  0  0  0  0  0
  -22.0757  -19.1438   22.1796 C   0  0  0  0  0  0  0  0  0  0  0  0
  -24.1878  -28.6730   20.2930 N   0  0  0  0  0  0  0  0  0  0  0  0
  -25.0205  -29.7243   20.2064 N   0  0  0  0  0  0  0  0  0  0  0  0
  -24.7886  -16.8610   22.7219 N   0  0  0  0  0  0  0  0  0  0  0  0
  -27.4095  -28.5119   17.4803 N   0  0  0  0  0  0  0  0  0  0  0  0
  -25.6276  -31.7463   21.2803 N   0  0  0  0  0  0  0  0  0  0  0  0
  -22.3356  -30.1184   23.9087 N   0  0  0  0  0  0  0  0  0  0  0  0
  -30.1112  -21.6565   18.4364 N   0  0  0  0  0  0  0  0  0  0  0  0
  -23.8750  -13.5756   21.6725 N   0  0  0  0  0  0  0  0  0  0  0  0
  -23.4995  -19.6096   24.2191 N   0  0  0  0  0  0  0  0  0  0  0  0
  -29.1666  -27.3957   18.6029 N   0  0  0  0  0  0  0  0  0  0  0  0
  -25.7376  -21.3715   26.4449 N   0  3  0  0  0  0  0  0  0  0  0  0
  -23.8026  -31.8578   23.6242 O   0  0  0  0  0  0  0  0  0  0  0  0
  -30.5084  -20.3027   20.3006 O   0  0  0  0  0  0  0  0  0  0  0  0
  -24.5775  -15.4538   20.4887 O   0  0  0  0  0  0  0  0  0  0  0  0
  -22.8141  -16.8396   23.9617 O   0  0  0  0  0  0  0  0  0  0  0  0
  -25.4274  -20.7928   23.7090 O   0  0  0  0  0  0  0  0  0  0  0  0
  -29.4615  -28.1565   16.4602 O   0  0  0  0  0  0  0  0  0  0  0  0
  -29.6051  -19.5835   16.9070 O   0  0  0  0  0  0  0  0  0  0  0  0
  -19.5302  -25.3715   23.1137 O   0  0  0  0  0  0  0  0  0  0  0  0
  -30.2519  -17.7439   19.9968 O   0  0  0  0  0  0  0  0  0  1  0  0
  -19.3837  -24.0819   28.4728 F   0  0  0  0  0  0  0  0  0  0  0  0
  -19.1537  -27.3254   25.0329 F   0  0  0  0  0  0  0  0  0  0  0  0
  -30.1188  -24.2653   17.8533 S   0  0  0  0  0  0  0  0  0  0  0  0
  1  2  1  0  0  0  0
  1  5  2  0  0  0  0
  2  6  2  0  0  0  0
  3  8  2  0  0  0  0
  3 16  1  0  0  0  0
  4  9  1  0  0  0  0
  4 16  2  0  0  0  0
  5 18  1  0  0  0  0
  6 20  1  0  0  0  0
  7 10  2  0  0  0  0
  7 19  1  0  0  0  0
  8 23  1  0  0  0  0
  9 23  2  0  0  0  0
 10 24  1  0  0  0  0
 11 12  2  0  0  0  0
 11 25  1  0  0  0  0
 12 26  1  0  0  0  0
 13 21  1  0  0  0  0
 13 24  2  0  0  0  0
 14 22  1  0  0  0  0
 14 31  2  0  0  0  0
 15 26  2  0  0  0  0
 15 27  1  0  0  0  0
 16 28  1  0  0  0  0
 17 28  1  0  0  0  0
 17 30  2  0  0  0  0
 17 32  1  0  0  0  0
 18 20  2  0  0  0  0
 18 40  1  0  0  0  0
 19 21  2  0  0  0  0
 19 41  1  0  0  0  0
 20 49  1  0  0  0  0
 21 42  1  0  0  0  0
 22 29  2  0  0  0  0
 22 52  1  0  0  0  0
 23 82  1  0  0  0  0
 24 83  1  0  0  0  0
 25 27  2  0  0  0  0
 25 82  1  0  0  0  0
 26 84  1  0  0  0  0
 27 85  1  0  0  0  0
 28 64  2  0  0  0  0
 29 59  1  0  0  0  0
 29 86  1  0  0  0  0
 30 65  1  0  0  0  0
 30 68  1  0  0  0  0
 31 70  1  0  0  0  0
 31 86  1  0  0  0  0
 32 69  1  0  0  0  0
 32 75  2  0  0  0  0
 33 34  2  0  0  0  0
 33 35  1  0  0  0  0
 33 81  1  0  0  0  0
 34 60  1  0  0  0  0
 34 83  1  0  0  0  0
 35 70  1  0  0  0  0
 35 76  2  0  0  0  0
 36 50  1  0  0  0  0
 36 71  1  0  0  0  0
 36 77  2  0  0  0  0
 37 61  1  0  0  0  0
 37 66  1  0  0  0  0
 37 78  2  0  0  0  0
 38 62  1  0  0  0  0
 38 72  1  0  0  0  0
 38 79  2  0  0  0  0
 39 67  1  0  0  0  0
 39 73  1  0  0  0  0
 39 80  2  0  0  0  0
 40 43  1  0  0  0  0
 41 50  1  0  0  0  0
 42 66  1  0  0  0  0
 43 45  1  0  0  0  0
 44 46  1  0  0  0  0
 44 47  1  0  0  0  0
 45 49  1  0  0  0  0
 46 51  1  0  0  0  0
 47 67  1  0  0  0  0
 48 51  1  0  0  0  0
 48 67  1  0  0  0  0
 49 71  1  0  0  0  0
 50 66  1  0  0  0  0
 51 65  1  0  0  0  0
 53 60  1  0  0  0  0
 54 62  1  0  0  0  0
 55 63  1  0  0  0  0
 56 63  1  0  0  0  0
 57 63  1  0  0  0  0
 58 74  1  0  0  0  0
 59 73  1  0  0  0  0
 61 63  1  0  0  0  0
 61 72  1  0  0  0  0
 62 74  1  0  0  0  0
 64 65  1  0  0  0  0
M  CHG  1  74   1
M  ISO  4  34 101  39 100  73 100  83 101
M  END
> <Batch ID>
0182

> <Smiles>
CC[101CH:1](C(=O)C(=O)Nc1cc(C)c(C[100NH:0][100C:0](=O)N2CCCC(n3nc(-c4ccc(Oc5ccc(F)cc5F)cc4)c(C(N)=O)c3N)C2)s1)[101O:1]c1ccc2c(c1)CN(C(=O)C(NC(=O)C(C)NC)C(C)(C)C)C(C(=O)NC1CCCc3ccccc31)C2

> <Shape>
0.219

> <Color>
0.068

> <Negative vol penalty>
0.000

$$$$

  -OEChem-04052304563D

 83 91  0     1  0  0  0  0  0999 V2000
  -27.5746  -33.1679   23.5963 C   0  0  0  0  0  0  0  0  0  0  0  0
  -28.3514  -32.0910   24.0115 C   0  0  0  0  0  0  0  0  0  0  0  0
  -23.0922   -9.7410   20.0216 C   0  0  0  0  0  0  0  0  0  0  0  0
  -23.7502   -9.9429   22.3375 C   0  0  0  0  0  0  0  0  0  0  0  0
  -26.8763  -33.0988   22.3916 C   0  0  0  0  0  0  0  0  0  0  0  0
  -28.4293  -30.9438   23.2227 C   0  0  0  0  0  0  0  0  0  0  0  0
  -33.2906  -27.2875   22.5125 C   0  0  0  0  0  0  0  0  0  0  0  0
  -22.3642   -8.5914   20.3286 C   0  0  0  0  0  0  0  0  0  0  0  0
  -23.0222   -8.7933   22.6446 C   0  0  0  0  0  0  0  0  0  0  0  0
  -33.6446  -26.0732   23.0990 C   0  0  0  0  0  0  0  0  0  0  0  0
  -23.4122   -5.4471   22.3590 C   0  0  0  0  0  0  0  0  0  0  0  0
  -24.0185   -4.4959   23.1795 C   0  0  0  0  0  0  0  0  0  0  0  0
  -32.7118  -24.8963   21.2111 C   0  0  0  0  0  0  0  0  0  0  0  0
  -22.2402   -4.7554   24.7943 C   0  0  0  0  0  0  0  0  0  0  0  0
  -30.3755  -19.3667   22.6710 C   0  0  0  0  0  0  0  0  0  0  0  0
  -23.7852  -10.4167   21.0261 C   0  0  0  0  0  0  0  0  0  0  0  0
  -24.0749  -12.9333   20.7253 C   0  0  0  0  0  0  0  0  0  0  0  0
  -26.9533  -31.9539   21.5829 C   0  0  0  0  0  0  0  0  0  0  0  0
  -32.6337  -27.3149   21.2739 C   0  0  0  0  0  0  0  0  0  0  0  0
  -27.7302  -30.8588   22.0066 C   0  0  0  0  0  0  0  0  0  0  0  0
  -32.3528  -26.1123   20.6099 C   0  0  0  0  0  0  0  0  0  0  0  0
  -22.3292   -8.1176   21.6401 C   0  0  0  0  0  0  0  0  0  0  0  0
  -33.3527  -24.8773   22.4497 C   0  0  0  0  0  0  0  0  0  0  0  0
  -22.2199   -6.0525   22.7562 C   0  0  0  0  0  0  0  0  0  0  0  0
  -23.4325   -4.1501   24.3972 C   0  0  0  0  0  0  0  0  0  0  0  0
  -21.6339   -5.7066   23.9738 C   0  0  0  0  0  0  0  0  0  0  0  0
  -24.5378  -11.6039   20.7095 C   0  0  0  0  0  0  0  0  0  0  0  0
  -31.5165  -18.9724   22.0042 C   0  0  0  0  0  0  0  0  0  0  0  0
  -25.1648  -13.6808   20.3513 C   0  0  0  0  0  0  0  0  0  0  0  0
  -30.3346  -17.1432   21.7454 C   0  0  0  0  0  0  0  0  0  0  0  0
  -22.7759  -13.4465   21.0491 C   0  0  0  0  0  0  0  0  0  0  0  0
  -34.1890  -21.6290   21.9670 C   0  0  0  0  0  0  0  0  0  0  0  0
  -34.5502  -22.8713   22.3363 C   0  0  0  0  0  0  0  0  0  1  0  0
  -32.8362  -21.0877   22.3283 C   0  0  0  0  0  0  0  0  0  0  0  0
  -29.8068  -28.3531   20.2567 C   0  0  0  0  0  0  0  0  0  0  0  0
  -31.0075  -27.5799   17.3442 C   0  0  0  0  0  0  0  0  0  0  0  0
  -33.2135  -25.7215   15.5202 C   0  0  0  0  0  0  0  0  0  0  0  0
  -30.5931  -14.8777   20.6745 C   0  0  0  0  0  0  0  0  0  0  0  0
  -26.1430  -31.9071   20.3118 C   0  0  0  0  0  0  0  0  0  0  0  0
  -32.2824  -28.6340   20.6421 C   0  0  0  0  0  0  0  0  0  0  0  0
  -31.6672  -26.0882   19.2690 C   0  0  0  0  0  0  0  0  0  0  0  0
  -26.5771  -30.8015   19.3530 C   0  0  0  0  0  0  0  0  0  0  0  0
  -29.6385  -12.2620   18.4554 C   0  0  0  0  0  0  0  0  0  0  0  0
  -26.7614  -29.4862   20.1032 C   0  0  0  0  0  0  0  0  0  0  0  0
  -28.1883  -11.9670   18.8453 C   0  0  0  0  0  0  0  0  0  0  0  0
  -30.4946  -12.6055   19.6732 C   0  0  0  0  0  0  0  0  0  0  0  0
  -28.5129  -13.3838   20.9127 C   0  0  0  0  0  0  0  0  0  0  0  0
  -27.8596  -29.6067   21.1666 C   0  0  1  0  0  0  0  0  0  0  0  0
  -31.1563  -28.5252   19.6187 C   0  0  1  0  0  0  0  0  0  0  0  0
  -27.5969  -13.0960   19.7120 C   0  0  2  0  0  0  0  0  0  0  0  0
  -35.8866  -23.4804   22.0264 C   0  0  0  0  0  0  0  0  0  0  0  0
  -33.9347  -25.2788   13.1578 C   0  0  0  0  0  0  0  0  0  0  0  0
  -28.5031  -25.8948   16.8980 C   0  0  0  0  0  0  0  0  0  0  0  0
  -29.6886  -24.7592   15.0077 C   0  0  0  0  0  0  0  0  0  0  0  0
  -29.2434  -27.2115   14.9048 C   0  0  0  0  0  0  0  0  0  0  0  0
  -35.9682  -26.6575   16.0630 C   0  0  0  0  0  0  0  0  0  0  0  0
  -31.0129  -26.3383   16.4854 C   0  0  1  0  0  0  0  0  0  0  0  0
  -34.1776  -26.1041   14.4118 C   0  0  2  0  0  0  0  0  0  0  0  0
  -29.6232  -26.0510   15.8501 C   0  0  0  0  0  0  0  0  0  0  0  0
  -25.8217  -11.5091   20.3535 N   0  0  0  0  0  0  0  0  0  0  0  0
  -31.4950  -17.6976   21.4731 N   0  0  0  0  0  0  0  0  0  0  0  0
  -26.1748  -12.7884   20.1421 N   0  0  0  0  0  0  0  0  0  0  0  0
  -31.3382  -27.4035   18.6952 N   0  0  0  0  0  0  0  0  0  0  0  0
  -29.8745  -13.6855   20.4438 N   0  0  0  0  0  0  0  0  0  0  0  0
  -25.3481  -15.0078   20.1843 N   0  0  0  0  0  0  0  0  0  0  0  0
  -21.7709  -12.5399   21.4129 N   0  0  0  0  0  0  0  0  0  0  0  0
  -32.6606  -19.7939   21.8560 N   0  0  0  0  0  0  0  0  0  0  0  0
  -29.8897  -15.8455   21.3909 N   0  0  0  0  0  0  0  0  0  0  0  0
  -29.1680  -29.5425   20.5514 N   0  0  0  0  0  0  0  0  0  0  0  0
  -32.0878  -26.5177   15.5153 N   0  0  0  0  0  0  0  0  0  0  0  0
  -35.5849  -25.8874   14.8517 N   0  3  0  0  0  0  0  0  0  0  0  0
  -22.5097  -14.6714   21.0009 O   0  0  0  0  0  0  0  0  0  0  0  0
  -32.0369  -21.7669   22.9629 O   0  0  0  0  0  0  0  0  0  0  0  0
  -29.3763  -27.2248   20.4648 O   0  0  0  0  0  0  0  0  0  0  0  0
  -30.7273  -28.6672   16.8335 O   0  0  0  0  0  0  0  0  0  0  0  0
  -33.4350  -24.8054   16.3090 O   0  0  0  0  0  0  0  0  0  0  0  0
  -31.7375  -15.0393   20.2432 O   0  0  0  0  0  0  0  0  0  0  0  0
  -35.0502  -20.8143   21.2562 O   0  0  0  0  0  0  0  0  0  0  0  0
  -21.6188   -6.9961   21.9401 O   0  0  0  0  0  0  0  0  0  0  0  0
  -33.6965  -23.6906   23.0202 O   0  0  0  0  0  0  0  0  0  1  0  0
  -24.0140   -3.2355   25.1843 F   0  0  0  0  0  0  0  0  0  0  0  0
  -20.4879   -6.2839   24.3602 F   0  0  0  0  0  0  0  0  0  0  0  0
  -29.2215  -18.0984   22.6363 S   0  0  0  0  0  0  0  0  0  0  0  0
  1  2  1  0  0  0  0
  1  5  2  0  0  0  0
  2  6  2  0  0  0  0
  3  8  2  0  0  0  0
  3 16  1  0  0  0  0
  4  9  1  0  0  0  0
  4 16  2  0  0  0  0
  5 18  1  0  0  0  0
  6 20  1  0  0  0  0
  7 10  2  0  0  0  0
  7 19  1  0  0  0  0
  8 22  1  0  0  0  0
  9 22  2  0  0  0  0
 10 23  1  0  0  0  0
 11 12  2  0  0  0  0
 11 24  1  0  0  0  0
 12 25  1  0  0  0  0
 13 21  1  0  0  0  0
 13 23  2  0  0  0  0
 14 25  2  0  0  0  0
 14 26  1  0  0  0  0
 15 28  2  0  0  0  0
 15 83  1  0  0  0  0
 16 27  1  0  0  0  0
 17 27  1  0  0  0  0
 17 29  2  0  0  0  0
 17 31  1  0  0  0  0
 18 20  2  0  0  0  0
 18 39  1  0  0  0  0
 19 21  2  0  0  0  0
 19 40  1  0  0  0  0
 20 48  1  0  0  0  0
 21 41  1  0  0  0  0
 22 79  1  0  0  0  0
 23 80  1  0  0  0  0
 24 26  2  0  0  0  0
 24 79  1  0  0  0  0
 25 81  1  0  0  0  0
 26 82  1  0  0  0  0
 27 60  2  0  0  0  0
 28 61  1  0  0  0  0
 28 67  1  0  0  0  0
 29 62  1  0  0  0  0
 29 65  1  0  0  0  0
 30 61  2  0  0  0  0
 30 68  1  0  0  0  0
 30 83  1  0  0  0  0
 31 66  1  0  0  0  0
 31 72  2  0  0  0  0
 32 33  2  0  0  0  0
 32 34  1  0  0  0  0
 32 78  1  0  0  0  0
 33 51  1  0  0  0  0
 33 80  1  0  0  0  0
 34 67  1  0  0  0  0
 34 73  2  0  0  0  0
 35 49  1  0  0  0  0
 35 69  1  0  0  0  0
 35 74  2  0  0  0  0
 36 57  1  0  0  0  0
 36 63  1  0  0  0  0
 36 75  2  0  0  0  0
 37 58  1  0  0  0  0
 37 70  1  0  0  0  0
 37 76  2  0  0  0  0
 38 64  1  0  0  0  0
 38 68  1  0  0  0  0
 38 77  2  0  0  0  0
 39 42  1  0  0  0  0
 40 49  1  0  0  0  0
 41 63  1  0  0  0  0
 42 44  1  0  0  0  0
 43 45  1  0  0  0  0
 43 46  1  0  0  0  0
 44 48  1  0  0  0  0
 45 50  1  0  0  0  0
 46 64  1  0  0  0  0
 47 50  1  0  0  0  0
 47 64  1  0  0  0  0
 48 69  1  0  0  0  0
 49 63  1  0  0  0  0
 50 62  1  0  0  0  0
 52 58  1  0  0  0  0
 53 59  1  0  0  0  0
 54 59  1  0  0  0  0
 55 59  1  0  0  0  0
 56 71  1  0  0  0  0
 57 59  1  0  0  0  0
 57 70  1  0  0  0  0
 58 71  1  0  0  0  0
 60 62  1  0  0  0  0
M  CHG  1  71   1
M  ISO  4  33 101  38 100  68 100  80 101
M  END
> <Batch ID>
0182

> <Smiles>
CNC(C)C(=O)NC(C(=O)N1Cc2cc([101O:1][101CH:1](C)C(=O)C(=O)Nc3csc([100NH:0][100C:0](=O)N4CCCC(n5nc(-c6ccc(Oc7ccc(F)cc7F)cc6)c(C(N)=O)c5N)C4)n3)ccc2CC1C(=O)NC1CCCc2ccccc21)C(C)(C)C

> <Shape>
0.255

> <Color>
0.189

> <Negative vol penalty>
0.000

$$$$

  -OEChem-04052304563D

 85 93  0     1  0  0  0  0  0999 V2000
  -32.7116  -35.2315   16.6353 C   0  0  0  0  0  0  0  0  0  0  0  0
  -32.1841  -33.9445   16.6063 C   0  0  0  0  0  0  0  0  0  0  0  0
  -23.1577   -9.7073   20.2621 C   0  0  0  0  0  0  0  0  0  0  0  0
  -23.7459  -10.1553   22.5622 C   0  0  0  0  0  0  0  0  0  0  0  0
  -32.7812  -35.9281   17.8411 C   0  0  0  0  0  0  0  0  0  0  0  0
  -31.7268  -33.3530   17.7833 C   0  0  0  0  0  0  0  0  0  0  0  0
  -26.9898  -29.5170   18.3764 C   0  0  0  0  0  0  0  0  0  0  0  0
  -22.4320   -8.5867   20.6659 C   0  0  0  0  0  0  0  0  0  0  0  0
  -23.0201   -9.0346   22.9660 C   0  0  0  0  0  0  0  0  0  0  0  0
  -26.9130  -28.1276   18.4621 C   0  0  0  0  0  0  0  0  0  0  0  0
  -23.4498   -5.6819   23.0395 C   0  0  0  0  0  0  0  0  0  0  0  0
  -24.0409   -4.8281   23.9707 C   0  0  0  0  0  0  0  0  0  0  0  0
  -26.8523  -28.2854   20.8685 C   0  0  0  0  0  0  0  0  0  0  0  0
  -22.2139   -5.2307   25.4995 C   0  0  0  0  0  0  0  0  0  0  0  0
  -23.8147  -10.4916   21.2103 C   0  0  0  0  0  0  0  0  0  0  0  0
  -24.0894  -12.9671   20.6588 C   0  0  0  0  0  0  0  0  0  0  0  0
  -32.3157  -35.3484   19.0318 C   0  0  0  0  0  0  0  0  0  0  0  0
  -27.0094  -30.3018   19.5384 C   0  0  0  0  0  0  0  0  0  0  0  0
  -31.7915  -34.0419   19.0063 C   0  0  0  0  0  0  0  0  0  0  0  0
  -26.9268  -29.6848   20.7948 C   0  0  0  0  0  0  0  0  0  0  0  0
  -22.3632   -8.2503   22.0179 C   0  0  0  0  0  0  0  0  0  0  0  0
  -26.8471  -27.5114   19.7084 C   0  0  0  0  0  0  0  0  0  0  0  0
  -22.2408   -6.3102   23.3382 C   0  0  0  0  0  0  0  0  0  0  0  0
  -23.4229   -4.6025   25.2007 C   0  0  0  0  0  0  0  0  0  0  0  0
  -21.6229   -6.0846   24.5682 C   0  0  0  0  0  0  0  0  0  0  0  0
  -24.5650  -11.6490   20.7937 C   0  0  0  0  0  0  0  0  0  0  0  0
  -31.4346  -19.1967   21.5169 C   0  0  0  0  0  0  0  0  0  0  0  0
  -25.1826  -13.6855   20.2402 C   0  0  0  0  0  0  0  0  0  0  0  0
  -30.2719  -19.6431   22.1093 C   0  0  0  0  0  0  0  0  0  0  0  0
  -30.2766  -17.3371   21.4129 C   0  0  0  0  0  0  0  0  0  0  0  0
  -22.7767  -13.4949   20.8912 C   0  0  0  0  0  0  0  0  0  0  0  0
  -29.0847  -32.3247   20.8441 C   0  0  0  0  0  0  0  0  0  0  0  0
  -27.8351  -24.1461   20.6341 C   0  0  0  0  0  0  0  0  0  0  0  0
  -26.6686  -32.8356   22.9474 C   0  0  0  0  0  0  0  0  0  0  0  0
  -23.8287  -31.6682   24.4370 C   0  0  0  0  0  0  0  0  0  0  0  0
  -30.5876  -14.9765   20.5899 C   0  0  0  0  0  0  0  0  0  0  0  0
  -32.4552  -36.1223   20.3188 C   0  0  0  0  0  0  0  0  0  0  0  0
  -27.0656  -31.8009   19.4282 C   0  0  0  0  0  0  0  0  0  0  0  0
  -26.9240  -30.4833   22.0718 C   0  0  0  0  0  0  0  0  0  0  0  0
  -31.6044  -35.5674   21.4584 C   0  0  0  0  0  0  0  0  0  0  0  0
  -29.7230  -12.1342   18.6276 C   0  0  0  0  0  0  0  0  0  0  0  0
  -31.7510  -34.0515   21.5448 C   0  0  0  0  0  0  0  0  0  0  0  0
  -28.2649  -11.8630   19.0051 C   0  0  0  0  0  0  0  0  0  0  0  0
  -30.5398  -12.6121   19.8268 C   0  0  0  0  0  0  0  0  0  0  0  0
  -28.5156  -13.4896   20.9231 C   0  0  0  0  0  0  0  0  0  0  0  0
  -31.2624  -33.3758   20.2579 C   0  0  1  0  0  0  0  0  0  0  0  0
  -27.5974  -32.4732   20.6901 C   0  0  1  0  0  0  0  0  0  0  0  0
  -27.6378  -13.0680   19.7333 C   0  0  2  0  0  0  0  0  0  0  0  0
  -32.6496  -20.0020   21.2819 C   0  0  0  0  0  0  0  0  0  0  0  0
  -22.0982  -32.2956   26.1426 C   0  0  0  0  0  0  0  0  0  0  0  0
  -28.6513  -32.2178   25.1828 C   0  0  0  0  0  0  0  0  0  0  0  0
  -26.7065  -31.9242   26.7319 C   0  0  0  0  0  0  0  0  0  0  0  0
  -27.1153  -34.1350   25.6511 C   0  0  0  0  0  0  0  0  0  0  0  0
  -21.6491  -31.5523   22.4383 C   0  0  0  0  0  0  0  0  0  0  0  0
  -28.4566  -23.3872   21.7969 C   0  0  0  0  0  0  0  0  0  0  0  0
  -27.3461  -25.5459   20.9509 C   0  0  0  0  0  0  0  0  0  1  0  0
  -28.9946  -22.0182   21.4158 C   0  0  0  0  0  0  0  0  0  0  0  0
  -26.2415  -32.2161   24.2561 C   0  0  1  0  0  0  0  0  0  0  0  0
  -22.4746  -32.3139   24.6693 C   0  0  2  0  0  0  0  0  0  0  0  0
  -27.1806  -32.6078   25.4317 C   0  0  0  0  0  0  0  0  0  0  0  0
  -25.8596  -11.5339   20.4856 N   0  0  0  0  0  0  0  0  0  0  0  0
  -31.4393  -17.8746   21.1173 N   0  0  0  0  0  0  0  0  0  0  0  0
  -26.2067  -12.7889   20.1529 N   0  0  0  0  0  0  0  0  0  0  0  0
  -26.9868  -31.9455   21.9119 N   0  0  0  0  0  0  0  0  0  0  0  0
  -29.8873  -13.7581   20.4638 N   0  0  0  0  0  0  0  0  0  0  0  0
  -25.3582  -14.9903   19.9419 N   0  0  0  0  0  0  0  0  0  0  0  0
  -21.7701  -12.6183   21.3186 N   0  0  0  0  0  0  0  0  0  0  0  0
  -29.8545  -16.0043   21.1823 N   0  0  0  0  0  0  0  0  0  0  0  0
  -29.8163  -33.3243   20.2317 N   0  0  0  0  0  0  0  0  0  0  0  0
  -24.8472  -32.5976   24.4525 N   0  0  0  0  0  0  0  0  0  0  0  0
  -21.4184  -31.5916   23.9053 N   0  3  0  0  0  0  0  0  0  0  0  0
  -22.5005  -14.7049   20.7090 O   0  0  0  0  0  0  0  0  0  0  0  0
  -29.5350  -31.3744   21.4732 O   0  0  0  0  0  0  0  0  0  0  0  0
  -27.7534  -23.6735   19.5015 O   0  0  0  0  0  0  0  0  0  0  0  0
  -26.7112  -34.0642   22.8453 O   0  0  0  0  0  0  0  0  0  0  0  0
  -23.9694  -30.4597   24.2632 O   0  0  0  0  0  0  0  0  0  0  0  0
  -31.7426  -15.1070   20.1765 O   0  0  0  0  0  0  0  0  0  0  0  0
  -28.6930  -20.8780   23.7575 O   0  0  0  0  0  0  0  0  0  0  0  0
  -30.9065  -21.9359   23.1855 O   0  0  0  0  0  0  0  0  0  0  0  0
  -21.6549   -7.1570   22.4123 O   0  0  0  0  0  0  0  0  0  0  0  0
  -26.7728  -26.1554   19.7949 O   0  0  0  0  0  0  0  0  0  1  0  0
  -23.9898   -3.7813   26.0943 F   0  0  0  0  0  0  0  0  0  0  0  0
  -20.4607   -6.6845   24.8604 F   0  0  0  0  0  0  0  0  0  0  0  0
  -29.1306  -18.3644   22.1721 S   0  0  0  0  0  0  0  0  0  0  0  0
  -29.7299  -21.1831   22.7875 S   0  0  0  0  0  0  0  0  0  0  0  0
  1  2  1  0  0  0  0
  1  5  2  0  0  0  0
  2  6  2  0  0  0  0
  3  8  2  0  0  0  0
  3 15  1  0  0  0  0
  4  9  1  0  0  0  0
  4 15  2  0  0  0  0
  5 17  1  0  0  0  0
  6 19  1  0  0  0  0
  7 10  2  0  0  0  0
  7 18  1  0  0  0  0
  8 21  1  0  0  0  0
  9 21  2  0  0  0  0
 10 22  1  0  0  0  0
 11 12  2  0  0  0  0
 11 23  1  0  0  0  0
 12 24  1  0  0  0  0
 13 20  1  0  0  0  0
 13 22  2  0  0  0  0
 14 24  2  0  0  0  0
 14 25  1  0  0  0  0
 15 26  1  0  0  0  0
 16 26  1  0  0  0  0
 16 28  2  0  0  0  0
 16 31  1  0  0  0  0
 17 19  2  0  0  0  0
 17 37  1  0  0  0  0
 18 20  2  0  0  0  0
 18 38  1  0  0  0  0
 19 46  1  0  0  0  0
 20 39  1  0  0  0  0
 21 80  1  0  0  0  0
 22 81  1  0  0  0  0
 23 25  2  0  0  0  0
 23 80  1  0  0  0  0
 24 82  1  0  0  0  0
 25 83  1  0  0  0  0
 26 61  2  0  0  0  0
 27 29  2  0  0  0  0
 27 49  1  0  0  0  0
 27 62  1  0  0  0  0
 28 63  1  0  0  0  0
 28 66  1  0  0  0  0
 29 84  1  0  0  0  0
 29 85  1  0  0  0  0
 30 62  2  0  0  0  0
 30 68  1  0  0  0  0
 30 84  1  0  0  0  0
 31 67  1  0  0  0  0
 31 72  2  0  0  0  0
 32 47  1  0  0  0  0
 32 69  1  0  0  0  0
 32 73  2  0  0  0  0
 33 55  1  0  0  0  0
 33 56  1  0  0  0  0
 33 74  2  0  0  0  0
 34 58  1  0  0  0  0
 34 64  1  0  0  0  0
 34 75  2  0  0  0  0
 35 59  1  0  0  0  0
 35 70  1  0  0  0  0
 35 76  2  0  0  0  0
 36 65  1  0  0  0  0
 36 68  1  0  0  0  0
 36 77  2  0  0  0  0
 37 40  1  0  0  0  0
 38 47  1  0  0  0  0
 39 64  1  0  0  0  0
 40 42  1  0  0  0  0
 41 43  1  0  0  0  0
 41 44  1  0  0  0  0
 42 46  1  0  0  0  0
 43 48  1  0  0  0  0
 44 65  1  0  0  0  0
 45 48  1  0  0  0  0
 45 65  1  0  0  0  0
 46 69  1  0  0  0  0
 47 64  1  0  0  0  0
 48 63  1  0  0  0  0
 50 59  1  0  0  0  0
 51 60  1  0  0  0  0
 52 60  1  0  0  0  0
 53 60  1  0  0  0  0
 54 71  1  0  0  0  0
 55 57  1  0  0  0  0
 56 81  1  0  0  0  0
 57 85  1  0  0  0  0
 58 60  1  0  0  0  0
 58 70  1  0  0  0  0
 59 71  1  0  0  0  0
 61 63  1  0  0  0  0
 78 85  2  0  0  0  0
 79 85  2  0  0  0  0
M  CHG  1  71   1
M  ISO  4  36 100  56 101  68 100  81 101
M  END
> <Batch ID>
0182

> <Smiles>
CNC(C)C(=O)NC(C(=O)N1Cc2cc([101O:1][101CH2:1]C(=O)CCS(=O)(=O)c3sc([100NH:0][100C:0](=O)N4CCCC(n5nc(-c6ccc(Oc7ccc(F)cc7F)cc6)c(C(N)=O)c5N)C4)nc3C)ccc2CC1C(=O)NC1CCCc2ccccc21)C(C)(C)C

> <Shape>
0.296

> <Color>
0.189

> <Negative vol penalty>
0.000

$$$$

  -OEChem-04052304563D

 86 94  0     1  0  0  0  0  0999 V2000
  -23.1388   -7.7429   22.4493 C   0  0  0  0  0  0  0  0  0  0  0  0
  -24.0624   -8.6621   21.9622 C   0  0  0  0  0  0  0  0  0  0  0  0
  -24.8638  -31.3832   21.0826 C   0  0  0  0  0  0  0  0  0  0  0  0
  -25.0435  -30.1824   23.1713 C   0  0  0  0  0  0  0  0  0  0  0  0
  -21.7787   -8.0492   22.4362 C   0  0  0  0  0  0  0  0  0  0  0  0
  -23.6262   -9.8879   21.4606 C   0  0  0  0  0  0  0  0  0  0  0  0
  -26.4301  -13.7698   23.1081 C   0  0  0  0  0  0  0  0  0  0  0  0
  -24.2953  -32.4657   21.7539 C   0  0  0  0  0  0  0  0  0  0  0  0
  -24.4750  -31.2649   23.8426 C   0  0  0  0  0  0  0  0  0  0  0  0
  -27.6668  -13.9672   22.4953 C   0  0  0  0  0  0  0  0  0  0  0  0
  -23.1284  -35.6866   22.9702 C   0  0  0  0  0  0  0  0  0  0  0  0
  -23.5928  -36.9630   22.6527 C   0  0  0  0  0  0  0  0  0  0  0  0
  -27.6682  -20.0784   19.4802 C   0  0  0  0  0  0  0  0  0  0  0  0
  -28.8494  -19.3128   19.7005 C   0  0  0  0  0  0  0  0  0  0  0  0
  -26.7083  -15.7162   21.1382 C   0  0  0  0  0  0  0  0  0  0  0  0
  -25.8179  -36.3257   23.3453 C   0  0  0  0  0  0  0  0  0  0  0  0
  -25.2379  -30.2415   21.7913 C   0  0  0  0  0  0  0  0  0  0  0  0
  -27.1924  -28.8981   20.8518 C   0  0  0  0  0  0  0  0  0  0  0  0
  -21.3264   -9.2832   21.9431 C   0  0  0  0  0  0  0  0  0  0  0  0
  -25.3188  -14.5379   22.7322 C   0  0  0  0  0  0  0  0  0  0  0  0
  -22.2587  -10.2105   21.4396 C   0  0  0  0  0  0  0  0  0  0  0  0
  -25.4593  -15.5283   21.7495 C   0  0  0  0  0  0  0  0  0  0  0  0
  -24.1009  -32.4066   23.1339 C   0  0  0  0  0  0  0  0  0  0  0  0
  -27.8053  -14.9385   21.5082 C   0  0  0  0  0  0  0  0  0  0  0  0
  -24.0088  -34.7298   23.4753 C   0  0  0  0  0  0  0  0  0  0  0  0
  -24.9375  -37.2826   22.8402 C   0  0  0  0  0  0  0  0  0  0  0  0
  -25.3535  -35.0493   23.6628 C   0  0  0  0  0  0  0  0  0  0  0  0
  -25.8247  -29.1228   21.0984 C   0  0  0  0  0  0  0  0  0  0  0  0
  -27.2267  -27.7086   20.1659 C   0  0  0  0  0  0  0  0  0  0  0  0
  -27.7700  -21.3489   20.0028 C   0  0  0  0  0  0  0  0  0  0  0  0
  -29.8093  -20.0274   20.3831 C   0  0  0  0  0  0  0  0  0  0  0  0
  -28.3301  -29.6934   21.2106 C   0  0  0  0  0  0  0  0  0  0  0  0
  -22.4780  -13.8989   21.4573 C   0  0  0  0  0  0  0  0  0  0  0  0
  -30.9323  -17.2721   21.4571 C   0  0  0  0  0  0  0  0  0  0  0  0
  -21.9615  -17.0561   21.9938 C   0  0  0  0  0  0  0  0  0  0  0  0
  -23.2792  -20.1716   22.4456 C   0  0  0  0  0  0  0  0  0  0  0  0
  -25.5645  -22.4409   19.4644 C   0  0  0  0  0  0  0  0  0  0  0  0
  -19.8425   -9.5503   21.9057 C   0  0  0  0  0  0  0  0  0  0  0  0
  -23.9981  -14.3309   23.4216 C   0  0  0  0  0  0  0  0  0  0  0  0
  -24.3020  -16.3933   21.3243 C   0  0  0  0  0  0  0  0  0  0  0  0
  -19.4935  -11.0224   21.7029 C   0  0  0  0  0  0  0  0  0  0  0  0
  -23.4916  -24.9914   18.0952 C   0  0  0  0  0  0  0  0  0  0  0  0
  -20.3310  -11.6193   20.5763 C   0  0  0  0  0  0  0  0  0  0  0  0
  -24.0263  -26.2751   18.7341 C   0  0  0  0  0  0  0  0  0  0  0  0
  -23.5319  -23.8143   19.0680 C   0  0  0  0  0  0  0  0  0  0  0  0
  -25.3724  -24.8542   20.3329 C   0  0  0  0  0  0  0  0  0  0  0  0
  -21.8266  -11.5607   20.9102 C   0  0  1  0  0  0  0  0  0  0  0  0
  -22.8108  -14.8192   22.5975 C   0  0  1  0  0  0  0  0  0  0  0  0
  -25.4122  -26.0528   19.3708 C   0  0  2  0  0  0  0  0  0  0  0  0
  -22.6060  -22.5594   22.8235 C   0  0  0  0  0  0  0  0  0  0  0  0
  -21.1905  -17.3018   19.0518 C   0  0  0  0  0  0  0  0  0  0  0  0
  -21.4563  -19.7825   19.2614 C   0  0  0  0  0  0  0  0  0  0  0  0
  -19.7364  -18.5948   20.6229 C   0  0  0  0  0  0  0  0  0  0  0  0
  -24.6802  -20.2758   25.0505 C   0  0  0  0  0  0  0  0  0  0  0  0
  -31.2933  -15.8034   21.2723 C   0  0  0  0  0  0  0  0  0  0  0  0
  -30.1756  -14.8584   21.6859 C   0  0  0  0  0  0  0  0  0  1  0  0
  -31.5534  -18.2450   20.4645 C   0  0  2  0  0  0  0  0  0  0  0  0
  -22.1817  -18.3245   21.2054 C   0  0  1  0  0  0  0  0  0  0  0  0
  -22.9957  -21.2447   23.4813 C   0  0  2  0  0  0  0  0  0  0  0  0
  -21.1628  -18.4835   20.0418 C   0  0  0  0  0  0  0  0  0  0  0  0
  -33.0639  -18.2208   20.5610 C   0  0  0  0  0  0  0  0  0  0  0  0
  -25.0465  -28.1539   20.6089 N   0  0  0  0  0  0  0  0  0  0  0  0
  -25.9280  -27.3089   20.0477 N   0  0  0  0  0  0  0  0  0  0  0  0
  -23.0297  -16.1484   22.0235 N   0  0  0  0  0  0  0  0  0  0  0  0
  -24.8764  -23.6617   19.6281 N   0  0  0  0  0  0  0  0  0  0  0  0
  -28.2407  -26.9760   19.6583 N   0  0  0  0  0  0  0  0  0  0  0  0
  -28.1161  -30.8865   21.9141 N   0  0  0  0  0  0  0  0  0  0  0  0
  -26.8474  -22.4243   20.0108 N   0  0  0  0  0  0  0  0  0  0  0  0
  -31.0643  -19.5749   20.7530 N   0  0  0  0  0  0  0  0  0  0  0  0
  -22.1769  -12.6076   21.8461 N   0  0  0  0  0  0  0  0  0  0  0  0
  -22.1585  -19.4159   22.1732 N   0  0  0  0  0  0  0  0  0  0  0  0
  -24.2007  -21.4807   24.3258 N   0  3  0  0  0  0  0  0  0  0  0  0
  -29.5005  -29.3642   20.9018 O   0  0  0  0  0  0  0  0  0  0  0  0
  -22.4918  -14.3290   20.3099 O   0  0  0  0  0  0  0  0  0  0  0  0
  -30.1961  -17.6572   22.3658 O   0  0  0  0  0  0  0  0  0  0  0  0
  -20.8841  -16.8805   22.5683 O   0  0  0  0  0  0  0  0  0  0  0  0
  -24.3834  -20.0213   21.9272 O   0  0  0  0  0  0  0  0  0  0  0  0
  -25.0638  -21.4899   18.8586 O   0  0  0  0  0  0  0  0  0  0  0  0
  -23.5464  -33.4628   23.7892 O   0  0  0  0  0  0  0  0  0  0  0  0
  -29.0111  -15.1329   20.9080 O   0  0  0  0  0  0  0  0  0  1  0  0
  -25.3836  -38.5078   22.5339 F   0  0  0  0  0  0  0  0  0  0  0  0
  -26.2043  -34.1339   24.1466 F   0  0  0  0  0  0  0  0  0  0  0  0
  -33.6166  -19.0936   19.6881 F   0  0  0  0  0  0  0  0  0  0  0  0
  -33.5541  -16.9970   20.2650 F   0  0  0  0  0  0  0  0  0  0  0  0
  -33.4946  -18.5489   21.7983 F   0  0  0  0  0  0  0  0  0  0  0  0
  -29.2850  -21.6144   20.7555 S   0  0  0  0  0  0  0  0  0  0  0  0
  1  2  1  0  0  0  0
  1  5  2  0  0  0  0
  2  6  2  0  0  0  0
  3  8  2  0  0  0  0
  3 17  1  0  0  0  0
  4  9  1  0  0  0  0
  4 17  2  0  0  0  0
  5 19  1  0  0  0  0
  6 21  1  0  0  0  0
  7 10  2  0  0  0  0
  7 20  1  0  0  0  0
  8 23  1  0  0  0  0
  9 23  2  0  0  0  0
 10 24  1  0  0  0  0
 11 12  2  0  0  0  0
 11 25  1  0  0  0  0
 12 26  1  0  0  0  0
 13 14  1  0  0  0  0
 13 30  2  0  0  0  0
 14 31  2  0  0  0  0
 15 22  1  0  0  0  0
 15 24  2  0  0  0  0
 16 26  2  0  0  0  0
 16 27  1  0  0  0  0
 17 28  1  0  0  0  0
 18 28  1  0  0  0  0
 18 29  2  0  0  0  0
 18 32  1  0  0  0  0
 19 21  2  0  0  0  0
 19 38  1  0  0  0  0
 20 22  2  0  0  0  0
 20 39  1  0  0  0  0
 21 47  1  0  0  0  0
 22 40  1  0  0  0  0
 23 79  1  0  0  0  0
 24 80  1  0  0  0  0
 25 27  2  0  0  0  0
 25 79  1  0  0  0  0
 26 81  1  0  0  0  0
 27 82  1  0  0  0  0
 28 62  2  0  0  0  0
 29 63  1  0  0  0  0
 29 66  1  0  0  0  0
 30 68  1  0  0  0  0
 30 86  1  0  0  0  0
 31 69  1  0  0  0  0
 31 86  1  0  0  0  0
 32 67  1  0  0  0  0
 32 73  2  0  0  0  0
 33 48  1  0  0  0  0
 33 70  1  0  0  0  0
 33 74  2  0  0  0  0
 34 55  1  0  0  0  0
 34 57  1  0  0  0  0
 34 75  2  0  0  0  0
 35 58  1  0  0  0  0
 35 64  1  0  0  0  0
 35 76  2  0  0  0  0
 36 59  1  0  0  0  0
 36 71  1  0  0  0  0
 36 77  2  0  0  0  0
 37 65  1  0  0  0  0
 37 68  1  0  0  0  0
 37 78  2  0  0  0  0
 38 41  1  0  0  0  0
 39 48  1  0  0  0  0
 40 64  1  0  0  0  0
 41 43  1  0  0  0  0
 42 44  1  0  0  0  0
 42 45  1  0  0  0  0
 43 47  1  0  0  0  0
 44 49  1  0  0  0  0
 45 65  1  0  0  0  0
 46 49  1  0  0  0  0
 46 65  1  0  0  0  0
 47 70  1  0  0  0  0
 48 64  1  0  0  0  0
 49 63  1  0  0  0  0
 50 59  1  0  0  0  0
 51 60  1  0  0  0  0
 52 60  1  0  0  0  0
 53 60  1  0  0  0  0
 54 72  1  0  0  0  0
 55 56  1  0  0  0  0
 56 80  1  0  0  0  0
 57 61  1  0  0  0  0
 57 69  1  0  0  0  0
 58 60  1  0  0  0  0
 58 71  1  0  0  0  0
 59 72  1  0  0  0  0
 61 83  1  0  0  0  0
 61 84  1  0  0  0  0
 61 85  1  0  0  0  0
 62 63  1  0  0  0  0
M  CHG  1  72   1
M  ISO  4  37 100  56 101  68 100  80 101
M  END
> <Batch ID>
0182

> <Smiles>
CNC(C)C(=O)NC(C(=O)N1Cc2cc([101O:1][101CH2:1]CC(=O)C(Nc3ccc([100NH:0][100C:0](=O)N4CCCC(n5nc(-c6ccc(Oc7ccc(F)cc7F)cc6)c(C(N)=O)c5N)C4)s3)C(F)(F)F)ccc2CC1C(=O)NC1CCCc2ccccc21)C(C)(C)C

> <Shape>
0.239

> <Color>
0.077

> <Negative vol penalty>
0.000

$$$$

  -OEChem-04052304563D

 85 93  0     1  0  0  0  0  0999 V2000
  -20.8469  -18.9725   24.9432 C   0  0  0  0  0  0  0  0  0  0  0  0
  -22.1744  -19.3866   24.9841 C   0  0  0  0  0  0  0  0  0  0  0  0
  -25.7795  -13.8509   21.4172 C   0  0  0  0  0  0  0  0  0  0  0  0
  -25.0904  -14.5890   19.2223 C   0  0  0  0  0  0  0  0  0  0  0  0
  -19.9685  -19.5413   24.0219 C   0  0  0  0  0  0  0  0  0  0  0  0
  -22.6246  -20.3691   24.1029 C   0  0  0  0  0  0  0  0  0  0  0  0
  -27.2847  -25.7946   23.6981 C   0  0  0  0  0  0  0  0  0  0  0  0
  -24.7454  -12.9149   21.4270 C   0  0  0  0  0  0  0  0  0  0  0  0
  -24.0563  -13.6529   19.2321 C   0  0  0  0  0  0  0  0  0  0  0  0
  -28.3162  -26.2704   22.8898 C   0  0  0  0  0  0  0  0  0  0  0  0
  -24.1330   -9.8655   20.1007 C   0  0  0  0  0  0  0  0  0  0  0  0
  -24.4325   -8.5732   20.5317 C   0  0  0  0  0  0  0  0  0  0  0  0
  -26.6897  -27.2387   21.3945 C   0  0  0  0  0  0  0  0  0  0  0  0
  -22.8092   -8.7894   22.3080 C   0  0  0  0  0  0  0  0  0  0  0  0
  -30.2861  -22.4708   16.3510 C   0  0  0  0  0  0  0  0  0  0  0  0
  -25.9520  -14.6880   20.3148 C   0  0  0  0  0  0  0  0  0  0  0  0
  -28.3316  -15.4686   19.8293 C   0  0  0  0  0  0  0  0  0  0  0  0
  -20.4058  -20.5381   23.1355 C   0  0  0  0  0  0  0  0  0  0  0  0
  -25.9454  -26.0283   23.3543 C   0  0  0  0  0  0  0  0  0  0  0  0
  -21.7515  -20.9508   23.1680 C   0  0  0  0  0  0  0  0  0  0  0  0
  -25.6431  -26.7670   22.2014 C   0  0  0  0  0  0  0  0  0  0  0  0
  -23.8838  -12.8159   20.3345 C   0  0  0  0  0  0  0  0  0  0  0  0
  -28.0188  -26.9900   21.7363 C   0  0  0  0  0  0  0  0  0  0  0  0
  -23.1716  -10.6198   20.7734 C   0  0  0  0  0  0  0  0  0  0  0  0
  -23.7706   -8.0351   21.6353 C   0  0  0  0  0  0  0  0  0  0  0  0
  -22.5097  -10.0818   21.8770 C   0  0  0  0  0  0  0  0  0  0  0  0
  -31.1528  -23.2192   15.5624 C   0  0  0  0  0  0  0  0  0  0  0  0
  -31.8431  -24.2894   16.1206 C   0  0  0  0  0  0  0  0  0  0  0  0
  -27.0196  -15.6555   20.3042 C   0  0  0  0  0  0  0  0  0  0  0  0
  -30.1458  -22.8306   17.6817 C   0  0  0  0  0  0  0  0  0  0  0  0
  -31.6329  -24.5679   17.4616 C   0  0  0  0  0  0  0  0  0  0  0  0
  -28.9489  -16.6771   20.0410 C   0  0  0  0  0  0  0  0  0  0  0  0
  -28.9380  -14.3064   19.2485 C   0  0  0  0  0  0  0  0  0  0  0  0
  -23.4601  -24.1829   22.6322 C   0  0  0  0  0  0  0  0  0  0  0  0
  -30.9138  -26.8255   19.5675 C   0  0  0  0  0  0  0  0  0  0  0  0
  -21.8540  -27.0011   22.6672 C   0  0  0  0  0  0  0  0  0  0  0  0
  -21.9579  -30.3988   22.3652 C   0  0  0  0  0  0  0  0  0  0  0  0
  -28.9664  -22.2411   19.8283 C   0  0  0  0  0  0  0  0  0  0  0  0
  -19.4310  -21.0898   22.1255 C   0  0  0  0  0  0  0  0  0  0  0  0
  -24.8448  -25.5313   24.2510 C   0  0  0  0  0  0  0  0  0  0  0  0
  -24.2221  -27.0624   21.7989 C   0  0  0  0  0  0  0  0  0  0  0  0
  -19.8957  -22.3922   21.4788 C   0  0  0  0  0  0  0  0  0  0  0  0
  -27.4389  -20.7316   22.6682 C   0  0  0  0  0  0  0  0  0  0  0  0
  -21.3532  -22.2812   21.0426 C   0  0  0  0  0  0  0  0  0  0  0  0
  -27.3016  -19.2611   22.2673 C   0  0  0  0  0  0  0  0  0  0  0  0
  -27.2040  -21.6668   21.4834 C   0  0  0  0  0  0  0  0  0  0  0  0
  -27.8813  -19.9100   19.8946 C   0  0  0  0  0  0  0  0  0  0  0  0
  -22.2715  -22.0316   22.2451 C   0  0  1  0  0  0  0  0  0  0  0  0
  -23.5075  -25.3859   23.5313 C   0  0  1  0  0  0  0  0  0  0  0  0
  -28.1731  -18.9277   21.0406 C   0  0  2  0  0  0  0  0  0  0  0  0
  -33.4083  -26.8964   19.7680 C   0  0  0  0  0  0  0  0  0  0  0  0
  -20.4794  -32.4261   22.4049 C   0  0  0  0  0  0  0  0  0  0  0  0
  -20.8468  -26.3183   19.8691 C   0  0  0  0  0  0  0  0  0  0  0  0
  -20.1929  -28.7194   19.5942 C   0  0  0  0  0  0  0  0  0  0  0  0
  -19.1299  -27.3352   21.3766 C   0  0  0  0  0  0  0  0  0  0  0  0
  -23.3970  -31.5461   24.6828 C   0  0  0  0  0  0  0  0  0  0  0  0
  -30.2322  -26.6967   20.9174 C   0  0  0  0  0  0  0  0  0  1  0  0
  -32.2084  -26.0450   19.3884 C   0  0  2  0  0  0  0  0  0  0  0  0
  -21.5364  -28.0633   21.6426 C   0  0  1  0  0  0  0  0  0  0  0  0
  -21.3705  -31.5048   23.2233 C   0  0  2  0  0  0  0  0  0  0  0  0
  -20.4533  -27.6020   20.6269 C   0  0  0  0  0  0  0  0  0  0  0  0
  -26.8146  -16.8859   20.7818 N   0  0  0  0  0  0  0  0  0  0  0  0
  -30.7992  -23.8635   18.2594 N   0  0  0  0  0  0  0  0  0  0  0  0
  -28.0060  -17.4830   20.6081 N   0  0  0  0  0  0  0  0  0  0  0  0
  -23.1810  -26.5498   22.7048 N   0  0  0  0  0  0  0  0  0  0  0  0
  -28.0667  -21.2933   20.3604 N   0  0  0  0  0  0  0  0  0  0  0  0
  -30.2008  -17.1184   19.7956 N   0  0  0  0  0  0  0  0  0  0  0  0
  -28.1611  -13.1489   19.1040 N   0  0  0  0  0  0  0  0  0  0  0  0
  -29.2603  -22.0617   18.4770 N   0  0  0  0  0  0  0  0  0  0  0  0
  -32.3255  -25.6357   18.0060 N   0  0  0  0  0  0  0  0  0  0  0  0
  -22.4907  -23.2606   22.9773 N   0  0  0  0  0  0  0  0  0  0  0  0
  -21.1789  -29.2615   22.3943 N   0  0  0  0  0  0  0  0  0  0  0  0
  -22.4585  -32.3216   23.8315 N   0  3  0  0  0  0  0  0  0  0  0  0
  -30.1382  -14.2896   18.8841 O   0  0  0  0  0  0  0  0  0  0  0  0
  -24.2438  -24.0986   21.6939 O   0  0  0  0  0  0  0  0  0  0  0  0
  -30.4443  -27.5323   18.6752 O   0  0  0  0  0  0  0  0  0  0  0  0
  -20.9595  -26.5921   23.4116 O   0  0  0  0  0  0  0  0  0  0  0  0
  -23.0013  -30.5319   21.7294 O   0  0  0  0  0  0  0  0  0  0  0  0
  -29.4621  -23.1288   20.5269 O   0  0  0  0  0  0  0  0  0  0  0  0
  -22.8748  -11.9024   20.3437 O   0  0  0  0  0  0  0  0  0  0  0  0
  -29.0237  -27.4550   20.9452 O   0  0  0  0  0  0  0  0  0  1  0  0
  -24.0572   -6.7935   22.0482 F   0  0  0  0  0  0  0  0  0  0  0  0
  -21.5843  -10.8012   22.5265 F   0  0  0  0  0  0  0  0  0  0  0  0
  -31.3223  -22.9105   14.2703 F   0  0  0  0  0  0  0  0  0  0  0  0
  -32.6810  -25.0188   15.3730 F   0  0  0  0  0  0  0  0  0  0  0  0
  1  2  1  0  0  0  0
  1  5  2  0  0  0  0
  2  6  2  0  0  0  0
  3  8  2  0  0  0  0
  3 16  1  0  0  0  0
  4  9  1  0  0  0  0
  4 16  2  0  0  0  0
  5 18  1  0  0  0  0
  6 20  1  0  0  0  0
  7 10  2  0  0  0  0
  7 19  1  0  0  0  0
  8 22  1  0  0  0  0
  9 22  2  0  0  0  0
 10 23  1  0  0  0  0
 11 12  2  0  0  0  0
 11 24  1  0  0  0  0
 12 25  1  0  0  0  0
 13 21  1  0  0  0  0
 13 23  2  0  0  0  0
 14 25  2  0  0  0  0
 14 26  1  0  0  0  0
 15 27  2  0  0  0  0
 15 30  1  0  0  0  0
 16 29  1  0  0  0  0
 17 29  1  0  0  0  0
 17 32  2  0  0  0  0
 17 33  1  0  0  0  0
 18 20  2  0  0  0  0
 18 39  1  0  0  0  0
 19 21  2  0  0  0  0
 19 40  1  0  0  0  0
 20 48  1  0  0  0  0
 21 41  1  0  0  0  0
 22 80  1  0  0  0  0
 23 81  1  0  0  0  0
 24 26  2  0  0  0  0
 24 80  1  0  0  0  0
 25 82  1  0  0  0  0
 26 83  1  0  0  0  0
 27 28  1  0  0  0  0
 27 84  1  0  0  0  0
 28 31  2  0  0  0  0
 28 85  1  0  0  0  0
 29 62  2  0  0  0  0
 30 63  2  0  0  0  0
 30 69  1  0  0  0  0
 31 63  1  0  0  0  0
 31 70  1  0  0  0  0
 32 64  1  0  0  0  0
 32 67  1  0  0  0  0
 33 68  1  0  0  0  0
 33 74  2  0  0  0  0
 34 49  1  0  0  0  0
 34 71  1  0  0  0  0
 34 75  2  0  0  0  0
 35 57  1  0  0  0  0
 35 58  1  0  0  0  0
 35 76  2  0  0  0  0
 36 59  1  0  0  0  0
 36 65  1  0  0  0  0
 36 77  2  0  0  0  0
 37 60  1  0  0  0  0
 37 72  1  0  0  0  0
 37 78  2  0  0  0  0
 38 66  1  0  0  0  0
 38 69  1  0  0  0  0
 38 79  2  0  0  0  0
 39 42  1  0  0  0  0
 40 49  1  0  0  0  0
 41 65  1  0  0  0  0
 42 44  1  0  0  0  0
 43 45  1  0  0  0  0
 43 46  1  0  0  0  0
 44 48  1  0  0  0  0
 45 50  1  0  0  0  0
 46 66  1  0  0  0  0
 47 50  1  0  0  0  0
 47 66  1  0  0  0  0
 48 71  1  0  0  0  0
 49 65  1  0  0  0  0
 50 64  1  0  0  0  0
 51 58  1  0  0  0  0
 52 60  1  0  0  0  0
 53 61  1  0  0  0  0
 54 61  1  0  0  0  0
 55 61  1  0  0  0  0
 56 73  1  0  0  0  0
 57 81  1  0  0  0  0
 58 70  1  0  0  0  0
 59 61  1  0  0  0  0
 59 72  1  0  0  0  0
 60 73  1  0  0  0  0
 62 64  1  0  0  0  0
M  CHG  1  73   1
M  ISO  4  38 100  57 101  69 100  81 101
M  END
> <Batch ID>
0182

> <Smiles>
CNC(C)C(=O)NC(C(=O)N1Cc2cc([101O:1][101CH2:1]C(=O)C(C)Nc3nc([100NH:0][100C:0](=O)N4CCCC(n5nc(-c6ccc(Oc7ccc(F)cc7F)cc6)c(C(N)=O)c5N)C4)cc(F)c3F)ccc2CC1C(=O)NC1CCCc2ccccc21)C(C)(C)C

> <Shape>
0.237

> <Color>
0.057

> <Negative vol penalty>
0.000

$$$$

  -OEChem-04052304563D

 86 94  0     1  0  0  0  0  0999 V2000
  -24.0131  -19.7723   25.0890 C   0  0  0  0  0  0  0  0  0  0  0  0
  -24.2282  -21.1275   24.8654 C   0  0  0  0  0  0  0  0  0  0  0  0
  -26.2921  -12.9386   21.6055 C   0  0  0  0  0  0  0  0  0  0  0  0
  -25.7944  -13.8308   19.4162 C   0  0  0  0  0  0  0  0  0  0  0  0
  -23.9445  -18.8940   24.0097 C   0  0  0  0  0  0  0  0  0  0  0  0
  -24.3628  -21.6066   23.5619 C   0  0  0  0  0  0  0  0  0  0  0  0
  -25.6406  -27.1997   21.5096 C   0  0  0  0  0  0  0  0  0  0  0  0
  -28.2801  -22.3413   16.2169 C   0  0  0  0  0  0  0  0  0  0  0  0
  -25.0846  -12.2405   21.5956 C   0  0  0  0  0  0  0  0  0  0  0  0
  -24.5869  -13.1327   19.4062 C   0  0  0  0  0  0  0  0  0  0  0  0
  -26.7731  -27.9334   21.1588 C   0  0  0  0  0  0  0  0  0  0  0  0
  -22.2996   -9.9380   21.9925 C   0  0  0  0  0  0  0  0  0  0  0  0
  -22.3162   -8.6077   22.4114 C   0  0  0  0  0  0  0  0  0  0  0  0
  -28.2903  -21.3861   17.2272 C   0  0  0  0  0  0  0  0  0  0  0  0
  -26.4196  -27.3602   18.8424 C   0  0  0  0  0  0  0  0  0  0  0  0
  -23.8750   -8.0710   20.6453 C   0  0  0  0  0  0  0  0  0  0  0  0
  -26.6470  -13.7338   20.5159 C   0  0  0  0  0  0  0  0  0  0  0  0
  -29.1420  -14.0031   20.0574 C   0  0  0  0  0  0  0  0  0  0  0  0
  -24.0909  -19.3615   22.6933 C   0  0  0  0  0  0  0  0  0  0  0  0
  -24.8941  -26.5307   20.5290 C   0  0  0  0  0  0  0  0  0  0  0  0
  -24.2727  -20.7396   22.4580 C   0  0  0  0  0  0  0  0  0  0  0  0
  -25.2766  -26.6208   19.1830 C   0  0  0  0  0  0  0  0  0  0  0  0
  -28.7243  -23.6317   16.4832 C   0  0  0  0  0  0  0  0  0  0  0  0
  -24.2320  -12.3375   20.4959 C   0  0  0  0  0  0  0  0  0  0  0  0
  -27.1644  -28.0113   19.8254 C   0  0  0  0  0  0  0  0  0  0  0  0
  -23.0707  -10.3349   20.8999 C   0  0  0  0  0  0  0  0  0  0  0  0
  -23.1039   -7.6742   21.7378 C   0  0  0  0  0  0  0  0  0  0  0  0
  -23.8584   -9.4014   20.2263 C   0  0  0  0  0  0  0  0  0  0  0  0
  -27.8940  -14.4557   20.5258 C   0  0  0  0  0  0  0  0  0  0  0  0
  -28.7506  -21.7688   18.4768 C   0  0  0  0  0  0  0  0  0  0  0  0
  -29.1649  -23.9139   17.7661 C   0  0  0  0  0  0  0  0  0  0  0  0
  -29.9971  -15.0526   20.2898 C   0  0  0  0  0  0  0  0  0  0  0  0
  -29.4967  -12.7465   19.4651 C   0  0  0  0  0  0  0  0  0  0  0  0
  -24.1605  -23.4919   19.9530 C   0  0  0  0  0  0  0  0  0  0  0  0
  -22.2992  -24.7871   17.6335 C   0  0  0  0  0  0  0  0  0  0  0  0
  -29.5610  -25.8991   19.2650 C   0  0  0  0  0  0  0  0  0  0  0  0
  -21.6887  -27.4087   15.5355 C   0  0  0  0  0  0  0  0  0  0  0  0
  -29.1753  -20.9474   20.8202 C   0  0  0  0  0  0  0  0  0  0  0  0
  -24.0002  -18.3682   21.5618 C   0  0  0  0  0  0  0  0  0  0  0  0
  -23.6597  -25.7655   20.9206 C   0  0  0  0  0  0  0  0  0  0  0  0
  -24.4977  -25.9376   18.0898 C   0  0  0  0  0  0  0  0  0  0  0  0
  -24.5936  -18.8950   20.2592 C   0  0  0  0  0  0  0  0  0  0  0  0
  -30.6426  -18.7765   23.2309 C   0  0  0  0  0  0  0  0  0  0  0  0
  -24.0424  -20.2811   19.9601 C   0  0  0  0  0  0  0  0  0  0  0  0
  -30.2229  -17.3805   22.7647 C   0  0  0  0  0  0  0  0  0  0  0  0
  -29.5397  -19.8076   22.9981 C   0  0  0  0  0  0  0  0  0  0  0  0
  -28.5986  -18.4639   21.1601 C   0  0  0  0  0  0  0  0  0  0  0  0
  -24.4525  -21.2790   21.0505 C   0  0  1  0  0  0  0  0  0  0  0  0
  -23.2687  -24.7001   19.9011 C   0  0  1  0  0  0  0  0  0  0  0  0
  -29.7013  -17.4038   21.3146 C   0  0  2  0  0  0  0  0  0  0  0  0
  -27.2913  -24.9430   14.8767 C   0  0  0  0  0  0  0  0  0  0  0  0
  -29.6315  -24.2734   14.2206 C   0  0  0  0  0  0  0  0  0  0  0  0
  -20.1181  -28.1616   13.7290 C   0  0  0  0  0  0  0  0  0  0  0  0
  -30.3936  -29.5508   20.2215 C   0  0  0  0  0  0  0  0  0  0  0  0
  -23.6860  -22.9240   15.6547 C   0  0  0  0  0  0  0  0  0  0  0  0
  -22.7973  -24.3486   13.7975 C   0  0  0  0  0  0  0  0  0  0  0  0
  -21.2189  -23.1552   15.3165 C   0  0  0  0  0  0  0  0  0  0  0  0
  -20.8032  -29.7468   17.1192 C   0  0  0  0  0  0  0  0  0  0  0  0
  -30.1646  -27.2937   19.1307 C   0  0  0  0  0  0  0  0  0  0  0  0
  -28.7121  -24.6531   15.3972 C   0  0  0  0  0  0  0  0  0  0  0  0
  -22.4996  -25.1554   16.1832 C   0  0  1  0  0  0  0  0  0  0  0  0
  -20.4144  -28.1712   15.2206 C   0  0  2  0  0  0  0  0  0  0  0  0
  -29.5111  -28.3207   20.0556 C   0  0  2  0  0  0  0  0  0  1  0  0
  -22.5664  -23.9072   15.2586 C   0  0  0  0  0  0  0  0  0  0  0  0
  -27.9471  -15.6960   21.0187 N   0  0  0  0  0  0  0  0  0  0  0  0
  -29.1898  -23.0125   18.7734 N   0  0  0  0  0  0  0  0  0  0  0  0
  -29.2389  -16.0317   20.8613 N   0  0  0  0  0  0  0  0  0  0  0  0
  -23.3020  -25.1964   18.5238 N   0  0  0  0  0  0  0  0  0  0  0  0
  -29.0983  -19.7753   21.6020 N   0  0  0  0  0  0  0  0  0  0  0  0
  -31.3161  -15.2241   20.0590 N   0  0  0  0  0  0  0  0  0  0  0  0
  -28.4955  -11.7797   19.2996 N   0  0  0  0  0  0  0  0  0  0  0  0
  -29.6195  -25.2240   18.0486 N   0  0  0  0  0  0  0  0  0  0  0  0
  -28.7584  -20.7876   19.4991 N   0  0  0  0  0  0  0  0  0  0  0  0
  -23.7425  -22.5220   20.8440 N   0  0  0  0  0  0  0  0  0  0  0  0
  -21.4312  -26.0907   15.8482 N   0  0  0  0  0  0  0  0  0  0  0  0
  -20.5348  -29.5880   15.6668 N   0  3  0  0  0  0  0  0  0  0  0  0
  -30.6700  -12.4825   19.1088 O   0  0  0  0  0  0  0  0  0  0  0  0
  -25.1535  -23.4427   19.2366 O   0  0  0  0  0  0  0  0  0  0  0  0
  -21.2867  -24.1655   17.9652 O   0  0  0  0  0  0  0  0  0  0  0  0
  -29.1031  -25.4844   20.3244 O   0  0  0  0  0  0  0  0  0  0  0  0
  -22.8016  -27.9293   15.5035 O   0  0  0  0  0  0  0  0  0  0  0  0
  -29.6068  -22.0074   21.2807 O   0  0  0  0  0  0  0  0  0  0  0  0
  -23.0538  -11.6562   20.4857 O   0  0  0  0  0  0  0  0  0  0  0  0
  -28.2697  -28.7262   19.4804 O   0  0  0  0  0  0  0  0  0  1  0  0
  -23.1209   -6.3970   22.1411 F   0  0  0  0  0  0  0  0  0  0  0  0
  -24.6022   -9.7769   19.1768 F   0  0  0  0  0  0  0  0  0  0  0  0
  1  2  1  0  0  0  0
  1  5  2  0  0  0  0
  2  6  2  0  0  0  0
  3  9  2  0  0  0  0
  3 17  1  0  0  0  0
  4 10  1  0  0  0  0
  4 17  2  0  0  0  0
  5 19  1  0  0  0  0
  6 21  1  0  0  0  0
  7 11  2  0  0  0  0
  7 20  1  0  0  0  0
  8 14  2  0  0  0  0
  8 23  1  0  0  0  0
  9 24  1  0  0  0  0
 10 24  2  0  0  0  0
 11 25  1  0  0  0  0
 12 13  2  0  0  0  0
 12 26  1  0  0  0  0
 13 27  1  0  0  0  0
 14 30  1  0  0  0  0
 15 22  1  0  0  0  0
 15 25  2  0  0  0  0
 16 27  2  0  0  0  0
 16 28  1  0  0  0  0
 17 29  1  0  0  0  0
 18 29  1  0  0  0  0
 18 32  2  0  0  0  0
 18 33  1  0  0  0  0
 19 21  2  0  0  0  0
 19 39  1  0  0  0  0
 20 22  2  0  0  0  0
 20 40  1  0  0  0  0
 21 48  1  0  0  0  0
 22 41  1  0  0  0  0
 23 31  2  0  0  0  0
 23 60  1  0  0  0  0
 24 83  1  0  0  0  0
 25 84  1  0  0  0  0
 26 28  2  0  0  0  0
 26 83  1  0  0  0  0
 27 85  1  0  0  0  0
 28 86  1  0  0  0  0
 29 65  2  0  0  0  0
 30 66  2  0  0  0  0
 30 73  1  0  0  0  0
 31 66  1  0  0  0  0
 31 72  1  0  0  0  0
 32 67  1  0  0  0  0
 32 70  1  0  0  0  0
 33 71  1  0  0  0  0
 33 77  2  0  0  0  0
 34 49  1  0  0  0  0
 34 74  1  0  0  0  0
 34 78  2  0  0  0  0
 35 61  1  0  0  0  0
 35 68  1  0  0  0  0
 35 79  2  0  0  0  0
 36 59  1  0  0  0  0
 36 72  1  0  0  0  0
 36 80  2  0  0  0  0
 37 62  1  0  0  0  0
 37 75  1  0  0  0  0
 37 81  2  0  0  0  0
 38 69  1  0  0  0  0
 38 73  1  0  0  0  0
 38 82  2  0  0  0  0
 39 42  1  0  0  0  0
 40 49  1  0  0  0  0
 41 68  1  0  0  0  0
 42 44  1  0  0  0  0
 43 45  1  0  0  0  0
 43 46  1  0  0  0  0
 44 48  1  0  0  0  0
 45 50  1  0  0  0  0
 46 69  1  0  0  0  0
 47 50  1  0  0  0  0
 47 69  1  0  0  0  0
 48 74  1  0  0  0  0
 49 68  1  0  0  0  0
 50 67  1  0  0  0  0
 51 60  1  0  0  0  0
 52 60  1  0  0  0  0
 53 62  1  0  0  0  0
 54 63  1  0  0  0  0
 55 64  1  0  0  0  0
 56 64  1  0  0  0  0
 57 64  1  0  0  0  0
 58 76  1  0  0  0  0
 59 63  1  0  0  0  0
 61 64  1  0  0  0  0
 61 75  1  0  0  0  0
 62 76  1  0  0  0  0
 63 84  1  0  0  0  0
 65 67  1  0  0  0  0
M  CHG  1  76   1
M  ISO  4  38 100  63 101  73 100  84 101
M  END
> <Batch ID>
0182

> <Smiles>
CNC(C)C(=O)NC(C(=O)N1Cc2cc([101O:1][101CH:1](C)CC(=O)Nc3nc([100NH:0][100C:0](=O)N4CCCC(n5nc(-c6ccc(Oc7ccc(F)cc7F)cc6)c(C(N)=O)c5N)C4)ccc3C(C)C)ccc2CC1C(=O)NC1CCCc2ccccc21)C(C)(C)C

> <Shape>
0.212

> <Color>
0.071

> <Negative vol penalty>
0.000

$$$$

  -OEChem-04052304563D

 84 92  0     1  0  0  0  0  0999 V2000
  -30.2107  -26.1133   25.2779 C   0  0  0  0  0  0  0  0  0  0  0  0
  -29.4224  -27.0225   24.5817 C   0  0  0  0  0  0  0  0  0  0  0  0
  -28.1336  -14.2630   19.5047 C   0  0  0  0  0  0  0  0  0  0  0  0
  -26.0324  -15.2595   20.1599 C   0  0  0  0  0  0  0  0  0  0  0  0
  -29.7384  -24.8236   25.5126 C   0  0  0  0  0  0  0  0  0  0  0  0
  -28.1568  -26.6463   24.1304 C   0  0  0  0  0  0  0  0  0  0  0  0
  -25.3470  -30.1719   22.1611 C   0  0  0  0  0  0  0  0  0  0  0  0
  -27.6357  -13.0007   19.8276 C   0  0  0  0  0  0  0  0  0  0  0  0
  -25.5345  -13.9971   20.4828 C   0  0  0  0  0  0  0  0  0  0  0  0
  -25.6048  -30.7303   20.9099 C   0  0  0  0  0  0  0  0  0  0  0  0
  -23.5856  -10.9990   21.1395 C   0  0  0  0  0  0  0  0  0  0  0  0
  -22.2966  -10.6807   20.7120 C   0  0  0  0  0  0  0  0  0  0  0  0
  -23.8118  -29.4229   19.9637 C   0  0  0  0  0  0  0  0  0  0  0  0
  -22.9774  -11.0062   18.4169 C   0  0  0  0  0  0  0  0  0  0  0  0
  -27.2294  -26.2592   18.2240 C   0  0  0  0  0  0  0  0  0  0  0  0
  -28.9120  -25.8655   20.3357 C   0  0  0  0  0  0  0  0  0  0  0  0
  -27.3320  -15.3924   19.6709 C   0  0  0  0  0  0  0  0  0  0  0  0
  -27.7669  -17.3493   18.0931 C   0  0  0  0  0  0  0  0  0  0  0  0
  -28.4715  -24.4284   25.0527 C   0  0  0  0  0  0  0  0  0  0  0  0
  -24.3250  -29.2252   22.3211 C   0  0  0  0  0  0  0  0  0  0  0  0
  -27.6526  -25.3568   24.3781 C   0  0  0  0  0  0  0  0  0  0  0  0
  -23.5413  -28.8560   21.2185 C   0  0  0  0  0  0  0  0  0  0  0  0
  -28.2876  -24.7607   19.7793 C   0  0  0  0  0  0  0  0  0  0  0  0
  -26.3362  -12.8678   20.3166 C   0  0  0  0  0  0  0  0  0  0  0  0
  -24.8391  -30.3536   19.8104 C   0  0  0  0  0  0  0  0  0  0  0  0
  -24.5705  -11.3211   20.2057 C   0  0  0  0  0  0  0  0  0  0  0  0
  -21.9925  -10.6842   19.3507 C   0  0  0  0  0  0  0  0  0  0  0  0
  -24.2664  -11.3246   18.8444 C   0  0  0  0  0  0  0  0  0  0  0  0
  -27.4318  -24.9699   18.7036 C   0  0  0  0  0  0  0  0  0  0  0  0
  -27.8459  -16.6967   19.3380 C   0  0  0  0  0  0  0  0  0  0  0  0
  -27.9009  -27.2969   18.8501 C   0  0  0  0  0  0  0  0  0  0  0  0
  -28.3991  -18.5518   18.2951 C   0  0  0  0  0  0  0  0  0  0  0  0
  -27.1749  -16.9080   16.8641 C   0  0  0  0  0  0  0  0  0  0  0  0
  -24.2101  -26.1792   23.2225 C   0  0  0  0  0  0  0  0  0  0  0  0
  -21.0059  -26.6539   23.0490 C   0  0  0  0  0  0  0  0  0  0  0  0
  -26.8695  -28.9890   17.2953 C   0  0  0  0  0  0  0  0  0  0  0  0
  -18.4078  -28.4348   21.7356 C   0  0  0  0  0  0  0  0  0  0  0  0
  -29.3425  -23.1050   21.3579 C   0  0  0  0  0  0  0  0  0  0  0  0
  -28.0067  -23.0227   25.3412 C   0  0  0  0  0  0  0  0  0  0  0  0
  -24.0421  -28.6522   23.6828 C   0  0  0  0  0  0  0  0  0  0  0  0
  -22.4193  -27.8588   21.3414 C   0  0  0  0  0  0  0  0  0  0  0  0
  -26.8522  -22.5829   24.4468 C   0  0  0  0  0  0  0  0  0  0  0  0
  -31.2089  -20.1852   22.1756 C   0  0  0  0  0  0  0  0  0  0  0  0
  -25.7633  -23.6453   24.4435 C   0  0  0  0  0  0  0  0  0  0  0  0
  -30.4939  -19.0710   21.4079 C   0  0  0  0  0  0  0  0  0  0  0  0
  -30.2261  -21.2217   22.7172 C   0  0  0  0  0  0  0  0  0  0  0  0
  -28.5968  -20.6772   20.9514 C   0  0  0  0  0  0  0  0  0  0  0  0
  -26.2853  -24.9605   23.8511 C   0  0  1  0  0  0  0  0  0  0  0  0
  -23.3122  -27.3137   23.6279 C   0  0  1  0  0  0  0  0  0  0  0  0
  -29.5513  -19.6437   20.3313 C   0  0  2  0  0  0  0  0  0  0  0  0
  -15.9018  -28.5651   21.7511 C   0  0  0  0  0  0  0  0  0  0  0  0
  -26.4624  -32.7839   18.0476 C   0  0  0  0  0  0  0  0  0  0  0  0
  -20.8704  -24.2179   21.2166 C   0  0  0  0  0  0  0  0  0  0  0  0
  -18.5807  -24.9547   20.5220 C   0  0  0  0  0  0  0  0  0  0  0  0
  -19.0286  -24.3588   22.9026 C   0  0  0  0  0  0  0  0  0  0  0  0
  -18.4416  -31.1796   22.8419 C   0  0  0  0  0  0  0  0  0  0  0  0
  -26.9282  -30.5004   17.0962 C   0  0  0  0  0  0  0  0  0  0  0  0
  -19.9615  -26.5148   21.9679 C   0  0  1  0  0  0  0  0  0  0  0  0
  -17.1899  -29.0670   22.3848 C   0  0  2  0  0  0  0  0  0  0  0  0
  -26.4344  -31.2844   18.3121 C   0  0  2  0  0  0  0  0  0  1  0  0
  -19.6326  -25.0289   21.6492 C   0  0  0  0  0  0  0  0  0  0  0  0
  -28.7401  -27.1327   19.8972 N   0  0  0  0  0  0  0  0  0  0  0  0
  -28.4786  -17.4243   20.2623 N   0  0  0  0  0  0  0  0  0  0  0  0
  -28.8030  -18.5464   19.5978 N   0  0  0  0  0  0  0  0  0  0  0  0
  -22.1858  -27.3220   22.6923 N   0  0  0  0  0  0  0  0  0  0  0  0
  -29.3691  -21.7229   21.6406 N   0  0  0  0  0  0  0  0  0  0  0  0
  -28.6436  -19.6025   17.4836 N   0  0  0  0  0  0  0  0  0  0  0  0
  -26.5667  -15.6456   16.8309 N   0  0  0  0  0  0  0  0  0  0  0  0
  -28.5162  -23.4598   20.2921 N   0  0  0  0  0  0  0  0  0  0  0  0
  -27.6868  -28.6053   18.3554 N   0  0  0  0  0  0  0  0  0  0  0  0
  -25.2966  -25.9959   24.0564 N   0  0  0  0  0  0  0  0  0  0  0  0
  -18.8130  -27.3002   22.4064 N   0  0  0  0  0  0  0  0  0  0  0  0
  -17.2375  -30.5496   22.2416 N   0  3  0  0  0  0  0  0  0  0  0  0
  -27.1992  -17.6053   15.8217 O   0  0  0  0  0  0  0  0  0  0  0  0
  -23.9366  -25.5180   22.2276 O   0  0  0  0  0  0  0  0  0  0  0  0
  -20.7801  -26.1931   24.1708 O   0  0  0  0  0  0  0  0  0  0  0  0
  -26.1789  -28.2630   16.5882 O   0  0  0  0  0  0  0  0  0  0  0  0
  -18.9437  -28.8988   20.7316 O   0  0  0  0  0  0  0  0  0  0  0  0
  -30.0251  -23.9110   21.9955 O   0  0  0  0  0  0  0  0  0  0  0  0
  -25.8499  -11.6361   20.6316 O   0  0  0  0  0  0  0  0  0  0  0  0
  -25.0890  -30.8966   18.5878 O   0  0  0  0  0  0  0  0  0  1  0  0
  -20.7550  -10.3770   18.9403 F   0  0  0  0  0  0  0  0  0  0  0  0
  -25.2087  -11.6320   17.9425 F   0  0  0  0  0  0  0  0  0  0  0  0
  -26.7994  -23.9398   18.1243 F   0  0  0  0  0  0  0  0  0  0  0  0
  1  2  1  0  0  0  0
  1  5  2  0  0  0  0
  2  6  2  0  0  0  0
  3  8  2  0  0  0  0
  3 17  1  0  0  0  0
  4  9  1  0  0  0  0
  4 17  2  0  0  0  0
  5 19  1  0  0  0  0
  6 21  1  0  0  0  0
  7 10  2  0  0  0  0
  7 20  1  0  0  0  0
  8 24  1  0  0  0  0
  9 24  2  0  0  0  0
 10 25  1  0  0  0  0
 11 12  2  0  0  0  0
 11 26  1  0  0  0  0
 12 27  1  0  0  0  0
 13 22  1  0  0  0  0
 13 25  2  0  0  0  0
 14 27  2  0  0  0  0
 14 28  1  0  0  0  0
 15 29  2  0  0  0  0
 15 31  1  0  0  0  0
 16 23  2  0  0  0  0
 16 62  1  0  0  0  0
 17 30  1  0  0  0  0
 18 30  1  0  0  0  0
 18 32  2  0  0  0  0
 18 33  1  0  0  0  0
 19 21  2  0  0  0  0
 19 39  1  0  0  0  0
 20 22  2  0  0  0  0
 20 40  1  0  0  0  0
 21 48  1  0  0  0  0
 22 41  1  0  0  0  0
 23 29  1  0  0  0  0
 23 69  1  0  0  0  0
 24 80  1  0  0  0  0
 25 81  1  0  0  0  0
 26 28  2  0  0  0  0
 26 80  1  0  0  0  0
 27 82  1  0  0  0  0
 28 83  1  0  0  0  0
 29 84  1  0  0  0  0
 30 63  2  0  0  0  0
 31 62  2  0  0  0  0
 31 70  1  0  0  0  0
 32 64  1  0  0  0  0
 32 67  1  0  0  0  0
 33 68  1  0  0  0  0
 33 74  2  0  0  0  0
 34 49  1  0  0  0  0
 34 71  1  0  0  0  0
 34 75  2  0  0  0  0
 35 58  1  0  0  0  0
 35 65  1  0  0  0  0
 35 76  2  0  0  0  0
 36 57  1  0  0  0  0
 36 70  1  0  0  0  0
 36 77  2  0  0  0  0
 37 59  1  0  0  0  0
 37 72  1  0  0  0  0
 37 78  2  0  0  0  0
 38 66  1  0  0  0  0
 38 69  1  0  0  0  0
 38 79  2  0  0  0  0
 39 42  1  0  0  0  0
 40 49  1  0  0  0  0
 41 65  1  0  0  0  0
 42 44  1  0  0  0  0
 43 45  1  0  0  0  0
 43 46  1  0  0  0  0
 44 48  1  0  0  0  0
 45 50  1  0  0  0  0
 46 66  1  0  0  0  0
 47 50  1  0  0  0  0
 47 66  1  0  0  0  0
 48 71  1  0  0  0  0
 49 65  1  0  0  0  0
 50 64  1  0  0  0  0
 51 59  1  0  0  0  0
 52 60  1  0  0  0  0
 53 61  1  0  0  0  0
 54 61  1  0  0  0  0
 55 61  1  0  0  0  0
 56 73  1  0  0  0  0
 57 60  1  0  0  0  0
 58 61  1  0  0  0  0
 58 72  1  0  0  0  0
 59 73  1  0  0  0  0
 60 81  1  0  0  0  0
 63 64  1  0  0  0  0
M  CHG  1  73   1
M  ISO  4  38 100  60 101  69 100  81 101
M  END
> <Batch ID>
0182

> <Smiles>
CNC(C)C(=O)NC(C(=O)N1Cc2cc([101O:1][101CH:1](C)CC(=O)Nc3cc(F)c([100NH:0][100C:0](=O)N4CCCC(n5nc(-c6ccc(Oc7ccc(F)cc7F)cc6)c(C(N)=O)c5N)C4)cn3)ccc2CC1C(=O)NC1CCCc2ccccc21)C(C)(C)C

> <Shape>
0.226

> <Color>
0.049

> <Negative vol penalty>
0.000

$$$$

  -OEChem-04052304563D

 84 92  0     1  0  0  0  0  0999 V2000
  -23.8448  -32.3657   13.9947 C   0  0  0  0  0  0  0  0  0  0  0  0
  -24.7355  -31.5745   14.7132 C   0  0  0  0  0  0  0  0  0  0  0  0
  -22.3382  -10.4222   21.0381 C   0  0  0  0  0  0  0  0  0  0  0  0
  -24.3598   -9.3579   21.8240 C   0  0  0  0  0  0  0  0  0  0  0  0
  -23.3258  -33.5258   14.5679 C   0  0  0  0  0  0  0  0  0  0  0  0
  -25.1085  -31.9438   16.0050 C   0  0  0  0  0  0  0  0  0  0  0  0
  -25.0520  -28.0425   19.2333 C   0  0  0  0  0  0  0  0  0  0  0  0
  -21.7168   -9.1766   20.9497 C   0  0  0  0  0  0  0  0  0  0  0  0
  -23.7383   -8.1123   21.7357 C   0  0  0  0  0  0  0  0  0  0  0  0
  -26.1289  -27.1585   19.1827 C   0  0  0  0  0  0  0  0  0  0  0  0
  -21.5426   -6.2918   23.5481 C   0  0  0  0  0  0  0  0  0  0  0  0
  -21.7067   -5.4101   24.6164 C   0  0  0  0  0  0  0  0  0  0  0  0
  -27.1078  -28.2509   21.0979 C   0  0  0  0  0  0  0  0  0  0  0  0
  -29.0417  -20.0950   22.6659 C   0  0  0  0  0  0  0  0  0  0  0  0
  -22.7331   -3.8033   23.1326 C   0  0  0  0  0  0  0  0  0  0  0  0
  -23.6598  -10.5129   21.4752 C   0  0  0  0  0  0  0  0  0  0  0  0
  -24.3243  -12.6618   22.6785 C   0  0  0  0  0  0  0  0  0  0  0  0
  -23.6852  -33.9043   15.8710 C   0  0  0  0  0  0  0  0  0  0  0  0
  -25.0001  -29.0459   20.2115 C   0  0  0  0  0  0  0  0  0  0  0  0
  -24.5949  -33.1108   16.5957 C   0  0  0  0  0  0  0  0  0  0  0  0
  -26.0278  -29.1447   21.1603 C   0  0  0  0  0  0  0  0  0  0  0  0
  -29.3598  -18.7112   22.7839 C   0  0  0  0  0  0  0  0  0  0  0  0
  -22.4168   -8.0216   21.2985 C   0  0  0  0  0  0  0  0  0  0  0  0
  -27.1585  -27.2645   20.1133 C   0  0  0  0  0  0  0  0  0  0  0  0
  -21.9736   -5.9292   22.2720 C   0  0  0  0  0  0  0  0  0  0  0  0
  -22.3020   -4.1659   24.4087 C   0  0  0  0  0  0  0  0  0  0  0  0
  -22.5689   -4.6850   22.0643 C   0  0  0  0  0  0  0  0  0  0  0  0
  -24.3024  -11.7992   21.5662 C   0  0  0  0  0  0  0  0  0  0  0  0
  -30.1801  -18.2801   21.7646 C   0  0  0  0  0  0  0  0  0  0  0  0
  -25.0583  -13.7444   22.2591 C   0  0  0  0  0  0  0  0  0  0  0  0
  -29.6313  -20.6690   21.5609 C   0  0  0  0  0  0  0  0  0  0  0  0
  -28.1232  -25.2398   20.7773 C   0  0  0  0  0  0  0  0  0  1  0  0
  -23.7341  -12.4990   23.9749 C   0  0  0  0  0  0  0  0  0  0  0  0
  -29.0975  -24.3223   20.8023 C   0  0  0  0  0  0  0  0  0  0  0  0
  -28.9030  -23.0768   21.6141 C   0  0  0  0  0  0  0  0  0  0  0  0
  -24.9526  -32.2238   20.1648 C   0  0  0  0  0  0  0  0  0  0  0  0
  -24.4973  -31.8756   23.3576 C   0  0  0  0  0  0  0  0  0  0  0  0
  -24.8636  -29.9365   26.1419 C   0  0  0  0  0  0  0  0  0  0  0  0
  -29.4899  -15.8998   19.6398 C   0  0  0  0  0  0  0  0  0  0  0  0
  -23.1348  -35.1921   16.4308 C   0  0  0  0  0  0  0  0  0  0  0  0
  -23.8184  -29.9747   20.2691 C   0  0  0  0  0  0  0  0  0  0  0  0
  -26.0096  -30.1916   22.2430 C   0  0  0  0  0  0  0  0  0  0  0  0
  -23.2906  -35.3141   17.9445 C   0  0  0  0  0  0  0  0  0  0  0  0
  -26.6702  -15.0403   17.6430 C   0  0  0  0  0  0  0  0  0  0  0  0
  -24.7030  -34.9247   18.3689 C   0  0  0  0  0  0  0  0  0  0  0  0
  -25.8083  -14.1869   18.5751 C   0  0  0  0  0  0  0  0  0  0  0  0
  -28.1602  -14.7922   17.8673 C   0  0  0  0  0  0  0  0  0  0  0  0
  -27.7489  -14.0950   20.1951 C   0  0  0  0  0  0  0  0  0  0  0  0
  -25.0045  -33.4649   18.0089 C   0  0  1  0  0  0  0  0  0  0  0  0
  -24.1218  -31.2836   20.9915 C   0  0  1  0  0  0  0  0  0  0  0  0
  -26.2396  -14.3516   20.0448 C   0  0  2  0  0  0  0  0  0  0  0  0
  -28.8605  -17.8469   23.8797 C   0  0  0  0  0  0  0  0  0  0  0  0
  -24.4294  -29.9364   28.6135 C   0  0  0  0  0  0  0  0  0  0  0  0
  -26.8786  -33.7374   23.7736 C   0  0  0  0  0  0  0  0  0  0  0  0
  -26.9876  -32.9535   26.1488 C   0  0  0  0  0  0  0  0  0  0  0  0
  -24.9560  -34.1411   25.3212 C   0  0  0  0  0  0  0  0  0  0  0  0
  -23.0729  -27.5885   25.9445 C   0  0  0  0  0  0  0  0  0  0  0  0
  -30.7332  -16.9277   21.5257 C   0  0  0  0  0  0  0  0  0  0  0  0
  -25.4022  -31.7713   24.5614 C   0  0  1  0  0  0  0  0  0  0  0  0
  -23.8885  -29.5602   27.2428 C   0  0  2  0  0  0  0  0  0  0  0  0
  -26.0577  -33.1322   24.9298 C   0  0  0  0  0  0  0  0  0  0  0  0
  -24.9693  -12.2914   20.5188 N   0  0  0  0  0  0  0  0  0  0  0  0
  -25.4171  -13.4750   20.9711 N   0  0  0  0  0  0  0  0  0  0  0  0
  -24.8358  -31.0802   22.2537 N   0  0  0  0  0  0  0  0  0  0  0  0
  -28.5039  -14.9660   19.2807 N   0  0  0  0  0  0  0  0  0  0  0  0
  -25.4252  -14.8909   22.8701 N   0  0  0  0  0  0  0  0  0  0  0  0
  -23.0133  -11.3263   24.2384 N   0  0  0  0  0  0  0  0  0  0  0  0
  -29.5838  -21.9962   21.0702 N   0  0  0  0  0  0  0  0  0  0  0  0
  -24.3765  -32.5703   18.9575 N   0  0  0  0  0  0  0  0  0  0  0  0
  -24.5963  -31.1880   25.6285 N   0  0  0  0  0  0  0  0  0  0  0  0
  -29.7502  -16.0064   21.0005 N   0  0  0  0  0  0  0  0  0  0  0  0
  -23.6296  -28.0927   27.2262 N   0  3  0  0  0  0  0  0  0  0  0  0
  -23.8287  -13.3751   24.8677 O   0  0  0  0  0  0  0  0  0  0  0  0
  -28.2113  -23.0863   22.6267 O   0  0  0  0  0  0  0  0  0  0  0  0
  -26.0353  -32.6077   20.5913 O   0  0  0  0  0  0  0  0  0  0  0  0
  -23.5218  -32.6296   23.3978 O   0  0  0  0  0  0  0  0  0  0  0  0
  -25.7739  -29.1959   25.7766 O   0  0  0  0  0  0  0  0  0  0  0  0
  -30.0896  -16.5913   18.8097 O   0  0  0  0  0  0  0  0  0  0  0  0
  -30.2795  -24.4758   20.1067 O   0  0  0  0  0  0  0  0  0  0  0  0
  -21.8106   -6.8060   21.2126 O   0  0  0  0  0  0  0  0  0  0  0  0
  -28.2111  -26.4033   20.0658 O   0  0  0  0  0  0  0  0  0  1  0  0
  -22.4610   -3.3199   25.4350 F   0  0  0  0  0  0  0  0  0  0  0  0
  -22.9861   -4.3315   20.8408 F   0  0  0  0  0  0  0  0  0  0  0  0
  -30.5635  -19.5412   20.6714 S   0  0  0  0  0  0  0  0  0  0  0  0
  1  2  1  0  0  0  0
  1  5  2  0  0  0  0
  2  6  2  0  0  0  0
  3  8  2  0  0  0  0
  3 16  1  0  0  0  0
  4  9  1  0  0  0  0
  4 16  2  0  0  0  0
  5 18  1  0  0  0  0
  6 20  1  0  0  0  0
  7 10  2  0  0  0  0
  7 19  1  0  0  0  0
  8 23  1  0  0  0  0
  9 23  2  0  0  0  0
 10 24  1  0  0  0  0
 11 12  2  0  0  0  0
 11 25  1  0  0  0  0
 12 26  1  0  0  0  0
 13 21  1  0  0  0  0
 13 24  2  0  0  0  0
 14 22  1  0  0  0  0
 14 31  2  0  0  0  0
 15 26  2  0  0  0  0
 15 27  1  0  0  0  0
 16 28  1  0  0  0  0
 17 28  1  0  0  0  0
 17 30  2  0  0  0  0
 17 33  1  0  0  0  0
 18 20  2  0  0  0  0
 18 40  1  0  0  0  0
 19 21  2  0  0  0  0
 19 41  1  0  0  0  0
 20 49  1  0  0  0  0
 21 42  1  0  0  0  0
 22 29  2  0  0  0  0
 22 52  1  0  0  0  0
 23 80  1  0  0  0  0
 24 81  1  0  0  0  0
 25 27  2  0  0  0  0
 25 80  1  0  0  0  0
 26 82  1  0  0  0  0
 27 83  1  0  0  0  0
 28 62  2  0  0  0  0
 29 58  1  0  0  0  0
 29 84  1  0  0  0  0
 30 63  1  0  0  0  0
 30 66  1  0  0  0  0
 31 68  1  0  0  0  0
 31 84  1  0  0  0  0
 32 34  2  0  0  0  0
 32 81  1  0  0  0  0
 33 67  1  0  0  0  0
 33 73  2  0  0  0  0
 34 35  1  0  0  0  0
 34 79  1  0  0  0  0
 35 68  1  0  0  0  0
 35 74  2  0  0  0  0
 36 50  1  0  0  0  0
 36 69  1  0  0  0  0
 36 75  2  0  0  0  0
 37 59  1  0  0  0  0
 37 64  1  0  0  0  0
 37 76  2  0  0  0  0
 38 60  1  0  0  0  0
 38 70  1  0  0  0  0
 38 77  2  0  0  0  0
 39 65  1  0  0  0  0
 39 71  1  0  0  0  0
 39 78  2  0  0  0  0
 40 43  1  0  0  0  0
 41 50  1  0  0  0  0
 42 64  1  0  0  0  0
 43 45  1  0  0  0  0
 44 46  1  0  0  0  0
 44 47  1  0  0  0  0
 45 49  1  0  0  0  0
 46 51  1  0  0  0  0
 47 65  1  0  0  0  0
 48 51  1  0  0  0  0
 48 65  1  0  0  0  0
 49 69  1  0  0  0  0
 50 64  1  0  0  0  0
 51 63  1  0  0  0  0
 53 60  1  0  0  0  0
 54 61  1  0  0  0  0
 55 61  1  0  0  0  0
 56 61  1  0  0  0  0
 57 72  1  0  0  0  0
 58 71  1  0  0  0  0
 59 61  1  0  0  0  0
 59 70  1  0  0  0  0
 60 72  1  0  0  0  0
 62 63  1  0  0  0  0
M  CHG  1  72   1
M  ISO  4  32 101  39 100  71 100  81 101
M  END
> <Batch ID>
0182

> <Smiles>
CNC(C)C(=O)NC(C(=O)N1Cc2cc([101O:1][101CH2:1]C(=O)C(=O)Nc3cc(C)c(C[100NH:0][100C:0](=O)N4CCCC(n5nc(-c6ccc(Oc7ccc(F)cc7F)cc6)c(C(N)=O)c5N)C4)s3)ccc2CC1C(=O)NC1CCCc2ccccc21)C(C)(C)C

> <Shape>
0.294

> <Color>
0.133

> <Negative vol penalty>
0.000

$$$$

  -OEChem-04052304563D

 84 92  0     1  0  0  0  0  0999 V2000
  -22.4444  -37.3480   18.1075 C   0  0  0  0  0  0  0  0  0  0  0  0
  -22.7703  -36.1327   17.5140 C   0  0  0  0  0  0  0  0  0  0  0  0
  -24.2341   -8.9556   22.7392 C   0  0  0  0  0  0  0  0  0  0  0  0
  -23.6841  -10.1250   20.6979 C   0  0  0  0  0  0  0  0  0  0  0  0
  -23.0315  -37.7105   19.3190 C   0  0  0  0  0  0  0  0  0  0  0  0
  -23.6844  -35.2796   18.1313 C   0  0  0  0  0  0  0  0  0  0  0  0
  -25.1136  -28.3139   18.9990 C   0  0  0  0  0  0  0  0  0  0  0  0
  -23.2353   -8.0194   22.4720 C   0  0  0  0  0  0  0  0  0  0  0  0
  -22.6853   -9.1887   20.4306 C   0  0  0  0  0  0  0  0  0  0  0  0
  -26.1590  -27.4028   18.8551 C   0  0  0  0  0  0  0  0  0  0  0  0
  -22.8291   -5.3055   20.4966 C   0  0  0  0  0  0  0  0  0  0  0  0
  -23.1407   -3.9572   20.6721 C   0  0  0  0  0  0  0  0  0  0  0  0
  -27.0503  -28.0982   20.9861 C   0  0  0  0  0  0  0  0  0  0  0  0
  -21.3839   -3.7658   22.3196 C   0  0  0  0  0  0  0  0  0  0  0  0
  -24.4585  -10.0085   21.8522 C   0  0  0  0  0  0  0  0  0  0  0  0
  -26.8390  -10.9175   21.7304 C   0  0  0  0  0  0  0  0  0  0  0  0
  -23.9459  -36.8571   19.9563 C   0  0  0  0  0  0  0  0  0  0  0  0
  -25.0345  -29.1330   20.1344 C   0  0  0  0  0  0  0  0  0  0  0  0
  -24.2853  -35.6315   19.3519 C   0  0  0  0  0  0  0  0  0  0  0  0
  -26.0015  -29.0170   21.1432 C   0  0  0  0  0  0  0  0  0  0  0  0
  -29.8998  -19.3923   19.6211 C   0  0  0  0  0  0  0  0  0  0  0  0
  -29.5726  -18.1383   20.2133 C   0  0  0  0  0  0  0  0  0  0  0  0
  -22.4609   -8.1359   21.3178 C   0  0  0  0  0  0  0  0  0  0  0  0
  -27.1292  -27.2969   19.8473 C   0  0  0  0  0  0  0  0  0  0  0  0
  -21.7950   -5.8839   21.2326 C   0  0  0  0  0  0  0  0  0  0  0  0
  -22.4180   -3.1874   21.5836 C   0  0  0  0  0  0  0  0  0  0  0  0
  -21.0723   -5.1140   22.1440 C   0  0  0  0  0  0  0  0  0  0  0  0
  -25.4898  -10.9763   22.1279 C   0  0  0  0  0  0  0  0  0  0  0  0
  -27.3965  -12.0659   22.2371 C   0  0  0  0  0  0  0  0  0  0  0  0
  -29.2642  -20.4418   20.2473 C   0  0  0  0  0  0  0  0  0  0  0  0
  -28.6995  -18.2773   21.2699 C   0  0  0  0  0  0  0  0  0  0  0  0
  -27.9755  -25.1447   20.1977 C   0  0  0  0  0  0  0  0  0  1  0  0
  -27.5268   -9.9144   20.9711 C   0  0  0  0  0  0  0  0  0  0  0  0
  -28.9124  -24.1923   20.1163 C   0  0  0  0  0  0  0  0  0  0  0  0
  -28.6211  -22.8349   20.6828 C   0  0  0  0  0  0  0  0  0  0  0  0
  -25.1044  -32.2693   20.6469 C   0  0  0  0  0  0  0  0  0  0  0  0
  -24.4309  -31.3924   23.6965 C   0  0  0  0  0  0  0  0  0  0  0  0
  -24.5461  -28.9833   26.1110 C   0  0  0  0  0  0  0  0  0  0  0  0
  -27.2362  -17.5500   23.1872 C   0  0  0  0  0  0  0  0  0  0  0  0
  -24.5904  -37.3131   21.2413 C   0  0  0  0  0  0  0  0  0  0  0  0
  -23.8857  -30.0919   20.2870 C   0  0  0  0  0  0  0  0  0  0  0  0
  -25.9507  -29.8592   22.3909 C   0  0  0  0  0  0  0  0  0  0  0  0
  -25.2658  -36.1855   22.0176 C   0  0  0  0  0  0  0  0  0  0  0  0
  -25.5564  -15.4501   25.5208 C   0  0  0  0  0  0  0  0  0  0  0  0
  -26.1164  -35.3298   21.0843 C   0  0  0  0  0  0  0  0  0  0  0  0
  -25.5003  -14.0941   24.8134 C   0  0  0  0  0  0  0  0  0  0  0  0
  -25.3773  -16.6086   24.5412 C   0  0  0  0  0  0  0  0  0  0  0  0
  -26.2309  -15.2372   22.6811 C   0  0  0  0  0  0  0  0  0  0  0  0
  -25.2536  -34.6680   20.0031 C   0  0  1  0  0  0  0  0  0  0  0  0
  -24.1886  -31.2395   21.2455 C   0  0  1  0  0  0  0  0  0  0  0  0
  -26.4712  -14.0418   23.6176 C   0  0  2  0  0  0  0  0  0  0  0  0
  -30.8170  -19.5521   18.4649 C   0  0  0  0  0  0  0  0  0  0  0  0
  -30.1112  -16.8353   19.7491 C   0  0  0  0  0  0  0  0  0  0  0  0
  -23.9529  -28.5734   28.5146 C   0  0  0  0  0  0  0  0  0  0  0  0
  -26.8457  -33.0399   24.5709 C   0  0  0  0  0  0  0  0  0  0  0  0
  -26.7723  -31.8504   26.7727 C   0  0  0  0  0  0  0  0  0  0  0  0
  -24.8426  -33.2576   26.0523 C   0  0  0  0  0  0  0  0  0  0  0  0
  -22.6886  -26.7919   25.3995 C   0  0  0  0  0  0  0  0  0  0  0  0
  -25.2516  -31.0380   24.9130 C   0  0  1  0  0  0  0  0  0  0  0  0
  -23.4888  -28.4673   27.0702 C   0  0  2  0  0  0  0  0  0  0  0  0
  -25.9304  -32.2818   25.5529 C   0  0  0  0  0  0  0  0  0  0  0  0
  -25.2073  -12.0750   22.8328 N   0  0  0  0  0  0  0  0  0  0  0  0
  -26.3868  -12.7172   22.8824 N   0  0  0  0  0  0  0  0  0  0  0  0
  -24.8115  -30.7863   22.4908 N   0  0  0  0  0  0  0  0  0  0  0  0
  -26.3332  -16.4951   23.4374 N   0  0  0  0  0  0  0  0  0  0  0  0
  -28.6471  -12.5720   22.1892 N   0  0  0  0  0  0  0  0  0  0  0  0
  -26.8033   -8.7989   20.5278 N   0  0  0  0  0  0  0  0  0  0  0  0
  -29.2964  -21.8349   19.9967 N   0  0  0  0  0  0  0  0  0  0  0  0
  -28.1188  -17.3155   22.1333 N   0  0  0  0  0  0  0  0  0  0  0  0
  -24.5459  -33.5293   20.5479 N   0  0  0  0  0  0  0  0  0  0  0  0
  -24.3578  -30.3162   25.8122 N   0  0  0  0  0  0  0  0  0  0  0  0
  -23.1789  -27.0388   26.7799 N   0  3  0  0  0  0  0  0  0  0  0  0
  -28.7505   -9.9968   20.7079 O   0  0  0  0  0  0  0  0  0  0  0  0
  -27.8661  -22.7004   21.6397 O   0  0  0  0  0  0  0  0  0  0  0  0
  -26.2347  -31.9451   20.3018 O   0  0  0  0  0  0  0  0  0  0  0  0
  -23.4826  -32.1726   23.8131 O   0  0  0  0  0  0  0  0  0  0  0  0
  -25.4509  -28.2758   25.6736 O   0  0  0  0  0  0  0  0  0  0  0  0
  -27.2452  -18.5736   23.8756 O   0  0  0  0  0  0  0  0  0  0  0  0
  -30.1418  -24.4090   19.5279 O   0  0  0  0  0  0  0  0  0  0  0  0
  -21.4864   -7.2223   21.0566 O   0  0  0  0  0  0  0  0  0  0  0  0
  -28.1511  -26.4089   19.7091 O   0  0  0  0  0  0  0  0  0  1  0  0
  -22.7163   -1.8923   21.7509 F   0  0  0  0  0  0  0  0  0  0  0  0
  -20.0770   -5.6639   22.8531 F   0  0  0  0  0  0  0  0  0  0  0  0
  -28.2778  -19.9142   21.5438 S   0  0  0  0  0  0  0  0  0  0  0  0
  1  2  1  0  0  0  0
  1  5  2  0  0  0  0
  2  6  2  0  0  0  0
  3  8  2  0  0  0  0
  3 15  1  0  0  0  0
  4  9  1  0  0  0  0
  4 15  2  0  0  0  0
  5 17  1  0  0  0  0
  6 19  1  0  0  0  0
  7 10  2  0  0  0  0
  7 18  1  0  0  0  0
  8 23  1  0  0  0  0
  9 23  2  0  0  0  0
 10 24  1  0  0  0  0
 11 12  2  0  0  0  0
 11 25  1  0  0  0  0
 12 26  1  0  0  0  0
 13 20  1  0  0  0  0
 13 24  2  0  0  0  0
 14 26  2  0  0  0  0
 14 27  1  0  0  0  0
 15 28  1  0  0  0  0
 16 28  1  0  0  0  0
 16 29  2  0  0  0  0
 16 33  1  0  0  0  0
 17 19  2  0  0  0  0
 17 40  1  0  0  0  0
 18 20  2  0  0  0  0
 18 41  1  0  0  0  0
 19 49  1  0  0  0  0
 20 42  1  0  0  0  0
 21 22  1  0  0  0  0
 21 30  2  0  0  0  0
 21 52  1  0  0  0  0
 22 31  2  0  0  0  0
 22 53  1  0  0  0  0
 23 80  1  0  0  0  0
 24 81  1  0  0  0  0
 25 27  2  0  0  0  0
 25 80  1  0  0  0  0
 26 82  1  0  0  0  0
 27 83  1  0  0  0  0
 28 62  2  0  0  0  0
 29 63  1  0  0  0  0
 29 66  1  0  0  0  0
 30 68  1  0  0  0  0
 30 84  1  0  0  0  0
 31 69  1  0  0  0  0
 31 84  1  0  0  0  0
 32 34  2  0  0  0  0
 32 81  1  0  0  0  0
 33 67  1  0  0  0  0
 33 73  2  0  0  0  0
 34 35  1  0  0  0  0
 34 79  1  0  0  0  0
 35 68  1  0  0  0  0
 35 74  2  0  0  0  0
 36 50  1  0  0  0  0
 36 70  1  0  0  0  0
 36 75  2  0  0  0  0
 37 59  1  0  0  0  0
 37 64  1  0  0  0  0
 37 76  2  0  0  0  0
 38 60  1  0  0  0  0
 38 71  1  0  0  0  0
 38 77  2  0  0  0  0
 39 65  1  0  0  0  0
 39 69  1  0  0  0  0
 39 78  2  0  0  0  0
 40 43  1  0  0  0  0
 41 50  1  0  0  0  0
 42 64  1  0  0  0  0
 43 45  1  0  0  0  0
 44 46  1  0  0  0  0
 44 47  1  0  0  0  0
 45 49  1  0  0  0  0
 46 51  1  0  0  0  0
 47 65  1  0  0  0  0
 48 51  1  0  0  0  0
 48 65  1  0  0  0  0
 49 70  1  0  0  0  0
 50 64  1  0  0  0  0
 51 63  1  0  0  0  0
 54 60  1  0  0  0  0
 55 61  1  0  0  0  0
 56 61  1  0  0  0  0
 57 61  1  0  0  0  0
 58 72  1  0  0  0  0
 59 61  1  0  0  0  0
 59 71  1  0  0  0  0
 60 72  1  0  0  0  0
 62 63  1  0  0  0  0
M  CHG  1  72   1
M  ISO  4  32 101  39 100  69 100  81 101
M  END
> <Batch ID>
0182

> <Smiles>
CNC(C)C(=O)NC(C(=O)N1Cc2cc([101O:1][101CH2:1]C(=O)C(=O)Nc3sc([100NH:0][100C:0](=O)N4CCCC(n5nc(-c6ccc(Oc7ccc(F)cc7F)cc6)c(C(N)=O)c5N)C4)c(C)c3C)ccc2CC1C(=O)NC1CCCc2ccccc21)C(C)(C)C

> <Shape>
0.253

> <Color>
0.103

> <Negative vol penalty>
0.000

$$$$

  -OEChem-04052304563D

 84 92  0     1  0  0  0  0  0999 V2000
  -29.8739  -34.1456   25.3970 C   0  0  0  0  0  0  0  0  0  0  0  0
  -29.9276  -33.3574   24.2519 C   0  0  0  0  0  0  0  0  0  0  0  0
  -24.0189   -9.6628   21.8130 C   0  0  0  0  0  0  0  0  0  0  0  0
  -21.9624  -10.6208   20.9824 C   0  0  0  0  0  0  0  0  0  0  0  0
  -29.0801  -33.7547   26.4744 C   0  0  0  0  0  0  0  0  0  0  0  0
  -29.1883  -32.1770   24.1841 C   0  0  0  0  0  0  0  0  0  0  0  0
  -26.5070  -29.7925   19.2211 C   0  0  0  0  0  0  0  0  0  0  0  0
  -23.4477   -8.3914   21.7612 C   0  0  0  0  0  0  0  0  0  0  0  0
  -21.3911   -9.3493   20.9306 C   0  0  0  0  0  0  0  0  0  0  0  0
  -26.8962  -28.7881   18.3360 C   0  0  0  0  0  0  0  0  0  0  0  0
  -21.3121   -6.5432   23.6182 C   0  0  0  0  0  0  0  0  0  0  0  0
  -21.5032   -5.7025   24.7147 C   0  0  0  0  0  0  0  0  0  0  0  0
  -25.5911  -27.1898   19.5855 C   0  0  0  0  0  0  0  0  0  0  0  0
  -22.6016   -4.0914   23.2881 C   0  0  0  0  0  0  0  0  0  0  0  0
  -23.2763  -10.7775   21.4237 C   0  0  0  0  0  0  0  0  0  0  0  0
  -24.5820  -12.7441   20.4565 C   0  0  0  0  0  0  0  0  0  0  0  0
  -28.3231  -32.5739   26.4160 C   0  0  0  0  0  0  0  0  0  0  0  0
  -25.6643  -29.5005   20.3032 C   0  0  0  0  0  0  0  0  0  0  0  0
  -28.3846  -31.7692   25.2623 C   0  0  0  0  0  0  0  0  0  0  0  0
  -25.1906  -28.1928   20.4814 C   0  0  0  0  0  0  0  0  0  0  0  0
  -22.1337   -8.2346   21.3200 C   0  0  0  0  0  0  0  0  0  0  0  0
  -26.4405  -27.4859   18.5198 C   0  0  0  0  0  0  0  0  0  0  0  0
  -21.7658   -6.1580   22.3566 C   0  0  0  0  0  0  0  0  0  0  0  0
  -22.1479   -4.4766   24.5497 C   0  0  0  0  0  0  0  0  0  0  0  0
  -22.4105   -4.9321   22.1916 C   0  0  0  0  0  0  0  0  0  0  0  0
  -23.8657  -12.0912   21.4775 C   0  0  0  0  0  0  0  0  0  0  0  0
  -24.0520  -21.9412   20.4118 C   0  0  0  0  0  0  0  0  0  0  0  0
  -24.1132  -22.3158   21.7378 C   0  0  0  0  0  0  0  0  0  0  0  0
  -24.9264  -13.9573   21.0004 C   0  0  0  0  0  0  0  0  0  0  0  0
  -23.8402  -20.1577   22.0171 C   0  0  0  0  0  0  0  0  0  0  0  0
  -24.9068  -12.2941   19.1345 C   0  0  0  0  0  0  0  0  0  0  0  0
  -24.1558  -22.8482   19.2503 C   0  0  0  0  0  0  0  0  0  0  0  0
  -25.9361  -29.6642   23.4660 C   0  0  0  0  0  0  0  0  0  0  0  0
  -22.7948  -28.8590   23.3874 C   0  0  0  0  0  0  0  0  0  0  0  0
  -20.2198  -27.3987   21.6892 C   0  0  0  0  0  0  0  0  0  0  0  0
  -25.5656  -24.5026   18.0456 C   0  0  0  0  0  0  0  0  0  0  0  0
  -23.6538  -18.5220   23.9240 C   0  0  0  0  0  0  0  0  0  0  0  0
  -27.5166  -32.1681   27.6241 C   0  0  0  0  0  0  0  0  0  0  0  0
  -25.2322  -30.6006   21.2335 C   0  0  0  0  0  0  0  0  0  0  0  0
  -24.2679  -27.8313   21.6156 C   0  0  0  0  0  0  0  0  0  0  0  0
  -26.4719  -31.0955   27.3268 C   0  0  0  0  0  0  0  0  0  0  0  0
  -24.6257  -15.6347   25.7667 C   0  0  0  0  0  0  0  0  0  0  0  0
  -27.0821  -29.9720   26.4949 C   0  0  0  0  0  0  0  0  0  0  0  0
  -24.5736  -14.5091   24.7311 C   0  0  0  0  0  0  0  0  0  0  0  0
  -23.5067  -16.6528   25.5547 C   0  0  0  0  0  0  0  0  0  0  0  0
  -23.3688  -16.0820   23.1621 C   0  0  0  0  0  0  0  0  0  0  0  0
  -27.5778  -30.4947   25.1411 C   0  0  1  0  0  0  0  0  0  0  0  0
  -24.7844  -30.0873   22.5986 C   0  0  1  0  0  0  0  0  0  0  0  0
  -24.5155  -15.0666   23.2953 C   0  0  2  0  0  0  0  0  0  0  0  0
  -24.2950  -23.6905   22.2489 C   0  0  0  0  0  0  0  0  0  0  0  0
  -17.7778  -26.8596   21.8969 C   0  0  0  0  0  0  0  0  0  0  0  0
  -27.9751  -24.4287   17.4005 C   0  0  0  0  0  0  0  0  0  0  0  0
  -23.4657  -26.5596   25.2775 C   0  0  0  0  0  0  0  0  0  0  0  0
  -21.2589  -25.5299   24.6961 C   0  0  0  0  0  0  0  0  0  0  0  0
  -21.3376  -27.7606   25.8099 C   0  0  0  0  0  0  0  0  0  0  0  0
  -19.5353  -29.0535   19.3329 C   0  0  0  0  0  0  0  0  0  0  0  0
  -22.0236  -27.5612   23.3847 C   0  0  1  0  0  0  0  0  0  0  0  0
  -18.8043  -27.8690   21.4069 C   0  0  2  0  0  0  0  0  0  0  0  0
  -26.9118  -25.1794   18.1820 C   0  0  1  0  0  0  0  0  0  1  0  0
  -22.0404  -26.8589   24.7717 C   0  0  0  0  0  0  0  0  0  0  0  0
  -23.7608  -12.8285   22.5863 N   0  0  0  0  0  0  0  0  0  0  0  0
  -23.9916  -21.2945   22.6597 N   0  0  0  0  0  0  0  0  0  0  0  0
  -24.4157  -13.9572   22.2651 N   0  0  0  0  0  0  0  0  0  0  0  0
  -23.8789  -28.9406   22.5020 N   0  0  0  0  0  0  0  0  0  0  0  0
  -23.5160  -17.1402   24.1737 N   0  0  0  0  0  0  0  0  0  0  0  0
  -25.6134  -15.0134   20.5156 N   0  0  0  0  0  0  0  0  0  0  0  0
  -24.4753  -11.0212   18.7370 N   0  0  0  0  0  0  0  0  0  0  0  0
  -23.6822  -18.8637   22.5723 N   0  0  0  0  0  0  0  0  0  0  0  0
  -25.2780  -23.5669   19.1088 N   0  0  0  0  0  0  0  0  0  0  0  0
  -26.4658  -30.6833   24.2343 N   0  0  0  0  0  0  0  0  0  0  0  0
  -20.6878  -27.8813   22.8931 N   0  0  0  0  0  0  0  0  0  0  0  0
  -23.1234  -22.8994   18.4092 N   0  3  0  0  0  0  0  0  0  0  0  0
  -18.6067  -28.0674   19.9431 N   0  3  0  0  0  0  0  0  0  0  0  0
  -25.5745  -12.9933   18.3352 O   0  0  0  0  0  0  0  0  0  0  0  0
  -26.3151  -28.4991   23.4412 O   0  0  0  0  0  0  0  0  0  0  0  0
  -22.4438  -29.7695   24.1421 O   0  0  0  0  0  0  0  0  0  0  0  0
  -20.8463  -26.6726   20.9205 O   0  0  0  0  0  0  0  0  0  0  0  0
  -24.7625  -24.7188   17.1487 O   0  0  0  0  0  0  0  0  0  0  0  0
  -23.7676  -19.3391   24.8413 O   0  0  0  0  0  0  0  0  0  0  0  0
  -21.5760   -6.9941   21.2691 O   0  0  0  0  0  0  0  0  0  0  0  0
  -26.8194  -26.5034   17.6578 O   0  0  0  0  0  0  0  0  0  1  0  0
  -22.3327   -3.6701   25.6030 F   0  0  0  0  0  0  0  0  0  0  0  0
  -22.8495   -4.5572   20.9822 F   0  0  0  0  0  0  0  0  0  0  0  0
  -23.8354  -20.2434   20.3031 S   0  0  0  0  0  0  0  0  0  0  0  0
  1  2  1  0  0  0  0
  1  5  2  0  0  0  0
  2  6  2  0  0  0  0
  3  8  2  0  0  0  0
  3 15  1  0  0  0  0
  4  9  1  0  0  0  0
  4 15  2  0  0  0  0
  5 17  1  0  0  0  0
  6 19  1  0  0  0  0
  7 10  2  0  0  0  0
  7 18  1  0  0  0  0
  8 21  1  0  0  0  0
  9 21  2  0  0  0  0
 10 22  1  0  0  0  0
 11 12  2  0  0  0  0
 11 23  1  0  0  0  0
 12 24  1  0  0  0  0
 13 20  1  0  0  0  0
 13 22  2  0  0  0  0
 14 24  2  0  0  0  0
 14 25  1  0  0  0  0
 15 26  1  0  0  0  0
 16 26  1  0  0  0  0
 16 29  2  0  0  0  0
 16 31  1  0  0  0  0
 17 19  2  0  0  0  0
 17 38  1  0  0  0  0
 18 20  2  0  0  0  0
 18 39  1  0  0  0  0
 19 47  1  0  0  0  0
 20 40  1  0  0  0  0
 21 80  1  0  0  0  0
 22 81  1  0  0  0  0
 23 25  2  0  0  0  0
 23 80  1  0  0  0  0
 24 82  1  0  0  0  0
 25 83  1  0  0  0  0
 26 61  2  0  0  0  0
 27 28  2  0  0  0  0
 27 32  1  0  0  0  0
 27 84  1  0  0  0  0
 28 50  1  0  0  0  0
 28 62  1  0  0  0  0
 29 63  1  0  0  0  0
 29 66  1  0  0  0  0
 30 62  2  0  0  0  0
 30 68  1  0  0  0  0
 30 84  1  0  0  0  0
 31 67  1  0  0  0  0
 31 74  2  0  0  0  0
 32 69  1  0  0  0  0
 32 72  2  0  0  0  0
 33 48  1  0  0  0  0
 33 70  1  0  0  0  0
 33 75  2  0  0  0  0
 34 57  1  0  0  0  0
 34 64  1  0  0  0  0
 34 76  2  0  0  0  0
 35 58  1  0  0  0  0
 35 71  1  0  0  0  0
 35 77  2  0  0  0  0
 36 59  1  0  0  0  0
 36 69  1  0  0  0  0
 36 78  2  0  0  0  0
 37 65  1  0  0  0  0
 37 68  1  0  0  0  0
 37 79  2  0  0  0  0
 38 41  1  0  0  0  0
 39 48  1  0  0  0  0
 40 64  1  0  0  0  0
 41 43  1  0  0  0  0
 42 44  1  0  0  0  0
 42 45  1  0  0  0  0
 43 47  1  0  0  0  0
 44 49  1  0  0  0  0
 45 65  1  0  0  0  0
 46 49  1  0  0  0  0
 46 65  1  0  0  0  0
 47 70  1  0  0  0  0
 48 64  1  0  0  0  0
 49 63  1  0  0  0  0
 51 58  1  0  0  0  0
 52 59  1  0  0  0  0
 53 60  1  0  0  0  0
 54 60  1  0  0  0  0
 55 60  1  0  0  0  0
 56 73  1  0  0  0  0
 57 60  1  0  0  0  0
 57 71  1  0  0  0  0
 58 73  1  0  0  0  0
 59 81  1  0  0  0  0
 61 63  1  0  0  0  0
M  CHG  2  72   1  73   1
M  ISO  4  37 100  59 101  68 100  81 101
M  END
> <Batch ID>
0182

> <Smiles>
CNC(C)C(=O)NC(C(=O)N1Cc2cc([101O:1][101CH:1](C)C(=O)NC(=N)c3sc([100NH:0][100C:0](=O)N4CCCC(n5nc(-c6ccc(Oc7ccc(F)cc7F)cc6)c(C(N)=O)c5N)C4)nc3C)ccc2CC1C(=O)NC1CCCc2ccccc21)C(C)(C)C

> <Shape>
0.237

> <Color>
0.106

> <Negative vol penalty>
0.000

$$$$

  -OEChem-04052304563D

 87 95  0     1  0  0  0  0  0999 V2000
  -27.7993  -12.6381   11.2195 C   0  0  0  0  0  0  0  0  0  0  0  0
  -28.3956  -13.3354   12.2654 C   0  0  0  0  0  0  0  0  0  0  0  0
  -23.0826   -9.8830   19.8824 C   0  0  0  0  0  0  0  0  0  0  0  0
  -23.8200   -9.8678   22.1831 C   0  0  0  0  0  0  0  0  0  0  0  0
  -28.1338  -11.3037   10.9927 C   0  0  0  0  0  0  0  0  0  0  0  0
  -29.3259  -12.6982   13.0857 C   0  0  0  0  0  0  0  0  0  0  0  0
  -33.4123  -15.5547   13.9725 C   0  0  0  0  0  0  0  0  0  0  0  0
  -30.2572  -18.9347   23.2334 C   0  0  0  0  0  0  0  0  0  0  0  0
  -22.3347   -8.7287   20.1145 C   0  0  0  0  0  0  0  0  0  0  0  0
  -23.0721   -8.7135   22.4152 C   0  0  0  0  0  0  0  0  0  0  0  0
  -33.2855  -16.5713   14.9181 C   0  0  0  0  0  0  0  0  0  0  0  0
  -19.3713   -7.9232   21.5295 C   0  0  0  0  0  0  0  0  0  0  0  0
  -18.0692   -7.8834   21.0312 C   0  0  0  0  0  0  0  0  0  0  0  0
  -31.5276  -19.3420   22.8420 C   0  0  0  0  0  0  0  0  0  0  0  0
  -34.3648  -15.1711   16.5593 C   0  0  0  0  0  0  0  0  0  0  0  0
  -18.6391   -5.9517   19.6966 C   0  0  0  0  0  0  0  0  0  0  0  0
  -23.8253  -10.4525   20.9167 C   0  0  0  0  0  0  0  0  0  0  0  0
  -24.1718  -12.9782   20.8232 C   0  0  0  0  0  0  0  0  0  0  0  0
  -29.0758  -10.6527   11.8047 C   0  0  0  0  0  0  0  0  0  0  0  0
  -34.0075  -14.3326   14.3168 C   0  0  0  0  0  0  0  0  0  0  0  0
  -29.6722  -11.3534   12.8704 C   0  0  0  0  0  0  0  0  0  0  0  0
  -34.5002  -14.1415   15.6156 C   0  0  0  0  0  0  0  0  0  0  0  0
  -29.7620  -17.7094   22.8010 C   0  0  0  0  0  0  0  0  0  0  0  0
  -22.3294   -8.1440   21.3809 C   0  0  0  0  0  0  0  0  0  0  0  0
  -33.7592  -16.3786   16.2125 C   0  0  0  0  0  0  0  0  0  0  0  0
  -20.3074   -6.9773   21.1114 C   0  0  0  0  0  0  0  0  0  0  0  0
  -17.7030   -6.8976   20.1147 C   0  0  0  0  0  0  0  0  0  0  0  0
  -19.9413   -5.9916   20.1950 C   0  0  0  0  0  0  0  0  0  0  0  0
  -24.5985  -11.6446   20.6774 C   0  0  0  0  0  0  0  0  0  0  0  0
  -32.2572  -18.4943   22.0240 C   0  0  0  0  0  0  0  0  0  0  0  0
  -30.5704  -16.9349   21.9847 C   0  0  0  0  0  0  0  0  0  0  0  0
  -25.2685  -13.7293   20.4775 C   0  0  0  0  0  0  0  0  0  0  0  0
  -22.8980  -13.4920   21.2344 C   0  0  0  0  0  0  0  0  0  0  0  0
  -33.0294  -11.3097   14.4131 C   0  0  0  0  0  0  0  0  0  0  0  0
  -33.9137  -18.2927   19.3606 C   0  0  0  0  0  0  0  0  0  0  0  0
  -36.1485  -10.7304   15.0903 C   0  0  0  0  0  0  0  0  0  0  0  0
  -39.1128  -11.8977   16.3137 C   0  0  0  0  0  0  0  0  0  0  0  0
  -30.7342  -14.7652   20.7152 C   0  0  0  0  0  0  0  0  0  0  0  0
  -29.3700   -9.1956   11.5501 C   0  0  0  0  0  0  0  0  0  0  0  0
  -34.1608  -13.2557   13.2778 C   0  0  0  0  0  0  0  0  0  0  0  0
  -35.1654  -12.8554   16.0301 C   0  0  0  0  0  0  0  0  0  0  0  0
  -30.6434   -8.7030   12.2328 C   0  0  0  0  0  0  0  0  0  0  0  0
  -29.6396  -12.3748   18.3141 C   0  0  0  0  0  0  0  0  0  0  0  0
  -30.6876   -9.1731   13.6833 C   0  0  0  0  0  0  0  0  0  0  0  0
  -28.1954  -12.0815   18.7269 C   0  0  0  0  0  0  0  0  0  0  0  0
  -30.5433  -12.5912   19.5267 C   0  0  0  0  0  0  0  0  0  0  0  0
  -28.6239  -13.3058   20.8958 C   0  0  0  0  0  0  0  0  0  0  0  0
  -30.7043  -10.7042   13.7667 C   0  0  1  0  0  0  0  0  0  0  0  0
  -34.3205  -11.8631   13.8798 C   0  0  1  0  0  0  0  0  0  0  0  0
  -27.6624  -13.1448   19.7070 C   0  0  2  0  0  0  0  0  0  0  0  0
  -41.4729  -11.1803   16.7748 C   0  0  0  0  0  0  0  0  0  0  0  0
  -35.1999   -9.2025   17.5552 C   0  0  0  0  0  0  0  0  0  0  0  0
  -37.5336   -9.3385   18.4516 C   0  0  0  0  0  0  0  0  0  0  0  0
  -37.0871   -8.1218   16.3202 C   0  0  0  0  0  0  0  0  0  0  0  0
  -40.2136  -13.9195   14.4538 C   0  0  0  0  0  0  0  0  0  0  0  0
  -34.1434  -17.1035   18.4447 C   0  0  0  0  0  0  0  0  0  1  0  0
  -34.4003  -18.1429   20.7955 C   0  0  1  0  0  0  0  0  0  0  0  0
  -36.9706  -10.6472   16.3536 C   0  0  1  0  0  0  0  0  0  0  0  0
  -40.5278  -11.8197   15.7695 C   0  0  2  0  0  0  0  0  0  0  0  0
  -36.6836   -9.3511   17.1632 C   0  0  0  0  0  0  0  0  0  0  0  0
  -35.8307  -18.6100   20.9791 C   0  0  0  0  0  0  0  0  0  0  0  0
  -25.8673  -11.5507   20.2707 N   0  0  0  0  0  0  0  0  0  0  0  0
  -31.8097  -17.2970   21.5837 N   0  0  0  0  0  0  0  0  0  0  0  0
  -26.2472  -12.8348   20.1578 N   0  0  0  0  0  0  0  0  0  0  0  0
  -35.2861  -11.8304   14.9802 N   0  0  0  0  0  0  0  0  0  0  0  0
  -29.9772  -13.6148   20.4080 N   0  0  0  0  0  0  0  0  0  0  0  0
  -28.4760  -17.2954   23.1960 N   0  0  0  0  0  0  0  0  0  0  0  0
  -25.4815  -15.0611   20.4188 N   0  0  0  0  0  0  0  0  0  0  0  0
  -21.8816  -12.5813   21.5534 N   0  0  0  0  0  0  0  0  0  0  0  0
  -30.0801  -15.6836   21.5357 N   0  0  0  0  0  0  0  0  0  0  0  0
  -33.5211  -18.9145   21.6421 N   0  0  0  0  0  0  0  0  0  0  0  0
  -32.0261  -11.2122   13.4680 N   0  0  0  0  0  0  0  0  0  0  0  0
  -38.3628  -10.8008   15.9456 N   0  0  0  0  0  0  0  0  0  0  0  0
  -41.0354  -13.1838   15.4490 N   0  3  0  0  0  0  0  0  0  0  0  0
  -22.6629  -14.7224   21.3008 O   0  0  0  0  0  0  0  0  0  0  0  0
  -32.9499  -10.9931   15.5943 O   0  0  0  0  0  0  0  0  0  0  0  0
  -33.3613  -19.3165   18.9581 O   0  0  0  0  0  0  0  0  0  0  0  0
  -36.2723   -9.8555   14.2295 O   0  0  0  0  0  0  0  0  0  0  0  0
  -38.7139  -12.8359   17.0002 O   0  0  0  0  0  0  0  0  0  0  0  0
  -31.8680  -14.9365   20.2602 O   0  0  0  0  0  0  0  0  0  0  0  0
  -21.5996   -7.0178   21.6078 O   0  0  0  0  0  0  0  0  0  0  0  0
  -33.6361  -17.3690   17.1376 O   0  0  0  0  0  0  0  0  0  1  0  0
  -16.4521   -6.8585   19.6374 F   0  0  0  0  0  0  0  0  0  0  0  0
  -20.8358   -5.0794   19.7906 F   0  0  0  0  0  0  0  0  0  0  0  0
  -36.6721  -17.9015   20.1919 F   0  0  0  0  0  0  0  0  0  0  0  0
  -36.2506  -18.4732   22.2550 F   0  0  0  0  0  0  0  0  0  0  0  0
  -35.9627  -19.9111   20.6364 F   0  0  0  0  0  0  0  0  0  0  0  0
  1  2  1  0  0  0  0
  1  5  2  0  0  0  0
  2  6  2  0  0  0  0
  3  9  2  0  0  0  0
  3 17  1  0  0  0  0
  4 10  1  0  0  0  0
  4 17  2  0  0  0  0
  5 19  1  0  0  0  0
  6 21  1  0  0  0  0
  7 11  2  0  0  0  0
  7 20  1  0  0  0  0
  8 14  2  0  0  0  0
  8 23  1  0  0  0  0
  9 24  1  0  0  0  0
 10 24  2  0  0  0  0
 11 25  1  0  0  0  0
 12 13  2  0  0  0  0
 12 26  1  0  0  0  0
 13 27  1  0  0  0  0
 14 30  1  0  0  0  0
 15 22  1  0  0  0  0
 15 25  2  0  0  0  0
 16 27  2  0  0  0  0
 16 28  1  0  0  0  0
 17 29  1  0  0  0  0
 18 29  1  0  0  0  0
 18 32  2  0  0  0  0
 18 33  1  0  0  0  0
 19 21  2  0  0  0  0
 19 39  1  0  0  0  0
 20 22  2  0  0  0  0
 20 40  1  0  0  0  0
 21 48  1  0  0  0  0
 22 41  1  0  0  0  0
 23 31  2  0  0  0  0
 23 67  1  0  0  0  0
 24 81  1  0  0  0  0
 25 82  1  0  0  0  0
 26 28  2  0  0  0  0
 26 81  1  0  0  0  0
 27 83  1  0  0  0  0
 28 84  1  0  0  0  0
 29 62  2  0  0  0  0
 30 63  2  0  0  0  0
 30 71  1  0  0  0  0
 31 63  1  0  0  0  0
 31 70  1  0  0  0  0
 32 64  1  0  0  0  0
 32 68  1  0  0  0  0
 33 69  1  0  0  0  0
 33 75  2  0  0  0  0
 34 49  1  0  0  0  0
 34 72  1  0  0  0  0
 34 76  2  0  0  0  0
 35 56  1  0  0  0  0
 35 57  1  0  0  0  0
 35 77  2  0  0  0  0
 36 58  1  0  0  0  0
 36 65  1  0  0  0  0
 36 78  2  0  0  0  0
 37 59  1  0  0  0  0
 37 73  1  0  0  0  0
 37 79  2  0  0  0  0
 38 66  1  0  0  0  0
 38 70  1  0  0  0  0
 38 80  2  0  0  0  0
 39 42  1  0  0  0  0
 40 49  1  0  0  0  0
 41 65  1  0  0  0  0
 42 44  1  0  0  0  0
 43 45  1  0  0  0  0
 43 46  1  0  0  0  0
 44 48  1  0  0  0  0
 45 50  1  0  0  0  0
 46 66  1  0  0  0  0
 47 50  1  0  0  0  0
 47 66  1  0  0  0  0
 48 72  1  0  0  0  0
 49 65  1  0  0  0  0
 50 64  1  0  0  0  0
 51 59  1  0  0  0  0
 52 60  1  0  0  0  0
 53 60  1  0  0  0  0
 54 60  1  0  0  0  0
 55 74  1  0  0  0  0
 56 82  1  0  0  0  0
 57 61  1  0  0  0  0
 57 71  1  0  0  0  0
 58 60  1  0  0  0  0
 58 73  1  0  0  0  0
 59 74  1  0  0  0  0
 61 85  1  0  0  0  0
 61 86  1  0  0  0  0
 61 87  1  0  0  0  0
 62 64  1  0  0  0  0
M  CHG  1  74   1
M  ISO  4  38 100  56 101  70 100  82 101
M  END
> <Batch ID>
0182

> <Smiles>
CNC(C)C(=O)NC(C(=O)N1Cc2cc([101O:1][101CH2:1]C(=O)C(Nc3ccc(N)c([100NH:0][100C:0](=O)N4CCCC(n5nc(-c6ccc(Oc7ccc(F)cc7F)cc6)c(C(N)=O)c5N)C4)n3)C(F)(F)F)ccc2CC1C(=O)NC1CCCc2ccccc21)C(C)(C)C

> <Shape>
0.148

> <Color>
0.180

> <Negative vol penalty>
0.000

$$$$

  -OEChem-04052304563D

 84 92  0     1  0  0  0  0  0999 V2000
  -17.1199  -29.9245   23.0817 C   0  0  0  0  0  0  0  0  0  0  0  0
  -18.3886  -30.3564   22.7083 C   0  0  0  0  0  0  0  0  0  0  0  0
  -28.7431  -14.0132   20.7945 C   0  0  0  0  0  0  0  0  0  0  0  0
  -26.9554  -15.1792   19.6623 C   0  0  0  0  0  0  0  0  0  0  0  0
  -16.9589  -28.6783   23.6858 C   0  0  0  0  0  0  0  0  0  0  0  0
  -19.4971  -29.5428   22.9399 C   0  0  0  0  0  0  0  0  0  0  0  0
  -24.4852  -29.0286   19.4241 C   0  0  0  0  0  0  0  0  0  0  0  0
  -27.9234  -12.8935   20.9354 C   0  0  0  0  0  0  0  0  0  0  0  0
  -26.1358  -14.0594   19.8032 C   0  0  0  0  0  0  0  0  0  0  0  0
  -25.7533  -29.6021   19.5056 C   0  0  0  0  0  0  0  0  0  0  0  0
  -24.2687  -12.6285   22.2316 C   0  0  0  0  0  0  0  0  0  0  0  0
  -22.9562  -12.8354   22.6560 C   0  0  0  0  0  0  0  0  0  0  0  0
  -26.5663  -27.6300   20.6320 C   0  0  0  0  0  0  0  0  0  0  0  0
  -22.1385  -11.8439   20.6101 C   0  0  0  0  0  0  0  0  0  0  0  0
  -28.2590  -15.1562   20.1579 C   0  0  0  0  0  0  0  0  0  0  0  0
  -29.9720  -16.6035   18.9420 C   0  0  0  0  0  0  0  0  0  0  0  0
  -18.0648  -27.8449   23.9161 C   0  0  0  0  0  0  0  0  0  0  0  0
  -24.2450  -27.7538   19.9566 C   0  0  0  0  0  0  0  0  0  0  0  0
  -19.3508  -28.2848   23.5489 C   0  0  0  0  0  0  0  0  0  0  0  0
  -25.2949  -27.0414   20.5537 C   0  0  0  0  0  0  0  0  0  0  0  0
  -26.6198  -12.9165   20.4398 C   0  0  0  0  0  0  0  0  0  0  0  0
  -26.7934  -28.9040   20.1121 C   0  0  0  0  0  0  0  0  0  0  0  0
  -24.5161  -12.0294   20.9965 C   0  0  0  0  0  0  0  0  0  0  0  0
  -21.8911  -12.4431   21.8453 C   0  0  0  0  0  0  0  0  0  0  0  0
  -23.4510  -11.6371   20.1857 C   0  0  0  0  0  0  0  0  0  0  0  0
  -29.1051  -16.3134   20.0125 C   0  0  0  0  0  0  0  0  0  0  0  0
  -31.4472  -26.1444   18.4202 C   0  0  0  0  0  0  0  0  0  0  0  0
  -30.5425  -17.8067   19.2786 C   0  0  0  0  0  0  0  0  0  0  0  0
  -31.3482  -25.5405   17.1843 C   0  0  0  0  0  0  0  0  0  0  0  0
  -30.7291  -24.1770   19.0712 C   0  0  0  0  0  0  0  0  0  0  0  0
  -30.2378  -15.8526   17.7499 C   0  0  0  0  0  0  0  0  0  0  0  0
  -22.3679  -26.5961   22.2457 C   0  0  0  0  0  0  0  0  0  0  0  0
  -23.4576  -23.7415   21.1565 C   0  0  0  0  0  0  0  0  0  0  0  0
  -30.9350  -29.4915   19.9358 C   0  0  0  0  0  0  0  0  0  0  0  0
  -25.8998  -22.0044   19.5241 C   0  0  0  0  0  0  0  0  0  0  0  0
  -30.1499  -23.0082   21.2263 C   0  0  0  0  0  0  0  0  0  0  0  0
  -17.8470  -26.5263   24.6151 C   0  0  0  0  0  0  0  0  0  0  0  0
  -22.8779  -27.1380   19.8369 C   0  0  0  0  0  0  0  0  0  0  0  0
  -25.0940  -25.6615   21.1228 C   0  0  0  0  0  0  0  0  0  0  0  0
  -19.0262  -25.5657   24.4848 C   0  0  0  0  0  0  0  0  0  0  0  0
  -30.4469  -20.3957   23.6271 C   0  0  0  0  0  0  0  0  0  0  0  0
  -20.3384  -26.2897   24.7694 C   0  0  0  0  0  0  0  0  0  0  0  0
  -30.1956  -19.1246   22.8127 C   0  0  0  0  0  0  0  0  0  0  0  0
  -29.5694  -21.5540   23.1559 C   0  0  0  0  0  0  0  0  0  0  0  0
  -29.3909  -20.5719   20.9036 C   0  0  0  0  0  0  0  0  0  0  0  0
  -20.5747  -27.4204   23.7609 C   0  0  1  0  0  0  0  0  0  0  0  0
  -22.6220  -26.0458   20.8708 C   0  0  1  0  0  0  0  0  0  0  0  0
  -30.2986  -19.3957   21.2989 C   0  0  2  0  0  0  0  0  0  0  0  0
  -33.4125  -27.6634   18.8919 C   0  0  0  0  0  0  0  0  0  0  0  0
  -26.5293  -19.6787   18.8226 C   0  0  0  0  0  0  0  0  0  0  0  0
  -24.2719  -23.0991   24.0260 C   0  0  0  0  0  0  0  0  0  0  0  0
  -25.7081  -21.2537   23.1315 C   0  0  0  0  0  0  0  0  0  0  0  0
  -23.2388  -21.1908   22.7826 C   0  0  0  0  0  0  0  0  0  0  0  0
  -25.8759  -22.7380   16.6570 C   0  0  0  0  0  0  0  0  0  0  0  0
  -30.1818  -29.7999   21.2204 C   0  0  0  0  0  0  0  0  0  0  0  0
  -28.8408  -29.0878   21.3081 C   0  0  0  0  0  0  0  0  0  1  0  0
  -31.9020  -27.5627   18.6891 C   0  0  2  0  0  0  0  0  0  0  0  0
  -24.6325  -22.8512   21.4815 C   0  0  1  0  0  0  0  0  0  0  0  0
  -25.8301  -20.9671   18.4179 C   0  0  2  0  0  0  0  0  0  0  0  0
  -24.4665  -22.1255   22.8465 C   0  0  0  0  0  0  0  0  0  0  0  0
  -29.1203  -17.2563   20.9585 N   0  0  0  0  0  0  0  0  0  0  0  0
  -31.0922  -25.3642   19.5033 N   0  0  0  0  0  0  0  0  0  0  0  0
  -30.0039  -18.1506   20.4835 N   0  0  0  0  0  0  0  0  0  0  0  0
  -23.7379  -25.1048   20.9870 N   0  0  0  0  0  0  0  0  0  0  0  0
  -29.7220  -21.7550   21.7133 N   0  0  0  0  0  0  0  0  0  0  0  0
  -31.4475  -18.5935   18.6585 N   0  0  0  0  0  0  0  0  0  0  0  0
  -31.6293  -26.0714   15.9695 N   0  0  0  0  0  0  0  0  0  0  0  0
  -29.5653  -14.6374   17.5618 N   0  0  0  0  0  0  0  0  0  0  0  0
  -30.2901  -23.0709   19.8403 N   0  0  0  0  0  0  0  0  0  0  0  0
  -21.0405  -26.8839   22.5001 N   0  0  0  0  0  0  0  0  0  0  0  0
  -31.1985  -28.1347   19.8145 N   0  0  0  0  0  0  0  0  0  0  0  0
  -24.7915  -21.9531   20.3428 N   0  0  0  0  0  0  0  0  0  0  0  0
  -26.4790  -21.4852   17.1804 N   0  3  0  0  0  0  0  0  0  0  0  0
  -31.0600  -16.2395   16.8851 O   0  0  0  0  0  0  0  0  0  0  0  0
  -23.3065  -26.7470   23.0190 O   0  0  0  0  0  0  0  0  0  0  0  0
  -22.3336  -23.2446   21.0496 O   0  0  0  0  0  0  0  0  0  0  0  0
  -31.2591  -30.3519   19.1219 O   0  0  0  0  0  0  0  0  0  0  0  0
  -26.8447  -22.7799   19.6515 O   0  0  0  0  0  0  0  0  0  0  0  0
  -30.4014  -23.9478   21.9852 O   0  0  0  0  0  0  0  0  0  0  0  0
  -25.8198  -11.8240   20.5770 O   0  0  0  0  0  0  0  0  0  0  0  0
  -28.0320  -29.4618   20.1935 O   0  0  0  0  0  0  0  0  0  1  0  0
  -20.6307  -12.6404   22.2536 F   0  0  0  0  0  0  0  0  0  0  0  0
  -23.6825  -11.0600   18.9987 F   0  0  0  0  0  0  0  0  0  0  0  0
  -30.7908  -23.9297   17.3741 S   0  0  0  0  0  0  0  0  0  0  0  0
  1  2  1  0  0  0  0
  1  5  2  0  0  0  0
  2  6  2  0  0  0  0
  3  8  2  0  0  0  0
  3 15  1  0  0  0  0
  4  9  1  0  0  0  0
  4 15  2  0  0  0  0
  5 17  1  0  0  0  0
  6 19  1  0  0  0  0
  7 10  2  0  0  0  0
  7 18  1  0  0  0  0
  8 21  1  0  0  0  0
  9 21  2  0  0  0  0
 10 22  1  0  0  0  0
 11 12  2  0  0  0  0
 11 23  1  0  0  0  0
 12 24  1  0  0  0  0
 13 20  1  0  0  0  0
 13 22  2  0  0  0  0
 14 24  2  0  0  0  0
 14 25  1  0  0  0  0
 15 26  1  0  0  0  0
 16 26  1  0  0  0  0
 16 28  2  0  0  0  0
 16 31  1  0  0  0  0
 17 19  2  0  0  0  0
 17 37  1  0  0  0  0
 18 20  2  0  0  0  0
 18 38  1  0  0  0  0
 19 46  1  0  0  0  0
 20 39  1  0  0  0  0
 21 80  1  0  0  0  0
 22 81  1  0  0  0  0
 23 25  2  0  0  0  0
 23 80  1  0  0  0  0
 24 82  1  0  0  0  0
 25 83  1  0  0  0  0
 26 61  2  0  0  0  0
 27 29  2  0  0  0  0
 27 57  1  0  0  0  0
 27 62  1  0  0  0  0
 28 63  1  0  0  0  0
 28 66  1  0  0  0  0
 29 67  1  0  0  0  0
 29 84  1  0  0  0  0
 30 62  2  0  0  0  0
 30 69  1  0  0  0  0
 30 84  1  0  0  0  0
 31 68  1  0  0  0  0
 31 74  2  0  0  0  0
 32 47  1  0  0  0  0
 32 70  1  0  0  0  0
 32 75  2  0  0  0  0
 33 58  1  0  0  0  0
 33 64  1  0  0  0  0
 33 76  2  0  0  0  0
 34 55  1  0  0  0  0
 34 71  1  0  0  0  0
 34 77  2  0  0  0  0
 35 59  1  0  0  0  0
 35 72  1  0  0  0  0
 35 78  2  0  0  0  0
 36 65  1  0  0  0  0
 36 69  1  0  0  0  0
 36 79  2  0  0  0  0
 37 40  1  0  0  0  0
 38 47  1  0  0  0  0
 39 64  1  0  0  0  0
 40 42  1  0  0  0  0
 41 43  1  0  0  0  0
 41 44  1  0  0  0  0
 42 46  1  0  0  0  0
 43 48  1  0  0  0  0
 44 65  1  0  0  0  0
 45 48  1  0  0  0  0
 45 65  1  0  0  0  0
 46 70  1  0  0  0  0
 47 64  1  0  0  0  0
 48 63  1  0  0  0  0
 49 57  1  0  0  0  0
 50 59  1  0  0  0  0
 51 60  1  0  0  0  0
 52 60  1  0  0  0  0
 53 60  1  0  0  0  0
 54 73  1  0  0  0  0
 55 56  1  0  0  0  0
 56 81  1  0  0  0  0
 57 71  1  0  0  0  0
 58 60  1  0  0  0  0
 58 72  1  0  0  0  0
 59 73  1  0  0  0  0
 61 63  1  0  0  0  0
M  CHG  1  73   1
M  ISO  4  36 100  56 101  69 100  81 101
M  END
> <Batch ID>
0182

> <Smiles>
CNC(C)C(=O)NC(C(=O)N1Cc2cc([101O:1][101CH2:1]CC(=O)NC(C)c3nc([100NH:0][100C:0](=O)N4CCCC(n5nc(-c6ccc(Oc7ccc(F)cc7F)cc6)c(C(N)=O)c5N)C4)sc3N)ccc2CC1C(=O)NC1CCCc2ccccc21)C(C)(C)C

> <Shape>
0.245

> <Color>
0.065

> <Negative vol penalty>
0.000

$$$$

  -OEChem-04052304563D

 86 94  0     1  0  0  0  0  0999 V2000
  -30.8460  -26.6901   16.5134 C   0  0  0  0  0  0  0  0  0  0  0  0
  -29.4736  -26.5031   16.6437 C   0  0  0  0  0  0  0  0  0  0  0  0
  -27.1544  -16.2695   20.8286 C   0  0  0  0  0  0  0  0  0  0  0  0
  -25.1684  -16.0749   22.1904 C   0  0  0  0  0  0  0  0  0  0  0  0
  -31.5930  -27.1426   17.6003 C   0  0  0  0  0  0  0  0  0  0  0  0
  -28.8475  -26.7674   17.8613 C   0  0  0  0  0  0  0  0  0  0  0  0
  -23.2137  -29.0206   18.6915 C   0  0  0  0  0  0  0  0  0  0  0  0
  -27.1073  -14.9008   20.5642 C   0  0  0  0  0  0  0  0  0  0  0  0
  -25.1212  -14.7061   21.9261 C   0  0  0  0  0  0  0  0  0  0  0  0
  -21.9937  -28.4121   18.9831 C   0  0  0  0  0  0  0  0  0  0  0  0
  -24.1291  -12.6915   19.4007 C   0  0  0  0  0  0  0  0  0  0  0  0
  -22.8922  -12.1396   19.0673 C   0  0  0  0  0  0  0  0  0  0  0  0
  -22.3283  -28.8777   21.3262 C   0  0  0  0  0  0  0  0  0  0  0  0
  -23.0304  -10.6729   20.9822 C   0  0  0  0  0  0  0  0  0  0  0  0
  -26.1850  -16.8566   21.6417 C   0  0  0  0  0  0  0  0  0  0  0  0
  -25.6245  -19.3011   21.1751 C   0  0  0  0  0  0  0  0  0  0  0  0
  -30.9743  -27.4219   18.8290 C   0  0  0  0  0  0  0  0  0  0  0  0
  -24.0067  -29.5535   19.7180 C   0  0  0  0  0  0  0  0  0  0  0  0
  -29.5872  -27.2228   18.9660 C   0  0  0  0  0  0  0  0  0  0  0  0
  -23.5568  -29.4948   21.0448 C   0  0  0  0  0  0  0  0  0  0  0  0
  -26.0907  -14.1191   21.1129 C   0  0  0  0  0  0  0  0  0  0  0  0
  -21.5522  -28.3380   20.3009 C   0  0  0  0  0  0  0  0  0  0  0  0
  -24.8167  -12.2340   20.5249 C   0  0  0  0  0  0  0  0  0  0  0  0
  -22.3429  -11.1304   19.8580 C   0  0  0  0  0  0  0  0  0  0  0  0
  -24.2674  -11.2248   21.3156 C   0  0  0  0  0  0  0  0  0  0  0  0
  -26.2335  -18.2704   21.9156 C   0  0  0  0  0  0  0  0  0  0  0  0
  -23.1638  -26.7819   25.9555 C   0  0  0  0  0  0  0  0  0  0  0  0
  -24.1926  -26.9983   26.8481 C   0  0  0  0  0  0  0  0  0  0  0  0
  -25.9678  -20.4519   21.8417 C   0  0  0  0  0  0  0  0  0  0  0  0
  -24.7810  -25.0066   26.1434 C   0  0  0  0  0  0  0  0  0  0  0  0
  -24.8202  -19.2252   19.9906 C   0  0  0  0  0  0  0  0  0  0  0  0
  -22.0084  -27.6370   25.5830 C   0  0  0  0  0  0  0  0  0  0  0  0
  -26.9177  -28.9538   20.8450 C   0  0  0  0  0  0  0  0  0  0  0  0
  -26.3285  -31.5729   22.6657 C   0  0  0  0  0  0  0  0  0  0  0  0
  -19.9857  -27.7313   24.1681 C   0  0  0  0  0  0  0  0  0  0  0  0
  -24.0286  -33.6412   24.1079 C   0  0  0  0  0  0  0  0  0  0  0  0
  -26.6222  -23.3380   26.5582 C   0  0  0  0  0  0  0  0  0  0  0  0
  -31.8306  -27.8639   19.9891 C   0  0  0  0  0  0  0  0  0  0  0  0
  -25.3077  -30.2304   19.3841 C   0  0  0  0  0  0  0  0  0  0  0  0
  -24.3611  -30.0696   22.1811 C   0  0  0  0  0  0  0  0  0  0  0  0
  -31.0325  -28.4788   21.1359 C   0  0  0  0  0  0  0  0  0  0  0  0
  -29.3134  -21.2316   25.5593 C   0  0  0  0  0  0  0  0  0  0  0  0
  -29.8178  -27.6163   21.4636 C   0  0  0  0  0  0  0  0  0  0  0  0
  -28.7020  -20.3582   24.4614 C   0  0  0  0  0  0  0  0  0  0  0  0
  -28.3130  -21.5208   26.6770 C   0  0  0  0  0  0  0  0  0  0  0  0
  -26.4181  -21.2057   25.1344 C   0  0  0  0  0  0  0  0  0  0  0  0
  -28.8679  -27.5223   20.2634 C   0  0  1  0  0  0  0  0  0  0  0  0
  -26.2743  -30.2820   20.5633 C   0  0  1  0  0  0  0  0  0  0  0  0
  -27.3681  -20.9413   23.9549 C   0  0  2  0  0  0  0  0  0  0  0  0
  -23.8494  -35.6741   25.5682 C   0  0  0  0  0  0  0  0  0  0  0  0
  -18.5637  -29.2682   20.1532 C   0  0  0  0  0  0  0  0  0  0  0  0
  -27.0213  -29.8778   25.1063 C   0  0  0  0  0  0  0  0  0  0  0  0
  -25.9299  -31.6179   26.5379 C   0  0  0  0  0  0  0  0  0  0  0  0
  -27.9264  -32.2085   25.1639 C   0  0  0  0  0  0  0  0  0  0  0  0
  -22.6304  -35.1758   21.9986 C   0  0  0  0  0  0  0  0  0  0  0  0
  -19.2527  -26.8690   23.1528 C   0  0  0  0  0  0  0  0  0  0  0  0
  -18.4731  -27.6763   22.1121 C   0  0  0  0  0  0  0  0  0  0  0  0
  -25.7064  -31.8159   24.0196 C   0  0  1  0  0  0  0  0  0  0  0  0
  -23.9153  -35.1546   24.1404 C   0  0  2  0  0  0  0  0  0  0  0  0
  -19.3714  -28.5493   21.2259 C   0  0  1  0  0  0  0  0  0  1  0  0
  -26.6315  -31.3674   25.1860 C   0  0  0  0  0  0  0  0  0  0  0  0
  -26.9124  -18.7261   22.9718 N   0  0  0  0  0  0  0  0  0  0  0  0
  -25.1207  -25.9812   26.9575 N   0  0  0  0  0  0  0  0  0  0  0  0
  -26.7321  -20.0559   22.8996 N   0  0  0  0  0  0  0  0  0  0  0  0
  -25.6292  -30.7157   21.8043 N   0  0  0  0  0  0  0  0  0  0  0  0
  -27.0757  -22.0749   26.1228 N   0  0  0  0  0  0  0  0  0  0  0  0
  -24.3240  -28.1238   27.5905 N   0  0  0  0  0  0  0  0  0  0  0  0
  -25.6875  -21.7537   21.6202 N   0  0  0  0  0  0  0  0  0  0  0  0
  -24.5646  -17.9635   19.4363 N   0  0  0  0  0  0  0  0  0  0  0  0
  -25.4530  -23.7762   25.9374 N   0  0  0  0  0  0  0  0  0  0  0  0
  -21.1440  -27.1012   24.6300 N   0  0  0  0  0  0  0  0  0  0  0  0
  -28.0864  -28.7342   20.1412 N   0  0  0  0  0  0  0  0  0  0  0  0
  -25.3431  -33.2284   24.0544 N   0  0  0  0  0  0  0  0  0  0  0  0
  -22.6872  -35.5977   23.4219 N   0  3  0  0  0  0  0  0  0  0  0  0
  -24.3560  -20.2472   19.4307 O   0  0  0  0  0  0  0  0  0  0  0  0
  -21.8663  -28.7238   26.1367 O   0  0  0  0  0  0  0  0  0  0  0  0
  -26.3934  -28.1856   21.6429 O   0  0  0  0  0  0  0  0  0  0  0  0
  -27.3919  -32.1290   22.3802 O   0  0  0  0  0  0  0  0  0  0  0  0
  -19.5798  -28.8298   24.5369 O   0  0  0  0  0  0  0  0  0  0  0  0
  -23.0491  -32.8992   24.1316 O   0  0  0  0  0  0  0  0  0  0  0  0
  -27.2414  -23.9956   27.3985 O   0  0  0  0  0  0  0  0  0  0  0  0
  -26.0442  -12.7835   20.8550 O   0  0  0  0  0  0  0  0  0  0  0  0
  -20.3620  -27.7440   20.5883 O   0  0  0  0  0  0  0  0  0  1  0  0
  -21.1544  -10.6016   19.5386 F   0  0  0  0  0  0  0  0  0  0  0  0
  -24.9227  -10.7820   22.3974 F   0  0  0  0  0  0  0  0  0  0  0  0
  -23.3571  -25.2466   25.2160 S   0  0  0  0  0  0  0  0  0  0  0  0
  1  2  1  0  0  0  0
  1  5  2  0  0  0  0
  2  6  2  0  0  0  0
  3  8  2  0  0  0  0
  3 15  1  0  0  0  0
  4  9  1  0  0  0  0
  4 15  2  0  0  0  0
  5 17  1  0  0  0  0
  6 19  1  0  0  0  0
  7 10  2  0  0  0  0
  7 18  1  0  0  0  0
  8 21  1  0  0  0  0
  9 21  2  0  0  0  0
 10 22  1  0  0  0  0
 11 12  2  0  0  0  0
 11 23  1  0  0  0  0
 12 24  1  0  0  0  0
 13 20  1  0  0  0  0
 13 22  2  0  0  0  0
 14 24  2  0  0  0  0
 14 25  1  0  0  0  0
 15 26  1  0  0  0  0
 16 26  1  0  0  0  0
 16 29  2  0  0  0  0
 16 31  1  0  0  0  0
 17 19  2  0  0  0  0
 17 38  1  0  0  0  0
 18 20  2  0  0  0  0
 18 39  1  0  0  0  0
 19 47  1  0  0  0  0
 20 40  1  0  0  0  0
 21 82  1  0  0  0  0
 22 83  1  0  0  0  0
 23 25  2  0  0  0  0
 23 82  1  0  0  0  0
 24 84  1  0  0  0  0
 25 85  1  0  0  0  0
 26 62  2  0  0  0  0
 27 28  2  0  0  0  0
 27 32  1  0  0  0  0
 27 86  1  0  0  0  0
 28 63  1  0  0  0  0
 28 67  1  0  0  0  0
 29 64  1  0  0  0  0
 29 68  1  0  0  0  0
 30 63  2  0  0  0  0
 30 70  1  0  0  0  0
 30 86  1  0  0  0  0
 31 69  1  0  0  0  0
 31 75  2  0  0  0  0
 32 71  1  0  0  0  0
 32 76  2  0  0  0  0
 33 48  1  0  0  0  0
 33 72  1  0  0  0  0
 33 77  2  0  0  0  0
 34 58  1  0  0  0  0
 34 65  1  0  0  0  0
 34 78  2  0  0  0  0
 35 56  1  0  0  0  0
 35 71  1  0  0  0  0
 35 79  2  0  0  0  0
 36 59  1  0  0  0  0
 36 73  1  0  0  0  0
 36 80  2  0  0  0  0
 37 66  1  0  0  0  0
 37 70  1  0  0  0  0
 37 81  2  0  0  0  0
 38 41  1  0  0  0  0
 39 48  1  0  0  0  0
 40 65  1  0  0  0  0
 41 43  1  0  0  0  0
 42 44  1  0  0  0  0
 42 45  1  0  0  0  0
 43 47  1  0  0  0  0
 44 49  1  0  0  0  0
 45 66  1  0  0  0  0
 46 49  1  0  0  0  0
 46 66  1  0  0  0  0
 47 72  1  0  0  0  0
 48 65  1  0  0  0  0
 49 64  1  0  0  0  0
 50 59  1  0  0  0  0
 51 60  1  0  0  0  0
 52 61  1  0  0  0  0
 53 61  1  0  0  0  0
 54 61  1  0  0  0  0
 55 74  1  0  0  0  0
 56 57  1  0  0  0  0
 57 60  1  0  0  0  0
 58 61  1  0  0  0  0
 58 73  1  0  0  0  0
 59 74  1  0  0  0  0
 60 83  1  0  0  0  0
 62 64  1  0  0  0  0
M  CHG  1  74   1
M  ISO  4  37 100  60 101  70 100  83 101
M  END
> <Batch ID>
0182

> <Smiles>
CNC(C)C(=O)NC(C(=O)N1Cc2cc([101O:1][101CH:1](C)CCC(=O)NC(=O)c3sc([100NH:0][100C:0](=O)N4CCCC(n5nc(-c6ccc(Oc7ccc(F)cc7F)cc6)c(C(N)=O)c5N)C4)nc3N)ccc2CC1C(=O)NC1CCCc2ccccc21)C(C)(C)C

> <Shape>
0.239

> <Color>
0.055

> <Negative vol penalty>
0.000

$$$$

  -OEChem-04052304563D

 87 95  0     1  0  0  0  0  0999 V2000
  -32.0001  -20.5964   27.0295 C   0  0  0  0  0  0  0  0  0  0  0  0
  -32.2002  -20.7642   25.6631 C   0  0  0  0  0  0  0  0  0  0  0  0
  -23.0323   -9.9624   19.9039 C   0  0  0  0  0  0  0  0  0  0  0  0
  -23.8355   -9.8340   22.1788 C   0  0  0  0  0  0  0  0  0  0  0  0
  -30.7451  -20.8429   27.5846 C   0  0  0  0  0  0  0  0  0  0  0  0
  -31.1450  -21.1776   24.8506 C   0  0  0  0  0  0  0  0  0  0  0  0
  -32.5142  -24.7891   21.5754 C   0  0  0  0  0  0  0  0  0  0  0  0
  -22.2619   -8.8183   20.1113 C   0  0  0  0  0  0  0  0  0  0  0  0
  -23.0651   -8.6898   22.3863 C   0  0  0  0  0  0  0  0  0  0  0  0
  -33.2196  -24.3867   20.4421 C   0  0  0  0  0  0  0  0  0  0  0  0
  -19.8282   -7.9485   23.0139 C   0  0  0  0  0  0  0  0  0  0  0  0
  -19.0928   -7.8699   24.1965 C   0  0  0  0  0  0  0  0  0  0  0  0
  -31.1883  -24.4978   19.1457 C   0  0  0  0  0  0  0  0  0  0  0  0
  -20.2943   -5.8657   24.8103 C   0  0  0  0  0  0  0  0  0  0  0  0
  -23.8191  -10.4703   20.9377 C   0  0  0  0  0  0  0  0  0  0  0  0
  -24.2279  -12.9883   20.9364 C   0  0  0  0  0  0  0  0  0  0  0  0
  -29.6765  -21.2688   26.7801 C   0  0  0  0  0  0  0  0  0  0  0  0
  -31.1362  -25.0387   21.5046 C   0  0  0  0  0  0  0  0  0  0  0  0
  -29.8741  -21.4287   25.3952 C   0  0  0  0  0  0  0  0  0  0  0  0
  -30.4682  -24.9057   20.2789 C   0  0  0  0  0  0  0  0  0  0  0  0
  -29.7063  -18.6417   21.0019 C   0  0  0  0  0  0  0  0  0  0  0  0
  -29.9140  -19.6477   20.0145 C   0  0  0  0  0  0  0  0  0  0  0  0
  -22.2783   -8.1820   21.3524 C   0  0  0  0  0  0  0  0  0  0  0  0
  -32.5561  -24.2382   19.2277 C   0  0  0  0  0  0  0  0  0  0  0  0
  -20.7966   -6.9857   22.7294 C   0  0  0  0  0  0  0  0  0  0  0  0
  -19.3259   -6.8285   25.0947 C   0  0  0  0  0  0  0  0  0  0  0  0
  -21.0297   -5.9443   23.6276 C   0  0  0  0  0  0  0  0  0  0  0  0
  -24.6156  -11.6518   20.7239 C   0  0  0  0  0  0  0  0  0  0  0  0
  -30.8054  -17.8241   21.1468 C   0  0  0  0  0  0  0  0  0  0  0  0
  -25.3331  -13.7259   20.5887 C   0  0  0  0  0  0  0  0  0  0  0  0
  -31.1642  -19.5608   19.4424 C   0  0  0  0  0  0  0  0  0  0  0  0
  -22.9802  -13.5159   21.4062 C   0  0  0  0  0  0  0  0  0  0  0  0
  -33.3877  -21.1827   16.8716 C   0  0  0  0  0  0  0  0  0  0  0  0
  -33.0583  -20.1674   17.9301 C   0  0  0  0  0  0  0  0  0  0  0  0
  -28.5555  -23.7792   22.8675 C   0  0  0  0  0  0  0  0  0  0  0  0
  -27.0457  -26.2246   21.3632 C   0  0  0  0  0  0  0  0  0  0  0  0
  -27.0372  -28.4950   18.8152 C   0  0  0  0  0  0  0  0  0  0  0  0
  -30.8453  -14.5886   20.7160 C   0  0  0  0  0  0  0  0  0  0  0  0
  -28.3258  -21.4773   27.4179 C   0  0  0  0  0  0  0  0  0  0  0  0
  -30.3948  -25.4979   22.7302 C   0  0  0  0  0  0  0  0  0  0  0  0
  -28.9935  -25.1810   20.1455 C   0  0  0  0  0  0  0  0  0  0  0  0
  -27.3573  -22.2735   26.5471 C   0  0  0  0  0  0  0  0  0  0  0  0
  -29.5976  -12.3580   18.2372 C   0  0  0  0  0  0  0  0  0  0  0  0
  -27.3710  -21.7477   25.1152 C   0  0  0  0  0  0  0  0  0  0  0  0
  -28.1611  -12.0811   18.6841 C   0  0  0  0  0  0  0  0  0  0  0  0
  -30.5430  -12.4938   19.4287 C   0  0  0  0  0  0  0  0  0  0  0  0
  -28.6888  -13.2044   20.8883 C   0  0  0  0  0  0  0  0  0  0  0  0
  -28.7607  -21.8997   24.4850 C   0  0  1  0  0  0  0  0  0  0  0  0
  -28.8951  -25.2277   22.6576 C   0  0  1  0  0  0  0  0  0  0  0  0
  -27.6880  -13.1151   19.7235 C   0  0  2  0  0  0  0  0  0  0  0  0
  -28.4547  -18.4874   21.7861 C   0  0  0  0  0  0  0  0  0  0  0  0
  -25.6509  -30.3358   17.8217 C   0  0  0  0  0  0  0  0  0  0  0  0
  -25.1715  -24.1502   20.1409 C   0  0  0  0  0  0  0  0  0  0  0  0
  -24.4588  -25.8778   18.4749 C   0  0  0  0  0  0  0  0  0  0  0  0
  -24.0474  -26.2487   20.9072 C   0  0  0  0  0  0  0  0  0  0  0  0
  -29.1593  -30.5039   19.2843 C   0  0  0  0  0  0  0  0  0  0  0  0
  -30.9937  -16.6718   22.0567 C   0  0  0  0  0  0  0  0  0  0  0  0
  -34.3750  -23.0013   18.3233 C   0  0  0  0  0  0  0  0  0  1  0  0
  -34.5614  -22.1013   17.1134 C   0  0  2  0  0  0  0  0  0  0  0  0
  -26.4051  -26.4144   20.0094 C   0  0  1  0  0  0  0  0  0  0  0  0
  -26.7643  -29.9882   18.7976 C   0  0  2  0  0  0  0  0  0  0  0  0
  -25.0481  -25.6657   19.8857 C   0  0  0  0  0  0  0  0  0  0  0  0
  -25.8692  -11.5436   20.2757 N   0  0  0  0  0  0  0  0  0  0  0  0
  -26.2787  -12.8216   20.2037 N   0  0  0  0  0  0  0  0  0  0  0  0
  -28.3114  -25.6214   21.3736 N   0  0  0  0  0  0  0  0  0  0  0  0
  -30.0379  -13.4908   20.3757 N   0  0  0  0  0  0  0  0  0  0  0  0
  -28.9935  -20.5824   19.6744 N   0  0  0  0  0  0  0  0  0  0  0  0
  -25.5786  -15.0533   20.5778 N   0  0  0  0  0  0  0  0  0  0  0  0
  -21.9503  -12.6180   21.7184 N   0  0  0  0  0  0  0  0  0  0  0  0
  -31.7888  -20.3378   18.4392 N   0  0  0  0  0  0  0  0  0  0  0  0
  -28.9842  -23.2706   24.0787 N   0  0  0  0  0  0  0  0  0  0  0  0
  -26.3138  -27.8553   19.7995 N   0  0  0  0  0  0  0  0  0  0  0  0
  -30.2880  -15.4895   21.6152 N   0  0  0  0  0  0  0  0  0  0  0  0
  -27.9906  -30.7342   18.3966 N   0  3  0  0  0  0  0  0  0  0  0  0
  -22.7790  -14.7479   21.5295 O   0  0  0  0  0  0  0  0  0  0  0  0
  -32.6941  -21.1920   15.8646 O   0  0  0  0  0  0  0  0  0  0  0  0
  -33.9359  -19.3681   18.2115 O   0  0  0  0  0  0  0  0  0  0  0  0
  -27.9481  -23.1686   21.9958 O   0  0  0  0  0  0  0  0  0  0  0  0
  -26.4484  -26.6042   22.3735 O   0  0  0  0  0  0  0  0  0  0  0  0
  -27.8115  -27.9500   18.0317 O   0  0  0  0  0  0  0  0  0  0  0  0
  -31.9769  -14.7565   20.2486 O   0  0  0  0  0  0  0  0  0  0  0  0
  -21.5264   -7.0657   21.5553 O   0  0  0  0  0  0  0  0  0  0  0  0
  -33.2421  -23.8449   18.1201 O   0  0  0  0  0  0  0  0  0  1  0  0
  -18.6207   -6.7539   26.2311 F   0  0  0  0  0  0  0  0  0  0  0  0
  -21.9595   -5.0171   23.3604 F   0  0  0  0  0  0  0  0  0  0  0  0
  -34.7668  -22.8976   16.0242 F   0  0  0  0  0  0  0  0  0  0  0  0
  -32.0811  -18.2703   20.0952 S   0  0  0  0  0  0  0  0  0  0  0  0
  1  2  1  0  0  0  0
  1  5  2  0  0  0  0
  2  6  2  0  0  0  0
  3  8  2  0  0  0  0
  3 15  1  0  0  0  0
  4  9  1  0  0  0  0
  4 15  2  0  0  0  0
  5 17  1  0  0  0  0
  6 19  1  0  0  0  0
  7 10  2  0  0  0  0
  7 18  1  0  0  0  0
  8 23  1  0  0  0  0
  9 23  2  0  0  0  0
 10 24  1  0  0  0  0
 11 12  2  0  0  0  0
 11 25  1  0  0  0  0
 12 26  1  0  0  0  0
 13 20  1  0  0  0  0
 13 24  2  0  0  0  0
 14 26  2  0  0  0  0
 14 27  1  0  0  0  0
 15 28  1  0  0  0  0
 16 28  1  0  0  0  0
 16 30  2  0  0  0  0
 16 32  1  0  0  0  0
 17 19  2  0  0  0  0
 17 39  1  0  0  0  0
 18 20  2  0  0  0  0
 18 40  1  0  0  0  0
 19 48  1  0  0  0  0
 20 41  1  0  0  0  0
 21 22  1  0  0  0  0
 21 29  2  0  0  0  0
 21 51  1  0  0  0  0
 22 31  2  0  0  0  0
 22 67  1  0  0  0  0
 23 82  1  0  0  0  0
 24 83  1  0  0  0  0
 25 27  2  0  0  0  0
 25 82  1  0  0  0  0
 26 84  1  0  0  0  0
 27 85  1  0  0  0  0
 28 63  2  0  0  0  0
 29 57  1  0  0  0  0
 29 87  1  0  0  0  0
 30 64  1  0  0  0  0
 30 68  1  0  0  0  0
 31 70  1  0  0  0  0
 31 87  1  0  0  0  0
 32 69  1  0  0  0  0
 32 75  2  0  0  0  0
 33 34  1  0  0  0  0
 33 59  1  0  0  0  0
 33 76  2  0  0  0  0
 34 70  1  0  0  0  0
 34 77  2  0  0  0  0
 35 49  1  0  0  0  0
 35 71  1  0  0  0  0
 35 78  2  0  0  0  0
 36 60  1  0  0  0  0
 36 65  1  0  0  0  0
 36 79  2  0  0  0  0
 37 61  1  0  0  0  0
 37 72  1  0  0  0  0
 37 80  2  0  0  0  0
 38 66  1  0  0  0  0
 38 73  1  0  0  0  0
 38 81  2  0  0  0  0
 39 42  1  0  0  0  0
 40 49  1  0  0  0  0
 41 65  1  0  0  0  0
 42 44  1  0  0  0  0
 43 45  1  0  0  0  0
 43 46  1  0  0  0  0
 44 48  1  0  0  0  0
 45 50  1  0  0  0  0
 46 66  1  0  0  0  0
 47 50  1  0  0  0  0
 47 66  1  0  0  0  0
 48 71  1  0  0  0  0
 49 65  1  0  0  0  0
 50 64  1  0  0  0  0
 52 61  1  0  0  0  0
 53 62  1  0  0  0  0
 54 62  1  0  0  0  0
 55 62  1  0  0  0  0
 56 74  1  0  0  0  0
 57 73  1  0  0  0  0
 58 59  1  0  0  0  0
 58 83  1  0  0  0  0
 59 86  1  0  0  0  0
 60 62  1  0  0  0  0
 60 72  1  0  0  0  0
 61 74  1  0  0  0  0
 63 64  1  0  0  0  0
M  CHG  1  74   1
M  ISO  4  38 100  58 101  73 100  83 101
M  END
> <Batch ID>
0182

> <Smiles>
CNC(C)C(=O)NC(C(=O)N1Cc2cc([101O:1][101CH2:1]C(F)C(=O)C(=O)Nc3sc(C[100NH:0][100C:0](=O)N4CCCC(n5nc(-c6ccc(Oc7ccc(F)cc7F)cc6)c(C(N)=O)c5N)C4)c(C)c3N)ccc2CC1C(=O)NC1CCCc2ccccc21)C(C)(C)C

> <Shape>
0.237

> <Color>
0.195

> <Negative vol penalty>
0.000

$$$$

  -OEChem-04052304563D

 84 92  0     1  0  0  0  0  0999 V2000
  -29.0139  -36.5852   24.7752 C   0  0  0  0  0  0  0  0  0  0  0  0
  -29.3158  -35.3723   24.1644 C   0  0  0  0  0  0  0  0  0  0  0  0
  -24.8076   -8.6008   21.5566 C   0  0  0  0  0  0  0  0  0  0  0  0
  -23.4290   -9.5982   19.8415 C   0  0  0  0  0  0  0  0  0  0  0  0
  -27.8049  -36.7419   25.4517 C   0  0  0  0  0  0  0  0  0  0  0  0
  -28.4092  -34.3149   24.2307 C   0  0  0  0  0  0  0  0  0  0  0  0
  -27.3385  -30.1071   19.9117 C   0  0  0  0  0  0  0  0  0  0  0  0
  -23.7554   -7.7568   21.9116 C   0  0  0  0  0  0  0  0  0  0  0  0
  -22.3767   -8.7542   20.1965 C   0  0  0  0  0  0  0  0  0  0  0  0
  -27.7936  -28.8002   19.7421 C   0  0  0  0  0  0  0  0  0  0  0  0
  -21.5508   -5.0915   23.0300 C   0  0  0  0  0  0  0  0  0  0  0  0
  -21.8435   -3.7445   23.2430 C   0  0  0  0  0  0  0  0  0  0  0  0
  -25.7856  -27.9711   20.7908 C   0  0  0  0  0  0  0  0  0  0  0  0
  -22.6418   -3.5586   20.9703 C   0  0  0  0  0  0  0  0  0  0  0  0
  -24.6444   -9.5216   20.5216 C   0  0  0  0  0  0  0  0  0  0  0  0
  -26.7363  -10.1452   19.2014 C   0  0  0  0  0  0  0  0  0  0  0  0
  -26.8788  -35.6890   25.5181 C   0  0  0  0  0  0  0  0  0  0  0  0
  -26.1063  -30.3566   20.5331 C   0  0  0  0  0  0  0  0  0  0  0  0
  -27.1872  -34.4572   24.9099 C   0  0  0  0  0  0  0  0  0  0  0  0
  -25.3159  -29.2819   20.9648 C   0  0  0  0  0  0  0  0  0  0  0  0
  -22.5400   -7.8334   21.2316 C   0  0  0  0  0  0  0  0  0  0  0  0
  -27.0185  -27.7321   20.1842 C   0  0  0  0  0  0  0  0  0  0  0  0
  -21.8035   -5.6721   21.7872 C   0  0  0  0  0  0  0  0  0  0  0  0
  -22.3890   -2.9780   22.2131 C   0  0  0  0  0  0  0  0  0  0  0  0
  -22.3490   -4.9057   20.7573 C   0  0  0  0  0  0  0  0  0  0  0  0
  -25.7308  -10.3941   20.1547 C   0  0  0  0  0  0  0  0  0  0  0  0
  -24.6773  -19.8586   17.9677 C   0  0  0  0  0  0  0  0  0  0  0  0
  -27.5198  -11.2730   19.2263 C   0  0  0  0  0  0  0  0  0  0  0  0
  -23.8924  -19.0828   17.1405 C   0  0  0  0  0  0  0  0  0  0  0  0
  -25.0901  -17.8997   18.8634 C   0  0  0  0  0  0  0  0  0  0  0  0
  -24.8303  -21.3215   17.8771 C   0  0  0  0  0  0  0  0  0  0  0  0
  -25.6184  -22.0549   18.6778 C   0  0  0  0  0  0  0  0  0  0  0  0
  -26.6977  -25.6010   19.2752 C   0  0  0  0  0  0  0  0  0  1  0  0
  -26.9435   -8.9972   18.3678 C   0  0  0  0  0  0  0  0  0  0  0  0
  -26.6035  -24.2699   19.4238 C   0  0  0  0  0  0  0  0  0  0  0  0
  -25.6989  -23.5321   18.4842 C   0  0  0  0  0  0  0  0  0  0  0  0
  -25.1906  -31.8827   23.1667 C   0  0  0  0  0  0  0  0  0  0  0  0
  -22.2187  -31.2590   22.0262 C   0  0  0  0  0  0  0  0  0  0  0  0
  -20.2184  -29.3114   20.0633 C   0  0  0  0  0  0  0  0  0  0  0  0
  -26.4550  -16.9503   20.7560 C   0  0  0  0  0  0  0  0  0  0  0  0
  -25.6056  -35.8904   26.3011 C   0  0  0  0  0  0  0  0  0  0  0  0
  -25.6174  -31.7710   20.6845 C   0  0  0  0  0  0  0  0  0  0  0  0
  -23.9765  -29.4955   21.6197 C   0  0  0  0  0  0  0  0  0  0  0  0
  -24.5364  -34.8417   26.0054 C   0  0  0  0  0  0  0  0  0  0  0  0
  -28.9213  -14.7953   22.1527 C   0  0  0  0  0  0  0  0  0  0  0  0
  -25.1426  -33.4421   26.0212 C   0  0  0  0  0  0  0  0  0  0  0  0
  -28.4779  -13.4000   21.7070 C   0  0  0  0  0  0  0  0  0  0  0  0
  -27.7284  -15.6920   22.4794 C   0  0  0  0  0  0  0  0  0  0  0  0
  -26.2728  -14.3940   20.9743 C   0  0  0  0  0  0  0  0  0  0  0  0
  -26.2188  -33.2947   24.9388 C   0  0  1  0  0  0  0  0  0  0  0  0
  -24.5821  -31.9297   21.7937 C   0  0  1  0  0  0  0  0  0  0  0  0
  -27.4378  -13.4750   20.5719 C   0  0  2  0  0  0  0  0  0  0  0  0
  -17.8261  -29.0227   19.3627 C   0  0  0  0  0  0  0  0  0  0  0  0
  -21.5812  -29.9988   24.7309 C   0  0  0  0  0  0  0  0  0  0  0  0
  -19.5868  -28.9130   23.6766 C   0  0  0  0  0  0  0  0  0  0  0  0
  -19.7443  -31.4006   23.7743 C   0  0  0  0  0  0  0  0  0  0  0  0
  -20.8732  -29.7889   17.2169 C   0  0  0  0  0  0  0  0  0  0  0  0
  -21.2320  -30.1263   22.1759 C   0  0  1  0  0  0  0  0  0  0  0  0
  -19.1626  -29.6692   19.0330 C   0  0  2  0  0  0  0  0  0  0  0  0
  -20.5621  -30.1054   23.5789 C   0  0  0  0  0  0  0  0  0  0  0  0
  -25.8613  -11.5864   20.7425 N   0  0  0  0  0  0  0  0  0  0  0  0
  -25.3646  -19.1820   18.9564 N   0  0  0  0  0  0  0  0  0  0  0  0
  -26.9580  -12.0967   20.1570 N   0  0  0  0  0  0  0  0  0  0  0  0
  -23.5449  -30.8969   21.7508 N   0  0  0  0  0  0  0  0  0  0  0  0
  -26.7878  -15.7180   21.3572 N   0  0  0  0  0  0  0  0  0  0  0  0
  -28.6276  -11.6306   18.5427 N   0  0  0  0  0  0  0  0  0  0  0  0
  -23.1163  -19.4764   16.1000 N   0  0  0  0  0  0  0  0  0  0  0  0
  -26.0443   -7.9269   18.4692 N   0  0  0  0  0  0  0  0  0  0  0  0
  -25.5768  -16.8472   19.6777 N   0  0  0  0  0  0  0  0  0  0  0  0
  -25.6073  -33.1124   23.6398 N   0  0  0  0  0  0  0  0  0  0  0  0
  -20.2926  -30.2539   21.0671 N   0  0  0  0  0  0  0  0  0  0  0  0
  -19.5844  -29.2120   17.6788 N   0  3  0  0  0  0  0  0  0  0  0  0
  -27.9071   -8.9159   17.5689 O   0  0  0  0  0  0  0  0  0  0  0  0
  -25.0600  -24.1066   17.6077 O   0  0  0  0  0  0  0  0  0  0  0  0
  -25.2745  -30.8105   23.7541 O   0  0  0  0  0  0  0  0  0  0  0  0
  -21.8257  -32.4225   22.1420 O   0  0  0  0  0  0  0  0  0  0  0  0
  -20.9059  -28.2955   19.9875 O   0  0  0  0  0  0  0  0  0  0  0  0
  -26.9363  -18.0156   21.1502 O   0  0  0  0  0  0  0  0  0  0  0  0
  -27.2851  -23.5522   20.3811 O   0  0  0  0  0  0  0  0  0  0  0  0
  -21.5131   -7.0098   21.5775 O   0  0  0  0  0  0  0  0  0  0  0  0
  -27.4607  -26.4556   20.0204 O   0  0  0  0  0  0  0  0  0  1  0  0
  -22.6714   -1.6848   22.4183 F   0  0  0  0  0  0  0  0  0  0  0  0
  -22.5951   -5.4582   19.5615 F   0  0  0  0  0  0  0  0  0  0  0  0
  -24.0135  -17.4376   17.6095 S   0  0  0  0  0  0  0  0  0  0  0  0
  1  2  1  0  0  0  0
  1  5  2  0  0  0  0
  2  6  2  0  0  0  0
  3  8  2  0  0  0  0
  3 15  1  0  0  0  0
  4  9  1  0  0  0  0
  4 15  2  0  0  0  0
  5 17  1  0  0  0  0
  6 19  1  0  0  0  0
  7 10  2  0  0  0  0
  7 18  1  0  0  0  0
  8 21  1  0  0  0  0
  9 21  2  0  0  0  0
 10 22  1  0  0  0  0
 11 12  2  0  0  0  0
 11 23  1  0  0  0  0
 12 24  1  0  0  0  0
 13 20  1  0  0  0  0
 13 22  2  0  0  0  0
 14 24  2  0  0  0  0
 14 25  1  0  0  0  0
 15 26  1  0  0  0  0
 16 26  1  0  0  0  0
 16 28  2  0  0  0  0
 16 34  1  0  0  0  0
 17 19  2  0  0  0  0
 17 41  1  0  0  0  0
 18 20  2  0  0  0  0
 18 42  1  0  0  0  0
 19 50  1  0  0  0  0
 20 43  1  0  0  0  0
 21 80  1  0  0  0  0
 22 81  1  0  0  0  0
 23 25  2  0  0  0  0
 23 80  1  0  0  0  0
 24 82  1  0  0  0  0
 25 83  1  0  0  0  0
 26 61  2  0  0  0  0
 27 29  2  0  0  0  0
 27 31  1  0  0  0  0
 27 62  1  0  0  0  0
 28 63  1  0  0  0  0
 28 66  1  0  0  0  0
 29 67  1  0  0  0  0
 29 84  1  0  0  0  0
 30 62  2  0  0  0  0
 30 69  1  0  0  0  0
 30 84  1  0  0  0  0
 31 32  2  0  0  0  0
 32 36  1  0  0  0  0
 33 35  2  0  0  0  0
 33 81  1  0  0  0  0
 34 68  1  0  0  0  0
 34 73  2  0  0  0  0
 35 36  1  0  0  0  0
 35 79  1  0  0  0  0
 36 74  2  0  0  0  0
 37 51  1  0  0  0  0
 37 70  1  0  0  0  0
 37 75  2  0  0  0  0
 38 58  1  0  0  0  0
 38 64  1  0  0  0  0
 38 76  2  0  0  0  0
 39 59  1  0  0  0  0
 39 71  1  0  0  0  0
 39 77  2  0  0  0  0
 40 65  1  0  0  0  0
 40 69  1  0  0  0  0
 40 78  2  0  0  0  0
 41 44  1  0  0  0  0
 42 51  1  0  0  0  0
 43 64  1  0  0  0  0
 44 46  1  0  0  0  0
 45 47  1  0  0  0  0
 45 48  1  0  0  0  0
 46 50  1  0  0  0  0
 47 52  1  0  0  0  0
 48 65  1  0  0  0  0
 49 52  1  0  0  0  0
 49 65  1  0  0  0  0
 50 70  1  0  0  0  0
 51 64  1  0  0  0  0
 52 63  1  0  0  0  0
 53 59  1  0  0  0  0
 54 60  1  0  0  0  0
 55 60  1  0  0  0  0
 56 60  1  0  0  0  0
 57 72  1  0  0  0  0
 58 60  1  0  0  0  0
 58 71  1  0  0  0  0
 59 72  1  0  0  0  0
 61 63  1  0  0  0  0
M  CHG  1  72   1
M  ISO  4  33 101  40 100  69 100  81 101
M  END
> <Batch ID>
0182

> <Smiles>
CNC(C)C(=O)NC(C(=O)N1Cc2cc([101O:1][101CH2:1]C(=O)C(=O)C=Cc3nc([100NH:0][100C:0](=O)N4CCCC(n5nc(-c6ccc(Oc7ccc(F)cc7F)cc6)c(C(N)=O)c5N)C4)sc3N)ccc2CC1C(=O)NC1CCCc2ccccc21)C(C)(C)C

> <Shape>
0.255

> <Color>
0.082

> <Negative vol penalty>
0.000

$$$$

  -OEChem-04052304563D

 82 90  0     1  0  0  0  0  0999 V2000
  -18.0895  -31.0325   22.9543 C   0  0  0  0  0  0  0  0  0  0  0  0
  -19.4763  -31.0954   22.8622 C   0  0  0  0  0  0  0  0  0  0  0  0
  -27.0948  -13.2612   21.2056 C   0  0  0  0  0  0  0  0  0  0  0  0
  -26.6448  -14.0430   18.9643 C   0  0  0  0  0  0  0  0  0  0  0  0
  -17.4476  -29.7948   22.9560 C   0  0  0  0  0  0  0  0  0  0  0  0
  -20.2219  -29.9205   22.7728 C   0  0  0  0  0  0  0  0  0  0  0  0
  -25.4000  -29.0780   19.6130 C   0  0  0  0  0  0  0  0  0  0  0  0
  -26.3267  -12.1226   20.9627 C   0  0  0  0  0  0  0  0  0  0  0  0
  -25.8767  -12.9043   18.7213 C   0  0  0  0  0  0  0  0  0  0  0  0
  -26.7417  -29.0854   19.9918 C   0  0  0  0  0  0  0  0  0  0  0  0
  -24.1879   -9.1830   21.0513 C   0  0  0  0  0  0  0  0  0  0  0  0
  -23.2831   -8.7868   22.0362 C   0  0  0  0  0  0  0  0  0  0  0  0
  -26.6906  -26.6824   20.1976 C   0  0  0  0  0  0  0  0  0  0  0  0
  -22.1421  -10.9074   21.8411 C   0  0  0  0  0  0  0  0  0  0  0  0
  -27.2538  -14.2215   20.2065 C   0  0  0  0  0  0  0  0  0  0  0  0
  -29.4277  -15.5560   20.2346 C   0  0  0  0  0  0  0  0  0  0  0  0
  -18.1851  -28.6045   22.8568 C   0  0  0  0  0  0  0  0  0  0  0  0
  -24.6893  -27.8717   19.5341 C   0  0  0  0  0  0  0  0  0  0  0  0
  -19.5894  -28.6657   22.7745 C   0  0  0  0  0  0  0  0  0  0  0  0
  -25.3406  -26.6622   19.8151 C   0  0  0  0  0  0  0  0  0  0  0  0
  -25.7177  -11.9441   19.7205 C   0  0  0  0  0  0  0  0  0  0  0  0
  -27.3864  -27.8877   20.2870 C   0  0  0  0  0  0  0  0  0  0  0  0
  -24.0698  -10.4414   20.4613 C   0  0  0  0  0  0  0  0  0  0  0  0
  -22.2603   -9.6490   22.4311 C   0  0  0  0  0  0  0  0  0  0  0  0
  -23.0469  -11.3036   20.8562 C   0  0  0  0  0  0  0  0  0  0  0  0
  -28.0466  -15.3982   20.4570 C   0  0  0  0  0  0  0  0  0  0  0  0
  -31.4995  -24.9233   19.0358 C   0  0  0  0  0  0  0  0  0  0  0  0
  -29.6942  -16.8442   20.6295 C   0  0  0  0  0  0  0  0  0  0  0  0
  -32.2305  -24.0942   18.2110 C   0  0  0  0  0  0  0  0  0  0  0  0
  -30.4002  -23.0580   19.3851 C   0  0  0  0  0  0  0  0  0  0  0  0
  -29.5855  -27.1999   19.8850 C   0  0  0  0  0  0  0  0  0  1  0  0
  -30.3842  -14.6216   19.7171 C   0  0  0  0  0  0  0  0  0  0  0  0
  -31.7724  -26.3633   19.2283 C   0  0  0  0  0  0  0  0  0  0  0  0
  -30.8948  -27.1360   20.1549 C   0  0  0  0  0  0  0  0  0  0  0  0
  -22.1481  -26.6644   21.0136 C   0  0  0  0  0  0  0  0  0  0  0  0
  -22.5142  -24.2709   18.8551 C   0  0  0  0  0  0  0  0  0  0  0  0
  -25.2551  -22.4097   17.4265 C   0  0  0  0  0  0  0  0  0  0  0  0
  -28.4292  -22.2655   20.7391 C   0  0  0  0  0  0  0  0  0  0  0  0
  -17.4502  -27.2886   22.9103 C   0  0  0  0  0  0  0  0  0  0  0  0
  -23.2497  -27.8783   19.0981 C   0  0  0  0  0  0  0  0  0  0  0  0
  -24.6279  -25.3383   19.7258 C   0  0  0  0  0  0  0  0  0  0  0  0
  -18.2871  -26.1038   22.4347 C   0  0  0  0  0  0  0  0  0  0  0  0
  -26.8311  -20.1786   23.1408 C   0  0  0  0  0  0  0  0  0  0  0  0
  -19.6762  -26.1448   23.0634 C   0  0  0  0  0  0  0  0  0  0  0  0
  -27.1185  -18.7618   22.6384 C   0  0  0  0  0  0  0  0  0  0  0  0
  -26.5920  -21.1516   21.9877 C   0  0  0  0  0  0  0  0  0  0  0  0
  -27.9331  -19.7569   20.4628 C   0  0  0  0  0  0  0  0  0  0  0  0
  -20.4312  -27.4142   22.6509 C   0  0  1  0  0  0  0  0  0  0  0  0
  -22.4832  -26.6388   19.5491 C   0  0  1  0  0  0  0  0  0  0  0  0
  -28.2448  -18.7547   21.5862 C   0  0  2  0  0  0  0  0  0  0  0  0
  -25.4586  -21.2462   15.2124 C   0  0  0  0  0  0  0  0  0  0  0  0
  -21.6055  -21.7998   20.3973 C   0  0  0  0  0  0  0  0  0  0  0  0
  -23.2110  -20.4451   19.0352 C   0  0  0  0  0  0  0  0  0  0  0  0
  -21.3294  -21.6414   17.9167 C   0  0  0  0  0  0  0  0  0  0  0  0
  -27.7035  -23.9184   16.7276 C   0  0  0  0  0  0  0  0  0  0  0  0
  -23.2809  -22.9709   18.8201 C   0  0  1  0  0  0  0  0  0  0  0  0
  -25.7750  -22.5059   16.0034 C   0  0  2  0  0  0  0  0  0  0  0  0
  -22.3658  -21.7365   19.0575 C   0  0  0  0  0  0  0  0  0  0  0  0
  -27.4756  -16.4983   20.9548 N   0  0  0  0  0  0  0  0  0  0  0  0
  -30.4493  -24.3310   19.7096 N   0  0  0  0  0  0  0  0  0  0  0  0
  -28.5030  -17.3596   21.0485 N   0  0  0  0  0  0  0  0  0  0  0  0
  -23.2195  -25.3975   19.3012 N   0  0  0  0  0  0  0  0  0  0  0  0
  -27.7011  -21.0932   21.0331 N   0  0  0  0  0  0  0  0  0  0  0  0
  -30.8290  -17.5750   20.6558 N   0  0  0  0  0  0  0  0  0  0  0  0
  -33.3007  -24.4076   17.4399 N   0  0  0  0  0  0  0  0  0  0  0  0
  -29.9413  -13.3407   19.3600 N   0  0  0  0  0  0  0  0  0  0  0  0
  -29.4813  -22.0812   19.8427 N   0  0  0  0  0  0  0  0  0  0  0  0
  -20.9463  -27.2810   21.3051 N   0  0  0  0  0  0  0  0  0  0  0  0
  -23.9926  -22.9510   17.5467 N   0  0  0  0  0  0  0  0  0  0  0  0
  -27.2523  -22.7021   16.0038 N   0  3  0  0  0  0  0  0  0  0  0  0
  -31.5989  -14.9085   19.5910 O   0  0  0  0  0  0  0  0  0  0  0  0
  -32.7212  -26.8721   18.6400 O   0  0  0  0  0  0  0  0  0  0  0  0
  -22.9219  -26.1608   21.8193 O   0  0  0  0  0  0  0  0  0  0  0  0
  -21.3351  -24.2875   18.4930 O   0  0  0  0  0  0  0  0  0  0  0  0
  -25.9026  -21.9017   18.3392 O   0  0  0  0  0  0  0  0  0  0  0  0
  -28.1576  -23.3474   21.2662 O   0  0  0  0  0  0  0  0  0  0  0  0
  -31.4649  -27.7812   21.2314 O   0  0  0  0  0  0  0  0  0  0  0  0
  -24.9683  -10.8330   19.4830 O   0  0  0  0  0  0  0  0  0  0  0  0
  -28.6958  -27.8922   20.6576 O   0  0  0  0  0  0  0  0  0  1  0  0
  -21.3906   -9.2678   23.3759 F   0  0  0  0  0  0  0  0  0  0  0  0
  -22.9277  -12.5134   20.2922 F   0  0  0  0  0  0  0  0  0  0  0  0
  -31.5869  -22.5059   18.2753 S   0  0  0  0  0  0  0  0  0  0  0  0
  1  2  1  0  0  0  0
  1  5  2  0  0  0  0
  2  6  2  0  0  0  0
  3  8  2  0  0  0  0
  3 15  1  0  0  0  0
  4  9  1  0  0  0  0
  4 15  2  0  0  0  0
  5 17  1  0  0  0  0
  6 19  1  0  0  0  0
  7 10  2  0  0  0  0
  7 18  1  0  0  0  0
  8 21  1  0  0  0  0
  9 21  2  0  0  0  0
 10 22  1  0  0  0  0
 11 12  2  0  0  0  0
 11 23  1  0  0  0  0
 12 24  1  0  0  0  0
 13 20  1  0  0  0  0
 13 22  2  0  0  0  0
 14 24  2  0  0  0  0
 14 25  1  0  0  0  0
 15 26  1  0  0  0  0
 16 26  1  0  0  0  0
 16 28  2  0  0  0  0
 16 32  1  0  0  0  0
 17 19  2  0  0  0  0
 17 39  1  0  0  0  0
 18 20  2  0  0  0  0
 18 40  1  0  0  0  0
 19 48  1  0  0  0  0
 20 41  1  0  0  0  0
 21 78  1  0  0  0  0
 22 79  1  0  0  0  0
 23 25  2  0  0  0  0
 23 78  1  0  0  0  0
 24 80  1  0  0  0  0
 25 81  1  0  0  0  0
 26 59  2  0  0  0  0
 27 29  2  0  0  0  0
 27 33  1  0  0  0  0
 27 60  1  0  0  0  0
 28 61  1  0  0  0  0
 28 64  1  0  0  0  0
 29 65  1  0  0  0  0
 29 82  1  0  0  0  0
 30 60  2  0  0  0  0
 30 67  1  0  0  0  0
 30 82  1  0  0  0  0
 31 34  2  0  0  0  0
 31 79  1  0  0  0  0
 32 66  1  0  0  0  0
 32 71  2  0  0  0  0
 33 34  1  0  0  0  0
 33 72  2  0  0  0  0
 34 77  1  0  0  0  0
 35 49  1  0  0  0  0
 35 68  1  0  0  0  0
 35 73  2  0  0  0  0
 36 56  1  0  0  0  0
 36 62  1  0  0  0  0
 36 74  2  0  0  0  0
 37 57  1  0  0  0  0
 37 69  1  0  0  0  0
 37 75  2  0  0  0  0
 38 63  1  0  0  0  0
 38 67  1  0  0  0  0
 38 76  2  0  0  0  0
 39 42  1  0  0  0  0
 40 49  1  0  0  0  0
 41 62  1  0  0  0  0
 42 44  1  0  0  0  0
 43 45  1  0  0  0  0
 43 46  1  0  0  0  0
 44 48  1  0  0  0  0
 45 50  1  0  0  0  0
 46 63  1  0  0  0  0
 47 50  1  0  0  0  0
 47 63  1  0  0  0  0
 48 68  1  0  0  0  0
 49 62  1  0  0  0  0
 50 61  1  0  0  0  0
 51 57  1  0  0  0  0
 52 58  1  0  0  0  0
 53 58  1  0  0  0  0
 54 58  1  0  0  0  0
 55 70  1  0  0  0  0
 56 58  1  0  0  0  0
 56 69  1  0  0  0  0
 57 70  1  0  0  0  0
 59 61  1  0  0  0  0
M  CHG  1  70   1
M  ISO  4  31 101  38 100  67 100  79 101
M  END
> <Batch ID>
0182

> <Smiles>
CNC(C)C(=O)NC(C(=O)N1Cc2cc([101O:1][101CH2:1]C(=O)C(=O)c3nc([100NH:0][100C:0](=O)N4CCCC(n5nc(-c6ccc(Oc7ccc(F)cc7F)cc6)c(C(N)=O)c5N)C4)sc3N)ccc2CC1C(=O)NC1CCCc2ccccc21)C(C)(C)C

> <Shape>
0.282

> <Color>
0.076

> <Negative vol penalty>
0.000

$$$$

  -OEChem-04052304563D

 86 94  0     1  0  0  0  0  0999 V2000
  -29.2999  -31.6703   17.0778 C   0  0  0  0  0  0  0  0  0  0  0  0
  -30.1446  -31.2467   18.0989 C   0  0  0  0  0  0  0  0  0  0  0  0
  -23.0536   -9.8383   19.9487 C   0  0  0  0  0  0  0  0  0  0  0  0
  -23.7835   -9.8767   22.2515 C   0  0  0  0  0  0  0  0  0  0  0  0
  -28.5066  -30.7443   16.4017 C   0  0  0  0  0  0  0  0  0  0  0  0
  -30.1956  -29.8969   18.4451 C   0  0  0  0  0  0  0  0  0  0  0  0
  -34.7491  -24.9202   20.8565 C   0  0  0  0  0  0  0  0  0  0  0  0
  -22.3184   -8.6801   20.2010 C   0  0  0  0  0  0  0  0  0  0  0  0
  -23.0483   -8.7185   22.5038 C   0  0  0  0  0  0  0  0  0  0  0  0
  -34.8655  -23.9654   21.8658 C   0  0  0  0  0  0  0  0  0  0  0  0
  -23.3804   -5.3942   21.9848 C   0  0  0  0  0  0  0  0  0  0  0  0
  -23.9970   -4.3827   22.7213 C   0  0  0  0  0  0  0  0  0  0  0  0
  -33.5087  -22.4445   20.5753 C   0  0  0  0  0  0  0  0  0  0  0  0
  -22.2719   -4.5561   24.4038 C   0  0  0  0  0  0  0  0  0  0  0  0
  -23.7862  -10.4366   20.9739 C   0  0  0  0  0  0  0  0  0  0  0  0
  -24.1037  -12.9638   20.8321 C   0  0  0  0  0  0  0  0  0  0  0  0
  -28.5551  -29.3811   16.7332 C   0  0  0  0  0  0  0  0  0  0  0  0
  -34.0012  -24.6478   19.7019 C   0  0  0  0  0  0  0  0  0  0  0  0
  -29.4012  -28.9520   17.7736 C   0  0  0  0  0  0  0  0  0  0  0  0
  -33.3864  -23.3966   19.5517 C   0  0  0  0  0  0  0  0  0  0  0  0
  -22.3157   -8.1202   21.4786 C   0  0  0  0  0  0  0  0  0  0  0  0
  -34.2429  -22.7284   21.7266 C   0  0  0  0  0  0  0  0  0  0  0  0
  -22.2096   -5.9867   22.4579 C   0  0  0  0  0  0  0  0  0  0  0  0
  -23.4427   -3.9637   23.9307 C   0  0  0  0  0  0  0  0  0  0  0  0
  -21.6553   -5.5677   23.6673 C   0  0  0  0  0  0  0  0  0  0  0  0
  -24.5464  -11.6327   20.7138 C   0  0  0  0  0  0  0  0  0  0  0  0
  -31.8568  -16.9178   22.8003 C   0  0  0  0  0  0  0  0  0  0  0  0
  -25.1928  -13.7208   20.4752 C   0  0  0  0  0  0  0  0  0  0  0  0
  -30.5533  -16.6650   22.4275 C   0  0  0  0  0  0  0  0  0  0  0  0
  -30.8561  -18.3916   24.0796 C   0  0  0  0  0  0  0  0  0  0  0  0
  -22.8227  -13.4706   21.2293 C   0  0  0  0  0  0  0  0  0  0  0  0
  -32.9978  -16.2251   22.2683 C   0  0  0  0  0  0  0  0  0  0  0  0
  -31.4092  -25.9061   18.3595 C   0  0  0  0  0  0  0  0  0  0  0  0
  -32.4093  -21.0555   24.8022 C   0  0  0  0  0  0  0  0  0  0  0  0
  -32.1132  -23.8273   15.9710 C   0  0  0  0  0  0  0  0  0  0  0  0
  -33.6422  -20.9328   15.0062 C   0  0  0  0  0  0  0  0  0  0  0  0
  -30.6453  -14.8246   20.7096 C   0  0  0  0  0  0  0  0  0  0  0  0
  -27.6440  -28.4243   16.0059 C   0  0  0  0  0  0  0  0  0  0  0  0
  -33.9075  -25.6785   18.6105 C   0  0  0  0  0  0  0  0  0  0  0  0
  -32.5890  -23.0472   18.3227 C   0  0  0  0  0  0  0  0  0  0  0  0
  -28.0344  -26.9590   16.1816 C   0  0  0  0  0  0  0  0  0  0  0  0
  -29.5865  -12.3754   18.3522 C   0  0  0  0  0  0  0  0  0  0  0  0
  -28.3248  -26.6560   17.6481 C   0  0  0  0  0  0  0  0  0  0  0  0
  -28.1444  -12.0733   18.7662 C   0  0  0  0  0  0  0  0  0  0  0  0
  -30.4835  -12.6259   19.5631 C   0  0  0  0  0  0  0  0  0  0  0  0
  -28.5515  -13.3446   20.9121 C   0  0  0  0  0  0  0  0  0  0  0  0
  -29.5029  -27.4927   18.1615 C   0  0  1  0  0  0  0  0  0  0  0  0
  -32.6944  -25.4827   17.7063 C   0  0  1  0  0  0  0  0  0  0  0  0
  -27.5958  -13.1493   19.7237 C   0  0  2  0  0  0  0  0  0  0  0  0
  -34.3079  -16.9700   22.1881 C   0  0  0  0  0  0  0  0  0  0  0  0
  -31.1887  -20.7332   26.9651 C   0  0  0  0  0  0  0  0  0  0  0  0
  -34.0116  -19.4749   12.9973 C   0  0  0  0  0  0  0  0  0  0  0  0
  -29.2550  -22.7853   16.2046 C   0  0  0  0  0  0  0  0  0  0  0  0
  -29.9578  -20.7680   14.8990 C   0  0  0  0  0  0  0  0  0  0  0  0
  -30.0870  -23.0317   13.8591 C   0  0  0  0  0  0  0  0  0  0  0  0
  -36.5779  -21.2789   15.1504 C   0  0  0  0  0  0  0  0  0  0  0  0
  -33.9037  -21.2684   25.0156 C   0  0  0  0  0  0  0  0  0  0  0  0
  -34.5065  -22.2740   24.0461 C   0  0  0  0  0  0  0  0  0  1  0  0
  -31.7381  -20.0466   25.7254 C   0  0  1  0  0  0  0  0  0  0  0  0
  -31.7479  -22.3967   15.6564 C   0  0  1  0  0  0  0  0  0  0  0  0
  -34.5584  -20.6187   13.8372 C   0  0  2  0  0  0  0  0  0  0  0  0
  -30.2753  -22.2524   15.1789 C   0  0  0  0  0  0  0  0  0  0  0  0
  -25.8175  -11.5457   20.3129 N   0  0  0  0  0  0  0  0  0  0  0  0
  -32.0324  -17.9079   23.7473 N   0  0  0  0  0  0  0  0  0  0  0  0
  -26.1828  -12.8317   20.1761 N   0  0  0  0  0  0  0  0  0  0  0  0
  -32.5215  -24.0906   17.2862 N   0  0  0  0  0  0  0  0  0  0  0  0
  -29.9027  -13.6598   20.4225 N   0  0  0  0  0  0  0  0  0  0  0  0
  -25.3905  -15.0535   20.3911 N   0  0  0  0  0  0  0  0  0  0  0  0
  -21.8158  -12.5545   21.5629 N   0  0  0  0  0  0  0  0  0  0  0  0
  -29.9779  -15.7512   21.5100 N   0  0  0  0  0  0  0  0  0  0  0  0
  -30.6616  -19.4011   25.0064 N   0  0  0  0  0  0  0  0  0  0  0  0
  -30.7571  -26.9334   17.7047 N   0  0  0  0  0  0  0  0  0  0  0  0
  -32.7372  -21.9250   14.6936 N   0  0  0  0  0  0  0  0  0  0  0  0
  -35.9122  -20.2356   14.3285 N   0  3  0  0  0  0  0  0  0  0  0  0
  -22.5731  -14.6993   21.2708 O   0  0  0  0  0  0  0  0  0  0  0  0
  -33.0056  -15.0523   21.8570 O   0  0  0  0  0  0  0  0  0  0  0  0
  -31.0361  -25.3415   19.3812 O   0  0  0  0  0  0  0  0  0  0  0  0
  -31.7764  -21.6778   23.9488 O   0  0  0  0  0  0  0  0  0  0  0  0
  -32.0460  -24.6784   15.0806 O   0  0  0  0  0  0  0  0  0  0  0  0
  -33.7191  -20.3531   16.0872 O   0  0  0  0  0  0  0  0  0  0  0  0
  -31.7786  -15.0003   20.2548 O   0  0  0  0  0  0  0  0  0  0  0  0
  -21.5982   -6.9902   21.7252 O   0  0  0  0  0  0  0  0  0  0  0  0
  -34.3544  -21.7950   22.7105 O   0  0  0  0  0  0  0  0  0  1  0  0
  -24.0341   -2.9913   24.6371 F   0  0  0  0  0  0  0  0  0  0  0  0
  -20.5300   -6.1323   24.1264 F   0  0  0  0  0  0  0  0  0  0  0  0
  -29.4960  -17.7017   23.2927 S   0  0  0  0  0  0  0  0  0  0  0  0
  1  2  1  0  0  0  0
  1  5  2  0  0  0  0
  2  6  2  0  0  0  0
  3  8  2  0  0  0  0
  3 15  1  0  0  0  0
  4  9  1  0  0  0  0
  4 15  2  0  0  0  0
  5 17  1  0  0  0  0
  6 19  1  0  0  0  0
  7 10  2  0  0  0  0
  7 18  1  0  0  0  0
  8 21  1  0  0  0  0
  9 21  2  0  0  0  0
 10 22  1  0  0  0  0
 11 12  2  0  0  0  0
 11 23  1  0  0  0  0
 12 24  1  0  0  0  0
 13 20  1  0  0  0  0
 13 22  2  0  0  0  0
 14 24  2  0  0  0  0
 14 25  1  0  0  0  0
 15 26  1  0  0  0  0
 16 26  1  0  0  0  0
 16 28  2  0  0  0  0
 16 31  1  0  0  0  0
 17 19  2  0  0  0  0
 17 38  1  0  0  0  0
 18 20  2  0  0  0  0
 18 39  1  0  0  0  0
 19 47  1  0  0  0  0
 20 40  1  0  0  0  0
 21 82  1  0  0  0  0
 22 83  1  0  0  0  0
 23 25  2  0  0  0  0
 23 82  1  0  0  0  0
 24 84  1  0  0  0  0
 25 85  1  0  0  0  0
 26 63  2  0  0  0  0
 27 29  2  0  0  0  0
 27 32  1  0  0  0  0
 27 64  1  0  0  0  0
 28 65  1  0  0  0  0
 28 68  1  0  0  0  0
 29 70  1  0  0  0  0
 29 86  1  0  0  0  0
 30 64  2  0  0  0  0
 30 71  1  0  0  0  0
 30 86  1  0  0  0  0
 31 69  1  0  0  0  0
 31 75  2  0  0  0  0
 32 50  1  0  0  0  0
 32 76  2  0  0  0  0
 33 48  1  0  0  0  0
 33 72  1  0  0  0  0
 33 77  2  0  0  0  0
 34 57  1  0  0  0  0
 34 59  1  0  0  0  0
 34 78  2  0  0  0  0
 35 60  1  0  0  0  0
 35 66  1  0  0  0  0
 35 79  2  0  0  0  0
 36 61  1  0  0  0  0
 36 73  1  0  0  0  0
 36 80  2  0  0  0  0
 37 67  1  0  0  0  0
 37 70  1  0  0  0  0
 37 81  2  0  0  0  0
 38 41  1  0  0  0  0
 39 48  1  0  0  0  0
 40 66  1  0  0  0  0
 41 43  1  0  0  0  0
 42 44  1  0  0  0  0
 42 45  1  0  0  0  0
 43 47  1  0  0  0  0
 44 49  1  0  0  0  0
 45 67  1  0  0  0  0
 46 49  1  0  0  0  0
 46 67  1  0  0  0  0
 47 72  1  0  0  0  0
 48 66  1  0  0  0  0
 49 65  1  0  0  0  0
 51 59  1  0  0  0  0
 52 61  1  0  0  0  0
 53 62  1  0  0  0  0
 54 62  1  0  0  0  0
 55 62  1  0  0  0  0
 56 74  1  0  0  0  0
 57 58  1  0  0  0  0
 58 83  1  0  0  0  0
 59 71  1  0  0  0  0
 60 62  1  0  0  0  0
 60 73  1  0  0  0  0
 61 74  1  0  0  0  0
 63 65  1  0  0  0  0
M  CHG  1  74   1
M  ISO  4  37 100  58 101  70 100  83 101
M  END
> <Batch ID>
0182

> <Smiles>
CNC(C)C(=O)NC(C(=O)N1Cc2cc([101O:1][101CH2:1]CC(=O)C(C)Nc3nc(C(C)=O)c([100NH:0][100C:0](=O)N4CCCC(n5nc(-c6ccc(Oc7ccc(F)cc7F)cc6)c(C(N)=O)c5N)C4)s3)ccc2CC1C(=O)NC1CCCc2ccccc21)C(C)(C)C

> <Shape>
0.196

> <Color>
0.210

> <Negative vol penalty>
0.000

$$$$

  -OEChem-04052304563D

 84 92  0     1  0  0  0  0  0999 V2000
  -24.6544  -36.2701   15.6386 C   0  0  0  0  0  0  0  0  0  0  0  0
  -25.2758  -35.0306   15.7523 C   0  0  0  0  0  0  0  0  0  0  0  0
  -23.2233   -9.0865   20.6648 C   0  0  0  0  0  0  0  0  0  0  0  0
  -23.1764  -10.6718   22.4874 C   0  0  0  0  0  0  0  0  0  0  0  0
  -24.4196  -37.0380   16.7784 C   0  0  0  0  0  0  0  0  0  0  0  0
  -25.6637  -34.5587   17.0058 C   0  0  0  0  0  0  0  0  0  0  0  0
  -25.6465  -28.7402   18.9164 C   0  0  0  0  0  0  0  0  0  0  0  0
  -22.4216   -8.2151   21.4021 C   0  0  0  0  0  0  0  0  0  0  0  0
  -22.3747   -9.8004   23.2247 C   0  0  0  0  0  0  0  0  0  0  0  0
  -26.6532  -27.7799   19.0076 C   0  0  0  0  0  0  0  0  0  0  0  0
  -22.8152   -6.0037   23.9277 C   0  0  0  0  0  0  0  0  0  0  0  0
  -23.1754   -4.6564   23.9517 C   0  0  0  0  0  0  0  0  0  0  0  0
  -26.9787  -28.3505   21.3288 C   0  0  0  0  0  0  0  0  0  0  0  0
  -21.0467   -4.0697   22.9711 C   0  0  0  0  0  0  0  0  0  0  0  0
  -23.6007  -10.3149   21.2075 C   0  0  0  0  0  0  0  0  0  0  0  0
  -24.0004  -12.2215   19.5605 C   0  0  0  0  0  0  0  0  0  0  0  0
  -24.7961  -36.5711   18.0476 C   0  0  0  0  0  0  0  0  0  0  0  0
  -25.3053  -29.5217   20.0296 C   0  0  0  0  0  0  0  0  0  0  0  0
  -25.4349  -35.3217   18.1635 C   0  0  0  0  0  0  0  0  0  0  0  0
  -25.9656  -29.3182   21.2497 C   0  0  0  0  0  0  0  0  0  0  0  0
  -21.9973   -8.5721   22.6820 C   0  0  0  0  0  0  0  0  0  0  0  0
  -27.3214  -27.5869   20.2131 C   0  0  0  0  0  0  0  0  0  0  0  0
  -21.5707   -6.3840   23.4255 C   0  0  0  0  0  0  0  0  0  0  0  0
  -22.2912   -3.6894   23.4734 C   0  0  0  0  0  0  0  0  0  0  0  0
  -20.6865   -5.4171   22.9471 C   0  0  0  0  0  0  0  0  0  0  0  0
  -24.4293  -11.2152   20.4466 C   0  0  0  0  0  0  0  0  0  0  0  0
  -29.5423  -19.5401   18.7906 C   0  0  0  0  0  0  0  0  0  0  0  0
  -30.8232  -19.0287   18.7918 C   0  0  0  0  0  0  0  0  0  0  0  0
  -25.1622  -12.7894   19.0976 C   0  0  0  0  0  0  0  0  0  0  0  0
  -29.7434  -17.2151   19.3874 C   0  0  0  0  0  0  0  0  0  0  0  0
  -22.6707  -12.6085   19.1891 C   0  0  0  0  0  0  0  0  0  0  0  0
  -25.3706  -32.6295   20.6935 C   0  0  0  0  0  0  0  0  0  0  0  0
  -23.8789  -31.6826   23.4139 C   0  0  0  0  0  0  0  0  0  0  0  0
  -29.2948  -21.9220   19.5901 C   0  0  0  0  0  0  0  0  0  0  0  0
  -28.8576  -24.3046   20.0963 C   0  0  0  0  0  0  0  0  0  0  0  0
  -23.2498  -29.1868   25.6548 C   0  0  0  0  0  0  0  0  0  0  0  0
  -30.2733  -14.8209   19.9651 C   0  0  0  0  0  0  0  0  0  0  0  0
  -24.5641  -37.4576   19.2455 C   0  0  0  0  0  0  0  0  0  0  0  0
  -24.1988  -30.5349   19.9220 C   0  0  0  0  0  0  0  0  0  0  0  0
  -25.6230  -30.1171   22.4797 C   0  0  0  0  0  0  0  0  0  0  0  0
  -24.6677  -36.7203   20.5781 C   0  0  0  0  0  0  0  0  0  0  0  0
  -29.9752  -11.2950   19.5702 C   0  0  0  0  0  0  0  0  0  0  0  0
  -25.9105  -35.8362   20.6038 C   0  0  0  0  0  0  0  0  0  0  0  0
  -28.4705  -11.0427   19.6901 C   0  0  0  0  0  0  0  0  0  0  0  0
  -30.4414  -12.4030   20.5129 C   0  0  0  0  0  0  0  0  0  0  0  0
  -28.1943  -13.4129   20.5225 C   0  0  0  0  0  0  0  0  0  0  0  0
  -25.8480  -34.7647   19.5086 C   0  0  1  0  0  0  0  0  0  0  0  0
  -24.2863  -31.6298   20.9806 C   0  0  1  0  0  0  0  0  0  0  0  0
  -27.6666  -12.3497   19.5453 C   0  0  2  0  0  0  0  0  0  0  0  0
  -22.0259  -28.7244   27.7962 C   0  0  0  0  0  0  0  0  0  0  0  0
  -26.0448  -33.1659   24.9692 C   0  0  0  0  0  0  0  0  0  0  0  0
  -25.3419  -31.9048   27.0146 C   0  0  0  0  0  0  0  0  0  0  0  0
  -23.7327  -33.4383   25.8826 C   0  0  0  0  0  0  0  0  0  0  0  0
  -21.5547  -27.1249   24.3763 C   0  0  0  0  0  0  0  0  0  0  0  0
  -29.0462  -20.9260   18.4730 C   0  0  0  0  0  0  0  0  0  0  0  0
  -28.1933  -25.5067   19.4592 C   0  0  0  0  0  0  0  0  0  1  0  0
  -24.3333  -31.2417   24.7843 C   0  0  1  0  0  0  0  0  0  0  0  0
  -21.9557  -28.6946   26.2774 C   0  0  2  0  0  0  0  0  0  0  0  0
  -24.8712  -32.4238   25.6392 C   0  0  0  0  0  0  0  0  0  0  0  0
  -25.7597  -11.1452   20.5424 N   0  0  0  0  0  0  0  0  0  0  0  0
  -30.9405  -17.6958   19.1342 N   0  0  0  0  0  0  0  0  0  0  0  0
  -26.1768  -12.1147   19.7104 N   0  0  0  0  0  0  0  0  0  0  0  0
  -24.5383  -31.1000   22.3223 N   0  0  0  0  0  0  0  0  0  0  0  0
  -29.6376  -13.6113   20.3163 N   0  0  0  0  0  0  0  0  0  0  0  0
  -31.9234  -19.7563   18.4845 N   0  0  0  0  0  0  0  0  0  0  0  0
  -25.4046  -13.7950   18.2301 N   0  0  0  0  0  0  0  0  0  0  0  0
  -21.5909  -11.9203   19.7589 N   0  0  0  0  0  0  0  0  0  0  0  0
  -29.4042  -15.8943   19.7726 N   0  0  0  0  0  0  0  0  0  0  0  0
  -24.9648  -33.6886   19.9041 N   0  0  0  0  0  0  0  0  0  0  0  0
  -28.7750  -23.1796   19.2752 N   0  0  0  0  0  0  0  0  0  0  0  0
  -23.2039  -30.5376   25.3819 N   0  0  0  0  0  0  0  0  0  0  0  0
  -21.6730  -27.2960   25.8473 N   0  3  0  0  0  0  0  0  0  0  0  0
  -22.4471  -13.5261   18.3636 O   0  0  0  0  0  0  0  0  0  0  0  0
  -26.4921  -32.4538   21.1552 O   0  0  0  0  0  0  0  0  0  0  0  0
  -22.9676  -32.5081   23.3155 O   0  0  0  0  0  0  0  0  0  0  0  0
  -29.8908  -21.6410   20.6266 O   0  0  0  0  0  0  0  0  0  0  0  0
  -29.3933  -24.3481   21.2003 O   0  0  0  0  0  0  0  0  0  0  0  0
  -24.2070  -28.4476   25.4362 O   0  0  0  0  0  0  0  0  0  0  0  0
  -31.4960  -14.8924   19.8174 O   0  0  0  0  0  0  0  0  0  0  0  0
  -21.2148   -7.7221   23.4016 O   0  0  0  0  0  0  0  0  0  0  0  0
  -28.3048  -26.6508   20.3048 O   0  0  0  0  0  0  0  0  0  1  0  0
  -22.6379   -2.3958   23.4951 F   0  0  0  0  0  0  0  0  0  0  0  0
  -19.4900   -5.7765   22.4623 F   0  0  0  0  0  0  0  0  0  0  0  0
  -28.4315  -18.3105   19.2327 S   0  0  0  0  0  0  0  0  0  0  0  0
  1  2  1  0  0  0  0
  1  5  2  0  0  0  0
  2  6  2  0  0  0  0
  3  8  2  0  0  0  0
  3 15  1  0  0  0  0
  4  9  1  0  0  0  0
  4 15  2  0  0  0  0
  5 17  1  0  0  0  0
  6 19  1  0  0  0  0
  7 10  2  0  0  0  0
  7 18  1  0  0  0  0
  8 21  1  0  0  0  0
  9 21  2  0  0  0  0
 10 22  1  0  0  0  0
 11 12  2  0  0  0  0
 11 23  1  0  0  0  0
 12 24  1  0  0  0  0
 13 20  1  0  0  0  0
 13 22  2  0  0  0  0
 14 24  2  0  0  0  0
 14 25  1  0  0  0  0
 15 26  1  0  0  0  0
 16 26  1  0  0  0  0
 16 29  2  0  0  0  0
 16 31  1  0  0  0  0
 17 19  2  0  0  0  0
 17 38  1  0  0  0  0
 18 20  2  0  0  0  0
 18 39  1  0  0  0  0
 19 47  1  0  0  0  0
 20 40  1  0  0  0  0
 21 80  1  0  0  0  0
 22 81  1  0  0  0  0
 23 25  2  0  0  0  0
 23 80  1  0  0  0  0
 24 82  1  0  0  0  0
 25 83  1  0  0  0  0
 26 60  2  0  0  0  0
 27 28  2  0  0  0  0
 27 55  1  0  0  0  0
 27 84  1  0  0  0  0
 28 61  1  0  0  0  0
 28 65  1  0  0  0  0
 29 62  1  0  0  0  0
 29 66  1  0  0  0  0
 30 61  2  0  0  0  0
 30 68  1  0  0  0  0
 30 84  1  0  0  0  0
 31 67  1  0  0  0  0
 31 73  2  0  0  0  0
 32 48  1  0  0  0  0
 32 69  1  0  0  0  0
 32 74  2  0  0  0  0
 33 57  1  0  0  0  0
 33 63  1  0  0  0  0
 33 75  2  0  0  0  0
 34 55  1  0  0  0  0
 34 70  1  0  0  0  0
 34 76  2  0  0  0  0
 35 56  1  0  0  0  0
 35 70  1  0  0  0  0
 35 77  2  0  0  0  0
 36 58  1  0  0  0  0
 36 71  1  0  0  0  0
 36 78  2  0  0  0  0
 37 64  1  0  0  0  0
 37 68  1  0  0  0  0
 37 79  2  0  0  0  0
 38 41  1  0  0  0  0
 39 48  1  0  0  0  0
 40 63  1  0  0  0  0
 41 43  1  0  0  0  0
 42 44  1  0  0  0  0
 42 45  1  0  0  0  0
 43 47  1  0  0  0  0
 44 49  1  0  0  0  0
 45 64  1  0  0  0  0
 46 49  1  0  0  0  0
 46 64  1  0  0  0  0
 47 69  1  0  0  0  0
 48 63  1  0  0  0  0
 49 62  1  0  0  0  0
 50 58  1  0  0  0  0
 51 59  1  0  0  0  0
 52 59  1  0  0  0  0
 53 59  1  0  0  0  0
 54 72  1  0  0  0  0
 56 81  1  0  0  0  0
 57 59  1  0  0  0  0
 57 71  1  0  0  0  0
 58 72  1  0  0  0  0
 60 62  1  0  0  0  0
M  CHG  1  72   1
M  ISO  4  37 100  56 101  68 100  81 101
M  END
> <Batch ID>
0182

> <Smiles>
CNC(C)C(=O)NC(C(=O)N1Cc2cc([101O:1][101CH2:1]C(=O)NC(=O)Cc3sc([100NH:0][100C:0](=O)N4CCCC(n5nc(-c6ccc(Oc7ccc(F)cc7F)cc6)c(C(N)=O)c5N)C4)nc3N)ccc2CC1C(=O)NC1CCCc2ccccc21)C(C)(C)C

> <Shape>
0.287

> <Color>
0.143

> <Negative vol penalty>
0.000

$$$$

  -OEChem-04052304563D

 84 92  0     1  0  0  0  0  0999 V2000
  -16.7793  -29.6180   24.0403 C   0  0  0  0  0  0  0  0  0  0  0  0
  -17.9170  -30.1777   24.6126 C   0  0  0  0  0  0  0  0  0  0  0  0
  -26.2632  -13.4428   21.5718 C   0  0  0  0  0  0  0  0  0  0  0  0
  -25.0451  -14.6137   19.8448 C   0  0  0  0  0  0  0  0  0  0  0  0
  -16.9018  -28.5645   23.1353 C   0  0  0  0  0  0  0  0  0  0  0  0
  -19.1781  -29.6835   24.2811 C   0  0  0  0  0  0  0  0  0  0  0  0
  -25.9606  -31.8196   23.4142 C   0  0  0  0  0  0  0  0  0  0  0  0
  -25.4110  -12.3477   21.4303 C   0  0  0  0  0  0  0  0  0  0  0  0
  -24.1930  -13.5185   19.7033 C   0  0  0  0  0  0  0  0  0  0  0  0
  -27.2514  -31.5040   23.8358 C   0  0  0  0  0  0  0  0  0  0  0  0
  -21.5282  -12.2099   21.3212 C   0  0  0  0  0  0  0  0  0  0  0  0
  -20.1587  -12.4610   21.2372 C   0  0  0  0  0  0  0  0  0  0  0  0
  -27.3463  -29.7334   22.2002 C   0  0  0  0  0  0  0  0  0  0  0  0
  -20.1024  -11.4242   19.0557 C   0  0  0  0  0  0  0  0  0  0  0  0
  -26.0802  -14.5759   20.7791 C   0  0  0  0  0  0  0  0  0  0  0  0
  -28.1640  -15.9432   20.2351 C   0  0  0  0  0  0  0  0  0  0  0  0
  -18.1656  -28.0635   22.7851 C   0  0  0  0  0  0  0  0  0  0  0  0
  -25.3477  -31.0863   22.3881 C   0  0  0  0  0  0  0  0  0  0  0  0
  -19.3176  -28.6214   23.3716 C   0  0  0  0  0  0  0  0  0  0  0  0
  -26.0485  -30.0434   21.7656 C   0  0  0  0  0  0  0  0  0  0  0  0
  -24.3759  -12.3855   20.4961 C   0  0  0  0  0  0  0  0  0  0  0  0
  -27.9434  -30.4589   23.2308 C   0  0  0  0  0  0  0  0  0  0  0  0
  -22.1849  -11.5661   20.2724 C   0  0  0  0  0  0  0  0  0  0  0  0
  -19.4458  -12.0681   20.1045 C   0  0  0  0  0  0  0  0  0  0  0  0
  -21.4720  -11.1732   19.1397 C   0  0  0  0  0  0  0  0  0  0  0  0
  -26.9598  -15.7078   20.9251 C   0  0  0  0  0  0  0  0  0  0  0  0
  -30.0461  -25.4253   20.0800 C   0  0  0  0  0  0  0  0  0  0  0  0
  -28.6143  -17.1428   20.7297 C   0  0  0  0  0  0  0  0  0  0  0  0
  -30.3803  -24.7847   18.9053 C   0  0  0  0  0  0  0  0  0  0  0  0
  -29.0759  -23.4971   20.4683 C   0  0  0  0  0  0  0  0  0  0  0  0
  -28.8172  -15.1485   19.2363 C   0  0  0  0  0  0  0  0  0  0  0  0
  -30.4353  -26.8183   20.4174 C   0  0  0  0  0  0  0  0  0  0  0  0
  -22.7556  -29.2586   22.1770 C   0  0  0  0  0  0  0  0  0  0  0  0
  -23.5115  -29.2261   19.0227 C   0  0  0  0  0  0  0  0  0  0  0  0
  -25.9050  -29.5622   16.6134 C   0  0  0  0  0  0  0  0  0  0  0  0
  -30.2328  -28.5698   22.1469 C   0  0  0  0  0  0  0  0  0  0  0  0
  -27.7187  -22.4116   22.2921 C   0  0  0  0  0  0  0  0  0  0  0  0
  -18.2453  -26.8922   21.8383 C   0  0  0  0  0  0  0  0  0  0  0  0
  -23.9648  -31.4566   21.9266 C   0  0  0  0  0  0  0  0  0  0  0  0
  -25.4429  -29.2385   20.6458 C   0  0  0  0  0  0  0  0  0  0  0  0
  -19.6390  -26.6745   21.2547 C   0  0  0  0  0  0  0  0  0  0  0  0
  -27.0412  -19.8708   24.6926 C   0  0  0  0  0  0  0  0  0  0  0  0
  -20.6950  -26.7476   22.3530 C   0  0  0  0  0  0  0  0  0  0  0  0
  -27.0587  -18.5806   23.8697 C   0  0  0  0  0  0  0  0  0  0  0  0
  -26.4323  -21.0337   23.9112 C   0  0  0  0  0  0  0  0  0  0  0  0
  -27.0466  -19.9847   21.7684 C   0  0  0  0  0  0  0  0  0  0  0  0
  -20.7043  -28.1292   23.0183 C   0  0  1  0  0  0  0  0  0  0  0  0
  -23.2432  -30.3116   21.2225 C   0  0  1  0  0  0  0  0  0  0  0  0
  -27.7104  -18.8007   22.4904 C   0  0  2  0  0  0  0  0  0  0  0  0
  -26.2285  -29.4424   14.1277 C   0  0  0  0  0  0  0  0  0  0  0  0
  -30.6042  -28.4844   24.6280 C   0  0  0  0  0  0  0  0  0  0  0  0
  -23.4172  -26.1794   19.1596 C   0  0  0  0  0  0  0  0  0  0  0  0
  -24.6475  -26.1129   16.9801 C   0  0  0  0  0  0  0  0  0  0  0  0
  -22.3884  -27.1635   17.1036 C   0  0  0  0  0  0  0  0  0  0  0  0
  -26.7644  -32.3907   16.4722 C   0  0  0  0  0  0  0  0  0  0  0  0
  -24.3662  -28.3519   18.1371 C   0  0  1  0  0  0  0  0  0  0  0  0
  -25.9222  -30.3449   15.3128 C   0  0  2  0  0  0  0  0  0  0  0  0
  -29.6084  -28.7854   23.5191 C   0  0  1  0  0  0  0  0  0  1  0  0
  -23.7158  -26.9657   17.8675 C   0  0  0  0  0  0  0  0  0  0  0  0
  -26.6638  -16.6797   21.7922 N   0  0  0  0  0  0  0  0  0  0  0  0
  -29.2978  -24.6886   20.9774 N   0  0  0  0  0  0  0  0  0  0  0  0
  -27.6886  -17.5375   21.6503 N   0  0  0  0  0  0  0  0  0  0  0  0
  -24.0860  -29.6350   20.2345 N   0  0  0  0  0  0  0  0  0  0  0  0
  -27.1022  -21.1849   22.6177 N   0  0  0  0  0  0  0  0  0  0  0  0
  -29.7078  -17.8880   20.4626 N   0  0  0  0  0  0  0  0  0  0  0  0
  -31.0987  -25.2659   17.8611 N   0  0  0  0  0  0  0  0  0  0  0  0
  -28.2178  -13.9441   18.8434 N   0  0  0  0  0  0  0  0  0  0  0  0
  -28.3520  -22.4267   21.0498 N   0  0  0  0  0  0  0  0  0  0  0  0
  -29.9986  -27.2839   21.6564 N   0  0  0  0  0  0  0  0  0  0  0  0
  -21.3840  -29.0907   22.1768 N   0  0  0  0  0  0  0  0  0  0  0  0
  -24.6351  -29.1301   16.9327 N   0  0  0  0  0  0  0  0  0  0  0  0
  -26.9562  -31.4168   15.3669 N   0  3  0  0  0  0  0  0  0  0  0  0
  -29.9086  -15.4883   18.7196 O   0  0  0  0  0  0  0  0  0  0  0  0
  -31.0783  -27.4736   19.6017 O   0  0  0  0  0  0  0  0  0  0  0  0
  -23.5641  -28.6428   22.8619 O   0  0  0  0  0  0  0  0  0  0  0  0
  -22.3785  -29.5406   18.6496 O   0  0  0  0  0  0  0  0  0  0  0  0
  -26.9175  -29.3517   17.2775 O   0  0  0  0  0  0  0  0  0  0  0  0
  -30.8494  -29.4540   21.5570 O   0  0  0  0  0  0  0  0  0  0  0  0
  -27.7104  -23.3687   23.0704 O   0  0  0  0  0  0  0  0  0  0  0  0
  -23.5444  -11.3169   20.3576 O   0  0  0  0  0  0  0  0  0  0  0  0
  -29.2033  -30.1483   23.6409 O   0  0  0  0  0  0  0  0  0  1  0  0
  -18.1304  -12.3078   20.0247 F   0  0  0  0  0  0  0  0  0  0  0  0
  -22.0971  -10.5532   18.1294 F   0  0  0  0  0  0  0  0  0  0  0  0
  -29.7384  -23.1943   18.9145 S   0  0  0  0  0  0  0  0  0  0  0  0
  1  2  1  0  0  0  0
  1  5  2  0  0  0  0
  2  6  2  0  0  0  0
  3  8  2  0  0  0  0
  3 15  1  0  0  0  0
  4  9  1  0  0  0  0
  4 15  2  0  0  0  0
  5 17  1  0  0  0  0
  6 19  1  0  0  0  0
  7 10  2  0  0  0  0
  7 18  1  0  0  0  0
  8 21  1  0  0  0  0
  9 21  2  0  0  0  0
 10 22  1  0  0  0  0
 11 12  2  0  0  0  0
 11 23  1  0  0  0  0
 12 24  1  0  0  0  0
 13 20  1  0  0  0  0
 13 22  2  0  0  0  0
 14 24  2  0  0  0  0
 14 25  1  0  0  0  0
 15 26  1  0  0  0  0
 16 26  1  0  0  0  0
 16 28  2  0  0  0  0
 16 31  1  0  0  0  0
 17 19  2  0  0  0  0
 17 38  1  0  0  0  0
 18 20  2  0  0  0  0
 18 39  1  0  0  0  0
 19 47  1  0  0  0  0
 20 40  1  0  0  0  0
 21 80  1  0  0  0  0
 22 81  1  0  0  0  0
 23 25  2  0  0  0  0
 23 80  1  0  0  0  0
 24 82  1  0  0  0  0
 25 83  1  0  0  0  0
 26 60  2  0  0  0  0
 27 29  2  0  0  0  0
 27 32  1  0  0  0  0
 27 61  1  0  0  0  0
 28 62  1  0  0  0  0
 28 65  1  0  0  0  0
 29 66  1  0  0  0  0
 29 84  1  0  0  0  0
 30 61  2  0  0  0  0
 30 68  1  0  0  0  0
 30 84  1  0  0  0  0
 31 67  1  0  0  0  0
 31 73  2  0  0  0  0
 32 69  1  0  0  0  0
 32 74  2  0  0  0  0
 33 48  1  0  0  0  0
 33 70  1  0  0  0  0
 33 75  2  0  0  0  0
 34 56  1  0  0  0  0
 34 63  1  0  0  0  0
 34 76  2  0  0  0  0
 35 57  1  0  0  0  0
 35 71  1  0  0  0  0
 35 77  2  0  0  0  0
 36 58  1  0  0  0  0
 36 69  1  0  0  0  0
 36 78  2  0  0  0  0
 37 64  1  0  0  0  0
 37 68  1  0  0  0  0
 37 79  2  0  0  0  0
 38 41  1  0  0  0  0
 39 48  1  0  0  0  0
 40 63  1  0  0  0  0
 41 43  1  0  0  0  0
 42 44  1  0  0  0  0
 42 45  1  0  0  0  0
 43 47  1  0  0  0  0
 44 49  1  0  0  0  0
 45 64  1  0  0  0  0
 46 49  1  0  0  0  0
 46 64  1  0  0  0  0
 47 70  1  0  0  0  0
 48 63  1  0  0  0  0
 49 62  1  0  0  0  0
 50 57  1  0  0  0  0
 51 58  1  0  0  0  0
 52 59  1  0  0  0  0
 53 59  1  0  0  0  0
 54 59  1  0  0  0  0
 55 72  1  0  0  0  0
 56 59  1  0  0  0  0
 56 71  1  0  0  0  0
 57 72  1  0  0  0  0
 58 81  1  0  0  0  0
 60 62  1  0  0  0  0
M  CHG  1  72   1
M  ISO  4  37 100  58 101  68 100  81 101
M  END
> <Batch ID>
0182

> <Smiles>
CNC(C)C(=O)NC(C(=O)N1Cc2cc([101O:1][101CH:1](C)C(=O)NC(=O)c3nc([100NH:0][100C:0](=O)N4CCCC(n5nc(-c6ccc(Oc7ccc(F)cc7F)cc6)c(C(N)=O)c5N)C4)sc3N)ccc2CC1C(=O)NC1CCCc2ccccc21)C(C)(C)C

> <Shape>
0.297

> <Color>
0.099

> <Negative vol penalty>
0.000

$$$$

  -OEChem-04052304563D

 84 92  0     1  0  0  0  0  0999 V2000
  -34.8125  -18.4399   18.8602 C   0  0  0  0  0  0  0  0  0  0  0  0
  -33.4781  -18.7841   19.0510 C   0  0  0  0  0  0  0  0  0  0  0  0
  -23.0760   -9.8656   19.9441 C   0  0  0  0  0  0  0  0  0  0  0  0
  -23.8379   -9.8772   22.2368 C   0  0  0  0  0  0  0  0  0  0  0  0
  -35.7699  -18.8174   19.8007 C   0  0  0  0  0  0  0  0  0  0  0  0
  -33.1002  -19.5051   20.1831 C   0  0  0  0  0  0  0  0  0  0  0  0
  -29.9071  -23.2844   19.1033 C   0  0  0  0  0  0  0  0  0  0  0  0
  -22.3336   -8.7121   20.1967 C   0  0  0  0  0  0  0  0  0  0  0  0
  -23.0955   -8.7237   22.4894 C   0  0  0  0  0  0  0  0  0  0  0  0
  -28.5727  -22.9468   18.8818 C   0  0  0  0  0  0  0  0  0  0  0  0
  -19.8687   -7.9235   23.0961 C   0  0  0  0  0  0  0  0  0  0  0  0
  -19.1128   -7.8847   24.2677 C   0  0  0  0  0  0  0  0  0  0  0  0
  -28.0332  -23.6277   21.1323 C   0  0  0  0  0  0  0  0  0  0  0  0
  -20.3569   -5.9498   25.0063 C   0  0  0  0  0  0  0  0  0  0  0  0
  -23.8283  -10.4482   20.9642 C   0  0  0  0  0  0  0  0  0  0  0  0
  -24.1673  -12.9735   20.8396 C   0  0  0  0  0  0  0  0  0  0  0  0
  -35.4051  -19.5518   20.9401 C   0  0  0  0  0  0  0  0  0  0  0  0
  -30.3173  -23.7868   20.3467 C   0  0  0  0  0  0  0  0  0  0  0  0
  -34.0535  -19.8917   21.1405 C   0  0  0  0  0  0  0  0  0  0  0  0
  -29.3729  -23.9733   21.3662 C   0  0  0  0  0  0  0  0  0  0  0  0
  -22.3433   -8.1412   21.4693 C   0  0  0  0  0  0  0  0  0  0  0  0
  -27.6360  -23.1157   19.8973 C   0  0  0  0  0  0  0  0  0  0  0  0
  -20.8686   -6.9754   22.8795 C   0  0  0  0  0  0  0  0  0  0  0  0
  -19.3569   -6.8979   25.2228 C   0  0  0  0  0  0  0  0  0  0  0  0
  -21.1128   -5.9886   23.8346 C   0  0  0  0  0  0  0  0  0  0  0  0
  -24.5958  -11.6394   20.7038 C   0  0  0  0  0  0  0  0  0  0  0  0
  -29.8731  -18.0320   22.0612 C   0  0  0  0  0  0  0  0  0  0  0  0
  -29.6182  -18.8063   23.1737 C   0  0  0  0  0  0  0  0  0  0  0  0
  -25.2583  -13.7235   20.4741 C   0  0  0  0  0  0  0  0  0  0  0  0
  -28.2283  -19.7687   21.7766 C   0  0  0  0  0  0  0  0  0  0  0  0
  -22.8966  -13.4886   21.2588 C   0  0  0  0  0  0  0  0  0  0  0  0
  -32.3303  -22.8133   22.6058 C   0  0  0  0  0  0  0  0  0  0  0  0
  -31.6404  -25.6988   23.9176 C   0  0  0  0  0  0  0  0  0  0  0  0
  -29.4597  -28.3094   24.1925 C   0  0  0  0  0  0  0  0  0  0  0  0
  -26.5625  -21.6582   21.7782 C   0  0  0  0  0  0  0  0  0  0  0  0
  -30.7412  -14.7487   20.6559 C   0  0  0  0  0  0  0  0  0  0  0  0
  -36.4683  -19.8965   21.9528 C   0  0  0  0  0  0  0  0  0  0  0  0
  -31.7556  -24.1713   20.5609 C   0  0  0  0  0  0  0  0  0  0  0  0
  -29.7583  -24.5280   22.7124 C   0  0  0  0  0  0  0  0  0  0  0  0
  -36.0425  -20.9827   22.9372 C   0  0  0  0  0  0  0  0  0  0  0  0
  -29.6040  -12.3589   18.2742 C   0  0  0  0  0  0  0  0  0  0  0  0
  -34.6437  -20.6977   23.4745 C   0  0  0  0  0  0  0  0  0  0  0  0
  -28.1672  -12.0644   18.7089 C   0  0  0  0  0  0  0  0  0  0  0  0
  -30.5219  -12.5828   19.4739 C   0  0  0  0  0  0  0  0  0  0  0  0
  -28.6206  -13.3141   20.8609 C   0  0  0  0  0  0  0  0  0  0  0  0
  -33.6082  -20.6946   22.3434 C   0  0  1  0  0  0  0  0  0  0  0  0
  -32.1557  -24.1914   22.0330 C   0  0  1  0  0  0  0  0  0  0  0  0
  -27.6456  -13.1365   19.6844 C   0  0  2  0  0  0  0  0  0  0  0  0
  -29.1531  -30.5045   25.3694 C   0  0  0  0  0  0  0  0  0  0  0  0
  -24.5344  -21.3638   20.2937 C   0  0  0  0  0  0  0  0  0  0  0  0
  -24.9244  -23.5711   21.4520 C   0  0  0  0  0  0  0  0  0  0  0  0
  -30.9159  -24.2182   26.4852 C   0  0  0  0  0  0  0  0  0  0  0  0
  -29.7453  -26.2888   27.2664 C   0  0  0  0  0  0  0  0  0  0  0  0
  -32.2008  -26.3360   26.8293 C   0  0  0  0  0  0  0  0  0  0  0  0
  -29.3887  -29.8015   21.6375 C   0  0  0  0  0  0  0  0  0  0  0  0
  -30.8058  -16.9014   21.8892 C   0  0  0  0  0  0  0  0  0  0  0  0
  -30.5967  -26.2141   24.8789 C   0  0  1  0  0  0  0  0  0  0  0  0
  -29.6715  -29.8108   24.1192 C   0  0  2  0  0  0  0  0  0  0  0  0
  -25.5806  -22.3473   20.8142 C   0  0  0  0  0  0  0  0  0  1  0  0
  -30.8575  -25.7520   26.3403 C   0  0  0  0  0  0  0  0  0  0  0  0
  -25.8604  -11.5442   20.2845 N   0  0  0  0  0  0  0  0  0  0  0  0
  -28.6756  -19.8029   23.0122 N   0  0  0  0  0  0  0  0  0  0  0  0
  -26.2359  -12.8280   20.1537 N   0  0  0  0  0  0  0  0  0  0  0  0
  -31.1778  -24.8832   22.8752 N   0  0  0  0  0  0  0  0  0  0  0  0
  -29.9711  -13.6122   20.3586 N   0  0  0  0  0  0  0  0  0  0  0  0
  -25.4673  -15.0551   20.3987 N   0  0  0  0  0  0  0  0  0  0  0  0
  -21.8860  -12.5790   21.5985 N   0  0  0  0  0  0  0  0  0  0  0  0
  -27.2567  -20.6103   21.1832 N   0  0  0  0  0  0  0  0  0  0  0  0
  -33.2802  -22.0496   21.9548 N   0  0  0  0  0  0  0  0  0  0  0  0
  -30.5632  -27.6625   24.7071 N   0  0  0  0  0  0  0  0  0  0  0  0
  -30.1418  -15.6783   21.4969 N   0  0  0  0  0  0  0  0  0  0  0  0
  -28.9604  -30.3773   22.9383 N   0  3  0  0  0  0  0  0  0  0  0  0
  -22.6591  -14.7191   21.3143 O   0  0  0  0  0  0  0  0  0  0  0  0
  -31.6543  -22.4690   23.5682 O   0  0  0  0  0  0  0  0  0  0  0  0
  -32.8216  -26.0143   24.0812 O   0  0  0  0  0  0  0  0  0  0  0  0
  -28.4179  -27.7654   23.8329 O   0  0  0  0  0  0  0  0  0  0  0  0
  -26.6736  -22.0417   22.9409 O   0  0  0  0  0  0  0  0  0  0  0  0
  -31.8765  -14.9246   20.2010 O   0  0  0  0  0  0  0  0  0  0  0  0
  -21.6187   -7.0157   21.7161 O   0  0  0  0  0  0  0  0  0  0  0  0
  -26.3330  -22.7864   19.6840 O   0  0  0  0  0  0  0  0  0  1  0  0
  -18.6320   -6.8618   26.3486 F   0  0  0  0  0  0  0  0  0  0  0  0
  -22.0729   -5.0758   23.6327 F   0  0  0  0  0  0  0  0  0  0  0  0
  -30.2432  -18.6106   24.3399 F   0  0  0  0  0  0  0  0  0  0  0  0
  -28.8973  -18.5632   20.7547 S   0  0  0  0  0  0  0  0  0  0  0  0
  1  2  1  0  0  0  0
  1  5  2  0  0  0  0
  2  6  2  0  0  0  0
  3  8  2  0  0  0  0
  3 15  1  0  0  0  0
  4  9  1  0  0  0  0
  4 15  2  0  0  0  0
  5 17  1  0  0  0  0
  6 19  1  0  0  0  0
  7 10  2  0  0  0  0
  7 18  1  0  0  0  0
  8 21  1  0  0  0  0
  9 21  2  0  0  0  0
 10 22  1  0  0  0  0
 11 12  2  0  0  0  0
 11 23  1  0  0  0  0
 12 24  1  0  0  0  0
 13 20  1  0  0  0  0
 13 22  2  0  0  0  0
 14 24  2  0  0  0  0
 14 25  1  0  0  0  0
 15 26  1  0  0  0  0
 16 26  1  0  0  0  0
 16 29  2  0  0  0  0
 16 31  1  0  0  0  0
 17 19  2  0  0  0  0
 17 37  1  0  0  0  0
 18 20  2  0  0  0  0
 18 38  1  0  0  0  0
 19 46  1  0  0  0  0
 20 39  1  0  0  0  0
 21 79  1  0  0  0  0
 22 80  1  0  0  0  0
 23 25  2  0  0  0  0
 23 79  1  0  0  0  0
 24 81  1  0  0  0  0
 25 82  1  0  0  0  0
 26 61  2  0  0  0  0
 27 28  2  0  0  0  0
 27 56  1  0  0  0  0
 27 84  1  0  0  0  0
 28 62  1  0  0  0  0
 28 83  1  0  0  0  0
 29 63  1  0  0  0  0
 29 66  1  0  0  0  0
 30 62  2  0  0  0  0
 30 68  1  0  0  0  0
 30 84  1  0  0  0  0
 31 67  1  0  0  0  0
 31 73  2  0  0  0  0
 32 47  1  0  0  0  0
 32 69  1  0  0  0  0
 32 74  2  0  0  0  0
 33 57  1  0  0  0  0
 33 64  1  0  0  0  0
 33 75  2  0  0  0  0
 34 58  1  0  0  0  0
 34 70  1  0  0  0  0
 34 76  2  0  0  0  0
 35 59  1  0  0  0  0
 35 68  1  0  0  0  0
 35 77  2  0  0  0  0
 36 65  1  0  0  0  0
 36 71  1  0  0  0  0
 36 78  2  0  0  0  0
 37 40  1  0  0  0  0
 38 47  1  0  0  0  0
 39 64  1  0  0  0  0
 40 42  1  0  0  0  0
 41 43  1  0  0  0  0
 41 44  1  0  0  0  0
 42 46  1  0  0  0  0
 43 48  1  0  0  0  0
 44 65  1  0  0  0  0
 45 48  1  0  0  0  0
 45 65  1  0  0  0  0
 46 69  1  0  0  0  0
 47 64  1  0  0  0  0
 48 63  1  0  0  0  0
 49 58  1  0  0  0  0
 50 59  1  0  0  0  0
 51 59  1  0  0  0  0
 52 60  1  0  0  0  0
 53 60  1  0  0  0  0
 54 60  1  0  0  0  0
 55 72  1  0  0  0  0
 56 71  1  0  0  0  0
 57 60  1  0  0  0  0
 57 70  1  0  0  0  0
 58 72  1  0  0  0  0
 59 80  1  0  0  0  0
 61 63  1  0  0  0  0
M  CHG  1  72   1
M  ISO  4  36 100  59 101  71 100  80 101
M  END
> <Batch ID>
0182

> <Smiles>
CNC(C)C(=O)NC(C(=O)N1Cc2cc([101O:1][101C:1](C)(C)C(=O)Nc3nc(F)c(C[100NH:0][100C:0](=O)N4CCCC(n5nc(-c6ccc(Oc7ccc(F)cc7F)cc6)c(C(N)=O)c5N)C4)s3)ccc2CC1C(=O)NC1CCCc2ccccc21)C(C)(C)C

> <Shape>
0.220

> <Color>
0.184

> <Negative vol penalty>
0.000

$$$$

  -OEChem-04052304563D

 83 91  0     1  0  0  0  0  0999 V2000
  -24.6677  -37.1251   22.0476 C   0  0  0  0  0  0  0  0  0  0  0  0
  -25.5525  -36.0990   21.7319 C   0  0  0  0  0  0  0  0  0  0  0  0
  -22.9340  -10.1650   22.9205 C   0  0  0  0  0  0  0  0  0  0  0  0
  -23.9390  -10.0191   20.7283 C   0  0  0  0  0  0  0  0  0  0  0  0
  -23.5331  -36.8553   22.8115 C   0  0  0  0  0  0  0  0  0  0  0  0
  -25.3036  -34.8025   22.1809 C   0  0  0  0  0  0  0  0  0  0  0  0
  -26.5864  -29.5811   19.2488 C   0  0  0  0  0  0  0  0  0  0  0  0
  -22.2740   -8.9564   22.6984 C   0  0  0  0  0  0  0  0  0  0  0  0
  -23.2790   -8.8105   20.5062 C   0  0  0  0  0  0  0  0  0  0  0  0
  -27.6427  -28.6779   19.3601 C   0  0  0  0  0  0  0  0  0  0  0  0
  -23.0229   -5.6599   22.7674 C   0  0  0  0  0  0  0  0  0  0  0  0
  -23.0329   -4.7173   23.7955 C   0  0  0  0  0  0  0  0  0  0  0  0
  -26.3101  -27.3103   20.8342 C   0  0  0  0  0  0  0  0  0  0  0  0
  -20.6193   -4.7839   23.8800 C   0  0  0  0  0  0  0  0  0  0  0  0
  -23.7665  -10.6963   21.9355 C   0  0  0  0  0  0  0  0  0  0  0  0
  -25.7218  -12.1260   22.7357 C   0  0  0  0  0  0  0  0  0  0  0  0
  -23.2651  -35.5530   23.2620 C   0  0  0  0  0  0  0  0  0  0  0  0
  -25.3859  -29.3608   19.9392 C   0  0  0  0  0  0  0  0  0  0  0  0
  -24.1649  -34.5152   22.9527 C   0  0  0  0  0  0  0  0  0  0  0  0
  -25.2392  -28.2108   20.7279 C   0  0  0  0  0  0  0  0  0  0  0  0
  -22.4465   -8.2791   21.4913 C   0  0  0  0  0  0  0  0  0  0  0  0
  -27.5057  -27.5438   20.1551 C   0  0  0  0  0  0  0  0  0  0  0  0
  -21.8111   -6.1645   22.2956 C   0  0  0  0  0  0  0  0  0  0  0  0
  -21.8311   -4.2793   24.3518 C   0  0  0  0  0  0  0  0  0  0  0  0
  -20.6093   -5.7265   22.8519 C   0  0  0  0  0  0  0  0  0  0  0  0
  -24.4482  -11.9450   22.1641 C   0  0  0  0  0  0  0  0  0  0  0  0
  -29.4809  -20.5214   19.7581 C   0  0  0  0  0  0  0  0  0  0  0  0
  -25.9103  -13.4865   22.7306 C   0  0  0  0  0  0  0  0  0  0  0  0
  -30.4144  -19.5108   19.8551 C   0  0  0  0  0  0  0  0  0  0  0  0
  -28.1105  -18.8324   20.0402 C   0  0  0  0  0  0  0  0  0  0  0  0
  -28.9813  -22.9171   20.0349 C   0  0  0  0  0  0  0  0  0  0  0  0
  -26.6515  -11.1515   23.2273 C   0  0  0  0  0  0  0  0  0  0  0  0
  -29.7840  -21.9515   19.5522 C   0  0  0  0  0  0  0  0  0  0  0  0
  -29.2314  -24.3809   19.8687 C   0  0  0  0  0  0  0  0  0  0  0  0
  -23.7759  -30.9201   22.1931 C   0  0  0  0  0  0  0  0  0  0  0  0
  -21.5484  -28.6278   21.6403 C   0  0  0  0  0  0  0  0  0  0  0  0
  -20.8434  -25.4854   20.5112 C   0  0  0  0  0  0  0  0  0  0  0  0
  -25.6277  -18.4335   20.1909 C   0  0  0  0  0  0  0  0  0  0  0  0
  -22.0504  -35.3189   24.1248 C   0  0  0  0  0  0  0  0  0  0  0  0
  -24.2464  -30.3309   19.7874 C   0  0  0  0  0  0  0  0  0  0  0  0
  -23.9637  -27.9180   21.4734 C   0  0  0  0  0  0  0  0  0  0  0  0
  -21.6635  -33.8471   24.2455 C   0  0  0  0  0  0  0  0  0  0  0  0
  -22.6689  -17.2574   21.7844 C   0  0  0  0  0  0  0  0  0  0  0  0
  -22.8936  -32.9941   24.5388 C   0  0  0  0  0  0  0  0  0  0  0  0
  -22.9728  -15.7854   22.0723 C   0  0  0  0  0  0  0  0  0  0  0  0
  -23.2649  -17.7096   20.4525 C   0  0  0  0  0  0  0  0  0  0  0  0
  -25.0035  -15.9687   20.5790 C   0  0  0  0  0  0  0  0  0  0  0  0
  -23.9165  -33.0912   23.4005 C   0  0  1  0  0  0  0  0  0  0  0  0
  -23.2526  -30.2708   20.9433 C   0  0  1  0  0  0  0  0  0  0  0  0
  -24.4787  -15.4846   21.9406 C   0  0  2  0  0  0  0  0  0  0  0  0
  -18.9385  -23.8778   20.2204 C   0  0  0  0  0  0  0  0  0  0  0  0
  -21.5853  -28.0460   24.6353 C   0  0  0  0  0  0  0  0  0  0  0  0
  -20.4331  -25.8753   24.1572 C   0  0  0  0  0  0  0  0  0  0  0  0
  -19.3099  -28.0313   23.5978 C   0  0  0  0  0  0  0  0  0  0  0  0
  -21.2196  -25.3899   17.5772 C   0  0  0  0  0  0  0  0  0  0  0  0
  -28.1968  -25.2936   20.4939 C   0  0  0  0  0  0  0  0  0  1  0  0
  -21.2670  -27.2538   22.1987 C   0  0  1  0  0  0  0  0  0  0  0  0
  -19.7708  -24.9709   19.5682 C   0  0  2  0  0  0  0  0  0  0  0  0
  -20.6737  -27.3078   23.6349 C   0  0  0  0  0  0  0  0  0  0  0  0
  -23.8684  -13.0983   21.8210 N   0  0  0  0  0  0  0  0  0  0  0  0
  -28.1592  -20.1342   19.8636 N   0  0  0  0  0  0  0  0  0  0  0  0
  -24.7818  -14.0171   22.1781 N   0  0  0  0  0  0  0  0  0  0  0  0
  -22.8806  -28.8997   21.2981 N   0  0  0  0  0  0  0  0  0  0  0  0
  -24.6946  -17.3963   20.4013 N   0  0  0  0  0  0  0  0  0  0  0  0
  -26.9295  -14.2688   23.1450 N   0  0  0  0  0  0  0  0  0  0  0  0
  -31.7661  -19.6006   19.7857 N   0  0  0  0  0  0  0  0  0  0  0  0
  -26.2992   -9.7968   23.1567 N   0  0  0  0  0  0  0  0  0  0  0  0
  -26.9596  -18.0204   20.1942 N   0  0  0  0  0  0  0  0  0  0  0  0
  -23.5052  -32.2724   22.2803 N   0  0  0  0  0  0  0  0  0  0  0  0
  -20.4125  -26.5842   21.2240 N   0  0  0  0  0  0  0  0  0  0  0  0
  -20.3908  -24.4152   18.3322 N   0  3  0  0  0  0  0  0  0  0  0  0
  -27.7549  -11.4735   23.7297 O   0  0  0  0  0  0  0  0  0  0  0  0
  -30.2088  -24.8144   19.2659 O   0  0  0  0  0  0  0  0  0  0  0  0
  -24.3793  -30.2441   23.0181 O   0  0  0  0  0  0  0  0  0  0  0  0
  -20.6192  -29.4279   21.5058 O   0  0  0  0  0  0  0  0  0  0  0  0
  -21.9514  -24.9624   20.6086 O   0  0  0  0  0  0  0  0  0  0  0  0
  -25.2728  -19.6063   20.0474 O   0  0  0  0  0  0  0  0  0  0  0  0
  -30.9517  -22.1777   18.8544 O   0  0  0  0  0  0  0  0  0  0  0  0
  -21.8028   -7.0997   21.2743 O   0  0  0  0  0  0  0  0  0  0  0  0
  -28.5353  -26.6610   20.2660 O   0  0  0  0  0  0  0  0  0  1  0  0
  -21.8408   -3.3730   25.3381 F   0  0  0  0  0  0  0  0  0  0  0  0
  -19.4420   -6.2068   22.4020 F   0  0  0  0  0  0  0  0  0  0  0  0
  -29.6164  -18.0110   20.0898 S   0  0  0  0  0  0  0  0  0  0  0  0
  1  2  1  0  0  0  0
  1  5  2  0  0  0  0
  2  6  2  0  0  0  0
  3  8  2  0  0  0  0
  3 15  1  0  0  0  0
  4  9  1  0  0  0  0
  4 15  2  0  0  0  0
  5 17  1  0  0  0  0
  6 19  1  0  0  0  0
  7 10  2  0  0  0  0
  7 18  1  0  0  0  0
  8 21  1  0  0  0  0
  9 21  2  0  0  0  0
 10 22  1  0  0  0  0
 11 12  2  0  0  0  0
 11 23  1  0  0  0  0
 12 24  1  0  0  0  0
 13 20  1  0  0  0  0
 13 22  2  0  0  0  0
 14 24  2  0  0  0  0
 14 25  1  0  0  0  0
 15 26  1  0  0  0  0
 16 26  1  0  0  0  0
 16 28  2  0  0  0  0
 16 32  1  0  0  0  0
 17 19  2  0  0  0  0
 17 39  1  0  0  0  0
 18 20  2  0  0  0  0
 18 40  1  0  0  0  0
 19 48  1  0  0  0  0
 20 41  1  0  0  0  0
 21 79  1  0  0  0  0
 22 80  1  0  0  0  0
 23 25  2  0  0  0  0
 23 79  1  0  0  0  0
 24 81  1  0  0  0  0
 25 82  1  0  0  0  0
 26 60  2  0  0  0  0
 27 29  2  0  0  0  0
 27 33  1  0  0  0  0
 27 61  1  0  0  0  0
 28 62  1  0  0  0  0
 28 65  1  0  0  0  0
 29 66  1  0  0  0  0
 29 83  1  0  0  0  0
 30 61  2  0  0  0  0
 30 68  1  0  0  0  0
 30 83  1  0  0  0  0
 31 33  2  0  0  0  0
 31 34  1  0  0  0  0
 32 67  1  0  0  0  0
 32 72  2  0  0  0  0
 33 78  1  0  0  0  0
 34 56  1  0  0  0  0
 34 73  2  0  0  0  0
 35 49  1  0  0  0  0
 35 69  1  0  0  0  0
 35 74  2  0  0  0  0
 36 57  1  0  0  0  0
 36 63  1  0  0  0  0
 36 75  2  0  0  0  0
 37 58  1  0  0  0  0
 37 70  1  0  0  0  0
 37 76  2  0  0  0  0
 38 64  1  0  0  0  0
 38 68  1  0  0  0  0
 38 77  2  0  0  0  0
 39 42  1  0  0  0  0
 40 49  1  0  0  0  0
 41 63  1  0  0  0  0
 42 44  1  0  0  0  0
 43 45  1  0  0  0  0
 43 46  1  0  0  0  0
 44 48  1  0  0  0  0
 45 50  1  0  0  0  0
 46 64  1  0  0  0  0
 47 50  1  0  0  0  0
 47 64  1  0  0  0  0
 48 69  1  0  0  0  0
 49 63  1  0  0  0  0
 50 62  1  0  0  0  0
 51 58  1  0  0  0  0
 52 59  1  0  0  0  0
 53 59  1  0  0  0  0
 54 59  1  0  0  0  0
 55 71  1  0  0  0  0
 56 80  1  0  0  0  0
 57 59  1  0  0  0  0
 57 70  1  0  0  0  0
 58 71  1  0  0  0  0
 60 62  1  0  0  0  0
M  CHG  1  71   1
M  ISO  4  38 100  56 101  68 100  80 101
M  END
> <Batch ID>
0182

> <Smiles>
CNC(C)C(=O)NC(C(=O)N1Cc2cc([101O:1][101CH2:1]C(=O)CC(=O)c3nc([100NH:0][100C:0](=O)N4CCCC(n5nc(-c6ccc(Oc7ccc(F)cc7F)cc6)c(C(N)=O)c5N)C4)sc3N)ccc2CC1C(=O)NC1CCCc2ccccc21)C(C)(C)C

> <Shape>
0.286

> <Color>
0.101

> <Negative vol penalty>
0.000

$$$$

  -OEChem-04052304563D

 84 92  0     1  0  0  0  0  0999 V2000
  -25.3150  -33.0908   26.2441 C   0  0  0  0  0  0  0  0  0  0  0  0
  -26.1841  -32.1113   25.7744 C   0  0  0  0  0  0  0  0  0  0  0  0
  -24.5840   -9.7224   21.5959 C   0  0  0  0  0  0  0  0  0  0  0  0
  -24.8079  -10.9083   23.6889 C   0  0  0  0  0  0  0  0  0  0  0  0
  -23.9403  -32.9473   26.0611 C   0  0  0  0  0  0  0  0  0  0  0  0
  -25.6788  -30.9870   25.1224 C   0  0  0  0  0  0  0  0  0  0  0  0
  -28.2815  -29.8372   20.9332 C   0  0  0  0  0  0  0  0  0  0  0  0
  -24.2842   -8.5512   22.2916 C   0  0  0  0  0  0  0  0  0  0  0  0
  -24.5081   -9.7371   24.3846 C   0  0  0  0  0  0  0  0  0  0  0  0
  -29.5011  -29.1830   21.1009 C   0  0  0  0  0  0  0  0  0  0  0  0
  -23.1056   -5.3339   23.5062 C   0  0  0  0  0  0  0  0  0  0  0  0
  -22.0373   -4.5629   23.0481 C   0  0  0  0  0  0  0  0  0  0  0  0
  -28.4399  -27.0820   20.5728 C   0  0  0  0  0  0  0  0  0  0  0  0
  -20.5411   -6.4270   23.3998 C   0  0  0  0  0  0  0  0  0  0  0  0
  -24.8459  -10.9009   22.2946 C   0  0  0  0  0  0  0  0  0  0  0  0
  -24.2484  -13.0860   21.1214 C   0  0  0  0  0  0  0  0  0  0  0  0
  -23.4186  -31.8253   25.3980 C   0  0  0  0  0  0  0  0  0  0  0  0
  -27.1276  -29.1161   20.5942 C   0  0  0  0  0  0  0  0  0  0  0  0
  -24.2957  -30.8276   24.9316 C   0  0  0  0  0  0  0  0  0  0  0  0
  -27.2073  -27.7298   20.3989 C   0  0  0  0  0  0  0  0  0  0  0  0
  -24.2462   -8.5585   23.6859 C   0  0  0  0  0  0  0  0  0  0  0  0
  -29.5799  -27.8048   20.9235 C   0  0  0  0  0  0  0  0  0  0  0  0
  -22.8917   -6.6515   23.9112 C   0  0  0  0  0  0  0  0  0  0  0  0
  -20.7551   -5.1095   22.9949 C   0  0  0  0  0  0  0  0  0  0  0  0
  -21.6095   -7.1980   23.8580 C   0  0  0  0  0  0  0  0  0  0  0  0
  -25.1562  -12.1110   21.5765 C   0  0  0  0  0  0  0  0  0  0  0  0
  -28.7743  -21.5758   20.1630 C   0  0  0  0  0  0  0  0  0  0  0  0
  -25.0360  -14.0272   20.5048 C   0  0  0  0  0  0  0  0  0  0  0  0
  -27.4890  -21.6962   20.6485 C   0  0  0  0  0  0  0  0  0  0  0  0
  -28.3766  -19.4581   20.5720 C   0  0  0  0  0  0  0  0  0  0  0  0
  -22.8209  -13.1364   21.2451 C   0  0  0  0  0  0  0  0  0  0  0  0
  -29.5828  -22.7264   19.7103 C   0  0  0  0  0  0  0  0  0  0  0  0
  -24.3161  -28.5993   21.9842 C   0  0  0  0  0  0  0  0  0  0  0  0
  -23.6342  -27.1334   19.1720 C   0  0  0  0  0  0  0  0  0  0  0  0
  -24.7853  -25.5548   16.3739 C   0  0  0  0  0  0  0  0  0  0  0  0
  -30.6200  -24.8941   20.3437 C   0  0  0  0  0  0  0  0  0  0  0  0
  -29.5742  -17.2508   20.3724 C   0  0  0  0  0  0  0  0  0  0  0  0
  -21.9222  -31.6911   25.2656 C   0  0  0  0  0  0  0  0  0  0  0  0
  -25.8251  -29.8403   20.3909 C   0  0  0  0  0  0  0  0  0  0  0  0
  -26.0020  -26.9125   20.0147 C   0  0  0  0  0  0  0  0  0  0  0  0
  -21.4928  -30.6517   24.2334 C   0  0  0  0  0  0  0  0  0  0  0  0
  -29.9318  -13.8991   19.2254 C   0  0  0  0  0  0  0  0  0  0  0  0
  -22.2887  -29.3625   24.4110 C   0  0  0  0  0  0  0  0  0  0  0  0
  -28.6466  -13.2153   19.6973 C   0  0  0  0  0  0  0  0  0  0  0  0
  -30.4351  -14.9234   20.2408 C   0  0  0  0  0  0  0  0  0  0  0  0
  -28.1589  -15.2405   21.1283 C   0  0  0  0  0  0  0  0  0  0  0  0
  -23.7876  -29.6057   24.1975 C   0  0  1  0  0  0  0  0  0  0  0  0
  -24.6072  -28.9353   20.5489 C   0  0  1  0  0  0  0  0  0  0  0  0
  -27.5779  -14.2468   20.1092 C   0  0  2  0  0  0  0  0  0  0  0  0
  -23.9872  -24.4349   14.2748 C   0  0  0  0  0  0  0  0  0  0  0  0
  -31.9847  -25.5286   22.3343 C   0  0  0  0  0  0  0  0  0  0  0  0
  -22.8295  -24.6761   20.7918 C   0  0  0  0  0  0  0  0  0  0  0  0
  -22.9627  -23.3299   18.6851 C   0  0  0  0  0  0  0  0  0  0  0  0
  -21.3193  -25.1976   18.8678 C   0  0  0  0  0  0  0  0  0  0  0  0
  -26.1978  -27.5079   14.6566 C   0  0  0  0  0  0  0  0  0  0  0  0
  -23.7799  -25.7301   18.6350 C   0  0  1  0  0  0  0  0  0  0  0  0
  -24.4520  -25.7388   14.9044 C   0  0  2  0  0  0  0  0  0  0  0  0
  -30.7209  -25.8119   21.5421 C   0  0  1  0  0  0  0  0  0  1  0  0
  -22.7453  -24.7483   19.2541 C   0  0  0  0  0  0  0  0  0  0  0  0
  -26.4235  -12.4055   21.2746 N   0  0  0  0  0  0  0  0  0  0  0  0
  -29.2851  -20.2932   20.1188 N   0  0  0  0  0  0  0  0  0  0  0  0
  -26.3177  -13.5762   20.6231 N   0  0  0  0  0  0  0  0  0  0  0  0
  -24.7499  -27.6656   19.8336 N   0  0  0  0  0  0  0  0  0  0  0  0
  -29.3705  -15.8702   20.5803 N   0  0  0  0  0  0  0  0  0  0  0  0
  -24.7503  -15.1884   19.8783 N   0  0  0  0  0  0  0  0  0  0  0  0
  -26.7512  -22.8230   20.8003 N   0  0  0  0  0  0  0  0  0  0  0  0
  -22.1703  -12.0871   21.9084 N   0  0  0  0  0  0  0  0  0  0  0  0
  -28.4803  -18.0508   20.7009 N   0  0  0  0  0  0  0  0  0  0  0  0
  -29.8506  -23.6968   20.5949 N   0  0  0  0  0  0  0  0  0  0  0  0
  -24.0879  -29.7020   22.7850 N   0  0  0  0  0  0  0  0  0  0  0  0
  -23.7050  -25.8391   17.1821 N   0  0  0  0  0  0  0  0  0  0  0  0
  -29.9988  -22.7324   18.4442 N   0  3  0  0  0  0  0  0  0  0  0  0
  -25.6487  -26.2207   14.1582 N   0  3  0  0  0  0  0  0  0  0  0  0
  -22.1409  -14.0757   20.7667 O   0  0  0  0  0  0  0  0  0  0  0  0
  -24.2983  -27.4263   22.3385 O   0  0  0  0  0  0  0  0  0  0  0  0
  -22.5721  -27.7379   19.0042 O   0  0  0  0  0  0  0  0  0  0  0  0
  -25.8922  -25.1912   16.7654 O   0  0  0  0  0  0  0  0  0  0  0  0
  -31.1096  -25.1217   19.2461 O   0  0  0  0  0  0  0  0  0  0  0  0
  -30.6306  -17.6884   19.9094 O   0  0  0  0  0  0  0  0  0  0  0  0
  -23.9534   -7.4159   24.3651 O   0  0  0  0  0  0  0  0  0  0  0  0
  -30.7690  -27.1636   21.0871 O   0  0  0  0  0  0  0  0  0  1  0  0
  -19.7296   -4.3694   22.5535 F   0  0  0  0  0  0  0  0  0  0  0  0
  -21.3980   -8.4636   24.2446 F   0  0  0  0  0  0  0  0  0  0  0  0
  -26.8850  -20.1468   21.0679 S   0  0  0  0  0  0  0  0  0  0  0  0
  1  2  1  0  0  0  0
  1  5  2  0  0  0  0
  2  6  2  0  0  0  0
  3  8  2  0  0  0  0
  3 15  1  0  0  0  0
  4  9  1  0  0  0  0
  4 15  2  0  0  0  0
  5 17  1  0  0  0  0
  6 19  1  0  0  0  0
  7 10  2  0  0  0  0
  7 18  1  0  0  0  0
  8 21  1  0  0  0  0
  9 21  2  0  0  0  0
 10 22  1  0  0  0  0
 11 12  2  0  0  0  0
 11 23  1  0  0  0  0
 12 24  1  0  0  0  0
 13 20  1  0  0  0  0
 13 22  2  0  0  0  0
 14 24  2  0  0  0  0
 14 25  1  0  0  0  0
 15 26  1  0  0  0  0
 16 26  1  0  0  0  0
 16 28  2  0  0  0  0
 16 31  1  0  0  0  0
 17 19  2  0  0  0  0
 17 38  1  0  0  0  0
 18 20  2  0  0  0  0
 18 39  1  0  0  0  0
 19 47  1  0  0  0  0
 20 40  1  0  0  0  0
 21 80  1  0  0  0  0
 22 81  1  0  0  0  0
 23 25  2  0  0  0  0
 23 80  1  0  0  0  0
 24 82  1  0  0  0  0
 25 83  1  0  0  0  0
 26 60  2  0  0  0  0
 27 29  2  0  0  0  0
 27 32  1  0  0  0  0
 27 61  1  0  0  0  0
 28 62  1  0  0  0  0
 28 65  1  0  0  0  0
 29 66  1  0  0  0  0
 29 84  1  0  0  0  0
 30 61  2  0  0  0  0
 30 68  1  0  0  0  0
 30 84  1  0  0  0  0
 31 67  1  0  0  0  0
 31 74  2  0  0  0  0
 32 69  1  0  0  0  0
 32 72  2  0  0  0  0
 33 48  1  0  0  0  0
 33 70  1  0  0  0  0
 33 75  2  0  0  0  0
 34 56  1  0  0  0  0
 34 63  1  0  0  0  0
 34 76  2  0  0  0  0
 35 57  1  0  0  0  0
 35 71  1  0  0  0  0
 35 77  2  0  0  0  0
 36 58  1  0  0  0  0
 36 69  1  0  0  0  0
 36 78  2  0  0  0  0
 37 64  1  0  0  0  0
 37 68  1  0  0  0  0
 37 79  2  0  0  0  0
 38 41  1  0  0  0  0
 39 48  1  0  0  0  0
 40 63  1  0  0  0  0
 41 43  1  0  0  0  0
 42 44  1  0  0  0  0
 42 45  1  0  0  0  0
 43 47  1  0  0  0  0
 44 49  1  0  0  0  0
 45 64  1  0  0  0  0
 46 49  1  0  0  0  0
 46 64  1  0  0  0  0
 47 70  1  0  0  0  0
 48 63  1  0  0  0  0
 49 62  1  0  0  0  0
 50 57  1  0  0  0  0
 51 58  1  0  0  0  0
 52 59  1  0  0  0  0
 53 59  1  0  0  0  0
 54 59  1  0  0  0  0
 55 73  1  0  0  0  0
 56 59  1  0  0  0  0
 56 71  1  0  0  0  0
 57 73  1  0  0  0  0
 58 81  1  0  0  0  0
 60 62  1  0  0  0  0
M  CHG  2  72   1  73   1
M  ISO  4  37 100  58 101  68 100  81 101
M  END
> <Batch ID>
0182

> <Smiles>
CNC(C)C(=O)NC(C(=O)N1Cc2cc([101O:1][101CH:1](C)C(=O)NC(=N)c3nc([100NH:0][100C:0](=O)N4CCCC(n5nc(-c6ccc(Oc7ccc(F)cc7F)cc6)c(C(N)=O)c5N)C4)sc3N)ccc2CC1C(=O)NC1CCCc2ccccc21)C(C)(C)C

> <Shape>
0.315

> <Color>
0.145

> <Negative vol penalty>
0.000

$$$$

  -OEChem-04052304563D

 83 91  0     1  0  0  0  0  0999 V2000
  -23.8666   -8.2926   22.9136 C   0  0  0  0  0  0  0  0  0  0  0  0
  -24.6558   -9.3905   22.5864 C   0  0  0  0  0  0  0  0  0  0  0  0
  -24.0968  -30.3648   21.2124 C   0  0  0  0  0  0  0  0  0  0  0  0
  -25.4952  -29.8433   23.1124 C   0  0  0  0  0  0  0  0  0  0  0  0
  -22.5092   -8.2915   22.5949 C   0  0  0  0  0  0  0  0  0  0  0  0
  -24.0884  -10.4877   21.9394 C   0  0  0  0  0  0  0  0  0  0  0  0
  -25.5652  -14.8997   23.9388 C   0  0  0  0  0  0  0  0  0  0  0  0
  -23.4818  -31.3807   21.9439 C   0  0  0  0  0  0  0  0  0  0  0  0
  -24.8801  -30.8593   23.8439 C   0  0  0  0  0  0  0  0  0  0  0  0
  -26.8345  -15.3620   23.5939 C   0  0  0  0  0  0  0  0  0  0  0  0
  -23.9282  -33.5524   26.0932 C   0  0  0  0  0  0  0  0  0  0  0  0
  -24.7458  -34.4038   26.8362 C   0  0  0  0  0  0  0  0  0  0  0  0
  -25.8456  -16.8503   21.9733 C   0  0  0  0  0  0  0  0  0  0  0  0
  -25.8803  -35.0798   24.8131 C   0  0  0  0  0  0  0  0  0  0  0  0
  -25.1035  -29.5960   21.7966 C   0  0  0  0  0  0  0  0  0  0  0  0
  -26.8836  -28.6561   20.2296 C   0  0  0  0  0  0  0  0  0  0  0  0
  -21.9228   -9.3933   21.9523 C   0  0  0  0  0  0  0  0  0  0  0  0
  -24.4254  -15.4023   23.2948 C   0  0  0  0  0  0  0  0  0  0  0  0
  -22.7222  -10.5008   21.6106 C   0  0  0  0  0  0  0  0  0  0  0  0
  -24.5627  -16.3946   22.3137 C   0  0  0  0  0  0  0  0  0  0  0  0
  -23.8734  -31.6280   23.2597 C   0  0  0  0  0  0  0  0  0  0  0  0
  -26.9751  -16.3353   22.6090 C   0  0  0  0  0  0  0  0  0  0  0  0
  -24.0866  -33.4646   24.7101 C   0  0  0  0  0  0  0  0  0  0  0  0
  -25.7219  -35.1675   26.1962 C   0  0  0  0  0  0  0  0  0  0  0  0
  -25.0627  -34.2283   24.0700 C   0  0  0  0  0  0  0  0  0  0  0  0
  -25.7389  -28.5461   21.0417 C   0  0  0  0  0  0  0  0  0  0  0  0
  -31.0463  -22.1735   19.9478 C   0  0  0  0  0  0  0  0  0  0  0  0
  -29.7846  -21.6213   20.0216 C   0  0  0  0  0  0  0  0  0  0  0  0
  -27.0794  -27.3883   19.7387 C   0  0  0  0  0  0  0  0  0  0  0  0
  -30.9017  -19.8182   19.4641 C   0  0  0  0  0  0  0  0  0  0  0  0
  -27.6972  -29.8017   19.9447 C   0  0  0  0  0  0  0  0  0  0  0  0
  -22.1377  -14.1469   21.4798 C   0  0  0  0  0  0  0  0  0  0  0  0
  -29.8346  -17.0132   20.4850 C   0  0  0  0  0  0  0  0  0  0  0  0
  -20.8527  -17.1151   21.7264 C   0  0  0  0  0  0  0  0  0  0  0  0
  -21.3411  -20.4465   22.2833 C   0  0  0  0  0  0  0  0  0  0  0  0
  -27.3150  -21.8712   20.4516 C   0  0  0  0  0  0  0  0  0  0  0  0
  -20.4614   -9.3265   21.5858 C   0  0  0  0  0  0  0  0  0  0  0  0
  -23.0613  -14.9125   23.6972 C   0  0  0  0  0  0  0  0  0  0  0  0
  -23.3693  -16.9813   21.6067 C   0  0  0  0  0  0  0  0  0  0  0  0
  -19.8585  -10.6846   21.2357 C   0  0  0  0  0  0  0  0  0  0  0  0
  -24.1009  -23.2986   19.8960 C   0  0  0  0  0  0  0  0  0  0  0  0
  -20.7752  -11.4461   20.2835 C   0  0  0  0  0  0  0  0  0  0  0  0
  -24.3347  -24.8001   20.0778 C   0  0  0  0  0  0  0  0  0  0  0  0
  -24.9402  -22.4722   20.8688 C   0  0  0  0  0  0  0  0  0  0  0  0
  -26.6114  -24.2741   21.0405 C   0  0  0  0  0  0  0  0  0  0  0  0
  -22.1380  -11.7201   20.9308 C   0  0  1  0  0  0  0  0  0  0  0  0
  -22.0074  -15.1233   22.6144 C   0  0  1  0  0  0  0  0  0  0  0  0
  -25.8363  -25.1454   20.0387 C   0  0  2  0  0  0  0  0  0  0  0  0
  -31.4968  -23.5619   20.1767 C   0  0  0  0  0  0  0  0  0  0  0  0
  -30.7134  -16.2983   18.2525 C   0  0  0  0  0  0  0  0  0  0  0  0
  -20.1064  -22.6290   22.3825 C   0  0  0  0  0  0  0  0  0  0  0  0
  -20.7116  -17.1711   18.6790 C   0  0  0  0  0  0  0  0  0  0  0  0
  -20.3877  -19.6503   18.8090 C   0  0  0  0  0  0  0  0  0  0  0  0
  -18.7061  -18.1191   19.8338 C   0  0  0  0  0  0  0  0  0  0  0  0
  -22.0810  -20.8692   25.1175 C   0  0  0  0  0  0  0  0  0  0  0  0
  -28.3979  -17.2271   20.9250 C   0  0  0  0  0  0  0  0  0  1  0  0
  -30.1813  -17.4617   19.0722 C   0  0  2  0  0  0  0  0  0  0  0  0
  -20.9638  -18.3972   20.9371 C   0  0  1  0  0  0  0  0  0  0  0  0
  -20.6145  -21.4356   23.1766 C   0  0  2  0  0  0  0  0  0  0  0  0
  -20.2151  -18.3221   19.5765 C   0  0  0  0  0  0  0  0  0  0  0  0
  -25.2423  -27.3064   21.0676 N   0  0  0  0  0  0  0  0  0  0  0  0
  -29.6998  -20.2709   19.7442 N   0  0  0  0  0  0  0  0  0  0  0  0
  -26.0788  -26.6259   20.2656 N   0  0  0  0  0  0  0  0  0  0  0  0
  -22.0573  -16.4653   22.0308 N   0  0  0  0  0  0  0  0  0  0  0  0
  -26.3517  -22.8508   20.7730 N   0  0  0  0  0  0  0  0  0  0  0  0
  -28.0080  -26.8626   18.9118 N   0  0  0  0  0  0  0  0  0  0  0  0
  -27.3548  -31.0272   20.5322 N   0  0  0  0  0  0  0  0  0  0  0  0
  -28.6195  -22.3548   20.3566 N   0  0  0  0  0  0  0  0  0  0  0  0
  -31.1837  -18.5023   19.1399 N   0  0  0  0  0  0  0  0  0  0  0  0
  -22.0422  -12.8228   21.8632 N   0  0  0  0  0  0  0  0  0  0  0  0
  -20.4958  -19.4612   21.8187 N   0  0  0  0  0  0  0  0  0  0  0  0
  -21.5257  -21.9354   24.2447 N   0  3  0  0  0  0  0  0  0  0  0  0
  -28.6887  -29.7440   19.1784 O   0  0  0  0  0  0  0  0  0  0  0  0
  -22.3105  -14.5641   20.3406 O   0  0  0  0  0  0  0  0  0  0  0  0
  -30.6653  -16.4955   21.2321 O   0  0  0  0  0  0  0  0  0  0  0  0
  -19.7387  -16.7091   22.0668 O   0  0  0  0  0  0  0  0  0  0  0  0
  -22.5381  -20.5408   22.0206 O   0  0  0  0  0  0  0  0  0  0  0  0
  -27.0019  -20.6956   20.2472 O   0  0  0  0  0  0  0  0  0  0  0  0
  -23.2736  -32.6194   23.9737 O   0  0  0  0  0  0  0  0  0  0  0  0
  -28.2129  -16.7878   22.2700 O   0  0  0  0  0  0  0  0  0  1  0  0
  -26.5060  -35.9863   26.9096 F   0  0  0  0  0  0  0  0  0  0  0  0
  -25.2188  -34.1491   22.7415 F   0  0  0  0  0  0  0  0  0  0  0  0
  -32.1804  -20.9616   19.5161 S   0  0  0  0  0  0  0  0  0  0  0  0
  1  2  1  0  0  0  0
  1  5  2  0  0  0  0
  2  6  2  0  0  0  0
  3  8  2  0  0  0  0
  3 15  1  0  0  0  0
  4  9  1  0  0  0  0
  4 15  2  0  0  0  0
  5 17  1  0  0  0  0
  6 19  1  0  0  0  0
  7 10  2  0  0  0  0
  7 18  1  0  0  0  0
  8 21  1  0  0  0  0
  9 21  2  0  0  0  0
 10 22  1  0  0  0  0
 11 12  2  0  0  0  0
 11 23  1  0  0  0  0
 12 24  1  0  0  0  0
 13 20  1  0  0  0  0
 13 22  2  0  0  0  0
 14 24  2  0  0  0  0
 14 25  1  0  0  0  0
 15 26  1  0  0  0  0
 16 26  1  0  0  0  0
 16 29  2  0  0  0  0
 16 31  1  0  0  0  0
 17 19  2  0  0  0  0
 17 37  1  0  0  0  0
 18 20  2  0  0  0  0
 18 38  1  0  0  0  0
 19 46  1  0  0  0  0
 20 39  1  0  0  0  0
 21 79  1  0  0  0  0
 22 80  1  0  0  0  0
 23 25  2  0  0  0  0
 23 79  1  0  0  0  0
 24 81  1  0  0  0  0
 25 82  1  0  0  0  0
 26 61  2  0  0  0  0
 27 28  2  0  0  0  0
 27 49  1  0  0  0  0
 27 83  1  0  0  0  0
 28 62  1  0  0  0  0
 28 68  1  0  0  0  0
 29 63  1  0  0  0  0
 29 66  1  0  0  0  0
 30 62  2  0  0  0  0
 30 69  1  0  0  0  0
 30 83  1  0  0  0  0
 31 67  1  0  0  0  0
 31 73  2  0  0  0  0
 32 47  1  0  0  0  0
 32 70  1  0  0  0  0
 32 74  2  0  0  0  0
 33 56  1  0  0  0  0
 33 57  1  0  0  0  0
 33 75  2  0  0  0  0
 34 58  1  0  0  0  0
 34 64  1  0  0  0  0
 34 76  2  0  0  0  0
 35 59  1  0  0  0  0
 35 71  1  0  0  0  0
 35 77  2  0  0  0  0
 36 65  1  0  0  0  0
 36 68  1  0  0  0  0
 36 78  2  0  0  0  0
 37 40  1  0  0  0  0
 38 47  1  0  0  0  0
 39 64  1  0  0  0  0
 40 42  1  0  0  0  0
 41 43  1  0  0  0  0
 41 44  1  0  0  0  0
 42 46  1  0  0  0  0
 43 48  1  0  0  0  0
 44 65  1  0  0  0  0
 45 48  1  0  0  0  0
 45 65  1  0  0  0  0
 46 70  1  0  0  0  0
 47 64  1  0  0  0  0
 48 63  1  0  0  0  0
 50 57  1  0  0  0  0
 51 59  1  0  0  0  0
 52 60  1  0  0  0  0
 53 60  1  0  0  0  0
 54 60  1  0  0  0  0
 55 72  1  0  0  0  0
 56 80  1  0  0  0  0
 57 69  1  0  0  0  0
 58 60  1  0  0  0  0
 58 71  1  0  0  0  0
 59 72  1  0  0  0  0
 61 63  1  0  0  0  0
M  CHG  1  72   1
M  ISO  4  36 100  56 101  68 100  80 101
M  END
> <Batch ID>
0182

> <Smiles>
CNC(C)C(=O)NC(C(=O)N1Cc2cc([101O:1][101CH2:1]C(=O)C(C)Nc3nc([100NH:0][100C:0](=O)N4CCCC(n5nc(-c6ccc(Oc7ccc(F)cc7F)cc6)c(C(N)=O)c5N)C4)c(C)s3)ccc2CC1C(=O)NC1CCCc2ccccc21)C(C)(C)C

> <Shape>
0.197

> <Color>
0.091

> <Negative vol penalty>
0.000

$$$$

  -OEChem-04052304563D

 83 91  0     1  0  0  0  0  0999 V2000
  -24.6677  -37.1251   22.0476 C   0  0  0  0  0  0  0  0  0  0  0  0
  -25.5525  -36.0990   21.7319 C   0  0  0  0  0  0  0  0  0  0  0  0
  -22.9340  -10.1650   22.9205 C   0  0  0  0  0  0  0  0  0  0  0  0
  -23.9390  -10.0191   20.7283 C   0  0  0  0  0  0  0  0  0  0  0  0
  -23.5331  -36.8553   22.8115 C   0  0  0  0  0  0  0  0  0  0  0  0
  -25.3036  -34.8025   22.1809 C   0  0  0  0  0  0  0  0  0  0  0  0
  -26.5864  -29.5811   19.2488 C   0  0  0  0  0  0  0  0  0  0  0  0
  -22.2740   -8.9564   22.6984 C   0  0  0  0  0  0  0  0  0  0  0  0
  -23.2790   -8.8105   20.5062 C   0  0  0  0  0  0  0  0  0  0  0  0
  -27.6427  -28.6779   19.3601 C   0  0  0  0  0  0  0  0  0  0  0  0
  -23.0229   -5.6599   22.7674 C   0  0  0  0  0  0  0  0  0  0  0  0
  -23.0329   -4.7173   23.7955 C   0  0  0  0  0  0  0  0  0  0  0  0
  -26.3101  -27.3103   20.8342 C   0  0  0  0  0  0  0  0  0  0  0  0
  -20.6193   -4.7839   23.8800 C   0  0  0  0  0  0  0  0  0  0  0  0
  -23.7665  -10.6963   21.9355 C   0  0  0  0  0  0  0  0  0  0  0  0
  -25.7218  -12.1260   22.7357 C   0  0  0  0  0  0  0  0  0  0  0  0
  -23.2651  -35.5530   23.2620 C   0  0  0  0  0  0  0  0  0  0  0  0
  -25.3859  -29.3608   19.9392 C   0  0  0  0  0  0  0  0  0  0  0  0
  -24.1649  -34.5152   22.9527 C   0  0  0  0  0  0  0  0  0  0  0  0
  -25.2392  -28.2108   20.7279 C   0  0  0  0  0  0  0  0  0  0  0  0
  -22.4465   -8.2791   21.4913 C   0  0  0  0  0  0  0  0  0  0  0  0
  -27.5057  -27.5438   20.1551 C   0  0  0  0  0  0  0  0  0  0  0  0
  -21.8111   -6.1645   22.2956 C   0  0  0  0  0  0  0  0  0  0  0  0
  -21.8311   -4.2793   24.3518 C   0  0  0  0  0  0  0  0  0  0  0  0
  -20.6093   -5.7265   22.8519 C   0  0  0  0  0  0  0  0  0  0  0  0
  -24.4482  -11.9450   22.1641 C   0  0  0  0  0  0  0  0  0  0  0  0
  -29.4809  -20.5214   19.7581 C   0  0  0  0  0  0  0  0  0  0  0  0
  -25.9103  -13.4865   22.7306 C   0  0  0  0  0  0  0  0  0  0  0  0
  -30.4144  -19.5108   19.8551 C   0  0  0  0  0  0  0  0  0  0  0  0
  -28.1105  -18.8324   20.0402 C   0  0  0  0  0  0  0  0  0  0  0  0
  -28.9813  -22.9171   20.0349 C   0  0  0  0  0  0  0  0  0  0  0  0
  -26.6515  -11.1515   23.2273 C   0  0  0  0  0  0  0  0  0  0  0  0
  -29.7840  -21.9515   19.5522 C   0  0  0  0  0  0  0  0  0  0  0  0
  -29.2314  -24.3809   19.8687 C   0  0  0  0  0  0  0  0  0  0  0  0
  -23.7759  -30.9201   22.1931 C   0  0  0  0  0  0  0  0  0  0  0  0
  -21.5484  -28.6278   21.6403 C   0  0  0  0  0  0  0  0  0  0  0  0
  -20.8434  -25.4854   20.5112 C   0  0  0  0  0  0  0  0  0  0  0  0
  -25.6277  -18.4335   20.1909 C   0  0  0  0  0  0  0  0  0  0  0  0
  -22.0504  -35.3189   24.1248 C   0  0  0  0  0  0  0  0  0  0  0  0
  -24.2464  -30.3309   19.7874 C   0  0  0  0  0  0  0  0  0  0  0  0
  -23.9637  -27.9180   21.4734 C   0  0  0  0  0  0  0  0  0  0  0  0
  -21.6635  -33.8471   24.2455 C   0  0  0  0  0  0  0  0  0  0  0  0
  -22.6689  -17.2574   21.7844 C   0  0  0  0  0  0  0  0  0  0  0  0
  -22.8936  -32.9941   24.5388 C   0  0  0  0  0  0  0  0  0  0  0  0
  -22.9728  -15.7854   22.0723 C   0  0  0  0  0  0  0  0  0  0  0  0
  -23.2649  -17.7096   20.4525 C   0  0  0  0  0  0  0  0  0  0  0  0
  -25.0035  -15.9687   20.5790 C   0  0  0  0  0  0  0  0  0  0  0  0
  -23.9165  -33.0912   23.4005 C   0  0  1  0  0  0  0  0  0  0  0  0
  -23.2526  -30.2708   20.9433 C   0  0  1  0  0  0  0  0  0  0  0  0
  -24.4787  -15.4846   21.9406 C   0  0  2  0  0  0  0  0  0  0  0  0
  -18.9385  -23.8778   20.2204 C   0  0  0  0  0  0  0  0  0  0  0  0
  -21.5853  -28.0460   24.6353 C   0  0  0  0  0  0  0  0  0  0  0  0
  -20.4331  -25.8753   24.1572 C   0  0  0  0  0  0  0  0  0  0  0  0
  -19.3099  -28.0313   23.5978 C   0  0  0  0  0  0  0  0  0  0  0  0
  -21.2196  -25.3899   17.5772 C   0  0  0  0  0  0  0  0  0  0  0  0
  -28.1968  -25.2936   20.4939 C   0  0  0  0  0  0  0  0  0  1  0  0
  -21.2670  -27.2538   22.1987 C   0  0  1  0  0  0  0  0  0  0  0  0
  -19.7708  -24.9709   19.5682 C   0  0  2  0  0  0  0  0  0  0  0  0
  -20.6737  -27.3078   23.6349 C   0  0  0  0  0  0  0  0  0  0  0  0
  -23.8684  -13.0983   21.8210 N   0  0  0  0  0  0  0  0  0  0  0  0
  -28.1592  -20.1342   19.8636 N   0  0  0  0  0  0  0  0  0  0  0  0
  -24.7818  -14.0171   22.1781 N   0  0  0  0  0  0  0  0  0  0  0  0
  -22.8806  -28.8997   21.2981 N   0  0  0  0  0  0  0  0  0  0  0  0
  -24.6946  -17.3963   20.4013 N   0  0  0  0  0  0  0  0  0  0  0  0
  -26.9295  -14.2688   23.1450 N   0  0  0  0  0  0  0  0  0  0  0  0
  -31.7661  -19.6006   19.7857 N   0  0  0  0  0  0  0  0  0  0  0  0
  -26.2992   -9.7968   23.1567 N   0  0  0  0  0  0  0  0  0  0  0  0
  -26.9596  -18.0204   20.1942 N   0  0  0  0  0  0  0  0  0  0  0  0
  -23.5052  -32.2724   22.2803 N   0  0  0  0  0  0  0  0  0  0  0  0
  -20.4125  -26.5842   21.2240 N   0  0  0  0  0  0  0  0  0  0  0  0
  -20.3908  -24.4152   18.3322 N   0  3  0  0  0  0  0  0  0  0  0  0
  -27.7549  -11.4735   23.7297 O   0  0  0  0  0  0  0  0  0  0  0  0
  -30.2088  -24.8144   19.2659 O   0  0  0  0  0  0  0  0  0  0  0  0
  -24.3793  -30.2441   23.0181 O   0  0  0  0  0  0  0  0  0  0  0  0
  -20.6192  -29.4279   21.5058 O   0  0  0  0  0  0  0  0  0  0  0  0
  -21.9514  -24.9624   20.6086 O   0  0  0  0  0  0  0  0  0  0  0  0
  -25.2728  -19.6063   20.0474 O   0  0  0  0  0  0  0  0  0  0  0  0
  -30.9517  -22.1777   18.8544 O   0  0  0  0  0  0  0  0  0  0  0  0
  -21.8028   -7.0997   21.2743 O   0  0  0  0  0  0  0  0  0  0  0  0
  -28.5353  -26.6610   20.2660 O   0  0  0  0  0  0  0  0  0  1  0  0
  -21.8408   -3.3730   25.3381 F   0  0  0  0  0  0  0  0  0  0  0  0
  -19.4420   -6.2068   22.4020 F   0  0  0  0  0  0  0  0  0  0  0  0
  -29.6164  -18.0110   20.0898 S   0  0  0  0  0  0  0  0  0  0  0  0
  1  2  1  0  0  0  0
  1  5  2  0  0  0  0
  2  6  2  0  0  0  0
  3  8  2  0  0  0  0
  3 15  1  0  0  0  0
  4  9  1  0  0  0  0
  4 15  2  0  0  0  0
  5 17  1  0  0  0  0
  6 19  1  0  0  0  0
  7 10  2  0  0  0  0
  7 18  1  0  0  0  0
  8 21  1  0  0  0  0
  9 21  2  0  0  0  0
 10 22  1  0  0  0  0
 11 12  2  0  0  0  0
 11 23  1  0  0  0  0
 12 24  1  0  0  0  0
 13 20  1  0  0  0  0
 13 22  2  0  0  0  0
 14 24  2  0  0  0  0
 14 25  1  0  0  0  0
 15 26  1  0  0  0  0
 16 26  1  0  0  0  0
 16 28  2  0  0  0  0
 16 32  1  0  0  0  0
 17 19  2  0  0  0  0
 17 39  1  0  0  0  0
 18 20  2  0  0  0  0
 18 40  1  0  0  0  0
 19 48  1  0  0  0  0
 20 41  1  0  0  0  0
 21 79  1  0  0  0  0
 22 80  1  0  0  0  0
 23 25  2  0  0  0  0
 23 79  1  0  0  0  0
 24 81  1  0  0  0  0
 25 82  1  0  0  0  0
 26 60  2  0  0  0  0
 27 29  2  0  0  0  0
 27 33  1  0  0  0  0
 27 61  1  0  0  0  0
 28 62  1  0  0  0  0
 28 65  1  0  0  0  0
 29 66  1  0  0  0  0
 29 83  1  0  0  0  0
 30 61  2  0  0  0  0
 30 68  1  0  0  0  0
 30 83  1  0  0  0  0
 31 33  2  0  0  0  0
 31 34  1  0  0  0  0
 32 67  1  0  0  0  0
 32 72  2  0  0  0  0
 33 78  1  0  0  0  0
 34 56  1  0  0  0  0
 34 73  2  0  0  0  0
 35 49  1  0  0  0  0
 35 69  1  0  0  0  0
 35 74  2  0  0  0  0
 36 57  1  0  0  0  0
 36 63  1  0  0  0  0
 36 75  2  0  0  0  0
 37 58  1  0  0  0  0
 37 70  1  0  0  0  0
 37 76  2  0  0  0  0
 38 64  1  0  0  0  0
 38 68  1  0  0  0  0
 38 77  2  0  0  0  0
 39 42  1  0  0  0  0
 40 49  1  0  0  0  0
 41 63  1  0  0  0  0
 42 44  1  0  0  0  0
 43 45  1  0  0  0  0
 43 46  1  0  0  0  0
 44 48  1  0  0  0  0
 45 50  1  0  0  0  0
 46 64  1  0  0  0  0
 47 50  1  0  0  0  0
 47 64  1  0  0  0  0
 48 69  1  0  0  0  0
 49 63  1  0  0  0  0
 50 62  1  0  0  0  0
 51 58  1  0  0  0  0
 52 59  1  0  0  0  0
 53 59  1  0  0  0  0
 54 59  1  0  0  0  0
 55 71  1  0  0  0  0
 56 80  1  0  0  0  0
 57 59  1  0  0  0  0
 57 70  1  0  0  0  0
 58 71  1  0  0  0  0
 60 62  1  0  0  0  0
M  CHG  1  71   1
M  ISO  4  38 100  56 101  68 100  80 101
M  END
> <Batch ID>
0182

> <Smiles>
CNC(C)C(=O)NC(C(=O)N1Cc2cc([101O:1][101CH2:1]C(=O)CC(=O)c3nc([100NH:0][100C:0](=O)N4CCCC(n5nc(-c6ccc(Oc7ccc(F)cc7F)cc6)c(C(N)=O)c5N)C4)sc3N)ccc2CC1C(=O)NC1CCCc2ccccc21)C(C)(C)C

> <Shape>
0.286

> <Color>
0.101

> <Negative vol penalty>
0.000

$$$$

  -OEChem-04052304563D

 86 94  0     1  0  0  0  0  0999 V2000
  -17.1995  -30.3978   23.0461 C   0  0  0  0  0  0  0  0  0  0  0  0
  -18.4947  -30.7137   22.6483 C   0  0  0  0  0  0  0  0  0  0  0  0
  -28.8286  -14.0100   20.9278 C   0  0  0  0  0  0  0  0  0  0  0  0
  -27.1302  -15.0505   19.5604 C   0  0  0  0  0  0  0  0  0  0  0  0
  -16.9488  -29.1983   23.7111 C   0  0  0  0  0  0  0  0  0  0  0  0
  -19.5401  -29.8308   22.9165 C   0  0  0  0  0  0  0  0  0  0  0  0
  -24.4520  -28.7697   19.4160 C   0  0  0  0  0  0  0  0  0  0  0  0
  -28.0401  -12.8645   21.0355 C   0  0  0  0  0  0  0  0  0  0  0  0
  -26.3417  -13.9050   19.6681 C   0  0  0  0  0  0  0  0  0  0  0  0
  -25.7603  -29.2489   19.4655 C   0  0  0  0  0  0  0  0  0  0  0  0
  -24.2804  -12.5051   21.9534 C   0  0  0  0  0  0  0  0  0  0  0  0
  -22.9235  -12.6758   22.2277 C   0  0  0  0  0  0  0  0  0  0  0  0
  -26.4296  -27.2782   20.6852 C   0  0  0  0  0  0  0  0  0  0  0  0
  -22.3650  -11.5631   20.1571 C   0  0  0  0  0  0  0  0  0  0  0  0
  -30.8293  -23.9435   17.5875 C   0  0  0  0  0  0  0  0  0  0  0  0
  -28.3736  -15.1031   20.1903 C   0  0  0  0  0  0  0  0  0  0  0  0
  -30.1522  -16.5658   19.0926 C   0  0  0  0  0  0  0  0  0  0  0  0
  -17.9902  -28.2958   23.9790 C   0  0  0  0  0  0  0  0  0  0  0  0
  -24.1199  -27.5442   20.0112 C   0  0  0  0  0  0  0  0  0  0  0  0
  -19.3034  -28.6188   23.5869 C   0  0  0  0  0  0  0  0  0  0  0  0
  -25.1169  -26.7844   20.6396 C   0  0  0  0  0  0  0  0  0  0  0  0
  -31.5328  -26.2375   17.4237 C   0  0  0  0  0  0  0  0  0  0  0  0
  -26.7967  -12.8119   20.4057 C   0  0  0  0  0  0  0  0  0  0  0  0
  -26.7488  -28.5045   20.1027 C   0  0  0  0  0  0  0  0  0  0  0  0
  -24.6796  -11.8635   20.7809 C   0  0  0  0  0  0  0  0  0  0  0  0
  -21.9657  -12.2048   21.3296 C   0  0  0  0  0  0  0  0  0  0  0  0
  -23.7219  -11.3925   19.8828 C   0  0  0  0  0  0  0  0  0  0  0  0
  -31.2977  -25.0060   16.8226 C   0  0  0  0  0  0  0  0  0  0  0  0
  -29.1874  -16.2870   20.0791 C   0  0  0  0  0  0  0  0  0  0  0  0
  -31.2858  -26.3539   18.7821 C   0  0  0  0  0  0  0  0  0  0  0  0
  -30.6140  -24.1625   18.9386 C   0  0  0  0  0  0  0  0  0  0  0  0
  -30.6392  -17.8051   19.4292 C   0  0  0  0  0  0  0  0  0  0  0  0
  -30.5706  -15.7752   17.9720 C   0  0  0  0  0  0  0  0  0  0  0  0
  -22.1758  -26.6449   22.3597 C   0  0  0  0  0  0  0  0  0  0  0  0
  -23.0398  -23.6664   21.4090 C   0  0  0  0  0  0  0  0  0  0  0  0
  -25.3332  -21.6718   19.8569 C   0  0  0  0  0  0  0  0  0  0  0  0
  -29.8516  -23.0659   21.0746 C   0  0  0  0  0  0  0  0  0  0  0  0
  -17.6781  -27.0332   24.7425 C   0  0  0  0  0  0  0  0  0  0  0  0
  -22.7095  -27.0286   19.9258 C   0  0  0  0  0  0  0  0  0  0  0  0
  -24.8162  -25.4530   21.2763 C   0  0  0  0  0  0  0  0  0  0  0  0
  -18.7807  -25.9809   24.6562 C   0  0  0  0  0  0  0  0  0  0  0  0
  -29.9867  -20.5751   23.6153 C   0  0  0  0  0  0  0  0  0  0  0  0
  -20.1455  -26.6165   24.9012 C   0  0  0  0  0  0  0  0  0  0  0  0
  -29.8701  -19.2604   22.8406 C   0  0  0  0  0  0  0  0  0  0  0  0
  -29.1225  -21.6744   23.0000 C   0  0  0  0  0  0  0  0  0  0  0  0
  -29.2209  -20.5885   20.7909 C   0  0  0  0  0  0  0  0  0  0  0  0
  -20.4599  -27.6755   23.8377 C   0  0  1  0  0  0  0  0  0  0  0  0
  -22.3786  -26.0106   21.0128 C   0  0  1  0  0  0  0  0  0  0  0  0
  -30.1237  -19.4692   21.3348 C   0  0  2  0  0  0  0  0  0  0  0  0
  -25.7809  -19.2737   19.2688 C   0  0  0  0  0  0  0  0  0  0  0  0
  -23.8221  -23.1049   24.3043 C   0  0  0  0  0  0  0  0  0  0  0  0
  -25.1091  -21.1147   23.4974 C   0  0  0  0  0  0  0  0  0  0  0  0
  -22.6399  -21.2219   23.1591 C   0  0  0  0  0  0  0  0  0  0  0  0
  -25.3460  -22.2644   16.9573 C   0  0  0  0  0  0  0  0  0  0  0  0
  -29.0710  -27.9986   20.1885 C   0  0  0  0  0  0  0  0  0  1  0  0
  -24.1463  -22.7065   21.7740 C   0  0  1  0  0  0  0  0  0  0  0  0
  -25.1783  -20.5901   18.8032 C   0  0  2  0  0  0  0  0  0  0  0  0
  -31.5210  -27.6656   19.4921 C   0  0  0  0  0  0  0  0  0  0  0  0
  -23.9349  -22.0630   23.1735 C   0  0  0  0  0  0  0  0  0  0  0  0
  -30.2970  -28.5803   19.5063 C   0  0  0  0  0  0  0  0  0  0  0  0
  -29.0674  -17.2700   20.9754 N   0  0  0  0  0  0  0  0  0  0  0  0
  -30.8308  -25.3446   19.5578 N   0  0  0  0  0  0  0  0  0  0  0  0
  -29.9631  -18.1786   20.5533 N   0  0  0  0  0  0  0  0  0  0  0  0
  -23.4211  -24.9946   21.1719 N   0  0  0  0  0  0  0  0  0  0  0  0
  -29.4205  -21.8184   21.5734 N   0  0  0  0  0  0  0  0  0  0  0  0
  -32.0067  -27.3198   16.6608 N   0  0  0  0  0  0  0  0  0  0  0  0
  -31.5756  -18.6009   18.8704 N   0  0  0  0  0  0  0  0  0  0  0  0
  -29.9668  -14.5262   17.7729 N   0  0  0  0  0  0  0  0  0  0  0  0
  -30.1363  -23.0738   19.7095 N   0  0  0  0  0  0  0  0  0  0  0  0
  -20.8756  -27.0444   22.6035 N   0  0  0  0  0  0  0  0  0  0  0  0
  -24.2296  -21.7446   20.6803 N   0  0  0  0  0  0  0  0  0  0  0  0
  -25.8563  -20.9966   17.5399 N   0  3  0  0  0  0  0  0  0  0  0  0
  -31.4654  -16.1578   17.1805 O   0  0  0  0  0  0  0  0  0  0  0  0
  -23.1281  -26.7619   23.1220 O   0  0  0  0  0  0  0  0  0  0  0  0
  -21.8809  -23.2513   21.3299 O   0  0  0  0  0  0  0  0  0  0  0  0
  -26.3348  -22.3789   19.9434 O   0  0  0  0  0  0  0  0  0  0  0  0
  -29.9865  -24.0472   21.8099 O   0  0  0  0  0  0  0  0  0  0  0  0
  -26.0271  -11.6942   20.5104 O   0  0  0  0  0  0  0  0  0  0  0  0
  -28.0264  -28.9702   20.1531 O   0  0  0  0  0  0  0  0  0  1  0  0
  -20.6627  -12.3673   21.5939 F   0  0  0  0  0  0  0  0  0  0  0  0
  -24.0993  -10.7743   18.7554 F   0  0  0  0  0  0  0  0  0  0  0  0
  -31.5184  -24.8318   15.5120 F   0  0  0  0  0  0  0  0  0  0  0  0
  -32.5388  -28.3674   18.9057 F   0  0  0  0  0  0  0  0  0  0  0  0
  -31.9209  -27.4896   20.7871 F   0  0  0  0  0  0  0  0  0  0  0  0
  -29.9780  -28.9376   18.2356 F   0  0  0  0  0  0  0  0  0  0  0  0
  -30.6429  -29.7305   20.1497 F   0  0  0  0  0  0  0  0  0  0  0  0
  1  2  1  0  0  0  0
  1  5  2  0  0  0  0
  2  6  2  0  0  0  0
  3  8  2  0  0  0  0
  3 16  1  0  0  0  0
  4  9  1  0  0  0  0
  4 16  2  0  0  0  0
  5 18  1  0  0  0  0
  6 20  1  0  0  0  0
  7 10  2  0  0  0  0
  7 19  1  0  0  0  0
  8 23  1  0  0  0  0
  9 23  2  0  0  0  0
 10 24  1  0  0  0  0
 11 12  2  0  0  0  0
 11 25  1  0  0  0  0
 12 26  1  0  0  0  0
 13 21  1  0  0  0  0
 13 24  2  0  0  0  0
 14 26  2  0  0  0  0
 14 27  1  0  0  0  0
 15 28  2  0  0  0  0
 15 31  1  0  0  0  0
 16 29  1  0  0  0  0
 17 29  1  0  0  0  0
 17 32  2  0  0  0  0
 17 33  1  0  0  0  0
 18 20  2  0  0  0  0
 18 38  1  0  0  0  0
 19 21  2  0  0  0  0
 19 39  1  0  0  0  0
 20 47  1  0  0  0  0
 21 40  1  0  0  0  0
 22 28  1  0  0  0  0
 22 30  2  0  0  0  0
 22 66  1  0  0  0  0
 23 78  1  0  0  0  0
 24 79  1  0  0  0  0
 25 27  2  0  0  0  0
 25 78  1  0  0  0  0
 26 80  1  0  0  0  0
 27 81  1  0  0  0  0
 28 82  1  0  0  0  0
 29 61  2  0  0  0  0
 30 58  1  0  0  0  0
 30 62  1  0  0  0  0
 31 62  2  0  0  0  0
 31 69  1  0  0  0  0
 32 63  1  0  0  0  0
 32 67  1  0  0  0  0
 33 68  1  0  0  0  0
 33 73  2  0  0  0  0
 34 48  1  0  0  0  0
 34 70  1  0  0  0  0
 34 74  2  0  0  0  0
 35 56  1  0  0  0  0
 35 64  1  0  0  0  0
 35 75  2  0  0  0  0
 36 57  1  0  0  0  0
 36 71  1  0  0  0  0
 36 76  2  0  0  0  0
 37 65  1  0  0  0  0
 37 69  1  0  0  0  0
 37 77  2  0  0  0  0
 38 41  1  0  0  0  0
 39 48  1  0  0  0  0
 40 64  1  0  0  0  0
 41 43  1  0  0  0  0
 42 44  1  0  0  0  0
 42 45  1  0  0  0  0
 43 47  1  0  0  0  0
 44 49  1  0  0  0  0
 45 65  1  0  0  0  0
 46 49  1  0  0  0  0
 46 65  1  0  0  0  0
 47 70  1  0  0  0  0
 48 64  1  0  0  0  0
 49 63  1  0  0  0  0
 50 57  1  0  0  0  0
 51 59  1  0  0  0  0
 52 59  1  0  0  0  0
 53 59  1  0  0  0  0
 54 72  1  0  0  0  0
 55 60  1  0  0  0  0
 55 79  1  0  0  0  0
 56 59  1  0  0  0  0
 56 71  1  0  0  0  0
 57 72  1  0  0  0  0
 58 60  1  0  0  0  0
 58 83  1  0  0  0  0
 58 84  1  0  0  0  0
 60 85  1  0  0  0  0
 60 86  1  0  0  0  0
 61 63  1  0  0  0  0
M  CHG  1  72   1
M  ISO  4  37 100  55 101  69 100  79 101
M  END
> <Batch ID>
0182

> <Smiles>
CNC(C)C(=O)NC(C(=O)N1Cc2cc([101O:1][101CH2:1]C(F)(F)C(F)(F)c3nc([100NH:0][100C:0](=O)N4CCCC(n5nc(-c6ccc(Oc7ccc(F)cc7F)cc6)c(C(N)=O)c5N)C4)cc(F)c3N)ccc2CC1C(=O)NC1CCCc2ccccc21)C(C)(C)C

> <Shape>
0.253

> <Color>
0.068

> <Negative vol penalty>
0.000

$$$$

  -OEChem-04052304563D

 86 94  0     1  0  0  0  0  0999 V2000
  -18.3699  -21.7129   22.3271 C   0  0  0  0  0  0  0  0  0  0  0  0
  -19.7424  -21.9395   22.3103 C   0  0  0  0  0  0  0  0  0  0  0  0
  -23.2240   -9.7172   20.5748 C   0  0  0  0  0  0  0  0  0  0  0  0
  -23.8777  -10.2679   22.8345 C   0  0  0  0  0  0  0  0  0  0  0  0
  -17.5096  -22.6037   21.6865 C   0  0  0  0  0  0  0  0  0  0  0  0
  -20.2555  -23.0564   21.6517 C   0  0  0  0  0  0  0  0  0  0  0  0
  -23.7949  -25.4555   24.3650 C   0  0  0  0  0  0  0  0  0  0  0  0
  -22.5287   -8.6041   21.0472 C   0  0  0  0  0  0  0  0  0  0  0  0
  -23.1824   -9.1548   23.3070 C   0  0  0  0  0  0  0  0  0  0  0  0
  -25.0701  -24.8923   24.3880 C   0  0  0  0  0  0  0  0  0  0  0  0
  -19.9747   -8.3174   23.9625 C   0  0  0  0  0  0  0  0  0  0  0  0
  -19.1684   -8.4884   25.0878 C   0  0  0  0  0  0  0  0  0  0  0  0
  -25.7954  -26.4814   22.7243 C   0  0  0  0  0  0  0  0  0  0  0  0
  -20.4714   -6.8346   26.2727 C   0  0  0  0  0  0  0  0  0  0  0  0
  -23.8985  -10.5491   21.4685 C   0  0  0  0  0  0  0  0  0  0  0  0
  -24.1174  -13.0034   20.8080 C   0  0  0  0  0  0  0  0  0  0  0  0
  -18.0116  -23.7372   21.0281 C   0  0  0  0  0  0  0  0  0  0  0  0
  -23.5070  -26.5307   23.5121 C   0  0  0  0  0  0  0  0  0  0  0  0
  -19.4012  -23.9624   21.0006 C   0  0  0  0  0  0  0  0  0  0  0  0
  -24.5165  -27.0581   22.6942 C   0  0  0  0  0  0  0  0  0  0  0  0
  -22.5079   -8.3229   22.4133 C   0  0  0  0  0  0  0  0  0  0  0  0
  -26.0698  -25.4033   23.5655 C   0  0  0  0  0  0  0  0  0  0  0  0
  -21.0293   -7.4050   23.9923 C   0  0  0  0  0  0  0  0  0  0  0  0
  -19.4167   -7.7470   26.2429 C   0  0  0  0  0  0  0  0  0  0  0  0
  -21.2777   -6.6636   25.1474 C   0  0  0  0  0  0  0  0  0  0  0  0
  -24.6174  -11.6988   20.9811 C   0  0  0  0  0  0  0  0  0  0  0  0
  -31.3877  -19.3670   21.1705 C   0  0  0  0  0  0  0  0  0  0  0  0
  -25.1857  -13.7192   20.3254 C   0  0  0  0  0  0  0  0  0  0  0  0
  -30.2364  -19.8214   21.7789 C   0  0  0  0  0  0  0  0  0  0  0  0
  -30.2575  -17.4875   21.1831 C   0  0  0  0  0  0  0  0  0  0  0  0
  -27.4420  -23.5344   23.2572 C   0  0  0  0  0  0  0  0  0  1  0  0
  -22.8048  -13.5218   21.0609 C   0  0  0  0  0  0  0  0  0  0  0  0
  -28.6171  -22.8937   23.2439 C   0  0  0  0  0  0  0  0  0  0  0  0
  -28.6501  -21.4425   22.8680 C   0  0  0  0  0  0  0  0  0  0  0  0
  -21.5137  -26.9929   21.0796 C   0  0  0  0  0  0  0  0  0  0  0  0
  -22.5889  -30.0464   21.2861 C   0  0  0  0  0  0  0  0  0  0  0  0
  -25.0605  -32.1879   22.2618 C   0  0  0  0  0  0  0  0  0  0  0  0
  -30.5786  -15.0996   20.4475 C   0  0  0  0  0  0  0  0  0  0  0  0
  -17.0463  -24.6463   20.3094 C   0  0  0  0  0  0  0  0  0  0  0  0
  -22.1337  -27.1443   23.5186 C   0  0  0  0  0  0  0  0  0  0  0  0
  -24.2642  -28.2245   21.7754 C   0  0  0  0  0  0  0  0  0  0  0  0
  -17.6405  -26.0067   19.9537 C   0  0  0  0  0  0  0  0  0  0  0  0
  -29.6960  -12.1668   18.6317 C   0  0  0  0  0  0  0  0  0  0  0  0
  -19.0238  -25.8391   19.3329 C   0  0  0  0  0  0  0  0  0  0  0  0
  -28.2550  -11.8909   19.0668 C   0  0  0  0  0  0  0  0  0  0  0  0
  -30.5430  -12.7052   19.7835 C   0  0  0  0  0  0  0  0  0  0  0  0
  -28.5412  -13.5986   20.9077 C   0  0  0  0  0  0  0  0  0  0  0  0
  -19.9940  -25.1760   20.3180 C   0  0  1  0  0  0  0  0  0  0  0  0
  -21.8130  -27.9049   22.2356 C   0  0  1  0  0  0  0  0  0  0  0  0
  -27.6328  -13.1160   19.7651 C   0  0  2  0  0  0  0  0  0  0  0  0
  -25.6709  -34.6220   22.2632 C   0  0  0  0  0  0  0  0  0  0  0  0
  -23.2707  -29.8747   18.3170 C   0  0  0  0  0  0  0  0  0  0  0  0
  -24.7046  -31.9074   18.6000 C   0  0  0  0  0  0  0  0  0  0  0  0
  -22.2512  -32.0443   19.0294 C   0  0  0  0  0  0  0  0  0  0  0  0
  -25.1700  -32.2779   25.2179 C   0  0  0  0  0  0  0  0  0  0  0  0
  -23.7310  -30.8213   20.6745 C   0  0  1  0  0  0  0  0  0  0  0  0
  -25.0154  -33.4906   23.0398 C   0  0  2  0  0  0  0  0  0  0  0  0
  -32.5841  -20.1761   20.8598 C   0  0  0  0  0  0  0  0  0  0  0  0
  -23.4939  -31.1387   19.1710 C   0  0  0  0  0  0  0  0  0  0  0  0
  -25.9031  -11.5894   20.6363 N   0  0  0  0  0  0  0  0  0  0  0  0
  -31.4018  -18.0288   20.8286 N   0  0  0  0  0  0  0  0  0  0  0  0
  -26.2201  -12.8343   20.2417 N   0  0  0  0  0  0  0  0  0  0  0  0
  -22.9037  -28.7859   21.8132 N   0  0  0  0  0  0  0  0  0  0  0  0
  -29.8935  -13.8673   20.3939 N   0  0  0  0  0  0  0  0  0  0  0  0
  -25.3317  -15.0130   19.9686 N   0  0  0  0  0  0  0  0  0  0  0  0
  -21.8259  -12.6495   21.5559 N   0  0  0  0  0  0  0  0  0  0  0  0
  -29.8500  -21.0945   22.2630 N   0  0  0  0  0  0  0  0  0  0  0  0
  -29.8489  -16.1405   21.0208 N   0  0  0  0  0  0  0  0  0  0  0  0
  -20.4523  -26.1358   21.2994 N   0  0  0  0  0  0  0  0  0  0  0  0
  -23.9185  -32.0011   21.5119 N   0  0  0  0  0  0  0  0  0  0  0  0
  -25.7253  -33.3413   24.3416 N   0  3  0  0  0  0  0  0  0  0  0  0
  -22.5044  -14.7192   20.8385 O   0  0  0  0  0  0  0  0  0  0  0  0
  -27.6940  -20.7100   23.0987 O   0  0  0  0  0  0  0  0  0  0  0  0
  -22.1943  -27.0628   20.0630 O   0  0  0  0  0  0  0  0  0  0  0  0
  -21.4604  -30.5442   21.3022 O   0  0  0  0  0  0  0  0  0  0  0  0
  -26.0150  -31.4152   22.3111 O   0  0  0  0  0  0  0  0  0  0  0  0
  -31.7177  -15.2291   19.9920 O   0  0  0  0  0  0  0  0  0  0  0  0
  -29.8062  -23.5175   23.5623 O   0  0  0  0  0  0  0  0  0  0  0  0
  -21.8294   -7.2369   22.8746 O   0  0  0  0  0  0  0  0  0  0  0  0
  -27.3151  -24.8550   23.5855 O   0  0  0  0  0  0  0  0  0  1  0  0
  -18.6433   -7.9125   27.3239 F   0  0  0  0  0  0  0  0  0  0  0  0
  -22.2901   -5.7864   25.1825 F   0  0  0  0  0  0  0  0  0  0  0  0
  -32.4842  -21.4923   21.2328 F   0  0  0  0  0  0  0  0  0  0  0  0
  -33.7327  -19.7342   21.4652 F   0  0  0  0  0  0  0  0  0  0  0  0
  -32.8798  -20.2095   19.5221 F   0  0  0  0  0  0  0  0  0  0  0  0
  -29.1185  -18.5298   21.9323 S   0  0  0  0  0  0  0  0  0  0  0  0
  1  2  1  0  0  0  0
  1  5  2  0  0  0  0
  2  6  2  0  0  0  0
  3  8  2  0  0  0  0
  3 15  1  0  0  0  0
  4  9  1  0  0  0  0
  4 15  2  0  0  0  0
  5 17  1  0  0  0  0
  6 19  1  0  0  0  0
  7 10  2  0  0  0  0
  7 18  1  0  0  0  0
  8 21  1  0  0  0  0
  9 21  2  0  0  0  0
 10 22  1  0  0  0  0
 11 12  2  0  0  0  0
 11 23  1  0  0  0  0
 12 24  1  0  0  0  0
 13 20  1  0  0  0  0
 13 22  2  0  0  0  0
 14 24  2  0  0  0  0
 14 25  1  0  0  0  0
 15 26  1  0  0  0  0
 16 26  1  0  0  0  0
 16 28  2  0  0  0  0
 16 32  1  0  0  0  0
 17 19  2  0  0  0  0
 17 39  1  0  0  0  0
 18 20  2  0  0  0  0
 18 40  1  0  0  0  0
 19 48  1  0  0  0  0
 20 41  1  0  0  0  0
 21 79  1  0  0  0  0
 22 80  1  0  0  0  0
 23 25  2  0  0  0  0
 23 79  1  0  0  0  0
 24 81  1  0  0  0  0
 25 82  1  0  0  0  0
 26 60  2  0  0  0  0
 27 29  2  0  0  0  0
 27 58  1  0  0  0  0
 27 61  1  0  0  0  0
 28 62  1  0  0  0  0
 28 65  1  0  0  0  0
 29 67  1  0  0  0  0
 29 86  1  0  0  0  0
 30 61  2  0  0  0  0
 30 68  1  0  0  0  0
 30 86  1  0  0  0  0
 31 33  2  0  0  0  0
 31 80  1  0  0  0  0
 32 66  1  0  0  0  0
 32 72  2  0  0  0  0
 33 34  1  0  0  0  0
 33 78  1  0  0  0  0
 34 67  1  0  0  0  0
 34 73  2  0  0  0  0
 35 49  1  0  0  0  0
 35 69  1  0  0  0  0
 35 74  2  0  0  0  0
 36 56  1  0  0  0  0
 36 63  1  0  0  0  0
 36 75  2  0  0  0  0
 37 57  1  0  0  0  0
 37 70  1  0  0  0  0
 37 76  2  0  0  0  0
 38 64  1  0  0  0  0
 38 68  1  0  0  0  0
 38 77  2  0  0  0  0
 39 42  1  0  0  0  0
 40 49  1  0  0  0  0
 41 63  1  0  0  0  0
 42 44  1  0  0  0  0
 43 45  1  0  0  0  0
 43 46  1  0  0  0  0
 44 48  1  0  0  0  0
 45 50  1  0  0  0  0
 46 64  1  0  0  0  0
 47 50  1  0  0  0  0
 47 64  1  0  0  0  0
 48 69  1  0  0  0  0
 49 63  1  0  0  0  0
 50 62  1  0  0  0  0
 51 57  1  0  0  0  0
 52 59  1  0  0  0  0
 53 59  1  0  0  0  0
 54 59  1  0  0  0  0
 55 71  1  0  0  0  0
 56 59  1  0  0  0  0
 56 70  1  0  0  0  0
 57 71  1  0  0  0  0
 58 83  1  0  0  0  0
 58 84  1  0  0  0  0
 58 85  1  0  0  0  0
 60 62  1  0  0  0  0
M  CHG  1  71   1
M  ISO  4  31 101  38 100  68 100  80 101
M  END
> <Batch ID>
0182

> <Smiles>
CNC(C)C(=O)NC(C(=O)N1Cc2cc([101O:1][101CH2:1]C(=O)C(=O)Nc3sc([100NH:0][100C:0](=O)N4CCCC(n5nc(-c6ccc(Oc7ccc(F)cc7F)cc6)c(C(N)=O)c5N)C4)nc3C(F)(F)F)ccc2CC1C(=O)NC1CCCc2ccccc21)C(C)(C)C

> <Shape>
0.269

> <Color>
0.171

> <Negative vol penalty>
0.000

$$$$

  -OEChem-04052304563D

 86 94  0     1  0  0  0  0  0999 V2000
  -27.6261  -36.4167   24.7900 C   0  0  0  0  0  0  0  0  0  0  0  0
  -28.1467  -35.2840   24.1726 C   0  0  0  0  0  0  0  0  0  0  0  0
  -23.6228   -9.9134   22.4229 C   0  0  0  0  0  0  0  0  0  0  0  0
  -23.3204   -9.9708   20.0266 C   0  0  0  0  0  0  0  0  0  0  0  0
  -26.3866  -36.3554   25.4255 C   0  0  0  0  0  0  0  0  0  0  0  0
  -27.4284  -34.0889   24.1911 C   0  0  0  0  0  0  0  0  0  0  0  0
  -27.2190  -29.8507   19.7752 C   0  0  0  0  0  0  0  0  0  0  0  0
  -22.8159   -8.7781   22.4975 C   0  0  0  0  0  0  0  0  0  0  0  0
  -22.5135   -8.8355   20.1012 C   0  0  0  0  0  0  0  0  0  0  0  0
  -27.8920  -28.6420   19.6026 C   0  0  0  0  0  0  0  0  0  0  0  0
  -23.1260   -5.4598   21.9271 C   0  0  0  0  0  0  0  0  0  0  0  0
  -23.5652   -4.4036   22.7253 C   0  0  0  0  0  0  0  0  0  0  0  0
  -26.0184  -27.4679   20.5670 C   0  0  0  0  0  0  0  0  0  0  0  0
  -29.4302  -18.6030   16.5321 C   0  0  0  0  0  0  0  0  0  0  0  0
  -21.5706   -4.5943   24.0752 C   0  0  0  0  0  0  0  0  0  0  0  0
  -23.8750  -10.5098   21.1874 C   0  0  0  0  0  0  0  0  0  0  0  0
  -26.1042  -11.7240   20.9344 C   0  0  0  0  0  0  0  0  0  0  0  0
  -25.6484  -35.1615   25.4435 C   0  0  0  0  0  0  0  0  0  0  0  0
  -25.9430  -29.8782   20.3561 C   0  0  0  0  0  0  0  0  0  0  0  0
  -26.1785  -34.0112   24.8285 C   0  0  0  0  0  0  0  0  0  0  0  0
  -25.3303  -28.6780   20.7436 C   0  0  0  0  0  0  0  0  0  0  0  0
  -29.3731  -19.9921   16.5494 C   0  0  0  0  0  0  0  0  0  0  0  0
  -22.2612   -8.2391   21.3367 C   0  0  0  0  0  0  0  0  0  0  0  0
  -27.2930  -27.4506   20.0011 C   0  0  0  0  0  0  0  0  0  0  0  0
  -21.9091   -6.0833   22.2030 C   0  0  0  0  0  0  0  0  0  0  0  0
  -22.7875   -3.9708   23.7994 C   0  0  0  0  0  0  0  0  0  0  0  0
  -28.4605  -17.8645   17.2012 C   0  0  0  0  0  0  0  0  0  0  0  0
  -21.1314   -5.6505   23.2770 C   0  0  0  0  0  0  0  0  0  0  0  0
  -24.7080  -11.6829   21.1097 C   0  0  0  0  0  0  0  0  0  0  0  0
  -28.3344  -20.5899   17.2448 C   0  0  0  0  0  0  0  0  0  0  0  0
  -27.4628  -18.5575   17.8676 C   0  0  0  0  0  0  0  0  0  0  0  0
  -26.4101  -13.0630   20.9270 C   0  0  0  0  0  0  0  0  0  0  0  0
  -27.0409  -10.6481   20.7908 C   0  0  0  0  0  0  0  0  0  0  0  0
  -27.5798  -24.2406   17.7544 C   0  0  0  0  0  0  0  0  0  0  0  0
  -27.3149  -22.7711   17.9123 C   0  0  0  0  0  0  0  0  0  0  0  0
  -24.6993  -31.1757   22.9778 C   0  0  0  0  0  0  0  0  0  0  0  0
  -21.9126  -30.0880   21.7235 C   0  0  0  0  0  0  0  0  0  0  0  0
  -20.3320  -27.8743   19.6624 C   0  0  0  0  0  0  0  0  0  0  0  0
  -25.3928  -18.2827   19.2769 C   0  0  0  0  0  0  0  0  0  0  0  0
  -24.3347  -35.1314   26.1836 C   0  0  0  0  0  0  0  0  0  0  0  0
  -25.2192  -31.1876   20.5109 C   0  0  0  0  0  0  0  0  0  0  0  0
  -23.9534  -28.6514   21.3536 C   0  0  0  0  0  0  0  0  0  0  0  0
  -23.4665  -33.9252   25.8348 C   0  0  0  0  0  0  0  0  0  0  0  0
  -23.5836  -17.0939   22.1036 C   0  0  0  0  0  0  0  0  0  0  0  0
  -24.2979  -32.6464   25.8515 C   0  0  0  0  0  0  0  0  0  0  0  0
  -23.8297  -15.5836   22.0826 C   0  0  0  0  0  0  0  0  0  0  0  0
  -23.4468  -17.6659   20.6937 C   0  0  0  0  0  0  0  0  0  0  0  0
  -24.7957  -15.8280   19.7601 C   0  0  0  0  0  0  0  0  0  0  0  0
  -25.4181  -32.7030   24.8058 C   0  0  1  0  0  0  0  0  0  0  0  0
  -24.1365  -31.1485   21.5849 C   0  0  1  0  0  0  0  0  0  0  0  0
  -25.0049  -15.2170   21.1553 C   0  0  2  0  0  0  0  0  0  0  0  0
  -18.0460  -27.2045   18.8731 C   0  0  0  0  0  0  0  0  0  0  0  0
  -21.4078  -28.6839   24.3850 C   0  0  0  0  0  0  0  0  0  0  0  0
  -19.6589  -27.3021   23.2447 C   0  0  0  0  0  0  0  0  0  0  0  0
  -19.3940  -29.7786   23.3846 C   0  0  0  0  0  0  0  0  0  0  0  0
  -20.9896  -28.5126   16.8483 C   0  0  0  0  0  0  0  0  0  0  0  0
  -28.9192  -24.7387   18.2510 C   0  0  0  0  0  0  0  0  0  0  0  0
  -28.8546  -26.1790   18.7361 C   0  0  0  0  0  0  0  0  0  1  0  0
  -21.1254  -28.8036   21.8214 C   0  0  1  0  0  0  0  0  0  0  0  0
  -19.2651  -28.0718   18.6006 C   0  0  2  0  0  0  0  0  0  0  0  0
  -20.4233  -28.6424   23.1992 C   0  0  0  0  0  0  0  0  0  0  0  0
  -24.1645  -12.8991   21.2070 N   0  0  0  0  0  0  0  0  0  0  0  0
  -27.3743  -19.9059   17.9067 N   0  0  0  0  0  0  0  0  0  0  0  0
  -25.2247  -13.7170   21.0924 N   0  0  0  0  0  0  0  0  0  0  0  0
  -23.2890  -29.9581   21.4900 N   0  0  0  0  0  0  0  0  0  0  0  0
  -24.5978  -17.2815   19.8738 N   0  0  0  0  0  0  0  0  0  0  0  0
  -30.3539  -20.7411   15.8725 N   0  0  0  0  0  0  0  0  0  0  0  0
  -27.5746  -13.7330   20.7954 N   0  0  0  0  0  0  0  0  0  0  0  0
  -26.5575   -9.3329   20.8210 N   0  0  0  0  0  0  0  0  0  0  0  0
  -28.2626  -22.0022   17.2720 N   0  0  0  0  0  0  0  0  0  0  0  0
  -26.4784  -17.7985   18.5477 N   0  0  0  0  0  0  0  0  0  0  0  0
  -24.8885  -32.4478   23.4834 N   0  0  0  0  0  0  0  0  0  0  0  0
  -20.2145  -28.7952   20.6819 N   0  0  0  0  0  0  0  0  0  0  0  0
  -19.8015  -27.7192   17.2556 N   0  3  0  0  0  0  0  0  0  0  0  0
  -28.2722  -10.8466   20.6567 O   0  0  0  0  0  0  0  0  0  0  0  0
  -26.7049  -24.9137   17.2310 O   0  0  0  0  0  0  0  0  0  0  0  0
  -26.3457  -22.4599   18.5843 O   0  0  0  0  0  0  0  0  0  0  0  0
  -24.9425  -30.1208   23.5519 O   0  0  0  0  0  0  0  0  0  0  0  0
  -21.3266  -31.1669   21.8424 O   0  0  0  0  0  0  0  0  0  0  0  0
  -21.1821  -26.9892   19.5960 O   0  0  0  0  0  0  0  0  0  0  0  0
  -25.1458  -19.4822   19.4258 O   0  0  0  0  0  0  0  0  0  0  0  0
  -21.4740   -7.1312   21.4091 O   0  0  0  0  0  0  0  0  0  0  0  0
  -27.9479  -26.2695   19.8343 O   0  0  0  0  0  0  0  0  0  1  0  0
  -23.2087   -2.9556   24.5649 F   0  0  0  0  0  0  0  0  0  0  0  0
  -28.5035  -16.5260   17.1936 F   0  0  0  0  0  0  0  0  0  0  0  0
  -19.9608   -6.2448   23.5462 F   0  0  0  0  0  0  0  0  0  0  0  0
  1  2  1  0  0  0  0
  1  5  2  0  0  0  0
  2  6  2  0  0  0  0
  3  8  2  0  0  0  0
  3 16  1  0  0  0  0
  4  9  1  0  0  0  0
  4 16  2  0  0  0  0
  5 18  1  0  0  0  0
  6 20  1  0  0  0  0
  7 10  2  0  0  0  0
  7 19  1  0  0  0  0
  8 23  1  0  0  0  0
  9 23  2  0  0  0  0
 10 24  1  0  0  0  0
 11 12  2  0  0  0  0
 11 25  1  0  0  0  0
 12 26  1  0  0  0  0
 13 21  1  0  0  0  0
 13 24  2  0  0  0  0
 14 22  1  0  0  0  0
 14 27  2  0  0  0  0
 15 26  2  0  0  0  0
 15 28  1  0  0  0  0
 16 29  1  0  0  0  0
 17 29  1  0  0  0  0
 17 32  2  0  0  0  0
 17 33  1  0  0  0  0
 18 20  2  0  0  0  0
 18 40  1  0  0  0  0
 19 21  2  0  0  0  0
 19 41  1  0  0  0  0
 20 49  1  0  0  0  0
 21 42  1  0  0  0  0
 22 30  2  0  0  0  0
 22 67  1  0  0  0  0
 23 82  1  0  0  0  0
 24 83  1  0  0  0  0
 25 28  2  0  0  0  0
 25 82  1  0  0  0  0
 26 84  1  0  0  0  0
 27 31  1  0  0  0  0
 27 85  1  0  0  0  0
 28 86  1  0  0  0  0
 29 62  2  0  0  0  0
 30 63  1  0  0  0  0
 30 70  1  0  0  0  0
 31 63  2  0  0  0  0
 31 71  1  0  0  0  0
 32 64  1  0  0  0  0
 32 68  1  0  0  0  0
 33 69  1  0  0  0  0
 33 75  2  0  0  0  0
 34 35  1  0  0  0  0
 34 57  1  0  0  0  0
 34 76  2  0  0  0  0
 35 70  1  0  0  0  0
 35 77  2  0  0  0  0
 36 50  1  0  0  0  0
 36 72  1  0  0  0  0
 36 78  2  0  0  0  0
 37 59  1  0  0  0  0
 37 65  1  0  0  0  0
 37 79  2  0  0  0  0
 38 60  1  0  0  0  0
 38 73  1  0  0  0  0
 38 80  2  0  0  0  0
 39 66  1  0  0  0  0
 39 71  1  0  0  0  0
 39 81  2  0  0  0  0
 40 43  1  0  0  0  0
 41 50  1  0  0  0  0
 42 65  1  0  0  0  0
 43 45  1  0  0  0  0
 44 46  1  0  0  0  0
 44 47  1  0  0  0  0
 45 49  1  0  0  0  0
 46 51  1  0  0  0  0
 47 66  1  0  0  0  0
 48 51  1  0  0  0  0
 48 66  1  0  0  0  0
 49 72  1  0  0  0  0
 50 65  1  0  0  0  0
 51 64  1  0  0  0  0
 52 60  1  0  0  0  0
 53 61  1  0  0  0  0
 54 61  1  0  0  0  0
 55 61  1  0  0  0  0
 56 74  1  0  0  0  0
 57 58  1  0  0  0  0
 58 83  1  0  0  0  0
 59 61  1  0  0  0  0
 59 73  1  0  0  0  0
 60 74  1  0  0  0  0
 62 64  1  0  0  0  0
M  CHG  1  74   1
M  ISO  4  39 100  58 101  71 100  83 101
M  END
> <Batch ID>
0182

> <Smiles>
CNC(C)C(=O)NC(C(=O)N1Cc2cc([101O:1][101CH2:1]CC(=O)C(=O)Nc3nc([100NH:0][100C:0](=O)N4CCCC(n5nc(-c6ccc(Oc7ccc(F)cc7F)cc6)c(C(N)=O)c5N)C4)c(F)cc3N)ccc2CC1C(=O)NC1CCCc2ccccc21)C(C)(C)C

> <Shape>
0.295

> <Color>
0.099

> <Negative vol penalty>
0.000

$$$$

  -OEChem-04052304563D

 88 96  0     1  0  0  0  0  0999 V2000
  -22.1445  -29.0076   23.4914 C   0  0  0  0  0  0  0  0  0  0  0  0
  -22.7540  -27.7571   23.4862 C   0  0  0  0  0  0  0  0  0  0  0  0
  -23.1552  -10.0120   19.9306 C   0  0  0  0  0  0  0  0  0  0  0  0
  -23.7228  -10.0565   22.2785 C   0  0  0  0  0  0  0  0  0  0  0  0
  -22.6000  -30.0074   22.6329 C   0  0  0  0  0  0  0  0  0  0  0  0
  -23.8187  -27.5052   22.6217 C   0  0  0  0  0  0  0  0  0  0  0  0
  -28.6757  -23.9357   23.7051 C   0  0  0  0  0  0  0  0  0  0  0  0
  -22.3604   -8.8859   20.1440 C   0  0  0  0  0  0  0  0  0  0  0  0
  -22.9279   -8.9304   22.4920 C   0  0  0  0  0  0  0  0  0  0  0  0
  -28.9729  -22.6217   23.3459 C   0  0  0  0  0  0  0  0  0  0  0  0
  -19.6394   -8.2348   22.8416 C   0  0  0  0  0  0  0  0  0  0  0  0
  -18.7874   -8.2447   23.9459 C   0  0  0  0  0  0  0  0  0  0  0  0
  -30.2191  -23.4297   21.4450 C   0  0  0  0  0  0  0  0  0  0  0  0
  -28.2430  -15.4702   17.2536 C   0  0  0  0  0  0  0  0  0  0  0  0
  -25.9990  -16.2924   16.8997 C   0  0  0  0  0  0  0  0  0  0  0  0
  -26.7819  -14.3565   15.6846 C   0  0  0  0  0  0  0  0  0  0  0  0
  -19.9073   -6.2939   24.8274 C   0  0  0  0  0  0  0  0  0  0  0  0
  -23.8366  -10.5973   20.9978 C   0  0  0  0  0  0  0  0  0  0  0  0
  -24.2597  -13.1086   20.8489 C   0  0  0  0  0  0  0  0  0  0  0  0
  -23.6770  -29.7706   21.7642 C   0  0  0  0  0  0  0  0  0  0  0  0
  -29.1396  -25.0079   22.9295 C   0  0  0  0  0  0  0  0  0  0  0  0
  -24.2881  -28.5022   21.7498 C   0  0  0  0  0  0  0  0  0  0  0  0
  -29.9285  -24.7564   21.7979 C   0  0  0  0  0  0  0  0  0  0  0  0
  -27.2341  -16.3896   17.5406 C   0  0  0  0  0  0  0  0  0  0  0  0
  -28.0169  -14.4537   16.3256 C   0  0  0  0  0  0  0  0  0  0  0  0
  -22.2466   -8.3451   21.4247 C   0  0  0  0  0  0  0  0  0  0  0  0
  -29.7423  -22.3685   22.2141 C   0  0  0  0  0  0  0  0  0  0  0  0
  -20.6253   -7.2544   22.7301 C   0  0  0  0  0  0  0  0  0  0  0  0
  -18.9214   -7.2743   24.9389 C   0  0  0  0  0  0  0  0  0  0  0  0
  -25.7729  -15.2759   15.9716 C   0  0  0  0  0  0  0  0  0  0  0  0
  -20.7593   -6.2840   23.7230 C   0  0  0  0  0  0  0  0  0  0  0  0
  -24.6583  -11.7603   20.7779 C   0  0  0  0  0  0  0  0  0  0  0  0
  -25.3993  -13.8191   20.5608 C   0  0  0  0  0  0  0  0  0  0  0  0
  -22.9744  -13.6686   21.1485 C   0  0  0  0  0  0  0  0  0  0  0  0
  -28.4850  -18.8653   20.0915 C   0  0  0  0  0  0  0  0  0  0  0  0
  -29.1886  -18.9439   21.2358 C   0  0  0  0  0  0  0  0  0  0  0  0
  -28.6344  -17.6801   19.1821 C   0  0  0  0  0  0  0  0  0  0  0  0
  -27.7563  -27.3282   21.2542 C   0  0  0  0  0  0  0  0  0  0  0  0
  -30.8088  -28.3727   20.9171 C   0  0  0  0  0  0  0  0  0  0  0  0
  -34.1401  -27.6314   20.9064 C   0  0  0  0  0  0  0  0  0  0  0  0
  -30.0396  -13.1138   16.9618 C   0  0  0  0  0  0  0  0  0  0  0  0
  -24.1034  -30.8674   20.8209 C   0  0  0  0  0  0  0  0  0  0  0  0
  -28.8327  -26.4204   23.3455 C   0  0  0  0  0  0  0  0  0  0  0  0
  -30.4678  -25.8730   20.9430 C   0  0  0  0  0  0  0  0  0  0  0  0
  -25.4795  -30.6372   20.2015 C   0  0  0  0  0  0  0  0  0  0  0  0
  -30.2434  -12.8838   20.6495 C   0  0  0  0  0  0  0  0  0  0  0  0
  -25.6039  -29.2037   19.6949 C   0  0  0  0  0  0  0  0  0  0  0  0
  -28.7956  -12.6106   21.0529 C   0  0  0  0  0  0  0  0  0  0  0  0
  -30.5544  -12.3452   19.2563 C   0  0  0  0  0  0  0  0  0  0  0  0
  -28.1749  -12.5788   18.6043 C   0  0  0  0  0  0  0  0  0  0  0  0
  -25.4617  -28.1983   20.8440 C   0  0  1  0  0  0  0  0  0  0  0  0
  -28.9259  -27.4162   22.1934 C   0  0  1  0  0  0  0  0  0  0  0  0
  -27.8252  -13.1474   19.9877 C   0  0  1  0  0  0  0  0  0  0  0  0
  -30.0355  -14.1860   13.8716 C   0  0  0  0  0  0  0  0  0  0  0  0
  -36.3916  -28.6854   20.5639 C   0  0  0  0  0  0  0  0  0  0  0  0
  -30.3323  -28.4054   17.9035 C   0  0  0  0  0  0  0  0  0  0  0  0
  -32.8123  -28.5288   17.5830 C   0  0  0  0  0  0  0  0  0  0  0  0
  -31.6180  -30.3643   18.7777 C   0  0  0  0  0  0  0  0  0  0  0  0
  -35.0035  -26.9557   23.6554 C   0  0  0  0  0  0  0  0  0  0  0  0
  -29.0782  -20.0849   22.2073 C   0  0  0  0  0  0  0  0  0  1  0  0
  -29.2646  -13.1255   14.6314 C   0  0  0  0  0  0  0  0  0  0  0  0
  -31.9181  -28.1300   19.9223 C   0  0  1  0  0  0  0  0  0  0  0  0
  -35.3239  -28.3042   21.5775 C   0  0  2  0  0  0  0  0  0  0  0  0
  -31.6586  -28.8358   18.5614 C   0  0  0  0  0  0  0  0  0  0  0  0
  -25.9501  -11.6200   20.4687 N   0  0  0  0  0  0  0  0  0  0  0  0
  -26.3731  -12.8894   20.3429 N   0  0  0  0  0  0  0  0  0  0  0  0
  -30.1352  -27.2366   21.3875 N   0  0  0  0  0  0  0  0  0  0  0  0
  -29.5872  -12.8164   18.2638 N   0  0  0  0  0  0  0  0  0  0  0  0
  -25.6533  -15.1422   20.4751 N   0  0  0  0  0  0  0  0  0  0  0  0
  -21.9122  -12.7957   21.4211 N   0  0  0  0  0  0  0  0  0  0  0  0
  -27.4632  -17.4221   18.4825 N   0  0  0  0  0  0  0  0  0  0  0  0
  -26.6878  -28.1291   21.6096 N   0  0  0  0  0  0  0  0  0  0  0  0
  -33.1539  -28.5386   20.5812 N   0  0  0  0  0  0  0  0  0  0  0  0
  -29.0602  -13.5029   16.0282 N   0  0  0  0  0  0  0  0  0  0  0  0
  -35.9360  -27.3917   22.5843 N   0  3  0  0  0  0  0  0  0  0  0  0
  -22.7697  -14.9062   21.1578 O   0  0  0  0  0  0  0  0  0  0  0  0
  -29.6941  -17.0671   19.1175 O   0  0  0  0  0  0  0  0  0  0  0  0
  -27.8193  -26.5895   20.2784 O   0  0  0  0  0  0  0  0  0  0  0  0
  -30.5543  -29.5271   21.2694 O   0  0  0  0  0  0  0  0  0  0  0  0
  -34.0963  -26.4226   20.6888 O   0  0  0  0  0  0  0  0  0  0  0  0
  -31.2267  -12.9879   16.6369 O   0  0  0  0  0  0  0  0  0  0  0  0
  -27.6027  -19.8638   19.7234 O   0  0  0  0  0  0  0  0  0  0  0  0
  -30.0834  -17.9538   21.6033 O   0  0  0  0  0  0  0  0  0  0  0  0
  -21.4709   -7.2464   21.6334 O   0  0  0  0  0  0  0  0  0  0  0  0
  -30.0333  -21.0869   21.8609 O   0  0  0  0  0  0  0  0  0  1  0  0
  -18.1041   -7.2849   26.0001 F   0  0  0  0  0  0  0  0  0  0  0  0
  -24.5872  -15.1828   15.3554 F   0  0  0  0  0  0  0  0  0  0  0  0
  -21.7054   -5.3403   23.6220 F   0  0  0  0  0  0  0  0  0  0  0  0
  1  2  1  0  0  0  0
  1  5  2  0  0  0  0
  2  6  2  0  0  0  0
  3  8  2  0  0  0  0
  3 18  1  0  0  0  0
  4  9  1  0  0  0  0
  4 18  2  0  0  0  0
  5 20  1  0  0  0  0
  6 22  1  0  0  0  0
  7 10  2  0  0  0  0
  7 21  1  0  0  0  0
  8 26  1  0  0  0  0
  9 26  2  0  0  0  0
 10 27  1  0  0  0  0
 11 12  2  0  0  0  0
 11 28  1  0  0  0  0
 12 29  1  0  0  0  0
 13 23  1  0  0  0  0
 13 27  2  0  0  0  0
 14 24  1  0  0  0  0
 14 25  2  0  0  0  0
 15 24  2  0  0  0  0
 15 30  1  0  0  0  0
 16 25  1  0  0  0  0
 16 30  2  0  0  0  0
 17 29  2  0  0  0  0
 17 31  1  0  0  0  0
 18 32  1  0  0  0  0
 19 32  1  0  0  0  0
 19 33  2  0  0  0  0
 19 34  1  0  0  0  0
 20 22  2  0  0  0  0
 20 42  1  0  0  0  0
 21 23  2  0  0  0  0
 21 43  1  0  0  0  0
 22 51  1  0  0  0  0
 23 44  1  0  0  0  0
 24 71  1  0  0  0  0
 25 74  1  0  0  0  0
 26 84  1  0  0  0  0
 27 85  1  0  0  0  0
 28 31  2  0  0  0  0
 28 84  1  0  0  0  0
 29 86  1  0  0  0  0
 30 87  1  0  0  0  0
 31 88  1  0  0  0  0
 32 65  2  0  0  0  0
 33 66  1  0  0  0  0
 33 69  1  0  0  0  0
 34 70  1  0  0  0  0
 34 76  2  0  0  0  0
 35 36  2  0  0  0  0
 35 37  1  0  0  0  0
 35 82  1  0  0  0  0
 36 60  1  0  0  0  0
 36 83  1  0  0  0  0
 37 71  1  0  0  0  0
 37 77  2  0  0  0  0
 38 52  1  0  0  0  0
 38 72  1  0  0  0  0
 38 78  2  0  0  0  0
 39 62  1  0  0  0  0
 39 67  1  0  0  0  0
 39 79  2  0  0  0  0
 40 63  1  0  0  0  0
 40 73  1  0  0  0  0
 40 80  2  0  0  0  0
 41 68  1  0  0  0  0
 41 74  1  0  0  0  0
 41 81  2  0  0  0  0
 42 45  1  0  0  0  0
 43 52  1  0  0  0  0
 44 67  1  0  0  0  0
 45 47  1  0  0  0  0
 46 48  1  0  0  0  0
 46 49  1  0  0  0  0
 47 51  1  0  0  0  0
 48 53  1  0  0  0  0
 49 68  1  0  0  0  0
 50 53  1  0  0  0  0
 50 68  1  0  0  0  0
 51 72  1  0  0  0  0
 52 67  1  0  0  0  0
 53 66  1  0  0  0  0
 54 61  1  0  0  0  0
 55 63  1  0  0  0  0
 56 64  1  0  0  0  0
 57 64  1  0  0  0  0
 58 64  1  0  0  0  0
 59 75  1  0  0  0  0
 60 85  1  0  0  0  0
 61 74  1  0  0  0  0
 62 64  1  0  0  0  0
 62 73  1  0  0  0  0
 63 75  1  0  0  0  0
 65 66  1  0  0  0  0
M  CHG  1  75   1
M  ISO  4  41 100  60 101  74 100  85 101
M  END
> <Batch ID>
0182

> <Smiles>
CC[100N:0](c1cc(F)cc(NC(=O)C(=O)C(O)[101CH2:1][101O:1]c2ccc3c(c2)CN(C(=O)C(NC(=O)C(C)NC)C(C)(C)C)C(C(=O)NC2CCCc4ccccc42)C3)c1)[100C:0](=O)N1CCCC(n2nc(-c3ccc(Oc4ccc(F)cc4F)cc3)c(C(N)=O)c2N)C1

> <Shape>
0.281

> <Color>
0.199

> <Negative vol penalty>
0.000

$$$$

  -OEChem-04052304563D

 84 92  0     1  0  0  0  0  0999 V2000
  -16.8133  -29.5591   24.0756 C   0  0  0  0  0  0  0  0  0  0  0  0
  -17.9550  -30.1188   24.6402 C   0  0  0  0  0  0  0  0  0  0  0  0
  -26.3763  -13.4241   21.3415 C   0  0  0  0  0  0  0  0  0  0  0  0
  -25.1291  -14.6045   19.6420 C   0  0  0  0  0  0  0  0  0  0  0  0
  -16.9302  -28.5133   23.1610 C   0  0  0  0  0  0  0  0  0  0  0  0
  -19.2143  -29.6322   24.2913 C   0  0  0  0  0  0  0  0  0  0  0  0
  -25.9788  -31.8020   23.3690 C   0  0  0  0  0  0  0  0  0  0  0  0
  -25.5308  -12.3241   21.1980 C   0  0  0  0  0  0  0  0  0  0  0  0
  -24.2836  -13.5045   19.4985 C   0  0  0  0  0  0  0  0  0  0  0  0
  -27.2753  -31.4881   23.7742 C   0  0  0  0  0  0  0  0  0  0  0  0
  -23.4795   -9.3403   21.5337 C   0  0  0  0  0  0  0  0  0  0  0  0
  -23.0088   -8.7264   22.6944 C   0  0  0  0  0  0  0  0  0  0  0  0
  -27.3594  -29.7310   22.1236 C   0  0  0  0  0  0  0  0  0  0  0  0
  -21.9629  -10.7981   23.3660 C   0  0  0  0  0  0  0  0  0  0  0  0
  -26.1755  -14.5643   20.5635 C   0  0  0  0  0  0  0  0  0  0  0  0
  -28.2425  -15.9532   20.0101 C   0  0  0  0  0  0  0  0  0  0  0  0
  -18.1921  -28.0201   22.7934 C   0  0  0  0  0  0  0  0  0  0  0  0
  -25.3577  -31.0743   22.3436 C   0  0  0  0  0  0  0  0  0  0  0  0
  -19.3482  -28.5779   23.3719 C   0  0  0  0  0  0  0  0  0  0  0  0
  -26.0559  -30.0392   21.7054 C   0  0  0  0  0  0  0  0  0  0  0  0
  -24.4844  -12.3642   20.2765 C   0  0  0  0  0  0  0  0  0  0  0  0
  -27.9648  -30.4506   23.1535 C   0  0  0  0  0  0  0  0  0  0  0  0
  -23.1919  -10.6831   21.2892 C   0  0  0  0  0  0  0  0  0  0  0  0
  -22.2505   -9.4553   23.6105 C   0  0  0  0  0  0  0  0  0  0  0  0
  -22.4336  -11.4120   22.2053 C   0  0  0  0  0  0  0  0  0  0  0  0
  -27.0483  -15.7012   20.7117 C   0  0  0  0  0  0  0  0  0  0  0  0
  -30.0530  -25.4504   19.9405 C   0  0  0  0  0  0  0  0  0  0  0  0
  -30.3802  -24.8259   18.7551 C   0  0  0  0  0  0  0  0  0  0  0  0
  -28.6896  -17.1508   20.5125 C   0  0  0  0  0  0  0  0  0  0  0  0
  -29.1006  -23.5109   20.3159 C   0  0  0  0  0  0  0  0  0  0  0  0
  -28.8896  -15.1746   18.9950 C   0  0  0  0  0  0  0  0  0  0  0  0
  -30.4405  -26.8423   20.2847 C   0  0  0  0  0  0  0  0  0  0  0  0
  -22.7707  -29.2381   22.1458 C   0  0  0  0  0  0  0  0  0  0  0  0
  -23.4928  -29.2336   18.9834 C   0  0  0  0  0  0  0  0  0  0  0  0
  -25.8590  -29.5983   16.5513 C   0  0  0  0  0  0  0  0  0  0  0  0
  -30.2497  -28.5792   22.0302 C   0  0  0  0  0  0  0  0  0  0  0  0
  -27.7733  -22.3952   22.1434 C   0  0  0  0  0  0  0  0  0  0  0  0
  -18.2662  -26.8567   21.8365 C   0  0  0  0  0  0  0  0  0  0  0  0
  -23.9686  -31.4428   21.8999 C   0  0  0  0  0  0  0  0  0  0  0  0
  -25.4415  -29.2409   20.5858 C   0  0  0  0  0  0  0  0  0  0  0  0
  -19.6543  -26.6491   21.2363 C   0  0  0  0  0  0  0  0  0  0  0  0
  -27.1433  -19.8232   24.5236 C   0  0  0  0  0  0  0  0  0  0  0  0
  -20.7218  -26.7177   22.3238 C   0  0  0  0  0  0  0  0  0  0  0  0
  -27.1607  -18.5423   23.6864 C   0  0  0  0  0  0  0  0  0  0  0  0
  -26.5165  -20.9899   23.7623 C   0  0  0  0  0  0  0  0  0  0  0  0
  -27.1132  -19.9692   21.6010 C   0  0  0  0  0  0  0  0  0  0  0  0
  -20.7329  -28.0940   22.9999 C   0  0  1  0  0  0  0  0  0  0  0  0
  -23.2440  -30.3005   21.1945 C   0  0  1  0  0  0  0  0  0  0  0  0
  -27.7943  -18.7824   22.3020 C   0  0  2  0  0  0  0  0  0  0  0  0
  -31.1416  -25.3237   17.5914 C   0  0  0  0  0  0  0  0  0  0  0  0
  -26.1563  -29.4995   14.0615 C   0  0  0  0  0  0  0  0  0  0  0  0
  -30.6480  -28.4756   24.5065 C   0  0  0  0  0  0  0  0  0  0  0  0
  -23.4118  -26.1856   19.0971 C   0  0  0  0  0  0  0  0  0  0  0  0
  -24.6188  -26.1412   16.9040 C   0  0  0  0  0  0  0  0  0  0  0  0
  -22.3571  -27.1819   17.0600 C   0  0  0  0  0  0  0  0  0  0  0  0
  -26.7058  -32.4312   16.4235 C   0  0  0  0  0  0  0  0  0  0  0  0
  -24.3413  -28.3699   18.0817 C   0  0  1  0  0  0  0  0  0  0  0  0
  -25.8592  -30.3914   15.2569 C   0  0  2  0  0  0  0  0  0  0  0  0
  -29.6393  -28.7815   23.4106 C   0  0  1  0  0  0  0  0  0  1  0  0
  -23.6934  -26.9832   17.8081 C   0  0  0  0  0  0  0  0  0  0  0  0
  -26.7554  -16.6613   21.5928 N   0  0  0  0  0  0  0  0  0  0  0  0
  -29.3190  -24.6981   20.8365 N   0  0  0  0  0  0  0  0  0  0  0  0
  -27.7720  -17.5283   21.4483 N   0  0  0  0  0  0  0  0  0  0  0  0
  -24.0787  -29.6351   20.1922 N   0  0  0  0  0  0  0  0  0  0  0  0
  -27.1699  -21.1604   22.4627 N   0  0  0  0  0  0  0  0  0  0  0  0
  -29.7743  -17.9071   20.2408 N   0  0  0  0  0  0  0  0  0  0  0  0
  -28.2946  -13.9700   18.5960 N   0  0  0  0  0  0  0  0  0  0  0  0
  -28.3917  -22.4287   20.8940 N   0  0  0  0  0  0  0  0  0  0  0  0
  -30.0152  -27.2963   21.5320 N   0  0  0  0  0  0  0  0  0  0  0  0
  -21.3998  -29.0648   22.1589 N   0  0  0  0  0  0  0  0  0  0  0  0
  -24.5943  -29.1587   16.8808 N   0  0  0  0  0  0  0  0  0  0  0  0
  -26.8896  -31.4668   15.3085 N   0  3  0  0  0  0  0  0  0  0  0  0
  -29.9723  -15.5282   18.4693 O   0  0  0  0  0  0  0  0  0  0  0  0
  -31.0721  -27.5065   19.4675 O   0  0  0  0  0  0  0  0  0  0  0  0
  -23.5888  -28.6202   22.8170 O   0  0  0  0  0  0  0  0  0  0  0  0
  -22.3547  -29.5466   18.6250 O   0  0  0  0  0  0  0  0  0  0  0  0
  -26.8794  -29.3865   17.2029 O   0  0  0  0  0  0  0  0  0  0  0  0
  -30.8566  -29.4704   21.4408 O   0  0  0  0  0  0  0  0  0  0  0  0
  -27.7671  -23.3437   22.9322 O   0  0  0  0  0  0  0  0  0  0  0  0
  -23.6593  -11.2910   20.1360 O   0  0  0  0  0  0  0  0  0  0  0  0
  -29.2301  -30.1417   23.5476 O   0  0  0  0  0  0  0  0  0  1  0  0
  -21.7973   -8.8652   24.7244 F   0  0  0  0  0  0  0  0  0  0  0  0
  -22.1531  -12.7021   21.9753 F   0  0  0  0  0  0  0  0  0  0  0  0
  -29.7499  -23.2309   18.7522 S   0  0  0  0  0  0  0  0  0  0  0  0
  1  2  1  0  0  0  0
  1  5  2  0  0  0  0
  2  6  2  0  0  0  0
  3  8  2  0  0  0  0
  3 15  1  0  0  0  0
  4  9  1  0  0  0  0
  4 15  2  0  0  0  0
  5 17  1  0  0  0  0
  6 19  1  0  0  0  0
  7 10  2  0  0  0  0
  7 18  1  0  0  0  0
  8 21  1  0  0  0  0
  9 21  2  0  0  0  0
 10 22  1  0  0  0  0
 11 12  2  0  0  0  0
 11 23  1  0  0  0  0
 12 24  1  0  0  0  0
 13 20  1  0  0  0  0
 13 22  2  0  0  0  0
 14 24  2  0  0  0  0
 14 25  1  0  0  0  0
 15 26  1  0  0  0  0
 16 26  1  0  0  0  0
 16 29  2  0  0  0  0
 16 31  1  0  0  0  0
 17 19  2  0  0  0  0
 17 38  1  0  0  0  0
 18 20  2  0  0  0  0
 18 39  1  0  0  0  0
 19 47  1  0  0  0  0
 20 40  1  0  0  0  0
 21 80  1  0  0  0  0
 22 81  1  0  0  0  0
 23 25  2  0  0  0  0
 23 80  1  0  0  0  0
 24 82  1  0  0  0  0
 25 83  1  0  0  0  0
 26 61  2  0  0  0  0
 27 28  2  0  0  0  0
 27 32  1  0  0  0  0
 27 62  1  0  0  0  0
 28 50  1  0  0  0  0
 28 84  1  0  0  0  0
 29 63  1  0  0  0  0
 29 66  1  0  0  0  0
 30 62  2  0  0  0  0
 30 68  1  0  0  0  0
 30 84  1  0  0  0  0
 31 67  1  0  0  0  0
 31 73  2  0  0  0  0
 32 69  1  0  0  0  0
 32 74  2  0  0  0  0
 33 48  1  0  0  0  0
 33 70  1  0  0  0  0
 33 75  2  0  0  0  0
 34 57  1  0  0  0  0
 34 64  1  0  0  0  0
 34 76  2  0  0  0  0
 35 58  1  0  0  0  0
 35 71  1  0  0  0  0
 35 77  2  0  0  0  0
 36 59  1  0  0  0  0
 36 69  1  0  0  0  0
 36 78  2  0  0  0  0
 37 65  1  0  0  0  0
 37 68  1  0  0  0  0
 37 79  2  0  0  0  0
 38 41  1  0  0  0  0
 39 48  1  0  0  0  0
 40 64  1  0  0  0  0
 41 43  1  0  0  0  0
 42 44  1  0  0  0  0
 42 45  1  0  0  0  0
 43 47  1  0  0  0  0
 44 49  1  0  0  0  0
 45 65  1  0  0  0  0
 46 49  1  0  0  0  0
 46 65  1  0  0  0  0
 47 70  1  0  0  0  0
 48 64  1  0  0  0  0
 49 63  1  0  0  0  0
 51 58  1  0  0  0  0
 52 59  1  0  0  0  0
 53 60  1  0  0  0  0
 54 60  1  0  0  0  0
 55 60  1  0  0  0  0
 56 72  1  0  0  0  0
 57 60  1  0  0  0  0
 57 71  1  0  0  0  0
 58 72  1  0  0  0  0
 59 81  1  0  0  0  0
 61 63  1  0  0  0  0
M  CHG  1  72   1
M  ISO  4  37 100  59 101  68 100  81 101
M  END
> <Batch ID>
0182

> <Smiles>
CNC(C)C(=O)NC(C(=O)N1Cc2cc([101O:1][101CH:1](C)C(=O)NC(=O)c3nc([100NH:0][100C:0](=O)N4CCCC(n5nc(-c6ccc(Oc7ccc(F)cc7F)cc6)c(C(N)=O)c5N)C4)sc3C)ccc2CC1C(=O)NC1CCCc2ccccc21)C(C)(C)C

> <Shape>
0.320

> <Color>
0.104

> <Negative vol penalty>
0.000

$$$$

  -OEChem-04052304563D

 82 90  0     1  0  0  0  0  0999 V2000
  -23.8775   -8.2839   22.9039 C   0  0  0  0  0  0  0  0  0  0  0  0
  -24.6644   -9.3840   22.5782 C   0  0  0  0  0  0  0  0  0  0  0  0
  -24.0980  -30.3865   21.2139 C   0  0  0  0  0  0  0  0  0  0  0  0
  -25.4972  -29.8639   23.1129 C   0  0  0  0  0  0  0  0  0  0  0  0
  -22.5203   -8.2801   22.5847 C   0  0  0  0  0  0  0  0  0  0  0  0
  -24.0946  -10.4805   21.9320 C   0  0  0  0  0  0  0  0  0  0  0  0
  -25.5604  -14.8939   23.9365 C   0  0  0  0  0  0  0  0  0  0  0  0
  -23.4859  -31.4045   21.9451 C   0  0  0  0  0  0  0  0  0  0  0  0
  -24.8851  -30.8820   23.8441 C   0  0  0  0  0  0  0  0  0  0  0  0
  -26.8288  -15.3595   23.5926 C   0  0  0  0  0  0  0  0  0  0  0  0
  -23.9415  -33.5795   26.0916 C   0  0  0  0  0  0  0  0  0  0  0  0
  -24.7618  -34.4298   26.8329 C   0  0  0  0  0  0  0  0  0  0  0  0
  -25.8371  -16.8471   21.9731 C   0  0  0  0  0  0  0  0  0  0  0  0
  -25.8956  -35.1013   24.8079 C   0  0  0  0  0  0  0  0  0  0  0  0
  -31.0254  -22.1851   19.9521 C   0  0  0  0  0  0  0  0  0  0  0  0
  -25.1036  -29.6162   21.7979 C   0  0  0  0  0  0  0  0  0  0  0  0
  -26.8799  -28.6707   20.2300 C   0  0  0  0  0  0  0  0  0  0  0  0
  -21.9316   -9.3811   21.9430 C   0  0  0  0  0  0  0  0  0  0  0  0
  -24.4197  -15.3945   23.2925 C   0  0  0  0  0  0  0  0  0  0  0  0
  -22.7286  -10.4908   21.6027 C   0  0  0  0  0  0  0  0  0  0  0  0
  -24.5552  -16.3881   22.3125 C   0  0  0  0  0  0  0  0  0  0  0  0
  -23.8794  -31.6523   23.2601 C   0  0  0  0  0  0  0  0  0  0  0  0
  -26.9675  -16.3341   22.6087 C   0  0  0  0  0  0  0  0  0  0  0  0
  -24.0982  -33.4899   24.7084 C   0  0  0  0  0  0  0  0  0  0  0  0
  -25.7388  -35.1908   26.1910 C   0  0  0  0  0  0  0  0  0  0  0  0
  -25.0753  -34.2509   24.0666 C   0  0  0  0  0  0  0  0  0  0  0  0
  -25.7359  -28.5640   21.0433 C   0  0  0  0  0  0  0  0  0  0  0  0
  -29.7653  -21.6294   20.0261 C   0  0  0  0  0  0  0  0  0  0  0  0
  -27.0724  -27.4021   19.7401 C   0  0  0  0  0  0  0  0  0  0  0  0
  -30.8874  -19.8292   19.4690 C   0  0  0  0  0  0  0  0  0  0  0  0
  -27.6958  -29.8143   19.9430 C   0  0  0  0  0  0  0  0  0  0  0  0
  -22.1357  -14.1357   21.4753 C   0  0  0  0  0  0  0  0  0  0  0  0
  -29.8263  -17.0207   20.4866 C   0  0  0  0  0  0  0  0  0  0  0  0
  -20.8437  -17.1007   21.7244 C   0  0  0  0  0  0  0  0  0  0  0  0
  -21.3242  -20.4326   22.2848 C   0  0  0  0  0  0  0  0  0  0  0  0
  -27.2967  -21.8852   20.4585 C   0  0  0  0  0  0  0  0  0  0  0  0
  -20.4705   -9.3113   21.5757 C   0  0  0  0  0  0  0  0  0  0  0  0
  -23.0566  -14.9012   23.6938 C   0  0  0  0  0  0  0  0  0  0  0  0
  -23.3606  -16.9727   21.6055 C   0  0  0  0  0  0  0  0  0  0  0  0
  -19.8647  -10.6683   21.2268 C   0  0  0  0  0  0  0  0  0  0  0  0
  -24.0851  -23.3190   19.9048 C   0  0  0  0  0  0  0  0  0  0  0  0
  -20.7799  -11.4329   20.2757 C   0  0  0  0  0  0  0  0  0  0  0  0
  -24.3224  -24.8202   20.0848 C   0  0  0  0  0  0  0  0  0  0  0  0
  -24.9237  -22.4917   20.8775 C   0  0  0  0  0  0  0  0  0  0  0  0
  -26.5990  -24.2901   21.0456 C   0  0  0  0  0  0  0  0  0  0  0  0
  -22.1419  -11.7094   20.9239 C   0  0  1  0  0  0  0  0  0  0  0  0
  -22.0027  -15.1106   22.6109 C   0  0  1  0  0  0  0  0  0  0  0  0
  -25.8247  -25.1622   20.0438 C   0  0  2  0  0  0  0  0  0  0  0  0
  -30.7077  -16.3101   18.2537 C   0  0  0  0  0  0  0  0  0  0  0  0
  -20.0844  -22.6121   22.3857 C   0  0  0  0  0  0  0  0  0  0  0  0
  -20.7037  -17.1593   18.6770 C   0  0  0  0  0  0  0  0  0  0  0  0
  -20.3741  -19.6376   18.8093 C   0  0  0  0  0  0  0  0  0  0  0  0
  -18.6955  -18.1015   19.8319 C   0  0  0  0  0  0  0  0  0  0  0  0
  -22.0620  -20.8541   25.1198 C   0  0  0  0  0  0  0  0  0  0  0  0
  -28.3890  -17.2309   20.9262 C   0  0  0  0  0  0  0  0  0  1  0  0
  -30.1726  -17.4715   19.0744 C   0  0  2  0  0  0  0  0  0  0  0  0
  -20.9521  -18.3837   20.9364 C   0  0  1  0  0  0  0  0  0  0  0  0
  -20.5949  -21.4191   23.1788 C   0  0  2  0  0  0  0  0  0  0  0  0
  -20.2042  -18.3084   19.5754 C   0  0  0  0  0  0  0  0  0  0  0  0
  -25.2365  -27.3255   21.0710 N   0  0  0  0  0  0  0  0  0  0  0  0
  -29.6842  -20.2787   19.7490 N   0  0  0  0  0  0  0  0  0  0  0  0
  -26.0707  -26.6423   20.2689 N   0  0  0  0  0  0  0  0  0  0  0  0
  -22.0496  -16.4533   22.0286 N   0  0  0  0  0  0  0  0  0  0  0  0
  -26.3359  -22.8671   20.7799 N   0  0  0  0  0  0  0  0  0  0  0  0
  -27.9990  -26.8735   18.9128 N   0  0  0  0  0  0  0  0  0  0  0  0
  -27.3566  -31.0411   20.5296 N   0  0  0  0  0  0  0  0  0  0  0  0
  -28.6022  -22.3658   20.3615 N   0  0  0  0  0  0  0  0  0  0  0  0
  -31.1725  -18.5143   19.1436 N   0  0  0  0  0  0  0  0  0  0  0  0
  -22.0431  -12.8109   21.8573 N   0  0  0  0  0  0  0  0  0  0  0  0
  -20.4814  -19.4458   21.8189 N   0  0  0  0  0  0  0  0  0  0  0  0
  -21.5045  -21.9199   24.2478 N   0  3  0  0  0  0  0  0  0  0  0  0
  -28.6863  -29.7536   19.1757 O   0  0  0  0  0  0  0  0  0  0  0  0
  -22.3080  -14.5544   20.3366 O   0  0  0  0  0  0  0  0  0  0  0  0
  -30.6579  -16.5042   21.2336 O   0  0  0  0  0  0  0  0  0  0  0  0
  -19.7306  -16.6917   22.0639 O   0  0  0  0  0  0  0  0  0  0  0  0
  -22.5210  -20.5300   22.0227 O   0  0  0  0  0  0  0  0  0  0  0  0
  -26.9808  -20.7100   20.2556 O   0  0  0  0  0  0  0  0  0  0  0  0
  -23.2825  -32.6458   23.9738 O   0  0  0  0  0  0  0  0  0  0  0  0
  -28.2044  -16.7898   22.2707 O   0  0  0  0  0  0  0  0  0  1  0  0
  -26.5255  -36.0085   26.9028 F   0  0  0  0  0  0  0  0  0  0  0  0
  -25.2298  -34.1700   22.7379 F   0  0  0  0  0  0  0  0  0  0  0  0
  -32.1629  -20.9762   19.5207 S   0  0  0  0  0  0  0  0  0  0  0  0
  1  2  1  0  0  0  0
  1  5  2  0  0  0  0
  2  6  2  0  0  0  0
  3  8  2  0  0  0  0
  3 16  1  0  0  0  0
  4  9  1  0  0  0  0
  4 16  2  0  0  0  0
  5 18  1  0  0  0  0
  6 20  1  0  0  0  0
  7 10  2  0  0  0  0
  7 19  1  0  0  0  0
  8 22  1  0  0  0  0
  9 22  2  0  0  0  0
 10 23  1  0  0  0  0
 11 12  2  0  0  0  0
 11 24  1  0  0  0  0
 12 25  1  0  0  0  0
 13 21  1  0  0  0  0
 13 23  2  0  0  0  0
 14 25  2  0  0  0  0
 14 26  1  0  0  0  0
 15 28  2  0  0  0  0
 15 82  1  0  0  0  0
 16 27  1  0  0  0  0
 17 27  1  0  0  0  0
 17 29  2  0  0  0  0
 17 31  1  0  0  0  0
 18 20  2  0  0  0  0
 18 37  1  0  0  0  0
 19 21  2  0  0  0  0
 19 38  1  0  0  0  0
 20 46  1  0  0  0  0
 21 39  1  0  0  0  0
 22 78  1  0  0  0  0
 23 79  1  0  0  0  0
 24 26  2  0  0  0  0
 24 78  1  0  0  0  0
 25 80  1  0  0  0  0
 26 81  1  0  0  0  0
 27 60  2  0  0  0  0
 28 61  1  0  0  0  0
 28 67  1  0  0  0  0
 29 62  1  0  0  0  0
 29 65  1  0  0  0  0
 30 61  2  0  0  0  0
 30 68  1  0  0  0  0
 30 82  1  0  0  0  0
 31 66  1  0  0  0  0
 31 72  2  0  0  0  0
 32 47  1  0  0  0  0
 32 69  1  0  0  0  0
 32 73  2  0  0  0  0
 33 55  1  0  0  0  0
 33 56  1  0  0  0  0
 33 74  2  0  0  0  0
 34 57  1  0  0  0  0
 34 63  1  0  0  0  0
 34 75  2  0  0  0  0
 35 58  1  0  0  0  0
 35 70  1  0  0  0  0
 35 76  2  0  0  0  0
 36 64  1  0  0  0  0
 36 67  1  0  0  0  0
 36 77  2  0  0  0  0
 37 40  1  0  0  0  0
 38 47  1  0  0  0  0
 39 63  1  0  0  0  0
 40 42  1  0  0  0  0
 41 43  1  0  0  0  0
 41 44  1  0  0  0  0
 42 46  1  0  0  0  0
 43 48  1  0  0  0  0
 44 64  1  0  0  0  0
 45 48  1  0  0  0  0
 45 64  1  0  0  0  0
 46 69  1  0  0  0  0
 47 63  1  0  0  0  0
 48 62  1  0  0  0  0
 49 56  1  0  0  0  0
 50 58  1  0  0  0  0
 51 59  1  0  0  0  0
 52 59  1  0  0  0  0
 53 59  1  0  0  0  0
 54 71  1  0  0  0  0
 55 79  1  0  0  0  0
 56 68  1  0  0  0  0
 57 59  1  0  0  0  0
 57 70  1  0  0  0  0
 58 71  1  0  0  0  0
 60 62  1  0  0  0  0
M  CHG  1  71   1
M  ISO  4  36 100  55 101  67 100  79 101
M  END
> <Batch ID>
0182

> <Smiles>
CNC(C)C(=O)NC(C(=O)N1Cc2cc([101O:1][101CH2:1]C(=O)C(C)Nc3nc([100NH:0][100C:0](=O)N4CCCC(n5nc(-c6ccc(Oc7ccc(F)cc7F)cc6)c(C(N)=O)c5N)C4)cs3)ccc2CC1C(=O)NC1CCCc2ccccc21)C(C)(C)C

> <Shape>
0.196

> <Color>
0.091

> <Negative vol penalty>
0.000

$$$$

  -OEChem-04052304563D

 85 93  0     1  0  0  0  0  0999 V2000
  -19.4874  -24.3675   22.5463 C   0  0  0  0  0  0  0  0  0  0  0  0
  -20.4487  -24.7368   21.6109 C   0  0  0  0  0  0  0  0  0  0  0  0
  -25.1703  -15.0615   20.6963 C   0  0  0  0  0  0  0  0  0  0  0  0
  -27.5632  -14.7316   20.7459 C   0  0  0  0  0  0  0  0  0  0  0  0
  -18.7546  -25.3472   23.2150 C   0  0  0  0  0  0  0  0  0  0  0  0
  -20.6771  -26.0860   21.3429 C   0  0  0  0  0  0  0  0  0  0  0  0
  -25.6087  -27.2174   21.1324 C   0  0  0  0  0  0  0  0  0  0  0  0
  -24.9833  -13.6854   20.5656 C   0  0  0  0  0  0  0  0  0  0  0  0
  -27.3762  -13.3555   20.6152 C   0  0  0  0  0  0  0  0  0  0  0  0
  -26.2906  -26.8776   19.9648 C   0  0  0  0  0  0  0  0  0  0  0  0
  -25.0191  -10.9649   22.5731 C   0  0  0  0  0  0  0  0  0  0  0  0
  -24.0399  -10.3656   23.3653 C   0  0  0  0  0  0  0  0  0  0  0  0
  -26.1129  -29.1598   19.2039 C   0  0  0  0  0  0  0  0  0  0  0  0
  -22.8839   -9.6260   21.3768 C   0  0  0  0  0  0  0  0  0  0  0  0
  -26.4603  -15.5846   20.7864 C   0  0  0  0  0  0  0  0  0  0  0  0
  -26.7313  -17.7440   22.1173 C   0  0  0  0  0  0  0  0  0  0  0  0
  -18.9808  -26.7094   22.9621 C   0  0  0  0  0  0  0  0  0  0  0  0
  -25.1634  -28.5309   21.3399 C   0  0  0  0  0  0  0  0  0  0  0  0
  -19.9457  -27.0848   22.0079 C   0  0  0  0  0  0  0  0  0  0  0  0
  -25.4278  -29.5143   20.3761 C   0  0  0  0  0  0  0  0  0  0  0  0
  -26.0863  -12.8324   20.5250 C   0  0  0  0  0  0  0  0  0  0  0  0
  -26.5403  -27.8482   18.9991 C   0  0  0  0  0  0  0  0  0  0  0  0
  -24.9307  -10.8948   21.1828 C   0  0  0  0  0  0  0  0  0  0  0  0
  -22.9723   -9.6962   22.7671 C   0  0  0  0  0  0  0  0  0  0  0  0
  -23.8632  -10.2254   20.5846 C   0  0  0  0  0  0  0  0  0  0  0  0
  -26.6541  -17.0060   20.9209 C   0  0  0  0  0  0  0  0  0  0  0  0
  -31.2245  -23.9832   21.5569 C   0  0  0  0  0  0  0  0  0  0  0  0
  -30.6923  -23.9809   20.2846 C   0  0  0  0  0  0  0  0  0  0  0  0
  -26.9195  -19.0417   21.7086 C   0  0  0  0  0  0  0  0  0  0  0  0
  -31.5726  -25.9896   20.2702 C   0  0  0  0  0  0  0  0  0  0  0  0
  -26.6410  -17.2965   23.4764 C   0  0  0  0  0  0  0  0  0  0  0  0
  -22.3217  -29.9008   21.7292 C   0  0  0  0  0  0  0  0  0  0  0  0
  -30.1826  -28.2301   18.5083 C   0  0  0  0  0  0  0  0  0  0  0  0
  -24.1096  -32.5470   22.2980 C   0  0  0  0  0  0  0  0  0  0  0  0
  -27.0649  -34.1962   21.8587 C   0  0  0  0  0  0  0  0  0  0  0  0
  -29.4127  -22.8114   18.4566 C   0  0  0  0  0  0  0  0  0  0  0  0
  -18.1309  -27.7310   23.6753 C   0  0  0  0  0  0  0  0  0  0  0  0
  -24.4526  -28.8872   22.6167 C   0  0  0  0  0  0  0  0  0  0  0  0
  -24.9886  -30.9432   20.5600 C   0  0  0  0  0  0  0  0  0  0  0  0
  -18.6956  -29.1476   23.6070 C   0  0  0  0  0  0  0  0  0  0  0  0
  -26.5782  -21.1294   17.1100 C   0  0  0  0  0  0  0  0  0  0  0  0
  -19.1278  -29.4819   22.1828 C   0  0  0  0  0  0  0  0  0  0  0  0
  -26.3516  -19.9674   18.0798 C   0  0  0  0  0  0  0  0  0  0  0  0
  -28.0648  -21.4151   16.9047 C   0  0  0  0  0  0  0  0  0  0  0  0
  -28.6074  -20.4573   19.1087 C   0  0  0  0  0  0  0  0  0  0  0  0
  -20.2396  -28.5387   21.7079 C   0  0  1  0  0  0  0  0  0  0  0  0
  -23.5935  -30.1417   22.4922 C   0  0  1  0  0  0  0  0  0  0  0  0
  -27.1241  -20.1743   19.3974 C   0  0  2  0  0  0  0  0  0  0  0  0
  -31.2017  -22.9415   22.6044 C   0  0  0  0  0  0  0  0  0  0  0  0
  -32.5679  -28.9292   18.2053 C   0  0  0  0  0  0  0  0  0  0  0  0
  -28.2157  -36.3572   22.4093 C   0  0  0  0  0  0  0  0  0  0  0  0
  -27.4281  -28.8201   15.8601 C   0  0  0  0  0  0  0  0  0  0  0  0
  -22.4648  -33.9660   20.1553 C   0  0  0  0  0  0  0  0  0  0  0  0
  -24.2278  -35.7420   20.0770 C   0  0  0  0  0  0  0  0  0  0  0  0
  -22.9503  -35.3472   22.1829 C   0  0  0  0  0  0  0  0  0  0  0  0
  -29.1965  -32.8095   23.3728 C   0  0  0  0  0  0  0  0  0  0  0  0
  -29.4523  -28.0911   17.1764 C   0  0  0  0  0  0  0  0  0  0  0  0
  -31.6358  -27.7727   18.5260 C   0  0  1  0  0  0  0  0  0  0  0  0
  -24.6791  -33.6558   21.4463 C   0  0  1  0  0  0  0  0  0  0  0  0
  -27.9704  -34.9192   22.8394 C   0  0  2  0  0  0  0  0  0  0  0  0
  -27.9918  -28.5408   17.2471 C   0  0  2  0  0  0  0  0  0  1  0  0
  -23.5872  -34.6505   20.9607 C   0  0  0  0  0  0  0  0  0  0  0  0
  -26.7826  -17.7713   19.8338 N   0  0  0  0  0  0  0  0  0  0  0  0
  -30.8905  -25.1307   19.5454 N   0  0  0  0  0  0  0  0  0  0  0  0
  -26.9424  -19.0037   20.3455 N   0  0  0  0  0  0  0  0  0  0  0  0
  -24.2917  -31.2407   21.8222 N   0  0  0  0  0  0  0  0  0  0  0  0
  -28.7305  -21.6044   18.1954 N   0  0  0  0  0  0  0  0  0  0  0  0
  -27.0659  -20.2003   22.3859 N   0  0  0  0  0  0  0  0  0  0  0  0
  -26.4468  -15.9297   23.7183 N   0  0  0  0  0  0  0  0  0  0  0  0
  -29.9787  -22.8903   19.7287 N   0  0  0  0  0  0  0  0  0  0  0  0
  -31.9493  -27.2493   19.8376 N   0  0  0  0  0  0  0  0  0  0  0  0
  -21.5108  -28.9271   22.2804 N   0  0  0  0  0  0  0  0  0  0  0  0
  -25.7406  -34.2720   22.2349 N   0  0  0  0  0  0  0  0  0  0  0  0
  -29.2865  -34.2268   22.9366 N   0  3  0  0  0  0  0  0  0  0  0  0
  -26.7134  -18.0875   24.4472 O   0  0  0  0  0  0  0  0  0  0  0  0
  -22.0923  -30.5513   20.7164 O   0  0  0  0  0  0  0  0  0  0  0  0
  -29.6380  -28.7016   19.5069 O   0  0  0  0  0  0  0  0  0  0  0  0
  -23.5309  -32.8291   23.3502 O   0  0  0  0  0  0  0  0  0  0  0  0
  -27.4896  -33.6246   20.8569 O   0  0  0  0  0  0  0  0  0  0  0  0
  -29.4661  -23.7200   17.6238 O   0  0  0  0  0  0  0  0  0  0  0  0
  -25.9042  -11.4896   20.3977 O   0  0  0  0  0  0  0  0  0  0  0  0
  -27.2051  -27.5190   17.8582 O   0  0  0  0  0  0  0  0  0  1  0  0
  -22.0328   -9.1194   23.5280 F   0  0  0  0  0  0  0  0  0  0  0  0
  -23.7735  -10.1537   19.2495 F   0  0  0  0  0  0  0  0  0  0  0  0
  -32.0089  -25.4800   21.8497 S   0  0  0  0  0  0  0  0  0  0  0  0
  1  2  1  0  0  0  0
  1  5  2  0  0  0  0
  2  6  2  0  0  0  0
  3  8  2  0  0  0  0
  3 15  1  0  0  0  0
  4  9  1  0  0  0  0
  4 15  2  0  0  0  0
  5 17  1  0  0  0  0
  6 19  1  0  0  0  0
  7 10  2  0  0  0  0
  7 18  1  0  0  0  0
  8 21  1  0  0  0  0
  9 21  2  0  0  0  0
 10 22  1  0  0  0  0
 11 12  2  0  0  0  0
 11 23  1  0  0  0  0
 12 24  1  0  0  0  0
 13 20  1  0  0  0  0
 13 22  2  0  0  0  0
 14 24  2  0  0  0  0
 14 25  1  0  0  0  0
 15 26  1  0  0  0  0
 16 26  1  0  0  0  0
 16 29  2  0  0  0  0
 16 31  1  0  0  0  0
 17 19  2  0  0  0  0
 17 37  1  0  0  0  0
 18 20  2  0  0  0  0
 18 38  1  0  0  0  0
 19 46  1  0  0  0  0
 20 39  1  0  0  0  0
 21 81  1  0  0  0  0
 22 82  1  0  0  0  0
 23 25  2  0  0  0  0
 23 81  1  0  0  0  0
 24 83  1  0  0  0  0
 25 84  1  0  0  0  0
 26 63  2  0  0  0  0
 27 28  2  0  0  0  0
 27 49  1  0  0  0  0
 27 85  1  0  0  0  0
 28 64  1  0  0  0  0
 28 70  1  0  0  0  0
 29 65  1  0  0  0  0
 29 68  1  0  0  0  0
 30 64  2  0  0  0  0
 30 71  1  0  0  0  0
 30 85  1  0  0  0  0
 31 69  1  0  0  0  0
 31 75  2  0  0  0  0
 32 47  1  0  0  0  0
 32 72  1  0  0  0  0
 32 76  2  0  0  0  0
 33 57  1  0  0  0  0
 33 58  1  0  0  0  0
 33 77  2  0  0  0  0
 34 59  1  0  0  0  0
 34 66  1  0  0  0  0
 34 78  2  0  0  0  0
 35 60  1  0  0  0  0
 35 73  1  0  0  0  0
 35 79  2  0  0  0  0
 36 67  1  0  0  0  0
 36 70  1  0  0  0  0
 36 80  2  0  0  0  0
 37 40  1  0  0  0  0
 38 47  1  0  0  0  0
 39 66  1  0  0  0  0
 40 42  1  0  0  0  0
 41 43  1  0  0  0  0
 41 44  1  0  0  0  0
 42 46  1  0  0  0  0
 43 48  1  0  0  0  0
 44 67  1  0  0  0  0
 45 48  1  0  0  0  0
 45 67  1  0  0  0  0
 46 72  1  0  0  0  0
 47 66  1  0  0  0  0
 48 65  1  0  0  0  0
 50 58  1  0  0  0  0
 51 60  1  0  0  0  0
 52 61  1  0  0  0  0
 53 62  1  0  0  0  0
 54 62  1  0  0  0  0
 55 62  1  0  0  0  0
 56 74  1  0  0  0  0
 57 61  1  0  0  0  0
 58 71  1  0  0  0  0
 59 62  1  0  0  0  0
 59 73  1  0  0  0  0
 60 74  1  0  0  0  0
 61 82  1  0  0  0  0
 63 65  1  0  0  0  0
M  CHG  1  74   1
M  ISO  4  36 100  61 101  70 100  82 101
M  END
> <Batch ID>
0182

> <Smiles>
CNC(C)C(=O)NC(C(=O)N1Cc2cc([101O:1][101CH:1](C)CC(=O)C(C)Nc3nc([100NH:0][100C:0](=O)N4CCCC(n5nc(-c6ccc(Oc7ccc(F)cc7F)cc6)c(C(N)=O)c5N)C4)c(C)s3)ccc2CC1C(=O)NC1CCCc2ccccc21)C(C)(C)C

> <Shape>
0.260

> <Color>
0.116

> <Negative vol penalty>
0.000

$$$$

  -OEChem-04052304563D

 83 91  0     1  0  0  0  0  0999 V2000
  -24.7629   -5.8332   22.6042 C   0  0  0  0  0  0  0  0  0  0  0  0
  -25.8865   -6.6501   22.6794 C   0  0  0  0  0  0  0  0  0  0  0  0
  -25.2178  -31.5373   21.4821 C   0  0  0  0  0  0  0  0  0  0  0  0
  -27.6055  -31.4266   21.1304 C   0  0  0  0  0  0  0  0  0  0  0  0
  -23.6006   -6.3027   21.9939 C   0  0  0  0  0  0  0  0  0  0  0  0
  -25.8487   -7.9368   22.1433 C   0  0  0  0  0  0  0  0  0  0  0  0
  -28.6891  -12.9118   24.3083 C   0  0  0  0  0  0  0  0  0  0  0  0
  -25.3361  -32.8735   21.8646 C   0  0  0  0  0  0  0  0  0  0  0  0
  -27.7238  -32.7628   21.5129 C   0  0  0  0  0  0  0  0  0  0  0  0
  -29.8801  -13.5422   23.9504 C   0  0  0  0  0  0  0  0  0  0  0  0
  -26.2729  -34.6035   24.6130 C   0  0  0  0  0  0  0  0  0  0  0  0
  -25.5760  -35.0158   25.7487 C   0  0  0  0  0  0  0  0  0  0  0  0
  -28.6429  -15.0767   22.5598 C   0  0  0  0  0  0  0  0  0  0  0  0
  -24.3584  -36.6232   24.4180 C   0  0  0  0  0  0  0  0  0  0  0  0
  -26.3526  -30.8139   21.1150 C   0  0  0  0  0  0  0  0  0  0  0  0
  -26.0169  -28.9366   19.4207 C   0  0  0  0  0  0  0  0  0  0  0  0
  -23.5454   -7.5993   21.4587 C   0  0  0  0  0  0  0  0  0  0  0  0
  -27.4652  -13.3530   23.7851 C   0  0  0  0  0  0  0  0  0  0  0  0
  -24.6849   -8.4237   21.5241 C   0  0  0  0  0  0  0  0  0  0  0  0
  -27.4376  -14.4518   22.9145 C   0  0  0  0  0  0  0  0  0  0  0  0
  -26.5890  -33.4862   21.8800 C   0  0  0  0  0  0  0  0  0  0  0  0
  -29.8574  -14.6230   23.0738 C   0  0  0  0  0  0  0  0  0  0  0  0
  -26.0126  -35.2011   23.3798 C   0  0  0  0  0  0  0  0  0  0  0  0
  -24.6187  -36.0256   25.6513 C   0  0  0  0  0  0  0  0  0  0  0  0
  -25.0553  -36.2109   23.2823 C   0  0  0  0  0  0  0  0  0  0  0  0
  -26.2311  -29.4335   20.7204 C   0  0  0  0  0  0  0  0  0  0  0  0
  -25.9775  -27.5725   19.5768 C   0  0  0  0  0  0  0  0  0  0  0  0
  -29.2041  -19.7457   19.2053 C   0  0  0  0  0  0  0  0  0  0  0  0
  -28.7824  -21.8463   19.5859 C   0  0  0  0  0  0  0  0  0  0  0  0
  -25.8670  -29.6447   18.1831 C   0  0  0  0  0  0  0  0  0  0  0  0
  -25.2054  -12.0552   21.9650 C   0  0  0  0  0  0  0  0  0  0  0  0
  -23.6435  -14.8247   22.6074 C   0  0  0  0  0  0  0  0  0  0  0  0
  -23.8251  -18.1124   23.5046 C   0  0  0  0  0  0  0  0  0  0  0  0
  -30.6234  -16.7916   20.9311 C   0  0  0  0  0  0  0  0  0  0  0  0
  -27.9897  -22.8586   21.7522 C   0  0  0  0  0  0  0  0  0  0  0  0
  -22.2820   -8.0458   20.7666 C   0  0  0  0  0  0  0  0  0  0  0  0
  -26.1867  -12.6791   24.2019 C   0  0  0  0  0  0  0  0  0  0  0  0
  -26.1478  -14.9770   22.3410 C   0  0  0  0  0  0  0  0  0  0  0  0
  -22.2037   -9.5558   20.5562 C   0  0  0  0  0  0  0  0  0  0  0  0
  -25.7374  -24.7421   23.7664 C   0  0  0  0  0  0  0  0  0  0  0  0
  -23.5208  -10.0861   19.9986 C   0  0  0  0  0  0  0  0  0  0  0  0
  -25.6475  -26.0897   23.0466 C   0  0  0  0  0  0  0  0  0  0  0  0
  -27.1461  -24.1550   23.6971 C   0  0  0  0  0  0  0  0  0  0  0  0
  -27.6206  -25.4009   21.6255 C   0  0  0  0  0  0  0  0  0  0  0  0
  -24.6750   -9.8344   20.9763 C   0  0  1  0  0  0  0  0  0  0  0  0
  -25.0495  -12.8872   23.2064 C   0  0  1  0  0  0  0  0  0  0  0  0
  -26.2051  -26.0008   21.6124 C   0  0  2  0  0  0  0  0  0  0  0  0
  -28.1138  -17.4742   18.9962 C   0  0  0  0  0  0  0  0  0  0  0  0
  -22.3836  -20.1260   23.9107 C   0  0  0  0  0  0  0  0  0  0  0  0
  -32.2633  -17.2985   22.7750 C   0  0  0  0  0  0  0  0  0  0  0  0
  -23.3023  -15.1846   19.5968 C   0  0  0  0  0  0  0  0  0  0  0  0
  -22.7368  -17.5869   20.0185 C   0  0  0  0  0  0  0  0  0  0  0  0
  -21.2889  -15.7838   20.9539 C   0  0  0  0  0  0  0  0  0  0  0  0
  -24.6984  -18.3127   26.3252 C   0  0  0  0  0  0  0  0  0  0  0  0
  -29.3807  -18.2496   19.3516 C   0  0  2  0  0  0  0  0  0  0  0  0
  -23.5727  -16.1870   21.9608 C   0  0  1  0  0  0  0  0  0  0  0  0
  -23.0603  -18.9179   24.5394 C   0  0  2  0  0  0  0  0  0  0  0  0
  -30.9465  -16.6303   22.4100 C   0  0  2  0  0  0  0  0  0  1  0  0
  -22.7498  -16.1747   20.6416 C   0  0  0  0  0  0  0  0  0  0  0  0
  -26.3213  -28.4640   21.6347 N   0  0  0  0  0  0  0  0  0  0  0  0
  -28.8030  -20.5780   20.1409 N   0  0  0  0  0  0  0  0  0  0  0  0
  -29.1312  -22.0405   18.3142 N   0  0  0  0  0  0  0  0  0  0  0  0
  -26.1629  -27.3442   20.9086 N   0  0  0  0  0  0  0  0  0  0  0  0
  -24.9250  -14.2806   22.7737 N   0  0  0  0  0  0  0  0  0  0  0  0
  -27.6066  -24.0976   22.3081 N   0  0  0  0  0  0  0  0  0  0  0  0
  -25.8025  -26.5582   18.7034 N   0  0  0  0  0  0  0  0  0  0  0  0
  -25.9339  -31.0445   18.2019 N   0  0  0  0  0  0  0  0  0  0  0  0
  -28.3783  -22.9223   20.4145 N   0  0  0  0  0  0  0  0  0  0  0  0
  -24.6414  -10.7970   22.0564 N   0  0  0  0  0  0  0  0  0  0  0  0
  -29.8336  -17.9026   20.6782 N   0  0  0  0  0  0  0  0  0  0  0  0
  -23.0564  -17.0957   22.9786 N   0  0  0  0  0  0  0  0  0  0  0  0
  -23.9826  -19.3983   25.6069 N   0  3  0  0  0  0  0  0  0  0  0  0
  -25.6629  -29.0544   17.0952 O   0  0  0  0  0  0  0  0  0  0  0  0
  -25.7925  -12.5209   20.9954 O   0  0  0  0  0  0  0  0  0  0  0  0
  -22.6008  -14.2671   22.9588 O   0  0  0  0  0  0  0  0  0  0  0  0
  -24.9869  -18.3626   23.1912 O   0  0  0  0  0  0  0  0  0  0  0  0
  -31.0170  -15.9978   20.0792 O   0  0  0  0  0  0  0  0  0  0  0  0
  -27.9483  -21.8134   22.4062 O   0  0  0  0  0  0  0  0  0  0  0  0
  -26.7048  -34.7901   22.2530 O   0  0  0  0  0  0  0  0  0  0  0  0
  -31.0184  -15.2398   22.7224 O   0  0  0  0  0  0  0  0  0  1  0  0
  -23.9485  -36.4204   26.7417 F   0  0  0  0  0  0  0  0  0  0  0  0
  -24.8000  -36.7879   22.1000 F   0  0  0  0  0  0  0  0  0  0  0  0
  -29.5320  -20.5303   17.7148 S   0  0  0  0  0  0  0  0  0  0  0  0
  1  2  1  0  0  0  0
  1  5  2  0  0  0  0
  2  6  2  0  0  0  0
  3  8  2  0  0  0  0
  3 15  1  0  0  0  0
  4  9  1  0  0  0  0
  4 15  2  0  0  0  0
  5 17  1  0  0  0  0
  6 19  1  0  0  0  0
  7 10  2  0  0  0  0
  7 18  1  0  0  0  0
  8 21  1  0  0  0  0
  9 21  2  0  0  0  0
 10 22  1  0  0  0  0
 11 12  2  0  0  0  0
 11 23  1  0  0  0  0
 12 24  1  0  0  0  0
 13 20  1  0  0  0  0
 13 22  2  0  0  0  0
 14 24  2  0  0  0  0
 14 25  1  0  0  0  0
 15 26  1  0  0  0  0
 16 26  1  0  0  0  0
 16 27  2  0  0  0  0
 16 30  1  0  0  0  0
 17 19  2  0  0  0  0
 17 36  1  0  0  0  0
 18 20  2  0  0  0  0
 18 37  1  0  0  0  0
 19 45  1  0  0  0  0
 20 38  1  0  0  0  0
 21 79  1  0  0  0  0
 22 80  1  0  0  0  0
 23 25  2  0  0  0  0
 23 79  1  0  0  0  0
 24 81  1  0  0  0  0
 25 82  1  0  0  0  0
 26 60  2  0  0  0  0
 27 63  1  0  0  0  0
 27 66  1  0  0  0  0
 28 55  1  0  0  0  0
 28 61  2  0  0  0  0
 28 83  1  0  0  0  0
 29 61  1  0  0  0  0
 29 62  2  0  0  0  0
 29 68  1  0  0  0  0
 30 67  1  0  0  0  0
 30 73  2  0  0  0  0
 31 46  1  0  0  0  0
 31 69  1  0  0  0  0
 31 74  2  0  0  0  0
 32 56  1  0  0  0  0
 32 64  1  0  0  0  0
 32 75  2  0  0  0  0
 33 57  1  0  0  0  0
 33 71  1  0  0  0  0
 33 76  2  0  0  0  0
 34 58  1  0  0  0  0
 34 70  1  0  0  0  0
 34 77  2  0  0  0  0
 35 65  1  0  0  0  0
 35 68  1  0  0  0  0
 35 78  2  0  0  0  0
 36 39  1  0  0  0  0
 37 46  1  0  0  0  0
 38 64  1  0  0  0  0
 39 41  1  0  0  0  0
 40 42  1  0  0  0  0
 40 43  1  0  0  0  0
 41 45  1  0  0  0  0
 42 47  1  0  0  0  0
 43 65  1  0  0  0  0
 44 47  1  0  0  0  0
 44 65  1  0  0  0  0
 45 69  1  0  0  0  0
 46 64  1  0  0  0  0
 47 63  1  0  0  0  0
 48 55  1  0  0  0  0
 49 57  1  0  0  0  0
 50 58  1  0  0  0  0
 51 59  1  0  0  0  0
 52 59  1  0  0  0  0
 53 59  1  0  0  0  0
 54 72  1  0  0  0  0
 55 70  1  0  0  0  0
 56 59  1  0  0  0  0
 56 71  1  0  0  0  0
 57 72  1  0  0  0  0
 58 80  1  0  0  0  0
 60 63  1  0  0  0  0
 62 83  1  0  0  0  0
M  CHG  1  72   1
M  ISO  4  35 100  58 101  68 100  80 101
M  END
> <Batch ID>
0182

> <Smiles>
CNC(C)C(=O)NC(C(=O)N1Cc2cc([101O:1][101CH:1](C)C(=O)NC(C)c3nc([100NH:0][100C:0](=O)N4CCCC(n5nc(-c6ccc(Oc7ccc(F)cc7F)cc6)c(C(N)=O)c5N)C4)ns3)ccc2CC1C(=O)NC1CCCc2ccccc21)C(C)(C)C

> <Shape>
0.225

> <Color>
0.076

> <Negative vol penalty>
0.000

$$$$

  -OEChem-04052304563D

 84 92  0     1  0  0  0  0  0999 V2000
  -28.6909  -24.6393   19.1816 C   0  0  0  0  0  0  0  0  0  0  0  0
  -27.2998  -24.6348   19.1627 C   0  0  0  0  0  0  0  0  0  0  0  0
  -26.4189  -13.7592   20.0510 C   0  0  0  0  0  0  0  0  0  0  0  0
  -24.1672  -14.0099   20.8901 C   0  0  0  0  0  0  0  0  0  0  0  0
  -29.3705  -25.2192   20.2521 C   0  0  0  0  0  0  0  0  0  0  0  0
  -26.5875  -25.2092   20.2149 C   0  0  0  0  0  0  0  0  0  0  0  0
  -20.5072  -28.7479   21.5654 C   0  0  0  0  0  0  0  0  0  0  0  0
  -26.4409  -12.4402   20.5042 C   0  0  0  0  0  0  0  0  0  0  0  0
  -24.1891  -12.6909   21.3432 C   0  0  0  0  0  0  0  0  0  0  0  0
  -19.3937  -28.6954   22.4027 C   0  0  0  0  0  0  0  0  0  0  0  0
  -23.8319   -9.5998   20.0249 C   0  0  0  0  0  0  0  0  0  0  0  0
  -22.7114   -8.8095   19.7689 C   0  0  0  0  0  0  0  0  0  0  0  0
  -20.6743  -29.7384   24.1610 C   0  0  0  0  0  0  0  0  0  0  0  0
  -22.3969   -8.4863   22.1424 C   0  0  0  0  0  0  0  0  0  0  0  0
  -25.2820  -14.5441   20.2441 C   0  0  0  0  0  0  0  0  0  0  0  0
  -24.8391  -16.3654   18.5137 C   0  0  0  0  0  0  0  0  0  0  0  0
  -28.6661  -25.8095   21.3132 C   0  0  0  0  0  0  0  0  0  0  0  0
  -21.7178  -29.2870   22.0239 C   0  0  0  0  0  0  0  0  0  0  0  0
  -27.2583  -25.7963   21.3012 C   0  0  0  0  0  0  0  0  0  0  0  0
  -21.8009  -29.7989   23.3267 C   0  0  0  0  0  0  0  0  0  0  0  0
  -25.3260  -11.9060   21.1502 C   0  0  0  0  0  0  0  0  0  0  0  0
  -19.4779  -29.1881   23.7017 C   0  0  0  0  0  0  0  0  0  0  0  0
  -24.2349   -9.8334   21.3397 C   0  0  0  0  0  0  0  0  0  0  0  0
  -21.9939   -8.2528   20.8276 C   0  0  0  0  0  0  0  0  0  0  0  0
  -23.5174   -9.2767   22.3985 C   0  0  0  0  0  0  0  0  0  0  0  0
  -25.2589  -15.9069   19.7767 C   0  0  0  0  0  0  0  0  0  0  0  0
  -20.7400  -22.4463   21.9287 C   0  0  0  0  0  0  0  0  0  0  0  0
  -25.0102  -17.7271   18.5684 C   0  0  0  0  0  0  0  0  0  0  0  0
  -22.0666  -22.5664   22.2862 C   0  0  0  0  0  0  0  0  0  0  0  0
  -20.5187  -23.9380   23.5211 C   0  0  0  0  0  0  0  0  0  0  0  0
  -24.3390  -15.6266   17.3913 C   0  0  0  0  0  0  0  0  0  0  0  0
  -24.6580  -28.1569   22.4498 C   0  0  0  0  0  0  0  0  0  0  0  0
  -25.3314  -31.2566   23.1286 C   0  0  0  0  0  0  0  0  0  0  0  0
  -18.6728  -25.2410   24.6334 C   0  0  0  0  0  0  0  0  0  0  0  0
  -24.2056  -34.3044   24.1726 C   0  0  0  0  0  0  0  0  0  0  0  0
  -24.5511  -22.1508   22.2536 C   0  0  0  0  0  0  0  0  0  0  0  0
  -29.4442  -26.3821   22.4714 C   0  0  0  0  0  0  0  0  0  0  0  0
  -22.9021  -29.3607   21.0995 C   0  0  0  0  0  0  0  0  0  0  0  0
  -23.0716  -30.4062   23.8605 C   0  0  0  0  0  0  0  0  0  0  0  0
  -28.6169  -27.3020   23.3656 C   0  0  0  0  0  0  0  0  0  0  0  0
  -27.7167  -20.7899   21.3572 C   0  0  0  0  0  0  0  0  0  0  0  0
  -27.2695  -26.6633   23.6874 C   0  0  0  0  0  0  0  0  0  0  0  0
  -27.3664  -19.4366   20.7344 C   0  0  0  0  0  0  0  0  0  0  0  0
  -26.7992  -21.1288   22.5306 C   0  0  0  0  0  0  0  0  0  0  0  0
  -25.0119  -19.7026   21.6136 C   0  0  0  0  0  0  0  0  0  0  0  0
  -26.4503  -26.4314   22.4120 C   0  0  1  0  0  0  0  0  0  0  0  0
  -24.2323  -29.4622   21.8396 C   0  0  1  0  0  0  0  0  0  0  0  0
  -25.8675  -19.3474   20.3866 C   0  0  2  0  0  0  0  0  0  0  0  0
  -20.2007  -21.5649   20.8728 C   0  0  0  0  0  0  0  0  0  0  0  0
  -24.9976  -36.6343   24.6641 C   0  0  0  0  0  0  0  0  0  0  0  0
  -16.1152  -28.6511   23.9439 C   0  0  0  0  0  0  0  0  0  0  0  0
  -26.5456  -30.2873   25.7547 C   0  0  0  0  0  0  0  0  0  0  0  0
  -26.4438  -32.6448   26.5913 C   0  0  0  0  0  0  0  0  0  0  0  0
  -27.8468  -32.0874   24.6054 C   0  0  0  0  0  0  0  0  0  0  0  0
  -22.4471  -35.4651   22.0943 C   0  0  0  0  0  0  0  0  0  0  0  0
  -18.5482  -26.2529   25.7659 C   0  0  0  0  0  0  0  0  0  0  0  0
  -17.3808  -27.2289   25.5962 C   0  0  0  0  0  0  0  0  0  0  0  0
  -25.3287  -32.1021   24.3793 C   0  0  1  0  0  0  0  0  0  0  0  0
  -24.4147  -35.7006   23.6147 C   0  0  2  0  0  0  0  0  0  0  0  0
  -17.4723  -28.0668   24.3149 C   0  0  2  0  0  0  0  0  0  1  0  0
  -26.5177  -31.7673   25.3235 C   0  0  0  0  0  0  0  0  0  0  0  0
  -25.6662  -16.8969   20.5754 N   0  0  0  0  0  0  0  0  0  0  0  0
  -19.8509  -23.2317   22.6360 N   0  0  0  0  0  0  0  0  0  0  0  0
  -25.5033  -17.9911   19.8124 N   0  0  0  0  0  0  0  0  0  0  0  0
  -24.2038  -30.4497   22.9204 N   0  0  0  0  0  0  0  0  0  0  0  0
  -25.3954  -21.0276   22.1257 N   0  0  0  0  0  0  0  0  0  0  0  0
  -24.7856  -18.7124   17.6734 N   0  0  0  0  0  0  0  0  0  0  0  0
  -24.2269  -14.2341   17.5044 N   0  0  0  0  0  0  0  0  0  0  0  0
  -23.2464  -21.9453   21.8064 N   0  0  0  0  0  0  0  0  0  0  0  0
  -20.0023  -24.8700   24.4526 N   0  0  0  0  0  0  0  0  0  0  0  0
  -25.8558  -27.6713   21.9608 N   0  0  0  0  0  0  0  0  0  0  0  0
  -25.2926  -33.4906   23.9332 N   0  0  0  0  0  0  0  0  0  0  0  0
  -23.1199  -36.2704   23.1458 N   0  3  0  0  0  0  0  0  0  0  0  0
  -24.0171  -16.1829   16.3141 O   0  0  0  0  0  0  0  0  0  0  0  0
  -23.9529  -27.6300   23.3024 O   0  0  0  0  0  0  0  0  0  0  0  0
  -26.2952  -31.3154   22.3610 O   0  0  0  0  0  0  0  0  0  0  0  0
  -17.6955  -24.8287   24.0175 O   0  0  0  0  0  0  0  0  0  0  0  0
  -23.1820  -33.9703   24.7651 O   0  0  0  0  0  0  0  0  0  0  0  0
  -24.9628  -23.2247   22.7000 O   0  0  0  0  0  0  0  0  0  0  0  0
  -25.3470  -10.6189   21.5923 O   0  0  0  0  0  0  0  0  0  0  0  0
  -18.3928  -29.1375   24.5213 O   0  0  0  0  0  0  0  0  0  1  0  0
  -20.9171   -7.4951   20.5816 F   0  0  0  0  0  0  0  0  0  0  0  0
  -23.8991   -9.4985   23.6637 F   0  0  0  0  0  0  0  0  0  0  0  0
  -22.2189  -23.7077   23.5572 S   0  0  0  0  0  0  0  0  0  0  0  0
  1  2  1  0  0  0  0
  1  5  2  0  0  0  0
  2  6  2  0  0  0  0
  3  8  2  0  0  0  0
  3 15  1  0  0  0  0
  4  9  1  0  0  0  0
  4 15  2  0  0  0  0
  5 17  1  0  0  0  0
  6 19  1  0  0  0  0
  7 10  2  0  0  0  0
  7 18  1  0  0  0  0
  8 21  1  0  0  0  0
  9 21  2  0  0  0  0
 10 22  1  0  0  0  0
 11 12  2  0  0  0  0
 11 23  1  0  0  0  0
 12 24  1  0  0  0  0
 13 20  1  0  0  0  0
 13 22  2  0  0  0  0
 14 24  2  0  0  0  0
 14 25  1  0  0  0  0
 15 26  1  0  0  0  0
 16 26  1  0  0  0  0
 16 28  2  0  0  0  0
 16 31  1  0  0  0  0
 17 19  2  0  0  0  0
 17 37  1  0  0  0  0
 18 20  2  0  0  0  0
 18 38  1  0  0  0  0
 19 46  1  0  0  0  0
 20 39  1  0  0  0  0
 21 80  1  0  0  0  0
 22 81  1  0  0  0  0
 23 25  2  0  0  0  0
 23 80  1  0  0  0  0
 24 82  1  0  0  0  0
 25 83  1  0  0  0  0
 26 62  2  0  0  0  0
 27 29  2  0  0  0  0
 27 49  1  0  0  0  0
 27 63  1  0  0  0  0
 28 64  1  0  0  0  0
 28 67  1  0  0  0  0
 29 69  1  0  0  0  0
 29 84  1  0  0  0  0
 30 63  2  0  0  0  0
 30 70  1  0  0  0  0
 30 84  1  0  0  0  0
 31 68  1  0  0  0  0
 31 74  2  0  0  0  0
 32 47  1  0  0  0  0
 32 71  1  0  0  0  0
 32 75  2  0  0  0  0
 33 58  1  0  0  0  0
 33 65  1  0  0  0  0
 33 76  2  0  0  0  0
 34 56  1  0  0  0  0
 34 70  1  0  0  0  0
 34 77  2  0  0  0  0
 35 59  1  0  0  0  0
 35 72  1  0  0  0  0
 35 78  2  0  0  0  0
 36 66  1  0  0  0  0
 36 69  1  0  0  0  0
 36 79  2  0  0  0  0
 37 40  1  0  0  0  0
 38 47  1  0  0  0  0
 39 65  1  0  0  0  0
 40 42  1  0  0  0  0
 41 43  1  0  0  0  0
 41 44  1  0  0  0  0
 42 46  1  0  0  0  0
 43 48  1  0  0  0  0
 44 66  1  0  0  0  0
 45 48  1  0  0  0  0
 45 66  1  0  0  0  0
 46 71  1  0  0  0  0
 47 65  1  0  0  0  0
 48 64  1  0  0  0  0
 50 59  1  0  0  0  0
 51 60  1  0  0  0  0
 52 61  1  0  0  0  0
 53 61  1  0  0  0  0
 54 61  1  0  0  0  0
 55 73  1  0  0  0  0
 56 57  1  0  0  0  0
 57 60  1  0  0  0  0
 58 61  1  0  0  0  0
 58 72  1  0  0  0  0
 59 73  1  0  0  0  0
 60 81  1  0  0  0  0
 62 64  1  0  0  0  0
M  CHG  1  73   1
M  ISO  4  36 100  60 101  69 100  81 101
M  END
> <Batch ID>
0182

> <Smiles>
CNC(C)C(=O)NC(C(=O)N1Cc2cc([101O:1][101CH:1](C)CCC(=O)Nc3nc(C)c([100NH:0][100C:0](=O)N4CCCC(n5nc(-c6ccc(Oc7ccc(F)cc7F)cc6)c(C(N)=O)c5N)C4)s3)ccc2CC1C(=O)NC1CCCc2ccccc21)C(C)(C)C

> <Shape>
0.246

> <Color>
0.067

> <Negative vol penalty>
0.000

$$$$

  -OEChem-04052304563D

 85 93  0     1  0  0  0  0  0999 V2000
  -19.1276  -24.5339   23.3712 C   0  0  0  0  0  0  0  0  0  0  0  0
  -20.2148  -24.6180   22.5073 C   0  0  0  0  0  0  0  0  0  0  0  0
  -26.4726  -13.9520   22.3874 C   0  0  0  0  0  0  0  0  0  0  0  0
  -27.7676  -14.0133   20.3487 C   0  0  0  0  0  0  0  0  0  0  0  0
  -18.4245  -25.6865   23.7194 C   0  0  0  0  0  0  0  0  0  0  0  0
  -20.5989  -25.8547   21.9902 C   0  0  0  0  0  0  0  0  0  0  0  0
  -26.3009  -27.7205   20.7604 C   0  0  0  0  0  0  0  0  0  0  0  0
  -25.9810  -12.6945   22.0374 C   0  0  0  0  0  0  0  0  0  0  0  0
  -27.2760  -12.7558   19.9986 C   0  0  0  0  0  0  0  0  0  0  0  0
  -27.0363  -27.7718   19.5771 C   0  0  0  0  0  0  0  0  0  0  0  0
  -23.6233  -11.4287   19.9725 C   0  0  0  0  0  0  0  0  0  0  0  0
  -22.2565  -11.2007   20.1320 C   0  0  0  0  0  0  0  0  0  0  0  0
  -28.1818  -23.1689   16.6562 C   0  0  0  0  0  0  0  0  0  0  0  0
  -26.4135  -30.0855   19.2976 C   0  0  0  0  0  0  0  0  0  0  0  0
  -22.7364   -9.3973   21.6665 C   0  0  0  0  0  0  0  0  0  0  0  0
  -27.3659  -14.6115   21.5430 C   0  0  0  0  0  0  0  0  0  0  0  0
  -28.9501  -23.3493   15.4698 C   0  0  0  0  0  0  0  0  0  0  0  0
  -29.0341  -16.1930   22.6491 C   0  0  0  0  0  0  0  0  0  0  0  0
  -18.8062  -26.9392   23.2139 C   0  0  0  0  0  0  0  0  0  0  0  0
  -25.6062  -28.8500   21.2163 C   0  0  0  0  0  0  0  0  0  0  0  0
  -19.8995  -27.0250   22.3308 C   0  0  0  0  0  0  0  0  0  0  0  0
  -25.6721  -30.0466   20.4883 C   0  0  0  0  0  0  0  0  0  0  0  0
  -26.3827  -12.0964   20.8430 C   0  0  0  0  0  0  0  0  0  0  0  0
  -27.0904  -28.9537   18.8440 C   0  0  0  0  0  0  0  0  0  0  0  0
  -24.5467  -10.6410   20.6600 C   0  0  0  0  0  0  0  0  0  0  0  0
  -21.8131  -10.1850   20.9790 C   0  0  0  0  0  0  0  0  0  0  0  0
  -24.1033   -9.6253   21.5070 C   0  0  0  0  0  0  0  0  0  0  0  0
  -27.8736  -15.9108   21.9038 C   0  0  0  0  0  0  0  0  0  0  0  0
  -29.0746  -17.5643   22.7151 C   0  0  0  0  0  0  0  0  0  0  0  0
  -28.3160  -21.8985   17.1714 C   0  0  0  0  0  0  0  0  0  0  0  0
  -29.6426  -22.2097   15.1237 C   0  0  0  0  0  0  0  0  0  0  0  0
  -29.0205  -24.6023   14.6747 C   0  0  0  0  0  0  0  0  0  0  0  0
  -29.9899  -15.2959   23.2298 C   0  0  0  0  0  0  0  0  0  0  0  0
  -22.5507  -29.5351   21.7624 C   0  0  0  0  0  0  0  0  0  0  0  0
  -28.0740  -28.1013   15.4593 C   0  0  0  0  0  0  0  0  0  0  0  0
  -23.7837  -32.2950   22.9393 C   0  0  0  0  0  0  0  0  0  0  0  0
  -26.3573  -34.5360   22.9731 C   0  0  0  0  0  0  0  0  0  0  0  0
  -26.8645  -21.8861   19.2304 C   0  0  0  0  0  0  0  0  0  0  0  0
  -17.9865  -28.1507   23.5814 C   0  0  0  0  0  0  0  0  0  0  0  0
  -24.8393  -28.7859   22.5087 C   0  0  0  0  0  0  0  0  0  0  0  0
  -24.9607  -31.2931   20.9452 C   0  0  0  0  0  0  0  0  0  0  0  0
  -18.6884  -29.4736   23.2859 C   0  0  0  0  0  0  0  0  0  0  0  0
  -26.2084  -21.4008   22.6961 C   0  0  0  0  0  0  0  0  0  0  0  0
  -19.3012  -29.4524   21.8891 C   0  0  0  0  0  0  0  0  0  0  0  0
  -26.6722  -19.9656   22.9554 C   0  0  0  0  0  0  0  0  0  0  0  0
  -25.5623  -21.5481   21.3196 C   0  0  0  0  0  0  0  0  0  0  0  0
  -26.8380  -19.6253   20.4567 C   0  0  0  0  0  0  0  0  0  0  0  0
  -20.3620  -28.3517   21.7687 C   0  0  1  0  0  0  0  0  0  0  0  0
  -23.7503  -29.8495   22.6107 C   0  0  1  0  0  0  0  0  0  0  0  0
  -27.5538  -19.4417   21.8048 C   0  0  2  0  0  0  0  0  0  0  0  0
  -27.0829  -26.9532   13.4563 C   0  0  0  0  0  0  0  0  0  0  0  0
  -27.0609  -36.7123   24.0056 C   0  0  0  0  0  0  0  0  0  0  0  0
  -21.8921  -33.7908   21.0699 C   0  0  0  0  0  0  0  0  0  0  0  0
  -23.2716  -35.8482   21.4334 C   0  0  0  0  0  0  0  0  0  0  0  0
  -22.0966  -34.7804   23.3575 C   0  0  0  0  0  0  0  0  0  0  0  0
  -28.7198  -33.2973   24.2549 C   0  0  0  0  0  0  0  0  0  0  0  0
  -27.9204  -27.7974   16.9387 C   0  0  0  0  0  0  0  0  0  1  0  0
  -28.2122  -26.9396   14.4753 C   0  0  2  0  0  0  0  0  0  0  0  0
  -24.1241  -33.6467   22.3595 C   0  0  1  0  0  0  0  0  0  0  0  0
  -27.1030  -35.1963   24.1187 C   0  0  2  0  0  0  0  0  0  0  0  0
  -22.8581  -34.4926   22.0452 C   0  0  0  0  0  0  0  0  0  0  0  0
  -27.2239  -17.0141   21.5237 N   0  0  0  0  0  0  0  0  0  0  0  0
  -27.9785  -18.0030   22.0322 N   0  0  0  0  0  0  0  0  0  0  0  0
  -24.2189  -31.1782   22.2118 N   0  0  0  0  0  0  0  0  0  0  0  0
  -26.4565  -21.0352   20.2794 N   0  0  0  0  0  0  0  0  0  0  0  0
  -29.9405  -18.4257   23.2902 N   0  0  0  0  0  0  0  0  0  0  0  0
  -29.7971  -13.9173   23.0669 N   0  0  0  0  0  0  0  0  0  0  0  0
  -27.7404  -21.2979   18.3185 N   0  0  0  0  0  0  0  0  0  0  0  0
  -28.2667  -25.6689   15.1481 N   0  0  0  0  0  0  0  0  0  0  0  0
  -21.5956  -28.7673   22.4010 N   0  0  0  0  0  0  0  0  0  0  0  0
  -25.0439  -34.2750   23.3017 N   0  0  0  0  0  0  0  0  0  0  0  0
  -28.5295  -34.7649   24.1251 N   0  3  0  0  0  0  0  0  0  0  0  0
  -29.7051  -24.6284   13.6554 O   0  0  0  0  0  0  0  0  0  0  0  0
  -30.9765  -15.7043   23.8882 O   0  0  0  0  0  0  0  0  0  0  0  0
  -22.4949  -29.9591   20.6139 O   0  0  0  0  0  0  0  0  0  0  0  0
  -28.1393  -29.2664   15.0574 O   0  0  0  0  0  0  0  0  0  0  0  0
  -23.1609  -32.2324   24.0022 O   0  0  0  0  0  0  0  0  0  0  0  0
  -26.8860  -34.2809   21.8933 O   0  0  0  0  0  0  0  0  0  0  0  0
  -26.4878  -23.0588   19.1622 O   0  0  0  0  0  0  0  0  0  0  0  0
  -25.9033  -10.8692   20.5012 O   0  0  0  0  0  0  0  0  0  0  0  0
  -27.8069  -29.0063   17.6883 O   0  0  0  0  0  0  0  0  0  1  0  0
  -20.5005   -9.9671   21.1332 F   0  0  0  0  0  0  0  0  0  0  0  0
  -24.9856   -8.8661   22.1710 F   0  0  0  0  0  0  0  0  0  0  0  0
  -30.4393  -22.1070   14.0540 F   0  0  0  0  0  0  0  0  0  0  0  0
  -29.3650  -20.9294   16.2264 S   0  0  0  0  0  0  0  0  0  0  0  0
  1  2  1  0  0  0  0
  1  5  2  0  0  0  0
  2  6  2  0  0  0  0
  3  8  2  0  0  0  0
  3 16  1  0  0  0  0
  4  9  1  0  0  0  0
  4 16  2  0  0  0  0
  5 19  1  0  0  0  0
  6 21  1  0  0  0  0
  7 10  2  0  0  0  0
  7 20  1  0  0  0  0
  8 23  1  0  0  0  0
  9 23  2  0  0  0  0
 10 24  1  0  0  0  0
 11 12  2  0  0  0  0
 11 25  1  0  0  0  0
 12 26  1  0  0  0  0
 13 17  1  0  0  0  0
 13 30  2  0  0  0  0
 14 22  1  0  0  0  0
 14 24  2  0  0  0  0
 15 26  2  0  0  0  0
 15 27  1  0  0  0  0
 16 28  1  0  0  0  0
 17 31  2  0  0  0  0
 17 32  1  0  0  0  0
 18 28  1  0  0  0  0
 18 29  2  0  0  0  0
 18 33  1  0  0  0  0
 19 21  2  0  0  0  0
 19 39  1  0  0  0  0
 20 22  2  0  0  0  0
 20 40  1  0  0  0  0
 21 48  1  0  0  0  0
 22 41  1  0  0  0  0
 23 80  1  0  0  0  0
 24 81  1  0  0  0  0
 25 27  2  0  0  0  0
 25 80  1  0  0  0  0
 26 82  1  0  0  0  0
 27 83  1  0  0  0  0
 28 62  2  0  0  0  0
 29 63  1  0  0  0  0
 29 66  1  0  0  0  0
 30 68  1  0  0  0  0
 30 85  1  0  0  0  0
 31 84  1  0  0  0  0
 31 85  1  0  0  0  0
 32 69  1  0  0  0  0
 32 73  2  0  0  0  0
 33 67  1  0  0  0  0
 33 74  2  0  0  0  0
 34 49  1  0  0  0  0
 34 70  1  0  0  0  0
 34 75  2  0  0  0  0
 35 57  1  0  0  0  0
 35 58  1  0  0  0  0
 35 76  2  0  0  0  0
 36 59  1  0  0  0  0
 36 64  1  0  0  0  0
 36 77  2  0  0  0  0
 37 60  1  0  0  0  0
 37 71  1  0  0  0  0
 37 78  2  0  0  0  0
 38 65  1  0  0  0  0
 38 68  1  0  0  0  0
 38 79  2  0  0  0  0
 39 42  1  0  0  0  0
 40 49  1  0  0  0  0
 41 64  1  0  0  0  0
 42 44  1  0  0  0  0
 43 45  1  0  0  0  0
 43 46  1  0  0  0  0
 44 48  1  0  0  0  0
 45 50  1  0  0  0  0
 46 65  1  0  0  0  0
 47 50  1  0  0  0  0
 47 65  1  0  0  0  0
 48 70  1  0  0  0  0
 49 64  1  0  0  0  0
 50 63  1  0  0  0  0
 51 58  1  0  0  0  0
 52 60  1  0  0  0  0
 53 61  1  0  0  0  0
 54 61  1  0  0  0  0
 55 61  1  0  0  0  0
 56 72  1  0  0  0  0
 57 81  1  0  0  0  0
 58 69  1  0  0  0  0
 59 61  1  0  0  0  0
 59 71  1  0  0  0  0
 60 72  1  0  0  0  0
 62 63  1  0  0  0  0
M  CHG  1  72   1
M  ISO  4  38 100  57 101  68 100  81 101
M  END
> <Batch ID>
0182

> <Smiles>
CNC(C)C(=O)NC(C(=O)N1Cc2cc([101O:1][101CH2:1]C(=O)C(C)NC(=O)c3cc([100NH:0][100C:0](=O)N4CCCC(n5nc(-c6ccc(Oc7ccc(F)cc7F)cc6)c(C(N)=O)c5N)C4)sc3F)ccc2CC1C(=O)NC1CCCc2ccccc21)C(C)(C)C

> <Shape>
0.238

> <Color>
0.095

> <Negative vol penalty>
0.000

$$$$

  -OEChem-04052304563D

 85 93  0     1  0  0  0  0  0999 V2000
  -25.9626  -34.9632   24.4337 C   0  0  0  0  0  0  0  0  0  0  0  0
  -26.5119  -33.7526   24.0237 C   0  0  0  0  0  0  0  0  0  0  0  0
  -28.0811  -10.6956   22.2003 C   0  0  0  0  0  0  0  0  0  0  0  0
  -26.0666  -11.5711   21.1941 C   0  0  0  0  0  0  0  0  0  0  0  0
  -24.6386  -35.0153   24.8676 C   0  0  0  0  0  0  0  0  0  0  0  0
  -25.7378  -32.5930   24.0486 C   0  0  0  0  0  0  0  0  0  0  0  0
  -26.2476  -29.8263   19.8379 C   0  0  0  0  0  0  0  0  0  0  0  0
  -27.3112   -9.9391   23.0837 C   0  0  0  0  0  0  0  0  0  0  0  0
  -25.2966  -10.8145   22.0775 C   0  0  0  0  0  0  0  0  0  0  0  0
  -27.3981  -29.0472   19.7233 C   0  0  0  0  0  0  0  0  0  0  0  0
  -24.2860   -7.6037   22.3773 C   0  0  0  0  0  0  0  0  0  0  0  0
  -23.1978   -6.9066   21.8526 C   0  0  0  0  0  0  0  0  0  0  0  0
  -26.1425  -27.1036   20.4053 C   0  0  0  0  0  0  0  0  0  0  0  0
  -21.7092   -8.1390   23.3026 C   0  0  0  0  0  0  0  0  0  0  0  0
  -27.4589  -11.5116   21.2555 C   0  0  0  0  0  0  0  0  0  0  0  0
  -28.7190  -11.9049   19.0726 C   0  0  0  0  0  0  0  0  0  0  0  0
  -23.8450  -33.8575   24.8887 C   0  0  0  0  0  0  0  0  0  0  0  0
  -25.0364  -29.2510   20.2482 C   0  0  0  0  0  0  0  0  0  0  0  0
  -24.4024  -32.6294   24.4845 C   0  0  0  0  0  0  0  0  0  0  0  0
  -24.9775  -27.8771   20.5218 C   0  0  0  0  0  0  0  0  0  0  0  0
  -25.9189   -9.9985   23.0223 C   0  0  0  0  0  0  0  0  0  0  0  0
  -27.3463  -27.6862   20.0098 C   0  0  0  0  0  0  0  0  0  0  0  0
  -24.0859   -8.5684   23.3647 C   0  0  0  0  0  0  0  0  0  0  0  0
  -21.9094   -7.1742   22.3152 C   0  0  0  0  0  0  0  0  0  0  0  0
  -22.7975   -8.8361   23.8273 C   0  0  0  0  0  0  0  0  0  0  0  0
  -28.2537  -12.2938   20.3430 C   0  0  0  0  0  0  0  0  0  0  0  0
  -26.2501  -21.5210   17.8303 C   0  0  0  0  0  0  0  0  0  0  0  0
  -29.4197  -12.9941   18.6153 C   0  0  0  0  0  0  0  0  0  0  0  0
  -25.1815  -20.6995   17.5382 C   0  0  0  0  0  0  0  0  0  0  0  0
  -27.0388  -19.6482   18.6553 C   0  0  0  0  0  0  0  0  0  0  0  0
  -28.5342  -10.6695   18.3687 C   0  0  0  0  0  0  0  0  0  0  0  0
  -26.3109  -22.9684   17.5032 C   0  0  0  0  0  0  0  0  0  0  0  0
  -23.0791  -29.6660   22.7181 C   0  0  0  0  0  0  0  0  0  0  0  0
  -21.2059  -27.5818   21.0842 C   0  0  0  0  0  0  0  0  0  0  0  0
  -27.7457  -24.9712   17.6398 C   0  0  0  0  0  0  0  0  0  0  0  0
  -20.9891  -25.0748   18.7789 C   0  0  0  0  0  0  0  0  0  0  0  0
  -29.1212  -18.8392   19.8195 C   0  0  0  0  0  0  0  0  0  0  0  0
  -22.4333  -33.9545   25.4106 C   0  0  0  0  0  0  0  0  0  0  0  0
  -23.7982  -30.1000   20.3410 C   0  0  0  0  0  0  0  0  0  0  0  0
  -23.6971  -27.2072   20.9465 C   0  0  0  0  0  0  0  0  0  0  0  0
  -21.5672  -32.7497   25.0520 C   0  0  0  0  0  0  0  0  0  0  0  0
  -31.9693  -16.7333   20.1811 C   0  0  0  0  0  0  0  0  0  0  0  0
  -22.3181  -31.4511   25.3290 C   0  0  0  0  0  0  0  0  0  0  0  0
  -31.3827  -15.3203   20.1419 C   0  0  0  0  0  0  0  0  0  0  0  0
  -31.0478  -17.7100   20.9096 C   0  0  0  0  0  0  0  0  0  0  0  0
  -29.0777  -16.3291   20.3791 C   0  0  0  0  0  0  0  0  0  0  0  0
  -23.5872  -31.3545   24.4736 C   0  0  1  0  0  0  0  0  0  0  0  0
  -22.7364  -29.5092   21.2636 C   0  0  1  0  0  0  0  0  0  0  0  0
  -29.9403  -15.3238   19.5988 C   0  0  2  0  0  0  0  0  0  0  0  0
  -19.3291  -23.5455   17.6819 C   0  0  0  0  0  0  0  0  0  0  0  0
  -30.4978  -27.4189   18.7245 C   0  0  0  0  0  0  0  0  0  0  0  0
  -21.0927  -25.8893   23.6205 C   0  0  0  0  0  0  0  0  0  0  0  0
  -20.2622  -23.9821   22.2273 C   0  0  0  0  0  0  0  0  0  0  0  0
  -18.9209  -26.0787   22.3949 C   0  0  0  0  0  0  0  0  0  0  0  0
  -21.5919  -26.1585   16.0916 C   0  0  0  0  0  0  0  0  0  0  0  0
  -29.1051  -25.4011   18.1598 C   0  0  0  0  0  0  0  0  0  0  0  0
  -21.0592  -26.0798   21.0459 C   0  0  1  0  0  0  0  0  0  0  0  0
  -20.0632  -24.8745   17.5927 C   0  0  2  0  0  0  0  0  0  0  0  0
  -29.0860  -26.8595   18.6148 C   0  0  1  0  0  0  0  0  0  1  0  0
  -20.3585  -25.5202   22.3160 C   0  0  0  0  0  0  0  0  0  0  0  0
  -28.6275  -13.5332   20.6719 N   0  0  0  0  0  0  0  0  0  0  0  0
  -27.3158  -20.9201   18.4713 N   0  0  0  0  0  0  0  0  0  0  0  0
  -29.3352  -13.9325   19.6014 N   0  0  0  0  0  0  0  0  0  0  0  0
  -22.5150  -28.0809   21.0287 N   0  0  0  0  0  0  0  0  0  0  0  0
  -29.7001  -17.6617   20.3383 N   0  0  0  0  0  0  0  0  0  0  0  0
  -30.0939  -13.2310   17.4700 N   0  0  0  0  0  0  0  0  0  0  0  0
  -24.0180  -21.0220   16.9217 N   0  0  0  0  0  0  0  0  0  0  0  0
  -27.7873   -9.6554   18.9835 N   0  0  0  0  0  0  0  0  0  0  0  0
  -27.8502  -18.6645   19.2732 N   0  0  0  0  0  0  0  0  0  0  0  0
  -27.4807  -23.6239   17.8829 N   0  0  0  0  0  0  0  0  0  0  0  0
  -23.2545  -30.9775   23.1165 N   0  0  0  0  0  0  0  0  0  0  0  0
  -20.3711  -25.7686   19.7977 N   0  0  0  0  0  0  0  0  0  0  0  0
  -20.8387  -24.8985   16.3203 N   0  3  0  0  0  0  0  0  0  0  0  0
  -29.0309  -10.4648   17.2352 O   0  0  0  0  0  0  0  0  0  0  0  0
  -25.3692  -23.4875   16.9103 O   0  0  0  0  0  0  0  0  0  0  0  0
  -23.1756  -28.6710   23.4268 O   0  0  0  0  0  0  0  0  0  0  0  0
  -20.1958  -28.2865   21.1535 O   0  0  0  0  0  0  0  0  0  0  0  0
  -26.9968  -25.7583   17.0656 O   0  0  0  0  0  0  0  0  0  0  0  0
  -22.1438  -24.6544   18.8010 O   0  0  0  0  0  0  0  0  0  0  0  0
  -29.7208  -19.9174   19.8326 O   0  0  0  0  0  0  0  0  0  0  0  0
  -25.1673   -9.2603   23.8840 O   0  0  0  0  0  0  0  0  0  0  0  0
  -28.4680  -26.9236   19.8995 O   0  0  0  0  0  0  0  0  0  1  0  0
  -20.8642   -6.5058   21.8102 F   0  0  0  0  0  0  0  0  0  0  0  0
  -22.5989   -9.7626   24.7749 F   0  0  0  0  0  0  0  0  0  0  0  0
  -25.5145  -19.1073   18.0819 S   0  0  0  0  0  0  0  0  0  0  0  0
  1  2  1  0  0  0  0
  1  5  2  0  0  0  0
  2  6  2  0  0  0  0
  3  8  2  0  0  0  0
  3 15  1  0  0  0  0
  4  9  1  0  0  0  0
  4 15  2  0  0  0  0
  5 17  1  0  0  0  0
  6 19  1  0  0  0  0
  7 10  2  0  0  0  0
  7 18  1  0  0  0  0
  8 21  1  0  0  0  0
  9 21  2  0  0  0  0
 10 22  1  0  0  0  0
 11 12  2  0  0  0  0
 11 23  1  0  0  0  0
 12 24  1  0  0  0  0
 13 20  1  0  0  0  0
 13 22  2  0  0  0  0
 14 24  2  0  0  0  0
 14 25  1  0  0  0  0
 15 26  1  0  0  0  0
 16 26  1  0  0  0  0
 16 28  2  0  0  0  0
 16 31  1  0  0  0  0
 17 19  2  0  0  0  0
 17 38  1  0  0  0  0
 18 20  2  0  0  0  0
 18 39  1  0  0  0  0
 19 47  1  0  0  0  0
 20 40  1  0  0  0  0
 21 81  1  0  0  0  0
 22 82  1  0  0  0  0
 23 25  2  0  0  0  0
 23 81  1  0  0  0  0
 24 83  1  0  0  0  0
 25 84  1  0  0  0  0
 26 61  2  0  0  0  0
 27 29  2  0  0  0  0
 27 32  1  0  0  0  0
 27 62  1  0  0  0  0
 28 63  1  0  0  0  0
 28 66  1  0  0  0  0
 29 67  1  0  0  0  0
 29 85  1  0  0  0  0
 30 62  2  0  0  0  0
 30 69  1  0  0  0  0
 30 85  1  0  0  0  0
 31 68  1  0  0  0  0
 31 74  2  0  0  0  0
 32 70  1  0  0  0  0
 32 75  2  0  0  0  0
 33 48  1  0  0  0  0
 33 71  1  0  0  0  0
 33 76  2  0  0  0  0
 34 57  1  0  0  0  0
 34 64  1  0  0  0  0
 34 77  2  0  0  0  0
 35 56  1  0  0  0  0
 35 70  1  0  0  0  0
 35 78  2  0  0  0  0
 36 58  1  0  0  0  0
 36 72  1  0  0  0  0
 36 79  2  0  0  0  0
 37 65  1  0  0  0  0
 37 69  1  0  0  0  0
 37 80  2  0  0  0  0
 38 41  1  0  0  0  0
 39 48  1  0  0  0  0
 40 64  1  0  0  0  0
 41 43  1  0  0  0  0
 42 44  1  0  0  0  0
 42 45  1  0  0  0  0
 43 47  1  0  0  0  0
 44 49  1  0  0  0  0
 45 65  1  0  0  0  0
 46 49  1  0  0  0  0
 46 65  1  0  0  0  0
 47 71  1  0  0  0  0
 48 64  1  0  0  0  0
 49 63  1  0  0  0  0
 50 58  1  0  0  0  0
 51 59  1  0  0  0  0
 52 60  1  0  0  0  0
 53 60  1  0  0  0  0
 54 60  1  0  0  0  0
 55 73  1  0  0  0  0
 56 59  1  0  0  0  0
 57 60  1  0  0  0  0
 57 72  1  0  0  0  0
 58 73  1  0  0  0  0
 59 82  1  0  0  0  0
 61 63  1  0  0  0  0
M  CHG  1  73   1
M  ISO  4  37 100  59 101  69 100  82 101
M  END
> <Batch ID>
0182

> <Smiles>
CNC(C)C(=O)NC(C(=O)N1Cc2cc([101O:1][101CH:1](C)CC(=O)NC(=O)c3nc([100NH:0][100C:0](=O)N4CCCC(n5nc(-c6ccc(Oc7ccc(F)cc7F)cc6)c(C(N)=O)c5N)C4)sc3N)ccc2CC1C(=O)NC1CCCc2ccccc21)C(C)(C)C

> <Shape>
0.281

> <Color>
0.080

> <Negative vol penalty>
0.000

$$$$

  -OEChem-04052304563D

 83 91  0     1  0  0  0  0  0999 V2000
  -28.2200  -24.3001   18.2675 C   0  0  0  0  0  0  0  0  0  0  0  0
  -26.9767  -24.6666   18.7726 C   0  0  0  0  0  0  0  0  0  0  0  0
  -27.4251  -14.3098   21.8431 C   0  0  0  0  0  0  0  0  0  0  0  0
  -26.2151  -14.7995   19.8101 C   0  0  0  0  0  0  0  0  0  0  0  0
  -29.3836  -24.7870   18.8615 C   0  0  0  0  0  0  0  0  0  0  0  0
  -26.8962  -25.5195   19.8728 C   0  0  0  0  0  0  0  0  0  0  0  0
  -23.4127  -29.1453   19.2694 C   0  0  0  0  0  0  0  0  0  0  0  0
  -27.0578  -12.9683   21.7386 C   0  0  0  0  0  0  0  0  0  0  0  0
  -25.8478  -13.4579   19.7056 C   0  0  0  0  0  0  0  0  0  0  0  0
  -22.0794  -28.7853   19.4601 C   0  0  0  0  0  0  0  0  0  0  0  0
  -24.2915  -10.2303   19.0967 C   0  0  0  0  0  0  0  0  0  0  0  0
  -22.9639   -9.9445   18.7786 C   0  0  0  0  0  0  0  0  0  0  0  0
  -22.1468  -29.7336   21.6772 C   0  0  0  0  0  0  0  0  0  0  0  0
  -22.2376  -11.0972   20.7738 C   0  0  0  0  0  0  0  0  0  0  0  0
  -27.0037  -15.2255   20.8789 C   0  0  0  0  0  0  0  0  0  0  0  0
  -28.5310  -17.2232   20.4499 C   0  0  0  0  0  0  0  0  0  0  0  0
  -29.3172  -25.6540   19.9636 C   0  0  0  0  0  0  0  0  0  0  0  0
  -24.1275  -29.7935   20.2870 C   0  0  0  0  0  0  0  0  0  0  0  0
  -28.0600  -26.0175   20.4830 C   0  0  0  0  0  0  0  0  0  0  0  0
  -23.4883  -30.1030   21.4960 C   0  0  0  0  0  0  0  0  0  0  0  0
  -26.2692  -12.5423   20.6699 C   0  0  0  0  0  0  0  0  0  0  0  0
  -21.4470  -29.0768   20.6652 C   0  0  0  0  0  0  0  0  0  0  0  0
  -24.5923  -10.9495   20.2534 C   0  0  0  0  0  0  0  0  0  0  0  0
  -21.9369  -10.3779   19.6171 C   0  0  0  0  0  0  0  0  0  0  0  0
  -23.5653  -11.3830   21.0920 C   0  0  0  0  0  0  0  0  0  0  0  0
  -27.3822  -16.6115   20.9866 C   0  0  0  0  0  0  0  0  0  0  0  0
  -22.6587  -22.5417   20.0197 C   0  0  0  0  0  0  0  0  0  0  0  0
  -28.4274  -18.5396   20.8277 C   0  0  0  0  0  0  0  0  0  0  0  0
  -22.3845  -22.1962   18.7130 C   0  0  0  0  0  0  0  0  0  0  0  0
  -21.4084  -24.2607   19.4796 C   0  0  0  0  0  0  0  0  0  0  0  0
  -29.5965  -16.6524   19.6788 C   0  0  0  0  0  0  0  0  0  0  0  0
  -26.7056  -29.0970   22.0109 C   0  0  0  0  0  0  0  0  0  0  0  0
  -26.3053  -32.1207   23.1153 C   0  0  0  0  0  0  0  0  0  0  0  0
  -24.1988  -34.7485   23.6668 C   0  0  0  0  0  0  0  0  0  0  0  0
  -20.5300  -26.3591   20.5572 C   0  0  0  0  0  0  0  0  0  0  0  0
  -23.7839  -22.0347   22.2159 C   0  0  0  0  0  0  0  0  0  0  0  0
  -30.6031  -26.1169   20.6015 C   0  0  0  0  0  0  0  0  0  0  0  0
  -25.5573  -30.1991   20.0557 C   0  0  0  0  0  0  0  0  0  0  0  0
  -24.2054  -30.8156   22.6124 C   0  0  0  0  0  0  0  0  0  0  0  0
  -30.4251  -27.3147   21.5311 C   0  0  0  0  0  0  0  0  0  0  0  0
  -26.5966  -21.3128   24.2762 C   0  0  0  0  0  0  0  0  0  0  0  0
  -29.2331  -27.0985   22.4580 C   0  0  0  0  0  0  0  0  0  0  0  0
  -27.2253  -20.0846   23.6141 C   0  0  0  0  0  0  0  0  0  0  0  0
  -25.0711  -21.2784   24.2024 C   0  0  0  0  0  0  0  0  0  0  0  0
  -25.1477  -19.8540   22.1938 C   0  0  0  0  0  0  0  0  0  0  0  0
  -27.9312  -26.9604   21.6596 C   0  0  1  0  0  0  0  0  0  0  0  0
  -26.3395  -30.3961   21.3506 C   0  0  1  0  0  0  0  0  0  0  0  0
  -26.6849  -19.8758   22.1858 C   0  0  2  0  0  0  0  0  0  0  0  0
  -17.9014  -27.1006   21.9459 C   0  0  0  0  0  0  0  0  0  0  0  0
  -24.1526  -37.0700   24.6186 C   0  0  0  0  0  0  0  0  0  0  0  0
  -26.3484  -30.9618   25.9376 C   0  0  0  0  0  0  0  0  0  0  0  0
  -25.3678  -33.1133   26.7609 C   0  0  0  0  0  0  0  0  0  0  0  0
  -27.6111  -33.1039   25.6700 C   0  0  0  0  0  0  0  0  0  0  0  0
  -23.3932  -35.9213   21.0718 C   0  0  0  0  0  0  0  0  0  0  0  0
  -18.1922  -27.3615   20.4721 C   0  0  0  0  0  0  0  0  0  0  0  0
  -25.5444  -32.7497   24.2574 C   0  0  1  0  0  0  0  0  0  0  0  0
  -24.3355  -36.2298   23.3643 C   0  0  2  0  0  0  0  0  0  0  0  0
  -19.6790  -27.5669   20.1651 C   0  0  1  0  0  0  0  0  0  1  0  0
  -26.2047  -32.4670   25.6363 C   0  0  0  0  0  0  0  0  0  0  0  0
  -26.6059  -17.4689   21.6545 N   0  0  0  0  0  0  0  0  0  0  0  0
  -22.1002  -23.7254   20.4609 N   0  0  0  0  0  0  0  0  0  0  0  0
  -27.2681  -18.6327   21.5402 N   0  0  0  0  0  0  0  0  0  0  0  0
  -25.6042  -31.1859   22.3404 N   0  0  0  0  0  0  0  0  0  0  0  0
  -24.6320  -21.0820   22.8191 N   0  0  0  0  0  0  0  0  0  0  0  0
  -29.2157  -19.6150   20.6166 N   0  0  0  0  0  0  0  0  0  0  0  0
  -29.5463  -15.2840   19.3800 N   0  0  0  0  0  0  0  0  0  0  0  0
  -23.4593  -21.7589   20.8881 N   0  0  0  0  0  0  0  0  0  0  0  0
  -20.6763  -25.4716   19.4966 N   0  0  0  0  0  0  0  0  0  0  0  0
  -27.4679  -28.2590   21.2197 N   0  0  0  0  0  0  0  0  0  0  0  0
  -25.4202  -34.1668   23.9337 N   0  0  0  0  0  0  0  0  0  0  0  0
  -23.3144  -36.6505   22.3637 N   0  3  0  0  0  0  0  0  0  0  0  0
  -30.5728  -17.3322   19.2809 O   0  0  0  0  0  0  0  0  0  0  0  0
  -26.3260  -28.8723   23.1542 O   0  0  0  0  0  0  0  0  0  0  0  0
  -27.4762  -32.4520   22.9136 O   0  0  0  0  0  0  0  0  0  0  0  0
  -23.1163  -34.1665   23.6701 O   0  0  0  0  0  0  0  0  0  0  0  0
  -21.0101  -26.2591   21.6827 O   0  0  0  0  0  0  0  0  0  0  0  0
  -23.3976  -23.0366   22.8234 O   0  0  0  0  0  0  0  0  0  0  0  0
  -25.9108  -11.2332   20.5674 O   0  0  0  0  0  0  0  0  0  0  0  0
  -20.1459  -28.7260   20.8542 O   0  0  0  0  0  0  0  0  0  1  0  0
  -20.6619  -10.1047   19.3107 F   0  0  0  0  0  0  0  0  0  0  0  0
  -23.8480  -12.0754   22.2039 F   0  0  0  0  0  0  0  0  0  0  0  0
  -22.8242  -21.0984   18.0920 F   0  0  0  0  0  0  0  0  0  0  0  0
  -21.3861  -23.3938   17.9987 S   0  0  0  0  0  0  0  0  0  0  0  0
  1  2  1  0  0  0  0
  1  5  2  0  0  0  0
  2  6  2  0  0  0  0
  3  8  2  0  0  0  0
  3 15  1  0  0  0  0
  4  9  1  0  0  0  0
  4 15  2  0  0  0  0
  5 17  1  0  0  0  0
  6 19  1  0  0  0  0
  7 10  2  0  0  0  0
  7 18  1  0  0  0  0
  8 21  1  0  0  0  0
  9 21  2  0  0  0  0
 10 22  1  0  0  0  0
 11 12  2  0  0  0  0
 11 23  1  0  0  0  0
 12 24  1  0  0  0  0
 13 20  1  0  0  0  0
 13 22  2  0  0  0  0
 14 24  2  0  0  0  0
 14 25  1  0  0  0  0
 15 26  1  0  0  0  0
 16 26  1  0  0  0  0
 16 28  2  0  0  0  0
 16 31  1  0  0  0  0
 17 19  2  0  0  0  0
 17 37  1  0  0  0  0
 18 20  2  0  0  0  0
 18 38  1  0  0  0  0
 19 46  1  0  0  0  0
 20 39  1  0  0  0  0
 21 78  1  0  0  0  0
 22 79  1  0  0  0  0
 23 25  2  0  0  0  0
 23 78  1  0  0  0  0
 24 80  1  0  0  0  0
 25 81  1  0  0  0  0
 26 60  2  0  0  0  0
 27 29  2  0  0  0  0
 27 61  1  0  0  0  0
 27 67  1  0  0  0  0
 28 62  1  0  0  0  0
 28 65  1  0  0  0  0
 29 82  1  0  0  0  0
 29 83  1  0  0  0  0
 30 61  2  0  0  0  0
 30 68  1  0  0  0  0
 30 83  1  0  0  0  0
 31 66  1  0  0  0  0
 31 72  2  0  0  0  0
 32 47  1  0  0  0  0
 32 69  1  0  0  0  0
 32 73  2  0  0  0  0
 33 56  1  0  0  0  0
 33 63  1  0  0  0  0
 33 74  2  0  0  0  0
 34 57  1  0  0  0  0
 34 70  1  0  0  0  0
 34 75  2  0  0  0  0
 35 58  1  0  0  0  0
 35 68  1  0  0  0  0
 35 76  2  0  0  0  0
 36 64  1  0  0  0  0
 36 67  1  0  0  0  0
 36 77  2  0  0  0  0
 37 40  1  0  0  0  0
 38 47  1  0  0  0  0
 39 63  1  0  0  0  0
 40 42  1  0  0  0  0
 41 43  1  0  0  0  0
 41 44  1  0  0  0  0
 42 46  1  0  0  0  0
 43 48  1  0  0  0  0
 44 64  1  0  0  0  0
 45 48  1  0  0  0  0
 45 64  1  0  0  0  0
 46 69  1  0  0  0  0
 47 63  1  0  0  0  0
 48 62  1  0  0  0  0
 49 55  1  0  0  0  0
 50 57  1  0  0  0  0
 51 59  1  0  0  0  0
 52 59  1  0  0  0  0
 53 59  1  0  0  0  0
 54 71  1  0  0  0  0
 55 58  1  0  0  0  0
 56 59  1  0  0  0  0
 56 70  1  0  0  0  0
 57 71  1  0  0  0  0
 58 79  1  0  0  0  0
 60 62  1  0  0  0  0
M  CHG  1  71   1
M  ISO  4  36 100  58 101  67 100  79 101
M  END
> <Batch ID>
0182

> <Smiles>
CC[101CH:1](C(=O)Nc1nc([100NH:0][100C:0](=O)N2CCCC(n3nc(-c4ccc(Oc5ccc(F)cc5F)cc4)c(C(N)=O)c3N)C2)c(F)s1)[101O:1]c1ccc2c(c1)CN(C(=O)C(NC(=O)C(C)NC)C(C)(C)C)C(C(=O)NC1CCCc3ccccc31)C2

> <Shape>
0.294

> <Color>
0.067

> <Negative vol penalty>
0.000

$$$$

  -OEChem-04052304563D

 86 94  0     1  0  0  0  0  0999 V2000
  -16.4967  -29.2600   22.9630 C   0  0  0  0  0  0  0  0  0  0  0  0
  -17.4741  -29.5746   22.0243 C   0  0  0  0  0  0  0  0  0  0  0  0
  -26.5133  -12.6558   20.7820 C   0  0  0  0  0  0  0  0  0  0  0  0
  -25.1231  -14.1027   19.4363 C   0  0  0  0  0  0  0  0  0  0  0  0
  -16.8660  -28.9004   24.2585 C   0  0  0  0  0  0  0  0  0  0  0  0
  -18.8215  -29.5309   22.3809 C   0  0  0  0  0  0  0  0  0  0  0  0
  -25.2761  -28.0618   19.6431 C   0  0  0  0  0  0  0  0  0  0  0  0
  -25.3734  -12.0312   21.2880 C   0  0  0  0  0  0  0  0  0  0  0  0
  -23.9832  -13.4780   19.9423 C   0  0  0  0  0  0  0  0  0  0  0  0
  -26.5470  -28.6219   19.5206 C   0  0  0  0  0  0  0  0  0  0  0  0
  -22.8414   -9.8137   22.6617 C   0  0  0  0  0  0  0  0  0  0  0  0
  -22.8426   -8.4206   22.7324 C   0  0  0  0  0  0  0  0  0  0  0  0
  -27.0705  -27.9102   21.7653 C   0  0  0  0  0  0  0  0  0  0  0  0
  -23.1540   -8.2995   20.3396 C   0  0  0  0  0  0  0  0  0  0  0  0
  -26.3881  -13.6916   19.8562 C   0  0  0  0  0  0  0  0  0  0  0  0
  -28.2963  -13.9739   18.1868 C   0  0  0  0  0  0  0  0  0  0  0  0
  -18.2190  -28.8428   24.6284 C   0  0  0  0  0  0  0  0  0  0  0  0
  -24.8884  -27.4302   20.8336 C   0  0  0  0  0  0  0  0  0  0  0  0
  -19.2092  -29.1714   23.6829 C   0  0  0  0  0  0  0  0  0  0  0  0
  -25.7950  -27.3406   21.8995 C   0  0  0  0  0  0  0  0  0  0  0  0
  -24.1083  -12.4422   20.8682 C   0  0  0  0  0  0  0  0  0  0  0  0
  -27.4434  -28.5487   20.5828 C   0  0  0  0  0  0  0  0  0  0  0  0
  -22.9964  -10.4496   21.4300 C   0  0  0  0  0  0  0  0  0  0  0  0
  -22.9990   -7.6635   21.5714 C   0  0  0  0  0  0  0  0  0  0  0  0
  -23.1528   -9.6925   20.2689 C   0  0  0  0  0  0  0  0  0  0  0  0
  -27.5652  -14.3377   19.3336 C   0  0  0  0  0  0  0  0  0  0  0  0
  -27.3151  -23.4825   17.2602 C   0  0  0  0  0  0  0  0  0  0  0  0
  -28.3948  -23.9766   17.9618 C   0  0  0  0  0  0  0  0  0  0  0  0
  -29.3143  -14.8937   18.1226 C   0  0  0  0  0  0  0  0  0  0  0  0
  -28.4857  -21.8932   18.6409 C   0  0  0  0  0  0  0  0  0  0  0  0
  -28.0749  -12.9006   17.2623 C   0  0  0  0  0  0  0  0  0  0  0  0
  -22.6258  -27.9369   23.0078 C   0  0  0  0  0  0  0  0  0  0  0  0
  -23.7089  -25.1305   24.2215 C   0  0  0  0  0  0  0  0  0  0  0  0
  -29.9013  -25.8998   18.5734 C   0  0  0  0  0  0  0  0  0  0  0  0
  -26.2706  -22.8937   24.5064 C   0  0  0  0  0  0  0  0  0  0  0  0
  -29.9058  -20.4776   20.1659 C   0  0  0  0  0  0  0  0  0  0  0  0
  -18.5676  -28.4946   26.0538 C   0  0  0  0  0  0  0  0  0  0  0  0
  -23.5234  -26.8076   20.9403 C   0  0  0  0  0  0  0  0  0  0  0  0
  -25.4348  -26.6555   23.1915 C   0  0  0  0  0  0  0  0  0  0  0  0
  -20.0321  -28.1091   26.2459 C   0  0  0  0  0  0  0  0  0  0  0  0
  -32.0058  -17.7019   20.9161 C   0  0  0  0  0  0  0  0  0  0  0  0
  -20.9438  -29.1046   25.5356 C   0  0  0  0  0  0  0  0  0  0  0  0
  -31.1744  -16.4914   20.4854 C   0  0  0  0  0  0  0  0  0  0  0  0
  -31.1357  -18.7999   21.5252 C   0  0  0  0  0  0  0  0  0  0  0  0
  -29.1701  -18.0149   20.2644 C   0  0  0  0  0  0  0  0  0  0  0  0
  -20.6822  -29.1114   24.0246 C   0  0  1  0  0  0  0  0  0  0  0  0
  -23.0542  -26.6398   22.3822 C   0  0  1  0  0  0  0  0  0  0  0  0
  -29.9949  -16.9093   19.5855 C   0  0  2  0  0  0  0  0  0  0  0  0
  -27.0895  -24.7258   15.0792 C   0  0  0  0  0  0  0  0  0  0  0  0
  -25.5743  -25.2889   17.0136 C   0  0  0  0  0  0  0  0  0  0  0  0
  -27.4513  -20.7755   25.1520 C   0  0  0  0  0  0  0  0  0  0  0  0
  -30.6283  -28.6686   21.8061 C   0  0  0  0  0  0  0  0  0  0  0  0
  -24.0431  -26.5602   26.8962 C   0  0  0  0  0  0  0  0  0  0  0  0
  -25.4944  -24.6641   27.6492 C   0  0  0  0  0  0  0  0  0  0  0  0
  -23.1067  -24.2470   27.0596 C   0  0  0  0  0  0  0  0  0  0  0  0
  -25.4354  -21.5319   22.0151 C   0  0  0  0  0  0  0  0  0  0  0  0
  -30.0339  -27.3728   18.2063 C   0  0  0  0  0  0  0  0  0  0  0  0
  -30.6276  -28.2362   19.3227 C   0  0  0  0  0  0  0  0  0  0  0  0
  -26.3855  -24.1616   16.3346 C   0  0  0  0  0  0  0  0  0  0  0  0
  -24.7704  -24.7362   25.2198 C   0  0  1  0  0  0  0  0  0  0  0  0
  -26.3121  -21.3844   24.3492 C   0  0  2  0  0  0  0  0  0  0  0  0
  -29.7979  -28.2149   20.6123 C   0  0  2  0  0  0  0  0  0  1  0  0
  -24.3601  -25.0666   26.6827 C   0  0  0  0  0  0  0  0  0  0  0  0
  -28.0755  -15.4052   19.9533 N   0  0  0  0  0  0  0  0  0  0  0  0
  -29.0670  -23.0667   18.7544 N   0  0  0  0  0  0  0  0  0  0  0  0
  -29.1382  -15.7200   19.1932 N   0  0  0  0  0  0  0  0  0  0  0  0
  -24.0862  -26.0678   23.2494 N   0  0  0  0  0  0  0  0  0  0  0  0
  -30.0419  -19.1471   20.6153 N   0  0  0  0  0  0  0  0  0  0  0  0
  -30.3341  -15.0680   17.2553 N   0  0  0  0  0  0  0  0  0  0  0  0
  -26.9826  -12.0489   17.4765 N   0  0  0  0  0  0  0  0  0  0  0  0
  -28.8251  -25.3236   17.9043 N   0  0  0  0  0  0  0  0  0  0  0  0
  -28.8493  -20.6813   19.2789 N   0  0  0  0  0  0  0  0  0  0  0  0
  -21.3008  -27.9621   23.3994 N   0  0  0  0  0  0  0  0  0  0  0  0
  -25.0501  -23.3242   24.9821 N   0  0  0  0  0  0  0  0  0  0  0  0
  -26.4982  -21.0177   22.9168 N   0  3  0  0  0  0  0  0  0  0  0  0
  -28.8331  -12.6927   16.2849 O   0  0  0  0  0  0  0  0  0  0  0  0
  -23.4376  -28.8470   23.1278 O   0  0  0  0  0  0  0  0  0  0  0  0
  -22.5884  -24.6201   24.2968 O   0  0  0  0  0  0  0  0  0  0  0  0
  -30.6817  -25.3468   19.3412 O   0  0  0  0  0  0  0  0  0  0  0  0
  -27.2266  -23.6179   24.2380 O   0  0  0  0  0  0  0  0  0  0  0  0
  -30.6867  -21.3649   20.5191 O   0  0  0  0  0  0  0  0  0  0  0  0
  -22.9958  -11.8328   21.3615 O   0  0  0  0  0  0  0  0  0  0  0  0
  -28.6842  -29.0951   20.4661 O   0  0  0  0  0  0  0  0  0  1  0  0
  -23.0016   -6.3258   21.6396 F   0  0  0  0  0  0  0  0  0  0  0  0
  -23.3033  -10.2979   19.0829 F   0  0  0  0  0  0  0  0  0  0  0  0
  -27.1257  -21.8117   17.5975 S   0  0  0  0  0  0  0  0  0  0  0  0
  1  2  1  0  0  0  0
  1  5  2  0  0  0  0
  2  6  2  0  0  0  0
  3  8  2  0  0  0  0
  3 15  1  0  0  0  0
  4  9  1  0  0  0  0
  4 15  2  0  0  0  0
  5 17  1  0  0  0  0
  6 19  1  0  0  0  0
  7 10  2  0  0  0  0
  7 18  1  0  0  0  0
  8 21  1  0  0  0  0
  9 21  2  0  0  0  0
 10 22  1  0  0  0  0
 11 12  2  0  0  0  0
 11 23  1  0  0  0  0
 12 24  1  0  0  0  0
 13 20  1  0  0  0  0
 13 22  2  0  0  0  0
 14 24  2  0  0  0  0
 14 25  1  0  0  0  0
 15 26  1  0  0  0  0
 16 26  1  0  0  0  0
 16 29  2  0  0  0  0
 16 31  1  0  0  0  0
 17 19  2  0  0  0  0
 17 37  1  0  0  0  0
 18 20  2  0  0  0  0
 18 38  1  0  0  0  0
 19 46  1  0  0  0  0
 20 39  1  0  0  0  0
 21 82  1  0  0  0  0
 22 83  1  0  0  0  0
 23 25  2  0  0  0  0
 23 82  1  0  0  0  0
 24 84  1  0  0  0  0
 25 85  1  0  0  0  0
 26 64  2  0  0  0  0
 27 28  2  0  0  0  0
 27 59  1  0  0  0  0
 27 86  1  0  0  0  0
 28 65  1  0  0  0  0
 28 71  1  0  0  0  0
 29 66  1  0  0  0  0
 29 69  1  0  0  0  0
 30 65  2  0  0  0  0
 30 72  1  0  0  0  0
 30 86  1  0  0  0  0
 31 70  1  0  0  0  0
 31 76  2  0  0  0  0
 32 47  1  0  0  0  0
 32 73  1  0  0  0  0
 32 77  2  0  0  0  0
 33 60  1  0  0  0  0
 33 67  1  0  0  0  0
 33 78  2  0  0  0  0
 34 57  1  0  0  0  0
 34 71  1  0  0  0  0
 34 79  2  0  0  0  0
 35 61  1  0  0  0  0
 35 74  1  0  0  0  0
 35 80  2  0  0  0  0
 36 68  1  0  0  0  0
 36 72  1  0  0  0  0
 36 81  2  0  0  0  0
 37 40  1  0  0  0  0
 38 47  1  0  0  0  0
 39 67  1  0  0  0  0
 40 42  1  0  0  0  0
 41 43  1  0  0  0  0
 41 44  1  0  0  0  0
 42 46  1  0  0  0  0
 43 48  1  0  0  0  0
 44 68  1  0  0  0  0
 45 48  1  0  0  0  0
 45 68  1  0  0  0  0
 46 73  1  0  0  0  0
 47 67  1  0  0  0  0
 48 66  1  0  0  0  0
 49 59  1  0  0  0  0
 50 59  1  0  0  0  0
 51 61  1  0  0  0  0
 52 62  1  0  0  0  0
 53 63  1  0  0  0  0
 54 63  1  0  0  0  0
 55 63  1  0  0  0  0
 56 75  1  0  0  0  0
 57 58  1  0  0  0  0
 58 62  1  0  0  0  0
 60 63  1  0  0  0  0
 60 74  1  0  0  0  0
 61 75  1  0  0  0  0
 62 83  1  0  0  0  0
 64 66  1  0  0  0  0
M  CHG  1  75   1
M  ISO  4  36 100  62 101  72 100  83 101
M  END
> <Batch ID>
0182

> <Smiles>
CNC(C)C(=O)NC(C(=O)N1Cc2cc([101O:1][101CH:1](C)CCC(=O)Nc3nc([100NH:0][100C:0](=O)N4CCCC(n5nc(-c6ccc(Oc7ccc(F)cc7F)cc6)c(C(N)=O)c5N)C4)sc3C(C)C)ccc2CC1C(=O)NC1CCCc2ccccc21)C(C)(C)C

> <Shape>
0.249

> <Color>
0.121

> <Negative vol penalty>
0.000

$$$$

  -OEChem-04052304563D

 83 91  0     1  0  0  0  0  0999 V2000
  -19.8485  -34.3342   22.3464 C   0  0  0  0  0  0  0  0  0  0  0  0
  -21.0924  -33.9225   21.8787 C   0  0  0  0  0  0  0  0  0  0  0  0
  -26.1337  -12.8190   21.7185 C   0  0  0  0  0  0  0  0  0  0  0  0
  -25.9035  -13.6300   19.4543 C   0  0  0  0  0  0  0  0  0  0  0  0
  -19.1629  -33.5558   23.2781 C   0  0  0  0  0  0  0  0  0  0  0  0
  -21.6518  -32.7327   22.3431 C   0  0  0  0  0  0  0  0  0  0  0  0
  -25.1249  -28.8122   19.1693 C   0  0  0  0  0  0  0  0  0  0  0  0
  -24.9400  -12.1097   21.5859 C   0  0  0  0  0  0  0  0  0  0  0  0
  -24.7098  -12.9207   19.3217 C   0  0  0  0  0  0  0  0  0  0  0  0
  -26.5050  -28.6279   19.0973 C   0  0  0  0  0  0  0  0  0  0  0  0
  -23.9056   -9.2156   20.1763 C   0  0  0  0  0  0  0  0  0  0  0  0
  -23.8787   -7.8997   20.6380 C   0  0  0  0  0  0  0  0  0  0  0  0
  -26.3506  -26.8735   20.7459 C   0  0  0  0  0  0  0  0  0  0  0  0
  -22.1125   -8.4774   22.1820 C   0  0  0  0  0  0  0  0  0  0  0  0
  -26.6155  -13.5792   20.6527 C   0  0  0  0  0  0  0  0  0  0  0  0
  -29.1465  -13.8555   20.4934 C   0  0  0  0  0  0  0  0  0  0  0  0
  -19.7098  -32.3510   23.7470 C   0  0  0  0  0  0  0  0  0  0  0  0
  -24.3474  -28.0347   20.0396 C   0  0  0  0  0  0  0  0  0  0  0  0
  -20.9734  -31.9381   23.2829 C   0  0  0  0  0  0  0  0  0  0  0  0
  -24.9605  -27.0482   20.8252 C   0  0  0  0  0  0  0  0  0  0  0  0
  -24.2281  -12.1606   20.3875 C   0  0  0  0  0  0  0  0  0  0  0  0
  -27.1184  -27.6604   19.8878 C   0  0  0  0  0  0  0  0  0  0  0  0
  -23.0360  -10.1625   20.7175 C   0  0  0  0  0  0  0  0  0  0  0  0
  -22.9822   -7.5305   21.6408 C   0  0  0  0  0  0  0  0  0  0  0  0
  -22.1394   -9.7934   21.7203 C   0  0  0  0  0  0  0  0  0  0  0  0
  -27.8482  -14.3125   20.7893 C   0  0  0  0  0  0  0  0  0  0  0  0
  -29.2498  -23.3789   17.4270 C   0  0  0  0  0  0  0  0  0  0  0  0
  -29.9614  -14.9203   20.7911 C   0  0  0  0  0  0  0  0  0  0  0  0
  -28.8693  -22.5385   16.4018 C   0  0  0  0  0  0  0  0  0  0  0  0
  -28.9128  -21.5577   18.6014 C   0  0  0  0  0  0  0  0  0  0  0  0
  -29.5772  -12.5824   19.9941 C   0  0  0  0  0  0  0  0  0  0  0  0
  -29.6202  -24.8067   17.2496 C   0  0  0  0  0  0  0  0  0  0  0  0
  -22.4894  -28.6505   22.5441 C   0  0  0  0  0  0  0  0  0  0  0  0
  -21.8059  -25.4872   22.3220 C   0  0  0  0  0  0  0  0  0  0  0  0
  -22.7626  -22.3830   21.2753 C   0  0  0  0  0  0  0  0  0  0  0  0
  -29.0514  -20.8221   21.0068 C   0  0  0  0  0  0  0  0  0  0  0  0
  -18.9527  -31.5672   24.7895 C   0  0  0  0  0  0  0  0  0  0  0  0
  -22.8564  -28.2277   20.0859 C   0  0  0  0  0  0  0  0  0  0  0  0
  -24.1680  -26.1736   21.7608 C   0  0  0  0  0  0  0  0  0  0  0  0
  -19.4460  -30.1314   24.9495 C   0  0  0  0  0  0  0  0  0  0  0  0
  -30.2233  -18.7500   23.6545 C   0  0  0  0  0  0  0  0  0  0  0  0
  -20.9688  -30.0961   25.0301 C   0  0  0  0  0  0  0  0  0  0  0  0
  -29.8708  -17.3348   23.1905 C   0  0  0  0  0  0  0  0  0  0  0  0
  -29.1521  -19.7620   23.2521 C   0  0  0  0  0  0  0  0  0  0  0  0
  -28.4498  -18.3467   21.3619 C   0  0  0  0  0  0  0  0  0  0  0  0
  -21.6021  -30.6412   23.7443 C   0  0  1  0  0  0  0  0  0  0  0  0
  -22.2296  -27.7304   21.3849 C   0  0  1  0  0  0  0  0  0  0  0  0
  -29.5306  -17.3029   21.6876 C   0  0  2  0  0  0  0  0  0  0  0  0
  -22.0130  -19.9881   21.2700 C   0  0  0  0  0  0  0  0  0  0  0  0
  -31.3612  -27.1615   19.4905 C   0  0  0  0  0  0  0  0  0  0  0  0
  -22.5772  -25.2418   25.2639 C   0  0  0  0  0  0  0  0  0  0  0  0
  -22.7295  -22.7632   24.9452 C   0  0  0  0  0  0  0  0  0  0  0  0
  -20.5521  -23.9314   24.6035 C   0  0  0  0  0  0  0  0  0  0  0  0
  -22.7090  -22.2852   18.3179 C   0  0  0  0  0  0  0  0  0  0  0  0
  -29.0969  -27.7622   18.5720 C   0  0  0  0  0  0  0  0  0  1  0  0
  -22.3960  -24.2229   22.8985 C   0  0  1  0  0  0  0  0  0  0  0  0
  -22.0182  -21.3047   20.5088 C   0  0  2  0  0  0  0  0  0  0  0  0
  -30.3361  -26.8861   18.3982 C   0  0  2  0  0  0  0  0  0  0  0  0
  -22.0792  -24.0575   24.4117 C   0  0  0  0  0  0  0  0  0  0  0  0
  -27.8344  -15.5696   21.2405 N   0  0  0  0  0  0  0  0  0  0  0  0
  -29.2749  -22.8183   18.6891 N   0  0  0  0  0  0  0  0  0  0  0  0
  -29.1340  -15.9116   21.2304 N   0  0  0  0  0  0  0  0  0  0  0  0
  -22.7141  -26.4048   21.7750 N   0  0  0  0  0  0  0  0  0  0  0  0
  -28.8851  -19.6773   21.8146 N   0  0  0  0  0  0  0  0  0  0  0  0
  -31.2979  -15.0960   20.7173 N   0  0  0  0  0  0  0  0  0  0  0  0
  -28.7578  -22.8221   15.0807 N   0  0  0  0  0  0  0  0  0  0  0  0
  -28.6087  -11.6012   19.7419 N   0  0  0  0  0  0  0  0  0  0  0  0
  -28.8002  -20.6127   19.6512 N   0  0  0  0  0  0  0  0  0  0  0  0
  -29.9747  -25.4867   18.4038 N   0  0  0  0  0  0  0  0  0  0  0  0
  -21.5453  -29.6485   22.6927 N   0  0  0  0  0  0  0  0  0  0  0  0
  -21.9119  -23.1289   22.0636 N   0  0  0  0  0  0  0  0  0  0  0  0
  -22.6572  -21.0777   19.1817 N   0  3  0  0  0  0  0  0  0  0  0  0
  -30.7867  -12.3171   19.7935 O   0  0  0  0  0  0  0  0  0  0  0  0
  -29.5751  -25.3032   16.1271 O   0  0  0  0  0  0  0  0  0  0  0  0
  -23.4726  -28.4674   23.2522 O   0  0  0  0  0  0  0  0  0  0  0  0
  -20.5837  -25.6514   22.3493 O   0  0  0  0  0  0  0  0  0  0  0  0
  -23.9777  -22.5449   21.1868 O   0  0  0  0  0  0  0  0  0  0  0  0
  -29.4180  -21.9015   21.4786 O   0  0  0  0  0  0  0  0  0  0  0  0
  -23.0633  -11.4684   20.2576 O   0  0  0  0  0  0  0  0  0  0  0  0
  -28.4654  -27.4788   19.8199 O   0  0  0  0  0  0  0  0  0  1  0  0
  -22.9554   -6.2664   22.0829 F   0  0  0  0  0  0  0  0  0  0  0  0
  -21.3008  -10.6983   22.2433 F   0  0  0  0  0  0  0  0  0  0  0  0
  -28.5287  -20.9802   17.0317 S   0  0  0  0  0  0  0  0  0  0  0  0
  1  2  1  0  0  0  0
  1  5  2  0  0  0  0
  2  6  2  0  0  0  0
  3  8  2  0  0  0  0
  3 15  1  0  0  0  0
  4  9  1  0  0  0  0
  4 15  2  0  0  0  0
  5 17  1  0  0  0  0
  6 19  1  0  0  0  0
  7 10  2  0  0  0  0
  7 18  1  0  0  0  0
  8 21  1  0  0  0  0
  9 21  2  0  0  0  0
 10 22  1  0  0  0  0
 11 12  2  0  0  0  0
 11 23  1  0  0  0  0
 12 24  1  0  0  0  0
 13 20  1  0  0  0  0
 13 22  2  0  0  0  0
 14 24  2  0  0  0  0
 14 25  1  0  0  0  0
 15 26  1  0  0  0  0
 16 26  1  0  0  0  0
 16 28  2  0  0  0  0
 16 31  1  0  0  0  0
 17 19  2  0  0  0  0
 17 37  1  0  0  0  0
 18 20  2  0  0  0  0
 18 38  1  0  0  0  0
 19 46  1  0  0  0  0
 20 39  1  0  0  0  0
 21 79  1  0  0  0  0
 22 80  1  0  0  0  0
 23 25  2  0  0  0  0
 23 79  1  0  0  0  0
 24 81  1  0  0  0  0
 25 82  1  0  0  0  0
 26 60  2  0  0  0  0
 27 29  2  0  0  0  0
 27 32  1  0  0  0  0
 27 61  1  0  0  0  0
 28 62  1  0  0  0  0
 28 65  1  0  0  0  0
 29 66  1  0  0  0  0
 29 83  1  0  0  0  0
 30 61  2  0  0  0  0
 30 68  1  0  0  0  0
 30 83  1  0  0  0  0
 31 67  1  0  0  0  0
 31 73  2  0  0  0  0
 32 69  1  0  0  0  0
 32 74  2  0  0  0  0
 33 47  1  0  0  0  0
 33 70  1  0  0  0  0
 33 75  2  0  0  0  0
 34 56  1  0  0  0  0
 34 63  1  0  0  0  0
 34 76  2  0  0  0  0
 35 57  1  0  0  0  0
 35 71  1  0  0  0  0
 35 77  2  0  0  0  0
 36 64  1  0  0  0  0
 36 68  1  0  0  0  0
 36 78  2  0  0  0  0
 37 40  1  0  0  0  0
 38 47  1  0  0  0  0
 39 63  1  0  0  0  0
 40 42  1  0  0  0  0
 41 43  1  0  0  0  0
 41 44  1  0  0  0  0
 42 46  1  0  0  0  0
 43 48  1  0  0  0  0
 44 64  1  0  0  0  0
 45 48  1  0  0  0  0
 45 64  1  0  0  0  0
 46 70  1  0  0  0  0
 47 63  1  0  0  0  0
 48 62  1  0  0  0  0
 49 57  1  0  0  0  0
 50 58  1  0  0  0  0
 51 59  1  0  0  0  0
 52 59  1  0  0  0  0
 53 59  1  0  0  0  0
 54 72  1  0  0  0  0
 55 58  1  0  0  0  0
 55 80  1  0  0  0  0
 56 59  1  0  0  0  0
 56 71  1  0  0  0  0
 57 72  1  0  0  0  0
 58 69  1  0  0  0  0
 60 62  1  0  0  0  0
M  CHG  1  72   1
M  ISO  4  36 100  55 101  68 100  80 101
M  END
> <Batch ID>
0182

> <Smiles>
CNC(C)C(=O)NC(C(=O)N1Cc2cc([101O:1][101CH2:1]C(C)NC(=O)c3nc([100NH:0][100C:0](=O)N4CCCC(n5nc(-c6ccc(Oc7ccc(F)cc7F)cc6)c(C(N)=O)c5N)C4)sc3N)ccc2CC1C(=O)NC1CCCc2ccccc21)C(C)(C)C

> <Shape>
0.264

> <Color>
0.114

> <Negative vol penalty>
0.000

$$$$

  -OEChem-04052304563D

 83 91  0     1  0  0  0  0  0999 V2000
  -32.5822  -32.4569   16.3706 C   0  0  0  0  0  0  0  0  0  0  0  0
  -32.4101  -31.5296   17.3932 C   0  0  0  0  0  0  0  0  0  0  0  0
  -23.1360   -9.7773   20.1896 C   0  0  0  0  0  0  0  0  0  0  0  0
  -23.7820  -10.1080   22.4941 C   0  0  0  0  0  0  0  0  0  0  0  0
  -31.8201  -33.6244   16.3541 C   0  0  0  0  0  0  0  0  0  0  0  0
  -31.4764  -31.7697   18.4007 C   0  0  0  0  0  0  0  0  0  0  0  0
  -28.6737  -27.6883   19.4647 C   0  0  0  0  0  0  0  0  0  0  0  0
  -22.4008   -8.6504   20.5574 C   0  0  0  0  0  0  0  0  0  0  0  0
  -23.0468   -8.9811   22.8619 C   0  0  0  0  0  0  0  0  0  0  0  0
  -29.2610  -26.7008   20.2544 C   0  0  0  0  0  0  0  0  0  0  0  0
  -19.8072   -8.1944   23.4157 C   0  0  0  0  0  0  0  0  0  0  0  0
  -18.9944   -8.2930   24.5450 C   0  0  0  0  0  0  0  0  0  0  0  0
  -28.0870  -27.5524   22.1820 C   0  0  0  0  0  0  0  0  0  0  0  0
  -20.2315   -6.5011   25.5918 C   0  0  0  0  0  0  0  0  0  0  0  0
  -23.8267  -10.5060   21.1580 C   0  0  0  0  0  0  0  0  0  0  0  0
  -24.1303  -13.0000   20.7158 C   0  0  0  0  0  0  0  0  0  0  0  0
  -30.8698  -33.8743   17.3566 C   0  0  0  0  0  0  0  0  0  0  0  0
  -27.7955  -28.6236   20.0309 C   0  0  0  0  0  0  0  0  0  0  0  0
  -30.7018  -32.9422   18.3984 C   0  0  0  0  0  0  0  0  0  0  0  0
  -27.4878  -28.5492   21.3969 C   0  0  0  0  0  0  0  0  0  0  0  0
  -22.3562   -8.2524   21.8936 C   0  0  0  0  0  0  0  0  0  0  0  0
  -28.9700  -26.6345   21.6138 C   0  0  0  0  0  0  0  0  0  0  0  0
  -20.8321   -7.2491   23.3744 C   0  0  0  0  0  0  0  0  0  0  0  0
  -19.2066   -7.4464   25.6330 C   0  0  0  0  0  0  0  0  0  0  0  0
  -21.0442   -6.4025   24.4624 C   0  0  0  0  0  0  0  0  0  0  0  0
  -24.5868  -11.6698   20.7786 C   0  0  0  0  0  0  0  0  0  0  0  0
  -30.4495  -19.5059   22.3273 C   0  0  0  0  0  0  0  0  0  0  0  0
  -31.5928  -19.0693   21.6914 C   0  0  0  0  0  0  0  0  0  0  0  0
  -25.2258  -13.7201   20.3062 C   0  0  0  0  0  0  0  0  0  0  0  0
  -30.4044  -17.2330   21.5308 C   0  0  0  0  0  0  0  0  0  0  0  0
  -30.1254  -21.9442   22.2047 C   0  0  0  0  0  0  0  0  0  0  0  0
  -22.8320  -13.5368   21.0023 C   0  0  0  0  0  0  0  0  0  0  0  0
  -30.1256  -20.8129   22.9325 C   0  0  0  0  0  0  0  0  0  0  0  0
  -29.8015  -23.2968   22.7511 C   0  0  0  0  0  0  0  0  0  0  0  0
  -27.7955  -31.7847   20.3647 C   0  0  0  0  0  0  0  0  0  0  0  0
  -24.8053  -31.2729   21.5132 C   0  0  0  0  0  0  0  0  0  0  0  0
  -22.5883  -29.1233   22.9661 C   0  0  0  0  0  0  0  0  0  0  0  0
  -30.6580  -14.9089   20.5924 C   0  0  0  0  0  0  0  0  0  0  0  0
  -30.1030  -35.1726   17.3225 C   0  0  0  0  0  0  0  0  0  0  0  0
  -27.1494  -29.6662   19.1602 C   0  0  0  0  0  0  0  0  0  0  0  0
  -26.5359  -29.5170   22.0492 C   0  0  0  0  0  0  0  0  0  0  0  0
  -28.8698  -35.1755   18.2222 C   0  0  0  0  0  0  0  0  0  0  0  0
  -29.7032  -12.1753   18.5205 C   0  0  0  0  0  0  0  0  0  0  0  0
  -29.2112  -34.6112   19.5977 C   0  0  0  0  0  0  0  0  0  0  0  0
  -28.2494  -11.9095   18.9181 C   0  0  0  0  0  0  0  0  0  0  0  0
  -30.5540  -12.5838   19.7217 C   0  0  0  0  0  0  0  0  0  0  0  0
  -28.5693  -13.4405   20.9033 C   0  0  0  0  0  0  0  0  0  0  0  0
  -29.6814  -33.1552   19.4955 C   0  0  1  0  0  0  0  0  0  0  0  0
  -26.6689  -30.8842   19.9431 C   0  0  1  0  0  0  0  0  0  0  0  0
  -27.6586  -13.0888   19.7155 C   0  0  2  0  0  0  0  0  0  0  0  0
  -20.2311  -29.0031   23.8186 C   0  0  0  0  0  0  0  0  0  0  0  0
  -25.6270  -32.8402   23.9989 C   0  0  0  0  0  0  0  0  0  0  0  0
  -23.6292  -31.8914   25.1723 C   0  0  0  0  0  0  0  0  0  0  0  0
  -23.3229  -33.3401   23.1648 C   0  0  0  0  0  0  0  0  0  0  0  0
  -21.8753  -26.9964   21.0355 C   0  0  0  0  0  0  0  0  0  0  0  0
  -29.8621  -24.4343   21.7527 C   0  0  0  0  0  0  0  0  0  1  0  0
  -24.2164  -30.9928   22.8747 C   0  0  1  0  0  0  0  0  0  0  0  0
  -21.1491  -28.7792   22.6270 C   0  0  2  0  0  0  0  0  0  0  0  0
  -24.2184  -32.2489   23.7911 C   0  0  0  0  0  0  0  0  0  0  0  0
  -25.8721  -11.5491   20.4361 N   0  0  0  0  0  0  0  0  0  0  0  0
  -31.5689  -17.7661   21.2344 N   0  0  0  0  0  0  0  0  0  0  0  0
  -26.2326  -12.8127   20.1541 N   0  0  0  0  0  0  0  0  0  0  0  0
  -25.9346  -30.5221   21.1571 N   0  0  0  0  0  0  0  0  0  0  0  0
  -29.9349  -13.7088   20.4259 N   0  0  0  0  0  0  0  0  0  0  0  0
  -32.6964  -19.8337   21.5038 N   0  0  0  0  0  0  0  0  0  0  0  0
  -25.4165  -15.0345   20.0649 N   0  0  0  0  0  0  0  0  0  0  0  0
  -21.8206  -12.6570   21.4113 N   0  0  0  0  0  0  0  0  0  0  0  0
  -29.9553  -15.9192   21.2483 N   0  0  0  0  0  0  0  0  0  0  0  0
  -28.5506  -32.2704   19.3143 N   0  0  0  0  0  0  0  0  0  0  0  0
  -22.8923  -30.4277   22.6384 N   0  0  0  0  0  0  0  0  0  0  0  0
  -21.0416  -27.3518   22.2126 N   0  3  0  0  0  0  0  0  0  0  0  0
  -22.5719  -14.7581   20.8828 O   0  0  0  0  0  0  0  0  0  0  0  0
  -29.5069  -23.4742   23.9294 O   0  0  0  0  0  0  0  0  0  0  0  0
  -27.9660  -32.0224   21.5547 O   0  0  0  0  0  0  0  0  0  0  0  0
  -24.2783  -32.1214   20.7893 O   0  0  0  0  0  0  0  0  0  0  0  0
  -23.3639  -28.3168   23.4744 O   0  0  0  0  0  0  0  0  0  0  0  0
  -31.8056  -15.0405   20.1592 O   0  0  0  0  0  0  0  0  0  0  0  0
  -29.8128  -20.7426   24.2738 O   0  0  0  0  0  0  0  0  0  0  0  0
  -21.6387   -7.1530   22.2529 O   0  0  0  0  0  0  0  0  0  0  0  0
  -29.5425  -25.6720   22.3870 O   0  0  0  0  0  0  0  0  0  1  0  0
  -18.4270   -7.5422   26.7180 F   0  0  0  0  0  0  0  0  0  0  0  0
  -22.0280   -5.4931   24.4291 F   0  0  0  0  0  0  0  0  0  0  0  0
  -29.2902  -18.2424   22.3583 S   0  0  0  0  0  0  0  0  0  0  0  0
  1  2  1  0  0  0  0
  1  5  2  0  0  0  0
  2  6  2  0  0  0  0
  3  8  2  0  0  0  0
  3 15  1  0  0  0  0
  4  9  1  0  0  0  0
  4 15  2  0  0  0  0
  5 17  1  0  0  0  0
  6 19  1  0  0  0  0
  7 10  2  0  0  0  0
  7 18  1  0  0  0  0
  8 21  1  0  0  0  0
  9 21  2  0  0  0  0
 10 22  1  0  0  0  0
 11 12  2  0  0  0  0
 11 23  1  0  0  0  0
 12 24  1  0  0  0  0
 13 20  1  0  0  0  0
 13 22  2  0  0  0  0
 14 24  2  0  0  0  0
 14 25  1  0  0  0  0
 15 26  1  0  0  0  0
 16 26  1  0  0  0  0
 16 29  2  0  0  0  0
 16 32  1  0  0  0  0
 17 19  2  0  0  0  0
 17 39  1  0  0  0  0
 18 20  2  0  0  0  0
 18 40  1  0  0  0  0
 19 48  1  0  0  0  0
 20 41  1  0  0  0  0
 21 79  1  0  0  0  0
 22 80  1  0  0  0  0
 23 25  2  0  0  0  0
 23 79  1  0  0  0  0
 24 81  1  0  0  0  0
 25 82  1  0  0  0  0
 26 60  2  0  0  0  0
 27 28  2  0  0  0  0
 27 33  1  0  0  0  0
 27 83  1  0  0  0  0
 28 61  1  0  0  0  0
 28 65  1  0  0  0  0
 29 62  1  0  0  0  0
 29 66  1  0  0  0  0
 30 61  2  0  0  0  0
 30 68  1  0  0  0  0
 30 83  1  0  0  0  0
 31 33  2  0  0  0  0
 31 34  1  0  0  0  0
 32 67  1  0  0  0  0
 32 72  2  0  0  0  0
 33 78  1  0  0  0  0
 34 56  1  0  0  0  0
 34 73  2  0  0  0  0
 35 49  1  0  0  0  0
 35 69  1  0  0  0  0
 35 74  2  0  0  0  0
 36 57  1  0  0  0  0
 36 63  1  0  0  0  0
 36 75  2  0  0  0  0
 37 58  1  0  0  0  0
 37 70  1  0  0  0  0
 37 76  2  0  0  0  0
 38 64  1  0  0  0  0
 38 68  1  0  0  0  0
 38 77  2  0  0  0  0
 39 42  1  0  0  0  0
 40 49  1  0  0  0  0
 41 63  1  0  0  0  0
 42 44  1  0  0  0  0
 43 45  1  0  0  0  0
 43 46  1  0  0  0  0
 44 48  1  0  0  0  0
 45 50  1  0  0  0  0
 46 64  1  0  0  0  0
 47 50  1  0  0  0  0
 47 64  1  0  0  0  0
 48 69  1  0  0  0  0
 49 63  1  0  0  0  0
 50 62  1  0  0  0  0
 51 58  1  0  0  0  0
 52 59  1  0  0  0  0
 53 59  1  0  0  0  0
 54 59  1  0  0  0  0
 55 71  1  0  0  0  0
 56 80  1  0  0  0  0
 57 59  1  0  0  0  0
 57 70  1  0  0  0  0
 58 71  1  0  0  0  0
 60 62  1  0  0  0  0
M  CHG  1  71   1
M  ISO  4  38 100  56 101  68 100  80 101
M  END
> <Batch ID>
0182

> <Smiles>
CNC(C)C(=O)NC(C(=O)N1Cc2cc([101O:1][101CH2:1]C(=O)CC(=O)c3sc([100NH:0][100C:0](=O)N4CCCC(n5nc(-c6ccc(Oc7ccc(F)cc7F)cc6)c(C(N)=O)c5N)C4)nc3N)ccc2CC1C(=O)NC1CCCc2ccccc21)C(C)(C)C

> <Shape>
0.310

> <Color>
0.187

> <Negative vol penalty>
0.000

$$$$

  -OEChem-04052304563D

 86 94  0     1  0  0  0  0  0999 V2000
  -27.3440  -38.0817   20.4656 C   0  0  0  0  0  0  0  0  0  0  0  0
  -27.7757  -36.8496   19.9850 C   0  0  0  0  0  0  0  0  0  0  0  0
  -22.3674  -10.0486   22.8164 C   0  0  0  0  0  0  0  0  0  0  0  0
  -23.8542   -9.8256   20.9252 C   0  0  0  0  0  0  0  0  0  0  0  0
  -26.8391  -38.1852   21.7611 C   0  0  0  0  0  0  0  0  0  0  0  0
  -27.7037  -35.7205   20.8000 C   0  0  0  0  0  0  0  0  0  0  0  0
  -26.5267  -29.9753   19.0356 C   0  0  0  0  0  0  0  0  0  0  0  0
  -21.8514   -8.7782   22.5605 C   0  0  0  0  0  0  0  0  0  0  0  0
  -23.3382   -8.5552   20.6693 C   0  0  0  0  0  0  0  0  0  0  0  0
  -27.3563  -28.8856   18.7746 C   0  0  0  0  0  0  0  0  0  0  0  0
  -22.7662   -5.5658   23.0861 C   0  0  0  0  0  0  0  0  0  0  0  0
  -22.5987   -4.7037   24.1698 C   0  0  0  0  0  0  0  0  0  0  0  0
  -26.9915  -28.0782   21.0183 C   0  0  0  0  0  0  0  0  0  0  0  0
  -20.2304   -4.5829   23.7078 C   0  0  0  0  0  0  0  0  0  0  0  0
  -23.3688  -10.5723   21.9987 C   0  0  0  0  0  0  0  0  0  0  0  0
  -24.9973  -12.2079   23.0852 C   0  0  0  0  0  0  0  0  0  0  0  0
  -26.7519  -37.0550   22.5891 C   0  0  0  0  0  0  0  0  0  0  0  0
  -25.9310  -30.1306   20.2955 C   0  0  0  0  0  0  0  0  0  0  0  0
  -27.1984  -35.8093   22.1083 C   0  0  0  0  0  0  0  0  0  0  0  0
  -26.1527  -29.1693   21.2919 C   0  0  0  0  0  0  0  0  0  0  0  0
  -22.3368   -8.0315   21.4870 C   0  0  0  0  0  0  0  0  0  0  0  0
  -27.5911  -27.9384   19.7669 C   0  0  0  0  0  0  0  0  0  0  0  0
  -21.6657   -5.9365   22.3132 C   0  0  0  0  0  0  0  0  0  0  0  0
  -21.3309   -4.2123   24.4806 C   0  0  0  0  0  0  0  0  0  0  0  0
  -20.3978   -5.4450   22.6241 C   0  0  0  0  0  0  0  0  0  0  0  0
  -23.9018  -11.8848   22.2622 C   0  0  0  0  0  0  0  0  0  0  0  0
  -28.8028  -18.4951   20.7533 C   0  0  0  0  0  0  0  0  0  0  0  0
  -27.5217  -18.8720   20.4084 C   0  0  0  0  0  0  0  0  0  0  0  0
  -25.0978  -13.5752   23.0019 C   0  0  0  0  0  0  0  0  0  0  0  0
  -28.5082  -20.8184   20.1893 C   0  0  0  0  0  0  0  0  0  0  0  0
  -27.8694  -25.6202   19.6276 C   0  0  0  0  0  0  0  0  0  1  0  0
  -25.8481  -11.3490   23.8559 C   0  0  0  0  0  0  0  0  0  0  0  0
  -28.5736  -24.5043   19.4034 C   0  0  0  0  0  0  0  0  0  0  0  0
  -27.8969  -23.1746   19.5528 C   0  0  0  0  0  0  0  0  0  0  0  0
  -26.0848  -32.3199   22.5949 C   0  0  0  0  0  0  0  0  0  0  0  0
  -23.7316  -30.5258   23.9238 C   0  0  0  0  0  0  0  0  0  0  0  0
  -22.1938  -27.4893   24.1734 C   0  0  0  0  0  0  0  0  0  0  0  0
  -25.0997  -18.2875   20.0359 C   0  0  0  0  0  0  0  0  0  0  0  0
  -26.2430  -37.2252   23.9985 C   0  0  0  0  0  0  0  0  0  0  0  0
  -25.0173  -31.2974   20.5526 C   0  0  0  0  0  0  0  0  0  0  0  0
  -25.5208  -29.2794   22.6546 C   0  0  0  0  0  0  0  0  0  0  0  0
  -25.8521  -35.9101   24.6679 C   0  0  0  0  0  0  0  0  0  0  0  0
  -21.9329  -16.9964   21.0268 C   0  0  0  0  0  0  0  0  0  0  0  0
  -26.9327  -34.8565   24.4465 C   0  0  0  0  0  0  0  0  0  0  0  0
  -22.2530  -15.5780   21.5042 C   0  0  0  0  0  0  0  0  0  0  0  0
  -22.7890  -17.3976   19.8268 C   0  0  0  0  0  0  0  0  0  0  0  0
  -24.5563  -15.8151   20.4915 C   0  0  0  0  0  0  0  0  0  0  0  0
  -27.1134  -34.5569   22.9535 C   0  0  1  0  0  0  0  0  0  0  0  0
  -24.8738  -31.6288   22.0348 C   0  0  1  0  0  0  0  0  0  0  0  0
  -23.7647  -15.3901   21.7390 C   0  0  2  0  0  0  0  0  0  0  0  0
  -20.3218  -26.3216   25.3690 C   0  0  0  0  0  0  0  0  0  0  0  0
  -25.4335  -30.3919   26.4527 C   0  0  0  0  0  0  0  0  0  0  0  0
  -24.0066  -28.4865   27.2284 C   0  0  0  0  0  0  0  0  0  0  0  0
  -22.9893  -30.7337   26.8570 C   0  0  0  0  0  0  0  0  0  0  0  0
  -20.7940  -26.8872   21.6363 C   0  0  0  0  0  0  0  0  0  0  0  0
  -23.6887  -29.3450   24.8634 C   0  0  1  0  0  0  0  0  0  0  0  0
  -20.7287  -27.0952   24.1245 C   0  0  2  0  0  0  0  0  0  0  0  0
  -29.3366  -17.1759   21.1493 C   0  0  0  0  0  0  0  0  0  0  0  0
  -24.0432  -29.7379   26.3254 C   0  0  0  0  0  0  0  0  0  0  0  0
  -23.3460  -12.9602   21.6978 N   0  0  0  0  0  0  0  0  0  0  0  0
  -27.3508  -20.2039   20.0851 N   0  0  0  0  0  0  0  0  0  0  0  0
  -24.0952  -13.9725   22.1670 N   0  0  0  0  0  0  0  0  0  0  0  0
  -24.6403  -30.4414   22.8594 N   0  0  0  0  0  0  0  0  0  0  0  0
  -24.2090  -17.1968   20.1238 N   0  0  0  0  0  0  0  0  0  0  0  0
  -25.9450  -14.4644   23.5622 N   0  0  0  0  0  0  0  0  0  0  0  0
  -25.6054   -9.9689   23.8287 N   0  0  0  0  0  0  0  0  0  0  0  0
  -26.4183  -17.9837   20.3728 N   0  0  0  0  0  0  0  0  0  0  0  0
  -28.7865  -22.1858   19.9499 N   0  0  0  0  0  0  0  0  0  0  0  0
  -26.0511  -33.6964   22.4786 N   0  0  0  0  0  0  0  0  0  0  0  0
  -22.3665  -28.7482   24.7089 N   0  0  0  0  0  0  0  0  0  0  0  0
  -20.4613  -26.2418   22.9323 N   0  3  0  0  0  0  0  0  0  0  0  0
  -26.7853  -11.7936   24.5611 O   0  0  0  0  0  0  0  0  0  0  0  0
  -26.6968  -23.0503   19.3335 O   0  0  0  0  0  0  0  0  0  0  0  0
  -26.9825  -31.6537   23.0968 O   0  0  0  0  0  0  0  0  0  0  0  0
  -22.9812  -31.4844   24.1226 O   0  0  0  0  0  0  0  0  0  0  0  0
  -23.0953  -26.7526   23.7795 O   0  0  0  0  0  0  0  0  0  0  0  0
  -24.7156  -19.4147   19.7138 O   0  0  0  0  0  0  0  0  0  0  0  0
  -29.9040  -24.5273   19.0371 O   0  0  0  0  0  0  0  0  0  0  0  0
  -21.8337   -6.7918   21.2372 O   0  0  0  0  0  0  0  0  0  0  0  0
  -28.4010  -26.8742   19.5150 O   0  0  0  0  0  0  0  0  0  1  0  0
  -21.1705   -3.3833   25.5204 F   0  0  0  0  0  0  0  0  0  0  0  0
  -19.3370   -5.7966   21.8846 F   0  0  0  0  0  0  0  0  0  0  0  0
  -28.3990  -16.1750   21.1741 F   0  0  0  0  0  0  0  0  0  0  0  0
  -30.3245  -16.7001   20.3252 F   0  0  0  0  0  0  0  0  0  0  0  0
  -29.8902  -17.1724   22.4030 F   0  0  0  0  0  0  0  0  0  0  0  0
  -29.8443  -19.8552   20.6711 S   0  0  0  0  0  0  0  0  0  0  0  0
  1  2  1  0  0  0  0
  1  5  2  0  0  0  0
  2  6  2  0  0  0  0
  3  8  2  0  0  0  0
  3 15  1  0  0  0  0
  4  9  1  0  0  0  0
  4 15  2  0  0  0  0
  5 17  1  0  0  0  0
  6 19  1  0  0  0  0
  7 10  2  0  0  0  0
  7 18  1  0  0  0  0
  8 21  1  0  0  0  0
  9 21  2  0  0  0  0
 10 22  1  0  0  0  0
 11 12  2  0  0  0  0
 11 23  1  0  0  0  0
 12 24  1  0  0  0  0
 13 20  1  0  0  0  0
 13 22  2  0  0  0  0
 14 24  2  0  0  0  0
 14 25  1  0  0  0  0
 15 26  1  0  0  0  0
 16 26  1  0  0  0  0
 16 29  2  0  0  0  0
 16 32  1  0  0  0  0
 17 19  2  0  0  0  0
 17 39  1  0  0  0  0
 18 20  2  0  0  0  0
 18 40  1  0  0  0  0
 19 48  1  0  0  0  0
 20 41  1  0  0  0  0
 21 79  1  0  0  0  0
 22 80  1  0  0  0  0
 23 25  2  0  0  0  0
 23 79  1  0  0  0  0
 24 81  1  0  0  0  0
 25 82  1  0  0  0  0
 26 60  2  0  0  0  0
 27 28  2  0  0  0  0
 27 58  1  0  0  0  0
 27 86  1  0  0  0  0
 28 61  1  0  0  0  0
 28 67  1  0  0  0  0
 29 62  1  0  0  0  0
 29 65  1  0  0  0  0
 30 61  2  0  0  0  0
 30 68  1  0  0  0  0
 30 86  1  0  0  0  0
 31 33  2  0  0  0  0
 31 80  1  0  0  0  0
 32 66  1  0  0  0  0
 32 72  2  0  0  0  0
 33 34  1  0  0  0  0
 33 78  1  0  0  0  0
 34 68  1  0  0  0  0
 34 73  2  0  0  0  0
 35 49  1  0  0  0  0
 35 69  1  0  0  0  0
 35 74  2  0  0  0  0
 36 56  1  0  0  0  0
 36 63  1  0  0  0  0
 36 75  2  0  0  0  0
 37 57  1  0  0  0  0
 37 70  1  0  0  0  0
 37 76  2  0  0  0  0
 38 64  1  0  0  0  0
 38 67  1  0  0  0  0
 38 77  2  0  0  0  0
 39 42  1  0  0  0  0
 40 49  1  0  0  0  0
 41 63  1  0  0  0  0
 42 44  1  0  0  0  0
 43 45  1  0  0  0  0
 43 46  1  0  0  0  0
 44 48  1  0  0  0  0
 45 50  1  0  0  0  0
 46 64  1  0  0  0  0
 47 50  1  0  0  0  0
 47 64  1  0  0  0  0
 48 69  1  0  0  0  0
 49 63  1  0  0  0  0
 50 62  1  0  0  0  0
 51 57  1  0  0  0  0
 52 59  1  0  0  0  0
 53 59  1  0  0  0  0
 54 59  1  0  0  0  0
 55 71  1  0  0  0  0
 56 59  1  0  0  0  0
 56 70  1  0  0  0  0
 57 71  1  0  0  0  0
 58 83  1  0  0  0  0
 58 84  1  0  0  0  0
 58 85  1  0  0  0  0
 60 62  1  0  0  0  0
M  CHG  1  71   1
M  ISO  4  31 101  38 100  67 100  80 101
M  END
> <Batch ID>
0182

> <Smiles>
CNC(C)C(=O)NC(C(=O)N1Cc2cc([101O:1][101CH2:1]C(=O)C(=O)Nc3nc([100NH:0][100C:0](=O)N4CCCC(n5nc(-c6ccc(Oc7ccc(F)cc7F)cc6)c(C(N)=O)c5N)C4)c(C(F)(F)F)s3)ccc2CC1C(=O)NC1CCCc2ccccc21)C(C)(C)C

> <Shape>
0.286

> <Color>
0.085

> <Negative vol penalty>
0.000

$$$$

  -OEChem-04052304563D

 87 95  0     1  0  0  0  0  0999 V2000
  -36.9935  -27.5443   22.9952 C   0  0  0  0  0  0  0  0  0  0  0  0
  -36.0807  -26.8571   23.7890 C   0  0  0  0  0  0  0  0  0  0  0  0
  -23.1738   -9.7843   19.9938 C   0  0  0  0  0  0  0  0  0  0  0  0
  -23.8582   -9.9287   22.3064 C   0  0  0  0  0  0  0  0  0  0  0  0
  -36.5831  -28.0991   21.7838 C   0  0  0  0  0  0  0  0  0  0  0  0
  -34.7566  -26.7253   23.3721 C   0  0  0  0  0  0  0  0  0  0  0  0
  -32.9788  -22.0262   24.0067 C   0  0  0  0  0  0  0  0  0  0  0  0
  -22.4877   -8.6018   20.2707 C   0  0  0  0  0  0  0  0  0  0  0  0
  -23.1720   -8.7462   22.5832 C   0  0  0  0  0  0  0  0  0  0  0  0
  -32.6018  -21.6569   25.2971 C   0  0  0  0  0  0  0  0  0  0  0  0
  -23.6653   -5.4261   22.1774 C   0  0  0  0  0  0  0  0  0  0  0  0
  -24.3137   -4.4679   22.9565 C   0  0  0  0  0  0  0  0  0  0  0  0
  -30.2915  -22.0573   24.7302 C   0  0  0  0  0  0  0  0  0  0  0  0
  -22.5514   -4.6141   24.6027 C   0  0  0  0  0  0  0  0  0  0  0  0
  -23.8591  -10.4477   21.0117 C   0  0  0  0  0  0  0  0  0  0  0  0
  -24.0633  -12.9812   20.7939 C   0  0  0  0  0  0  0  0  0  0  0  0
  -35.2556  -27.9657   21.3473 C   0  0  0  0  0  0  0  0  0  0  0  0
  -32.0144  -22.4249   23.0700 C   0  0  0  0  0  0  0  0  0  0  0  0
  -34.3277  -27.2800   22.1543 C   0  0  0  0  0  0  0  0  0  0  0  0
  -30.6586  -22.4287   23.4278 C   0  0  0  0  0  0  0  0  0  0  0  0
  -22.4868   -8.0828   21.5654 C   0  0  0  0  0  0  0  0  0  0  0  0
  -31.2582  -21.6752   25.6600 C   0  0  0  0  0  0  0  0  0  0  0  0
  -22.4600   -5.9784   22.6110 C   0  0  0  0  0  0  0  0  0  0  0  0
  -23.7567   -4.0619   24.1692 C   0  0  0  0  0  0  0  0  0  0  0  0
  -21.9031   -5.5724   23.8236 C   0  0  0  0  0  0  0  0  0  0  0  0
  -24.5684  -11.6689   20.7262 C   0  0  0  0  0  0  0  0  0  0  0  0
  -32.4941  -16.8841   23.9759 C   0  0  0  0  0  0  0  0  0  0  0  0
  -25.1231  -13.7762   20.4316 C   0  0  0  0  0  0  0  0  0  0  0  0
  -31.4901  -16.9784   24.9167 C   0  0  0  0  0  0  0  0  0  0  0  0
  -31.0396  -15.5341   23.0422 C   0  0  0  0  0  0  0  0  0  0  0  0
  -22.7533  -13.4405   21.1525 C   0  0  0  0  0  0  0  0  0  0  0  0
  -31.4314  -25.0965   21.4494 C   0  0  0  0  0  0  0  0  0  0  0  0
  -29.1802  -23.2646   20.0008 C   0  0  0  0  0  0  0  0  0  0  0  0
  -27.1262  -20.5431   20.1469 C   0  0  0  0  0  0  0  0  0  0  0  0
  -30.3048  -17.7248   27.0056 C   0  0  0  0  0  0  0  0  0  0  0  0
  -30.8639  -14.1036   20.9760 C   0  0  0  0  0  0  0  0  0  0  0  0
  -34.8475  -28.6232   20.0528 C   0  0  0  0  0  0  0  0  0  0  0  0
  -32.4349  -22.7947   21.6740 C   0  0  0  0  0  0  0  0  0  0  0  0
  -29.5824  -22.8294   22.4532 C   0  0  0  0  0  0  0  0  0  0  0  0
  -33.5155  -28.1166   19.5057 C   0  0  0  0  0  0  0  0  0  0  0  0
  -29.3349  -13.0463   17.9393 C   0  0  0  0  0  0  0  0  0  0  0  0
  -32.4684  -28.0644   20.6138 C   0  0  0  0  0  0  0  0  0  0  0  0
  -27.9001  -12.7113   18.3533 C   0  0  0  0  0  0  0  0  0  0  0  0
  -30.3421  -12.6608   19.0213 C   0  0  0  0  0  0  0  0  0  0  0  0
  -28.6198  -12.8635   20.7711 C   0  0  0  0  0  0  0  0  0  0  0  0
  -32.8886  -27.0945   21.7247 C   0  0  1  0  0  0  0  0  0  0  0  0
  -31.4173  -23.6769   20.9574 C   0  0  1  0  0  0  0  0  0  0  0  0
  -27.5633  -13.2932   19.7402 C   0  0  2  0  0  0  0  0  0  0  0  0
  -25.3740  -19.3245   18.8270 C   0  0  0  0  0  0  0  0  0  0  0  0
  -27.1437  -25.4205   20.7185 C   0  0  0  0  0  0  0  0  0  0  0  0
  -25.3273  -23.7629   20.2482 C   0  0  0  0  0  0  0  0  0  0  0  0
  -26.8807  -24.4591   18.4248 C   0  0  0  0  0  0  0  0  0  0  0  0
  -28.7575  -18.0761   20.0392 C   0  0  0  0  0  0  0  0  0  0  0  0
  -29.5784  -19.7997   28.2868 C   0  0  0  0  0  0  0  0  0  0  0  0
  -29.5974  -20.7258   27.0728 C   0  0  0  0  0  0  0  0  0  1  0  0
  -27.7283  -22.9468   20.2651 C   0  0  1  0  0  0  0  0  0  0  0  0
  -26.8563  -19.4303   19.1503 C   0  0  2  0  0  0  0  0  0  0  0  0
  -30.5635  -18.6312   28.1969 C   0  0  2  0  0  0  0  0  0  0  0  0
  -33.7958  -17.5814   24.0211 C   0  0  0  0  0  0  0  0  0  0  0  0
  -26.7902  -24.1416   19.9333 C   0  0  0  0  0  0  0  0  0  0  0  0
  -25.8494  -11.6283   20.3501 N   0  0  0  0  0  0  0  0  0  0  0  0
  -32.2378  -16.0560   22.9006 N   0  0  0  0  0  0  0  0  0  0  0  0
  -26.1581  -12.9249   20.1783 N   0  0  0  0  0  0  0  0  0  0  0  0
  -30.0445  -23.1885   21.1022 N   0  0  0  0  0  0  0  0  0  0  0  0
  -29.9609  -13.2512   20.3062 N   0  0  0  0  0  0  0  0  0  0  0  0
  -25.2612  -15.1134   20.3079 N   0  0  0  0  0  0  0  0  0  0  0  0
  -21.7833  -12.4897   21.4981 N   0  0  0  0  0  0  0  0  0  0  0  0
  -31.3790  -17.7058   26.1253 N   0  0  0  0  0  0  0  0  0  0  0  0
  -30.3792  -14.6314   22.1723 N   0  0  0  0  0  0  0  0  0  0  0  0
  -32.6543  -25.7260   21.3161 N   0  0  0  0  0  0  0  0  0  0  0  0
  -27.4338  -21.7300   19.5161 N   0  0  0  0  0  0  0  0  0  0  0  0
  -27.3122  -18.1218   19.6989 N   0  3  0  0  0  0  0  0  0  0  0  0
  -22.4471  -14.6569   21.1501 O   0  0  0  0  0  0  0  0  0  0  0  0
  -30.4082  -25.5851   21.9142 O   0  0  0  0  0  0  0  0  0  0  0  0
  -29.5357  -23.5623   18.8578 O   0  0  0  0  0  0  0  0  0  0  0  0
  -27.0663  -20.3771   21.3632 O   0  0  0  0  0  0  0  0  0  0  0  0
  -29.2387  -17.1250   26.9016 O   0  0  0  0  0  0  0  0  0  0  0  0
  -31.9742  -14.3690   20.5083 O   0  0  0  0  0  0  0  0  0  0  0  0
  -21.8172   -6.9291   21.8359 O   0  0  0  0  0  0  0  0  0  0  0  0
  -30.8876  -21.3159   26.9191 O   0  0  0  0  0  0  0  0  0  1  0  0
  -24.3786   -3.1405   24.9165 F   0  0  0  0  0  0  0  0  0  0  0  0
  -20.7448   -6.0985   24.2448 F   0  0  0  0  0  0  0  0  0  0  0  0
  -31.8325  -19.1272   28.1535 F   0  0  0  0  0  0  0  0  0  0  0  0
  -33.9661  -18.3820   25.1218 F   0  0  0  0  0  0  0  0  0  0  0  0
  -34.8810  -16.7427   24.0356 F   0  0  0  0  0  0  0  0  0  0  0  0
  -34.0022  -18.4079   22.9477 F   0  0  0  0  0  0  0  0  0  0  0  0
  -30.1657  -15.9961   24.4450 S   0  0  0  0  0  0  0  0  0  0  0  0
  1  2  1  0  0  0  0
  1  5  2  0  0  0  0
  2  6  2  0  0  0  0
  3  8  2  0  0  0  0
  3 15  1  0  0  0  0
  4  9  1  0  0  0  0
  4 15  2  0  0  0  0
  5 17  1  0  0  0  0
  6 19  1  0  0  0  0
  7 10  2  0  0  0  0
  7 18  1  0  0  0  0
  8 21  1  0  0  0  0
  9 21  2  0  0  0  0
 10 22  1  0  0  0  0
 11 12  2  0  0  0  0
 11 23  1  0  0  0  0
 12 24  1  0  0  0  0
 13 20  1  0  0  0  0
 13 22  2  0  0  0  0
 14 24  2  0  0  0  0
 14 25  1  0  0  0  0
 15 26  1  0  0  0  0
 16 26  1  0  0  0  0
 16 28  2  0  0  0  0
 16 31  1  0  0  0  0
 17 19  2  0  0  0  0
 17 37  1  0  0  0  0
 18 20  2  0  0  0  0
 18 38  1  0  0  0  0
 19 46  1  0  0  0  0
 20 39  1  0  0  0  0
 21 79  1  0  0  0  0
 22 80  1  0  0  0  0
 23 25  2  0  0  0  0
 23 79  1  0  0  0  0
 24 81  1  0  0  0  0
 25 82  1  0  0  0  0
 26 61  2  0  0  0  0
 27 29  2  0  0  0  0
 27 59  1  0  0  0  0
 27 62  1  0  0  0  0
 28 63  1  0  0  0  0
 28 66  1  0  0  0  0
 29 68  1  0  0  0  0
 29 87  1  0  0  0  0
 30 62  2  0  0  0  0
 30 69  1  0  0  0  0
 30 87  1  0  0  0  0
 31 67  1  0  0  0  0
 31 73  2  0  0  0  0
 32 47  1  0  0  0  0
 32 70  1  0  0  0  0
 32 74  2  0  0  0  0
 33 56  1  0  0  0  0
 33 64  1  0  0  0  0
 33 75  2  0  0  0  0
 34 57  1  0  0  0  0
 34 71  1  0  0  0  0
 34 76  2  0  0  0  0
 35 58  1  0  0  0  0
 35 68  1  0  0  0  0
 35 77  2  0  0  0  0
 36 65  1  0  0  0  0
 36 69  1  0  0  0  0
 36 78  2  0  0  0  0
 37 40  1  0  0  0  0
 38 47  1  0  0  0  0
 39 64  1  0  0  0  0
 40 42  1  0  0  0  0
 41 43  1  0  0  0  0
 41 44  1  0  0  0  0
 42 46  1  0  0  0  0
 43 48  1  0  0  0  0
 44 65  1  0  0  0  0
 45 48  1  0  0  0  0
 45 65  1  0  0  0  0
 46 70  1  0  0  0  0
 47 64  1  0  0  0  0
 48 63  1  0  0  0  0
 49 57  1  0  0  0  0
 50 60  1  0  0  0  0
 51 60  1  0  0  0  0
 52 60  1  0  0  0  0
 53 72  1  0  0  0  0
 54 55  1  0  0  0  0
 54 58  1  0  0  0  0
 55 80  1  0  0  0  0
 56 60  1  0  0  0  0
 56 71  1  0  0  0  0
 57 72  1  0  0  0  0
 58 83  1  0  0  0  0
 59 84  1  0  0  0  0
 59 85  1  0  0  0  0
 59 86  1  0  0  0  0
 61 63  1  0  0  0  0
M  CHG  1  72   1
M  ISO  4  36 100  55 101  69 100  80 101
M  END
> <Batch ID>
0182

> <Smiles>
CNC(C)C(=O)NC(C(=O)N1Cc2cc([101O:1][101CH2:1]CC(F)C(=O)Nc3sc([100NH:0][100C:0](=O)N4CCCC(n5nc(-c6ccc(Oc7ccc(F)cc7F)cc6)c(C(N)=O)c5N)C4)nc3C(F)(F)F)ccc2CC1C(=O)NC1CCCc2ccccc21)C(C)(C)C

> <Shape>
0.217

> <Color>
0.196

> <Negative vol penalty>
0.000

$$$$

  -OEChem-04052304563D

 85 93  0     1  0  0  0  0  0999 V2000
  -21.2170  -27.1428   26.0771 C   0  0  0  0  0  0  0  0  0  0  0  0
  -22.2401  -26.7117   25.2388 C   0  0  0  0  0  0  0  0  0  0  0  0
  -26.3213  -13.4093   20.7650 C   0  0  0  0  0  0  0  0  0  0  0  0
  -26.6966  -13.1499   18.3924 C   0  0  0  0  0  0  0  0  0  0  0  0
  -19.9901  -27.5266   25.5374 C   0  0  0  0  0  0  0  0  0  0  0  0
  -22.0365  -26.6632   23.8601 C   0  0  0  0  0  0  0  0  0  0  0  0
  -25.9861  -28.6269   21.2076 C   0  0  0  0  0  0  0  0  0  0  0  0
  -25.1261  -12.6989   20.6536 C   0  0  0  0  0  0  0  0  0  0  0  0
  -25.5015  -12.4393   18.2811 C   0  0  0  0  0  0  0  0  0  0  0  0
  -27.1290  -27.8451   21.0450 C   0  0  0  0  0  0  0  0  0  0  0  0
  -24.1637   -9.4675   20.3985 C   0  0  0  0  0  0  0  0  0  0  0  0
  -23.9030   -8.4840   21.3526 C   0  0  0  0  0  0  0  0  0  0  0  0
  -26.3688  -27.2014   18.8482 C   0  0  0  0  0  0  0  0  0  0  0  0
  -21.8953   -9.6554   22.0114 C   0  0  0  0  0  0  0  0  0  0  0  0
  -27.1065  -13.6349   19.6344 C   0  0  0  0  0  0  0  0  0  0  0  0
  -29.6212  -13.8447   20.0084 C   0  0  0  0  0  0  0  0  0  0  0  0
  -19.7746  -27.4919   24.1507 C   0  0  0  0  0  0  0  0  0  0  0  0
  -25.0189  -28.6941   20.1943 C   0  0  0  0  0  0  0  0  0  0  0  0
  -20.8051  -27.0456   23.3015 C   0  0  0  0  0  0  0  0  0  0  0  0
  -25.2170  -27.9886   18.9986 C   0  0  0  0  0  0  0  0  0  0  0  0
  -24.7162  -12.2138   19.4117 C   0  0  0  0  0  0  0  0  0  0  0  0
  -27.3193  -27.1304   19.8662 C   0  0  0  0  0  0  0  0  0  0  0  0
  -23.2903  -10.5450   20.2509 C   0  0  0  0  0  0  0  0  0  0  0  0
  -22.7688   -8.5779   22.1590 C   0  0  0  0  0  0  0  0  0  0  0  0
  -22.1561  -10.6390   21.0574 C   0  0  0  0  0  0  0  0  0  0  0  0
  -28.3409  -14.3693   19.7486 C   0  0  0  0  0  0  0  0  0  0  0  0
  -24.5937  -21.2490   19.5289 C   0  0  0  0  0  0  0  0  0  0  0  0
  -23.5433  -21.8379   20.2011 C   0  0  0  0  0  0  0  0  0  0  0  0
  -30.4466  -14.9425   20.0180 C   0  0  0  0  0  0  0  0  0  0  0  0
  -25.6313  -23.0375   20.2599 C   0  0  0  0  0  0  0  0  0  0  0  0
  -30.0281  -12.4866   20.2217 C   0  0  0  0  0  0  0  0  0  0  0  0
  -24.4996  -19.9648   18.8039 C   0  0  0  0  0  0  0  0  0  0  0  0
  -21.9138  -27.9742   19.9013 C   0  0  0  0  0  0  0  0  0  0  0  0
  -22.3993  -29.3923   16.9337 C   0  0  0  0  0  0  0  0  0  0  0  0
  -19.0181  -29.5176   16.4966 C   0  0  0  0  0  0  0  0  0  0  0  0
  -27.9322  -24.0535   20.1473 C   0  0  0  0  0  0  0  0  0  0  0  0
  -26.6810  -19.1675   19.7009 C   0  0  0  0  0  0  0  0  0  0  0  0
  -18.4158  -27.8715   23.6175 C   0  0  0  0  0  0  0  0  0  0  0  0
  -23.8075  -29.5676   20.3775 C   0  0  0  0  0  0  0  0  0  0  0  0
  -24.2110  -28.0307   17.8801 C   0  0  0  0  0  0  0  0  0  0  0  0
  -18.4058  -28.1469   22.1161 C   0  0  0  0  0  0  0  0  0  0  0  0
  -29.9825  -19.1826   17.7902 C   0  0  0  0  0  0  0  0  0  0  0  0
  -19.1602  -27.0527   21.3676 C   0  0  0  0  0  0  0  0  0  0  0  0
  -30.5471  -17.8497   18.2659 C   0  0  0  0  0  0  0  0  0  0  0  0
  -28.4630  -19.1797   17.8958 C   0  0  0  0  0  0  0  0  0  0  0  0
  -28.9750  -18.4224   20.2288 C   0  0  0  0  0  0  0  0  0  0  0  0
  -20.6309  -27.0025   21.7988 C   0  0  1  0  0  0  0  0  0  0  0  0
  -22.6483  -29.2054   19.4514 C   0  0  1  0  0  0  0  0  0  0  0  0
  -30.0583  -17.4754   19.6789 C   0  0  1  0  0  0  0  0  0  0  0  0
  -22.1459  -21.3901   20.3698 C   0  0  0  0  0  0  0  0  0  0  0  0
  -17.2624  -30.4648   14.9741 C   0  0  0  0  0  0  0  0  0  0  0  0
  -30.1338  -25.0821   20.8217 C   0  0  0  0  0  0  0  0  0  0  0  0
  -22.8091  -32.1463   18.1799 C   0  0  0  0  0  0  0  0  0  0  0  0
  -20.5187  -32.7695   17.3838 C   0  0  0  0  0  0  0  0  0  0  0  0
  -22.2920  -32.1746   15.7333 C   0  0  0  0  0  0  0  0  0  0  0  0
  -25.6670  -18.1228   17.7041 C   0  0  0  0  0  0  0  0  0  0  0  0
  -18.0202  -26.8247   15.7814 C   0  0  0  0  0  0  0  0  0  0  0  0
  -21.2592  -30.3551   17.1527 C   0  0  1  0  0  0  0  0  0  0  0  0
  -18.1499  -29.2675   15.2767 C   0  0  2  0  0  0  0  0  0  0  0  0
  -28.6404  -25.3118   20.6430 C   0  0  1  0  0  0  0  0  0  1  0  0
  -21.7235  -31.8387   17.1293 C   0  0  0  0  0  0  0  0  0  0  0  0
  -28.3473  -15.6971   19.6039 N   0  0  0  0  0  0  0  0  0  0  0  0
  -25.7917  -21.9357   19.5612 N   0  0  0  0  0  0  0  0  0  0  0  0
  -29.6417  -16.0161   19.7734 N   0  0  0  0  0  0  0  0  0  0  0  0
  -23.0911  -28.9612   18.0728 N   0  0  0  0  0  0  0  0  0  0  0  0
  -27.9785  -18.8512   19.2439 N   0  0  0  0  0  0  0  0  0  0  0  0
  -31.7750  -15.0846   20.2119 N   0  0  0  0  0  0  0  0  0  0  0  0
  -29.0518  -11.4819   20.1779 N   0  0  0  0  0  0  0  0  0  0  0  0
  -26.5995  -24.0296   20.5452 N   0  0  0  0  0  0  0  0  0  0  0  0
  -21.3782  -28.0713   21.1714 N   0  0  0  0  0  0  0  0  0  0  0  0
  -20.2509  -30.0286   16.1500 N   0  0  0  0  0  0  0  0  0  0  0  0
  -25.6617  -19.1671   18.7240 N   0  0  0  0  0  0  0  0  0  0  0  0
  -17.2775  -28.0794   15.4965 N   0  3  0  0  0  0  0  0  0  0  0  0
  -31.2194  -12.1749   20.4609 O   0  0  0  0  0  0  0  0  0  0  0  0
  -23.4035  -19.6650   18.3323 O   0  0  0  0  0  0  0  0  0  0  0  0
  -21.8374  -27.0083   19.1511 O   0  0  0  0  0  0  0  0  0  0  0  0
  -22.6759  -29.0367   15.7846 O   0  0  0  0  0  0  0  0  0  0  0  0
  -18.6389  -29.2865   17.6426 O   0  0  0  0  0  0  0  0  0  0  0  0
  -28.5222  -23.2157   19.4713 O   0  0  0  0  0  0  0  0  0  0  0  0
  -26.4260  -19.4024   20.8878 O   0  0  0  0  0  0  0  0  0  0  0  0
  -23.5502  -11.5203   19.3027 O   0  0  0  0  0  0  0  0  0  0  0  0
  -28.4342  -26.3670   19.7047 O   0  0  0  0  0  0  0  0  0  1  0  0
  -22.5177   -7.6326   23.0742 F   0  0  0  0  0  0  0  0  0  0  0  0
  -21.3127  -11.6712   20.9194 F   0  0  0  0  0  0  0  0  0  0  0  0
  -24.0659  -23.3106   20.9077 S   0  0  0  0  0  0  0  0  0  0  0  0
  1  2  1  0  0  0  0
  1  5  2  0  0  0  0
  2  6  2  0  0  0  0
  3  8  2  0  0  0  0
  3 15  1  0  0  0  0
  4  9  1  0  0  0  0
  4 15  2  0  0  0  0
  5 17  1  0  0  0  0
  6 19  1  0  0  0  0
  7 10  2  0  0  0  0
  7 18  1  0  0  0  0
  8 21  1  0  0  0  0
  9 21  2  0  0  0  0
 10 22  1  0  0  0  0
 11 12  2  0  0  0  0
 11 23  1  0  0  0  0
 12 24  1  0  0  0  0
 13 20  1  0  0  0  0
 13 22  2  0  0  0  0
 14 24  2  0  0  0  0
 14 25  1  0  0  0  0
 15 26  1  0  0  0  0
 16 26  1  0  0  0  0
 16 29  2  0  0  0  0
 16 31  1  0  0  0  0
 17 19  2  0  0  0  0
 17 38  1  0  0  0  0
 18 20  2  0  0  0  0
 18 39  1  0  0  0  0
 19 47  1  0  0  0  0
 20 40  1  0  0  0  0
 21 81  1  0  0  0  0
 22 82  1  0  0  0  0
 23 25  2  0  0  0  0
 23 81  1  0  0  0  0
 24 83  1  0  0  0  0
 25 84  1  0  0  0  0
 26 62  2  0  0  0  0
 27 28  2  0  0  0  0
 27 32  1  0  0  0  0
 27 63  1  0  0  0  0
 28 50  1  0  0  0  0
 28 85  1  0  0  0  0
 29 64  1  0  0  0  0
 29 67  1  0  0  0  0
 30 63  2  0  0  0  0
 30 69  1  0  0  0  0
 30 85  1  0  0  0  0
 31 68  1  0  0  0  0
 31 74  2  0  0  0  0
 32 72  1  0  0  0  0
 32 75  2  0  0  0  0
 33 48  1  0  0  0  0
 33 70  1  0  0  0  0
 33 76  2  0  0  0  0
 34 58  1  0  0  0  0
 34 65  1  0  0  0  0
 34 77  2  0  0  0  0
 35 59  1  0  0  0  0
 35 71  1  0  0  0  0
 35 78  2  0  0  0  0
 36 60  1  0  0  0  0
 36 69  1  0  0  0  0
 36 79  2  0  0  0  0
 37 66  1  0  0  0  0
 37 72  1  0  0  0  0
 37 80  2  0  0  0  0
 38 41  1  0  0  0  0
 39 48  1  0  0  0  0
 40 65  1  0  0  0  0
 41 43  1  0  0  0  0
 42 44  1  0  0  0  0
 42 45  1  0  0  0  0
 43 47  1  0  0  0  0
 44 49  1  0  0  0  0
 45 66  1  0  0  0  0
 46 49  1  0  0  0  0
 46 66  1  0  0  0  0
 47 70  1  0  0  0  0
 48 65  1  0  0  0  0
 49 64  1  0  0  0  0
 51 59  1  0  0  0  0
 52 60  1  0  0  0  0
 53 61  1  0  0  0  0
 54 61  1  0  0  0  0
 55 61  1  0  0  0  0
 56 72  1  0  0  0  0
 57 73  1  0  0  0  0
 58 61  1  0  0  0  0
 58 71  1  0  0  0  0
 59 73  1  0  0  0  0
 60 82  1  0  0  0  0
 62 64  1  0  0  0  0
M  CHG  1  73   1
M  ISO  4  37 100  60 101  72 100  82 101
M  END
> <Batch ID>
0182

> <Smiles>
CNC(C)C(=O)NC(C(=O)N1Cc2cc([101O:1][101CH:1](C)C(=O)Nc3nc(C(=O)[100N:0](C)[100C:0](=O)N4CCCC(n5nc(-c6ccc(Oc7ccc(F)cc7F)cc6)c(C(N)=O)c5N)C4)c(C)s3)ccc2CC1C(=O)NC1CCCc2ccccc21)C(C)(C)C

> <Shape>
0.239

> <Color>
0.097

> <Negative vol penalty>
0.000

$$$$

  -OEChem-04052304563D

 86 94  0     1  0  0  0  0  0999 V2000
  -16.5508  -28.7305   23.3678 C   0  0  0  0  0  0  0  0  0  0  0  0
  -17.5033  -28.0173   22.6471 C   0  0  0  0  0  0  0  0  0  0  0  0
  -23.1036   -9.7654   21.5035 C   0  0  0  0  0  0  0  0  0  0  0  0
  -23.8360  -10.7206   23.5983 C   0  0  0  0  0  0  0  0  0  0  0  0
  -16.9224  -29.8787   24.0661 C   0  0  0  0  0  0  0  0  0  0  0  0
  -18.8278  -28.4524   22.6233 C   0  0  0  0  0  0  0  0  0  0  0  0
  -23.8498  -24.9526   22.4306 C   0  0  0  0  0  0  0  0  0  0  0  0
  -22.4076   -8.7760   22.1979 C   0  0  0  0  0  0  0  0  0  0  0  0
  -23.1399   -9.7313   24.2928 C   0  0  0  0  0  0  0  0  0  0  0  0
  -24.6821  -24.5633   21.3821 C   0  0  0  0  0  0  0  0  0  0  0  0
  -23.1197   -5.8782   23.7853 C   0  0  0  0  0  0  0  0  0  0  0  0
  -23.2419   -4.5637   23.3353 C   0  0  0  0  0  0  0  0  0  0  0  0
  -26.1854  -26.3743   21.9110 C   0  0  0  0  0  0  0  0  0  0  0  0
  -20.8567   -4.4695   22.9627 C   0  0  0  0  0  0  0  0  0  0  0  0
  -23.8179  -10.7377   22.2036 C   0  0  0  0  0  0  0  0  0  0  0  0
  -24.0513  -13.0176   21.0834 C   0  0  0  0  0  0  0  0  0  0  0  0
  -18.2541  -30.3227   24.0587 C   0  0  0  0  0  0  0  0  0  0  0  0
  -24.1740  -26.0642   23.2217 C   0  0  0  0  0  0  0  0  0  0  0  0
  -19.2174  -29.6084   23.3211 C   0  0  0  0  0  0  0  0  0  0  0  0
  -25.3568  -26.7741   22.9705 C   0  0  0  0  0  0  0  0  0  0  0  0
  -22.4257   -8.7590   23.5926 C   0  0  0  0  0  0  0  0  0  0  0  0
  -25.8486  -25.2759   21.1203 C   0  0  0  0  0  0  0  0  0  0  0  0
  -21.8660   -6.4884   23.8242 C   0  0  0  0  0  0  0  0  0  0  0  0
  -22.1104   -3.8593   22.9239 C   0  0  0  0  0  0  0  0  0  0  0  0
  -20.7345   -5.7841   23.4128 C   0  0  0  0  0  0  0  0  0  0  0  0
  -24.5375  -11.7596   21.4868 C   0  0  0  0  0  0  0  0  0  0  0  0
  -31.4205  -19.1870   20.0267 C   0  0  0  0  0  0  0  0  0  0  0  0
  -25.1141  -13.6075   20.4438 C   0  0  0  0  0  0  0  0  0  0  0  0
  -30.2955  -19.7714   20.5699 C   0  0  0  0  0  0  0  0  0  0  0  0
  -30.2643  -17.3670   20.4276 C   0  0  0  0  0  0  0  0  0  0  0  0
  -32.5654  -19.9193   19.5604 C   0  0  0  0  0  0  0  0  0  0  0  0
  -22.7549  -13.6009   21.2701 C   0  0  0  0  0  0  0  0  0  0  0  0
  -28.7397  -23.0740   21.4827 C   0  0  0  0  0  0  0  0  0  0  0  0
  -28.7685  -21.5764   21.3780 C   0  0  0  0  0  0  0  0  0  0  0  0
  -22.8035  -28.8695   23.8179 C   0  0  0  0  0  0  0  0  0  0  0  0
  -25.2226  -29.1562   25.9599 C   0  0  0  0  0  0  0  0  0  0  0  0
  -28.3666  -28.2391   26.9193 C   0  0  0  0  0  0  0  0  0  0  0  0
  -30.5275  -14.8770   20.1499 C   0  0  0  0  0  0  0  0  0  0  0  0
  -18.5988  -31.5959   24.7900 C   0  0  0  0  0  0  0  0  0  0  0  0
  -23.2793  -26.4551   24.3659 C   0  0  0  0  0  0  0  0  0  0  0  0
  -25.7604  -27.9625   23.8032 C   0  0  0  0  0  0  0  0  0  0  0  0
  -20.0967  -31.7798   25.0200 C   0  0  0  0  0  0  0  0  0  0  0  0
  -29.5460  -11.6720   18.9493 C   0  0  0  0  0  0  0  0  0  0  0  0
  -20.8732  -31.4868   23.7402 C   0  0  0  0  0  0  0  0  0  0  0  0
  -28.1155  -11.5125   19.4693 C   0  0  0  0  0  0  0  0  0  0  0  0
  -30.4365  -12.4015   19.9536 C   0  0  0  0  0  0  0  0  0  0  0  0
  -28.4842  -13.5317   20.9438 C   0  0  0  0  0  0  0  0  0  0  0  0
  -20.6691  -30.0347   23.2913 C   0  0  1  0  0  0  0  0  0  0  0  0
  -23.4452  -27.9132   24.7829 C   0  0  1  0  0  0  0  0  0  0  0  0
  -27.5334  -12.8599   19.9396 C   0  0  2  0  0  0  0  0  0  0  0  0
  -30.0896  -28.6702   28.6921 C   0  0  0  0  0  0  0  0  0  0  0  0
  -28.4924  -26.1026   19.1247 C   0  0  0  0  0  0  0  0  0  0  0  0
  -25.8994  -31.8272   24.6492 C   0  0  0  0  0  0  0  0  0  0  0  0
  -28.1264  -31.7434   25.7899 C   0  0  0  0  0  0  0  0  0  0  0  0
  -26.0346  -31.8266   27.1464 C   0  0  0  0  0  0  0  0  0  0  0  0
  -28.3391  -25.4128   27.7971 C   0  0  0  0  0  0  0  0  0  0  0  0
  -28.8159  -23.8406   20.1796 C   0  0  0  0  0  0  0  0  0  0  0  0
  -26.6303  -29.6997   25.9162 C   0  0  1  0  0  0  0  0  0  0  0  0
  -28.9215  -27.7969   28.2614 C   0  0  2  0  0  0  0  0  0  0  0  0
  -28.0566  -25.1658   20.2434 C   0  0  2  0  0  0  0  0  0  1  0  0
  -26.6644  -31.2531   25.8583 C   0  0  0  0  0  0  0  0  0  0  0  0
  -25.8101  -11.5610   21.1330 N   0  0  0  0  0  0  0  0  0  0  0  0
  -31.4045  -17.8083   19.9447 N   0  0  0  0  0  0  0  0  0  0  0  0
  -26.1325  -12.7021   20.5005 N   0  0  0  0  0  0  0  0  0  0  0  0
  -24.8495  -28.3094   24.9066 N   0  0  0  0  0  0  0  0  0  0  0  0
  -29.8233  -13.6709   20.3504 N   0  0  0  0  0  0  0  0  0  0  0  0
  -25.2674  -14.8071   19.8440 N   0  0  0  0  0  0  0  0  0  0  0  0
  -21.7796  -12.8579   21.9491 N   0  0  0  0  0  0  0  0  0  0  0  0
  -29.9400  -21.1183   20.8147 N   0  0  0  0  0  0  0  0  0  0  0  0
  -29.8313  -16.0221   20.5355 N   0  0  0  0  0  0  0  0  0  0  0  0
  -21.4764  -29.1398   24.0924 N   0  0  0  0  0  0  0  0  0  0  0  0
  -27.3239  -29.1293   27.0660 N   0  0  0  0  0  0  0  0  0  0  0  0
  -29.3924  -26.3849   28.1874 N   0  3  0  0  0  0  0  0  0  0  0  0
  -33.5764  -19.3842   19.0721 O   0  0  0  0  0  0  0  0  0  0  0  0
  -22.4649  -14.7404   20.8331 O   0  0  0  0  0  0  0  0  0  0  0  0
  -28.6503  -23.5548   22.6022 O   0  0  0  0  0  0  0  0  0  0  0  0
  -27.7973  -20.9799   21.8129 O   0  0  0  0  0  0  0  0  0  0  0  0
  -23.4638  -29.3293   22.8937 O   0  0  0  0  0  0  0  0  0  0  0  0
  -24.4836  -29.4658   26.8978 O   0  0  0  0  0  0  0  0  0  0  0  0
  -28.8159  -27.8379   25.8480 O   0  0  0  0  0  0  0  0  0  0  0  0
  -31.6536  -14.8950   19.6462 O   0  0  0  0  0  0  0  0  0  0  0  0
  -21.7464   -7.7939   24.2705 O   0  0  0  0  0  0  0  0  0  0  0  0
  -26.6625  -24.8985   20.0970 O   0  0  0  0  0  0  0  0  0  1  0  0
  -22.2282   -2.5975   22.4903 F   0  0  0  0  0  0  0  0  0  0  0  0
  -19.5275   -6.3654   23.4467 F   0  0  0  0  0  0  0  0  0  0  0  0
  -29.1645  -18.5550   20.9971 S   0  0  0  0  0  0  0  0  0  0  0  0
  1  2  1  0  0  0  0
  1  5  2  0  0  0  0
  2  6  2  0  0  0  0
  3  8  2  0  0  0  0
  3 15  1  0  0  0  0
  4  9  1  0  0  0  0
  4 15  2  0  0  0  0
  5 17  1  0  0  0  0
  6 19  1  0  0  0  0
  7 10  2  0  0  0  0
  7 18  1  0  0  0  0
  8 21  1  0  0  0  0
  9 21  2  0  0  0  0
 10 22  1  0  0  0  0
 11 12  2  0  0  0  0
 11 23  1  0  0  0  0
 12 24  1  0  0  0  0
 13 20  1  0  0  0  0
 13 22  2  0  0  0  0
 14 24  2  0  0  0  0
 14 25  1  0  0  0  0
 15 26  1  0  0  0  0
 16 26  1  0  0  0  0
 16 28  2  0  0  0  0
 16 32  1  0  0  0  0
 17 19  2  0  0  0  0
 17 39  1  0  0  0  0
 18 20  2  0  0  0  0
 18 40  1  0  0  0  0
 19 48  1  0  0  0  0
 20 41  1  0  0  0  0
 21 82  1  0  0  0  0
 22 83  1  0  0  0  0
 23 25  2  0  0  0  0
 23 82  1  0  0  0  0
 24 84  1  0  0  0  0
 25 85  1  0  0  0  0
 26 62  2  0  0  0  0
 27 29  2  0  0  0  0
 27 31  1  0  0  0  0
 27 63  1  0  0  0  0
 28 64  1  0  0  0  0
 28 67  1  0  0  0  0
 29 69  1  0  0  0  0
 29 86  1  0  0  0  0
 30 63  2  0  0  0  0
 30 70  1  0  0  0  0
 30 86  1  0  0  0  0
 31 74  2  0  0  0  0
 32 68  1  0  0  0  0
 32 75  2  0  0  0  0
 33 34  1  0  0  0  0
 33 57  1  0  0  0  0
 33 76  2  0  0  0  0
 34 69  1  0  0  0  0
 34 77  2  0  0  0  0
 35 49  1  0  0  0  0
 35 71  1  0  0  0  0
 35 78  2  0  0  0  0
 36 58  1  0  0  0  0
 36 65  1  0  0  0  0
 36 79  2  0  0  0  0
 37 59  1  0  0  0  0
 37 72  1  0  0  0  0
 37 80  2  0  0  0  0
 38 66  1  0  0  0  0
 38 70  1  0  0  0  0
 38 81  2  0  0  0  0
 39 42  1  0  0  0  0
 40 49  1  0  0  0  0
 41 65  1  0  0  0  0
 42 44  1  0  0  0  0
 43 45  1  0  0  0  0
 43 46  1  0  0  0  0
 44 48  1  0  0  0  0
 45 50  1  0  0  0  0
 46 66  1  0  0  0  0
 47 50  1  0  0  0  0
 47 66  1  0  0  0  0
 48 71  1  0  0  0  0
 49 65  1  0  0  0  0
 50 64  1  0  0  0  0
 51 59  1  0  0  0  0
 52 60  1  0  0  0  0
 53 61  1  0  0  0  0
 54 61  1  0  0  0  0
 55 61  1  0  0  0  0
 56 73  1  0  0  0  0
 57 60  1  0  0  0  0
 58 61  1  0  0  0  0
 58 72  1  0  0  0  0
 59 73  1  0  0  0  0
 60 83  1  0  0  0  0
 62 64  1  0  0  0  0
M  CHG  1  73   1
M  ISO  4  38 100  60 101  70 100  83 101
M  END
> <Batch ID>
0182

> <Smiles>
CNC(C)C(=O)NC(C(=O)N1Cc2cc([101O:1][101CH:1](C)CC(=O)C(=O)Nc3sc([100NH:0][100C:0](=O)N4CCCC(n5nc(-c6ccc(Oc7ccc(F)cc7F)cc6)c(C(N)=O)c5N)C4)nc3C=O)ccc2CC1C(=O)NC1CCCc2ccccc21)C(C)(C)C

> <Shape>
0.303

> <Color>
0.203

> <Negative vol penalty>
0.000

$$$$

  -OEChem-04052304563D

 86 94  0     1  0  0  0  0  0999 V2000
  -22.4906  -25.0530   15.8010 C   0  0  0  0  0  0  0  0  0  0  0  0
  -23.0885  -23.8024   15.9194 C   0  0  0  0  0  0  0  0  0  0  0  0
  -26.3196  -28.6306   19.0585 C   0  0  0  0  0  0  0  0  0  0  0  0
  -25.9232  -27.3876   21.0919 C   0  0  0  0  0  0  0  0  0  0  0  0
  -22.1844  -25.7890   16.9449 C   0  0  0  0  0  0  0  0  0  0  0  0
  -23.3814  -23.2875   17.1818 C   0  0  0  0  0  0  0  0  0  0  0  0
  -23.1638  -17.4144   18.9037 C   0  0  0  0  0  0  0  0  0  0  0  0
  -25.2548  -29.4766   19.3681 C   0  0  0  0  0  0  0  0  0  0  0  0
  -24.8583  -28.2337   21.4016 C   0  0  0  0  0  0  0  0  0  0  0  0
  -24.1506  -16.4384   19.0355 C   0  0  0  0  0  0  0  0  0  0  0  0
  -22.2630  -30.2870   22.9070 C   0  0  0  0  0  0  0  0  0  0  0  0
  -22.1688  -30.7599   24.2159 C   0  0  0  0  0  0  0  0  0  0  0  0
  -24.3174  -16.9338   21.3905 C   0  0  0  0  0  0  0  0  0  0  0  0
  -24.3355  -31.8056   23.9940 C   0  0  0  0  0  0  0  0  0  0  0  0
  -26.6538  -27.5860   19.9204 C   0  0  0  0  0  0  0  0  0  0  0  0
  -29.1033  -26.8751   19.9645 C   0  0  0  0  0  0  0  0  0  0  0  0
  -22.4649  -25.2788   18.2222 C   0  0  0  0  0  0  0  0  0  0  0  0
  -22.7534  -18.1663   20.0140 C   0  0  0  0  0  0  0  0  0  0  0  0
  -23.0798  -24.0180   18.3437 C   0  0  0  0  0  0  0  0  0  0  0  0
  -23.3234  -17.9170   21.2706 C   0  0  0  0  0  0  0  0  0  0  0  0
  -24.5241  -29.2783   20.5396 C   0  0  0  0  0  0  0  0  0  0  0  0
  -24.7296  -16.2000   20.2785 C   0  0  0  0  0  0  0  0  0  0  0  0
  -23.3935  -30.5734   22.1416 C   0  0  0  0  0  0  0  0  0  0  0  0
  -23.2050  -31.5192   24.7593 C   0  0  0  0  0  0  0  0  0  0  0  0
  -24.4297  -31.3327   22.6851 C   0  0  0  0  0  0  0  0  0  0  0  0
  -27.7533  -26.7113   19.6009 C   0  0  0  0  0  0  0  0  0  0  0  0
  -29.7395  -25.7849   19.4231 C   0  0  0  0  0  0  0  0  0  0  0  0
  -31.2297  -15.7226   18.2352 C   0  0  0  0  0  0  0  0  0  0  0  0
  -30.0176  -17.6632   19.8372 C   0  0  0  0  0  0  0  0  0  0  0  0
  -30.2624  -17.9247   18.5463 C   0  0  0  0  0  0  0  0  0  0  0  0
  -30.8877  -16.9138   17.7343 C   0  0  0  0  0  0  0  0  0  0  0  0
  -30.9622  -15.4200   19.6731 C   0  0  0  0  0  0  0  0  0  0  0  0
  -29.7266  -27.9195   20.7239 C   0  0  0  0  0  0  0  0  0  0  0  0
  -22.8065  -21.2514   20.7776 C   0  0  0  0  0  0  0  0  0  0  0  0
  -28.0057  -14.8453   21.0159 C   0  0  0  0  0  0  0  0  0  0  0  0
  -21.1155  -20.2424   23.3553 C   0  0  0  0  0  0  0  0  0  0  0  0
  -20.3014  -17.6883   25.4674 C   0  0  0  0  0  0  0  0  0  0  0  0
  -29.9095  -20.3258   18.6740 C   0  0  0  0  0  0  0  0  0  0  0  0
  -22.1586  -26.1315   19.4279 C   0  0  0  0  0  0  0  0  0  0  0  0
  -21.6688  -19.1970   19.8605 C   0  0  0  0  0  0  0  0  0  0  0  0
  -22.9036  -18.6827   22.4978 C   0  0  0  0  0  0  0  0  0  0  0  0
  -22.1595  -25.3528   20.7408 C   0  0  0  0  0  0  0  0  0  0  0  0
  -28.1424  -22.3299   16.1205 C   0  0  0  0  0  0  0  0  0  0  0  0
  -23.3873  -24.4517   20.8263 C   0  0  0  0  0  0  0  0  0  0  0  0
  -27.9508  -23.6483   16.8639 C   0  0  0  0  0  0  0  0  0  0  0  0
  -28.0757  -21.1265   17.0601 C   0  0  0  0  0  0  0  0  0  0  0  0
  -28.8302  -22.5370   18.9533 C   0  0  0  0  0  0  0  0  0  0  0  0
  -23.3904  -23.4149   19.6965 C   0  0  1  0  0  0  0  0  0  0  0  0
  -21.6934  -20.2580   20.9563 C   0  0  1  0  0  0  0  0  0  0  0  0
  -28.9428  -23.7609   18.0314 C   0  0  2  0  0  0  0  0  0  0  0  0
  -18.9239  -17.1776   27.5019 C   0  0  0  0  0  0  0  0  0  0  0  0
  -23.1824  -21.6486   25.1048 C   0  0  0  0  0  0  0  0  0  0  0  0
  -22.3224  -20.3355   27.0553 C   0  0  0  0  0  0  0  0  0  0  0  0
  -20.8146  -21.9241   25.8613 C   0  0  0  0  0  0  0  0  0  0  0  0
  -29.3849  -17.5220   22.3847 C   0  0  0  0  0  0  0  0  0  0  0  0
  -31.3690  -16.0186   22.5682 C   0  0  0  0  0  0  0  0  0  0  0  0
  -18.6780  -15.6891   24.0090 C   0  0  0  0  0  0  0  0  0  0  0  0
  -29.1421  -15.0184   22.0198 C   0  0  0  0  0  0  0  0  0  0  0  0
  -26.6778  -15.4562   21.4219 C   0  0  0  0  0  0  0  0  0  1  0  0
  -21.4668  -19.7540   24.7399 C   0  0  1  0  0  0  0  0  0  0  0  0
  -18.9610  -17.1949   25.9816 C   0  0  2  0  0  0  0  0  0  0  0  0
  -21.9561  -20.9023   25.6670 C   0  0  0  0  0  0  0  0  0  0  0  0
  -30.0456  -16.2551   21.8213 C   0  0  0  0  0  0  0  0  0  0  0  0
  -27.5431  -25.6042   18.8838 N   0  0  0  0  0  0  0  0  0  0  0  0
  -28.7697  -25.0626   18.7924 N   0  0  0  0  0  0  0  0  0  0  0  0
  -30.3506  -16.4441   20.4140 N   0  0  0  0  0  0  0  0  0  0  0  0
  -21.8439  -19.6844   22.2952 N   0  0  0  0  0  0  0  0  0  0  0  0
  -28.9863  -21.2824   18.2060 N   0  0  0  0  0  0  0  0  0  0  0  0
  -31.0283  -25.3833   19.4297 N   0  0  0  0  0  0  0  0  0  0  0  0
  -28.9262  -28.9642   21.2055 N   0  0  0  0  0  0  0  0  0  0  0  0
  -29.9369  -19.1224   17.9744 N   0  0  0  0  0  0  0  0  0  0  0  0
  -22.4694  -22.3392   19.9950 N   0  0  0  0  0  0  0  0  0  0  0  0
  -20.2901  -19.0473   25.2342 N   0  0  0  0  0  0  0  0  0  0  0  0
  -18.6938  -15.8139   25.4893 N   0  3  0  0  0  0  0  0  0  0  0  0
  -31.2848  -14.3187   20.1159 O   0  0  0  0  0  0  0  0  0  0  0  0
  -30.9596  -27.9345   20.9540 O   0  0  0  0  0  0  0  0  0  0  0  0
  -23.8904  -21.0467   21.3114 O   0  0  0  0  0  0  0  0  0  0  0  0
  -28.1313  -14.2246   19.9620 O   0  0  0  0  0  0  0  0  0  0  0  0
  -20.2227  -21.0826   23.2189 O   0  0  0  0  0  0  0  0  0  0  0  0
  -21.2634  -16.9434   25.2937 O   0  0  0  0  0  0  0  0  0  0  0  0
  -30.6424  -20.5341   19.6477 O   0  0  0  0  0  0  0  0  0  0  0  0
  -23.4852  -30.1038   20.8421 O   0  0  0  0  0  0  0  0  0  0  0  0
  -25.6935  -15.2484   20.4098 O   0  0  0  0  0  0  0  0  0  1  0  0
  -23.1138  -31.9746   26.0157 F   0  0  0  0  0  0  0  0  0  0  0  0
  -25.5177  -31.6120   21.9543 F   0  0  0  0  0  0  0  0  0  0  0  0
  -31.1295  -17.1878   16.4347 F   0  0  0  0  0  0  0  0  0  0  0  0
  1  2  1  0  0  0  0
  1  5  2  0  0  0  0
  2  6  2  0  0  0  0
  3  8  2  0  0  0  0
  3 15  1  0  0  0  0
  4  9  1  0  0  0  0
  4 15  2  0  0  0  0
  5 17  1  0  0  0  0
  6 19  1  0  0  0  0
  7 10  2  0  0  0  0
  7 18  1  0  0  0  0
  8 21  1  0  0  0  0
  9 21  2  0  0  0  0
 10 22  1  0  0  0  0
 11 12  2  0  0  0  0
 11 23  1  0  0  0  0
 12 24  1  0  0  0  0
 13 20  1  0  0  0  0
 13 22  2  0  0  0  0
 14 24  2  0  0  0  0
 14 25  1  0  0  0  0
 15 26  1  0  0  0  0
 16 26  1  0  0  0  0
 16 27  2  0  0  0  0
 16 33  1  0  0  0  0
 17 19  2  0  0  0  0
 17 39  1  0  0  0  0
 18 20  2  0  0  0  0
 18 40  1  0  0  0  0
 19 48  1  0  0  0  0
 20 41  1  0  0  0  0
 21 82  1  0  0  0  0
 22 83  1  0  0  0  0
 23 25  2  0  0  0  0
 23 82  1  0  0  0  0
 24 84  1  0  0  0  0
 25 85  1  0  0  0  0
 26 64  2  0  0  0  0
 27 65  1  0  0  0  0
 27 69  1  0  0  0  0
 28 31  2  0  0  0  0
 28 32  1  0  0  0  0
 29 30  2  0  0  0  0
 29 66  1  0  0  0  0
 30 31  1  0  0  0  0
 30 71  1  0  0  0  0
 31 86  1  0  0  0  0
 32 66  1  0  0  0  0
 32 75  2  0  0  0  0
 33 70  1  0  0  0  0
 33 76  2  0  0  0  0
 34 49  1  0  0  0  0
 34 72  1  0  0  0  0
 34 77  2  0  0  0  0
 35 58  1  0  0  0  0
 35 59  1  0  0  0  0
 35 78  2  0  0  0  0
 36 60  1  0  0  0  0
 36 67  1  0  0  0  0
 36 79  2  0  0  0  0
 37 61  1  0  0  0  0
 37 73  1  0  0  0  0
 37 80  2  0  0  0  0
 38 68  1  0  0  0  0
 38 71  1  0  0  0  0
 38 81  2  0  0  0  0
 39 42  1  0  0  0  0
 40 49  1  0  0  0  0
 41 67  1  0  0  0  0
 42 44  1  0  0  0  0
 43 45  1  0  0  0  0
 43 46  1  0  0  0  0
 44 48  1  0  0  0  0
 45 50  1  0  0  0  0
 46 68  1  0  0  0  0
 47 50  1  0  0  0  0
 47 68  1  0  0  0  0
 48 72  1  0  0  0  0
 49 67  1  0  0  0  0
 50 65  1  0  0  0  0
 51 61  1  0  0  0  0
 52 62  1  0  0  0  0
 53 62  1  0  0  0  0
 54 62  1  0  0  0  0
 55 63  1  0  0  0  0
 56 63  1  0  0  0  0
 57 74  1  0  0  0  0
 58 63  1  0  0  0  0
 59 83  1  0  0  0  0
 60 62  1  0  0  0  0
 60 73  1  0  0  0  0
 61 74  1  0  0  0  0
 63 66  1  0  0  0  0
 64 65  1  0  0  0  0
M  CHG  1  74   1
M  ISO  4  38 100  59 101  71 100  83 101
M  END
> <Batch ID>
0182

> <Smiles>
CNC(C)C(=O)NC(C(=O)N1Cc2cc([101O:1][101CH2:1]C(=O)CC(C)(C)n3cc([100NH:0][100C:0](=O)N4CCCC(n5nc(-c6ccc(Oc7ccc(F)cc7F)cc6)c(C(N)=O)c5N)C4)c(F)cc3=O)ccc2CC1C(=O)NC1CCCc2ccccc21)C(C)(C)C

> <Shape>
0.189

> <Color>
0.066

> <Negative vol penalty>
0.000

$$$$

  -OEChem-04052304563D

 82 90  0     1  0  0  0  0  0999 V2000
  -18.7420  -33.3824   21.3109 C   0  0  0  0  0  0  0  0  0  0  0  0
  -20.0634  -33.1734   20.9290 C   0  0  0  0  0  0  0  0  0  0  0  0
  -26.0601  -13.0367   21.5369 C   0  0  0  0  0  0  0  0  0  0  0  0
  -24.9879  -14.2241   19.7265 C   0  0  0  0  0  0  0  0  0  0  0  0
  -18.1922  -32.6362   22.3524 C   0  0  0  0  0  0  0  0  0  0  0  0
  -20.8361  -32.2187   21.5894 C   0  0  0  0  0  0  0  0  0  0  0  0
  -25.1807  -28.6642   19.1408 C   0  0  0  0  0  0  0  0  0  0  0  0
  -24.9318  -12.2283   21.6750 C   0  0  0  0  0  0  0  0  0  0  0  0
  -23.8596  -13.4157   19.8645 C   0  0  0  0  0  0  0  0  0  0  0  0
  -26.5708  -28.7665   19.1128 C   0  0  0  0  0  0  0  0  0  0  0  0
  -23.5827   -9.5473   20.1177 C   0  0  0  0  0  0  0  0  0  0  0  0
  -23.7827   -8.1745   20.2624 C   0  0  0  0  0  0  0  0  0  0  0  0
  -26.7109  -27.3064   21.0280 C   0  0  0  0  0  0  0  0  0  0  0  0
  -22.6749   -8.2393   22.4085 C   0  0  0  0  0  0  0  0  0  0  0  0
  -26.0881  -14.0347   20.5627 C   0  0  0  0  0  0  0  0  0  0  0  0
  -28.3736  -14.6343   19.6012 C   0  0  0  0  0  0  0  0  0  0  0  0
  -18.9557  -31.6652   23.0195 C   0  0  0  0  0  0  0  0  0  0  0  0
  -24.5436  -27.8896   20.1209 C   0  0  0  0  0  0  0  0  0  0  0  0
  -20.2964  -31.4598   22.6417 C   0  0  0  0  0  0  0  0  0  0  0  0
  -25.3126  -27.1938   21.0647 C   0  0  0  0  0  0  0  0  0  0  0  0
  -23.8316  -12.4178   20.8388 C   0  0  0  0  0  0  0  0  0  0  0  0
  -27.3360  -28.0899   20.0582 C   0  0  0  0  0  0  0  0  0  0  0  0
  -22.9289  -10.2662   21.1185 C   0  0  0  0  0  0  0  0  0  0  0  0
  -23.3287   -7.5205   21.4077 C   0  0  0  0  0  0  0  0  0  0  0  0
  -22.4750   -9.6121   22.2638 C   0  0  0  0  0  0  0  0  0  0  0  0
  -27.2531  -14.8705   20.4200 C   0  0  0  0  0  0  0  0  0  0  0  0
  -28.9742  -22.0886   17.0949 C   0  0  0  0  0  0  0  0  0  0  0  0
  -29.1264  -22.2733   18.4531 C   0  0  0  0  0  0  0  0  0  0  0  0
  -29.1939  -15.7135   19.8221 C   0  0  0  0  0  0  0  0  0  0  0  0
  -29.8230  -24.2385   17.7729 C   0  0  0  0  0  0  0  0  0  0  0  0
  -28.6484  -13.5374   18.7197 C   0  0  0  0  0  0  0  0  0  0  0  0
  -22.4907  -28.4918   22.4718 C   0  0  0  0  0  0  0  0  0  0  0  0
  -22.4870  -25.2618   22.7710 C   0  0  0  0  0  0  0  0  0  0  0  0
  -24.1101  -22.3032   22.2622 C   0  0  0  0  0  0  0  0  0  0  0  0
  -28.9418  -21.3989   20.8085 C   0  0  0  0  0  0  0  0  0  0  0  0
  -18.3322  -30.9164   24.1707 C   0  0  0  0  0  0  0  0  0  0  0  0
  -23.0444  -27.7680   20.1212 C   0  0  0  0  0  0  0  0  0  0  0  0
  -24.6782  -26.3328   22.1251 C   0  0  0  0  0  0  0  0  0  0  0  0
  -19.1045  -29.6619   24.5709 C   0  0  0  0  0  0  0  0  0  0  0  0
  -29.6295  -19.0805   23.4218 C   0  0  0  0  0  0  0  0  0  0  0  0
  -20.5967  -29.9625   24.6700 C   0  0  0  0  0  0  0  0  0  0  0  0
  -29.1969  -17.7347   22.8356 C   0  0  0  0  0  0  0  0  0  0  0  0
  -28.7060  -20.2145   22.9803 C   0  0  0  0  0  0  0  0  0  0  0  0
  -28.0771  -18.9803   20.9431 C   0  0  0  0  0  0  0  0  0  0  0  0
  -21.1590  -30.4160   23.3173 C   0  0  1  0  0  0  0  0  0  0  0  0
  -22.4779  -27.3641   21.4789 C   0  0  1  0  0  0  0  0  0  0  0  0
  -29.0152  -17.8179   21.3073 C   0  0  2  0  0  0  0  0  0  0  0  0
  -28.4882  -20.9163   16.3383 C   0  0  0  0  0  0  0  0  0  0  0  0
  -23.8733  -19.8348   22.6472 C   0  0  0  0  0  0  0  0  0  0  0  0
  -23.1630  -25.6594   25.7197 C   0  0  0  0  0  0  0  0  0  0  0  0
  -23.8387  -23.2506   25.8178 C   0  0  0  0  0  0  0  0  0  0  0  0
  -21.4837  -23.8621   25.2675 C   0  0  0  0  0  0  0  0  0  0  0  0
  -24.2073  -21.7239   19.3615 C   0  0  0  0  0  0  0  0  0  0  0  0
  -30.6483  -26.2416   19.0108 C   0  0  0  0  0  0  0  0  0  0  0  0
  -29.3062  -28.3954   18.7617 C   0  0  0  0  0  0  0  0  0  1  0  0
  -23.3001  -24.2598   23.5545 C   0  0  1  0  0  0  0  0  0  0  0  0
  -23.6393  -20.9834   21.6783 C   0  0  2  0  0  0  0  0  0  0  0  0
  -30.6820  -27.7462   18.7762 C   0  0  1  0  0  0  0  0  0  0  0  0
  -22.9585  -24.2757   25.0712 C   0  0  0  0  0  0  0  0  0  0  0  0
  -27.3495  -16.0102   21.1097 N   0  0  0  0  0  0  0  0  0  0  0  0
  -29.6134  -23.5054   18.8438 N   0  0  0  0  0  0  0  0  0  0  0  0
  -28.5404  -16.4998   20.7249 N   0  0  0  0  0  0  0  0  0  0  0  0
  -23.2087  -26.2508   22.0877 N   0  0  0  0  0  0  0  0  0  0  0  0
  -28.5850  -20.2345   21.5209 N   0  0  0  0  0  0  0  0  0  0  0  0
  -30.4032  -16.0572   19.3304 N   0  0  0  0  0  0  0  0  0  0  0  0
  -27.6981  -12.5129   18.6116 N   0  0  0  0  0  0  0  0  0  0  0  0
  -28.8161  -21.2890   19.4240 N   0  0  0  0  0  0  0  0  0  0  0  0
  -30.3102  -25.5355   17.7977 N   0  0  0  0  0  0  0  0  0  0  0  0
  -21.3550  -29.2785   22.4444 N   0  0  0  0  0  0  0  0  0  0  0  0
  -23.0899  -22.9689   22.9081 N   0  0  0  0  0  0  0  0  0  0  0  0
  -24.3688  -20.6870   20.4131 N   0  3  0  0  0  0  0  0  0  0  0  0
  -29.7126  -13.4597   18.0603 O   0  0  0  0  0  0  0  0  0  0  0  0
  -23.4586  -28.6365   23.2093 O   0  0  0  0  0  0  0  0  0  0  0  0
  -21.2572  -25.1661   22.7597 O   0  0  0  0  0  0  0  0  0  0  0  0
  -25.2681  -22.7019   22.1590 O   0  0  0  0  0  0  0  0  0  0  0  0
  -29.3561  -22.4094   21.3823 O   0  0  0  0  0  0  0  0  0  0  0  0
  -22.7305  -11.6290   20.9731 O   0  0  0  0  0  0  0  0  0  0  0  0
  -28.6930  -28.1886   20.0336 O   0  0  0  0  0  0  0  0  0  1  0  0
  -23.5194   -6.2018   21.5457 F   0  0  0  0  0  0  0  0  0  0  0  0
  -21.8452  -10.2972   23.2281 F   0  0  0  0  0  0  0  0  0  0  0  0
  -31.4135  -28.3199   19.7754 F   0  0  0  0  0  0  0  0  0  0  0  0
  -29.4555  -23.5093   16.2636 S   0  0  0  0  0  0  0  0  0  0  0  0
  1  2  1  0  0  0  0
  1  5  2  0  0  0  0
  2  6  2  0  0  0  0
  3  8  2  0  0  0  0
  3 15  1  0  0  0  0
  4  9  1  0  0  0  0
  4 15  2  0  0  0  0
  5 17  1  0  0  0  0
  6 19  1  0  0  0  0
  7 10  2  0  0  0  0
  7 18  1  0  0  0  0
  8 21  1  0  0  0  0
  9 21  2  0  0  0  0
 10 22  1  0  0  0  0
 11 12  2  0  0  0  0
 11 23  1  0  0  0  0
 12 24  1  0  0  0  0
 13 20  1  0  0  0  0
 13 22  2  0  0  0  0
 14 24  2  0  0  0  0
 14 25  1  0  0  0  0
 15 26  1  0  0  0  0
 16 26  1  0  0  0  0
 16 29  2  0  0  0  0
 16 31  1  0  0  0  0
 17 19  2  0  0  0  0
 17 36  1  0  0  0  0
 18 20  2  0  0  0  0
 18 37  1  0  0  0  0
 19 45  1  0  0  0  0
 20 38  1  0  0  0  0
 21 77  1  0  0  0  0
 22 78  1  0  0  0  0
 23 25  2  0  0  0  0
 23 77  1  0  0  0  0
 24 79  1  0  0  0  0
 25 80  1  0  0  0  0
 26 60  2  0  0  0  0
 27 28  2  0  0  0  0
 27 48  1  0  0  0  0
 27 82  1  0  0  0  0
 28 61  1  0  0  0  0
 28 67  1  0  0  0  0
 29 62  1  0  0  0  0
 29 65  1  0  0  0  0
 30 61  2  0  0  0  0
 30 68  1  0  0  0  0
 30 82  1  0  0  0  0
 31 66  1  0  0  0  0
 31 72  2  0  0  0  0
 32 46  1  0  0  0  0
 32 69  1  0  0  0  0
 32 73  2  0  0  0  0
 33 56  1  0  0  0  0
 33 63  1  0  0  0  0
 33 74  2  0  0  0  0
 34 57  1  0  0  0  0
 34 70  1  0  0  0  0
 34 75  2  0  0  0  0
 35 64  1  0  0  0  0
 35 67  1  0  0  0  0
 35 76  2  0  0  0  0
 36 39  1  0  0  0  0
 37 46  1  0  0  0  0
 38 63  1  0  0  0  0
 39 41  1  0  0  0  0
 40 42  1  0  0  0  0
 40 43  1  0  0  0  0
 41 45  1  0  0  0  0
 42 47  1  0  0  0  0
 43 64  1  0  0  0  0
 44 47  1  0  0  0  0
 44 64  1  0  0  0  0
 45 69  1  0  0  0  0
 46 63  1  0  0  0  0
 47 62  1  0  0  0  0
 49 57  1  0  0  0  0
 50 59  1  0  0  0  0
 51 59  1  0  0  0  0
 52 59  1  0  0  0  0
 53 71  1  0  0  0  0
 54 58  1  0  0  0  0
 54 68  1  0  0  0  0
 55 58  1  0  0  0  0
 55 78  1  0  0  0  0
 56 59  1  0  0  0  0
 56 70  1  0  0  0  0
 57 71  1  0  0  0  0
 58 81  1  0  0  0  0
 60 62  1  0  0  0  0
M  CHG  1  71   1
M  ISO  4  35 100  55 101  67 100  78 101
M  END
> <Batch ID>
0182

> <Smiles>
CNC(C)C(=O)NC(C(=O)N1Cc2cc([101O:1][101CH2:1]C(F)CNc3nc([100NH:0][100C:0](=O)N4CCCC(n5nc(-c6ccc(Oc7ccc(F)cc7F)cc6)c(C(N)=O)c5N)C4)c(C)s3)ccc2CC1C(=O)NC1CCCc2ccccc21)C(C)(C)C

> <Shape>
0.257

> <Color>
0.101

> <Negative vol penalty>
0.000

$$$$

  -OEChem-04052304563D

 83 91  0     1  0  0  0  0  0999 V2000
  -17.4807  -23.3581   26.8677 C   0  0  0  0  0  0  0  0  0  0  0  0
  -18.8152  -22.9944   27.0165 C   0  0  0  0  0  0  0  0  0  0  0  0
  -22.8963   -9.9809   20.0392 C   0  0  0  0  0  0  0  0  0  0  0  0
  -23.6608  -10.0015   22.3309 C   0  0  0  0  0  0  0  0  0  0  0  0
  -17.0888  -24.1371   25.7798 C   0  0  0  0  0  0  0  0  0  0  0  0
  -19.7585  -23.4086   26.0769 C   0  0  0  0  0  0  0  0  0  0  0  0
  -25.6042  -24.8948   27.1374 C   0  0  0  0  0  0  0  0  0  0  0  0
  -22.0854   -8.8811   20.3195 C   0  0  0  0  0  0  0  0  0  0  0  0
  -22.8498   -8.9017   22.6113 C   0  0  0  0  0  0  0  0  0  0  0  0
  -26.7937  -24.1811   26.9975 C   0  0  0  0  0  0  0  0  0  0  0  0
  -22.9401   -5.5550   22.1399 C   0  0  0  0  0  0  0  0  0  0  0  0
  -23.4949   -4.5136   22.8836 C   0  0  0  0  0  0  0  0  0  0  0  0
  -27.1258  -25.1726   24.8236 C   0  0  0  0  0  0  0  0  0  0  0  0
  -21.8111   -4.8326   24.5865 C   0  0  0  0  0  0  0  0  0  0  0  0
  -23.6841  -10.5410   21.0449 C   0  0  0  0  0  0  0  0  0  0  0  0
  -24.1761  -13.0372   20.8592 C   0  0  0  0  0  0  0  0  0  0  0  0
  -18.0295  -24.5692   24.8316 C   0  0  0  0  0  0  0  0  0  0  0  0
  -25.1603  -25.7458   26.1152 C   0  0  0  0  0  0  0  0  0  0  0  0
  -19.3787  -24.1930   24.9746 C   0  0  0  0  0  0  0  0  0  0  0  0
  -25.9317  -25.8979   24.9541 C   0  0  0  0  0  0  0  0  0  0  0  0
  -30.1103  -17.5825   22.6309 C   0  0  0  0  0  0  0  0  0  0  0  0
  -22.0621   -8.3416   21.6056 C   0  0  0  0  0  0  0  0  0  0  0  0
  -27.5533  -24.3178   25.8393 C   0  0  0  0  0  0  0  0  0  0  0  0
  -21.8209   -6.2354   22.6195 C   0  0  0  0  0  0  0  0  0  0  0  0
  -22.9304   -4.1523   24.1069 C   0  0  0  0  0  0  0  0  0  0  0  0
  -21.2563   -5.8742   23.8428 C   0  0  0  0  0  0  0  0  0  0  0  0
  -24.5224  -11.6767   20.7557 C   0  0  0  0  0  0  0  0  0  0  0  0
  -30.8087  -16.6492   21.8126 C   0  0  0  0  0  0  0  0  0  0  0  0
  -25.3102  -13.7104   20.4757 C   0  0  0  0  0  0  0  0  0  0  0  0
  -30.8968  -18.6898   22.8631 C   0  0  0  0  0  0  0  0  0  0  0  0
  -28.6565  -22.3817   25.1285 C   0  0  0  0  0  0  0  0  0  1  0  0
  -22.9398  -13.6388   21.2658 C   0  0  0  0  0  0  0  0  0  0  0  0
  -29.7350  -21.6110   24.9426 C   0  0  0  0  0  0  0  0  0  0  0  0
  -29.5657  -20.2645   24.3049 C   0  0  0  0  0  0  0  0  0  0  0  0
  -22.5984  -25.8488   24.2365 C   0  0  0  0  0  0  0  0  0  0  0  0
  -23.8895  -28.6691   23.2872 C   0  0  0  0  0  0  0  0  0  0  0  0
  -26.6730  -30.6159   22.9569 C   0  0  0  0  0  0  0  0  0  0  0  0
  -30.8295  -14.4311   20.6184 C   0  0  0  0  0  0  0  0  0  0  0  0
  -17.5505  -25.3702   23.6468 C   0  0  0  0  0  0  0  0  0  0  0  0
  -23.8886  -26.5291   26.2928 C   0  0  0  0  0  0  0  0  0  0  0  0
  -25.5094  -26.8143   23.8359 C   0  0  0  0  0  0  0  0  0  0  0  0
  -18.6745  -26.0818   22.8982 C   0  0  0  0  0  0  0  0  0  0  0  0
  -29.5671  -12.0279   18.3146 C   0  0  0  0  0  0  0  0  0  0  0  0
  -19.8439  -25.1312   22.6617 C   0  0  0  0  0  0  0  0  0  0  0  0
  -28.1136  -11.8342   18.7528 C   0  0  0  0  0  0  0  0  0  0  0  0
  -30.4971  -12.2325   19.5091 C   0  0  0  0  0  0  0  0  0  0  0  0
  -28.6402  -13.1053   20.8727 C   0  0  0  0  0  0  0  0  0  0  0  0
  -20.4356  -24.6436   23.9897 C   0  0  1  0  0  0  0  0  0  0  0  0
  -23.2712  -26.9740   24.9706 C   0  0  1  0  0  0  0  0  0  0  0  0
  -27.6560  -12.9601   19.7006 C   0  0  2  0  0  0  0  0  0  0  0  0
  -27.4202  -32.8574   22.1115 C   0  0  0  0  0  0  0  0  0  0  0  0
  -23.6949  -27.6492   20.4181 C   0  0  0  0  0  0  0  0  0  0  0  0
  -25.2829  -29.4621   19.7398 C   0  0  0  0  0  0  0  0  0  0  0  0
  -23.0643  -30.0508   20.7166 C   0  0  0  0  0  0  0  0  0  0  0  0
  -27.6160  -31.4421   25.6378 C   0  0  0  0  0  0  0  0  0  0  0  0
  -24.8624  -29.0919   22.2131 C   0  0  1  0  0  0  0  0  0  0  0  0
  -26.9359  -32.0670   23.3171 C   0  0  2  0  0  0  0  0  0  0  0  0
  -24.2334  -29.0447   20.7920 C   0  0  0  0  0  0  0  0  0  0  0  0
  -25.7782  -11.4945   20.3389 N   0  0  0  0  0  0  0  0  0  0  0  0
  -32.0386  -16.9792   21.4257 N   0  0  0  0  0  0  0  0  0  0  0  0
  -26.2310  -12.7495   20.1771 N   0  0  0  0  0  0  0  0  0  0  0  0
  -24.2551  -27.5538   24.0541 N   0  0  0  0  0  0  0  0  0  0  0  0
  -30.0029  -13.3173   20.3599 N   0  0  0  0  0  0  0  0  0  0  0  0
  -28.8571  -17.4188   23.1169 N   0  0  0  0  0  0  0  0  0  0  0  0
  -25.5997  -15.0245   20.3681 N   0  0  0  0  0  0  0  0  0  0  0  0
  -21.8761  -12.8008   21.6273 N   0  0  0  0  0  0  0  0  0  0  0  0
  -30.2406  -15.4141   21.4131 N   0  0  0  0  0  0  0  0  0  0  0  0
  -30.6947  -19.8874   23.5908 N   0  0  0  0  0  0  0  0  0  0  0  0
  -21.2714  -25.6686   24.5773 N   0  0  0  0  0  0  0  0  0  0  0  0
  -25.3563  -30.4076   22.6045 N   0  0  0  0  0  0  0  0  0  0  0  0
  -27.9719  -32.1562   24.3846 N   0  3  0  0  0  0  0  0  0  0  0  0
  -22.7777  -14.8824   21.2914 O   0  0  0  0  0  0  0  0  0  0  0  0
  -28.5256  -19.6292   24.4412 O   0  0  0  0  0  0  0  0  0  0  0  0
  -23.2355  -25.1936   23.4201 O   0  0  0  0  0  0  0  0  0  0  0  0
  -22.8470  -29.3094   23.4450 O   0  0  0  0  0  0  0  0  0  0  0  0
  -27.5490  -29.7542   22.9818 O   0  0  0  0  0  0  0  0  0  0  0  0
  -31.9656  -14.5198   20.1456 O   0  0  0  0  0  0  0  0  0  0  0  0
  -31.0035  -22.0073   25.3145 O   0  0  0  0  0  0  0  0  0  0  0  0
  -21.2708   -7.2686   21.8796 O   0  0  0  0  0  0  0  0  0  0  0  0
  -28.7144  -23.6219   25.6998 O   0  0  0  0  0  0  0  0  0  1  0  0
  -23.4623   -3.1512   24.8202 F   0  0  0  0  0  0  0  0  0  0  0  0
  -20.1803   -6.5233   24.3082 F   0  0  0  0  0  0  0  0  0  0  0  0
  -32.3947  -18.4729   22.0613 S   0  0  0  0  0  0  0  0  0  0  0  0
  1  2  1  0  0  0  0
  1  5  2  0  0  0  0
  2  6  2  0  0  0  0
  3  8  2  0  0  0  0
  3 15  1  0  0  0  0
  4  9  1  0  0  0  0
  4 15  2  0  0  0  0
  5 17  1  0  0  0  0
  6 19  1  0  0  0  0
  7 10  2  0  0  0  0
  7 18  1  0  0  0  0
  8 22  1  0  0  0  0
  9 22  2  0  0  0  0
 10 23  1  0  0  0  0
 11 12  2  0  0  0  0
 11 24  1  0  0  0  0
 12 25  1  0  0  0  0
 13 20  1  0  0  0  0
 13 23  2  0  0  0  0
 14 25  2  0  0  0  0
 14 26  1  0  0  0  0
 15 27  1  0  0  0  0
 16 27  1  0  0  0  0
 16 29  2  0  0  0  0
 16 32  1  0  0  0  0
 17 19  2  0  0  0  0
 17 39  1  0  0  0  0
 18 20  2  0  0  0  0
 18 40  1  0  0  0  0
 19 48  1  0  0  0  0
 20 41  1  0  0  0  0
 21 28  1  0  0  0  0
 21 30  2  0  0  0  0
 21 64  1  0  0  0  0
 22 79  1  0  0  0  0
 23 80  1  0  0  0  0
 24 26  2  0  0  0  0
 24 79  1  0  0  0  0
 25 81  1  0  0  0  0
 26 82  1  0  0  0  0
 27 59  2  0  0  0  0
 28 60  2  0  0  0  0
 28 67  1  0  0  0  0
 29 61  1  0  0  0  0
 29 65  1  0  0  0  0
 30 68  1  0  0  0  0
 30 83  1  0  0  0  0
 31 33  2  0  0  0  0
 31 80  1  0  0  0  0
 32 66  1  0  0  0  0
 32 72  2  0  0  0  0
 33 34  1  0  0  0  0
 33 78  1  0  0  0  0
 34 68  1  0  0  0  0
 34 73  2  0  0  0  0
 35 49  1  0  0  0  0
 35 69  1  0  0  0  0
 35 74  2  0  0  0  0
 36 56  1  0  0  0  0
 36 62  1  0  0  0  0
 36 75  2  0  0  0  0
 37 57  1  0  0  0  0
 37 70  1  0  0  0  0
 37 76  2  0  0  0  0
 38 63  1  0  0  0  0
 38 67  1  0  0  0  0
 38 77  2  0  0  0  0
 39 42  1  0  0  0  0
 40 49  1  0  0  0  0
 41 62  1  0  0  0  0
 42 44  1  0  0  0  0
 43 45  1  0  0  0  0
 43 46  1  0  0  0  0
 44 48  1  0  0  0  0
 45 50  1  0  0  0  0
 46 63  1  0  0  0  0
 47 50  1  0  0  0  0
 47 63  1  0  0  0  0
 48 69  1  0  0  0  0
 49 62  1  0  0  0  0
 50 61  1  0  0  0  0
 51 57  1  0  0  0  0
 52 58  1  0  0  0  0
 53 58  1  0  0  0  0
 54 58  1  0  0  0  0
 55 71  1  0  0  0  0
 56 58  1  0  0  0  0
 56 70  1  0  0  0  0
 57 71  1  0  0  0  0
 59 61  1  0  0  0  0
 60 83  1  0  0  0  0
M  CHG  1  71   1
M  ISO  4  31 101  38 100  67 100  80 101
M  END
> <Batch ID>
0182

> <Smiles>
CNC(C)C(=O)NC(C(=O)N1Cc2cc([101O:1][101CH2:1]C(=O)C(=O)Nc3snc([100NH:0][100C:0](=O)N4CCCC(n5nc(-c6ccc(Oc7ccc(F)cc7F)cc6)c(C(N)=O)c5N)C4)c3N)ccc2CC1C(=O)NC1CCCc2ccccc21)C(C)(C)C

> <Shape>
0.276

> <Color>
0.190

> <Negative vol penalty>
0.000

$$$$
