
  -OEChem-04052304593D

 83 91  0     1  0  0  0  0  0999 V2000
  -17.4316  -24.6693   24.0128 C   0  0  0  0  0  0  0  0  0  0  0  0
  -18.6807  -24.1237   24.2910 C   0  0  0  0  0  0  0  0  0  0  0  0
  -23.0057   -9.9206   20.0024 C   0  0  0  0  0  0  0  0  0  0  0  0
  -23.7397   -9.9829   22.3034 C   0  0  0  0  0  0  0  0  0  0  0  0
  -17.3360  -25.8498   23.2770 C   0  0  0  0  0  0  0  0  0  0  0  0
  -19.8350  -24.7576   23.8326 C   0  0  0  0  0  0  0  0  0  0  0  0
  -25.2600  -25.0233   26.6618 C   0  0  0  0  0  0  0  0  0  0  0  0
  -22.2548   -8.7767   20.2729 C   0  0  0  0  0  0  0  0  0  0  0  0
  -22.9888   -8.8390   22.5739 C   0  0  0  0  0  0  0  0  0  0  0  0
  -26.4341  -24.2869   26.5100 C   0  0  0  0  0  0  0  0  0  0  0  0
  -23.2736   -5.5030   22.1039 C   0  0  0  0  0  0  0  0  0  0  0  0
  -23.8771   -4.4941   22.8544 C   0  0  0  0  0  0  0  0  0  0  0  0
  -27.3130  -25.9992   25.0559 C   0  0  0  0  0  0  0  0  0  0  0  0
  -22.1572   -4.7166   24.5366 C   0  0  0  0  0  0  0  0  0  0  0  0
  -29.7904  -17.9352   22.6711 C   0  0  0  0  0  0  0  0  0  0  0  0
  -23.7483  -10.5237   21.0176 C   0  0  0  0  0  0  0  0  0  0  0  0
  -24.1008  -13.0438   20.8378 C   0  0  0  0  0  0  0  0  0  0  0  0
  -18.4901  -26.5037   22.8176 C   0  0  0  0  0  0  0  0  0  0  0  0
  -25.0990  -26.2501   26.0019 C   0  0  0  0  0  0  0  0  0  0  0  0
  -19.7547  -25.9472   23.0888 C   0  0  0  0  0  0  0  0  0  0  0  0
  -26.1370  -26.7505   25.2030 C   0  0  0  0  0  0  0  0  0  0  0  0
  -22.2463   -8.2359   21.5586 C   0  0  0  0  0  0  0  0  0  0  0  0
  -27.4597  -24.7734   25.7047 C   0  0  0  0  0  0  0  0  0  0  0  0
  -22.1119   -6.1188   22.5697 C   0  0  0  0  0  0  0  0  0  0  0  0
  -23.3190   -4.1008   24.0707 C   0  0  0  0  0  0  0  0  0  0  0  0
  -21.5537   -5.7256   23.7860 C   0  0  0  0  0  0  0  0  0  0  0  0
  -24.5246  -11.7050   20.7387 C   0  0  0  0  0  0  0  0  0  0  0  0
  -30.5067  -17.0239   21.8723 C   0  0  0  0  0  0  0  0  0  0  0  0
  -30.6373  -19.0072   22.8127 C   0  0  0  0  0  0  0  0  0  0  0  0
  -25.1997  -13.7801   20.4682 C   0  0  0  0  0  0  0  0  0  0  0  0
  -28.5149  -22.8001   25.0240 C   0  0  0  0  0  0  0  0  0  1  0  0
  -22.8276  -13.5744   21.2291 C   0  0  0  0  0  0  0  0  0  0  0  0
  -29.5766  -22.0081   24.8318 C   0  0  0  0  0  0  0  0  0  0  0  0
  -29.3702  -20.6452   24.2416 C   0  0  0  0  0  0  0  0  0  0  0  0
  -23.0858  -27.3726   23.8131 C   0  0  0  0  0  0  0  0  0  0  0  0
  -24.6223  -30.1689   24.3978 C   0  0  0  0  0  0  0  0  0  0  0  0
  -27.4349  -31.7526   25.5059 C   0  0  0  0  0  0  0  0  0  0  0  0
  -30.6674  -14.8112   20.6786 C   0  0  0  0  0  0  0  0  0  0  0  0
  -18.3346  -27.7520   21.9856 C   0  0  0  0  0  0  0  0  0  0  0  0
  -23.8371  -27.0450   26.1973 C   0  0  0  0  0  0  0  0  0  0  0  0
  -26.0219  -28.0717   24.4892 C   0  0  0  0  0  0  0  0  0  0  0  0
  -19.6218  -28.5624   21.8569 C   0  0  0  0  0  0  0  0  0  0  0  0
  -29.5710  -12.3420   18.3596 C   0  0  0  0  0  0  0  0  0  0  0  0
  -20.7961  -27.6493   21.5191 C   0  0  0  0  0  0  0  0  0  0  0  0
  -28.1255  -12.0663   18.7800 C   0  0  0  0  0  0  0  0  0  0  0  0
  -30.4733  -12.5980   19.5655 C   0  0  0  0  0  0  0  0  0  0  0  0
  -28.5535  -13.3638   20.9061 C   0  0  0  0  0  0  0  0  0  0  0  0
  -21.0309  -26.6186   22.6300 C   0  0  1  0  0  0  0  0  0  0  0  0
  -23.5753  -28.0374   25.0685 C   0  0  1  0  0  0  0  0  0  0  0  0
  -27.5934  -13.1640   19.7220 C   0  0  2  0  0  0  0  0  0  0  0  0
  -28.4084  -34.0429   25.8285 C   0  0  0  0  0  0  0  0  0  0  0  0
  -25.1278  -30.3743   21.3958 C   0  0  0  0  0  0  0  0  0  0  0  0
  -26.8666  -32.1100   21.8778 C   0  0  0  0  0  0  0  0  0  0  0  0
  -24.4859  -32.5269   22.4952 C   0  0  0  0  0  0  0  0  0  0  0  0
  -32.9538  -19.4930   21.9634 C   0  0  0  0  0  0  0  0  0  0  0  0
  -27.6976  -31.3562   28.4270 C   0  0  0  0  0  0  0  0  0  0  0  0
  -25.8387  -30.8594   23.8300 C   0  0  1  0  0  0  0  0  0  0  0  0
  -27.6260  -32.9084   26.4714 C   0  0  2  0  0  0  0  0  0  0  0  0
  -25.5815  -31.4418   22.4115 C   0  0  0  0  0  0  0  0  0  0  0  0
  -25.7938  -11.5943   20.3374 N   0  0  0  0  0  0  0  0  0  0  0  0
  -31.7156  -17.4774   21.5303 N   0  0  0  0  0  0  0  0  0  0  0  0
  -26.1768  -12.8729   20.1810 N   0  0  0  0  0  0  0  0  0  0  0  0
  -31.7654  -18.6855   22.1170 N   0  0  0  0  0  0  0  0  0  0  0  0
  -24.7662  -28.8089   24.7067 N   0  0  0  0  0  0  0  0  0  0  0  0
  -29.9082  -13.6527   20.4100 N   0  0  0  0  0  0  0  0  0  0  0  0
  -25.4159  -15.1086   20.3640 N   0  0  0  0  0  0  0  0  0  0  0  0
  -21.8086  -12.6775   21.5777 N   0  0  0  0  0  0  0  0  0  0  0  0
  -30.0142  -15.7589   21.4659 N   0  0  0  0  0  0  0  0  0  0  0  0
  -30.4729  -20.2294   23.5080 N   0  0  0  0  0  0  0  0  0  0  0  0
  -21.7128  -27.2300   23.7506 N   0  0  0  0  0  0  0  0  0  0  0  0
  -26.2434  -31.8525   24.8192 N   0  0  0  0  0  0  0  0  0  0  0  0
  -28.3660  -32.4544   27.6827 N   0  3  0  0  0  0  0  0  0  0  0  0
  -22.5953  -14.8069   21.2527 O   0  0  0  0  0  0  0  0  0  0  0  0
  -28.3257  -20.0300   24.4270 O   0  0  0  0  0  0  0  0  0  0  0  0
  -23.8939  -27.0167   22.9633 O   0  0  0  0  0  0  0  0  0  0  0  0
  -23.5849  -30.8143   24.5680 O   0  0  0  0  0  0  0  0  0  0  0  0
  -28.2618  -30.8533   25.3714 O   0  0  0  0  0  0  0  0  0  0  0  0
  -31.8023  -14.9642   20.2198 O   0  0  0  0  0  0  0  0  0  0  0  0
  -30.8607  -22.3968   25.1552 O   0  0  0  0  0  0  0  0  0  0  0  0
  -21.5135   -7.1198   21.8230 O   0  0  0  0  0  0  0  0  0  0  0  0
  -28.6064  -24.0563   25.5544 O   0  0  0  0  0  0  0  0  0  1  0  0
  -23.8978   -3.1308   24.7907 F   0  0  0  0  0  0  0  0  0  0  0  0
  -20.4371   -6.3127   24.2381 F   0  0  0  0  0  0  0  0  0  0  0  0
  1  2  1  0  0  0  0
  1  5  2  0  0  0  0
  2  6  2  0  0  0  0
  3  8  2  0  0  0  0
  3 16  1  0  0  0  0
  4  9  1  0  0  0  0
  4 16  2  0  0  0  0
  5 18  1  0  0  0  0
  6 20  1  0  0  0  0
  7 10  2  0  0  0  0
  7 19  1  0  0  0  0
  8 22  1  0  0  0  0
  9 22  2  0  0  0  0
 10 23  1  0  0  0  0
 11 12  2  0  0  0  0
 11 24  1  0  0  0  0
 12 25  1  0  0  0  0
 13 21  1  0  0  0  0
 13 23  2  0  0  0  0
 14 25  2  0  0  0  0
 14 26  1  0  0  0  0
 15 28  1  0  0  0  0
 15 29  2  0  0  0  0
 16 27  1  0  0  0  0
 17 27  1  0  0  0  0
 17 30  2  0  0  0  0
 17 32  1  0  0  0  0
 18 20  2  0  0  0  0
 18 39  1  0  0  0  0
 19 21  2  0  0  0  0
 19 40  1  0  0  0  0
 20 48  1  0  0  0  0
 21 41  1  0  0  0  0
 22 80  1  0  0  0  0
 23 81  1  0  0  0  0
 24 26  2  0  0  0  0
 24 80  1  0  0  0  0
 25 82  1  0  0  0  0
 26 83  1  0  0  0  0
 27 60  2  0  0  0  0
 28 61  2  0  0  0  0
 28 68  1  0  0  0  0
 29 63  1  0  0  0  0
 29 69  1  0  0  0  0
 30 62  1  0  0  0  0
 30 66  1  0  0  0  0
 31 33  2  0  0  0  0
 31 81  1  0  0  0  0
 32 67  1  0  0  0  0
 32 73  2  0  0  0  0
 33 34  1  0  0  0  0
 33 79  1  0  0  0  0
 34 69  1  0  0  0  0
 34 74  2  0  0  0  0
 35 49  1  0  0  0  0
 35 70  1  0  0  0  0
 35 75  2  0  0  0  0
 36 57  1  0  0  0  0
 36 64  1  0  0  0  0
 36 76  2  0  0  0  0
 37 58  1  0  0  0  0
 37 71  1  0  0  0  0
 37 77  2  0  0  0  0
 38 65  1  0  0  0  0
 38 68  1  0  0  0  0
 38 78  2  0  0  0  0
 39 42  1  0  0  0  0
 40 49  1  0  0  0  0
 41 64  1  0  0  0  0
 42 44  1  0  0  0  0
 43 45  1  0  0  0  0
 43 46  1  0  0  0  0
 44 48  1  0  0  0  0
 45 50  1  0  0  0  0
 46 65  1  0  0  0  0
 47 50  1  0  0  0  0
 47 65  1  0  0  0  0
 48 70  1  0  0  0  0
 49 64  1  0  0  0  0
 50 62  1  0  0  0  0
 51 58  1  0  0  0  0
 52 59  1  0  0  0  0
 53 59  1  0  0  0  0
 54 59  1  0  0  0  0
 55 63  1  0  0  0  0
 56 72  1  0  0  0  0
 57 59  1  0  0  0  0
 57 71  1  0  0  0  0
 58 72  1  0  0  0  0
 60 62  1  0  0  0  0
 61 63  1  0  0  0  0
M  CHG  1  72   1
M  ISO  4  31 101  38 100  68 100  81 101
M  END
> <Batch ID>
0183

> <Smiles>
CNC(C)C(=O)NC(C(=O)N1Cc2cc([101O:1][101CH2:1]C(=O)C(=O)Nc3cc([100NH:0][100C:0](=O)N4CCCC(n5nc(-c6ccc(Oc7ccc(F)cc7F)cc6)c(C(N)=O)c5N)C4)nn3C)ccc2CC1C(=O)NC1CCCc2ccccc21)C(C)(C)C

> <Shape>
0.311

> <Color>
0.209

> <Negative vol penalty>
0.000

$$$$

  -OEChem-04052304593D

 87 95  0     1  0  0  0  0  0999 V2000
  -23.6907  -17.6871   24.7521 C   0  0  0  0  0  0  0  0  0  0  0  0
  -24.5264  -18.7980   24.7713 C   0  0  0  0  0  0  0  0  0  0  0  0
  -25.6735  -14.2009   21.2286 C   0  0  0  0  0  0  0  0  0  0  0  0
  -25.4954  -14.5338   18.8423 C   0  0  0  0  0  0  0  0  0  0  0  0
  -22.5839  -17.6668   23.9060 C   0  0  0  0  0  0  0  0  0  0  0  0
  -24.2489  -19.8938   23.9534 C   0  0  0  0  0  0  0  0  0  0  0  0
  -27.3801  -25.0380   23.0258 C   0  0  0  0  0  0  0  0  0  0  0  0
  -24.6486  -13.2564   21.1734 C   0  0  0  0  0  0  0  0  0  0  0  0
  -24.4705  -13.5893   18.7871 C   0  0  0  0  0  0  0  0  0  0  0  0
  -28.3551  -25.5047   22.1452 C   0  0  0  0  0  0  0  0  0  0  0  0
  -24.2971  -10.0107   20.2932 C   0  0  0  0  0  0  0  0  0  0  0  0
  -24.4749   -8.8193   20.9963 C   0  0  0  0  0  0  0  0  0  0  0  0
  -26.6367  -26.5194   20.7900 C   0  0  0  0  0  0  0  0  0  0  0  0
  -22.5041   -9.2996   22.3087 C   0  0  0  0  0  0  0  0  0  0  0  0
  -29.8042  -21.7437   15.4766 C   0  0  0  0  0  0  0  0  0  0  0  0
  -30.6577  -23.7824   14.5281 C   0  0  0  0  0  0  0  0  0  0  0  0
  -26.0969  -14.8397   20.0631 C   0  0  0  0  0  0  0  0  0  0  0  0
  -28.5366  -15.5809   19.9835 C   0  0  0  0  0  0  0  0  0  0  0  0
  -22.3005  -18.7582   23.0685 C   0  0  0  0  0  0  0  0  0  0  0  0
  -26.0230  -25.2997   22.7888 C   0  0  0  0  0  0  0  0  0  0  0  0
  -23.1232  -19.9023   23.1100 C   0  0  0  0  0  0  0  0  0  0  0  0
  -25.6467  -26.0571   21.6705 C   0  0  0  0  0  0  0  0  0  0  0  0
  -24.0471  -12.9506   19.9526 C   0  0  0  0  0  0  0  0  0  0  0  0
  -27.9832  -26.2431   21.0256 C   0  0  0  0  0  0  0  0  0  0  0  0
  -23.2228  -10.8467   20.5978 C   0  0  0  0  0  0  0  0  0  0  0  0
  -23.5784   -8.4637   22.0041 C   0  0  0  0  0  0  0  0  0  0  0  0
  -22.3263  -10.4911   21.6055 C   0  0  0  0  0  0  0  0  0  0  0  0
  -30.4651  -22.4077   14.4491 C   0  0  0  0  0  0  0  0  0  0  0  0
  -27.1552  -15.8158   20.1196 C   0  0  0  0  0  0  0  0  0  0  0  0
  -29.3589  -22.4942   16.5527 C   0  0  0  0  0  0  0  0  0  0  0  0
  -30.1739  -24.4417   15.6466 C   0  0  0  0  0  0  0  0  0  0  0  0
  -29.1103  -16.8221   20.1130 C   0  0  0  0  0  0  0  0  0  0  0  0
  -29.2383  -14.3508   19.7599 C   0  0  0  0  0  0  0  0  0  0  0  0
  -23.4553  -23.5077   22.2418 C   0  0  0  0  0  0  0  0  0  0  0  0
  -29.7441  -26.6084   17.8825 C   0  0  0  0  0  0  0  0  0  0  0  0
  -21.9098  -26.3535   22.4297 C   0  0  0  0  0  0  0  0  0  0  0  0
  -22.0537  -29.7521   22.1557 C   0  0  0  0  0  0  0  0  0  0  0  0
  -28.1569  -22.3563   18.7624 C   0  0  0  0  0  0  0  0  0  0  0  0
  -21.0851  -18.6864   22.1781 C   0  0  0  0  0  0  0  0  0  0  0  0
  -24.9856  -24.8120   23.7627 C   0  0  0  0  0  0  0  0  0  0  0  0
  -24.2047  -26.3826   21.3819 C   0  0  0  0  0  0  0  0  0  0  0  0
  -21.1243  -19.6964   21.0359 C   0  0  0  0  0  0  0  0  0  0  0  0
  -27.6809  -21.1348   22.0728 C   0  0  0  0  0  0  0  0  0  0  0  0
  -21.4604  -21.0786   21.5756 C   0  0  0  0  0  0  0  0  0  0  0  0
  -27.6317  -19.6156   21.8950 C   0  0  0  0  0  0  0  0  0  0  0  0
  -27.0089  -21.8638   20.9106 C   0  0  0  0  0  0  0  0  0  0  0  0
  -27.4460  -19.9679   19.3994 C   0  0  0  0  0  0  0  0  0  0  0  0
  -22.8585  -21.0932   22.2067 C   0  0  1  0  0  0  0  0  0  0  0  0
  -23.5944  -24.6990   23.1469 C   0  0  1  0  0  0  0  0  0  0  0  0
  -28.1677  -19.1922   20.5134 C   0  0  2  0  0  0  0  0  0  0  0  0
  -20.6210  -31.8049   22.3303 C   0  0  0  0  0  0  0  0  0  0  0  0
  -20.6775  -25.7217   19.7109 C   0  0  0  0  0  0  0  0  0  0  0  0
  -20.0495  -28.1371   19.5121 C   0  0  0  0  0  0  0  0  0  0  0  0
  -19.1011  -26.7514   21.3569 C   0  0  0  0  0  0  0  0  0  0  0  0
  -23.6883  -30.8462   24.3670 C   0  0  0  0  0  0  0  0  0  0  0  0
  -28.5537  -26.8419   18.7958 C   0  0  0  0  0  0  0  0  0  1  0  0
  -29.4797  -26.7210   16.3874 C   0  0  1  0  0  0  0  0  0  0  0  0
  -21.5341  -27.4332   21.4438 C   0  0  1  0  0  0  0  0  0  0  0  0
  -21.5550  -30.8583   23.0679 C   0  0  2  0  0  0  0  0  0  0  0  0
  -20.3676  -27.0032   20.5100 C   0  0  0  0  0  0  0  0  0  0  0  0
  -29.6848  -28.1282   15.8622 C   0  0  0  0  0  0  0  0  0  0  0  0
  -26.8687  -17.1049   20.3203 N   0  0  0  0  0  0  0  0  0  0  0  0
  -29.5273  -23.8309   16.6646 N   0  0  0  0  0  0  0  0  0  0  0  0
  -28.0780  -17.6911   20.3114 N   0  0  0  0  0  0  0  0  0  0  0  0
  -23.2270  -25.8781   22.3602 N   0  0  0  0  0  0  0  0  0  0  0  0
  -27.5703  -21.4150   19.6345 N   0  0  0  0  0  0  0  0  0  0  0  0
  -30.3921  -17.2440   20.0754 N   0  0  0  0  0  0  0  0  0  0  0  0
  -28.4948  -13.1677   19.6511 N   0  0  0  0  0  0  0  0  0  0  0  0
  -28.6861  -21.8085   17.5943 N   0  0  0  0  0  0  0  0  0  0  0  0
  -30.3745  -25.8112   15.7115 N   0  0  0  0  0  0  0  0  0  0  0  0
  -23.0555  -22.3536   22.8882 N   0  0  0  0  0  0  0  0  0  0  0  0
  -21.2581  -28.6287   22.2331 N   0  0  0  0  0  0  0  0  0  0  0  0
  -22.7017  -31.6484   23.5988 N   0  3  0  0  0  0  0  0  0  0  0  0
  -30.4888  -14.2999   19.6760 O   0  0  0  0  0  0  0  0  0  0  0  0
  -23.6916  -23.6270   21.0453 O   0  0  0  0  0  0  0  0  0  0  0  0
  -30.8576  -26.3404   18.3341 O   0  0  0  0  0  0  0  0  0  0  0  0
  -21.0677  -25.9519   23.2368 O   0  0  0  0  0  0  0  0  0  0  0  0
  -23.0474  -29.8740   21.4427 O   0  0  0  0  0  0  0  0  0  0  0  0
  -28.2119  -23.5561   19.0444 O   0  0  0  0  0  0  0  0  0  0  0  0
  -23.0471  -12.0288   19.8983 O   0  0  0  0  0  0  0  0  0  0  0  0
  -28.9328  -26.6993   20.1641 O   0  0  0  0  0  0  0  0  0  1  0  0
  -23.7484   -7.3188   22.6782 F   0  0  0  0  0  0  0  0  0  0  0  0
  -21.2916  -11.2895   21.9019 F   0  0  0  0  0  0  0  0  0  0  0  0
  -30.9136  -21.7257   13.3872 F   0  0  0  0  0  0  0  0  0  0  0  0
  -28.8574  -28.9985   16.4847 F   0  0  0  0  0  0  0  0  0  0  0  0
  -29.4483  -28.2155   14.5358 F   0  0  0  0  0  0  0  0  0  0  0  0
  -30.9499  -28.5489   16.0865 F   0  0  0  0  0  0  0  0  0  0  0  0
  1  2  1  0  0  0  0
  1  5  2  0  0  0  0
  2  6  2  0  0  0  0
  3  8  2  0  0  0  0
  3 17  1  0  0  0  0
  4  9  1  0  0  0  0
  4 17  2  0  0  0  0
  5 19  1  0  0  0  0
  6 21  1  0  0  0  0
  7 10  2  0  0  0  0
  7 20  1  0  0  0  0
  8 23  1  0  0  0  0
  9 23  2  0  0  0  0
 10 24  1  0  0  0  0
 11 12  2  0  0  0  0
 11 25  1  0  0  0  0
 12 26  1  0  0  0  0
 13 22  1  0  0  0  0
 13 24  2  0  0  0  0
 14 26  2  0  0  0  0
 14 27  1  0  0  0  0
 15 28  1  0  0  0  0
 15 30  2  0  0  0  0
 16 28  2  0  0  0  0
 16 31  1  0  0  0  0
 17 29  1  0  0  0  0
 18 29  1  0  0  0  0
 18 32  2  0  0  0  0
 18 33  1  0  0  0  0
 19 21  2  0  0  0  0
 19 39  1  0  0  0  0
 20 22  2  0  0  0  0
 20 40  1  0  0  0  0
 21 48  1  0  0  0  0
 22 41  1  0  0  0  0
 23 80  1  0  0  0  0
 24 81  1  0  0  0  0
 25 27  2  0  0  0  0
 25 80  1  0  0  0  0
 26 82  1  0  0  0  0
 27 83  1  0  0  0  0
 28 84  1  0  0  0  0
 29 62  2  0  0  0  0
 30 63  1  0  0  0  0
 30 69  1  0  0  0  0
 31 63  2  0  0  0  0
 31 70  1  0  0  0  0
 32 64  1  0  0  0  0
 32 67  1  0  0  0  0
 33 68  1  0  0  0  0
 33 74  2  0  0  0  0
 34 49  1  0  0  0  0
 34 71  1  0  0  0  0
 34 75  2  0  0  0  0
 35 56  1  0  0  0  0
 35 57  1  0  0  0  0
 35 76  2  0  0  0  0
 36 58  1  0  0  0  0
 36 65  1  0  0  0  0
 36 77  2  0  0  0  0
 37 59  1  0  0  0  0
 37 72  1  0  0  0  0
 37 78  2  0  0  0  0
 38 66  1  0  0  0  0
 38 69  1  0  0  0  0
 38 79  2  0  0  0  0
 39 42  1  0  0  0  0
 40 49  1  0  0  0  0
 41 65  1  0  0  0  0
 42 44  1  0  0  0  0
 43 45  1  0  0  0  0
 43 46  1  0  0  0  0
 44 48  1  0  0  0  0
 45 50  1  0  0  0  0
 46 66  1  0  0  0  0
 47 50  1  0  0  0  0
 47 66  1  0  0  0  0
 48 71  1  0  0  0  0
 49 65  1  0  0  0  0
 50 64  1  0  0  0  0
 51 59  1  0  0  0  0
 52 60  1  0  0  0  0
 53 60  1  0  0  0  0
 54 60  1  0  0  0  0
 55 73  1  0  0  0  0
 56 81  1  0  0  0  0
 57 61  1  0  0  0  0
 57 70  1  0  0  0  0
 58 60  1  0  0  0  0
 58 72  1  0  0  0  0
 59 73  1  0  0  0  0
 61 85  1  0  0  0  0
 61 86  1  0  0  0  0
 61 87  1  0  0  0  0
 62 64  1  0  0  0  0
M  CHG  1  73   1
M  ISO  4  38 100  56 101  69 100  81 101
M  END
> <Batch ID>
0183

> <Smiles>
CNC(C)C(=O)NC(C(=O)N1Cc2cc([101O:1][101CH2:1]C(=O)C(Nc3cc(F)cc([100NH:0][100C:0](=O)N4CCCC(n5nc(-c6ccc(Oc7ccc(F)cc7F)cc6)c(C(N)=O)c5N)C4)n3)C(F)(F)F)ccc2CC1C(=O)NC1CCCc2ccccc21)C(C)(C)C

> <Shape>
0.210

> <Color>
0.069

> <Negative vol penalty>
0.000

$$$$

  -OEChem-04052304593D

 82 90  0     1  0  0  0  0  0999 V2000
  -30.4530  -21.5495   10.4529 C   0  0  0  0  0  0  0  0  0  0  0  0
  -31.1240  -21.1956   11.6190 C   0  0  0  0  0  0  0  0  0  0  0  0
  -23.0732   -9.8703   19.9399 C   0  0  0  0  0  0  0  0  0  0  0  0
  -23.8345   -9.8741   22.2328 C   0  0  0  0  0  0  0  0  0  0  0  0
  -29.6449  -22.6855   10.4324 C   0  0  0  0  0  0  0  0  0  0  0  0
  -30.9882  -21.9782   12.7652 C   0  0  0  0  0  0  0  0  0  0  0  0
  -30.2554  -19.2027   16.9370 C   0  0  0  0  0  0  0  0  0  0  0  0
  -22.3285   -8.7175   20.1890 C   0  0  0  0  0  0  0  0  0  0  0  0
  -23.0898   -8.7213   22.4820 C   0  0  0  0  0  0  0  0  0  0  0  0
  -31.3743  -18.5884   17.4978 C   0  0  0  0  0  0  0  0  0  0  0  0
  -19.8614   -7.9255   23.0856 C   0  0  0  0  0  0  0  0  0  0  0  0
  -19.1051   -7.8849   24.2569 C   0  0  0  0  0  0  0  0  0  0  0  0
  -31.5103  -20.3496   19.1406 C   0  0  0  0  0  0  0  0  0  0  0  0
  -20.3454   -5.9456   24.9905 C   0  0  0  0  0  0  0  0  0  0  0  0
  -23.8262  -10.4486   20.9617 C   0  0  0  0  0  0  0  0  0  0  0  0
  -24.1700  -12.9736   20.8442 C   0  0  0  0  0  0  0  0  0  0  0  0
  -29.4914  -23.4770   11.5816 C   0  0  0  0  0  0  0  0  0  0  0  0
  -29.7612  -20.4028   17.4680 C   0  0  0  0  0  0  0  0  0  0  0  0
  -30.1783  -23.1266   12.7596 C   0  0  0  0  0  0  0  0  0  0  0  0
  -30.3834  -20.9757   18.5863 C   0  0  0  0  0  0  0  0  0  0  0  0
  -22.3368   -8.1430   21.4601 C   0  0  0  0  0  0  0  0  0  0  0  0
  -32.0037  -19.1634   18.5980 C   0  0  0  0  0  0  0  0  0  0  0  0
  -20.8596   -6.9761   22.8667 C   0  0  0  0  0  0  0  0  0  0  0  0
  -19.3472   -6.8950   25.2094 C   0  0  0  0  0  0  0  0  0  0  0  0
  -21.1017   -5.9862   23.8191 C   0  0  0  0  0  0  0  0  0  0  0  0
  -24.5961  -11.6391   20.7048 C   0  0  0  0  0  0  0  0  0  0  0  0
  -31.8171  -18.7190   22.2545 C   0  0  0  0  0  0  0  0  0  0  0  0
  -25.2626  -13.7226   20.4811 C   0  0  0  0  0  0  0  0  0  0  0  0
  -30.7160  -19.0857   22.9996 C   0  0  0  0  0  0  0  0  0  0  0  0
  -30.5778  -16.9432   21.9073 C   0  0  0  0  0  0  0  0  0  0  0  0
  -22.9002  -13.4900   21.2645 C   0  0  0  0  0  0  0  0  0  0  0  0
  -33.0458  -19.5526   22.0969 C   0  0  0  0  0  0  0  0  0  0  0  0
  -29.3843  -23.3584   16.3609 C   0  0  0  0  0  0  0  0  0  0  0  0
  -27.9020  -23.8188   19.2092 C   0  0  0  0  0  0  0  0  0  0  0  0
  -27.5008  -22.8491   22.4566 C   0  0  0  0  0  0  0  0  0  0  0  0
  -30.7298  -14.7634   20.6535 C   0  0  0  0  0  0  0  0  0  0  0  0
  -28.6446  -24.7222   11.4977 C   0  0  0  0  0  0  0  0  0  0  0  0
  -28.5372  -21.0387   16.8681 C   0  0  0  0  0  0  0  0  0  0  0  0
  -29.8800  -22.2526   19.2065 C   0  0  0  0  0  0  0  0  0  0  0  0
  -28.2570  -25.2883   12.8613 C   0  0  0  0  0  0  0  0  0  0  0  0
  -29.6118  -12.3533   18.2832 C   0  0  0  0  0  0  0  0  0  0  0  0
  -29.4716  -25.3401   13.7826 C   0  0  0  0  0  0  0  0  0  0  0  0
  -28.1722  -12.0624   18.7134 C   0  0  0  0  0  0  0  0  0  0  0  0
  -30.5279  -12.5799   19.4845 C   0  0  0  0  0  0  0  0  0  0  0  0
  -28.6224  -13.3044   20.8679 C   0  0  0  0  0  0  0  0  0  0  0  0
  -30.0365  -23.9362   14.0303 C   0  0  1  0  0  0  0  0  0  0  0  0
  -28.4287  -22.5297   17.1719 C   0  0  1  0  0  0  0  0  0  0  0  0
  -27.6487  -13.1333   19.6905 C   0  0  2  0  0  0  0  0  0  0  0  0
  -26.2475  -23.4408   24.5486 C   0  0  0  0  0  0  0  0  0  0  0  0
  -35.3868  -19.2619   19.0386 C   0  0  0  0  0  0  0  0  0  0  0  0
  -29.7764  -26.1837   19.6605 C   0  0  0  0  0  0  0  0  0  0  0  0
  -29.1488  -26.1292   22.0836 C   0  0  0  0  0  0  0  0  0  0  0  0
  -27.4075  -26.5826   20.3559 C   0  0  0  0  0  0  0  0  0  0  0  0
  -26.1557  -20.2141   22.5346 C   0  0  0  0  0  0  0  0  0  0  0  0
  -34.1874  -19.0173   21.2402 C   0  0  0  0  0  0  0  0  0  0  0  0
  -28.3444  -24.2459   20.5879 C   0  0  1  0  0  0  0  0  0  0  0  0
  -26.2546  -22.5944   23.2852 C   0  0  2  0  0  0  0  0  0  0  0  0
  -34.0586  -19.4178   19.7679 C   0  0  2  0  0  0  0  0  0  1  0  0
  -28.6801  -25.7623   20.6593 C   0  0  0  0  0  0  0  0  0  0  0  0
  -25.8606  -11.5427   20.2856 N   0  0  0  0  0  0  0  0  0  0  0  0
  -31.7399  -17.4906   21.6277 N   0  0  0  0  0  0  0  0  0  0  0  0
  -26.2385  -12.8261   20.1584 N   0  0  0  0  0  0  0  0  0  0  0  0
  -28.6839  -22.8396   18.5802 N   0  0  0  0  0  0  0  0  0  0  0  0
  -29.9704  -13.6102   20.3635 N   0  0  0  0  0  0  0  0  0  0  0  0
  -25.4740  -15.0540   20.4094 N   0  0  0  0  0  0  0  0  0  0  0  0
  -30.5246  -20.2233   23.7118 N   0  0  0  0  0  0  0  0  0  0  0  0
  -21.8878  -12.5813   21.6014 N   0  0  0  0  0  0  0  0  0  0  0  0
  -30.0837  -15.6881   21.4734 N   0  0  0  0  0  0  0  0  0  0  0  0
  -29.2233  -23.2271   14.9947 N   0  0  0  0  0  0  0  0  0  0  0  0
  -27.2904  -23.8235   21.5039 N   0  0  0  0  0  0  0  0  0  0  0  0
  -26.1798  -21.1594   23.6804 N   0  3  0  0  0  0  0  0  0  0  0  0
  -22.6650  -14.7207   21.3233 O   0  0  0  0  0  0  0  0  0  0  0  0
  -33.1052  -20.6430   22.6603 O   0  0  0  0  0  0  0  0  0  0  0  0
  -30.2058  -24.0658   16.9322 O   0  0  0  0  0  0  0  0  0  0  0  0
  -26.8955  -24.3298   18.7117 O   0  0  0  0  0  0  0  0  0  0  0  0
  -28.5566  -22.2469   22.6389 O   0  0  0  0  0  0  0  0  0  0  0  0
  -31.8587  -14.9317   20.1854 O   0  0  0  0  0  0  0  0  0  0  0  0
  -21.6101   -7.0182   21.7036 O   0  0  0  0  0  0  0  0  0  0  0  0
  -33.0964  -18.5663   19.1469 O   0  0  0  0  0  0  0  0  0  1  0  0
  -18.6219   -6.8570   26.3349 F   0  0  0  0  0  0  0  0  0  0  0  0
  -22.0601   -5.0722   23.6149 F   0  0  0  0  0  0  0  0  0  0  0  0
  -29.5289  -17.8506   22.9178 S   0  0  0  0  0  0  0  0  0  0  0  0
  1  2  1  0  0  0  0
  1  5  2  0  0  0  0
  2  6  2  0  0  0  0
  3  8  2  0  0  0  0
  3 15  1  0  0  0  0
  4  9  1  0  0  0  0
  4 15  2  0  0  0  0
  5 17  1  0  0  0  0
  6 19  1  0  0  0  0
  7 10  2  0  0  0  0
  7 18  1  0  0  0  0
  8 21  1  0  0  0  0
  9 21  2  0  0  0  0
 10 22  1  0  0  0  0
 11 12  2  0  0  0  0
 11 23  1  0  0  0  0
 12 24  1  0  0  0  0
 13 20  1  0  0  0  0
 13 22  2  0  0  0  0
 14 24  2  0  0  0  0
 14 25  1  0  0  0  0
 15 26  1  0  0  0  0
 16 26  1  0  0  0  0
 16 28  2  0  0  0  0
 16 31  1  0  0  0  0
 17 19  2  0  0  0  0
 17 37  1  0  0  0  0
 18 20  2  0  0  0  0
 18 38  1  0  0  0  0
 19 46  1  0  0  0  0
 20 39  1  0  0  0  0
 21 78  1  0  0  0  0
 22 79  1  0  0  0  0
 23 25  2  0  0  0  0
 23 78  1  0  0  0  0
 24 80  1  0  0  0  0
 25 81  1  0  0  0  0
 26 60  2  0  0  0  0
 27 29  2  0  0  0  0
 27 32  1  0  0  0  0
 27 61  1  0  0  0  0
 28 62  1  0  0  0  0
 28 65  1  0  0  0  0
 29 66  1  0  0  0  0
 29 82  1  0  0  0  0
 30 61  2  0  0  0  0
 30 68  1  0  0  0  0
 30 82  1  0  0  0  0
 31 67  1  0  0  0  0
 31 72  2  0  0  0  0
 32 55  1  0  0  0  0
 32 73  2  0  0  0  0
 33 47  1  0  0  0  0
 33 69  1  0  0  0  0
 33 74  2  0  0  0  0
 34 56  1  0  0  0  0
 34 63  1  0  0  0  0
 34 75  2  0  0  0  0
 35 57  1  0  0  0  0
 35 70  1  0  0  0  0
 35 76  2  0  0  0  0
 36 64  1  0  0  0  0
 36 68  1  0  0  0  0
 36 77  2  0  0  0  0
 37 40  1  0  0  0  0
 38 47  1  0  0  0  0
 39 63  1  0  0  0  0
 40 42  1  0  0  0  0
 41 43  1  0  0  0  0
 41 44  1  0  0  0  0
 42 46  1  0  0  0  0
 43 48  1  0  0  0  0
 44 64  1  0  0  0  0
 45 48  1  0  0  0  0
 45 64  1  0  0  0  0
 46 69  1  0  0  0  0
 47 63  1  0  0  0  0
 48 62  1  0  0  0  0
 49 57  1  0  0  0  0
 50 58  1  0  0  0  0
 51 59  1  0  0  0  0
 52 59  1  0  0  0  0
 53 59  1  0  0  0  0
 54 71  1  0  0  0  0
 55 58  1  0  0  0  0
 56 59  1  0  0  0  0
 56 70  1  0  0  0  0
 57 71  1  0  0  0  0
 58 79  1  0  0  0  0
 60 62  1  0  0  0  0
M  CHG  1  71   1
M  ISO  4  36 100  58 101  68 100  79 101
M  END
> <Batch ID>
0183

> <Smiles>
CNC(C)C(=O)NC(C(=O)N1Cc2cc([101O:1][101CH:1](C)CC(=O)c3nc([100NH:0][100C:0](=O)N4CCCC(n5nc(-c6ccc(Oc7ccc(F)cc7F)cc6)c(C(N)=O)c5N)C4)sc3N)ccc2CC1C(=O)NC1CCCc2ccccc21)C(C)(C)C

> <Shape>
0.231

> <Color>
0.184

> <Negative vol penalty>
0.000

$$$$

  -OEChem-04052304593D

 87 95  0     1  0  0  0  0  0999 V2000
  -23.2617  -15.2388   22.7103 C   0  0  0  0  0  0  0  0  0  0  0  0
  -24.2292  -16.2385   22.7060 C   0  0  0  0  0  0  0  0  0  0  0  0
  -26.3858  -12.7897   21.6262 C   0  0  0  0  0  0  0  0  0  0  0  0
  -25.8171  -13.8045   19.5087 C   0  0  0  0  0  0  0  0  0  0  0  0
  -21.9861  -15.5026   22.2130 C   0  0  0  0  0  0  0  0  0  0  0  0
  -23.9220  -17.5023   22.2033 C   0  0  0  0  0  0  0  0  0  0  0  0
  -26.0400  -22.8822   24.2225 C   0  0  0  0  0  0  0  0  0  0  0  0
  -25.1603  -12.1237   21.6362 C   0  0  0  0  0  0  0  0  0  0  0  0
  -24.5915  -13.1384   19.5186 C   0  0  0  0  0  0  0  0  0  0  0  0
  -27.0674  -23.7127   23.7770 C   0  0  0  0  0  0  0  0  0  0  0  0
  -23.7978   -9.3921   20.1819 C   0  0  0  0  0  0  0  0  0  0  0  0
  -23.7970   -8.0412   20.5294 C   0  0  0  0  0  0  0  0  0  0  0  0
  -25.4649  -25.0170   22.5320 C   0  0  0  0  0  0  0  0  0  0  0  0
  -22.3326   -8.5209   22.3903 C   0  0  0  0  0  0  0  0  0  0  0  0
  -26.7142  -13.6301   20.5624 C   0  0  0  0  0  0  0  0  0  0  0  0
  -29.1931  -13.8593   20.0054 C   0  0  0  0  0  0  0  0  0  0  0  0
  -21.6603  -16.7732   21.7129 C   0  0  0  0  0  0  0  0  0  0  0  0
  -24.7166  -23.1067   23.8167 C   0  0  0  0  0  0  0  0  0  0  0  0
  -22.6412  -17.7830   21.6976 C   0  0  0  0  0  0  0  0  0  0  0  0
  -24.4222  -24.1895   22.9758 C   0  0  0  0  0  0  0  0  0  0  0  0
  -24.2632  -12.2980   20.5824 C   0  0  0  0  0  0  0  0  0  0  0  0
  -26.7804  -24.7785   22.9293 C   0  0  0  0  0  0  0  0  0  0  0  0
  -23.0661  -10.3074   20.9386 C   0  0  0  0  0  0  0  0  0  0  0  0
  -23.0644   -7.6056   21.6336 C   0  0  0  0  0  0  0  0  0  0  0  0
  -22.3335   -9.8718   22.0427 C   0  0  0  0  0  0  0  0  0  0  0  0
  -27.9798  -14.3188   20.5518 C   0  0  0  0  0  0  0  0  0  0  0  0
  -29.1558  -23.6131   17.7757 C   0  0  0  0  0  0  0  0  0  0  0  0
  -30.0861  -14.8737   20.2507 C   0  0  0  0  0  0  0  0  0  0  0  0
  -28.5805  -22.8771   16.7611 C   0  0  0  0  0  0  0  0  0  0  0  0
  -28.9460  -21.7028   18.8323 C   0  0  0  0  0  0  0  0  0  0  0  0
  -29.4867  -12.6259   19.3360 C   0  0  0  0  0  0  0  0  0  0  0  0
  -22.5628  -21.4467   22.1707 C   0  0  0  0  0  0  0  0  0  0  0  0
  -29.1835  -25.7053   19.9106 C   0  0  0  0  0  0  0  0  0  0  0  0
  -20.6088  -23.8976   23.0056 C   0  0  0  0  0  0  0  0  0  0  0  0
  -20.2979  -27.1609   23.9550 C   0  0  0  0  0  0  0  0  0  0  0  0
  -29.4507  -20.7527   21.1103 C   0  0  0  0  0  0  0  0  0  0  0  0
  -20.2822  -16.9971   21.1423 C   0  0  0  0  0  0  0  0  0  0  0  0
  -23.6161  -22.2178   24.3276 C   0  0  0  0  0  0  0  0  0  0  0  0
  -23.0152  -24.4856   22.5274 C   0  0  0  0  0  0  0  0  0  0  0  0
  -19.9256  -18.4717   20.9724 C   0  0  0  0  0  0  0  0  0  0  0  0
  -30.9624  -18.4256   23.3411 C   0  0  0  0  0  0  0  0  0  0  0  0
  -21.0763  -19.2268   20.3148 C   0  0  0  0  0  0  0  0  0  0  0  0
  -30.4844  -17.0662   22.8255 C   0  0  0  0  0  0  0  0  0  0  0  0
  -29.8791  -19.4947   23.2100 C   0  0  0  0  0  0  0  0  0  0  0  0
  -28.8215  -18.2705   21.3521 C   0  0  0  0  0  0  0  0  0  0  0  0
  -22.3389  -19.1738   21.1835 C   0  0  1  0  0  0  0  0  0  0  0  0
  -22.3763  -22.2309   23.4387 C   0  0  1  0  0  0  0  0  0  0  0  0
  -29.9003  -17.1764   21.4035 C   0  0  2  0  0  0  0  0  0  0  0  0
  -18.5718  -28.8900   24.5277 C   0  0  0  0  0  0  0  0  0  0  0  0
  -19.9444  -24.2119   20.0442 C   0  0  0  0  0  0  0  0  0  0  0  0
  -19.0117  -26.4761   20.5652 C   0  0  0  0  0  0  0  0  0  0  0  0
  -17.9864  -24.4424   21.5828 C   0  0  0  0  0  0  0  0  0  0  0  0
  -21.3704  -27.4923   26.6934 C   0  0  0  0  0  0  0  0  0  0  0  0
  -29.8526  -25.7560   21.2785 C   0  0  0  0  0  0  0  0  0  0  0  0
  -29.0757  -25.0065   22.3501 C   0  0  0  0  0  0  0  0  0  1  0  0
  -30.1160  -25.7192   18.7074 C   0  0  2  0  0  0  0  0  0  0  0  0
  -20.2463  -25.2308   22.3972 C   0  0  1  0  0  0  0  0  0  0  0  0
  -19.5004  -27.8142   25.0692 C   0  0  2  0  0  0  0  0  0  0  0  0
  -19.3241  -25.0838   21.1541 C   0  0  0  0  0  0  0  0  0  0  0  0
  -30.3620  -27.1357   18.2339 C   0  0  0  0  0  0  0  0  0  0  0  0
  -28.0886  -15.5307   21.1028 N   0  0  0  0  0  0  0  0  0  0  0  0
  -29.3658  -22.9415   18.9642 N   0  0  0  0  0  0  0  0  0  0  0  0
  -29.3809  -15.8412   20.9040 N   0  0  0  0  0  0  0  0  0  0  0  0
  -21.9747  -23.5840   23.0488 N   0  0  0  0  0  0  0  0  0  0  0  0
  -29.3760  -19.5447   21.8355 N   0  0  0  0  0  0  0  0  0  0  0  0
  -31.3979  -15.0233   19.9693 N   0  0  0  0  0  0  0  0  0  0  0  0
  -28.4531  -11.6944   19.1680 N   0  0  0  0  0  0  0  0  0  0  0  0
  -29.5126  -24.9444   17.6458 N   0  0  0  0  0  0  0  0  0  0  0  0
  -28.9719  -20.6710   19.8031 N   0  0  0  0  0  0  0  0  0  0  0  0
  -22.2354  -20.1090   22.2831 N   0  0  0  0  0  0  0  0  0  0  0  0
  -19.6731  -26.0292   23.4754 N   0  0  0  0  0  0  0  0  0  0  0  0
  -20.4167  -28.4412   26.0633 N   0  3  0  0  0  0  0  0  0  0  0  0
  -30.6356  -12.3508   18.9142 O   0  0  0  0  0  0  0  0  0  0  0  0
  -22.9721  -22.0137   21.1644 O   0  0  0  0  0  0  0  0  0  0  0  0
  -27.9596  -25.6731   19.7798 O   0  0  0  0  0  0  0  0  0  0  0  0
  -19.7136  -23.1647   23.4335 O   0  0  0  0  0  0  0  0  0  0  0  0
  -21.3665  -27.6117   23.5480 O   0  0  0  0  0  0  0  0  0  0  0  0
  -29.9310  -21.7767   21.6029 O   0  0  0  0  0  0  0  0  0  0  0  0
  -23.0673  -11.6481   20.5917 O   0  0  0  0  0  0  0  0  0  0  0  0
  -27.7814  -25.5903   22.4924 O   0  0  0  0  0  0  0  0  0  1  0  0
  -23.0624   -6.3082   21.9663 F   0  0  0  0  0  0  0  0  0  0  0  0
  -21.6277  -10.7462   22.7727 F   0  0  0  0  0  0  0  0  0  0  0  0
  -28.2924  -23.3322   15.5387 F   0  0  0  0  0  0  0  0  0  0  0  0
  -31.1808  -27.1488   17.1574 F   0  0  0  0  0  0  0  0  0  0  0  0
  -30.9555  -27.8773   19.1948 F   0  0  0  0  0  0  0  0  0  0  0  0
  -29.2143  -27.7561   17.8846 F   0  0  0  0  0  0  0  0  0  0  0  0
  -28.2880  -21.2773   17.3056 S   0  0  0  0  0  0  0  0  0  0  0  0
  1  2  1  0  0  0  0
  1  5  2  0  0  0  0
  2  6  2  0  0  0  0
  3  8  2  0  0  0  0
  3 15  1  0  0  0  0
  4  9  1  0  0  0  0
  4 15  2  0  0  0  0
  5 17  1  0  0  0  0
  6 19  1  0  0  0  0
  7 10  2  0  0  0  0
  7 18  1  0  0  0  0
  8 21  1  0  0  0  0
  9 21  2  0  0  0  0
 10 22  1  0  0  0  0
 11 12  2  0  0  0  0
 11 23  1  0  0  0  0
 12 24  1  0  0  0  0
 13 20  1  0  0  0  0
 13 22  2  0  0  0  0
 14 24  2  0  0  0  0
 14 25  1  0  0  0  0
 15 26  1  0  0  0  0
 16 26  1  0  0  0  0
 16 28  2  0  0  0  0
 16 31  1  0  0  0  0
 17 19  2  0  0  0  0
 17 37  1  0  0  0  0
 18 20  2  0  0  0  0
 18 38  1  0  0  0  0
 19 46  1  0  0  0  0
 20 39  1  0  0  0  0
 21 79  1  0  0  0  0
 22 80  1  0  0  0  0
 23 25  2  0  0  0  0
 23 79  1  0  0  0  0
 24 81  1  0  0  0  0
 25 82  1  0  0  0  0
 26 61  2  0  0  0  0
 27 29  2  0  0  0  0
 27 62  1  0  0  0  0
 27 68  1  0  0  0  0
 28 63  1  0  0  0  0
 28 66  1  0  0  0  0
 29 83  1  0  0  0  0
 29 87  1  0  0  0  0
 30 62  2  0  0  0  0
 30 69  1  0  0  0  0
 30 87  1  0  0  0  0
 31 67  1  0  0  0  0
 31 73  2  0  0  0  0
 32 47  1  0  0  0  0
 32 70  1  0  0  0  0
 32 74  2  0  0  0  0
 33 54  1  0  0  0  0
 33 56  1  0  0  0  0
 33 75  2  0  0  0  0
 34 57  1  0  0  0  0
 34 64  1  0  0  0  0
 34 76  2  0  0  0  0
 35 58  1  0  0  0  0
 35 71  1  0  0  0  0
 35 77  2  0  0  0  0
 36 65  1  0  0  0  0
 36 69  1  0  0  0  0
 36 78  2  0  0  0  0
 37 40  1  0  0  0  0
 38 47  1  0  0  0  0
 39 64  1  0  0  0  0
 40 42  1  0  0  0  0
 41 43  1  0  0  0  0
 41 44  1  0  0  0  0
 42 46  1  0  0  0  0
 43 48  1  0  0  0  0
 44 65  1  0  0  0  0
 45 48  1  0  0  0  0
 45 65  1  0  0  0  0
 46 70  1  0  0  0  0
 47 64  1  0  0  0  0
 48 63  1  0  0  0  0
 49 58  1  0  0  0  0
 50 59  1  0  0  0  0
 51 59  1  0  0  0  0
 52 59  1  0  0  0  0
 53 72  1  0  0  0  0
 54 55  1  0  0  0  0
 55 80  1  0  0  0  0
 56 60  1  0  0  0  0
 56 68  1  0  0  0  0
 57 59  1  0  0  0  0
 57 71  1  0  0  0  0
 58 72  1  0  0  0  0
 60 84  1  0  0  0  0
 60 85  1  0  0  0  0
 60 86  1  0  0  0  0
 61 63  1  0  0  0  0
M  CHG  1  72   1
M  ISO  4  36 100  55 101  69 100  80 101
M  END
> <Batch ID>
0183

> <Smiles>
CNC(C)C(=O)NC(C(=O)N1Cc2cc([101O:1][101CH2:1]CC(=O)C(Nc3nc([100NH:0][100C:0](=O)N4CCCC(n5nc(-c6ccc(Oc7ccc(F)cc7F)cc6)c(C(N)=O)c5N)C4)sc3F)C(F)(F)F)ccc2CC1C(=O)NC1CCCc2ccccc21)C(C)(C)C

> <Shape>
0.230

> <Color>
0.068

> <Negative vol penalty>
0.000

$$$$

  -OEChem-04052304593D

 88 96  0     1  0  0  0  0  0999 V2000
  -17.0961  -28.2184   22.4532 C   0  0  0  0  0  0  0  0  0  0  0  0
  -18.0709  -28.1471   21.4633 C   0  0  0  0  0  0  0  0  0  0  0  0
  -25.2419  -13.2323   22.1546 C   0  0  0  0  0  0  0  0  0  0  0  0
  -26.1829  -13.6656   19.9719 C   0  0  0  0  0  0  0  0  0  0  0  0
  -17.3154  -28.9931   23.5915 C   0  0  0  0  0  0  0  0  0  0  0  0
  -19.2654  -28.8514   21.6106 C   0  0  0  0  0  0  0  0  0  0  0  0
  -24.8228  -27.1116   19.7149 C   0  0  0  0  0  0  0  0  0  0  0  0
  -24.3626  -12.3073   21.5919 C   0  0  0  0  0  0  0  0  0  0  0  0
  -25.3035  -12.7405   19.4092 C   0  0  0  0  0  0  0  0  0  0  0  0
  -25.5728  -27.4362   18.5853 C   0  0  0  0  0  0  0  0  0  0  0  0
  -24.4723   -9.1064   20.5079 C   0  0  0  0  0  0  0  0  0  0  0  0
  -24.3115   -7.8844   21.1611 C   0  0  0  0  0  0  0  0  0  0  0  0
  -26.7343  -29.1301   19.8505 C   0  0  0  0  0  0  0  0  0  0  0  0
  -21.9552   -8.3418   21.4367 C   0  0  0  0  0  0  0  0  0  0  0  0
  -26.1521  -13.9115   21.3446 C   0  0  0  0  0  0  0  0  0  0  0  0
  -28.3498  -14.6166   22.4310 C   0  0  0  0  0  0  0  0  0  0  0  0
  -18.5171  -29.6996   23.7573 C   0  0  0  0  0  0  0  0  0  0  0  0
  -25.0157  -27.8024   20.9199 C   0  0  0  0  0  0  0  0  0  0  0  0
  -19.5005  -29.6374   22.7515 C   0  0  0  0  0  0  0  0  0  0  0  0
  -25.9873  -28.8106   20.9947 C   0  0  0  0  0  0  0  0  0  0  0  0
  -24.3934  -12.0613   20.2193 C   0  0  0  0  0  0  0  0  0  0  0  0
  -26.5266  -28.4475   18.6522 C   0  0  0  0  0  0  0  0  0  0  0  0
  -23.3745   -9.9461   20.3192 C   0  0  0  0  0  0  0  0  0  0  0  0
  -23.0530   -7.5021   21.6255 C   0  0  0  0  0  0  0  0  0  0  0  0
  -22.1160   -9.5638   20.7836 C   0  0  0  0  0  0  0  0  0  0  0  0
  -27.0603  -14.8676   21.9252 C   0  0  0  0  0  0  0  0  0  0  0  0
  -29.5839  -22.4540   17.0192 C   0  0  0  0  0  0  0  0  0  0  0  0
  -29.2914  -23.4826   17.8901 C   0  0  0  0  0  0  0  0  0  0  0  0
  -28.7932  -15.8421   22.8645 C   0  0  0  0  0  0  0  0  0  0  0  0
  -28.5313  -21.8102   19.0880 C   0  0  0  0  0  0  0  0  0  0  0  0
  -29.0815  -13.3856   22.5026 C   0  0  0  0  0  0  0  0  0  0  0  0
  -23.1954  -29.6383   22.7691 C   0  0  0  0  0  0  0  0  0  0  0  0
  -25.7646  -29.5222   24.7460 C   0  0  0  0  0  0  0  0  0  0  0  0
  -29.1269  -29.0592   25.1031 C   0  0  0  0  0  0  0  0  0  0  0  0
  -29.3234  -25.9341   18.4501 C   0  0  0  0  0  0  0  0  0  0  0  0
  -27.4320  -21.4534   21.3265 C   0  0  0  0  0  0  0  0  0  0  0  0
  -18.6894  -30.5615   24.9829 C   0  0  0  0  0  0  0  0  0  0  0  0
  -24.2174  -27.4221   22.1366 C   0  0  0  0  0  0  0  0  0  0  0  0
  -26.2471  -29.5686   22.2700 C   0  0  0  0  0  0  0  0  0  0  0  0
  -20.1359  -30.9781   25.2362 C   0  0  0  0  0  0  0  0  0  0  0  0
  -27.1845  -20.0161   24.5745 C   0  0  0  0  0  0  0  0  0  0  0  0
  -20.7821  -31.4744   23.9466 C   0  0  0  0  0  0  0  0  0  0  0  0
  -27.2481  -18.5100   24.3103 C   0  0  0  0  0  0  0  0  0  0  0  0
  -26.4119  -20.7516   23.4810 C   0  0  0  0  0  0  0  0  0  0  0  0
  -26.9369  -18.9838   21.8474 C   0  0  0  0  0  0  0  0  0  0  0  0
  -20.8193  -30.3671   22.8864 C   0  0  1  0  0  0  0  0  0  0  0  0
  -24.1377  -28.5395   23.1722 C   0  0  1  0  0  0  0  0  0  0  0  0
  -27.7608  -18.2085   22.8884 C   0  0  2  0  0  0  0  0  0  0  0  0
  -31.6662  -23.0213   15.7169 C   0  0  0  0  0  0  0  0  0  0  0  0
  -29.3991  -23.2829   14.6458 C   0  0  0  0  0  0  0  0  0  0  0  0
  -30.9431  -29.0638   26.8348 C   0  0  0  0  0  0  0  0  0  0  0  0
  -26.8949  -28.0880   15.2791 C   0  0  0  0  0  0  0  0  0  0  0  0
  -25.7101  -32.5726   24.7915 C   0  0  0  0  0  0  0  0  0  0  0  0
  -28.0373  -32.5310   25.7137 C   0  0  0  0  0  0  0  0  0  0  0  0
  -26.1670  -31.5042   27.0061 C   0  0  0  0  0  0  0  0  0  0  0  0
  -29.7865  -26.2207   24.5864 C   0  0  0  0  0  0  0  0  0  0  0  0
  -29.0350  -27.5212   16.4824 C   0  0  0  0  0  0  0  0  0  0  0  0
  -30.2174  -22.4827   15.6851 C   0  0  0  0  0  0  0  0  0  0  0  0
  -27.0153  -30.3489   24.9234 C   0  0  1  0  0  0  0  0  0  0  0  0
  -29.9299  -28.2183   26.0790 C   0  0  2  0  0  0  0  0  0  0  0  0
  -27.5208  -27.7187   16.6183 C   0  0  1  0  0  0  0  0  0  1  0  0
  -29.7541  -27.2381   17.8035 C   0  0  0  0  0  0  0  0  0  0  0  0
  -26.7264  -31.7264   25.5839 C   0  0  0  0  0  0  0  0  0  0  0  0
  -26.7073  -16.1517   22.0273 N   0  0  0  0  0  0  0  0  0  0  0  0
  -28.6874  -23.1154   19.0767 N   0  0  0  0  0  0  0  0  0  0  0  0
  -27.7816  -16.7185   22.6025 N   0  0  0  0  0  0  0  0  0  0  0  0
  -25.4365  -29.1643   23.4307 N   0  0  0  0  0  0  0  0  0  0  0  0
  -26.9561  -20.4210   22.1621 N   0  0  0  0  0  0  0  0  0  0  0  0
  -29.9458  -16.2448   23.4405 N   0  0  0  0  0  0  0  0  0  0  0  0
  -28.4777  -12.2200   22.0118 N   0  0  0  0  0  0  0  0  0  0  0  0
  -29.5743  -24.8437   17.6281 N   0  0  0  0  0  0  0  0  0  0  0  0
  -27.9561  -21.0157   20.1106 N   0  0  0  0  0  0  0  0  0  0  0  0
  -21.8885  -29.4334   23.1683 N   0  0  0  0  0  0  0  0  0  0  0  0
  -27.9538  -29.5149   25.6664 N   0  0  0  0  0  0  0  0  0  0  0  0
  -30.6631  -27.1421   25.3543 N   0  3  0  0  0  0  0  0  0  0  0  0
  -30.2301  -13.3184   23.0025 O   0  0  0  0  0  0  0  0  0  0  0  0
  -23.6228  -30.6015   22.1436 O   0  0  0  0  0  0  0  0  0  0  0  0
  -25.1070  -29.1997   25.7386 O   0  0  0  0  0  0  0  0  0  0  0  0
  -29.5045  -29.2918   23.9568 O   0  0  0  0  0  0  0  0  0  0  0  0
  -28.8076  -25.9327   19.5640 O   0  0  0  0  0  0  0  0  0  0  0  0
  -27.4035  -22.6363   21.6759 O   0  0  0  0  0  0  0  0  0  0  0  0
  -23.5356  -11.1586   19.6699 O   0  0  0  0  0  0  0  0  0  0  0  0
  -27.2595  -28.7668   17.5509 O   0  0  0  0  0  0  0  0  0  1  0  0
  -22.8985   -6.3280   22.2513 F   0  0  0  0  0  0  0  0  0  0  0  0
  -21.0575  -10.3657   20.6042 F   0  0  0  0  0  0  0  0  0  0  0  0
  -29.5572  -28.2847   18.6519 F   0  0  0  0  0  0  0  0  0  0  0  0
  -31.0954  -27.2218   17.5529 F   0  0  0  0  0  0  0  0  0  0  0  0
  -29.0887  -20.9618   17.7044 S   0  0  0  0  0  0  0  0  0  0  0  0
  1  2  1  0  0  0  0
  1  5  2  0  0  0  0
  2  6  2  0  0  0  0
  3  8  2  0  0  0  0
  3 15  1  0  0  0  0
  4  9  1  0  0  0  0
  4 15  2  0  0  0  0
  5 17  1  0  0  0  0
  6 19  1  0  0  0  0
  7 10  2  0  0  0  0
  7 18  1  0  0  0  0
  8 21  1  0  0  0  0
  9 21  2  0  0  0  0
 10 22  1  0  0  0  0
 11 12  2  0  0  0  0
 11 23  1  0  0  0  0
 12 24  1  0  0  0  0
 13 20  1  0  0  0  0
 13 22  2  0  0  0  0
 14 24  2  0  0  0  0
 14 25  1  0  0  0  0
 15 26  1  0  0  0  0
 16 26  1  0  0  0  0
 16 29  2  0  0  0  0
 16 31  1  0  0  0  0
 17 19  2  0  0  0  0
 17 37  1  0  0  0  0
 18 20  2  0  0  0  0
 18 38  1  0  0  0  0
 19 46  1  0  0  0  0
 20 39  1  0  0  0  0
 21 82  1  0  0  0  0
 22 83  1  0  0  0  0
 23 25  2  0  0  0  0
 23 82  1  0  0  0  0
 24 84  1  0  0  0  0
 25 85  1  0  0  0  0
 26 64  2  0  0  0  0
 27 28  2  0  0  0  0
 27 58  1  0  0  0  0
 27 88  1  0  0  0  0
 28 65  1  0  0  0  0
 28 71  1  0  0  0  0
 29 66  1  0  0  0  0
 29 69  1  0  0  0  0
 30 65  2  0  0  0  0
 30 72  1  0  0  0  0
 30 88  1  0  0  0  0
 31 70  1  0  0  0  0
 31 76  2  0  0  0  0
 32 47  1  0  0  0  0
 32 73  1  0  0  0  0
 32 77  2  0  0  0  0
 33 59  1  0  0  0  0
 33 67  1  0  0  0  0
 33 78  2  0  0  0  0
 34 60  1  0  0  0  0
 34 74  1  0  0  0  0
 34 79  2  0  0  0  0
 35 62  1  0  0  0  0
 35 71  1  0  0  0  0
 35 80  2  0  0  0  0
 36 68  1  0  0  0  0
 36 72  1  0  0  0  0
 36 81  2  0  0  0  0
 37 40  1  0  0  0  0
 38 47  1  0  0  0  0
 39 67  1  0  0  0  0
 40 42  1  0  0  0  0
 41 43  1  0  0  0  0
 41 44  1  0  0  0  0
 42 46  1  0  0  0  0
 43 48  1  0  0  0  0
 44 68  1  0  0  0  0
 45 48  1  0  0  0  0
 45 68  1  0  0  0  0
 46 73  1  0  0  0  0
 47 67  1  0  0  0  0
 48 66  1  0  0  0  0
 49 58  1  0  0  0  0
 50 58  1  0  0  0  0
 51 60  1  0  0  0  0
 52 61  1  0  0  0  0
 53 63  1  0  0  0  0
 54 63  1  0  0  0  0
 55 63  1  0  0  0  0
 56 75  1  0  0  0  0
 57 61  1  0  0  0  0
 57 62  1  0  0  0  0
 59 63  1  0  0  0  0
 59 74  1  0  0  0  0
 60 75  1  0  0  0  0
 61 83  1  0  0  0  0
 62 86  1  0  0  0  0
 62 87  1  0  0  0  0
 64 66  1  0  0  0  0
M  CHG  1  75   1
M  ISO  4  36 100  61 101  72 100  83 101
M  END
> <Batch ID>
0183

> <Smiles>
CNC(C)C(=O)NC(C(=O)N1Cc2cc([101O:1][101CH:1](C)CC(F)(F)C(=O)Nc3nc([100NH:0][100C:0](=O)N4CCCC(n5nc(-c6ccc(Oc7ccc(F)cc7F)cc6)c(C(N)=O)c5N)C4)sc3C(C)C)ccc2CC1C(=O)NC1CCCc2ccccc21)C(C)(C)C

> <Shape>
0.284

> <Color>
0.096

> <Negative vol penalty>
0.000

$$$$

  -OEChem-04052304593D

 83 91  0     1  0  0  0  0  0999 V2000
  -29.5713  -25.8134   16.1281 C   0  0  0  0  0  0  0  0  0  0  0  0
  -28.3778  -25.7010   16.8340 C   0  0  0  0  0  0  0  0  0  0  0  0
  -29.9881  -18.5424   20.9623 C   0  0  0  0  0  0  0  0  0  0  0  0
  -27.5738  -18.5315   20.8716 C   0  0  0  0  0  0  0  0  0  0  0  0
  -30.6425  -26.5152   16.6794 C   0  0  0  0  0  0  0  0  0  0  0  0
  -28.2551  -26.2896   18.0922 C   0  0  0  0  0  0  0  0  0  0  0  0
  -23.8721  -28.7613   18.6617 C   0  0  0  0  0  0  0  0  0  0  0  0
  -30.0108  -17.2205   20.5178 C   0  0  0  0  0  0  0  0  0  0  0  0
  -27.5965  -17.2096   20.4270 C   0  0  0  0  0  0  0  0  0  0  0  0
  -22.7368  -27.9937   18.9181 C   0  0  0  0  0  0  0  0  0  0  0  0
  -30.6910  -13.7317   19.7504 C   0  0  0  0  0  0  0  0  0  0  0  0
  -31.5446  -12.8414   20.4017 C   0  0  0  0  0  0  0  0  0  0  0  0
  -22.5894  -25.2412   27.1705 C   0  0  0  0  0  0  0  0  0  0  0  0
  -23.9348  -24.8303   27.3968 C   0  0  0  0  0  0  0  0  0  0  0  0
  -22.9153  -28.5243   21.2646 C   0  0  0  0  0  0  0  0  0  0  0  0
  -30.3841  -13.2500   22.4810 C   0  0  0  0  0  0  0  0  0  0  0  0
  -28.7696  -19.1979   21.1393 C   0  0  0  0  0  0  0  0  0  0  0  0
  -28.7697  -21.7273   20.8077 C   0  0  0  0  0  0  0  0  0  0  0  0
  -30.5296  -27.1209   17.9407 C   0  0  0  0  0  0  0  0  0  0  0  0
  -24.5449  -29.4084   19.7081 C   0  0  0  0  0  0  0  0  0  0  0  0
  -29.3262  -26.9990   18.6614 C   0  0  0  0  0  0  0  0  0  0  0  0
  -24.0574  -29.3017   21.0185 C   0  0  0  0  0  0  0  0  0  0  0  0
  -28.8150  -16.5541   20.2501 C   0  0  0  0  0  0  0  0  0  0  0  0
  -22.2600  -27.8727   20.2201 C   0  0  0  0  0  0  0  0  0  0  0  0
  -29.6840  -14.3812   20.4643 C   0  0  0  0  0  0  0  0  0  0  0  0
  -31.3911  -12.6005   21.7671 C   0  0  0  0  0  0  0  0  0  0  0  0
  -29.5305  -14.1404   21.8296 C   0  0  0  0  0  0  0  0  0  0  0  0
  -28.7455  -20.5633   21.5990 C   0  0  0  0  0  0  0  0  0  0  0  0
  -21.9260  -24.3913   26.3131 C   0  0  0  0  0  0  0  0  0  0  0  0
  -28.7302  -22.7591   21.7134 C   0  0  0  0  0  0  0  0  0  0  0  0
  -24.2484  -23.6817   26.7038 C   0  0  0  0  0  0  0  0  0  0  0  0
  -20.3640  -25.5192   24.7520 C   0  0  0  0  0  0  0  0  0  0  0  0
  -28.8232  -21.8637   19.3814 C   0  0  0  0  0  0  0  0  0  0  0  0
  -27.4659  -29.2263   20.9486 C   0  0  0  0  0  0  0  0  0  0  0  0
  -20.4057  -26.2129   22.5763 C   0  0  0  0  0  0  0  0  0  0  0  0
  -26.4544  -31.7576   22.7069 C   0  0  0  0  0  0  0  0  0  0  0  0
  -23.8397  -33.5041   24.0335 C   0  0  0  0  0  0  0  0  0  0  0  0
  -26.6513  -23.2120   27.2971 C   0  0  0  0  0  0  0  0  0  0  0  0
  -31.7306  -27.8291   18.5160 C   0  0  0  0  0  0  0  0  0  0  0  0
  -25.7526  -30.2546   19.4113 C   0  0  0  0  0  0  0  0  0  0  0  0
  -24.7316  -29.9931   22.1742 C   0  0  0  0  0  0  0  0  0  0  0  0
  -31.3938  -28.7417   19.6924 C   0  0  0  0  0  0  0  0  0  0  0  0
  -29.9803  -23.8482   26.2061 C   0  0  0  0  0  0  0  0  0  0  0  0
  -30.4769  -28.0251   20.6786 C   0  0  0  0  0  0  0  0  0  0  0  0
  -30.0418  -23.1892   24.8263 C   0  0  0  0  0  0  0  0  0  0  0  0
  -29.1277  -23.0404   27.1830 C   0  0  0  0  0  0  0  0  0  0  0  0
  -27.8377  -22.0589   25.3278 C   0  0  0  0  0  0  0  0  0  0  0  0
  -29.1462  -27.6447   20.0182 C   0  0  1  0  0  0  0  0  0  0  0  0
  -26.6575  -30.4505   20.6237 C   0  0  1  0  0  0  0  0  0  0  0  0
  -28.6321  -22.8698   24.2910 C   0  0  2  0  0  0  0  0  0  0  0  0
  -20.9396  -24.7494   20.6092 C   0  0  0  0  0  0  0  0  0  0  0  0
  -23.3281  -35.5075   25.4554 C   0  0  0  0  0  0  0  0  0  0  0  0
  -27.2801  -30.1985   25.1964 C   0  0  0  0  0  0  0  0  0  0  0  0
  -25.9069  -31.7861   26.5610 C   0  0  0  0  0  0  0  0  0  0  0  0
  -27.8542  -32.6320   25.2514 C   0  0  0  0  0  0  0  0  0  0  0  0
  -22.3252  -34.8105   21.8520 C   0  0  0  0  0  0  0  0  0  0  0  0
  -20.5058  -24.4750   25.8243 C   0  0  0  0  0  0  0  0  0  0  0  0
  -21.3056  -26.0177   21.3621 C   0  0  1  0  0  0  0  0  0  1  0  0
  -25.7540  -31.9262   24.0336 C   0  0  1  0  0  0  0  0  0  0  0  0
  -23.5188  -34.9878   24.0390 C   0  0  2  0  0  0  0  0  0  0  0  0
  -26.6870  -31.6210   25.2393 C   0  0  0  0  0  0  0  0  0  0  0  0
  -28.6946  -20.8298   22.9068 N   0  0  0  0  0  0  0  0  0  0  0  0
  -20.5643  -25.2132   23.5134 N   0  0  0  0  0  0  0  0  0  0  0  0
  -28.6867  -22.1732   22.9442 N   0  0  0  0  0  0  0  0  0  0  0  0
  -25.9125  -30.8038   21.8338 N   0  0  0  0  0  0  0  0  0  0  0  0
  -27.8053  -22.7795   26.6101 N   0  0  0  0  0  0  0  0  0  0  0  0
  -28.7288  -24.1013   21.5690 N   0  0  0  0  0  0  0  0  0  0  0  0
  -28.8586  -20.7008   18.5999 N   0  0  0  0  0  0  0  0  0  0  0  0
  -25.4523  -22.9371   26.6403 N   0  0  0  0  0  0  0  0  0  0  0  0
  -28.2827  -28.8017   19.9181 N   0  0  0  0  0  0  0  0  0  0  0  0
  -25.1995  -33.2756   24.0338 N   0  0  0  0  0  0  0  0  0  0  0  0
  -22.2696  -35.2505   23.2699 N   0  3  0  0  0  0  0  0  0  0  0  0
  -28.8557  -22.9836   18.8174 O   0  0  0  0  0  0  0  0  0  0  0  0
  -27.3577  -28.7064   22.0529 O   0  0  0  0  0  0  0  0  0  0  0  0
  -19.6661  -27.1903   22.6754 O   0  0  0  0  0  0  0  0  0  0  0  0
  -27.4416  -32.4519   22.4517 O   0  0  0  0  0  0  0  0  0  0  0  0
  -22.9709  -32.6347   24.0330 O   0  0  0  0  0  0  0  0  0  0  0  0
  -26.7228  -23.8083   28.3747 O   0  0  0  0  0  0  0  0  0  0  0  0
  -28.8368  -15.2643   19.8160 O   0  0  0  0  0  0  0  0  0  0  0  0
  -21.1525  -27.1235   20.4732 O   0  0  0  0  0  0  0  0  0  1  0  0
  -32.2099  -11.7443   22.3921 F   0  0  0  0  0  0  0  0  0  0  0  0
  -28.5642  -14.7605   22.5206 F   0  0  0  0  0  0  0  0  0  0  0  0
  -22.9240  -23.1039   25.7849 S   0  0  0  0  0  0  0  0  0  0  0  0
  1  2  1  0  0  0  0
  1  5  2  0  0  0  0
  2  6  2  0  0  0  0
  3  8  2  0  0  0  0
  3 17  1  0  0  0  0
  4  9  1  0  0  0  0
  4 17  2  0  0  0  0
  5 19  1  0  0  0  0
  6 21  1  0  0  0  0
  7 10  2  0  0  0  0
  7 20  1  0  0  0  0
  8 23  1  0  0  0  0
  9 23  2  0  0  0  0
 10 24  1  0  0  0  0
 11 12  2  0  0  0  0
 11 25  1  0  0  0  0
 12 26  1  0  0  0  0
 13 14  1  0  0  0  0
 13 29  2  0  0  0  0
 14 31  2  0  0  0  0
 15 22  1  0  0  0  0
 15 24  2  0  0  0  0
 16 26  2  0  0  0  0
 16 27  1  0  0  0  0
 17 28  1  0  0  0  0
 18 28  1  0  0  0  0
 18 30  2  0  0  0  0
 18 33  1  0  0  0  0
 19 21  2  0  0  0  0
 19 39  1  0  0  0  0
 20 22  2  0  0  0  0
 20 40  1  0  0  0  0
 21 48  1  0  0  0  0
 22 41  1  0  0  0  0
 23 79  1  0  0  0  0
 24 80  1  0  0  0  0
 25 27  2  0  0  0  0
 25 79  1  0  0  0  0
 26 81  1  0  0  0  0
 27 82  1  0  0  0  0
 28 62  2  0  0  0  0
 29 57  1  0  0  0  0
 29 83  1  0  0  0  0
 30 64  1  0  0  0  0
 30 67  1  0  0  0  0
 31 69  1  0  0  0  0
 31 83  1  0  0  0  0
 32 57  1  0  0  0  0
 32 63  2  0  0  0  0
 33 68  1  0  0  0  0
 33 73  2  0  0  0  0
 34 49  1  0  0  0  0
 34 70  1  0  0  0  0
 34 74  2  0  0  0  0
 35 58  1  0  0  0  0
 35 63  1  0  0  0  0
 35 75  2  0  0  0  0
 36 59  1  0  0  0  0
 36 65  1  0  0  0  0
 36 76  2  0  0  0  0
 37 60  1  0  0  0  0
 37 71  1  0  0  0  0
 37 77  2  0  0  0  0
 38 66  1  0  0  0  0
 38 69  1  0  0  0  0
 38 78  2  0  0  0  0
 39 42  1  0  0  0  0
 40 49  1  0  0  0  0
 41 65  1  0  0  0  0
 42 44  1  0  0  0  0
 43 45  1  0  0  0  0
 43 46  1  0  0  0  0
 44 48  1  0  0  0  0
 45 50  1  0  0  0  0
 46 66  1  0  0  0  0
 47 50  1  0  0  0  0
 47 66  1  0  0  0  0
 48 70  1  0  0  0  0
 49 65  1  0  0  0  0
 50 64  1  0  0  0  0
 51 58  1  0  0  0  0
 52 60  1  0  0  0  0
 53 61  1  0  0  0  0
 54 61  1  0  0  0  0
 55 61  1  0  0  0  0
 56 72  1  0  0  0  0
 58 80  1  0  0  0  0
 59 61  1  0  0  0  0
 59 71  1  0  0  0  0
 60 72  1  0  0  0  0
 62 64  1  0  0  0  0
M  CHG  1  72   1
M  ISO  4  38 100  58 101  69 100  80 101
M  END
> <Batch ID>
0183

> <Smiles>
CNC(C)C(=O)NC(C(=O)N1Cc2cc([101O:1][101CH:1](C)C(=O)NC=Cc3ccc([100NH:0][100C:0](=O)N4CCCC(n5nc(-c6ccc(Oc7ccc(F)cc7F)cc6)c(C(N)=O)c5N)C4)s3)ccc2CC1C(=O)NC1CCCc2ccccc21)C(C)(C)C

> <Shape>
0.258

> <Color>
0.069

> <Negative vol penalty>
0.000

$$$$

  -OEChem-04052304593D

 82 90  0     1  0  0  0  0  0999 V2000
  -16.4906  -29.9188   23.2169 C   0  0  0  0  0  0  0  0  0  0  0  0
  -17.5162  -30.7799   23.5936 C   0  0  0  0  0  0  0  0  0  0  0  0
  -29.6951  -20.0067   18.4888 C   0  0  0  0  0  0  0  0  0  0  0  0
  -31.5177  -20.2704   20.0527 C   0  0  0  0  0  0  0  0  0  0  0  0
  -16.7810  -28.5995   22.8720 C   0  0  0  0  0  0  0  0  0  0  0  0
  -18.8329  -30.3219   23.6265 C   0  0  0  0  0  0  0  0  0  0  0  0
  -25.5517  -32.5626   22.5528 C   0  0  0  0  0  0  0  0  0  0  0  0
  -29.8435  -18.6212   18.5495 C   0  0  0  0  0  0  0  0  0  0  0  0
  -31.6661  -18.8848   20.1134 C   0  0  0  0  0  0  0  0  0  0  0  0
  -26.7932  -32.5873   23.1869 C   0  0  0  0  0  0  0  0  0  0  0  0
  -29.5062  -15.0016   18.5699 C   0  0  0  0  0  0  0  0  0  0  0  0
  -28.3507  -14.2306   18.6958 C   0  0  0  0  0  0  0  0  0  0  0  0
  -27.1857  -30.3103   22.4939 C   0  0  0  0  0  0  0  0  0  0  0  0
  -27.8361  -15.3420   20.7784 C   0  0  0  0  0  0  0  0  0  0  0  0
  -30.5323  -20.8314   19.2404 C   0  0  0  0  0  0  0  0  0  0  0  0
  -29.5629  -23.0673   19.9945 C   0  0  0  0  0  0  0  0  0  0  0  0
  -18.1030  -28.1277   22.8913 C   0  0  0  0  0  0  0  0  0  0  0  0
  -25.1126  -31.4060   21.8927 C   0  0  0  0  0  0  0  0  0  0  0  0
  -19.1411  -28.9947   23.2827 C   0  0  0  0  0  0  0  0  0  0  0  0
  -25.9394  -30.2743   21.8500 C   0  0  0  0  0  0  0  0  0  0  0  0
  -30.8289  -18.0602   19.3618 C   0  0  0  0  0  0  0  0  0  0  0  0
  -27.6091  -31.4601   23.1600 C   0  0  0  0  0  0  0  0  0  0  0  0
  -29.8267  -15.9428   19.5483 C   0  0  0  0  0  0  0  0  0  0  0  0
  -27.5156  -14.4007   19.8000 C   0  0  0  0  0  0  0  0  0  0  0  0
  -28.9916  -16.1130   20.6525 C   0  0  0  0  0  0  0  0  0  0  0  0
  -30.3799  -22.2628   19.1777 C   0  0  0  0  0  0  0  0  0  0  0  0
  -32.5349  -31.6669   21.4381 C   0  0  0  0  0  0  0  0  0  0  0  0
  -33.0382  -32.0867   20.2246 C   0  0  0  0  0  0  0  0  0  0  0  0
  -29.7719  -24.3453   19.5367 C   0  0  0  0  0  0  0  0  0  0  0  0
  -32.7899  -29.9578   19.7599 C   0  0  0  0  0  0  0  0  0  0  0  0
  -29.9064  -31.8865   23.0537 C   0  0  0  0  0  0  0  0  0  1  0  0
  -28.6929  -22.6929   21.0709 C   0  0  0  0  0  0  0  0  0  0  0  0
  -32.2485  -32.4215   22.6765 C   0  0  0  0  0  0  0  0  0  0  0  0
  -31.1439  -31.9462   23.5597 C   0  0  0  0  0  0  0  0  0  0  0  0
  -22.6656  -29.4095   22.2538 C   0  0  0  0  0  0  0  0  0  0  0  0
  -23.8163  -28.1208   19.5084 C   0  0  0  0  0  0  0  0  0  0  0  0
  -26.4758  -27.6448   17.4234 C   0  0  0  0  0  0  0  0  0  0  0  0
  -33.1679  -28.4065   17.8113 C   0  0  0  0  0  0  0  0  0  0  0  0
  -18.3623  -26.6804   22.5558 C   0  0  0  0  0  0  0  0  0  0  0  0
  -23.7822  -31.4043   21.1908 C   0  0  0  0  0  0  0  0  0  0  0  0
  -25.5230  -29.0144   21.1376 C   0  0  0  0  0  0  0  0  0  0  0  0
  -19.8281  -26.3779   22.2553 C   0  0  0  0  0  0  0  0  0  0  0  0
  -32.1418  -26.0107   15.3856 C   0  0  0  0  0  0  0  0  0  0  0  0
  -20.7311  -27.0155   23.3066 C   0  0  0  0  0  0  0  0  0  0  0  0
  -31.5247  -24.8882   16.2231 C   0  0  0  0  0  0  0  0  0  0  0  0
  -33.3518  -26.6354   16.0780 C   0  0  0  0  0  0  0  0  0  0  0  0
  -32.4956  -25.9705   18.2903 C   0  0  0  0  0  0  0  0  0  0  0  0
  -20.5849  -28.5420   23.3068 C   0  0  1  0  0  0  0  0  0  0  0  0
  -23.2157  -30.0025   20.9875 C   0  0  1  0  0  0  0  0  0  0  0  0
  -31.2344  -25.3541   17.6633 C   0  0  2  0  0  0  0  0  0  0  0  0
  -27.1179  -26.5170   15.2755 C   0  0  0  0  0  0  0  0  0  0  0  0
  -23.8622  -25.4265   20.9396 C   0  0  0  0  0  0  0  0  0  0  0  0
  -25.3608  -24.5678   19.1271 C   0  0  0  0  0  0  0  0  0  0  0  0
  -23.0533  -25.3379   18.5747 C   0  0  0  0  0  0  0  0  0  0  0  0
  -27.1997  -30.2182   16.1535 C   0  0  0  0  0  0  0  0  0  0  0  0
  -24.8203  -27.0451   19.1709 C   0  0  1  0  0  0  0  0  0  0  0  0
  -26.6177  -27.8004   15.9200 C   0  0  2  0  0  0  0  0  0  0  0  0
  -24.2815  -25.6173   19.4682 C   0  0  0  0  0  0  0  0  0  0  0  0
  -31.0573  -22.9704   18.2697 N   0  0  0  0  0  0  0  0  0  0  0  0
  -33.1854  -31.1080   19.2612 N   0  0  0  0  0  0  0  0  0  0  0  0
  -30.6663  -24.2329   18.5132 N   0  0  0  0  0  0  0  0  0  0  0  0
  -24.2107  -29.0601   20.4717 N   0  0  0  0  0  0  0  0  0  0  0  0
  -33.0006  -27.0568   17.4360 N   0  0  0  0  0  0  0  0  0  0  0  0
  -33.3785  -33.3691   19.9514 N   0  0  0  0  0  0  0  0  0  0  0  0
  -29.2761  -25.5429   19.9138 N   0  0  0  0  0  0  0  0  0  0  0  0
  -28.5962  -21.3367   21.4110 N   0  0  0  0  0  0  0  0  0  0  0  0
  -32.7699  -28.6957   19.1162 N   0  0  0  0  0  0  0  0  0  0  0  0
  -21.3156  -29.1199   22.1993 N   0  0  0  0  0  0  0  0  0  0  0  0
  -25.1996  -27.2628   17.7791 N   0  0  0  0  0  0  0  0  0  0  0  0
  -27.5800  -28.8927   15.6008 N   0  3  0  0  0  0  0  0  0  0  0  0
  -28.0086  -23.5342   21.7013 O   0  0  0  0  0  0  0  0  0  0  0  0
  -32.9387  -33.3980   22.9504 O   0  0  0  0  0  0  0  0  0  0  0  0
  -23.4112  -29.2268   23.2090 O   0  0  0  0  0  0  0  0  0  0  0  0
  -22.7252  -28.1316   18.9330 O   0  0  0  0  0  0  0  0  0  0  0  0
  -27.4053  -27.8387   18.2037 O   0  0  0  0  0  0  0  0  0  0  0  0
  -33.6046  -29.2498   17.0238 O   0  0  0  0  0  0  0  0  0  0  0  0
  -31.4294  -31.6191   24.8681 O   0  0  0  0  0  0  0  0  0  0  0  0
  -30.9738  -16.7081   19.4214 O   0  0  0  0  0  0  0  0  0  0  0  0
  -28.8210  -31.4813   23.7786 O   0  0  0  0  0  0  0  0  0  1  0  0
  -26.4052  -13.6613   19.9200 F   0  0  0  0  0  0  0  0  0  0  0  0
  -29.2936  -17.0165   21.5950 F   0  0  0  0  0  0  0  0  0  0  0  0
  -32.2283  -29.9805   21.3813 S   0  0  0  0  0  0  0  0  0  0  0  0
  1  2  1  0  0  0  0
  1  5  2  0  0  0  0
  2  6  2  0  0  0  0
  3  8  2  0  0  0  0
  3 15  1  0  0  0  0
  4  9  1  0  0  0  0
  4 15  2  0  0  0  0
  5 17  1  0  0  0  0
  6 19  1  0  0  0  0
  7 10  2  0  0  0  0
  7 18  1  0  0  0  0
  8 21  1  0  0  0  0
  9 21  2  0  0  0  0
 10 22  1  0  0  0  0
 11 12  2  0  0  0  0
 11 23  1  0  0  0  0
 12 24  1  0  0  0  0
 13 20  1  0  0  0  0
 13 22  2  0  0  0  0
 14 24  2  0  0  0  0
 14 25  1  0  0  0  0
 15 26  1  0  0  0  0
 16 26  1  0  0  0  0
 16 29  2  0  0  0  0
 16 32  1  0  0  0  0
 17 19  2  0  0  0  0
 17 39  1  0  0  0  0
 18 20  2  0  0  0  0
 18 40  1  0  0  0  0
 19 48  1  0  0  0  0
 20 41  1  0  0  0  0
 21 78  1  0  0  0  0
 22 79  1  0  0  0  0
 23 25  2  0  0  0  0
 23 78  1  0  0  0  0
 24 80  1  0  0  0  0
 25 81  1  0  0  0  0
 26 59  2  0  0  0  0
 27 28  2  0  0  0  0
 27 33  1  0  0  0  0
 27 82  1  0  0  0  0
 28 60  1  0  0  0  0
 28 64  1  0  0  0  0
 29 61  1  0  0  0  0
 29 65  1  0  0  0  0
 30 60  2  0  0  0  0
 30 67  1  0  0  0  0
 30 82  1  0  0  0  0
 31 34  2  0  0  0  0
 31 79  1  0  0  0  0
 32 66  1  0  0  0  0
 32 71  2  0  0  0  0
 33 34  1  0  0  0  0
 33 72  2  0  0  0  0
 34 77  1  0  0  0  0
 35 49  1  0  0  0  0
 35 68  1  0  0  0  0
 35 73  2  0  0  0  0
 36 56  1  0  0  0  0
 36 62  1  0  0  0  0
 36 74  2  0  0  0  0
 37 57  1  0  0  0  0
 37 69  1  0  0  0  0
 37 75  2  0  0  0  0
 38 63  1  0  0  0  0
 38 67  1  0  0  0  0
 38 76  2  0  0  0  0
 39 42  1  0  0  0  0
 40 49  1  0  0  0  0
 41 62  1  0  0  0  0
 42 44  1  0  0  0  0
 43 45  1  0  0  0  0
 43 46  1  0  0  0  0
 44 48  1  0  0  0  0
 45 50  1  0  0  0  0
 46 63  1  0  0  0  0
 47 50  1  0  0  0  0
 47 63  1  0  0  0  0
 48 68  1  0  0  0  0
 49 62  1  0  0  0  0
 50 61  1  0  0  0  0
 51 57  1  0  0  0  0
 52 58  1  0  0  0  0
 53 58  1  0  0  0  0
 54 58  1  0  0  0  0
 55 70  1  0  0  0  0
 56 58  1  0  0  0  0
 56 69  1  0  0  0  0
 57 70  1  0  0  0  0
 59 61  1  0  0  0  0
M  CHG  1  70   1
M  ISO  4  31 101  38 100  67 100  79 101
M  END
> <Batch ID>
0183

> <Smiles>
CNC(C)C(=O)NC(C(=O)N1Cc2cc([101O:1][101CH2:1]C(=O)C(=O)c3sc([100NH:0][100C:0](=O)N4CCCC(n5nc(-c6ccc(Oc7ccc(F)cc7F)cc6)c(C(N)=O)c5N)C4)nc3N)ccc2CC1C(=O)NC1CCCc2ccccc21)C(C)(C)C

> <Shape>
0.263

> <Color>
0.091

> <Negative vol penalty>
0.000

$$$$

  -OEChem-04052304593D

 86 94  0     1  0  0  0  0  0999 V2000
  -22.3048  -18.0104   14.9631 C   0  0  0  0  0  0  0  0  0  0  0  0
  -23.6509  -17.7886   15.2356 C   0  0  0  0  0  0  0  0  0  0  0  0
  -24.9990  -31.3408   20.4900 C   0  0  0  0  0  0  0  0  0  0  0  0
  -23.8047  -29.8136   21.9316 C   0  0  0  0  0  0  0  0  0  0  0  0
  -21.3570  -17.8669   15.9756 C   0  0  0  0  0  0  0  0  0  0  0  0
  -24.0501  -17.4243   16.5210 C   0  0  0  0  0  0  0  0  0  0  0  0
  -28.6362  -13.6531   18.0216 C   0  0  0  0  0  0  0  0  0  0  0  0
  -24.2433  -32.4021   20.9881 C   0  0  0  0  0  0  0  0  0  0  0  0
  -23.0490  -30.8749   22.4298 C   0  0  0  0  0  0  0  0  0  0  0  0
  -29.9498  -13.8880   18.4254 C   0  0  0  0  0  0  0  0  0  0  0  0
  -22.8764  -35.5668   22.1420 C   0  0  0  0  0  0  0  0  0  0  0  0
  -23.5501  -36.7408   22.4786 C   0  0  0  0  0  0  0  0  0  0  0  0
  -29.2706  -13.6854   20.7313 C   0  0  0  0  0  0  0  0  0  0  0  0
  -24.8711  -35.5204   24.0918 C   0  0  0  0  0  0  0  0  0  0  0  0
  -24.7797  -30.0466   20.9617 C   0  0  0  0  0  0  0  0  0  0  0  0
  -26.7829  -28.4671   20.9495 C   0  0  0  0  0  0  0  0  0  0  0  0
  -21.7437  -17.4913   17.2717 C   0  0  0  0  0  0  0  0  0  0  0  0
  -27.6262  -13.4431   18.9715 C   0  0  0  0  0  0  0  0  0  0  0  0
  -23.1067  -17.2770   17.5521 C   0  0  0  0  0  0  0  0  0  0  0  0
  -27.9455  -13.4455   20.3368 C   0  0  0  0  0  0  0  0  0  0  0  0
  -23.2683  -32.1692   21.9580 C   0  0  0  0  0  0  0  0  0  0  0  0
  -30.2666  -13.9071   19.7805 C   0  0  0  0  0  0  0  0  0  0  0  0
  -23.2000  -34.3695   22.7803 C   0  0  0  0  0  0  0  0  0  0  0  0
  -24.5475  -36.7177   23.4534 C   0  0  0  0  0  0  0  0  0  0  0  0
  -24.1974  -34.3463   23.7552 C   0  0  0  0  0  0  0  0  0  0  0  0
  -25.5597  -28.9498   20.4471 C   0  0  0  0  0  0  0  0  0  0  0  0
  -28.4005  -19.4883   19.6720 C   0  0  0  0  0  0  0  0  0  0  0  0
  -27.9439  -19.2135   18.3999 C   0  0  0  0  0  0  0  0  0  0  0  0
  -27.1089  -27.4247   20.1167 C   0  0  0  0  0  0  0  0  0  0  0  0
  -27.0999  -21.2251   18.6257 C   0  0  0  0  0  0  0  0  0  0  0  0
  -30.5614  -18.3233   20.0015 C   0  0  0  0  0  0  0  0  0  0  0  0
  -27.5555  -28.9205   22.0690 C   0  0  0  0  0  0  0  0  0  0  0  0
  -24.9393  -14.9478   19.7588 C   0  0  0  0  0  0  0  0  0  0  0  0
  -32.1221  -16.8756   19.2016 C   0  0  0  0  0  0  0  0  0  0  0  0
  -24.5358  -12.3870   21.7085 C   0  0  0  0  0  0  0  0  0  0  0  0
  -25.9572   -9.8199   23.4511 C   0  0  0  0  0  0  0  0  0  0  0  0
  -25.7190  -22.8424   17.2753 C   0  0  0  0  0  0  0  0  0  0  0  0
  -20.6883  -17.3947   18.3448 C   0  0  0  0  0  0  0  0  0  0  0  0
  -26.2192  -13.1645   18.5187 C   0  0  0  0  0  0  0  0  0  0  0  0
  -26.9017  -13.2055   21.3957 C   0  0  0  0  0  0  0  0  0  0  0  0
  -21.1517  -16.6409   19.5887 C   0  0  0  0  0  0  0  0  0  0  0  0
  -25.0896  -25.9763   15.7069 C   0  0  0  0  0  0  0  0  0  0  0  0
  -22.5335  -17.1216   20.0205 C   0  0  0  0  0  0  0  0  0  0  0  0
  -25.2564  -26.9896   16.8416 C   0  0  0  0  0  0  0  0  0  0  0  0
  -24.4434  -24.6806   16.1940 C   0  0  0  0  0  0  0  0  0  0  0  0
  -25.2677  -25.0680   18.4831 C   0  0  0  0  0  0  0  0  0  0  0  0
  -23.5762  -16.8563   18.9278 C   0  0  1  0  0  0  0  0  0  0  0  0
  -25.1753  -13.4738   19.5874 C   0  0  1  0  0  0  0  0  0  0  0  0
  -25.9737  -26.3646   18.0543 C   0  0  2  0  0  0  0  0  0  0  0  0
  -25.3757   -7.9177   24.9812 C   0  0  0  0  0  0  0  0  0  0  0  0
  -24.1599  -14.3557   24.0091 C   0  0  0  0  0  0  0  0  0  0  0  0
  -24.5349  -12.4599   25.6008 C   0  0  0  0  0  0  0  0  0  0  0  0
  -22.5923  -12.4074   24.0368 C   0  0  0  0  0  0  0  0  0  0  0  0
  -32.5479  -13.0971   18.2757 C   0  0  0  0  0  0  0  0  0  0  0  0
  -33.8765  -14.5376   19.8340 C   0  0  0  0  0  0  0  0  0  0  0  0
  -27.0194   -7.8144   21.5513 C   0  0  0  0  0  0  0  0  0  0  0  0
  -29.2282  -18.6539   20.6112 C   0  0  0  0  0  0  0  0  0  0  0  0
  -32.1594  -15.6155   18.3532 C   0  0  0  0  0  0  0  0  0  0  0  0
  -24.9248  -12.0525   23.1283 C   0  0  1  0  0  0  0  0  0  0  0  0
  -25.6047   -8.3460   23.5400 C   0  0  2  0  0  0  0  0  0  0  0  0
  -24.0725  -12.8253   24.1741 C   0  0  0  0  0  0  0  0  0  0  0  0
  -32.5171  -14.3503   19.1522 C   0  0  0  0  0  0  0  0  0  1  0  0
  -25.1373  -28.2699   19.3778 N   0  0  0  0  0  0  0  0  0  0  0  0
  -27.1976  -20.2080   17.7985 N   0  0  0  0  0  0  0  0  0  0  0  0
  -30.8952  -17.0940   19.7884 N   0  0  0  0  0  0  0  0  0  0  0  0
  -26.1005  -27.3495   19.2014 N   0  0  0  0  0  0  0  0  0  0  0  0
  -25.5392  -12.9439   20.9031 N   0  0  0  0  0  0  0  0  0  0  0  0
  -25.1788  -24.1442   17.3413 N   0  0  0  0  0  0  0  0  0  0  0  0
  -28.1887  -18.0519   17.7480 N   0  0  0  0  0  0  0  0  0  0  0  0
  -28.1569  -26.5744   20.0852 N   0  0  0  0  0  0  0  0  0  0  0  0
  -27.0752  -30.0038   22.8175 N   0  0  0  0  0  0  0  0  0  0  0  0
  -26.4252  -22.4528   18.4128 N   0  0  0  0  0  0  0  0  0  0  0  0
  -23.9632  -15.4618   18.9266 N   0  0  0  0  0  0  0  0  0  0  0  0
  -24.8397  -10.6006   23.2436 N   0  0  0  0  0  0  0  0  0  0  0  0
  -26.7039   -7.5153   22.9719 N   0  3  0  0  0  0  0  0  0  0  0  0
  -28.6478  -28.3914   22.3861 O   0  0  0  0  0  0  0  0  0  0  0  0
  -25.5933  -15.5723   20.5859 O   0  0  0  0  0  0  0  0  0  0  0  0
  -33.1213  -17.5825   19.3232 O   0  0  0  0  0  0  0  0  0  0  0  0
  -23.3860  -12.1559   21.3261 O   0  0  0  0  0  0  0  0  0  0  0  0
  -27.1082  -10.2372   23.5589 O   0  0  0  0  0  0  0  0  0  0  0  0
  -25.5895  -22.1362   16.2720 O   0  0  0  0  0  0  0  0  0  0  0  0
  -22.5308  -33.2046   22.4445 O   0  0  0  0  0  0  0  0  0  0  0  0
  -31.5479  -14.1367   20.1775 O   0  0  0  0  0  0  0  0  0  1  0  0
  -25.1954  -37.8449   23.7754 F   0  0  0  0  0  0  0  0  0  0  0  0
  -24.5135  -33.1989   24.3711 F   0  0  0  0  0  0  0  0  0  0  0  0
  -27.8820  -21.0536   20.1436 S   0  0  0  0  0  0  0  0  0  0  0  0
  1  2  1  0  0  0  0
  1  5  2  0  0  0  0
  2  6  2  0  0  0  0
  3  8  2  0  0  0  0
  3 15  1  0  0  0  0
  4  9  1  0  0  0  0
  4 15  2  0  0  0  0
  5 17  1  0  0  0  0
  6 19  1  0  0  0  0
  7 10  2  0  0  0  0
  7 18  1  0  0  0  0
  8 21  1  0  0  0  0
  9 21  2  0  0  0  0
 10 22  1  0  0  0  0
 11 12  2  0  0  0  0
 11 23  1  0  0  0  0
 12 24  1  0  0  0  0
 13 20  1  0  0  0  0
 13 22  2  0  0  0  0
 14 24  2  0  0  0  0
 14 25  1  0  0  0  0
 15 26  1  0  0  0  0
 16 26  1  0  0  0  0
 16 29  2  0  0  0  0
 16 32  1  0  0  0  0
 17 19  2  0  0  0  0
 17 38  1  0  0  0  0
 18 20  2  0  0  0  0
 18 39  1  0  0  0  0
 19 47  1  0  0  0  0
 20 40  1  0  0  0  0
 21 82  1  0  0  0  0
 22 83  1  0  0  0  0
 23 25  2  0  0  0  0
 23 82  1  0  0  0  0
 24 84  1  0  0  0  0
 25 85  1  0  0  0  0
 26 63  2  0  0  0  0
 27 28  2  0  0  0  0
 27 57  1  0  0  0  0
 27 86  1  0  0  0  0
 28 64  1  0  0  0  0
 28 69  1  0  0  0  0
 29 66  1  0  0  0  0
 29 70  1  0  0  0  0
 30 64  2  0  0  0  0
 30 72  1  0  0  0  0
 30 86  1  0  0  0  0
 31 57  1  0  0  0  0
 31 65  2  0  0  0  0
 32 71  1  0  0  0  0
 32 76  2  0  0  0  0
 33 48  1  0  0  0  0
 33 73  1  0  0  0  0
 33 77  2  0  0  0  0
 34 58  1  0  0  0  0
 34 65  1  0  0  0  0
 34 78  2  0  0  0  0
 35 59  1  0  0  0  0
 35 67  1  0  0  0  0
 35 79  2  0  0  0  0
 36 60  1  0  0  0  0
 36 74  1  0  0  0  0
 36 80  2  0  0  0  0
 37 68  1  0  0  0  0
 37 72  1  0  0  0  0
 37 81  2  0  0  0  0
 38 41  1  0  0  0  0
 39 48  1  0  0  0  0
 40 67  1  0  0  0  0
 41 43  1  0  0  0  0
 42 44  1  0  0  0  0
 42 45  1  0  0  0  0
 43 47  1  0  0  0  0
 44 49  1  0  0  0  0
 45 68  1  0  0  0  0
 46 49  1  0  0  0  0
 46 68  1  0  0  0  0
 47 73  1  0  0  0  0
 48 67  1  0  0  0  0
 49 66  1  0  0  0  0
 50 60  1  0  0  0  0
 51 61  1  0  0  0  0
 52 61  1  0  0  0  0
 53 61  1  0  0  0  0
 54 62  1  0  0  0  0
 55 62  1  0  0  0  0
 56 75  1  0  0  0  0
 58 62  1  0  0  0  0
 59 61  1  0  0  0  0
 59 74  1  0  0  0  0
 60 75  1  0  0  0  0
 62 83  1  0  0  0  0
 63 66  1  0  0  0  0
M  CHG  1  75   1
M  ISO  4  37 100  62 101  72 100  83 101
M  END
> <Batch ID>
0183

> <Smiles>
CNC(C)C(=O)NC(C(=O)N1Cc2cc([101O:1][101C:1](C)(C)CC(=O)NC=Cc3sc([100NH:0][100C:0](=O)N4CCCC(n5nc(-c6ccc(Oc7ccc(F)cc7F)cc6)c(C(N)=O)c5N)C4)nc3N)ccc2CC1C(=O)NC1CCCc2ccccc21)C(C)(C)C

> <Shape>
0.236

> <Color>
0.081

> <Negative vol penalty>
0.000

$$$$

  -OEChem-04052304593D

 83 91  0     1  0  0  0  0  0999 V2000
  -17.8546  -32.4087   21.6941 C   0  0  0  0  0  0  0  0  0  0  0  0
  -19.1665  -32.4702   21.2353 C   0  0  0  0  0  0  0  0  0  0  0  0
  -25.2085  -14.4312   21.5156 C   0  0  0  0  0  0  0  0  0  0  0  0
  -26.5888  -12.5681   20.8367 C   0  0  0  0  0  0  0  0  0  0  0  0
  -17.5236  -31.5518   22.7430 C   0  0  0  0  0  0  0  0  0  0  0  0
  -20.1485  -31.6755   21.8258 C   0  0  0  0  0  0  0  0  0  0  0  0
  -24.9526  -29.0865   19.0467 C   0  0  0  0  0  0  0  0  0  0  0  0
  -24.2656  -13.5437   22.0340 C   0  0  0  0  0  0  0  0  0  0  0  0
  -25.6458  -11.6806   21.3552 C   0  0  0  0  0  0  0  0  0  0  0  0
  -26.2918  -29.4610   18.9459 C   0  0  0  0  0  0  0  0  0  0  0  0
  -23.4345   -8.9158   22.1774 C   0  0  0  0  0  0  0  0  0  0  0  0
  -23.0902   -7.8093   21.4011 C   0  0  0  0  0  0  0  0  0  0  0  0
  -26.8271  -28.0256   20.8094 C   0  0  0  0  0  0  0  0  0  0  0  0
  -22.3194   -9.2802   19.6463 C   0  0  0  0  0  0  0  0  0  0  0  0
  -26.3702  -13.9434   20.9169 C   0  0  0  0  0  0  0  0  0  0  0  0
  -28.4415  -15.4257   21.0572 C   0  0  0  0  0  0  0  0  0  0  0  0
  -18.5001  -30.7392   23.3403 C   0  0  0  0  0  0  0  0  0  0  0  0
  -24.5381  -28.1857   20.0382 C   0  0  0  0  0  0  0  0  0  0  0  0
  -19.8305  -30.8080   22.8846 C   0  0  0  0  0  0  0  0  0  0  0  0
  -25.4825  -27.6394   20.9190 C   0  0  0  0  0  0  0  0  0  0  0  0
  -24.4842  -12.1684   21.9538 C   0  0  0  0  0  0  0  0  0  0  0  0
  -27.2288  -28.9327   19.8291 C   0  0  0  0  0  0  0  0  0  0  0  0
  -23.2212  -10.2046   21.6882 C   0  0  0  0  0  0  0  0  0  0  0  0
  -22.5326   -7.9915   20.1356 C   0  0  0  0  0  0  0  0  0  0  0  0
  -22.6637  -10.3868   20.4226 C   0  0  0  0  0  0  0  0  0  0  0  0
  -27.3444  -14.8596   20.3807 C   0  0  0  0  0  0  0  0  0  0  0  0
  -29.2962  -22.7402   18.4733 C   0  0  0  0  0  0  0  0  0  0  0  0
  -29.0521  -16.2195   20.1171 C   0  0  0  0  0  0  0  0  0  0  0  0
  -29.7114  -22.1737   19.6602 C   0  0  0  0  0  0  0  0  0  0  0  0
  -29.5748  -24.5785   19.6365 C   0  0  0  0  0  0  0  0  0  0  0  0
  -28.9444  -21.9762   17.2632 C   0  0  0  0  0  0  0  0  0  0  0  0
  -28.8705  -15.2498   22.4139 C   0  0  0  0  0  0  0  0  0  0  0  0
  -22.5490  -28.3332   22.5132 C   0  0  0  0  0  0  0  0  0  0  0  0
  -23.1947  -25.1612   22.7225 C   0  0  0  0  0  0  0  0  0  0  0  0
  -25.3323  -22.5887   22.0443 C   0  0  0  0  0  0  0  0  0  0  0  0
  -29.3344  -27.0638   19.3134 C   0  0  0  0  0  0  0  0  0  0  0  0
  -28.6618  -20.0349   16.0621 C   0  0  0  0  0  0  0  0  0  0  0  0
  -18.1040  -29.8635   24.5026 C   0  0  0  0  0  0  0  0  0  0  0  0
  -23.0943  -27.7714   20.1168 C   0  0  0  0  0  0  0  0  0  0  0  0
  -25.0922  -26.6530   21.9882 C   0  0  0  0  0  0  0  0  0  0  0  0
  -19.1289  -28.7791   24.8252 C   0  0  0  0  0  0  0  0  0  0  0  0
  -28.3534  -16.5658   15.1265 C   0  0  0  0  0  0  0  0  0  0  0  0
  -20.5366  -29.3659   24.8512 C   0  0  0  0  0  0  0  0  0  0  0  0
  -28.1184  -15.8651   16.4645 C   0  0  0  0  0  0  0  0  0  0  0  0
  -27.7023  -17.9451   15.0947 C   0  0  0  0  0  0  0  0  0  0  0  0
  -27.8891  -18.1383   17.5598 C   0  0  0  0  0  0  0  0  0  0  0  0
  -20.9189  -29.9434   23.4830 C   0  0  1  0  0  0  0  0  0  0  0  0
  -22.6986  -27.2416   21.4916 C   0  0  1  0  0  0  0  0  0  0  0  0
  -28.5587  -16.7558   17.6400 C   0  0  1  0  0  0  0  0  0  0  0  0
  -25.6059  -20.1160   22.3730 C   0  0  0  0  0  0  0  0  0  0  0  0
  -30.9016  -28.9270   19.9706 C   0  0  0  0  0  0  0  0  0  0  0  0
  -23.9522  -25.6354   25.6400 C   0  0  0  0  0  0  0  0  0  0  0  0
  -25.0905  -23.4055   25.6343 C   0  0  0  0  0  0  0  0  0  0  0  0
  -22.6332  -23.5505   25.2302 C   0  0  0  0  0  0  0  0  0  0  0  0
  -25.3700  -22.0878   19.1277 C   0  0  0  0  0  0  0  0  0  0  0  0
  -24.2327  -24.3260   23.4325 C   0  0  1  0  0  0  0  0  0  0  0  0
  -25.0951  -21.2119   21.4506 C   0  0  2  0  0  0  0  0  0  0  0  0
  -29.5099  -28.3357   20.1392 C   0  0  1  0  0  0  0  0  0  1  0  0
  -23.9845  -24.2494   24.9654 C   0  0  0  0  0  0  0  0  0  0  0  0
  -27.2602  -15.2599   19.1092 N   0  0  0  0  0  0  0  0  0  0  0  0
  -29.2169  -24.1191   18.4579 N   0  0  0  0  0  0  0  0  0  0  0  0
  -29.0054  -20.6853   17.2319 N   0  0  0  0  0  0  0  0  0  0  0  0
  -28.3121  -16.0861   18.9792 N   0  0  0  0  0  0  0  0  0  0  0  0
  -23.6675  -26.2840   22.0286 N   0  0  0  0  0  0  0  0  0  0  0  0
  -28.1184  -18.7499   16.2441 N   0  0  0  0  0  0  0  0  0  0  0  0
  -30.1443  -17.0117   20.1612 N   0  0  0  0  0  0  0  0  0  0  0  0
  -29.8757  -20.8599   19.9518 N   0  0  0  0  0  0  0  0  0  0  0  0
  -28.1286  -14.3985   23.2441 N   0  0  0  0  0  0  0  0  0  0  0  0
  -29.6379  -25.9283   20.0572 N   0  0  0  0  0  0  0  0  0  0  0  0
  -21.2818  -28.8813   22.5695 N   0  0  0  0  0  0  0  0  0  0  0  0
  -24.2414  -23.0298   22.7630 N   0  0  0  0  0  0  0  0  0  0  0  0
  -25.7928  -21.0858   20.1397 N   0  3  0  0  0  0  0  0  0  0  0  0
  -29.8723  -15.8429   22.8809 O   0  0  0  0  0  0  0  0  0  0  0  0
  -23.5116  -28.6534   23.2006 O   0  0  0  0  0  0  0  0  0  0  0  0
  -22.0089  -24.8255   22.7756 O   0  0  0  0  0  0  0  0  0  0  0  0
  -26.3818  -23.2092   21.8892 O   0  0  0  0  0  0  0  0  0  0  0  0
  -28.9531  -27.1097   18.1473 O   0  0  0  0  0  0  0  0  0  0  0  0
  -28.8043  -20.5213   14.9378 O   0  0  0  0  0  0  0  0  0  0  0  0
  -23.5644  -11.3021   22.4598 O   0  0  0  0  0  0  0  0  0  0  0  0
  -28.5365  -29.2970   19.7334 O   0  0  0  0  0  0  0  0  0  1  0  0
  -22.2034   -6.9288   19.3896 F   0  0  0  0  0  0  0  0  0  0  0  0
  -22.4575  -11.6225   19.9468 F   0  0  0  0  0  0  0  0  0  0  0  0
  -30.0195  -23.4082   20.8102 S   0  0  0  0  0  0  0  0  0  0  0  0
  1  2  1  0  0  0  0
  1  5  2  0  0  0  0
  2  6  2  0  0  0  0
  3  8  2  0  0  0  0
  3 15  1  0  0  0  0
  4  9  1  0  0  0  0
  4 15  2  0  0  0  0
  5 17  1  0  0  0  0
  6 19  1  0  0  0  0
  7 10  2  0  0  0  0
  7 18  1  0  0  0  0
  8 21  1  0  0  0  0
  9 21  2  0  0  0  0
 10 22  1  0  0  0  0
 11 12  2  0  0  0  0
 11 23  1  0  0  0  0
 12 24  1  0  0  0  0
 13 20  1  0  0  0  0
 13 22  2  0  0  0  0
 14 24  2  0  0  0  0
 14 25  1  0  0  0  0
 15 26  1  0  0  0  0
 16 26  1  0  0  0  0
 16 28  2  0  0  0  0
 16 32  1  0  0  0  0
 17 19  2  0  0  0  0
 17 38  1  0  0  0  0
 18 20  2  0  0  0  0
 18 39  1  0  0  0  0
 19 47  1  0  0  0  0
 20 40  1  0  0  0  0
 21 79  1  0  0  0  0
 22 80  1  0  0  0  0
 23 25  2  0  0  0  0
 23 79  1  0  0  0  0
 24 81  1  0  0  0  0
 25 82  1  0  0  0  0
 26 60  2  0  0  0  0
 27 29  2  0  0  0  0
 27 31  1  0  0  0  0
 27 61  1  0  0  0  0
 28 63  1  0  0  0  0
 28 66  1  0  0  0  0
 29 67  1  0  0  0  0
 29 83  1  0  0  0  0
 30 61  2  0  0  0  0
 30 69  1  0  0  0  0
 30 83  1  0  0  0  0
 31 62  2  0  0  0  0
 32 68  1  0  0  0  0
 32 73  2  0  0  0  0
 33 48  1  0  0  0  0
 33 70  1  0  0  0  0
 33 74  2  0  0  0  0
 34 56  1  0  0  0  0
 34 64  1  0  0  0  0
 34 75  2  0  0  0  0
 35 57  1  0  0  0  0
 35 71  1  0  0  0  0
 35 76  2  0  0  0  0
 36 58  1  0  0  0  0
 36 69  1  0  0  0  0
 36 77  2  0  0  0  0
 37 62  1  0  0  0  0
 37 65  1  0  0  0  0
 37 78  2  0  0  0  0
 38 41  1  0  0  0  0
 39 48  1  0  0  0  0
 40 64  1  0  0  0  0
 41 43  1  0  0  0  0
 42 44  1  0  0  0  0
 42 45  1  0  0  0  0
 43 47  1  0  0  0  0
 44 49  1  0  0  0  0
 45 65  1  0  0  0  0
 46 49  1  0  0  0  0
 46 65  1  0  0  0  0
 47 70  1  0  0  0  0
 48 64  1  0  0  0  0
 49 63  1  0  0  0  0
 50 57  1  0  0  0  0
 51 58  1  0  0  0  0
 52 59  1  0  0  0  0
 53 59  1  0  0  0  0
 54 59  1  0  0  0  0
 55 72  1  0  0  0  0
 56 59  1  0  0  0  0
 56 71  1  0  0  0  0
 57 72  1  0  0  0  0
 58 80  1  0  0  0  0
 60 63  1  0  0  0  0
M  CHG  1  72   1
M  ISO  4  37 100  58 101  62 100  80 101
M  END
> <Batch ID>
0183

> <Smiles>
CNC(C)C(=O)NC(C(=O)N1Cc2cc([101O:1][101CH:1](C)C(=O)Nc3nc(C=[100N:0][100C:0](=O)N4CCCC(n5nc(-c6ccc(Oc7ccc(F)cc7F)cc6)c(C(N)=O)c5N)C4)c(N)s3)ccc2CC1C(=O)NC1CCCc2ccccc21)C(C)(C)C

> <Shape>
0.222

> <Color>
0.098

> <Negative vol penalty>
0.000

$$$$

  -OEChem-04052304593D

 83 91  0     1  0  0  0  0  0999 V2000
  -31.5926  -24.7828   25.7577 C   0  0  0  0  0  0  0  0  0  0  0  0
  -30.5123  -25.4132   25.1487 C   0  0  0  0  0  0  0  0  0  0  0  0
  -29.2681  -17.4402   19.0493 C   0  0  0  0  0  0  0  0  0  0  0  0
  -28.6979  -18.0817   21.3077 C   0  0  0  0  0  0  0  0  0  0  0  0
  -31.6093  -23.3941   25.8803 C   0  0  0  0  0  0  0  0  0  0  0  0
  -29.4485  -24.6551   24.6608 C   0  0  0  0  0  0  0  0  0  0  0  0
  -24.9429  -26.6146   25.8875 C   0  0  0  0  0  0  0  0  0  0  0  0
  -29.6413  -16.1751   19.5029 C   0  0  0  0  0  0  0  0  0  0  0  0
  -29.0710  -16.8166   21.7613 C   0  0  0  0  0  0  0  0  0  0  0  0
  -24.4984  -27.7052   25.1413 C   0  0  0  0  0  0  0  0  0  0  0  0
  -28.1075  -13.3019   20.4111 C   0  0  0  0  0  0  0  0  0  0  0  0
  -27.6694  -12.1965   19.6819 C   0  0  0  0  0  0  0  0  0  0  0  0
  -23.0922  -26.2364   23.8435 C   0  0  0  0  0  0  0  0  0  0  0  0
  -29.9631  -11.5498   19.2843 C   0  0  0  0  0  0  0  0  0  0  0  0
  -25.6945  -27.6297   20.4219 C   0  0  0  0  0  0  0  0  0  0  0  0
  -28.7964  -18.3936   19.9517 C   0  0  0  0  0  0  0  0  0  0  0  0
  -27.1357  -20.1056   19.0470 C   0  0  0  0  0  0  0  0  0  0  0  0
  -30.5408  -22.6192   25.4024 C   0  0  0  0  0  0  0  0  0  0  0  0
  -24.4728  -25.3230   25.6097 C   0  0  0  0  0  0  0  0  0  0  0  0
  -29.4516  -23.2546   24.7759 C   0  0  0  0  0  0  0  0  0  0  0  0
  -23.5304  -25.1314   24.5893 C   0  0  0  0  0  0  0  0  0  0  0  0
  -29.5428  -15.8633   20.8589 C   0  0  0  0  0  0  0  0  0  0  0  0
  -23.5751  -27.5158   24.1172 C   0  0  0  0  0  0  0  0  0  0  0  0
  -29.4733  -13.5313   20.5769 C   0  0  0  0  0  0  0  0  0  0  0  0
  -28.5972  -11.3205   19.1185 C   0  0  0  0  0  0  0  0  0  0  0  0
  -30.4011  -12.6553   20.0135 C   0  0  0  0  0  0  0  0  0  0  0  0
  -28.4112  -19.7008   19.4839 C   0  0  0  0  0  0  0  0  0  0  0  0
  -27.2914  -21.4284   18.7115 C   0  0  0  0  0  0  0  0  0  0  0  0
  -27.0346  -27.6426   20.1554 C   0  0  0  0  0  0  0  0  0  0  0  0
  -26.3204  -29.7379   20.1690 C   0  0  0  0  0  0  0  0  0  0  0  0
  -25.9188  -19.3533   18.9530 C   0  0  0  0  0  0  0  0  0  0  0  0
  -25.8164  -22.6022   24.6630 C   0  0  0  0  0  0  0  0  0  0  0  0
  -22.8395  -21.4131   25.1594 C   0  0  0  0  0  0  0  0  0  0  0  0
  -19.4847  -21.9996   25.3778 C   0  0  0  0  0  0  0  0  0  0  0  0
  -29.2612  -26.5254   19.7809 C   0  0  0  0  0  0  0  0  0  0  0  0
  -30.6255  -21.1176   25.5152 C   0  0  0  0  0  0  0  0  0  0  0  0
  -24.9419  -24.1608   26.4413 C   0  0  0  0  0  0  0  0  0  0  0  0
  -22.9793  -23.7678   24.2645 C   0  0  0  0  0  0  0  0  0  0  0  0
  -29.2864  -20.4147   25.3079 C   0  0  0  0  0  0  0  0  0  0  0  0
  -31.4785  -24.2274   18.2060 C   0  0  0  0  0  0  0  0  0  0  0  0
  -28.5731  -20.9759   24.0818 C   0  0  0  0  0  0  0  0  0  0  0  0
  -30.7732  -22.8782   18.3621 C   0  0  0  0  0  0  0  0  0  0  0  0
  -31.2786  -25.1171   19.4317 C   0  0  0  0  0  0  0  0  0  0  0  0
  -29.1750  -23.9634   19.9916 C   0  0  0  0  0  0  0  0  0  0  0  0
  -28.2674  -22.4684   24.2564 C   0  0  1  0  0  0  0  0  0  0  0  0
  -24.7850  -22.8181   25.7342 C   0  0  1  0  0  0  0  0  0  0  0  0
  -29.2937  -23.0578   18.7549 C   0  0  2  0  0  0  0  0  0  0  0  0
  -17.2999  -20.8242   25.7556 C   0  0  0  0  0  0  0  0  0  0  0  0
  -22.9347  -20.3256   22.3101 C   0  0  0  0  0  0  0  0  0  0  0  0
  -20.4520  -20.0204   22.4180 C   0  0  0  0  0  0  0  0  0  0  0  0
  -21.9304  -18.7671   23.9885 C   0  0  0  0  0  0  0  0  0  0  0  0
  -18.9221  -23.5817   27.8149 C   0  0  0  0  0  0  0  0  0  0  0  0
  -24.0476  -29.6670   23.2200 C   0  0  0  0  0  0  0  0  0  1  0  0
  -21.5982  -21.2520   24.3155 C   0  0  1  0  0  0  0  0  0  0  0  0
  -18.4524  -21.5734   26.4061 C   0  0  2  0  0  0  0  0  0  0  0  0
  -23.7524  -30.3402   21.8876 C   0  0  1  0  0  0  0  0  0  0  0  0
  -21.7405  -20.1168   23.2626 C   0  0  0  0  0  0  0  0  0  0  0  0
  -23.8678  -29.4127   20.6769 C   0  0  0  0  0  0  0  0  0  0  0  0
  -29.3110  -20.6865   19.4316 N   0  0  0  0  0  0  0  0  0  0  0  0
  -25.2790  -28.9394   20.4248 N   0  0  0  0  0  0  0  0  0  0  0  0
  -28.5999  -21.7238   18.9579 N   0  0  0  0  0  0  0  0  0  0  0  0
  -27.3949  -28.9598   20.0032 N   0  3  0  0  0  0  0  0  0  0  0  0
  -23.4736  -22.6623   25.1017 N   0  0  0  0  0  0  0  0  0  0  0  0
  -29.8529  -25.2451   19.7415 N   0  0  0  0  0  0  0  0  0  0  0  0
  -26.4354  -22.3559   18.2327 N   0  0  0  0  0  0  0  0  0  0  0  0
  -25.9347  -18.0060   19.3390 N   0  0  0  0  0  0  0  0  0  0  0  0
  -27.8936  -26.5204   20.0532 N   0  0  0  0  0  0  0  0  0  0  0  0
  -27.1199  -22.6518   25.1190 N   0  0  0  0  0  0  0  0  0  0  0  0
  -20.4918  -21.0667   25.2482 N   0  0  0  0  0  0  0  0  0  0  0  0
  -17.9004  -22.7650   27.1106 N   0  3  0  0  0  0  0  0  0  0  0  0
  -24.8529  -19.8563   18.5236 O   0  0  0  0  0  0  0  0  0  0  0  0
  -25.4562  -22.4038   23.5086 O   0  0  0  0  0  0  0  0  0  0  0  0
  -23.2281  -20.4677   25.8500 O   0  0  0  0  0  0  0  0  0  0  0  0
  -19.4036  -23.0528   24.7496 O   0  0  0  0  0  0  0  0  0  0  0  0
  -29.9137  -27.5489   19.5604 O   0  0  0  0  0  0  0  0  0  0  0  0
  -29.9066  -14.6288   21.3018 O   0  0  0  0  0  0  0  0  0  0  0  0
  -23.1401  -28.5785   23.3869 O   0  0  0  0  0  0  0  0  0  1  0  0
  -28.1764  -10.2581   18.4195 F   0  0  0  0  0  0  0  0  0  0  0  0
  -31.7146  -12.8698   20.1704 F   0  0  0  0  0  0  0  0  0  0  0  0
  -26.2990  -31.0677   20.0924 F   0  0  0  0  0  0  0  0  0  0  0  0
  -22.4533  -30.7719   21.9350 F   0  0  0  0  0  0  0  0  0  0  0  0
  -22.9893  -28.3819   20.8547 F   0  0  0  0  0  0  0  0  0  0  0  0
  -23.3871  -30.1019   19.5970 F   0  0  0  0  0  0  0  0  0  0  0  0
  1  2  1  0  0  0  0
  1  5  2  0  0  0  0
  2  6  2  0  0  0  0
  3  8  2  0  0  0  0
  3 16  1  0  0  0  0
  4  9  1  0  0  0  0
  4 16  2  0  0  0  0
  5 18  1  0  0  0  0
  6 20  1  0  0  0  0
  7 10  2  0  0  0  0
  7 19  1  0  0  0  0
  8 22  1  0  0  0  0
  9 22  2  0  0  0  0
 10 23  1  0  0  0  0
 11 12  2  0  0  0  0
 11 24  1  0  0  0  0
 12 25  1  0  0  0  0
 13 21  1  0  0  0  0
 13 23  2  0  0  0  0
 14 25  2  0  0  0  0
 14 26  1  0  0  0  0
 15 29  2  0  0  0  0
 15 60  1  0  0  0  0
 16 27  1  0  0  0  0
 17 27  1  0  0  0  0
 17 28  2  0  0  0  0
 17 31  1  0  0  0  0
 18 20  2  0  0  0  0
 18 36  1  0  0  0  0
 19 21  2  0  0  0  0
 19 37  1  0  0  0  0
 20 45  1  0  0  0  0
 21 38  1  0  0  0  0
 22 76  1  0  0  0  0
 23 77  1  0  0  0  0
 24 26  2  0  0  0  0
 24 76  1  0  0  0  0
 25 78  1  0  0  0  0
 26 79  1  0  0  0  0
 27 59  2  0  0  0  0
 28 61  1  0  0  0  0
 28 65  1  0  0  0  0
 29 62  1  0  0  0  0
 29 67  1  0  0  0  0
 30 60  1  0  0  0  0
 30 62  2  0  0  0  0
 30 80  1  0  0  0  0
 31 66  1  0  0  0  0
 31 71  2  0  0  0  0
 32 46  1  0  0  0  0
 32 68  1  0  0  0  0
 32 72  2  0  0  0  0
 33 54  1  0  0  0  0
 33 63  1  0  0  0  0
 33 73  2  0  0  0  0
 34 55  1  0  0  0  0
 34 69  1  0  0  0  0
 34 74  2  0  0  0  0
 35 64  1  0  0  0  0
 35 67  1  0  0  0  0
 35 75  2  0  0  0  0
 36 39  1  0  0  0  0
 37 46  1  0  0  0  0
 38 63  1  0  0  0  0
 39 41  1  0  0  0  0
 40 42  1  0  0  0  0
 40 43  1  0  0  0  0
 41 45  1  0  0  0  0
 42 47  1  0  0  0  0
 43 64  1  0  0  0  0
 44 47  1  0  0  0  0
 44 64  1  0  0  0  0
 45 68  1  0  0  0  0
 46 63  1  0  0  0  0
 47 61  1  0  0  0  0
 48 55  1  0  0  0  0
 49 57  1  0  0  0  0
 50 57  1  0  0  0  0
 51 57  1  0  0  0  0
 52 70  1  0  0  0  0
 53 56  1  0  0  0  0
 53 77  1  0  0  0  0
 54 57  1  0  0  0  0
 54 69  1  0  0  0  0
 55 70  1  0  0  0  0
 56 58  1  0  0  0  0
 56 81  1  0  0  0  0
 58 60  1  0  0  0  0
 58 82  1  0  0  0  0
 58 83  1  0  0  0  0
 59 61  1  0  0  0  0
M  CHG  2  62   1  70   1
M  ISO  4  35 100  53 101  67 100  77 101
M  END
> <Batch ID>
0183

> <Smiles>
CNC(C)C(=O)NC(C(=O)N1Cc2cc([101O:1][101CH2:1]C(F)C(F)(F)n3cc([100NH:0][100C:0](=O)N4CCCC(n5nc(-c6ccc(Oc7ccc(F)cc7F)cc6)c(C(N)=O)c5N)C4)nc3F)ccc2CC1C(=O)NC1CCCc2ccccc21)C(C)(C)C

> <Shape>
0.208

> <Color>
0.062

> <Negative vol penalty>
0.000

$$$$

  -OEChem-04052304593D

 83 91  0     1  0  0  0  0  0999 V2000
  -34.4072  -30.9780   19.1316 C   0  0  0  0  0  0  0  0  0  0  0  0
  -33.3280  -30.2350   19.5994 C   0  0  0  0  0  0  0  0  0  0  0  0
  -24.4783   -9.4179   21.1355 C   0  0  0  0  0  0  0  0  0  0  0  0
  -25.0821  -10.2945   23.3045 C   0  0  0  0  0  0  0  0  0  0  0  0
  -34.6320  -32.2636   19.6223 C   0  0  0  0  0  0  0  0  0  0  0  0
  -32.4737  -30.7767   20.5591 C   0  0  0  0  0  0  0  0  0  0  0  0
  -27.5895  -29.9838   19.4814 C   0  0  0  0  0  0  0  0  0  0  0  0
  -24.2360   -8.1691   21.7077 C   0  0  0  0  0  0  0  0  0  0  0  0
  -24.8398   -9.0456   23.8766 C   0  0  0  0  0  0  0  0  0  0  0  0
  -27.0759  -28.7159   19.7503 C   0  0  0  0  0  0  0  0  0  0  0  0
  -23.1114   -4.8447   22.6556 C   0  0  0  0  0  0  0  0  0  0  0  0
  -21.9495   -4.1723   22.2769 C   0  0  0  0  0  0  0  0  0  0  0  0
  -26.1071  -29.5489   21.7965 C   0  0  0  0  0  0  0  0  0  0  0  0
  -20.6162   -6.0063   23.1111 C   0  0  0  0  0  0  0  0  0  0  0  0
  -28.9462  -21.2462   20.6431 C   0  0  0  0  0  0  0  0  0  0  0  0
  -24.9014  -10.4806   21.9339 C   0  0  0  0  0  0  0  0  0  0  0  0
  -24.2316  -12.8222   21.1750 C   0  0  0  0  0  0  0  0  0  0  0  0
  -33.7743  -32.8250   20.5814 C   0  0  0  0  0  0  0  0  0  0  0  0
  -27.3747  -31.0430   20.3750 C   0  0  0  0  0  0  0  0  0  0  0  0
  -32.6880  -32.0705   21.0641 C   0  0  0  0  0  0  0  0  0  0  0  0
  -26.6170  -30.8299   21.5353 C   0  0  0  0  0  0  0  0  0  0  0  0
  -24.4168   -7.9830   23.0782 C   0  0  0  0  0  0  0  0  0  0  0  0
  -26.3370  -28.4975   20.9094 C   0  0  0  0  0  0  0  0  0  0  0  0
  -23.0257   -6.0979   23.2621 C   0  0  0  0  0  0  0  0  0  0  0  0
  -20.7019   -4.7531   22.5046 C   0  0  0  0  0  0  0  0  0  0  0  0
  -21.7781   -6.6787   23.4898 C   0  0  0  0  0  0  0  0  0  0  0  0
  -25.1524  -11.7707   21.3434 C   0  0  0  0  0  0  0  0  0  0  0  0
  -27.7596  -21.3292   21.3412 C   0  0  0  0  0  0  0  0  0  0  0  0
  -24.9567  -13.8201   20.5708 C   0  0  0  0  0  0  0  0  0  0  0  0
  -28.5190  -19.1026   20.8235 C   0  0  0  0  0  0  0  0  0  0  0  0
  -22.8449  -12.8909   21.5328 C   0  0  0  0  0  0  0  0  0  0  0  0
  -27.0218  -22.5146   21.8129 C   0  0  0  0  0  0  0  0  0  0  0  0
  -27.0709  -23.6892   21.1624 C   0  0  0  0  0  0  0  0  0  0  0  0
  -26.3630  -24.9354   21.5707 C   0  0  0  0  0  0  0  0  0  0  0  0
  -29.2523  -32.9095   22.1341 C   0  0  0  0  0  0  0  0  0  0  0  0
  -26.4678  -34.4449   22.7753 C   0  0  0  0  0  0  0  0  0  0  0  0
  -23.0628  -34.3122   22.9634 C   0  0  0  0  0  0  0  0  0  0  0  0
  -29.5652  -16.9152   20.1403 C   0  0  0  0  0  0  0  0  0  0  0  0
  -34.0852  -34.2003   21.1168 C   0  0  0  0  0  0  0  0  0  0  0  0
  -27.9129  -32.4111   20.0572 C   0  0  0  0  0  0  0  0  0  0  0  0
  -26.3408  -31.9384   22.5168 C   0  0  0  0  0  0  0  0  0  0  0  0
  -32.9159  -34.8442   21.8575 C   0  0  0  0  0  0  0  0  0  0  0  0
  -29.5809  -13.7482   18.5133 C   0  0  0  0  0  0  0  0  0  0  0  0
  -32.2875  -33.8506   22.8295 C   0  0  0  0  0  0  0  0  0  0  0  0
  -28.3544  -13.0379   19.0907 C   0  0  0  0  0  0  0  0  0  0  0  0
  -30.2844  -14.6079   19.5619 C   0  0  0  0  0  0  0  0  0  0  0  0
  -28.1923  -14.8555   20.8391 C   0  0  0  0  0  0  0  0  0  0  0  0
  -31.7246  -32.6329   22.0866 C   0  0  1  0  0  0  0  0  0  0  0  0
  -28.0687  -33.2935   21.2919 C   0  0  1  0  0  0  0  0  0  0  0  0
  -27.4131  -14.0286   19.8035 C   0  0  2  0  0  0  0  0  0  0  0  0
  -21.0664  -35.7135   23.5533 C   0  0  0  0  0  0  0  0  0  0  0  0
  -27.1085  -34.1058   25.7392 C   0  0  0  0  0  0  0  0  0  0  0  0
  -24.7153  -34.6385   26.2461 C   0  0  0  0  0  0  0  0  0  0  0  0
  -26.1590  -36.3366   25.1258 C   0  0  0  0  0  0  0  0  0  0  0  0
  -21.9387  -34.0655   20.2367 C   0  0  0  0  0  0  0  0  0  0  0  0
  -26.5686  -26.1420   20.6781 C   0  0  0  0  0  0  0  0  0  1  0  0
  -25.3897  -34.3106   23.8235 C   0  0  1  0  0  0  0  0  0  0  0  0
  -21.9878  -35.2460   22.4374 C   0  0  2  0  0  0  0  0  0  0  0  0
  -25.8498  -34.8263   25.2163 C   0  0  0  0  0  0  0  0  0  0  0  0
  -29.3833  -19.9702   20.3457 N   0  0  0  0  0  0  0  0  0  0  0  0
  -26.3695  -12.0724   20.8832 N   0  0  0  0  0  0  0  0  0  0  0  0
  -26.2185  -13.3248   20.4196 N   0  0  0  0  0  0  0  0  0  0  0  0
  -26.8936  -33.2568   22.1648 N   0  0  0  0  0  0  0  0  0  0  0  0
  -29.3317  -15.5246   20.1920 N   0  0  0  0  0  0  0  0  0  0  0  0
  -24.6317  -15.0641   20.1594 N   0  0  0  0  0  0  0  0  0  0  0  0
  -22.2572  -11.7761   22.1462 N   0  0  0  0  0  0  0  0  0  0  0  0
  -28.5751  -17.6889   20.7448 N   0  0  0  0  0  0  0  0  0  0  0  0
  -30.4598  -32.9609   21.4643 N   0  0  0  0  0  0  0  0  0  0  0  0
  -24.2156  -34.9938   23.2914 N   0  0  0  0  0  0  0  0  0  0  0  0
  -21.1632  -34.5572   21.4046 N   0  3  0  0  0  0  0  0  0  0  0  0
  -22.1436  -13.9045   21.3003 O   0  0  0  0  0  0  0  0  0  0  0  0
  -25.6546  -24.9785   22.5730 O   0  0  0  0  0  0  0  0  0  0  0  0
  -29.0827  -32.5916   23.3053 O   0  0  0  0  0  0  0  0  0  0  0  0
  -26.9105  -35.5636   22.5031 O   0  0  0  0  0  0  0  0  0  0  0  0
  -22.8952  -33.0998   23.0757 O   0  0  0  0  0  0  0  0  0  0  0  0
  -30.5558  -17.3863   19.5758 O   0  0  0  0  0  0  0  0  0  0  0  0
  -26.3135  -22.2966   22.9761 O   0  0  0  0  0  0  0  0  0  0  0  0
  -24.1802   -6.7646   23.6368 O   0  0  0  0  0  0  0  0  0  0  0  0
  -25.8350  -27.2608   21.1746 O   0  0  0  0  0  0  0  0  0  1  0  0
  -19.5863   -4.1079   22.1394 F   0  0  0  0  0  0  0  0  0  0  0  0
  -21.6895   -7.8829   24.0711 F   0  0  0  0  0  0  0  0  0  0  0  0
  -27.8193  -23.8296   20.0455 F   0  0  0  0  0  0  0  0  0  0  0  0
  -27.1570  -19.7518   21.6412 S   0  0  0  0  0  0  0  0  0  0  0  0
  1  2  1  0  0  0  0
  1  5  2  0  0  0  0
  2  6  2  0  0  0  0
  3  8  2  0  0  0  0
  3 16  1  0  0  0  0
  4  9  1  0  0  0  0
  4 16  2  0  0  0  0
  5 18  1  0  0  0  0
  6 20  1  0  0  0  0
  7 10  2  0  0  0  0
  7 19  1  0  0  0  0
  8 22  1  0  0  0  0
  9 22  2  0  0  0  0
 10 23  1  0  0  0  0
 11 12  2  0  0  0  0
 11 24  1  0  0  0  0
 12 25  1  0  0  0  0
 13 21  1  0  0  0  0
 13 23  2  0  0  0  0
 14 25  2  0  0  0  0
 14 26  1  0  0  0  0
 15 28  2  0  0  0  0
 15 60  1  0  0  0  0
 16 27  1  0  0  0  0
 17 27  1  0  0  0  0
 17 29  2  0  0  0  0
 17 31  1  0  0  0  0
 18 20  2  0  0  0  0
 18 39  1  0  0  0  0
 19 21  2  0  0  0  0
 19 40  1  0  0  0  0
 20 48  1  0  0  0  0
 21 41  1  0  0  0  0
 22 78  1  0  0  0  0
 23 79  1  0  0  0  0
 24 26  2  0  0  0  0
 24 78  1  0  0  0  0
 25 80  1  0  0  0  0
 26 81  1  0  0  0  0
 27 61  2  0  0  0  0
 28 32  1  0  0  0  0
 28 83  1  0  0  0  0
 29 62  1  0  0  0  0
 29 65  1  0  0  0  0
 30 60  2  0  0  0  0
 30 67  1  0  0  0  0
 30 83  1  0  0  0  0
 31 66  1  0  0  0  0
 31 71  2  0  0  0  0
 32 33  2  0  0  0  0
 32 77  1  0  0  0  0
 33 34  1  0  0  0  0
 33 82  1  0  0  0  0
 34 56  1  0  0  0  0
 34 72  2  0  0  0  0
 35 49  1  0  0  0  0
 35 68  1  0  0  0  0
 35 73  2  0  0  0  0
 36 57  1  0  0  0  0
 36 63  1  0  0  0  0
 36 74  2  0  0  0  0
 37 58  1  0  0  0  0
 37 69  1  0  0  0  0
 37 75  2  0  0  0  0
 38 64  1  0  0  0  0
 38 67  1  0  0  0  0
 38 76  2  0  0  0  0
 39 42  1  0  0  0  0
 40 49  1  0  0  0  0
 41 63  1  0  0  0  0
 42 44  1  0  0  0  0
 43 45  1  0  0  0  0
 43 46  1  0  0  0  0
 44 48  1  0  0  0  0
 45 50  1  0  0  0  0
 46 64  1  0  0  0  0
 47 50  1  0  0  0  0
 47 64  1  0  0  0  0
 48 68  1  0  0  0  0
 49 63  1  0  0  0  0
 50 62  1  0  0  0  0
 51 58  1  0  0  0  0
 52 59  1  0  0  0  0
 53 59  1  0  0  0  0
 54 59  1  0  0  0  0
 55 70  1  0  0  0  0
 56 79  1  0  0  0  0
 57 59  1  0  0  0  0
 57 69  1  0  0  0  0
 58 70  1  0  0  0  0
 61 62  1  0  0  0  0
M  CHG  1  70   1
M  ISO  4  38 100  56 101  67 100  79 101
M  END
> <Batch ID>
0183

> <Smiles>
CNC(C)C(=O)NC(C(=O)N1Cc2cc([101O:1][101CH2:1]C(=O)C(F)C(=O)c3cnc([100NH:0][100C:0](=O)N4CCCC(n5nc(-c6ccc(Oc7ccc(F)cc7F)cc6)c(C(N)=O)c5N)C4)s3)ccc2CC1C(=O)NC1CCCc2ccccc21)C(C)(C)C

> <Shape>
0.252

> <Color>
0.122

> <Negative vol penalty>
0.000

$$$$

  -OEChem-04052304593D

 83 91  0     1  0  0  0  0  0999 V2000
  -23.3528  -37.7781   18.2596 C   0  0  0  0  0  0  0  0  0  0  0  0
  -23.6311  -36.5630   17.6421 C   0  0  0  0  0  0  0  0  0  0  0  0
  -28.8463  -10.8655   17.3783 C   0  0  0  0  0  0  0  0  0  0  0  0
  -30.2836  -11.6278   19.1644 C   0  0  0  0  0  0  0  0  0  0  0  0
  -23.8605  -38.0454   19.5303 C   0  0  0  0  0  0  0  0  0  0  0  0
  -24.4182  -35.6147   18.2946 C   0  0  0  0  0  0  0  0  0  0  0  0
  -25.2105  -28.5272   18.9694 C   0  0  0  0  0  0  0  0  0  0  0  0
  -29.7402   -9.8315   17.1003 C   0  0  0  0  0  0  0  0  0  0  0  0
  -31.1775  -10.5937   18.8865 C   0  0  0  0  0  0  0  0  0  0  0  0
  -26.1890  -27.5387   18.8723 C   0  0  0  0  0  0  0  0  0  0  0  0
  -30.5153   -6.7981   18.3773 C   0  0  0  0  0  0  0  0  0  0  0  0
  -29.9876   -5.5242   18.1663 C   0  0  0  0  0  0  0  0  0  0  0  0
  -26.9462  -28.0781   21.0983 C   0  0  0  0  0  0  0  0  0  0  0  0
  -30.9381   -5.4984   15.9453 C   0  0  0  0  0  0  0  0  0  0  0  0
  -30.9134  -19.7899   21.0439 C   0  0  0  0  0  0  0  0  0  0  0  0
  -29.1181  -11.7637   18.4104 C   0  0  0  0  0  0  0  0  0  0  0  0
  -27.1061  -12.7986   19.5889 C   0  0  0  0  0  0  0  0  0  0  0  0
  -24.6462  -37.0961   20.2027 C   0  0  0  0  0  0  0  0  0  0  0  0
  -25.0994  -29.3072   20.1294 C   0  0  0  0  0  0  0  0  0  0  0  0
  -24.9379  -35.8701   19.5750 C   0  0  0  0  0  0  0  0  0  0  0  0
  -25.9638  -29.0741   21.2086 C   0  0  0  0  0  0  0  0  0  0  0  0
  -30.9058   -9.6955   17.8544 C   0  0  0  0  0  0  0  0  0  0  0  0
  -27.0588  -27.3160   19.9357 C   0  0  0  0  0  0  0  0  0  0  0  0
  -31.2543   -7.4221   17.3722 C   0  0  0  0  0  0  0  0  0  0  0  0
  -30.1990   -4.8744   16.9503 C   0  0  0  0  0  0  0  0  0  0  0  0
  -31.4657   -6.7723   16.1562 C   0  0  0  0  0  0  0  0  0  0  0  0
  -28.1953  -12.8324   18.6977 C   0  0  0  0  0  0  0  0  0  0  0  0
  -30.1580  -20.1144   19.9366 C   0  0  0  0  0  0  0  0  0  0  0  0
  -26.5516  -14.0521   19.5012 C   0  0  0  0  0  0  0  0  0  0  0  0
  -30.6958  -22.1425   20.5749 C   0  0  0  0  0  0  0  0  0  0  0  0
  -26.6375  -11.7296   20.4216 C   0  0  0  0  0  0  0  0  0  0  0  0
  -25.3735  -32.4057   20.7837 C   0  0  0  0  0  0  0  0  0  0  0  0
  -24.3731  -31.4746   23.7256 C   0  0  0  0  0  0  0  0  0  0  0  0
  -24.0889  -28.9760   26.0328 C   0  0  0  0  0  0  0  0  0  0  0  0
  -30.2012  -24.3945   19.7199 C   0  0  0  0  0  0  0  0  0  0  0  0
  -28.7542  -19.3924   17.9733 C   0  0  0  0  0  0  0  0  0  0  0  0
  -25.2120  -37.4491   21.5555 C   0  0  0  0  0  0  0  0  0  0  0  0
  -24.0214  -30.3515   20.2287 C   0  0  0  0  0  0  0  0  0  0  0  0
  -25.8731  -29.8705   22.4837 C   0  0  0  0  0  0  0  0  0  0  0  0
  -25.7266  -36.2413   22.3345 C   0  0  0  0  0  0  0  0  0  0  0  0
  -26.0144  -17.7041   16.4502 C   0  0  0  0  0  0  0  0  0  0  0  0
  -26.5837  -35.3535   21.4378 C   0  0  0  0  0  0  0  0  0  0  0  0
  -26.1601  -16.2614   16.9397 C   0  0  0  0  0  0  0  0  0  0  0  0
  -27.3718  -18.3541   16.1884 C   0  0  0  0  0  0  0  0  0  0  0  0
  -28.4651  -16.8427   17.7977 C   0  0  0  0  0  0  0  0  0  0  0  0
  -25.7673  -34.8061   20.2608 C   0  0  1  0  0  0  0  0  0  0  0  0
  -24.3308  -31.4336   21.2586 C   0  0  1  0  0  0  0  0  0  0  0  0
  -27.1262  -16.1674   18.1369 C   0  0  2  0  0  0  0  0  0  0  0  0
  -23.2607  -28.5273   28.3587 C   0  0  0  0  0  0  0  0  0  0  0  0
  -26.8268  -32.8829   24.8683 C   0  0  0  0  0  0  0  0  0  0  0  0
  -26.4703  -31.6224   27.0019 C   0  0  0  0  0  0  0  0  0  0  0  0
  -24.7274  -33.2103   26.1873 C   0  0  0  0  0  0  0  0  0  0  0  0
  -31.6301  -24.1367   21.7862 C   0  0  0  0  0  0  0  0  0  0  0  0
  -22.1315  -26.9738   25.0743 C   0  0  0  0  0  0  0  0  0  0  0  0
  -29.2239  -26.5648   20.5714 C   0  0  0  0  0  0  0  0  0  1  0  0
  -25.0554  -31.0084   24.9889 C   0  0  1  0  0  0  0  0  0  0  0  0
  -22.9155  -28.5138   26.8777 C   0  0  2  0  0  0  0  0  0  0  0  0
  -30.3803  -25.9028   19.8357 C   0  0  2  0  0  0  0  0  0  0  0  0
  -25.7732  -32.1671   25.7370 C   0  0  0  0  0  0  0  0  0  0  0  0
  -28.3266  -14.0138   18.0885 N   0  0  0  0  0  0  0  0  0  0  0  0
  -30.0318  -21.4630   19.6663 N   0  0  0  0  0  0  0  0  0  0  0  0
  -27.3126  -14.7339   18.5977 N   0  0  0  0  0  0  0  0  0  0  0  0
  -24.8066  -30.8844   22.5299 N   0  0  0  0  0  0  0  0  0  0  0  0
  -28.2320  -18.2302   17.3672 N   0  0  0  0  0  0  0  0  0  0  0  0
  -25.4922  -14.6266   20.1095 N   0  0  0  0  0  0  0  0  0  0  0  0
  -27.3237  -10.5079   20.3898 N   0  0  0  0  0  0  0  0  0  0  0  0
  -29.5315  -19.1525   19.1060 N   0  0  0  0  0  0  0  0  0  0  0  0
  -24.9273  -33.7104   20.6946 N   0  0  0  0  0  0  0  0  0  0  0  0
  -24.0333  -30.3301   25.7785 N   0  0  0  0  0  0  0  0  0  0  0  0
  -30.8341  -23.5827   20.6802 N   0  0  0  0  0  0  0  0  0  0  0  0
  -22.5194  -27.1277   26.5001 N   0  3  0  0  0  0  0  0  0  0  0  0
  -25.6300  -11.8489   21.1593 O   0  0  0  0  0  0  0  0  0  0  0  0
  -26.5000  -32.0021   20.5193 O   0  0  0  0  0  0  0  0  0  0  0  0
  -23.4831  -32.3257   23.7977 O   0  0  0  0  0  0  0  0  0  0  0  0
  -24.9690  -28.2128   25.6408 O   0  0  0  0  0  0  0  0  0  0  0  0
  -29.5243  -23.9727   18.7762 O   0  0  0  0  0  0  0  0  0  0  0  0
  -28.5061  -20.5193   17.5369 O   0  0  0  0  0  0  0  0  0  0  0  0
  -31.7782   -8.6865   17.5835 O   0  0  0  0  0  0  0  0  0  0  0  0
  -28.0151  -26.3522   19.8434 O   0  0  0  0  0  0  0  0  0  1  0  0
  -29.6936   -3.6505   16.7484 F   0  0  0  0  0  0  0  0  0  0  0  0
  -32.1759   -7.3663   15.1874 F   0  0  0  0  0  0  0  0  0  0  0  0
  -30.4395  -26.4611   18.5873 F   0  0  0  0  0  0  0  0  0  0  0  0
  -31.4958  -21.2235   21.7833 S   0  0  0  0  0  0  0  0  0  0  0  0
  1  2  1  0  0  0  0
  1  5  2  0  0  0  0
  2  6  2  0  0  0  0
  3  8  2  0  0  0  0
  3 16  1  0  0  0  0
  4  9  1  0  0  0  0
  4 16  2  0  0  0  0
  5 18  1  0  0  0  0
  6 20  1  0  0  0  0
  7 10  2  0  0  0  0
  7 19  1  0  0  0  0
  8 22  1  0  0  0  0
  9 22  2  0  0  0  0
 10 23  1  0  0  0  0
 11 12  2  0  0  0  0
 11 24  1  0  0  0  0
 12 25  1  0  0  0  0
 13 21  1  0  0  0  0
 13 23  2  0  0  0  0
 14 25  2  0  0  0  0
 14 26  1  0  0  0  0
 15 28  2  0  0  0  0
 15 83  1  0  0  0  0
 16 27  1  0  0  0  0
 17 27  1  0  0  0  0
 17 29  2  0  0  0  0
 17 31  1  0  0  0  0
 18 20  2  0  0  0  0
 18 37  1  0  0  0  0
 19 21  2  0  0  0  0
 19 38  1  0  0  0  0
 20 46  1  0  0  0  0
 21 39  1  0  0  0  0
 22 78  1  0  0  0  0
 23 79  1  0  0  0  0
 24 26  2  0  0  0  0
 24 78  1  0  0  0  0
 25 80  1  0  0  0  0
 26 81  1  0  0  0  0
 27 60  2  0  0  0  0
 28 61  1  0  0  0  0
 28 67  1  0  0  0  0
 29 62  1  0  0  0  0
 29 65  1  0  0  0  0
 30 61  2  0  0  0  0
 30 70  1  0  0  0  0
 30 83  1  0  0  0  0
 31 66  1  0  0  0  0
 31 72  2  0  0  0  0
 32 47  1  0  0  0  0
 32 68  1  0  0  0  0
 32 73  2  0  0  0  0
 33 56  1  0  0  0  0
 33 63  1  0  0  0  0
 33 74  2  0  0  0  0
 34 57  1  0  0  0  0
 34 69  1  0  0  0  0
 34 75  2  0  0  0  0
 35 58  1  0  0  0  0
 35 70  1  0  0  0  0
 35 76  2  0  0  0  0
 36 64  1  0  0  0  0
 36 67  1  0  0  0  0
 36 77  2  0  0  0  0
 37 40  1  0  0  0  0
 38 47  1  0  0  0  0
 39 63  1  0  0  0  0
 40 42  1  0  0  0  0
 41 43  1  0  0  0  0
 41 44  1  0  0  0  0
 42 46  1  0  0  0  0
 43 48  1  0  0  0  0
 44 64  1  0  0  0  0
 45 48  1  0  0  0  0
 45 64  1  0  0  0  0
 46 68  1  0  0  0  0
 47 63  1  0  0  0  0
 48 62  1  0  0  0  0
 49 57  1  0  0  0  0
 50 59  1  0  0  0  0
 51 59  1  0  0  0  0
 52 59  1  0  0  0  0
 53 70  1  0  0  0  0
 54 71  1  0  0  0  0
 55 58  1  0  0  0  0
 55 79  1  0  0  0  0
 56 59  1  0  0  0  0
 56 69  1  0  0  0  0
 57 71  1  0  0  0  0
 58 82  1  0  0  0  0
 60 62  1  0  0  0  0
M  CHG  1  71   1
M  ISO  4  36 100  55 101  67 100  79 101
M  END
> <Batch ID>
0183

> <Smiles>
CNC(C)C(=O)NC(C(=O)N1Cc2cc([101O:1][101CH2:1]C(F)C(=O)N(C)c3nc([100NH:0][100C:0](=O)N4CCCC(n5nc(-c6ccc(Oc7ccc(F)cc7F)cc6)c(C(N)=O)c5N)C4)cs3)ccc2CC1C(=O)NC1CCCc2ccccc21)C(C)(C)C

> <Shape>
0.236

> <Color>
0.124

> <Negative vol penalty>
0.000

$$$$

  -OEChem-04052304593D

 86 94  0     1  0  0  0  0  0999 V2000
  -15.2030  -28.1077   25.5946 C   0  0  0  0  0  0  0  0  0  0  0  0
  -16.1704  -27.1161   25.4669 C   0  0  0  0  0  0  0  0  0  0  0  0
  -23.0697   -9.8699   21.0356 C   0  0  0  0  0  0  0  0  0  0  0  0
  -23.8397  -10.5556   23.2205 C   0  0  0  0  0  0  0  0  0  0  0  0
  -15.3720  -29.3320   24.9493 C   0  0  0  0  0  0  0  0  0  0  0  0
  -17.3069  -27.3478   24.6929 C   0  0  0  0  0  0  0  0  0  0  0  0
  -22.9649  -25.2514   25.7403 C   0  0  0  0  0  0  0  0  0  0  0  0
  -22.3251   -8.8452   21.6195 C   0  0  0  0  0  0  0  0  0  0  0  0
  -23.0950   -9.5309   23.8045 C   0  0  0  0  0  0  0  0  0  0  0  0
  -23.6753  -24.1696   25.2218 C   0  0  0  0  0  0  0  0  0  0  0  0
  -19.3819   -8.5242   23.2529 C   0  0  0  0  0  0  0  0  0  0  0  0
  -18.0729   -8.3397   22.8081 C   0  0  0  0  0  0  0  0  0  0  0  0
  -24.7121  -25.6319   23.6074 C   0  0  0  0  0  0  0  0  0  0  0  0
  -18.6235   -6.0900   22.1207 C   0  0  0  0  0  0  0  0  0  0  0  0
  -23.8271  -10.7251   21.8360 C   0  0  0  0  0  0  0  0  0  0  0  0
  -24.1726  -13.0997   20.9701 C   0  0  0  0  0  0  0  0  0  0  0  0
  -16.5157  -29.5824   24.1748 C   0  0  0  0  0  0  0  0  0  0  0  0
  -23.1148  -26.5317   25.1882 C   0  0  0  0  0  0  0  0  0  0  0  0
  -17.4907  -28.5762   24.0355 C   0  0  0  0  0  0  0  0  0  0  0  0
  -24.0043  -26.7287   24.1224 C   0  0  0  0  0  0  0  0  0  0  0  0
  -22.3377   -8.6757   23.0040 C   0  0  0  0  0  0  0  0  0  0  0  0
  -24.5469  -24.3592   24.1534 C   0  0  0  0  0  0  0  0  0  0  0  0
  -20.3119   -7.4916   23.1315 C   0  0  0  0  0  0  0  0  0  0  0  0
  -17.6936   -7.1226   22.2421 C   0  0  0  0  0  0  0  0  0  0  0  0
  -19.9326   -6.2745   22.5654 C   0  0  0  0  0  0  0  0  0  0  0  0
  -24.5970  -11.7835   21.2333 C   0  0  0  0  0  0  0  0  0  0  0  0
  -30.7319  -19.5647   21.1780 C   0  0  0  0  0  0  0  0  0  0  0  0
  -31.8301  -18.9888   20.5743 C   0  0  0  0  0  0  0  0  0  0  0  0
  -25.2644  -13.7042   20.3965 C   0  0  0  0  0  0  0  0  0  0  0  0
  -30.5877  -17.1933   20.7800 C   0  0  0  0  0  0  0  0  0  0  0  0
  -22.9048  -13.7203   21.2216 C   0  0  0  0  0  0  0  0  0  0  0  0
  -30.4753  -20.9740   21.5689 C   0  0  0  0  0  0  0  0  0  0  0  0
  -21.1739  -28.5922   23.7421 C   0  0  0  0  0  0  0  0  0  0  0  0
  -27.4421  -22.3907   23.2130 C   0  0  0  0  0  0  0  0  0  0  0  0
  -23.7642  -30.5390   23.8930 C   0  0  0  0  0  0  0  0  0  0  0  0
  -27.1560  -30.8354   24.1266 C   0  0  0  0  0  0  0  0  0  0  0  0
  -30.7331  -14.7386   20.2325 C   0  0  0  0  0  0  0  0  0  0  0  0
  -16.6317  -30.9041   23.4576 C   0  0  0  0  0  0  0  0  0  0  0  0
  -22.3614  -27.6932   25.7763 C   0  0  0  0  0  0  0  0  0  0  0  0
  -24.2163  -28.0870   23.5071 C   0  0  0  0  0  0  0  0  0  0  0  0
  -18.0433  -31.2058   22.9610 C   0  0  0  0  0  0  0  0  0  0  0  0
  -29.6041  -11.7337   18.6921 C   0  0  0  0  0  0  0  0  0  0  0  0
  -18.6351  -29.9863   22.2613 C   0  0  0  0  0  0  0  0  0  0  0  0
  -28.1659  -11.5870   19.1943 C   0  0  0  0  0  0  0  0  0  0  0  0
  -30.5249  -12.3063   19.7682 C   0  0  0  0  0  0  0  0  0  0  0  0
  -28.6253  -13.4138   20.8791 C   0  0  0  0  0  0  0  0  0  0  0  0
  -18.7490  -28.7987   23.2248 C   0  0  1  0  0  0  0  0  0  0  0  0
  -22.2042  -28.8576   24.8032 C   0  0  1  0  0  0  0  0  0  0  0  0
  -27.6470  -12.9015   19.8095 C   0  0  2  0  0  0  0  0  0  0  0  0
  -33.0623  -19.6903   20.1589 C   0  0  0  0  0  0  0  0  0  0  0  0
  -28.9837  -32.5539   24.1881 C   0  0  0  0  0  0  0  0  0  0  0  0
  -29.7764  -23.1053   23.6815 C   0  0  0  0  0  0  0  0  0  0  0  0
  -23.4692  -30.9569   20.8850 C   0  0  0  0  0  0  0  0  0  0  0  0
  -25.8017  -31.8661   20.8529 C   0  0  0  0  0  0  0  0  0  0  0  0
  -24.0316  -33.0242   22.1752 C   0  0  0  0  0  0  0  0  0  0  0  0
  -28.0328  -29.9754   26.8193 C   0  0  0  0  0  0  0  0  0  0  0  0
  -26.5175  -23.5836   23.0713 C   0  0  0  0  0  0  0  0  0  1  0  0
  -24.9474  -30.8155   22.9971 C   0  0  1  0  0  0  0  0  0  0  0  0
  -28.0328  -31.7009   25.0134 C   0  0  2  0  0  0  0  0  0  0  0  0
  -28.8401  -22.5398   22.6230 C   0  0  1  0  0  0  0  0  0  0  0  0
  -24.5572  -31.6396   21.7377 C   0  0  0  0  0  0  0  0  0  0  0  0
  -25.8599  -11.5640   20.8577 N   0  0  0  0  0  0  0  0  0  0  0  0
  -31.7494  -17.6291   20.3457 N   0  0  0  0  0  0  0  0  0  0  0  0
  -26.2383  -12.7505   20.3525 N   0  0  0  0  0  0  0  0  0  0  0  0
  -23.4521  -29.1899   24.1131 N   0  0  0  0  0  0  0  0  0  0  0  0
  -29.9716  -13.5528   20.3019 N   0  0  0  0  0  0  0  0  0  0  0  0
  -25.4767  -14.9533   19.9305 N   0  0  0  0  0  0  0  0  0  0  0  0
  -21.8929  -12.9553   21.8175 N   0  0  0  0  0  0  0  0  0  0  0  0
  -30.0909  -15.8669   20.7417 N   0  0  0  0  0  0  0  0  0  0  0  0
  -29.2476  -21.2186   22.1655 N   0  0  0  0  0  0  0  0  0  0  0  0
  -19.8914  -28.9638   24.0977 N   0  0  0  0  0  0  0  0  0  0  0  0
  -25.9564  -31.4507   23.8378 N   0  0  0  0  0  0  0  0  0  0  0  0
  -28.8415  -30.8498   25.9313 N   0  3  0  0  0  0  0  0  0  0  0  0
  -22.6709  -14.9131   20.9117 O   0  0  0  0  0  0  0  0  0  0  0  0
  -31.3412  -21.8196   21.3611 O   0  0  0  0  0  0  0  0  0  0  0  0
  -21.5175  -28.0889   22.6789 O   0  0  0  0  0  0  0  0  0  0  0  0
  -27.0938  -21.3697   23.8073 O   0  0  0  0  0  0  0  0  0  0  0  0
  -23.1443  -31.4850   24.3853 O   0  0  0  0  0  0  0  0  0  0  0  0
  -27.5024  -29.7260   23.7267 O   0  0  0  0  0  0  0  0  0  0  0  0
  -31.8604  -14.7576   19.7317 O   0  0  0  0  0  0  0  0  0  0  0  0
  -21.6110   -7.6761   23.5742 O   0  0  0  0  0  0  0  0  0  0  0  0
  -25.2410  -23.3049   23.6449 O   0  0  0  0  0  0  0  0  0  1  0  0
  -16.4360   -6.9450   21.8164 F   0  0  0  0  0  0  0  0  0  0  0  0
  -20.8213   -5.2784   22.4472 F   0  0  0  0  0  0  0  0  0  0  0  0
  -28.8257  -23.3938   21.5610 F   0  0  0  0  0  0  0  0  0  0  0  0
  -29.5431  -18.3645   21.4742 S   0  0  0  0  0  0  0  0  0  0  0  0
  1  2  1  0  0  0  0
  1  5  2  0  0  0  0
  2  6  2  0  0  0  0
  3  8  2  0  0  0  0
  3 15  1  0  0  0  0
  4  9  1  0  0  0  0
  4 15  2  0  0  0  0
  5 17  1  0  0  0  0
  6 19  1  0  0  0  0
  7 10  2  0  0  0  0
  7 18  1  0  0  0  0
  8 21  1  0  0  0  0
  9 21  2  0  0  0  0
 10 22  1  0  0  0  0
 11 12  2  0  0  0  0
 11 23  1  0  0  0  0
 12 24  1  0  0  0  0
 13 20  1  0  0  0  0
 13 22  2  0  0  0  0
 14 24  2  0  0  0  0
 14 25  1  0  0  0  0
 15 26  1  0  0  0  0
 16 26  1  0  0  0  0
 16 29  2  0  0  0  0
 16 31  1  0  0  0  0
 17 19  2  0  0  0  0
 17 38  1  0  0  0  0
 18 20  2  0  0  0  0
 18 39  1  0  0  0  0
 19 47  1  0  0  0  0
 20 40  1  0  0  0  0
 21 81  1  0  0  0  0
 22 82  1  0  0  0  0
 23 25  2  0  0  0  0
 23 81  1  0  0  0  0
 24 83  1  0  0  0  0
 25 84  1  0  0  0  0
 26 62  2  0  0  0  0
 27 28  2  0  0  0  0
 27 32  1  0  0  0  0
 27 86  1  0  0  0  0
 28 50  1  0  0  0  0
 28 63  1  0  0  0  0
 29 64  1  0  0  0  0
 29 67  1  0  0  0  0
 30 63  2  0  0  0  0
 30 69  1  0  0  0  0
 30 86  1  0  0  0  0
 31 68  1  0  0  0  0
 31 74  2  0  0  0  0
 32 70  1  0  0  0  0
 32 75  2  0  0  0  0
 33 48  1  0  0  0  0
 33 71  1  0  0  0  0
 33 76  2  0  0  0  0
 34 57  1  0  0  0  0
 34 60  1  0  0  0  0
 34 77  2  0  0  0  0
 35 58  1  0  0  0  0
 35 65  1  0  0  0  0
 35 78  2  0  0  0  0
 36 59  1  0  0  0  0
 36 72  1  0  0  0  0
 36 79  2  0  0  0  0
 37 66  1  0  0  0  0
 37 69  1  0  0  0  0
 37 80  2  0  0  0  0
 38 41  1  0  0  0  0
 39 48  1  0  0  0  0
 40 65  1  0  0  0  0
 41 43  1  0  0  0  0
 42 44  1  0  0  0  0
 42 45  1  0  0  0  0
 43 47  1  0  0  0  0
 44 49  1  0  0  0  0
 45 66  1  0  0  0  0
 46 49  1  0  0  0  0
 46 66  1  0  0  0  0
 47 71  1  0  0  0  0
 48 65  1  0  0  0  0
 49 64  1  0  0  0  0
 51 59  1  0  0  0  0
 52 60  1  0  0  0  0
 53 61  1  0  0  0  0
 54 61  1  0  0  0  0
 55 61  1  0  0  0  0
 56 73  1  0  0  0  0
 57 82  1  0  0  0  0
 58 61  1  0  0  0  0
 58 72  1  0  0  0  0
 59 73  1  0  0  0  0
 60 70  1  0  0  0  0
 60 85  1  0  0  0  0
 62 64  1  0  0  0  0
M  CHG  1  73   1
M  ISO  4  37 100  57 101  69 100  82 101
M  END
> <Batch ID>
0183

> <Smiles>
CNC(C)C(=O)NC(C(=O)N1Cc2cc([101O:1][101CH2:1]C(=O)C(C)(F)NC(=O)c3sc([100NH:0][100C:0](=O)N4CCCC(n5nc(-c6ccc(Oc7ccc(F)cc7F)cc6)c(C(N)=O)c5N)C4)nc3C)ccc2CC1C(=O)NC1CCCc2ccccc21)C(C)(C)C

> <Shape>
0.284

> <Color>
0.170

> <Negative vol penalty>
0.000

$$$$

  -OEChem-04052304593D

 84 92  0     1  0  0  0  0  0999 V2000
  -16.4531  -29.8180   23.4551 C   0  0  0  0  0  0  0  0  0  0  0  0
  -17.4860  -30.6216   23.9270 C   0  0  0  0  0  0  0  0  0  0  0  0
  -26.9077  -21.1220   19.0096 C   0  0  0  0  0  0  0  0  0  0  0  0
  -28.8007  -19.6261   19.1357 C   0  0  0  0  0  0  0  0  0  0  0  0
  -16.7371  -28.5620   22.9205 C   0  0  0  0  0  0  0  0  0  0  0  0
  -18.8035  -30.1692   23.8656 C   0  0  0  0  0  0  0  0  0  0  0  0
  -25.4940  -32.5681   22.9715 C   0  0  0  0  0  0  0  0  0  0  0  0
  -26.0451  -20.0497   19.2371 C   0  0  0  0  0  0  0  0  0  0  0  0
  -27.9381  -18.5538   19.3632 C   0  0  0  0  0  0  0  0  0  0  0  0
  -26.7493  -32.5082   23.5750 C   0  0  0  0  0  0  0  0  0  0  0  0
  -25.9107  -16.5566   17.5378 C   0  0  0  0  0  0  0  0  0  0  0  0
  -26.1401  -15.3784   16.8274 C   0  0  0  0  0  0  0  0  0  0  0  0
  -27.1287  -30.3538   22.5582 C   0  0  0  0  0  0  0  0  0  0  0  0
  -26.4430  -14.1842   18.9056 C   0  0  0  0  0  0  0  0  0  0  0  0
  -28.2855  -20.9102   18.9589 C   0  0  0  0  0  0  0  0  0  0  0  0
  -29.7714  -22.8507   19.6898 C   0  0  0  0  0  0  0  0  0  0  0  0
  -18.0598  -28.0980   22.8437 C   0  0  0  0  0  0  0  0  0  0  0  0
  -25.0413  -31.5146   22.1642 C   0  0  0  0  0  0  0  0  0  0  0  0
  -19.1054  -28.9053   23.3307 C   0  0  0  0  0  0  0  0  0  0  0  0
  -25.8682  -30.4040   21.9435 C   0  0  0  0  0  0  0  0  0  0  0  0
  -26.5603  -18.7656   19.4139 C   0  0  0  0  0  0  0  0  0  0  0  0
  -27.5657  -31.3997   23.3708 C   0  0  0  0  0  0  0  0  0  0  0  0
  -25.9476  -16.5487   18.9322 C   0  0  0  0  0  0  0  0  0  0  0  0
  -26.4062  -14.1922   17.5112 C   0  0  0  0  0  0  0  0  0  0  0  0
  -26.2137  -15.3625   19.6161 C   0  0  0  0  0  0  0  0  0  0  0  0
  -29.1770  -22.0174   18.7233 C   0  0  0  0  0  0  0  0  0  0  0  0
  -31.0850  -29.9326   17.2587 C   0  0  0  0  0  0  0  0  0  0  0  0
  -30.8249  -31.2541   17.5556 C   0  0  0  0  0  0  0  0  0  0  0  0
  -30.5234  -23.7395   18.9612 C   0  0  0  0  0  0  0  0  0  0  0  0
  -30.5685  -30.4084   19.5629 C   0  0  0  0  0  0  0  0  0  0  0  0
  -29.6543  -22.8237   21.1186 C   0  0  0  0  0  0  0  0  0  0  0  0
  -31.4319  -29.2846   15.9677 C   0  0  0  0  0  0  0  0  0  0  0  0
  -22.6054  -29.4767   22.2932 C   0  0  0  0  0  0  0  0  0  0  0  0
  -23.6955  -28.5943   19.3682 C   0  0  0  0  0  0  0  0  0  0  0  0
  -26.3079  -28.4294   17.1785 C   0  0  0  0  0  0  0  0  0  0  0  0
  -30.0027  -31.2094   21.8818 C   0  0  0  0  0  0  0  0  0  0  0  0
  -31.2002  -27.1864   14.6764 C   0  0  0  0  0  0  0  0  0  0  0  0
  -18.3131  -26.7138   22.3010 C   0  0  0  0  0  0  0  0  0  0  0  0
  -23.6955  -31.6066   21.4988 C   0  0  0  0  0  0  0  0  0  0  0  0
  -25.4373  -29.2557   21.0693 C   0  0  0  0  0  0  0  0  0  0  0  0
  -19.7721  -26.4632   21.9284 C   0  0  0  0  0  0  0  0  0  0  0  0
  -31.7718  -23.7541   14.0525 C   0  0  0  0  0  0  0  0  0  0  0  0
  -20.6978  -26.9495   23.0390 C   0  0  0  0  0  0  0  0  0  0  0  0
  -31.2043  -23.0618   15.2947 C   0  0  0  0  0  0  0  0  0  0  0  0
  -30.9234  -24.9541   13.6342 C   0  0  0  0  0  0  0  0  0  0  0  0
  -30.0932  -25.2392   15.9337 C   0  0  0  0  0  0  0  0  0  0  0  0
  -20.5499  -28.4599   23.2586 C   0  0  1  0  0  0  0  0  0  0  0  0
  -23.1261  -30.2452   21.1117 C   0  0  1  0  0  0  0  0  0  0  0  0
  -30.9511  -24.0669   16.4363 C   0  0  1  0  0  0  0  0  0  0  0  0
  -30.8370  -32.3796   16.5986 C   0  0  0  0  0  0  0  0  0  0  0  0
  -26.9027  -27.6196   14.8789 C   0  0  0  0  0  0  0  0  0  0  0  0
  -31.0912  -30.6444   24.0853 C   0  0  0  0  0  0  0  0  0  0  0  0
  -23.7766  -25.7248   20.4023 C   0  0  0  0  0  0  0  0  0  0  0  0
  -25.2350  -25.1376   18.4539 C   0  0  0  0  0  0  0  0  0  0  0  0
  -22.9148  -25.9682   18.0672 C   0  0  0  0  0  0  0  0  0  0  0  0
  -27.0000  -31.1597   16.2699 C   0  0  0  0  0  0  0  0  0  0  0  0
  -24.6928  -27.5814   18.8598 C   0  0  1  0  0  0  0  0  0  0  0  0
  -26.4157  -28.7968   15.7095 C   0  0  2  0  0  0  0  0  0  0  0  0
  -29.8063  -30.6084   23.2712 C   0  0  1  0  0  0  0  0  0  1  0  0
  -24.1624  -26.1236   18.9639 C   0  0  0  0  0  0  0  0  0  0  0  0
  -29.5216  -22.3475   17.4758 N   0  0  0  0  0  0  0  0  0  0  0  0
  -30.5281  -31.5287   18.8763 N   0  0  0  0  0  0  0  0  0  0  0  0
  -30.3405  -23.3981   17.6534 N   0  0  0  0  0  0  0  0  0  0  0  0
  -24.1103  -29.3895   20.4458 N   0  0  0  0  0  0  0  0  0  0  0  0
  -30.7383  -25.8618   14.7679 N   0  0  0  0  0  0  0  0  0  0  0  0
  -31.3165  -24.7720   19.3179 N   0  0  0  0  0  0  0  0  0  0  0  0
  -28.8403  -21.8442   21.7038 N   0  0  0  0  0  0  0  0  0  0  0  0
  -30.3309  -30.2330   20.9470 N   0  0  0  0  0  0  0  0  0  0  0  0
  -31.0145  -27.9608   15.8270 N   0  0  0  0  0  0  0  0  0  0  0  0
  -21.2548  -29.1918   22.2281 N   0  0  0  0  0  0  0  0  0  0  0  0
  -25.0404  -27.9955   17.5047 N   0  0  0  0  0  0  0  0  0  0  0  0
  -27.3693  -29.9273   15.5269 N   0  3  0  0  0  0  0  0  0  0  0  0
  -30.2407  -23.6540   21.8535 O   0  0  0  0  0  0  0  0  0  0  0  0
  -32.0128  -29.9398   15.1068 O   0  0  0  0  0  0  0  0  0  0  0  0
  -23.3725  -29.1639   23.1962 O   0  0  0  0  0  0  0  0  0  0  0  0
  -22.5917  -28.6817   18.8244 O   0  0  0  0  0  0  0  0  0  0  0  0
  -27.2545  -28.5150   17.9577 O   0  0  0  0  0  0  0  0  0  0  0  0
  -29.8567  -32.4118   21.6820 O   0  0  0  0  0  0  0  0  0  0  0  0
  -31.7636  -27.6305   13.6711 O   0  0  0  0  0  0  0  0  0  0  0  0
  -25.7189  -17.7191   19.6361 O   0  0  0  0  0  0  0  0  0  0  0  0
  -28.7912  -31.3384   23.9592 O   0  0  0  0  0  0  0  0  0  1  0  0
  -26.6249  -13.0605   16.8289 F   0  0  0  0  0  0  0  0  0  0  0  0
  -26.2493  -15.3484   20.9556 F   0  0  0  0  0  0  0  0  0  0  0  0
  -30.9576  -28.9869   18.6837 S   0  0  0  0  0  0  0  0  0  0  0  0
  1  2  1  0  0  0  0
  1  5  2  0  0  0  0
  2  6  2  0  0  0  0
  3  8  2  0  0  0  0
  3 15  1  0  0  0  0
  4  9  1  0  0  0  0
  4 15  2  0  0  0  0
  5 17  1  0  0  0  0
  6 19  1  0  0  0  0
  7 10  2  0  0  0  0
  7 18  1  0  0  0  0
  8 21  1  0  0  0  0
  9 21  2  0  0  0  0
 10 22  1  0  0  0  0
 11 12  2  0  0  0  0
 11 23  1  0  0  0  0
 12 24  1  0  0  0  0
 13 20  1  0  0  0  0
 13 22  2  0  0  0  0
 14 24  2  0  0  0  0
 14 25  1  0  0  0  0
 15 26  1  0  0  0  0
 16 26  1  0  0  0  0
 16 29  2  0  0  0  0
 16 31  1  0  0  0  0
 17 19  2  0  0  0  0
 17 38  1  0  0  0  0
 18 20  2  0  0  0  0
 18 39  1  0  0  0  0
 19 47  1  0  0  0  0
 20 40  1  0  0  0  0
 21 80  1  0  0  0  0
 22 81  1  0  0  0  0
 23 25  2  0  0  0  0
 23 80  1  0  0  0  0
 24 82  1  0  0  0  0
 25 83  1  0  0  0  0
 26 61  2  0  0  0  0
 27 28  2  0  0  0  0
 27 32  1  0  0  0  0
 27 84  1  0  0  0  0
 28 50  1  0  0  0  0
 28 62  1  0  0  0  0
 29 63  1  0  0  0  0
 29 66  1  0  0  0  0
 30 62  2  0  0  0  0
 30 68  1  0  0  0  0
 30 84  1  0  0  0  0
 31 67  1  0  0  0  0
 31 73  2  0  0  0  0
 32 69  1  0  0  0  0
 32 74  2  0  0  0  0
 33 48  1  0  0  0  0
 33 70  1  0  0  0  0
 33 75  2  0  0  0  0
 34 57  1  0  0  0  0
 34 64  1  0  0  0  0
 34 76  2  0  0  0  0
 35 58  1  0  0  0  0
 35 71  1  0  0  0  0
 35 77  2  0  0  0  0
 36 59  1  0  0  0  0
 36 68  1  0  0  0  0
 36 78  2  0  0  0  0
 37 65  1  0  0  0  0
 37 69  1  0  0  0  0
 37 79  2  0  0  0  0
 38 41  1  0  0  0  0
 39 48  1  0  0  0  0
 40 64  1  0  0  0  0
 41 43  1  0  0  0  0
 42 44  1  0  0  0  0
 42 45  1  0  0  0  0
 43 47  1  0  0  0  0
 44 49  1  0  0  0  0
 45 65  1  0  0  0  0
 46 49  1  0  0  0  0
 46 65  1  0  0  0  0
 47 70  1  0  0  0  0
 48 64  1  0  0  0  0
 49 63  1  0  0  0  0
 51 58  1  0  0  0  0
 52 59  1  0  0  0  0
 53 60  1  0  0  0  0
 54 60  1  0  0  0  0
 55 60  1  0  0  0  0
 56 72  1  0  0  0  0
 57 60  1  0  0  0  0
 57 71  1  0  0  0  0
 58 72  1  0  0  0  0
 59 81  1  0  0  0  0
 61 63  1  0  0  0  0
M  CHG  1  72   1
M  ISO  4  37 100  59 101  69 100  81 101
M  END
> <Batch ID>
0183

> <Smiles>
CNC(C)C(=O)NC(C(=O)N1Cc2cc([101O:1][101CH:1](C)C(=O)Nc3nc(C)c(C(=O)[100NH:0][100C:0](=O)N4CCCC(n5nc(-c6ccc(Oc7ccc(F)cc7F)cc6)c(C(N)=O)c5N)C4)s3)ccc2CC1C(=O)NC1CCCc2ccccc21)C(C)(C)C

> <Shape>
0.244

> <Color>
0.098

> <Negative vol penalty>
0.000

$$$$

  -OEChem-04052304593D

 86 94  0     1  0  0  0  0  0999 V2000
  -29.3847  -32.1166   18.4250 C   0  0  0  0  0  0  0  0  0  0  0  0
  -29.0150  -30.7786   18.3333 C   0  0  0  0  0  0  0  0  0  0  0  0
  -23.2953   -9.8417   19.8668 C   0  0  0  0  0  0  0  0  0  0  0  0
  -23.6704   -9.9515   22.2510 C   0  0  0  0  0  0  0  0  0  0  0  0
  -30.6223  -32.5318   17.9353 C   0  0  0  0  0  0  0  0  0  0  0  0
  -29.8824  -29.8551   17.7508 C   0  0  0  0  0  0  0  0  0  0  0  0
  -30.2402  -25.5703   20.4262 C   0  0  0  0  0  0  0  0  0  0  0  0
  -22.5437   -8.6794   20.0385 C   0  0  0  0  0  0  0  0  0  0  0  0
  -22.9186   -8.7891   22.4228 C   0  0  0  0  0  0  0  0  0  0  0  0
  -29.1957  -24.6549   20.3050 C   0  0  0  0  0  0  0  0  0  0  0  0
  -19.6519   -7.9297   22.5245 C   0  0  0  0  0  0  0  0  0  0  0  0
  -18.7149   -7.9124   23.5576 C   0  0  0  0  0  0  0  0  0  0  0  0
  -30.5168  -23.3620   18.7550 C   0  0  0  0  0  0  0  0  0  0  0  0
  -19.8576   -6.0359   24.5627 C   0  0  0  0  0  0  0  0  0  0  0  0
  -30.5188  -17.0039   15.2552 C   0  0  0  0  0  0  0  0  0  0  0  0
  -23.8587  -10.4778   20.9731 C   0  0  0  0  0  0  0  0  0  0  0  0
  -24.1654  -13.0050   20.8094 C   0  0  0  0  0  0  0  0  0  0  0  0
  -31.5093  -31.6113   17.3553 C   0  0  0  0  0  0  0  0  0  0  0  0
  -31.4287  -25.3940   19.7032 C   0  0  0  0  0  0  0  0  0  0  0  0
  -31.1325  -30.2586   17.2517 C   0  0  0  0  0  0  0  0  0  0  0  0
  -31.5758  -24.2752   18.8708 C   0  0  0  0  0  0  0  0  0  0  0  0
  -22.3553   -8.1531   21.3165 C   0  0  0  0  0  0  0  0  0  0  0  0
  -29.3328  -23.5520   19.4671 C   0  0  0  0  0  0  0  0  0  0  0  0
  -20.6917   -7.0001   22.5104 C   0  0  0  0  0  0  0  0  0  0  0  0
  -18.8178   -6.9656   24.5767 C   0  0  0  0  0  0  0  0  0  0  0  0
  -20.7946   -6.0532   23.5295 C   0  0  0  0  0  0  0  0  0  0  0  0
  -24.6358  -11.6782   20.7963 C   0  0  0  0  0  0  0  0  0  0  0  0
  -30.9711  -17.0774   16.5560 C   0  0  0  0  0  0  0  0  0  0  0  0
  -25.2871  -13.7691   20.5986 C   0  0  0  0  0  0  0  0  0  0  0  0
  -29.7167  -18.8764   16.5408 C   0  0  0  0  0  0  0  0  0  0  0  0
  -22.8336  -13.5023   20.9955 C   0  0  0  0  0  0  0  0  0  0  0  0
  -31.8881  -16.0827   17.1377 C   0  0  0  0  0  0  0  0  0  0  0  0
  -32.9655  -27.0580   17.4730 C   0  0  0  0  0  0  0  0  0  0  0  0
  -35.2392  -24.7835   17.8961 C   0  0  0  0  0  0  0  0  0  0  0  0
  -36.0164  -21.6146   18.8968 C   0  0  0  0  0  0  0  0  0  0  0  0
  -29.0499  -20.7168   18.1243 C   0  0  0  0  0  0  0  0  0  0  0  0
  -29.8825  -14.7964   17.8514 C   0  0  0  0  0  0  0  0  0  0  0  0
  -32.8166  -32.1155   16.7973 C   0  0  0  0  0  0  0  0  0  0  0  0
  -32.5563  -26.3762   19.8655 C   0  0  0  0  0  0  0  0  0  0  0  0
  -32.8392  -24.0295   18.0885 C   0  0  0  0  0  0  0  0  0  0  0  0
  -33.8337  -31.0082   16.5332 C   0  0  0  0  0  0  0  0  0  0  0  0
  -30.1849  -12.5059   20.6202 C   0  0  0  0  0  0  0  0  0  0  0  0
  -33.1754  -29.8418   15.8032 C   0  0  0  0  0  0  0  0  0  0  0  0
  -28.7157  -12.1976   20.9146 C   0  0  0  0  0  0  0  0  0  0  0  0
  -30.4337  -12.6382   19.1200 C   0  0  0  0  0  0  0  0  0  0  0  0
  -28.1039  -13.3347   18.7316 C   0  0  0  0  0  0  0  0  0  0  0  0
  -32.0563  -29.2225   16.6491 C   0  0  1  0  0  0  0  0  0  0  0  0
  -33.5256  -26.3731   18.6875 C   0  0  1  0  0  0  0  0  0  0  0  0
  -27.7823  -13.2152   20.2323 C   0  0  1  0  0  0  0  0  0  0  0  0
  -37.9515  -20.0285   19.0895 C   0  0  0  0  0  0  0  0  0  0  0  0
  -26.7261  -21.6552   17.8431 C   0  0  0  0  0  0  0  0  0  0  0  0
  -35.4476  -16.1994   17.9753 C   0  0  0  0  0  0  0  0  0  0  0  0
  -34.5769  -14.3421   16.5099 C   0  0  0  0  0  0  0  0  0  0  0  0
  -35.1462  -24.3078   14.8837 C   0  0  0  0  0  0  0  0  0  0  0  0
  -36.3416  -22.1403   15.2593 C   0  0  0  0  0  0  0  0  0  0  0  0
  -37.4436  -24.2928   15.8717 C   0  0  0  0  0  0  0  0  0  0  0  0
  -35.7055  -21.4090   21.8328 C   0  0  0  0  0  0  0  0  0  0  0  0
  -35.5294  -23.4348   17.2830 C   0  0  1  0  0  0  0  0  0  0  0  0
  -37.1170  -21.0843   19.7978 C   0  0  2  0  0  0  0  0  0  0  0  0
  -28.1910  -21.9785   18.0973 C   0  0  1  0  0  0  0  0  0  1  0  0
  -34.2406  -15.3656   17.5811 C   0  0  0  0  0  0  0  0  0  0  0  0
  -36.0905  -23.5493   15.8375 C   0  0  0  0  0  0  0  0  0  0  0  0
  -25.9536  -11.6003   20.5931 N   0  0  0  0  0  0  0  0  0  0  0  0
  -30.5125  -18.1507   17.2946 N   0  0  0  0  0  0  0  0  0  0  0  0
  -26.3209  -12.8878   20.4765 N   0  0  0  0  0  0  0  0  0  0  0  0
  -33.9107  -25.0216   18.2760 N   0  0  0  0  0  0  0  0  0  0  0  0
  -29.5258  -13.6337   18.5372 N   0  0  0  0  0  0  0  0  0  0  0  0
  -25.4802  -15.1020   20.5076 N   0  0  0  0  0  0  0  0  0  0  0  0
  -21.7985  -12.5799   21.2001 N   0  0  0  0  0  0  0  0  0  0  0  0
  -29.0307  -20.0618   16.8973 N   0  0  0  0  0  0  0  0  0  0  0  0
  -31.3050  -15.0300   17.7346 N   0  0  0  0  0  0  0  0  0  0  0  0
  -32.6132  -28.3775   17.6835 N   0  0  0  0  0  0  0  0  0  0  0  0
  -36.4149  -22.7448   18.2148 N   0  0  0  0  0  0  0  0  0  0  0  0
  -33.2118  -16.2678   17.0507 N   0  3  0  0  0  0  0  0  0  0  0  0
  -36.5324  -20.4751   21.0260 N   0  3  0  0  0  0  0  0  0  0  0  0
  -22.5668  -14.7276   20.9646 O   0  0  0  0  0  0  0  0  0  0  0  0
  -32.8619  -26.4358   16.4224 O   0  0  0  0  0  0  0  0  0  0  0  0
  -36.1588  -25.5930   18.0396 O   0  0  0  0  0  0  0  0  0  0  0  0
  -34.9147  -21.0777   18.8042 O   0  0  0  0  0  0  0  0  0  0  0  0
  -29.6678  -20.3890   19.1333 O   0  0  0  0  0  0  0  0  0  0  0  0
  -29.0968  -15.6093   17.3757 O   0  0  0  0  0  0  0  0  0  0  0  0
  -21.6216   -7.0190   21.4845 O   0  0  0  0  0  0  0  0  0  0  0  0
  -28.3145  -22.6573   19.3464 O   0  0  0  0  0  0  0  0  0  1  0  0
  -17.9188   -6.9501   25.5696 F   0  0  0  0  0  0  0  0  0  0  0  0
  -21.7921   -5.1583   23.5220 F   0  0  0  0  0  0  0  0  0  0  0  0
  -29.4749  -18.3261   14.9335 S   0  0  0  0  0  0  0  0  0  0  0  0
  1  2  1  0  0  0  0
  1  5  2  0  0  0  0
  2  6  2  0  0  0  0
  3  8  2  0  0  0  0
  3 16  1  0  0  0  0
  4  9  1  0  0  0  0
  4 16  2  0  0  0  0
  5 18  1  0  0  0  0
  6 20  1  0  0  0  0
  7 10  2  0  0  0  0
  7 19  1  0  0  0  0
  8 22  1  0  0  0  0
  9 22  2  0  0  0  0
 10 23  1  0  0  0  0
 11 12  2  0  0  0  0
 11 24  1  0  0  0  0
 12 25  1  0  0  0  0
 13 21  1  0  0  0  0
 13 23  2  0  0  0  0
 14 25  2  0  0  0  0
 14 26  1  0  0  0  0
 15 28  2  0  0  0  0
 15 86  1  0  0  0  0
 16 27  1  0  0  0  0
 17 27  1  0  0  0  0
 17 29  2  0  0  0  0
 17 31  1  0  0  0  0
 18 20  2  0  0  0  0
 18 38  1  0  0  0  0
 19 21  2  0  0  0  0
 19 39  1  0  0  0  0
 20 47  1  0  0  0  0
 21 40  1  0  0  0  0
 22 82  1  0  0  0  0
 23 83  1  0  0  0  0
 24 26  2  0  0  0  0
 24 82  1  0  0  0  0
 25 84  1  0  0  0  0
 26 85  1  0  0  0  0
 27 63  2  0  0  0  0
 28 32  1  0  0  0  0
 28 64  1  0  0  0  0
 29 65  1  0  0  0  0
 29 68  1  0  0  0  0
 30 64  2  0  0  0  0
 30 70  1  0  0  0  0
 30 86  1  0  0  0  0
 31 69  1  0  0  0  0
 31 76  2  0  0  0  0
 32 71  1  0  0  0  0
 32 74  2  0  0  0  0
 33 48  1  0  0  0  0
 33 72  1  0  0  0  0
 33 77  2  0  0  0  0
 34 58  1  0  0  0  0
 34 66  1  0  0  0  0
 34 78  2  0  0  0  0
 35 59  1  0  0  0  0
 35 73  1  0  0  0  0
 35 79  2  0  0  0  0
 36 60  1  0  0  0  0
 36 70  1  0  0  0  0
 36 80  2  0  0  0  0
 37 67  1  0  0  0  0
 37 71  1  0  0  0  0
 37 81  2  0  0  0  0
 38 41  1  0  0  0  0
 39 48  1  0  0  0  0
 40 66  1  0  0  0  0
 41 43  1  0  0  0  0
 42 44  1  0  0  0  0
 42 45  1  0  0  0  0
 43 47  1  0  0  0  0
 44 49  1  0  0  0  0
 45 67  1  0  0  0  0
 46 49  1  0  0  0  0
 46 67  1  0  0  0  0
 47 72  1  0  0  0  0
 48 66  1  0  0  0  0
 49 65  1  0  0  0  0
 50 59  1  0  0  0  0
 51 60  1  0  0  0  0
 52 61  1  0  0  0  0
 53 61  1  0  0  0  0
 54 62  1  0  0  0  0
 55 62  1  0  0  0  0
 56 62  1  0  0  0  0
 57 75  1  0  0  0  0
 58 62  1  0  0  0  0
 58 73  1  0  0  0  0
 59 75  1  0  0  0  0
 60 83  1  0  0  0  0
 61 74  1  0  0  0  0
 63 65  1  0  0  0  0
M  CHG  2  74   1  75   1
M  ISO  4  37 100  60 101  71 100  83 101
M  END
> <Batch ID>
0183

> <Smiles>
CNC(C)C(=O)NC(C(=O)N1Cc2cc([101O:1][101CH:1](C)C(=O)Nc3nc(C(=NC(C)C)[100NH:0][100C:0](=O)N4CCCC(n5nc(-c6ccc(Oc7ccc(F)cc7F)cc6)c(C(N)=O)c5N)C4)cs3)ccc2CC1C(=O)NC1CCCc2ccccc21)C(C)(C)C

> <Shape>
0.180

> <Color>
0.183

> <Negative vol penalty>
0.000

$$$$

  -OEChem-04052304593D

 84 92  0     1  0  0  0  0  0999 V2000
  -16.9422  -29.1540   24.4583 C   0  0  0  0  0  0  0  0  0  0  0  0
  -17.3348  -28.0669   23.6840 C   0  0  0  0  0  0  0  0  0  0  0  0
  -27.3239  -17.9101   19.8368 C   0  0  0  0  0  0  0  0  0  0  0  0
  -28.5738  -17.8854   21.9041 C   0  0  0  0  0  0  0  0  0  0  0  0
  -17.5988  -30.3767   24.3248 C   0  0  0  0  0  0  0  0  0  0  0  0
  -18.3836  -28.2021   22.7751 C   0  0  0  0  0  0  0  0  0  0  0  0
  -22.5208  -23.9458   21.2677 C   0  0  0  0  0  0  0  0  0  0  0  0
  -27.1139  -16.5356   19.9473 C   0  0  0  0  0  0  0  0  0  0  0  0
  -28.3639  -16.5109   22.0147 C   0  0  0  0  0  0  0  0  0  0  0  0
  -22.6125  -23.0674   20.1889 C   0  0  0  0  0  0  0  0  0  0  0  0
  -25.0820  -14.4570   21.6746 C   0  0  0  0  0  0  0  0  0  0  0  0
  -23.7964  -13.9756   21.4273 C   0  0  0  0  0  0  0  0  0  0  0  0
  -24.0668  -24.6221   19.0544 C   0  0  0  0  0  0  0  0  0  0  0  0
  -24.6532  -12.6131   19.6254 C   0  0  0  0  0  0  0  0  0  0  0  0
  -28.0539  -18.5850   20.8152 C   0  0  0  0  0  0  0  0  0  0  0  0
  -27.4546  -21.0334   21.2077 C   0  0  0  0  0  0  0  0  0  0  0  0
  -18.6625  -30.5244   23.4207 C   0  0  0  0  0  0  0  0  0  0  0  0
  -23.1938  -25.1758   21.2432 C   0  0  0  0  0  0  0  0  0  0  0  0
  -19.0541  -29.4283   22.6285 C   0  0  0  0  0  0  0  0  0  0  0  0
  -23.9841  -25.5132   20.1352 C   0  0  0  0  0  0  0  0  0  0  0  0
  -27.6339  -15.8360   21.0362 C   0  0  0  0  0  0  0  0  0  0  0  0
  -23.3833  -23.4068   19.0808 C   0  0  0  0  0  0  0  0  0  0  0  0
  -26.1532  -14.0165   20.8972 C   0  0  0  0  0  0  0  0  0  0  0  0
  -23.5820  -13.0537   20.4027 C   0  0  0  0  0  0  0  0  0  0  0  0
  -25.9388  -13.0946   19.8727 C   0  0  0  0  0  0  0  0  0  0  0  0
  -28.2715  -20.0048   20.7013 C   0  0  0  0  0  0  0  0  0  0  0  0
  -28.8151  -24.5660   14.3652 C   0  0  0  0  0  0  0  0  0  0  0  0
  -28.0921  -22.1921   20.8371 C   0  0  0  0  0  0  0  0  0  0  0  0
  -28.3350  -25.1445   13.2090 C   0  0  0  0  0  0  0  0  0  0  0  0
  -26.6696  -24.2835   14.7215 C   0  0  0  0  0  0  0  0  0  0  0  0
  -26.2291  -20.9490   21.9471 C   0  0  0  0  0  0  0  0  0  0  0  0
  -30.2550  -24.4517   14.7123 C   0  0  0  0  0  0  0  0  0  0  0  0
  -22.2989  -28.2245   21.3341 C   0  0  0  0  0  0  0  0  0  0  0  0
  -25.4953  -28.7532   21.4943 C   0  0  0  0  0  0  0  0  0  0  0  0
  -28.6534  -27.6296   20.8536 C   0  0  0  0  0  0  0  0  0  0  0  0
  -25.1693  -23.3005   16.4884 C   0  0  0  0  0  0  0  0  0  0  0  0
  -31.8202  -23.5848   16.4218 C   0  0  0  0  0  0  0  0  0  0  0  0
  -19.3108  -31.8786   23.2775 C   0  0  0  0  0  0  0  0  0  0  0  0
  -23.1061  -26.1005   22.4263 C   0  0  0  0  0  0  0  0  0  0  0  0
  -24.7425  -26.8128   20.0683 C   0  0  0  0  0  0  0  0  0  0  0  0
  -20.6580  -31.8362   22.5608 C   0  0  0  0  0  0  0  0  0  0  0  0
  -32.4582  -23.9250   19.8822 C   0  0  0  0  0  0  0  0  0  0  0  0
  -20.5668  -30.9779   21.3031 C   0  0  0  0  0  0  0  0  0  0  0  0
  -31.3732  -23.0647   20.5357 C   0  0  0  0  0  0  0  0  0  0  0  0
  -32.9820  -23.2946   18.5925 C   0  0  0  0  0  0  0  0  0  0  0  0
  -30.8710  -22.0714   18.2673 C   0  0  0  0  0  0  0  0  0  0  0  0
  -20.2036  -29.5288   21.6493 C   0  0  1  0  0  0  0  0  0  0  0  0
  -23.4196  -27.5516   22.0749 C   0  0  1  0  0  0  0  0  0  0  0  0
  -30.2616  -22.6975   19.5321 C   0  0  1  0  0  0  0  0  0  0  0  0
  -31.1626  -27.5975   20.8752 C   0  0  0  0  0  0  0  0  0  0  0  0
  -23.0268  -22.2422   15.6828 C   0  0  0  0  0  0  0  0  0  0  0  0
  -25.1782  -30.6284   19.1083 C   0  0  0  0  0  0  0  0  0  0  0  0
  -27.6568  -30.5107   18.7752 C   0  0  0  0  0  0  0  0  0  0  0  0
  -26.7276  -31.4572   20.8878 C   0  0  0  0  0  0  0  0  0  0  0  0
  -28.7284  -26.1912   23.4390 C   0  0  0  0  0  0  0  0  0  0  0  0
  -26.5959  -28.9651   20.4830 C   0  0  1  0  0  0  0  0  0  0  0  0
  -29.8985  -27.5754   21.7204 C   0  0  2  0  0  0  0  0  0  0  0  0
  -23.6729  -23.1293   16.7366 C   0  0  1  0  0  0  0  0  0  1  0  0
  -26.5239  -30.3666   19.8137 C   0  0  0  0  0  0  0  0  0  0  0  0
  -29.3459  -20.4692   20.0578 N   0  0  0  0  0  0  0  0  0  0  0  0
  -27.8616  -24.0721   15.2339 N   0  0  0  0  0  0  0  0  0  0  0  0
  -29.2085  -21.8023   20.1573 N   0  0  0  0  0  0  0  0  0  0  0  0
  -24.6200  -27.6861   21.2472 N   0  0  0  0  0  0  0  0  0  0  0  0
  -31.8691  -22.9860   17.6927 N   0  0  0  0  0  0  0  0  0  0  0  0
  -27.8011  -23.4962   21.0294 N   0  0  0  0  0  0  0  0  0  0  0  0
  -29.0391  -25.7040   12.1945 N   0  0  0  0  0  0  0  0  0  0  0  0
  -25.7134  -19.6798   22.2430 N   0  0  0  0  0  0  0  0  0  0  0  0
  -25.4144  -23.9389   15.2771 N   0  0  0  0  0  0  0  0  0  0  0  0
  -30.5334  -23.8316   15.9307 N   0  0  0  0  0  0  0  0  0  0  0  0
  -21.3624  -28.8242   22.1544 N   0  0  0  0  0  0  0  0  0  0  0  0
  -27.8489  -28.7002   21.1817 N   0  0  0  0  0  0  0  0  0  0  0  0
  -29.9040  -26.3319   22.5418 N   0  3  0  0  0  0  0  0  0  0  0  0
  -25.6013  -21.9690   22.3198 O   0  0  0  0  0  0  0  0  0  0  0  0
  -31.0963  -24.8596   13.9163 O   0  0  0  0  0  0  0  0  0  0  0  0
  -22.2856  -28.2026   20.1089 O   0  0  0  0  0  0  0  0  0  0  0  0
  -25.4194  -29.5023   22.4714 O   0  0  0  0  0  0  0  0  0  0  0  0
  -28.4199  -26.8067   19.9710 O   0  0  0  0  0  0  0  0  0  0  0  0
  -25.9985  -22.9140   17.3071 O   0  0  0  0  0  0  0  0  0  0  0  0
  -32.8342  -23.9071   15.7946 O   0  0  0  0  0  0  0  0  0  0  0  0
  -27.4291  -14.4948   21.1445 O   0  0  0  0  0  0  0  0  0  0  0  0
  -23.4740  -22.5515   18.0262 O   0  0  0  0  0  0  0  0  0  1  0  0
  -22.3477  -12.5903   20.1664 F   0  0  0  0  0  0  0  0  0  0  0  0
  -26.9641  -12.6668   19.1233 F   0  0  0  0  0  0  0  0  0  0  0  0
  -26.6215  -25.0710   13.1975 S   0  0  0  0  0  0  0  0  0  0  0  0
  1  2  1  0  0  0  0
  1  5  2  0  0  0  0
  2  6  2  0  0  0  0
  3  8  2  0  0  0  0
  3 15  1  0  0  0  0
  4  9  1  0  0  0  0
  4 15  2  0  0  0  0
  5 17  1  0  0  0  0
  6 19  1  0  0  0  0
  7 10  2  0  0  0  0
  7 18  1  0  0  0  0
  8 21  1  0  0  0  0
  9 21  2  0  0  0  0
 10 22  1  0  0  0  0
 11 12  2  0  0  0  0
 11 23  1  0  0  0  0
 12 24  1  0  0  0  0
 13 20  1  0  0  0  0
 13 22  2  0  0  0  0
 14 24  2  0  0  0  0
 14 25  1  0  0  0  0
 15 26  1  0  0  0  0
 16 26  1  0  0  0  0
 16 28  2  0  0  0  0
 16 31  1  0  0  0  0
 17 19  2  0  0  0  0
 17 38  1  0  0  0  0
 18 20  2  0  0  0  0
 18 39  1  0  0  0  0
 19 47  1  0  0  0  0
 20 40  1  0  0  0  0
 21 80  1  0  0  0  0
 22 81  1  0  0  0  0
 23 25  2  0  0  0  0
 23 80  1  0  0  0  0
 24 82  1  0  0  0  0
 25 83  1  0  0  0  0
 26 60  2  0  0  0  0
 27 29  2  0  0  0  0
 27 32  1  0  0  0  0
 27 61  1  0  0  0  0
 28 62  1  0  0  0  0
 28 65  1  0  0  0  0
 29 66  1  0  0  0  0
 29 84  1  0  0  0  0
 30 61  2  0  0  0  0
 30 68  1  0  0  0  0
 30 84  1  0  0  0  0
 31 67  1  0  0  0  0
 31 73  2  0  0  0  0
 32 69  1  0  0  0  0
 32 74  2  0  0  0  0
 33 48  1  0  0  0  0
 33 70  1  0  0  0  0
 33 75  2  0  0  0  0
 34 56  1  0  0  0  0
 34 63  1  0  0  0  0
 34 76  2  0  0  0  0
 35 57  1  0  0  0  0
 35 71  1  0  0  0  0
 35 77  2  0  0  0  0
 36 58  1  0  0  0  0
 36 68  1  0  0  0  0
 36 78  2  0  0  0  0
 37 64  1  0  0  0  0
 37 69  1  0  0  0  0
 37 79  2  0  0  0  0
 38 41  1  0  0  0  0
 39 48  1  0  0  0  0
 40 63  1  0  0  0  0
 41 43  1  0  0  0  0
 42 44  1  0  0  0  0
 42 45  1  0  0  0  0
 43 47  1  0  0  0  0
 44 49  1  0  0  0  0
 45 64  1  0  0  0  0
 46 49  1  0  0  0  0
 46 64  1  0  0  0  0
 47 70  1  0  0  0  0
 48 63  1  0  0  0  0
 49 62  1  0  0  0  0
 50 57  1  0  0  0  0
 51 58  1  0  0  0  0
 52 59  1  0  0  0  0
 53 59  1  0  0  0  0
 54 59  1  0  0  0  0
 55 72  1  0  0  0  0
 56 59  1  0  0  0  0
 56 71  1  0  0  0  0
 57 72  1  0  0  0  0
 58 81  1  0  0  0  0
 60 62  1  0  0  0  0
M  CHG  1  72   1
M  ISO  4  37 100  58 101  69 100  81 101
M  END
> <Batch ID>
0183

> <Smiles>
CNC(C)C(=O)NC(C(=O)N1Cc2cc([101O:1][101CH:1](C)C(=O)Nc3nc(C(=O)[100NH:0][100C:0](=O)N4CCCC(n5nc(-c6ccc(Oc7ccc(F)cc7F)cc6)c(C(N)=O)c5N)C4)c(N)s3)ccc2CC1C(=O)NC1CCCc2ccccc21)C(C)(C)C

> <Shape>
0.215

> <Color>
0.073

> <Negative vol penalty>
0.000

$$$$

  -OEChem-04052304593D

 84 92  0     1  0  0  0  0  0999 V2000
  -26.0285  -34.7781   23.5891 C   0  0  0  0  0  0  0  0  0  0  0  0
  -26.5822  -33.5392   23.2826 C   0  0  0  0  0  0  0  0  0  0  0  0
  -24.6905   -9.3920   21.4892 C   0  0  0  0  0  0  0  0  0  0  0  0
  -23.0732  -11.1655   21.7648 C   0  0  0  0  0  0  0  0  0  0  0  0
  -24.7328  -34.8546   24.0981 C   0  0  0  0  0  0  0  0  0  0  0  0
  -25.8407  -32.3759   23.4860 C   0  0  0  0  0  0  0  0  0  0  0  0
  -26.1612  -29.1610   19.5864 C   0  0  0  0  0  0  0  0  0  0  0  0
  -24.0210   -8.6323   22.4485 C   0  0  0  0  0  0  0  0  0  0  0  0
  -22.4036  -10.4058   22.7241 C   0  0  0  0  0  0  0  0  0  0  0  0
  -27.3218  -28.3951   19.4864 C   0  0  0  0  0  0  0  0  0  0  0  0
  -21.2540   -6.6952   22.6050 C   0  0  0  0  0  0  0  0  0  0  0  0
  -21.0305   -5.3473   22.3241 C   0  0  0  0  0  0  0  0  0  0  0  0
  -26.1601  -26.5184   20.4596 C   0  0  0  0  0  0  0  0  0  0  0  0
  -22.3052   -4.7281   24.2808 C   0  0  0  0  0  0  0  0  0  0  0  0
  -24.2167  -10.6587   21.1474 C   0  0  0  0  0  0  0  0  0  0  0  0
  -24.6805  -11.4525   18.7679 C   0  0  0  0  0  0  0  0  0  0  0  0
  -23.9715  -33.6924   24.2988 C   0  0  0  0  0  0  0  0  0  0  0  0
  -24.9923  -28.6138   20.1348 C   0  0  0  0  0  0  0  0  0  0  0  0
  -24.5340  -32.4368   23.9995 C   0  0  0  0  0  0  0  0  0  0  0  0
  -24.9852  -27.2786   20.5631 C   0  0  0  0  0  0  0  0  0  0  0  0
  -22.8775   -9.1392   23.0659 C   0  0  0  0  0  0  0  0  0  0  0  0
  -27.3222  -27.0745   19.9256 C   0  0  0  0  0  0  0  0  0  0  0  0
  -22.0033   -7.0595   23.7238 C   0  0  0  0  0  0  0  0  0  0  0  0
  -21.5560   -4.3638   23.1620 C   0  0  0  0  0  0  0  0  0  0  0  0
  -22.5288   -6.0759   24.5617 C   0  0  0  0  0  0  0  0  0  0  0  0
  -24.9083  -11.4441   20.1571 C   0  0  0  0  0  0  0  0  0  0  0  0
  -26.6152  -18.8623   20.8436 C   0  0  0  0  0  0  0  0  0  0  0  0
  -25.5886  -12.3582   18.2765 C   0  0  0  0  0  0  0  0  0  0  0  0
  -25.2886  -19.2276   20.9374 C   0  0  0  0  0  0  0  0  0  0  0  0
  -26.8748  -21.0397   20.8827 C   0  0  0  0  0  0  0  0  0  0  0  0
  -23.7326  -10.7083   17.9911 C   0  0  0  0  0  0  0  0  0  0  0  0
  -23.1803  -29.2692   22.6628 C   0  0  0  0  0  0  0  0  0  0  0  0
  -21.2639  -26.9799   21.3945 C   0  0  0  0  0  0  0  0  0  0  0  0
  -20.9696  -24.2250   19.4018 C   0  0  0  0  0  0  0  0  0  0  0  0
  -28.7543  -22.7093   20.8031 C   0  0  0  0  0  0  0  0  0  0  0  0
  -28.3728  -17.0644   20.6857 C   0  0  0  0  0  0  0  0  0  0  0  0
  -22.5925  -33.8219   24.8956 C   0  0  0  0  0  0  0  0  0  0  0  0
  -23.7410  -29.4450   20.2111 C   0  0  0  0  0  0  0  0  0  0  0  0
  -23.7506  -26.6378   21.1408 C   0  0  0  0  0  0  0  0  0  0  0  0
  -21.7369  -32.5686   24.7297 C   0  0  0  0  0  0  0  0  0  0  0  0
  -29.9055  -14.2122   19.2048 C   0  0  0  0  0  0  0  0  0  0  0  0
  -22.5359  -31.3236   25.1013 C   0  0  0  0  0  0  0  0  0  0  0  0
  -28.7756  -13.1815   19.1490 C   0  0  0  0  0  0  0  0  0  0  0  0
  -29.8329  -15.0653   20.4700 C   0  0  0  0  0  0  0  0  0  0  0  0
  -27.4064  -14.6810   20.6536 C   0  0  0  0  0  0  0  0  0  0  0  0
  -23.7522  -31.1542   24.1829 C   0  0  1  0  0  0  0  0  0  0  0  0
  -22.7532  -28.9429   21.2597 C   0  0  1  0  0  0  0  0  0  0  0  0
  -27.3997  -13.8413   19.3657 C   0  0  2  0  0  0  0  0  0  0  0  0
  -19.2848  -22.5516   18.5904 C   0  0  0  0  0  0  0  0  0  0  0  0
  -28.9087  -24.5124   18.3201 C   0  0  0  0  0  0  0  0  0  0  0  0
  -21.3493  -25.5830   24.1058 C   0  0  0  0  0  0  0  0  0  0  0  0
  -20.4835  -23.5157   22.9899 C   0  0  0  0  0  0  0  0  0  0  0  0
  -19.1024  -25.5930   23.0077 C   0  0  0  0  0  0  0  0  0  0  0  0
  -21.3788  -25.0091   16.5775 C   0  0  0  0  0  0  0  0  0  0  0  0
  -21.1532  -25.4808   21.5334 C   0  0  1  0  0  0  0  0  0  0  0  0
  -19.9781  -23.8751   18.3069 C   0  0  2  0  0  0  0  0  0  0  0  0
  -28.9363  -24.2168   20.8454 C   0  0  2  0  0  0  0  0  0  0  0  0
  -28.2885  -24.9188   19.6510 C   0  0  1  0  0  0  0  0  0  1  0  0
  -20.5461  -25.0555   22.9002 C   0  0  0  0  0  0  0  0  0  0  0  0
  -25.8847  -12.2781   20.5245 N   0  0  0  0  0  0  0  0  0  0  0  0
  -27.5262  -19.9000   20.8116 N   0  0  0  0  0  0  0  0  0  0  0  0
  -26.2786  -12.8190   19.3590 N   0  0  0  0  0  0  0  0  0  0  0  0
  -22.5540  -27.4934   21.2002 N   0  0  0  0  0  0  0  0  0  0  0  0
  -28.5023  -15.6616   20.6070 N   0  0  0  0  0  0  0  0  0  0  0  0
  -25.8564  -12.7973   17.0283 N   0  0  0  0  0  0  0  0  0  0  0  0
  -22.8742   -9.8213   18.6551 N   0  0  0  0  0  0  0  0  0  0  0  0
  -27.0575  -17.5176   20.7811 N   0  0  0  0  0  0  0  0  0  0  0  0
  -27.4155  -22.3473   20.8807 N   0  0  0  0  0  0  0  0  0  0  0  0
  -23.3466  -30.6203   22.9004 N   0  0  0  0  0  0  0  0  0  0  0  0
  -20.3979  -25.0180   20.3742 N   0  0  0  0  0  0  0  0  0  0  0  0
  -20.6733  -23.7694   16.9929 N   0  3  0  0  0  0  0  0  0  0  0  0
  -23.6604  -10.8141   16.7433 O   0  0  0  0  0  0  0  0  0  0  0  0
  -23.3453  -28.3625   23.4705 O   0  0  0  0  0  0  0  0  0  0  0  0
  -20.2424  -27.6693   21.4490 O   0  0  0  0  0  0  0  0  0  0  0  0
  -22.1338  -23.8310   19.3970 O   0  0  0  0  0  0  0  0  0  0  0  0
  -29.7289  -21.9674   20.7212 O   0  0  0  0  0  0  0  0  0  0  0  0
  -29.3546  -17.8102   20.6422 O   0  0  0  0  0  0  0  0  0  0  0  0
  -22.2237   -8.3981   24.0017 O   0  0  0  0  0  0  0  0  0  0  0  0
  -28.4540  -26.3249   19.8297 O   0  0  0  0  0  0  0  0  0  1  0  0
  -21.3399   -3.0695   22.8930 F   0  0  0  0  0  0  0  0  0  0  0  0
  -23.2484   -6.4199   25.6386 F   0  0  0  0  0  0  0  0  0  0  0  0
  -24.2531  -18.3851   20.9820 F   0  0  0  0  0  0  0  0  0  0  0  0
  -30.2636  -24.5348   20.8713 F   0  0  0  0  0  0  0  0  0  0  0  0
  -25.1651  -20.9373   20.9904 S   0  0  0  0  0  0  0  0  0  0  0  0
  1  2  1  0  0  0  0
  1  5  2  0  0  0  0
  2  6  2  0  0  0  0
  3  8  2  0  0  0  0
  3 15  1  0  0  0  0
  4  9  1  0  0  0  0
  4 15  2  0  0  0  0
  5 17  1  0  0  0  0
  6 19  1  0  0  0  0
  7 10  2  0  0  0  0
  7 18  1  0  0  0  0
  8 21  1  0  0  0  0
  9 21  2  0  0  0  0
 10 22  1  0  0  0  0
 11 12  2  0  0  0  0
 11 23  1  0  0  0  0
 12 24  1  0  0  0  0
 13 20  1  0  0  0  0
 13 22  2  0  0  0  0
 14 24  2  0  0  0  0
 14 25  1  0  0  0  0
 15 26  1  0  0  0  0
 16 26  1  0  0  0  0
 16 28  2  0  0  0  0
 16 31  1  0  0  0  0
 17 19  2  0  0  0  0
 17 37  1  0  0  0  0
 18 20  2  0  0  0  0
 18 38  1  0  0  0  0
 19 46  1  0  0  0  0
 20 39  1  0  0  0  0
 21 78  1  0  0  0  0
 22 79  1  0  0  0  0
 23 25  2  0  0  0  0
 23 78  1  0  0  0  0
 24 80  1  0  0  0  0
 25 81  1  0  0  0  0
 26 60  2  0  0  0  0
 27 29  2  0  0  0  0
 27 61  1  0  0  0  0
 27 67  1  0  0  0  0
 28 62  1  0  0  0  0
 28 65  1  0  0  0  0
 29 82  1  0  0  0  0
 29 84  1  0  0  0  0
 30 61  2  0  0  0  0
 30 68  1  0  0  0  0
 30 84  1  0  0  0  0
 31 66  1  0  0  0  0
 31 72  2  0  0  0  0
 32 47  1  0  0  0  0
 32 69  1  0  0  0  0
 32 73  2  0  0  0  0
 33 55  1  0  0  0  0
 33 63  1  0  0  0  0
 33 74  2  0  0  0  0
 34 56  1  0  0  0  0
 34 70  1  0  0  0  0
 34 75  2  0  0  0  0
 35 57  1  0  0  0  0
 35 68  1  0  0  0  0
 35 76  2  0  0  0  0
 36 64  1  0  0  0  0
 36 67  1  0  0  0  0
 36 77  2  0  0  0  0
 37 40  1  0  0  0  0
 38 47  1  0  0  0  0
 39 63  1  0  0  0  0
 40 42  1  0  0  0  0
 41 43  1  0  0  0  0
 41 44  1  0  0  0  0
 42 46  1  0  0  0  0
 43 48  1  0  0  0  0
 44 64  1  0  0  0  0
 45 48  1  0  0  0  0
 45 64  1  0  0  0  0
 46 69  1  0  0  0  0
 47 63  1  0  0  0  0
 48 62  1  0  0  0  0
 49 56  1  0  0  0  0
 50 58  1  0  0  0  0
 51 59  1  0  0  0  0
 52 59  1  0  0  0  0
 53 59  1  0  0  0  0
 54 71  1  0  0  0  0
 55 59  1  0  0  0  0
 55 70  1  0  0  0  0
 56 71  1  0  0  0  0
 57 58  1  0  0  0  0
 57 83  1  0  0  0  0
 58 79  1  0  0  0  0
 60 62  1  0  0  0  0
M  CHG  1  71   1
M  ISO  4  36 100  58 101  67 100  79 101
M  END
> <Batch ID>
0183

> <Smiles>
CNC(C)C(=O)NC(C(=O)N1Cc2cc([101O:1][101CH:1](C)C(F)C(=O)Nc3nc([100NH:0][100C:0](=O)N4CCCC(n5nc(-c6ccc(Oc7ccc(F)cc7F)cc6)c(C(N)=O)c5N)C4)c(F)s3)ccc2CC1C(=O)NC1CCCc2ccccc21)C(C)(C)C

> <Shape>
0.290

> <Color>
0.087

> <Negative vol penalty>
0.000

$$$$

  -OEChem-04052304593D

 86 94  0     1  0  0  0  0  0999 V2000
  -26.6932  -18.6687   23.9859 C   0  0  0  0  0  0  0  0  0  0  0  0
  -28.0248  -18.5161   23.6132 C   0  0  0  0  0  0  0  0  0  0  0  0
  -23.1542   -9.8677   19.9588 C   0  0  0  0  0  0  0  0  0  0  0  0
  -23.8289   -9.9603   22.2768 C   0  0  0  0  0  0  0  0  0  0  0  0
  -25.7224  -18.9120   23.0152 C   0  0  0  0  0  0  0  0  0  0  0  0
  -28.3862  -18.6055   22.2694 C   0  0  0  0  0  0  0  0  0  0  0  0
  -32.5317  -21.4252   21.5560 C   0  0  0  0  0  0  0  0  0  0  0  0
  -22.4420   -8.6956   20.2129 C   0  0  0  0  0  0  0  0  0  0  0  0
  -23.1167   -8.7882   22.5309 C   0  0  0  0  0  0  0  0  0  0  0  0
  -33.7614  -20.8327   21.8398 C   0  0  0  0  0  0  0  0  0  0  0  0
  -23.5425   -5.4655   22.0737 C   0  0  0  0  0  0  0  0  0  0  0  0
  -24.1664   -4.4814   22.8404 C   0  0  0  0  0  0  0  0  0  0  0  0
  -34.0940  -20.4105   19.4881 C   0  0  0  0  0  0  0  0  0  0  0  0
  -22.3987   -4.6380   24.4798 C   0  0  0  0  0  0  0  0  0  0  0  0
  -31.1088  -16.6522   25.1625 C   0  0  0  0  0  0  0  0  0  0  0  0
  -23.8477  -10.5000   20.9907 C   0  0  0  0  0  0  0  0  0  0  0  0
  -24.1062  -13.0318   20.8152 C   0  0  0  0  0  0  0  0  0  0  0  0
  -26.0734  -19.0141   21.6598 C   0  0  0  0  0  0  0  0  0  0  0  0
  -32.0682  -21.5052   20.2349 C   0  0  0  0  0  0  0  0  0  0  0  0
  -27.4190  -18.8490   21.2795 C   0  0  0  0  0  0  0  0  0  0  0  0
  -32.8592  -21.0068   19.1899 C   0  0  0  0  0  0  0  0  0  0  0  0
  -22.4232   -8.1559   21.4989 C   0  0  0  0  0  0  0  0  0  0  0  0
  -34.5414  -20.3226   20.8061 C   0  0  0  0  0  0  0  0  0  0  0  0
  -22.3467   -6.0360   22.5100 C   0  0  0  0  0  0  0  0  0  0  0  0
  -23.5945   -4.0676   24.0435 C   0  0  0  0  0  0  0  0  0  0  0  0
  -21.7748   -5.6222   23.7131 C   0  0  0  0  0  0  0  0  0  0  0  0
  -32.3973  -17.0839   24.8682 C   0  0  0  0  0  0  0  0  0  0  0  0
  -30.4520  -15.7945   24.2872 C   0  0  0  0  0  0  0  0  0  0  0  0
  -24.5841  -11.7105   20.7287 C   0  0  0  0  0  0  0  0  0  0  0  0
  -32.9804  -16.6325   23.6952 C   0  0  0  0  0  0  0  0  0  0  0  0
  -31.1221  -15.4010   23.1400 C   0  0  0  0  0  0  0  0  0  0  0  0
  -25.1844  -13.8101   20.4712 C   0  0  0  0  0  0  0  0  0  0  0  0
  -22.8042  -13.5127   21.1746 C   0  0  0  0  0  0  0  0  0  0  0  0
  -29.5527  -20.3573   18.6670 C   0  0  0  0  0  0  0  0  0  0  0  0
  -30.7122  -22.1882   16.2534 C   0  0  0  0  0  0  0  0  0  0  0  0
  -35.0674  -16.7544   22.2905 C   0  0  0  0  0  0  0  0  0  0  0  0
  -33.3932  -23.7505   14.8328 C   0  0  0  0  0  0  0  0  0  0  0  0
  -30.9277  -14.0079   21.0501 C   0  0  0  0  0  0  0  0  0  0  0  0
  -24.9822  -19.2310   20.6416 C   0  0  0  0  0  0  0  0  0  0  0  0
  -30.7517  -22.1714   19.9428 C   0  0  0  0  0  0  0  0  0  0  0  0
  -32.4161  -21.0862   17.7526 C   0  0  0  0  0  0  0  0  0  0  0  0
  -25.5014  -19.6842   19.2795 C   0  0  0  0  0  0  0  0  0  0  0  0
  -29.3934  -13.0320   17.9889 C   0  0  0  0  0  0  0  0  0  0  0  0
  -26.6876  -18.8275   18.8484 C   0  0  0  0  0  0  0  0  0  0  0  0
  -27.9498  -12.7206   18.3901 C   0  0  0  0  0  0  0  0  0  0  0  0
  -30.3864  -12.6080   19.0696 C   0  0  0  0  0  0  0  0  0  0  0  0
  -28.6593  -12.8188   20.8137 C   0  0  0  0  0  0  0  0  0  0  0  0
  -27.8539  -18.9639   19.8346 C   0  0  1  0  0  0  0  0  0  0  0  0
  -30.1446  -21.7372   18.6122 C   0  0  1  0  0  0  0  0  0  0  0  0
  -27.6177  -13.2871   19.7845 C   0  0  2  0  0  0  0  0  0  0  0  0
  -34.0386  -25.1369   12.8431 C   0  0  0  0  0  0  0  0  0  0  0  0
  -30.6459  -19.6940   14.4970 C   0  0  0  0  0  0  0  0  0  0  0  0
  -32.1496  -20.8764   12.8818 C   0  0  0  0  0  0  0  0  0  0  0  0
  -29.8784  -21.7878   13.3650 C   0  0  0  0  0  0  0  0  0  0  0  0
  -34.2219  -26.0225   16.5388 C   0  0  0  0  0  0  0  0  0  0  0  0
  -36.4233  -17.4446   22.3684 C   0  0  0  0  0  0  0  0  0  0  0  0
  -36.1794  -18.7080   20.2010 C   0  0  0  0  0  0  0  0  0  1  0  0
  -31.6875  -21.9725   15.1215 C   0  0  1  0  0  0  0  0  0  0  0  0
  -33.5676  -25.1571   14.2890 C   0  0  2  0  0  0  0  0  0  0  0  0
  -37.0204  -17.7205   20.9938 C   0  0  1  0  0  0  0  0  0  0  0  0
  -31.0981  -21.0793   13.9935 C   0  0  0  0  0  0  0  0  0  0  0  0
  -25.8660  -11.6490   20.3586 N   0  0  0  0  0  0  0  0  0  0  0  0
  -32.3739  -15.7992   22.8204 N   0  0  0  0  0  0  0  0  0  0  0  0
  -26.2027  -12.9414   20.2094 N   0  0  0  0  0  0  0  0  0  0  0  0
  -31.1185  -21.7410   17.5186 N   0  0  0  0  0  0  0  0  0  0  0  0
  -30.0107  -13.1855   20.3619 N   0  0  0  0  0  0  0  0  0  0  0  0
  -25.3511  -15.1459   20.3700 N   0  0  0  0  0  0  0  0  0  0  0  0
  -21.8126  -12.5771   21.4998 N   0  0  0  0  0  0  0  0  0  0  0  0
  -34.2920  -17.0754   23.4013 N   0  0  0  0  0  0  0  0  0  0  0  0
  -30.4477  -14.5265   22.2523 N   0  0  0  0  0  0  0  0  0  0  0  0
  -28.5585  -20.2088   19.6151 N   0  0  0  0  0  0  0  0  0  0  0  0
  -32.0991  -23.3002   14.6787 N   0  0  0  0  0  0  0  0  0  0  0  0
  -34.5700  -25.9051   15.0994 N   0  3  0  0  0  0  0  0  0  0  0  0
  -22.5236  -14.7352   21.1904 O   0  0  0  0  0  0  0  0  0  0  0  0
  -29.9664  -19.4917   17.9045 O   0  0  0  0  0  0  0  0  0  0  0  0
  -29.6328  -22.7398   16.0248 O   0  0  0  0  0  0  0  0  0  0  0  0
  -34.7598  -16.0251   21.3536 O   0  0  0  0  0  0  0  0  0  0  0  0
  -34.3139  -23.1136   15.3400 O   0  0  0  0  0  0  0  0  0  0  0  0
  -32.0459  -14.2574   20.5924 O   0  0  0  0  0  0  0  0  0  0  0  0
  -21.7281   -7.0123   21.7473 O   0  0  0  0  0  0  0  0  0  0  0  0
  -35.7418  -19.7431   21.0804 O   0  0  0  0  0  0  0  0  0  1  0  0
  -24.1929   -3.1215   24.7789 F   0  0  0  0  0  0  0  0  0  0  0  0
  -20.6255   -6.1657   24.1369 F   0  0  0  0  0  0  0  0  0  0  0  0
  -33.0419  -17.9102   25.7022 F   0  0  0  0  0  0  0  0  0  0  0  0
  -29.2110  -15.3703   24.5584 F   0  0  0  0  0  0  0  0  0  0  0  0
  -38.2532  -18.2805   21.1744 F   0  0  0  0  0  0  0  0  0  0  0  0
  1  2  1  0  0  0  0
  1  5  2  0  0  0  0
  2  6  2  0  0  0  0
  3  8  2  0  0  0  0
  3 16  1  0  0  0  0
  4  9  1  0  0  0  0
  4 16  2  0  0  0  0
  5 18  1  0  0  0  0
  6 20  1  0  0  0  0
  7 10  2  0  0  0  0
  7 19  1  0  0  0  0
  8 22  1  0  0  0  0
  9 22  2  0  0  0  0
 10 23  1  0  0  0  0
 11 12  2  0  0  0  0
 11 24  1  0  0  0  0
 12 25  1  0  0  0  0
 13 21  1  0  0  0  0
 13 23  2  0  0  0  0
 14 25  2  0  0  0  0
 14 26  1  0  0  0  0
 15 27  1  0  0  0  0
 15 28  2  0  0  0  0
 16 29  1  0  0  0  0
 17 29  1  0  0  0  0
 17 32  2  0  0  0  0
 17 33  1  0  0  0  0
 18 20  2  0  0  0  0
 18 39  1  0  0  0  0
 19 21  2  0  0  0  0
 19 40  1  0  0  0  0
 20 48  1  0  0  0  0
 21 41  1  0  0  0  0
 22 80  1  0  0  0  0
 23 81  1  0  0  0  0
 24 26  2  0  0  0  0
 24 80  1  0  0  0  0
 25 82  1  0  0  0  0
 26 83  1  0  0  0  0
 27 30  2  0  0  0  0
 27 84  1  0  0  0  0
 28 31  1  0  0  0  0
 28 85  1  0  0  0  0
 29 62  2  0  0  0  0
 30 63  1  0  0  0  0
 30 69  1  0  0  0  0
 31 63  2  0  0  0  0
 31 70  1  0  0  0  0
 32 64  1  0  0  0  0
 32 67  1  0  0  0  0
 33 68  1  0  0  0  0
 33 74  2  0  0  0  0
 34 49  1  0  0  0  0
 34 71  1  0  0  0  0
 34 75  2  0  0  0  0
 35 58  1  0  0  0  0
 35 65  1  0  0  0  0
 35 76  2  0  0  0  0
 36 56  1  0  0  0  0
 36 69  1  0  0  0  0
 36 77  2  0  0  0  0
 37 59  1  0  0  0  0
 37 72  1  0  0  0  0
 37 78  2  0  0  0  0
 38 66  1  0  0  0  0
 38 70  1  0  0  0  0
 38 79  2  0  0  0  0
 39 42  1  0  0  0  0
 40 49  1  0  0  0  0
 41 65  1  0  0  0  0
 42 44  1  0  0  0  0
 43 45  1  0  0  0  0
 43 46  1  0  0  0  0
 44 48  1  0  0  0  0
 45 50  1  0  0  0  0
 46 66  1  0  0  0  0
 47 50  1  0  0  0  0
 47 66  1  0  0  0  0
 48 71  1  0  0  0  0
 49 65  1  0  0  0  0
 50 64  1  0  0  0  0
 51 59  1  0  0  0  0
 52 61  1  0  0  0  0
 53 61  1  0  0  0  0
 54 61  1  0  0  0  0
 55 73  1  0  0  0  0
 56 60  1  0  0  0  0
 57 60  1  0  0  0  0
 57 81  1  0  0  0  0
 58 61  1  0  0  0  0
 58 72  1  0  0  0  0
 59 73  1  0  0  0  0
 60 86  1  0  0  0  0
 62 64  1  0  0  0  0
M  CHG  1  73   1
M  ISO  4  38 100  57 101  70 100  81 101
M  END
> <Batch ID>
0183

> <Smiles>
CNC(C)C(=O)NC(C(=O)N1Cc2cc([101O:1][101CH2:1]C(F)CC(=O)Nc3nc([100NH:0][100C:0](=O)N4CCCC(n5nc(-c6ccc(Oc7ccc(F)cc7F)cc6)c(C(N)=O)c5N)C4)c(F)cc3F)ccc2CC1C(=O)NC1CCCc2ccccc21)C(C)(C)C

> <Shape>
0.198

> <Color>
0.184

> <Negative vol penalty>
0.000

$$$$

  -OEChem-04052304593D

 83 91  0     1  0  0  0  0  0999 V2000
  -23.4697  -23.7173   16.8847 C   0  0  0  0  0  0  0  0  0  0  0  0
  -24.4023  -22.6967   17.0321 C   0  0  0  0  0  0  0  0  0  0  0  0
  -22.2442  -28.9218   19.5194 C   0  0  0  0  0  0  0  0  0  0  0  0
  -22.5414  -27.7701   21.6223 C   0  0  0  0  0  0  0  0  0  0  0  0
  -22.3081  -23.7111   17.6539 C   0  0  0  0  0  0  0  0  0  0  0  0
  -24.1680  -21.6634   17.9400 C   0  0  0  0  0  0  0  0  0  0  0  0
  -27.3394  -17.9025   17.9130 C   0  0  0  0  0  0  0  0  0  0  0  0
  -20.8652  -28.9460   19.7275 C   0  0  0  0  0  0  0  0  0  0  0  0
  -21.1624  -27.7944   21.8305 C   0  0  0  0  0  0  0  0  0  0  0  0
  -28.6404  -18.0101   18.4026 C   0  0  0  0  0  0  0  0  0  0  0  0
  -18.8401  -30.0205   22.8658 C   0  0  0  0  0  0  0  0  0  0  0  0
  -18.3838  -30.3842   24.1327 C   0  0  0  0  0  0  0  0  0  0  0  0
  -27.9800  -16.8295   20.3999 C   0  0  0  0  0  0  0  0  0  0  0  0
  -17.2959  -28.2386   24.3567 C   0  0  0  0  0  0  0  0  0  0  0  0
  -23.0823  -28.3337   20.4668 C   0  0  0  0  0  0  0  0  0  0  0  0
  -25.4446  -29.2789   20.6516 C   0  0  0  0  0  0  0  0  0  0  0  0
  -22.0660  -22.6835   18.5804 C   0  0  0  0  0  0  0  0  0  0  0  0
  -26.3447  -17.2661   18.6693 C   0  0  0  0  0  0  0  0  0  0  0  0
  -22.9903  -21.6267   18.7083 C   0  0  0  0  0  0  0  0  0  0  0  0
  -26.6678  -16.7129   19.9166 C   0  0  0  0  0  0  0  0  0  0  0  0
  -20.3243  -28.3824   20.8831 C   0  0  0  0  0  0  0  0  0  0  0  0
  -28.9602  -17.4761   19.6474 C   0  0  0  0  0  0  0  0  0  0  0  0
  -18.5243  -28.7659   22.3443 C   0  0  0  0  0  0  0  0  0  0  0  0
  -17.6117  -29.4932   24.8782 C   0  0  0  0  0  0  0  0  0  0  0  0
  -17.7522  -27.8750   23.0898 C   0  0  0  0  0  0  0  0  0  0  0  0
  -24.5069  -28.3078   20.2521 C   0  0  0  0  0  0  0  0  0  0  0  0
  -30.2184  -20.6230   22.1994 C   0  0  0  0  0  0  0  0  0  0  0  0
  -26.6517  -28.7907   20.2146 C   0  0  0  0  0  0  0  0  0  0  0  0
  -29.5361  -21.0152   23.3320 C   0  0  0  0  0  0  0  0  0  0  0  0
  -28.9973  -22.2151   21.3139 C   0  0  0  0  0  0  0  0  0  0  0  0
  -25.2425  -30.5119   21.3549 C   0  0  0  0  0  0  0  0  0  0  0  0
  -31.2243  -19.5450   22.1628 C   0  0  0  0  0  0  0  0  0  0  0  0
  -23.5862  -18.1722   19.9628 C   0  0  0  0  0  0  0  0  0  0  0  0
  -23.3218  -15.0146   20.6569 C   0  0  0  0  0  0  0  0  0  0  0  0
  -24.8794  -12.0259   21.1941 C   0  0  0  0  0  0  0  0  0  0  0  0
  -28.6485  -23.2790   19.0572 C   0  0  0  0  0  0  0  0  0  0  0  0
  -20.7886  -22.7222   19.3815 C   0  0  0  0  0  0  0  0  0  0  0  0
  -24.9524  -17.1348   18.1154 C   0  0  0  0  0  0  0  0  0  0  0  0
  -25.6412  -16.0020   20.7588 C   0  0  0  0  0  0  0  0  0  0  0  0
  -20.8378  -21.8362   20.6221 C   0  0  0  0  0  0  0  0  0  0  0  0
  -28.5593  -26.0296   16.7982 C   0  0  0  0  0  0  0  0  0  0  0  0
  -21.3360  -20.4478   20.2498 C   0  0  0  0  0  0  0  0  0  0  0  0
  -27.6000  -27.0170   17.4668 C   0  0  0  0  0  0  0  0  0  0  0  0
  -28.1200  -24.5816   17.0081 C   0  0  0  0  0  0  0  0  0  0  0  0
  -26.9251  -25.1882   19.0753 C   0  0  0  0  0  0  0  0  0  0  0  0
  -22.7711  -20.5087   19.7115 C   0  0  1  0  0  0  0  0  0  0  0  0
  -23.8975  -16.9182   19.1959 C   0  0  1  0  0  0  0  0  0  0  0  0
  -27.3615  -26.6568   18.9463 C   0  0  2  0  0  0  0  0  0  0  0  0
  -24.4019   -9.6327   21.7787 C   0  0  0  0  0  0  0  0  0  0  0  0
  -32.7057  -20.4290   20.3709 C   0  0  0  0  0  0  0  0  0  0  0  0
  -32.9552  -18.0626   21.1365 C   0  0  0  0  0  0  0  0  0  0  0  0
  -22.8521  -15.8205   23.5620 C   0  0  0  0  0  0  0  0  0  0  0  0
  -23.3296  -13.4533   24.2230 C   0  0  0  0  0  0  0  0  0  0  0  0
  -21.3873  -13.9658   22.7440 C   0  0  0  0  0  0  0  0  0  0  0  0
  -26.0377  -11.0523   18.6506 C   0  0  0  0  0  0  0  0  0  0  0  0
  -30.9864  -18.7191   19.7204 C   0  0  0  0  0  0  0  0  0  1  0  0
  -23.7321  -14.1363   21.8141 C   0  0  1  0  0  0  0  0  0  0  0  0
  -24.6038  -10.6347   20.6527 C   0  0  2  0  0  0  0  0  0  0  0  0
  -31.9378  -19.1760   20.8441 C   0  0  0  0  0  0  0  0  0  0  0  0
  -22.8444  -14.3590   23.0710 C   0  0  0  0  0  0  0  0  0  0  0  0
  -25.0699  -27.2806   19.6105 N   0  0  0  0  0  0  0  0  0  0  0  0
  -29.9105  -21.3097   21.0412 N   0  0  0  0  0  0  0  0  0  0  0  0
  -26.3745  -27.6034   19.6034 N   0  0  0  0  0  0  0  0  0  0  0  0
  -24.2925  -15.9049   20.1765 N   0  0  0  0  0  0  0  0  0  0  0  0
  -27.9174  -24.3120   18.4332 N   0  0  0  0  0  0  0  0  0  0  0  0
  -27.9127  -29.2656   20.2973 N   0  0  0  0  0  0  0  0  0  0  0  0
  -29.6393  -20.5183   24.5891 N   0  0  0  0  0  0  0  0  0  0  0  0
  -23.9380  -30.8612   21.7297 N   0  0  0  0  0  0  0  0  0  0  0  0
  -28.3964  -23.1370   20.4213 N   0  0  0  0  0  0  0  0  0  0  0  0
  -23.1303  -19.2136   19.1772 N   0  0  0  0  0  0  0  0  0  0  0  0
  -23.7225  -12.7670   21.3108 N   0  0  0  0  0  0  0  0  0  0  0  0
  -25.7426  -10.1718   19.8102 N   0  3  0  0  0  0  0  0  0  0  0  0
  -26.1886  -31.2889   21.6280 O   0  0  0  0  0  0  0  0  0  0  0  0
  -31.4421  -18.9588   23.2229 O   0  0  0  0  0  0  0  0  0  0  0  0
  -23.7462  -18.1930   21.1776 O   0  0  0  0  0  0  0  0  0  0  0  0
  -22.1842  -14.9093   20.1914 O   0  0  0  0  0  0  0  0  0  0  0  0
  -26.0076  -12.4150   21.4878 O   0  0  0  0  0  0  0  0  0  0  0  0
  -29.4601  -22.5903   18.4336 O   0  0  0  0  0  0  0  0  0  0  0  0
  -18.9787  -28.4061   21.0867 O   0  0  0  0  0  0  0  0  0  0  0  0
  -30.2291  -17.5804   20.1279 O   0  0  0  0  0  0  0  0  0  1  0  0
  -17.1749  -29.8420   26.0955 F   0  0  0  0  0  0  0  0  0  0  0  0
  -17.4465  -26.6679   22.5945 F   0  0  0  0  0  0  0  0  0  0  0  0
  -28.4642  -22.2963   22.9431 S   0  0  0  0  0  0  0  0  0  0  0  0
  1  2  1  0  0  0  0
  1  5  2  0  0  0  0
  2  6  2  0  0  0  0
  3  8  2  0  0  0  0
  3 15  1  0  0  0  0
  4  9  1  0  0  0  0
  4 15  2  0  0  0  0
  5 17  1  0  0  0  0
  6 19  1  0  0  0  0
  7 10  2  0  0  0  0
  7 18  1  0  0  0  0
  8 21  1  0  0  0  0
  9 21  2  0  0  0  0
 10 22  1  0  0  0  0
 11 12  2  0  0  0  0
 11 23  1  0  0  0  0
 12 24  1  0  0  0  0
 13 20  1  0  0  0  0
 13 22  2  0  0  0  0
 14 24  2  0  0  0  0
 14 25  1  0  0  0  0
 15 26  1  0  0  0  0
 16 26  1  0  0  0  0
 16 28  2  0  0  0  0
 16 31  1  0  0  0  0
 17 19  2  0  0  0  0
 17 37  1  0  0  0  0
 18 20  2  0  0  0  0
 18 38  1  0  0  0  0
 19 46  1  0  0  0  0
 20 39  1  0  0  0  0
 21 79  1  0  0  0  0
 22 80  1  0  0  0  0
 23 25  2  0  0  0  0
 23 79  1  0  0  0  0
 24 81  1  0  0  0  0
 25 82  1  0  0  0  0
 26 61  2  0  0  0  0
 27 29  2  0  0  0  0
 27 32  1  0  0  0  0
 27 62  1  0  0  0  0
 28 63  1  0  0  0  0
 28 66  1  0  0  0  0
 29 67  1  0  0  0  0
 29 83  1  0  0  0  0
 30 62  2  0  0  0  0
 30 69  1  0  0  0  0
 30 83  1  0  0  0  0
 31 68  1  0  0  0  0
 31 73  2  0  0  0  0
 32 59  1  0  0  0  0
 32 74  2  0  0  0  0
 33 47  1  0  0  0  0
 33 70  1  0  0  0  0
 33 75  2  0  0  0  0
 34 57  1  0  0  0  0
 34 64  1  0  0  0  0
 34 76  2  0  0  0  0
 35 58  1  0  0  0  0
 35 71  1  0  0  0  0
 35 77  2  0  0  0  0
 36 65  1  0  0  0  0
 36 69  1  0  0  0  0
 36 78  2  0  0  0  0
 37 40  1  0  0  0  0
 38 47  1  0  0  0  0
 39 64  1  0  0  0  0
 40 42  1  0  0  0  0
 41 43  1  0  0  0  0
 41 44  1  0  0  0  0
 42 46  1  0  0  0  0
 43 48  1  0  0  0  0
 44 65  1  0  0  0  0
 45 48  1  0  0  0  0
 45 65  1  0  0  0  0
 46 70  1  0  0  0  0
 47 64  1  0  0  0  0
 48 63  1  0  0  0  0
 49 58  1  0  0  0  0
 50 59  1  0  0  0  0
 51 59  1  0  0  0  0
 52 60  1  0  0  0  0
 53 60  1  0  0  0  0
 54 60  1  0  0  0  0
 55 72  1  0  0  0  0
 56 59  1  0  0  0  0
 56 80  1  0  0  0  0
 57 60  1  0  0  0  0
 57 71  1  0  0  0  0
 58 72  1  0  0  0  0
 61 63  1  0  0  0  0
M  CHG  1  72   1
M  ISO  4  36 100  56 101  69 100  80 101
M  END
> <Batch ID>
0183

> <Smiles>
CNC(C)C(=O)NC(C(=O)N1Cc2cc([101O:1][101CH2:1]C(C)(C)C(=O)c3nc([100NH:0][100C:0](=O)N4CCCC(n5nc(-c6ccc(Oc7ccc(F)cc7F)cc6)c(C(N)=O)c5N)C4)sc3N)ccc2CC1C(=O)NC1CCCc2ccccc21)C(C)(C)C

> <Shape>
0.228

> <Color>
0.078

> <Negative vol penalty>
0.000

$$$$

  -OEChem-04052304593D

 84 92  0     1  0  0  0  0  0999 V2000
  -29.9012  -34.1811   25.3056 C   0  0  0  0  0  0  0  0  0  0  0  0
  -29.9486  -33.3867   24.1645 C   0  0  0  0  0  0  0  0  0  0  0  0
  -24.0198   -9.6666   21.8102 C   0  0  0  0  0  0  0  0  0  0  0  0
  -21.9619  -10.6278   20.9866 C   0  0  0  0  0  0  0  0  0  0  0  0
  -29.1141  -33.7955   26.3899 C   0  0  0  0  0  0  0  0  0  0  0  0
  -29.2096  -32.2056   24.1075 C   0  0  0  0  0  0  0  0  0  0  0  0
  -26.5002  -29.7926   19.1736 C   0  0  0  0  0  0  0  0  0  0  0  0
  -23.4469   -8.3959   21.7587 C   0  0  0  0  0  0  0  0  0  0  0  0
  -21.3890   -9.3570   20.9350 C   0  0  0  0  0  0  0  0  0  0  0  0
  -26.8846  -28.7836   18.2917 C   0  0  0  0  0  0  0  0  0  0  0  0
  -22.4066   -4.9375   22.1848 C   0  0  0  0  0  0  0  0  0  0  0  0
  -22.6000   -4.0925   23.2775 C   0  0  0  0  0  0  0  0  0  0  0  0
  -25.5880  -27.1913   19.5576 C   0  0  0  0  0  0  0  0  0  0  0  0
  -21.5083   -5.6997   24.7136 C   0  0  0  0  0  0  0  0  0  0  0  0
  -23.2773  -10.7826   21.4242 C   0  0  0  0  0  0  0  0  0  0  0  0
  -24.5824  -12.7487   20.4554 C   0  0  0  0  0  0  0  0  0  0  0  0
  -28.3576  -32.6140   26.3424 C   0  0  0  0  0  0  0  0  0  0  0  0
  -25.6641  -29.5059   20.2623 C   0  0  0  0  0  0  0  0  0  0  0  0
  -28.4126  -31.8031   25.1927 C   0  0  0  0  0  0  0  0  0  0  0  0
  -25.1923  -28.1990   20.4505 C   0  0  0  0  0  0  0  0  0  0  0  0
  -22.1315   -8.2411   21.3211 C   0  0  0  0  0  0  0  0  0  0  0  0
  -26.4309  -27.4821   18.4853 C   0  0  0  0  0  0  0  0  0  0  0  0
  -21.7642   -6.1637   22.3564 C   0  0  0  0  0  0  0  0  0  0  0  0
  -22.1508   -4.4735   24.5419 C   0  0  0  0  0  0  0  0  0  0  0  0
  -21.3150   -6.5448   23.6208 C   0  0  0  0  0  0  0  0  0  0  0  0
  -23.8683  -12.0955   21.4778 C   0  0  0  0  0  0  0  0  0  0  0  0
  -24.0571  -21.9464   20.4216 C   0  0  0  0  0  0  0  0  0  0  0  0
  -24.1250  -22.3198   21.7475 C   0  0  0  0  0  0  0  0  0  0  0  0
  -24.9298  -13.9609   20.9997 C   0  0  0  0  0  0  0  0  0  0  0  0
  -23.8536  -20.1615   22.0263 C   0  0  0  0  0  0  0  0  0  0  0  0
  -24.9029  -12.2998   19.1320 C   0  0  0  0  0  0  0  0  0  0  0  0
  -24.1534  -22.8471   19.2546 C   0  0  0  0  0  0  0  0  0  0  0  0
  -25.9547  -29.6870   23.4225 C   0  0  0  0  0  0  0  0  0  0  0  0
  -22.8135  -28.8795   23.3671 C   0  0  0  0  0  0  0  0  0  0  0  0
  -20.2293  -27.4085   21.6923 C   0  0  0  0  0  0  0  0  0  0  0  0
  -25.5550  -24.4958   18.0325 C   0  0  0  0  0  0  0  0  0  0  0  0
  -23.6708  -18.5239   23.9319 C   0  0  0  0  0  0  0  0  0  0  0  0
  -27.5585  -32.2143   27.5575 C   0  0  0  0  0  0  0  0  0  0  0  0
  -25.2369  -30.6108   21.1892 C   0  0  0  0  0  0  0  0  0  0  0  0
  -24.2766  -27.8431   21.5921 C   0  0  0  0  0  0  0  0  0  0  0  0
  -26.5127  -31.1395   27.2722 C   0  0  0  0  0  0  0  0  0  0  0  0
  -24.6447  -15.6335   25.7687 C   0  0  0  0  0  0  0  0  0  0  0  0
  -27.1186  -30.0119   26.4427 C   0  0  0  0  0  0  0  0  0  0  0  0
  -24.5883  -14.5091   24.7320 C   0  0  0  0  0  0  0  0  0  0  0  0
  -23.5262  -16.6530   25.5610 C   0  0  0  0  0  0  0  0  0  0  0  0
  -23.3808  -16.0850   23.1682 C   0  0  0  0  0  0  0  0  0  0  0  0
  -27.6059  -30.5275   25.0832 C   0  0  1  0  0  0  0  0  0  0  0  0
  -24.7976  -30.1047   22.5597 C   0  0  1  0  0  0  0  0  0  0  0  0
  -24.5268  -15.0682   23.2970 C   0  0  2  0  0  0  0  0  0  0  0  0
  -17.7889  -26.8691   21.9175 C   0  0  0  0  0  0  0  0  0  0  0  0
  -27.9606  -24.4198   17.3733 C   0  0  0  0  0  0  0  0  0  0  0  0
  -23.4971  -26.5908   25.2656 C   0  0  0  0  0  0  0  0  0  0  0  0
  -21.2875  -25.5567   24.7030 C   0  0  0  0  0  0  0  0  0  0  0  0
  -21.3715  -27.7934   25.8042 C   0  0  0  0  0  0  0  0  0  0  0  0
  -19.5297  -29.0501   19.3312 C   0  0  0  0  0  0  0  0  0  0  0  0
  -22.0430  -27.5813   23.3760 C   0  0  1  0  0  0  0  0  0  0  0  0
  -18.8119  -27.8764   21.4159 C   0  0  2  0  0  0  0  0  0  0  0  0
  -26.9015  -25.1742   18.1571 C   0  0  1  0  0  0  0  0  0  1  0  0
  -22.0686  -26.8866   24.7667 C   0  0  0  0  0  0  0  0  0  0  0  0
  -23.7674  -12.8318   22.5877 N   0  0  0  0  0  0  0  0  0  0  0  0
  -24.0081  -21.2977   22.6691 N   0  0  0  0  0  0  0  0  0  0  0  0
  -24.4227  -13.9601   22.2658 N   0  0  0  0  0  0  0  0  0  0  0  0
  -23.8922  -28.9569   22.4748 N   0  0  0  0  0  0  0  0  0  0  0  0
  -23.5321  -17.1420   24.1805 N   0  0  0  0  0  0  0  0  0  0  0  0
  -24.2946  -23.5968   22.1680 N   0  0  0  0  0  0  0  0  0  0  0  0
  -25.6165  -15.0168   20.5140 N   0  0  0  0  0  0  0  0  0  0  0  0
  -24.4688  -11.0279   18.7344 N   0  0  0  0  0  0  0  0  0  0  0  0
  -23.6957  -18.8670   22.5805 N   0  0  0  0  0  0  0  0  0  0  0  0
  -25.2743  -23.5657   19.1024 N   0  0  0  0  0  0  0  0  0  0  0  0
  -26.4884  -30.7106   24.1821 N   0  0  0  0  0  0  0  0  0  0  0  0
  -20.7041  -27.8979   22.8907 N   0  0  0  0  0  0  0  0  0  0  0  0
  -23.1159  -22.8932   18.4194 N   0  3  0  0  0  0  0  0  0  0  0  0
  -18.6054  -28.0668   19.9523 N   0  3  0  0  0  0  0  0  0  0  0  0
  -25.5691  -12.9991   18.3315 O   0  0  0  0  0  0  0  0  0  0  0  0
  -26.3342  -28.5220   23.4017 O   0  0  0  0  0  0  0  0  0  0  0  0
  -22.4665  -29.7939   24.1189 O   0  0  0  0  0  0  0  0  0  0  0  0
  -20.8516  -26.6787   20.9238 O   0  0  0  0  0  0  0  0  0  0  0  0
  -24.7463  -24.7067   17.1393 O   0  0  0  0  0  0  0  0  0  0  0  0
  -23.7882  -19.3398   24.8497 O   0  0  0  0  0  0  0  0  0  0  0  0
  -21.5723   -7.0012   21.2704 O   0  0  0  0  0  0  0  0  0  0  0  0
  -26.8051  -26.4953   17.6263 O   0  0  0  0  0  0  0  0  0  1  0  0
  -22.3352   -3.6613   25.5909 F   0  0  0  0  0  0  0  0  0  0  0  0
  -20.6961   -7.7210   23.7917 F   0  0  0  0  0  0  0  0  0  0  0  0
  -23.8401  -20.2487   20.3124 S   0  0  0  0  0  0  0  0  0  0  0  0
  1  2  1  0  0  0  0
  1  5  2  0  0  0  0
  2  6  2  0  0  0  0
  3  8  2  0  0  0  0
  3 15  1  0  0  0  0
  4  9  1  0  0  0  0
  4 15  2  0  0  0  0
  5 17  1  0  0  0  0
  6 19  1  0  0  0  0
  7 10  2  0  0  0  0
  7 18  1  0  0  0  0
  8 21  1  0  0  0  0
  9 21  2  0  0  0  0
 10 22  1  0  0  0  0
 11 12  2  0  0  0  0
 11 23  1  0  0  0  0
 12 24  1  0  0  0  0
 13 20  1  0  0  0  0
 13 22  2  0  0  0  0
 14 24  2  0  0  0  0
 14 25  1  0  0  0  0
 15 26  1  0  0  0  0
 16 26  1  0  0  0  0
 16 29  2  0  0  0  0
 16 31  1  0  0  0  0
 17 19  2  0  0  0  0
 17 38  1  0  0  0  0
 18 20  2  0  0  0  0
 18 39  1  0  0  0  0
 19 47  1  0  0  0  0
 20 40  1  0  0  0  0
 21 80  1  0  0  0  0
 22 81  1  0  0  0  0
 23 25  2  0  0  0  0
 23 80  1  0  0  0  0
 24 82  1  0  0  0  0
 25 83  1  0  0  0  0
 26 60  2  0  0  0  0
 27 28  2  0  0  0  0
 27 32  1  0  0  0  0
 27 84  1  0  0  0  0
 28 61  1  0  0  0  0
 28 65  1  0  0  0  0
 29 62  1  0  0  0  0
 29 66  1  0  0  0  0
 30 61  2  0  0  0  0
 30 68  1  0  0  0  0
 30 84  1  0  0  0  0
 31 67  1  0  0  0  0
 31 74  2  0  0  0  0
 32 69  1  0  0  0  0
 32 72  2  0  0  0  0
 33 48  1  0  0  0  0
 33 70  1  0  0  0  0
 33 75  2  0  0  0  0
 34 56  1  0  0  0  0
 34 63  1  0  0  0  0
 34 76  2  0  0  0  0
 35 57  1  0  0  0  0
 35 71  1  0  0  0  0
 35 77  2  0  0  0  0
 36 58  1  0  0  0  0
 36 69  1  0  0  0  0
 36 78  2  0  0  0  0
 37 64  1  0  0  0  0
 37 68  1  0  0  0  0
 37 79  2  0  0  0  0
 38 41  1  0  0  0  0
 39 48  1  0  0  0  0
 40 63  1  0  0  0  0
 41 43  1  0  0  0  0
 42 44  1  0  0  0  0
 42 45  1  0  0  0  0
 43 47  1  0  0  0  0
 44 49  1  0  0  0  0
 45 64  1  0  0  0  0
 46 49  1  0  0  0  0
 46 64  1  0  0  0  0
 47 70  1  0  0  0  0
 48 63  1  0  0  0  0
 49 62  1  0  0  0  0
 50 57  1  0  0  0  0
 51 58  1  0  0  0  0
 52 59  1  0  0  0  0
 53 59  1  0  0  0  0
 54 59  1  0  0  0  0
 55 73  1  0  0  0  0
 56 59  1  0  0  0  0
 56 71  1  0  0  0  0
 57 73  1  0  0  0  0
 58 81  1  0  0  0  0
 60 62  1  0  0  0  0
M  CHG  2  72   1  73   1
M  ISO  4  37 100  58 101  68 100  81 101
M  END
> <Batch ID>
0183

> <Smiles>
CNC(C)C(=O)NC(C(=O)N1Cc2cc([101O:1][101CH:1](C)C(=O)NC(=N)c3sc([100NH:0][100C:0](=O)N4CCCC(n5nc(-c6ccc(Oc7ccc(F)cc7F)cc6)c(C(N)=O)c5N)C4)nc3N)ccc2CC1C(=O)NC1CCCc2ccccc21)C(C)(C)C

> <Shape>
0.238

> <Color>
0.102

> <Negative vol penalty>
0.000

$$$$

  -OEChem-04052304593D

 84 92  0     1  0  0  0  0  0999 V2000
  -33.4030  -12.8009   23.2257 C   0  0  0  0  0  0  0  0  0  0  0  0
  -32.8042  -13.9158   22.6480 C   0  0  0  0  0  0  0  0  0  0  0  0
  -18.8887  -29.8771   23.9536 C   0  0  0  0  0  0  0  0  0  0  0  0
  -19.2936  -27.7581   22.8659 C   0  0  0  0  0  0  0  0  0  0  0  0
  -32.8138  -11.5448   23.0883 C   0  0  0  0  0  0  0  0  0  0  0  0
  -31.6162  -13.7751   21.9316 C   0  0  0  0  0  0  0  0  0  0  0  0
  -27.0043  -17.7927   21.6244 C   0  0  0  0  0  0  0  0  0  0  0  0
  -17.6296  -29.9428   23.3570 C   0  0  0  0  0  0  0  0  0  0  0  0
  -18.0344  -27.8237   22.2694 C   0  0  0  0  0  0  0  0  0  0  0  0
  -26.6576  -18.7519   20.6739 C   0  0  0  0  0  0  0  0  0  0  0  0
  -14.8243  -27.2601   23.1626 C   0  0  0  0  0  0  0  0  0  0  0  0
  -14.0403  -26.1065   23.1785 C   0  0  0  0  0  0  0  0  0  0  0  0
  -25.1223  -17.1884   19.6651 C   0  0  0  0  0  0  0  0  0  0  0  0
  -13.9975  -26.1024   20.7628 C   0  0  0  0  0  0  0  0  0  0  0  0
  -19.7207  -28.7848   23.7080 C   0  0  0  0  0  0  0  0  0  0  0  0
  -21.3449  -28.1401   25.5665 C   0  0  0  0  0  0  0  0  0  0  0  0
  -31.6129  -11.3901   22.3780 C   0  0  0  0  0  0  0  0  0  0  0  0
  -26.4196  -16.5185   21.5959 C   0  0  0  0  0  0  0  0  0  0  0  0
  -31.0111  -12.5156   21.7833 C   0  0  0  0  0  0  0  0  0  0  0  0
  -25.4614  -16.2158   20.6180 C   0  0  0  0  0  0  0  0  0  0  0  0
  -17.2024  -28.9161   22.5149 C   0  0  0  0  0  0  0  0  0  0  0  0
  -25.7186  -18.4489   19.6923 C   0  0  0  0  0  0  0  0  0  0  0  0
  -15.1948  -27.8349   21.9469 C   0  0  0  0  0  0  0  0  0  0  0  0
  -13.6270  -25.5276   21.9786 C   0  0  0  0  0  0  0  0  0  0  0  0
  -14.7814  -27.2560   20.7470 C   0  0  0  0  0  0  0  0  0  0  0  0
  -21.0217  -28.7166   24.3235 C   0  0  0  0  0  0  0  0  0  0  0  0
  -28.1439  -24.7211   19.7088 C   0  0  0  0  0  0  0  0  0  0  0  0
  -29.1143  -25.7001   19.7533 C   0  0  0  0  0  0  0  0  0  0  0  0
  -22.6989  -28.3331   25.6928 C   0  0  0  0  0  0  0  0  0  0  0  0
  -27.4872  -26.8042   20.7245 C   0  0  0  0  0  0  0  0  0  0  0  0
  -20.4971  -27.4884   26.5216 C   0  0  0  0  0  0  0  0  0  0  0  0
  -28.1864  -23.3383   19.1684 C   0  0  0  0  0  0  0  0  0  0  0  0
  -27.5116  -13.5575   21.2165 C   0  0  0  0  0  0  0  0  0  0  0  0
  -24.4413  -12.7558   21.8894 C   0  0  0  0  0  0  0  0  0  0  0  0
  -21.1531  -13.6678   21.9389 C   0  0  0  0  0  0  0  0  0  0  0  0
  -26.8483  -21.2836   18.8720 C   0  0  0  0  0  0  0  0  0  0  0  0
  -27.1028  -29.0843   21.7246 C   0  0  0  0  0  0  0  0  0  0  0  0
  -31.0384  -10.0050   22.2162 C   0  0  0  0  0  0  0  0  0  0  0  0
  -26.7846  -15.5038   22.6445 C   0  0  0  0  0  0  0  0  0  0  0  0
  -24.7895  -14.8692   20.5561 C   0  0  0  0  0  0  0  0  0  0  0  0
  -29.5820   -9.9992   21.7590 C   0  0  0  0  0  0  0  0  0  0  0  0
  -26.1982  -31.3137   24.3492 C   0  0  0  0  0  0  0  0  0  0  0  0
  -29.3828  -10.9692   20.5987 C   0  0  0  0  0  0  0  0  0  0  0  0
  -24.8000  -30.8444   24.7577 C   0  0  0  0  0  0  0  0  0  0  0  0
  -26.4183  -31.1956   22.8421 C   0  0  0  0  0  0  0  0  0  0  0  0
  -24.7375  -29.4014   22.6839 C   0  0  0  0  0  0  0  0  0  0  0  0
  -29.7091  -12.4072   21.0196 C   0  0  1  0  0  0  0  0  0  0  0  0
  -26.5063  -14.0683   22.2095 C   0  0  1  0  0  0  0  0  0  0  0  0
  -24.4917  -29.4406   24.2010 C   0  0  2  0  0  0  0  0  0  0  0  0
  -18.8726  -12.7865   22.5047 C   0  0  0  0  0  0  0  0  0  0  0  0
  -24.3976  -21.5281   18.3869 C   0  0  0  0  0  0  0  0  0  0  0  0
  -24.4318  -11.1297   19.3076 C   0  0  0  0  0  0  0  0  0  0  0  0
  -21.9321  -11.0720   19.4352 C   0  0  0  0  0  0  0  0  0  0  0  0
  -23.2959  -10.0233   21.2415 C   0  0  0  0  0  0  0  0  0  0  0  0
  -20.7404  -15.7381   24.0131 C   0  0  0  0  0  0  0  0  0  0  0  0
  -23.1885  -12.5437   21.0742 C   0  0  1  0  0  0  0  0  0  0  0  0
  -20.0892  -13.5432   23.0146 C   0  0  2  0  0  0  0  0  0  0  0  0
  -25.4510  -20.7515   19.1609 C   0  0  1  0  0  0  0  0  0  1  0  0
  -23.2260  -11.2170   20.2644 C   0  0  0  0  0  0  0  0  0  0  0  0
  -22.0847  -29.2369   23.7045 N   0  0  0  0  0  0  0  0  0  0  0  0
  -28.7394  -26.8954   20.3350 N   0  0  0  0  0  0  0  0  0  0  0  0
  -23.0891  -28.9882   24.5620 N   0  0  0  0  0  0  0  0  0  0  0  0
  -25.1846  -13.9087   21.5997 N   0  0  0  0  0  0  0  0  0  0  0  0
  -26.1108  -29.8379   22.3869 N   0  0  0  0  0  0  0  0  0  0  0  0
  -30.3697  -25.5412   19.2697 N   0  0  0  0  0  0  0  0  0  0  0  0
  -23.5819  -28.0046   26.6597 N   0  0  0  0  0  0  0  0  0  0  0  0
  -19.1300  -27.3757   26.2340 N   0  0  0  0  0  0  0  0  0  0  0  0
  -26.7058  -27.7960   21.3677 N   0  0  0  0  0  0  0  0  0  0  0  0
  -27.0062  -22.6066   19.2889 N   0  0  0  0  0  0  0  0  0  0  0  0
  -28.6207  -12.9672   21.7918 N   0  0  0  0  0  0  0  0  0  0  0  0
  -22.0722  -12.6423   22.0082 N   0  0  0  0  0  0  0  0  0  0  0  0
  -19.6479  -14.8933   23.4656 N   0  3  0  0  0  0  0  0  0  0  0  0
  -20.9359  -27.0345   27.6055 O   0  0  0  0  0  0  0  0  0  0  0  0
  -29.2333  -22.9179   18.6835 O   0  0  0  0  0  0  0  0  0  0  0  0
  -27.2963  -13.6878   20.0172 O   0  0  0  0  0  0  0  0  0  0  0  0
  -24.7452  -11.9326   22.7564 O   0  0  0  0  0  0  0  0  0  0  0  0
  -21.1652  -14.5814   21.1167 O   0  0  0  0  0  0  0  0  0  0  0  0
  -27.7207  -20.5947   18.3482 O   0  0  0  0  0  0  0  0  0  0  0  0
  -28.2308  -29.5379   21.5154 O   0  0  0  0  0  0  0  0  0  0  0  0
  -15.9738  -28.9797   21.9328 O   0  0  0  0  0  0  0  0  0  0  0  0
  -25.3789  -19.3830   18.7628 O   0  0  0  0  0  0  0  0  0  1  0  0
  -12.8755  -24.4189   21.9940 F   0  0  0  0  0  0  0  0  0  0  0  0
  -15.1352  -27.8030   19.5759 F   0  0  0  0  0  0  0  0  0  0  0  0
  -26.7000  -25.3094   20.4232 S   0  0  0  0  0  0  0  0  0  0  0  0
  1  2  1  0  0  0  0
  1  5  2  0  0  0  0
  2  6  2  0  0  0  0
  3  8  2  0  0  0  0
  3 15  1  0  0  0  0
  4  9  1  0  0  0  0
  4 15  2  0  0  0  0
  5 17  1  0  0  0  0
  6 19  1  0  0  0  0
  7 10  2  0  0  0  0
  7 18  1  0  0  0  0
  8 21  1  0  0  0  0
  9 21  2  0  0  0  0
 10 22  1  0  0  0  0
 11 12  2  0  0  0  0
 11 23  1  0  0  0  0
 12 24  1  0  0  0  0
 13 20  1  0  0  0  0
 13 22  2  0  0  0  0
 14 24  2  0  0  0  0
 14 25  1  0  0  0  0
 15 26  1  0  0  0  0
 16 26  1  0  0  0  0
 16 29  2  0  0  0  0
 16 31  1  0  0  0  0
 17 19  2  0  0  0  0
 17 38  1  0  0  0  0
 18 20  2  0  0  0  0
 18 39  1  0  0  0  0
 19 47  1  0  0  0  0
 20 40  1  0  0  0  0
 21 80  1  0  0  0  0
 22 81  1  0  0  0  0
 23 25  2  0  0  0  0
 23 80  1  0  0  0  0
 24 82  1  0  0  0  0
 25 83  1  0  0  0  0
 26 60  2  0  0  0  0
 27 28  2  0  0  0  0
 27 32  1  0  0  0  0
 27 84  1  0  0  0  0
 28 61  1  0  0  0  0
 28 65  1  0  0  0  0
 29 62  1  0  0  0  0
 29 66  1  0  0  0  0
 30 61  2  0  0  0  0
 30 68  1  0  0  0  0
 30 84  1  0  0  0  0
 31 67  1  0  0  0  0
 31 73  2  0  0  0  0
 32 69  1  0  0  0  0
 32 74  2  0  0  0  0
 33 48  1  0  0  0  0
 33 70  1  0  0  0  0
 33 75  2  0  0  0  0
 34 56  1  0  0  0  0
 34 63  1  0  0  0  0
 34 76  2  0  0  0  0
 35 57  1  0  0  0  0
 35 71  1  0  0  0  0
 35 77  2  0  0  0  0
 36 58  1  0  0  0  0
 36 69  1  0  0  0  0
 36 78  2  0  0  0  0
 37 64  1  0  0  0  0
 37 68  1  0  0  0  0
 37 79  2  0  0  0  0
 38 41  1  0  0  0  0
 39 48  1  0  0  0  0
 40 63  1  0  0  0  0
 41 43  1  0  0  0  0
 42 44  1  0  0  0  0
 42 45  1  0  0  0  0
 43 47  1  0  0  0  0
 44 49  1  0  0  0  0
 45 64  1  0  0  0  0
 46 49  1  0  0  0  0
 46 64  1  0  0  0  0
 47 70  1  0  0  0  0
 48 63  1  0  0  0  0
 49 62  1  0  0  0  0
 50 57  1  0  0  0  0
 51 58  1  0  0  0  0
 52 59  1  0  0  0  0
 53 59  1  0  0  0  0
 54 59  1  0  0  0  0
 55 72  1  0  0  0  0
 56 59  1  0  0  0  0
 56 71  1  0  0  0  0
 57 72  1  0  0  0  0
 58 81  1  0  0  0  0
 60 62  1  0  0  0  0
M  CHG  1  72   1
M  ISO  4  37 100  58 101  68 100  81 101
M  END
> <Batch ID>
0183

> <Smiles>
CNC(C)C(=O)NC(C(=O)N1Cc2cc([101O:1][101CH:1](C)C(=O)NC(=O)c3sc([100NH:0][100C:0](=O)N4CCCC(n5nc(-c6ccc(Oc7ccc(F)cc7F)cc6)c(C(N)=O)c5N)C4)nc3N)ccc2CC1C(=O)NC1CCCc2ccccc21)C(C)(C)C

> <Shape>
0.224

> <Color>
0.077

> <Negative vol penalty>
0.000

$$$$

  -OEChem-04052304593D

 82 90  0     1  0  0  0  0  0999 V2000
  -25.0512  -35.3858   22.4727 C   0  0  0  0  0  0  0  0  0  0  0  0
  -25.7688  -34.2014   22.3401 C   0  0  0  0  0  0  0  0  0  0  0  0
  -24.2368  -13.8484   21.6458 C   0  0  0  0  0  0  0  0  0  0  0  0
  -26.1922  -13.8424   20.2267 C   0  0  0  0  0  0  0  0  0  0  0  0
  -23.7636  -35.3633   23.0068 C   0  0  0  0  0  0  0  0  0  0  0  0
  -25.1995  -32.9938   22.7425 C   0  0  0  0  0  0  0  0  0  0  0  0
  -25.9201  -29.2865   19.3689 C   0  0  0  0  0  0  0  0  0  0  0  0
  -23.8169  -12.6483   21.0723 C   0  0  0  0  0  0  0  0  0  0  0  0
  -25.7723  -12.6422   19.6533 C   0  0  0  0  0  0  0  0  0  0  0  0
  -27.1751  -28.6796   19.3481 C   0  0  0  0  0  0  0  0  0  0  0  0
  -24.5605   -9.3613   21.3481 C   0  0  0  0  0  0  0  0  0  0  0  0
  -24.1010   -8.3600   22.2035 C   0  0  0  0  0  0  0  0  0  0  0  0
  -26.2982  -26.8362   20.6335 C   0  0  0  0  0  0  0  0  0  0  0  0
  -21.9553   -8.3964   21.0935 C   0  0  0  0  0  0  0  0  0  0  0  0
  -31.8969  -23.4387   23.0899 C   0  0  0  0  0  0  0  0  0  0  0  0
  -25.4245  -14.4455   21.2229 C   0  0  0  0  0  0  0  0  0  0  0  0
  -26.6804  -15.8458   22.9461 C   0  0  0  0  0  0  0  0  0  0  0  0
  -23.1745  -34.1536   23.4071 C   0  0  0  0  0  0  0  0  0  0  0  0
  -24.8456  -28.6770   20.0326 C   0  0  0  0  0  0  0  0  0  0  0  0
  -23.9033  -32.9552   23.2838 C   0  0  0  0  0  0  0  0  0  0  0  0
  -25.0300  -27.4362   20.6590 C   0  0  0  0  0  0  0  0  0  0  0  0
  -24.5847  -12.0451   20.0761 C   0  0  0  0  0  0  0  0  0  0  0  0
  -27.3650  -27.4557   19.9829 C   0  0  0  0  0  0  0  0  0  0  0  0
  -23.7174   -9.8803   20.3654 C   0  0  0  0  0  0  0  0  0  0  0  0
  -22.7984   -7.8775   22.0762 C   0  0  0  0  0  0  0  0  0  0  0  0
  -22.4148   -9.3978   20.2381 C   0  0  0  0  0  0  0  0  0  0  0  0
  -25.8585  -15.6856   21.8145 C   0  0  0  0  0  0  0  0  0  0  0  0
  -31.0922  -24.4423   22.5924 C   0  0  0  0  0  0  0  0  0  0  0  0
  -26.7953  -17.2061   23.0972 C   0  0  0  0  0  0  0  0  0  0  0  0
  -29.8270  -22.7238   22.0863 C   0  0  0  0  0  0  0  0  0  0  0  0
  -27.2860  -14.8537   23.7856 C   0  0  0  0  0  0  0  0  0  0  0  0
  -22.9896  -29.4641   22.4901 C   0  0  0  0  0  0  0  0  0  0  0  0
  -21.3969  -26.7663   21.6491 C   0  0  0  0  0  0  0  0  0  0  0  0
  -21.4669  -23.7213   20.1095 C   0  0  0  0  0  0  0  0  0  0  0  0
  -27.6064  -22.2910   20.9783 C   0  0  0  0  0  0  0  0  0  0  0  0
  -21.7980  -34.1852   24.0227 C   0  0  0  0  0  0  0  0  0  0  0  0
  -23.4915  -29.3318   20.0230 C   0  0  0  0  0  0  0  0  0  0  0  0
  -23.9039  -26.7307   21.3680 C   0  0  0  0  0  0  0  0  0  0  0  0
  -21.1239  -32.8167   24.0778 C   0  0  0  0  0  0  0  0  0  0  0  0
  -24.2934  -20.9923   20.8552 C   0  0  0  0  0  0  0  0  0  0  0  0
  -22.0933  -31.7650   24.6078 C   0  0  0  0  0  0  0  0  0  0  0  0
  -24.4729  -19.5091   21.1869 C   0  0  0  0  0  0  0  0  0  0  0  0
  -25.4482  -21.5284   20.0109 C   0  0  0  0  0  0  0  0  0  0  0  0
  -26.9662  -19.8012   20.8951 C   0  0  0  0  0  0  0  0  0  0  0  0
  -23.3104  -31.6222   23.6860 C   0  0  1  0  0  0  0  0  0  0  0  0
  -22.5958  -28.8688   21.1679 C   0  0  1  0  0  0  0  0  0  0  0  0
  -25.8601  -19.2323   21.7988 C   0  0  2  0  0  0  0  0  0  0  0  0
  -20.0229  -21.7286   19.6184 C   0  0  0  0  0  0  0  0  0  0  0  0
  -21.7083  -25.8320   24.5370 C   0  0  0  0  0  0  0  0  0  0  0  0
  -21.1267  -23.5182   23.7778 C   0  0  0  0  0  0  0  0  0  0  0  0
  -19.4693  -25.3653   23.5253 C   0  0  0  0  0  0  0  0  0  0  0  0
  -32.6905  -26.2189   23.2627 C   0  0  0  0  0  0  0  0  0  0  0  0
  -21.7294  -24.1057   17.1868 C   0  0  0  0  0  0  0  0  0  0  0  0
  -30.5583  -26.8162   22.1027 C   0  0  0  0  0  0  0  0  0  0  0  0
  -29.7272  -27.7203   19.9044 C   0  0  0  0  0  0  0  0  0  1  0  0
  -21.4983  -25.3059   22.0180 C   0  0  1  0  0  0  0  0  0  0  0  0
  -20.5212  -23.0739   19.1140 C   0  0  2  0  0  0  0  0  0  0  0  0
  -30.8902  -27.0533   20.6307 C   0  0  1  0  0  0  0  0  0  0  0  0
  -20.9726  -25.0193   23.4529 C   0  0  0  0  0  0  0  0  0  0  0  0
  -25.4780  -16.8510   21.2844 N   0  0  0  0  0  0  0  0  0  0  0  0
  -29.9051  -24.0342   22.0161 N   0  0  0  0  0  0  0  0  0  0  0  0
  -26.0634  -17.7565   22.0865 N   0  0  0  0  0  0  0  0  0  0  0  0
  -22.6003  -27.4142   21.3363 N   0  0  0  0  0  0  0  0  0  0  0  0
  -26.7301  -21.2335   20.6547 N   0  0  0  0  0  0  0  0  0  0  0  0
  -27.4499  -17.9731   23.9948 N   0  0  0  0  0  0  0  0  0  0  0  0
  -27.0652  -13.5019   23.4885 N   0  0  0  0  0  0  0  0  0  0  0  0
  -28.7802  -21.8922   21.6168 N   0  0  0  0  0  0  0  0  0  0  0  0
  -22.9684  -30.8455   22.5138 N   0  0  0  0  0  0  0  0  0  0  0  0
  -20.8015  -24.5704   20.9683 N   0  0  0  0  0  0  0  0  0  0  0  0
  -31.4293  -25.8007   22.6508 N   0  0  3  0  0  0  0  0  0  0  0  0
  -21.2089  -22.8612   17.8091 N   0  3  0  0  0  0  0  0  0  0  0  0
  -27.9883  -15.1570   24.7798 O   0  0  0  0  0  0  0  0  0  0  0  0
  -23.2890  -28.7248   23.4204 O   0  0  0  0  0  0  0  0  0  0  0  0
  -20.2899  -27.3102   21.6319 O   0  0  0  0  0  0  0  0  0  0  0  0
  -22.6745  -23.4935   20.1261 O   0  0  0  0  0  0  0  0  0  0  0  0
  -27.3231  -23.4664   20.7333 O   0  0  0  0  0  0  0  0  0  0  0  0
  -32.0175  -27.9271   20.5409 O   0  0  0  0  0  0  0  0  0  0  0  0
  -24.1753  -10.8739   19.5164 O   0  0  0  0  0  0  0  0  0  0  0  0
  -28.5891  -26.8614   19.9647 O   0  0  0  0  0  0  0  0  0  1  0  0
  -22.3578   -6.9148   22.8967 F   0  0  0  0  0  0  0  0  0  0  0  0
  -21.6007   -9.8916   19.2952 F   0  0  0  0  0  0  0  0  0  0  0  0
  -31.1457  -21.9185   22.8330 S   0  0  0  0  0  0  0  0  0  0  0  0
  1  2  1  0  0  0  0
  1  5  2  0  0  0  0
  2  6  2  0  0  0  0
  3  8  2  0  0  0  0
  3 16  1  0  0  0  0
  4  9  1  0  0  0  0
  4 16  2  0  0  0  0
  5 18  1  0  0  0  0
  6 20  1  0  0  0  0
  7 10  2  0  0  0  0
  7 19  1  0  0  0  0
  8 22  1  0  0  0  0
  9 22  2  0  0  0  0
 10 23  1  0  0  0  0
 11 12  2  0  0  0  0
 11 24  1  0  0  0  0
 12 25  1  0  0  0  0
 13 21  1  0  0  0  0
 13 23  2  0  0  0  0
 14 25  2  0  0  0  0
 14 26  1  0  0  0  0
 15 28  2  0  0  0  0
 15 82  1  0  0  0  0
 16 27  1  0  0  0  0
 17 27  1  0  0  0  0
 17 29  2  0  0  0  0
 17 31  1  0  0  0  0
 18 20  2  0  0  0  0
 18 36  1  0  0  0  0
 19 21  2  0  0  0  0
 19 37  1  0  0  0  0
 20 45  1  0  0  0  0
 21 38  1  0  0  0  0
 22 78  1  0  0  0  0
 23 79  1  0  0  0  0
 24 26  2  0  0  0  0
 24 78  1  0  0  0  0
 25 80  1  0  0  0  0
 26 81  1  0  0  0  0
 27 60  2  0  0  0  0
 28 61  1  0  0  0  0
 28 70  1  0  0  0  0
 29 62  1  0  0  0  0
 29 65  1  0  0  0  0
 30 61  2  0  0  0  0
 30 67  1  0  0  0  0
 30 82  1  0  0  0  0
 31 66  1  0  0  0  0
 31 72  2  0  0  0  0
 32 46  1  0  0  0  0
 32 68  1  0  0  0  0
 32 73  2  0  0  0  0
 33 56  1  0  0  0  0
 33 63  1  0  0  0  0
 33 74  2  0  0  0  0
 34 57  1  0  0  0  0
 34 69  1  0  0  0  0
 34 75  2  0  0  0  0
 35 64  1  0  0  0  0
 35 67  1  0  0  0  0
 35 76  2  0  0  0  0
 36 39  1  0  0  0  0
 37 46  1  0  0  0  0
 38 63  1  0  0  0  0
 39 41  1  0  0  0  0
 40 42  1  0  0  0  0
 40 43  1  0  0  0  0
 41 45  1  0  0  0  0
 42 47  1  0  0  0  0
 43 64  1  0  0  0  0
 44 47  1  0  0  0  0
 44 64  1  0  0  0  0
 45 68  1  0  0  0  0
 46 63  1  0  0  0  0
 47 62  1  0  0  0  0
 48 57  1  0  0  0  0
 49 59  1  0  0  0  0
 50 59  1  0  0  0  0
 51 59  1  0  0  0  0
 52 70  1  0  0  0  0
 53 71  1  0  0  0  0
 54 58  1  0  0  0  0
 54 70  1  0  0  0  0
 55 58  1  0  0  0  0
 55 79  1  0  0  0  0
 56 59  1  0  0  0  0
 56 69  1  0  0  0  0
 57 71  1  0  0  0  0
 58 77  1  0  0  0  0
 60 62  1  0  0  0  0
M  CHG  1  71   1
M  ISO  4  35 100  55 101  67 100  79 101
M  END
> <Batch ID>
0183

> <Smiles>
CNC(C)C(=O)NC(C(=O)N1Cc2cc([101O:1][101CH2:1]C(O)CN(C)c3csc([100NH:0][100C:0](=O)N4CCCC(n5nc(-c6ccc(Oc7ccc(F)cc7F)cc6)c(C(N)=O)c5N)C4)n3)ccc2CC1C(=O)NC1CCCc2ccccc21)C(C)(C)C

> <Shape>
0.223

> <Color>
0.085

> <Negative vol penalty>
0.000

$$$$

  -OEChem-04052304593D

 85 93  0     1  0  0  0  0  0999 V2000
  -16.9702  -29.2018   24.7821 C   0  0  0  0  0  0  0  0  0  0  0  0
  -17.4501  -28.0883   24.0999 C   0  0  0  0  0  0  0  0  0  0  0  0
  -26.4452  -10.2357   20.3715 C   0  0  0  0  0  0  0  0  0  0  0  0
  -25.5997  -11.7648   18.7030 C   0  0  0  0  0  0  0  0  0  0  0  0
  -17.4011  -30.4779   24.4217 C   0  0  0  0  0  0  0  0  0  0  0  0
  -18.3604  -28.2504   23.0561 C   0  0  0  0  0  0  0  0  0  0  0  0
  -22.9517  -24.4848   21.5573 C   0  0  0  0  0  0  0  0  0  0  0  0
  -25.2067   -9.5954   20.4123 C   0  0  0  0  0  0  0  0  0  0  0  0
  -24.3612  -11.1245   18.7437 C   0  0  0  0  0  0  0  0  0  0  0  0
  -23.0701  -23.4895   20.5883 C   0  0  0  0  0  0  0  0  0  0  0  0
  -22.1701  -10.1320   21.7962 C   0  0  0  0  0  0  0  0  0  0  0  0
  -21.6397   -9.8274   23.0498 C   0  0  0  0  0  0  0  0  0  0  0  0
  -24.1232  -25.0706   19.1016 C   0  0  0  0  0  0  0  0  0  0  0  0
  -21.6272   -7.4810   22.4744 C   0  0  0  0  0  0  0  0  0  0  0  0
  -26.6417  -11.3205   19.5169 C   0  0  0  0  0  0  0  0  0  0  0  0
  -29.0107  -11.6740   18.6392 C   0  0  0  0  0  0  0  0  0  0  0  0
  -18.3245  -30.6550   23.3793 C   0  0  0  0  0  0  0  0  0  0  0  0
  -23.4090  -25.7855   21.3013 C   0  0  0  0  0  0  0  0  0  0  0  0
  -18.8030  -29.5302   22.6806 C   0  0  0  0  0  0  0  0  0  0  0  0
  -24.0117  -26.0800   20.0700 C   0  0  0  0  0  0  0  0  0  0  0  0
  -24.1647  -10.0397   19.5984 C   0  0  0  0  0  0  0  0  0  0  0  0
  -23.6534  -23.7830   19.3592 C   0  0  0  0  0  0  0  0  0  0  0  0
  -22.4289   -9.1110   20.8816 C   0  0  0  0  0  0  0  0  0  0  0  0
  -21.3683   -8.5019   23.3890 C   0  0  0  0  0  0  0  0  0  0  0  0
  -22.1575   -7.7855   21.2208 C   0  0  0  0  0  0  0  0  0  0  0  0
  -27.9207  -11.9827   19.4748 C   0  0  0  0  0  0  0  0  0  0  0  0
  -28.3202  -21.2266   17.9333 C   0  0  0  0  0  0  0  0  0  0  0  0
  -29.0804  -21.6730   18.9940 C   0  0  0  0  0  0  0  0  0  0  0  0
  -29.9774  -12.5866   18.9845 C   0  0  0  0  0  0  0  0  0  0  0  0
  -28.9485  -19.5557   19.5507 C   0  0  0  0  0  0  0  0  0  0  0  0
  -29.1381  -10.6535   17.6401 C   0  0  0  0  0  0  0  0  0  0  0  0
  -27.7574  -21.9609   16.7602 C   0  0  0  0  0  0  0  0  0  0  0  0
  -22.0445  -28.6518   21.1397 C   0  0  0  0  0  0  0  0  0  0  0  0
  -25.1110  -29.6636   20.8304 C   0  0  0  0  0  0  0  0  0  0  0  0
  -28.3238  -28.9411   19.9346 C   0  0  0  0  0  0  0  0  0  0  0  0
  -29.7589  -18.0480   21.3990 C   0  0  0  0  0  0  0  0  0  0  0  0
  -18.7249  -32.0573   22.9946 C   0  0  0  0  0  0  0  0  0  0  0  0
  -23.2981  -26.8412   22.3670 C   0  0  0  0  0  0  0  0  0  0  0  0
  -24.5370  -27.4556   19.7531 C   0  0  0  0  0  0  0  0  0  0  0  0
  -19.9772  -32.1159   22.1236 C   0  0  0  0  0  0  0  0  0  0  0  0
  -31.4913  -15.2174   22.6887 C   0  0  0  0  0  0  0  0  0  0  0  0
  -19.8940  -31.0885   20.9992 C   0  0  0  0  0  0  0  0  0  0  0  0
  -30.8757  -14.0391   21.9304 C   0  0  0  0  0  0  0  0  0  0  0  0
  -30.4518  -16.2892   23.0119 C   0  0  0  0  0  0  0  0  0  0  0  0
  -29.0604  -15.5904   21.1027 C   0  0  0  0  0  0  0  0  0  0  0  0
  -19.8103  -29.6634   21.5590 C   0  0  1  0  0  0  0  0  0  0  0  0
  -23.3320  -28.2603   21.8080 C   0  0  1  0  0  0  0  0  0  0  0  0
  -30.0819  -14.5151   20.6980 C   0  0  2  0  0  0  0  0  0  0  0  0
  -30.6004  -29.9815   19.7558 C   0  0  0  0  0  0  0  0  0  0  0  0
  -24.2415  -31.1247   18.2968 C   0  0  0  0  0  0  0  0  0  0  0  0
  -26.6567  -31.3294   17.6696 C   0  0  0  0  0  0  0  0  0  0  0  0
  -25.8153  -32.4103   19.7545 C   0  0  0  0  0  0  0  0  0  0  0  0
  -29.4775  -27.0294   21.8772 C   0  0  0  0  0  0  0  0  0  0  0  0
  -24.8730  -22.9135   17.5119 C   0  0  0  0  0  0  0  0  0  1  0  0
  -26.0487  -29.8943   19.6701 C   0  0  1  0  0  0  0  0  0  0  0  0
  -29.6459  -29.1912   20.6373 C   0  0  2  0  0  0  0  0  0  0  0  0
  -25.2697  -21.5205   17.0435 C   0  0  2  0  0  0  0  0  0  0  0  0
  -26.4654  -21.5121   16.0992 C   0  0  0  0  0  0  0  0  0  0  0  0
  -25.6790  -31.1641   18.8527 C   0  0  0  0  0  0  0  0  0  0  0  0
  -28.1708  -13.0110   20.2897 N   0  0  0  0  0  0  0  0  0  0  0  0
  -29.4413  -20.7163   19.9226 N   0  0  0  0  0  0  0  0  0  0  0  0
  -29.4291  -13.3563   19.9679 N   0  0  0  0  0  0  0  0  0  0  0  0
  -24.3998  -28.4552   20.8251 N   0  0  0  0  0  0  0  0  0  0  0  0
  -29.7425  -16.6943   21.7963 N   0  0  0  0  0  0  0  0  0  0  0  0
  -29.4720  -22.9599   19.1534 N   0  0  0  0  0  0  0  0  0  0  0  0
  -31.2345  -12.7976   18.5399 N   0  0  0  0  0  0  0  0  0  0  0  0
  -28.0487   -9.8016   17.4125 N   0  0  0  0  0  0  0  0  0  0  0  0
  -29.0780  -18.3084   20.2103 N   0  0  0  0  0  0  0  0  0  0  0  0
  -21.1153  -29.2139   21.9942 N   0  0  0  0  0  0  0  0  0  0  0  0
  -27.3951  -29.9161   20.2315 N   0  0  0  0  0  0  0  0  0  0  0  0
  -30.2962  -27.8983   20.9930 N   0  3  0  0  0  0  0  0  0  0  0  0
  -30.1927  -10.4911   16.9806 O   0  0  0  0  0  0  0  0  0  0  0  0
  -28.3485  -22.9547   16.3372 O   0  0  0  0  0  0  0  0  0  0  0  0
  -21.9050  -28.4597   19.9375 O   0  0  0  0  0  0  0  0  0  0  0  0
  -25.0183  -30.5206   21.7127 O   0  0  0  0  0  0  0  0  0  0  0  0
  -28.1350  -27.9791   19.1933 O   0  0  0  0  0  0  0  0  0  0  0  0
  -30.3576  -18.9082   22.0500 O   0  0  0  0  0  0  0  0  0  0  0  0
  -22.9561   -9.4149   19.6377 O   0  0  0  0  0  0  0  0  0  0  0  0
  -23.7696  -22.8135   18.4113 O   0  0  0  0  0  0  0  0  0  1  0  0
  -20.8605   -8.2095   24.5934 F   0  0  0  0  0  0  0  0  0  0  0  0
  -22.4051   -6.8003   20.3468 F   0  0  0  0  0  0  0  0  0  0  0  0
  -24.2068  -21.0104   16.3481 F   0  0  0  0  0  0  0  0  0  0  0  0
  -26.1744  -22.3335   15.0478 F   0  0  0  0  0  0  0  0  0  0  0  0
  -26.5922  -20.2703   15.5564 F   0  0  0  0  0  0  0  0  0  0  0  0
  -28.0415  -19.5420   18.0940 S   0  0  0  0  0  0  0  0  0  0  0  0
  1  2  1  0  0  0  0
  1  5  2  0  0  0  0
  2  6  2  0  0  0  0
  3  8  2  0  0  0  0
  3 15  1  0  0  0  0
  4  9  1  0  0  0  0
  4 15  2  0  0  0  0
  5 17  1  0  0  0  0
  6 19  1  0  0  0  0
  7 10  2  0  0  0  0
  7 18  1  0  0  0  0
  8 21  1  0  0  0  0
  9 21  2  0  0  0  0
 10 22  1  0  0  0  0
 11 12  2  0  0  0  0
 11 23  1  0  0  0  0
 12 24  1  0  0  0  0
 13 20  1  0  0  0  0
 13 22  2  0  0  0  0
 14 24  2  0  0  0  0
 14 25  1  0  0  0  0
 15 26  1  0  0  0  0
 16 26  1  0  0  0  0
 16 29  2  0  0  0  0
 16 31  1  0  0  0  0
 17 19  2  0  0  0  0
 17 37  1  0  0  0  0
 18 20  2  0  0  0  0
 18 38  1  0  0  0  0
 19 46  1  0  0  0  0
 20 39  1  0  0  0  0
 21 78  1  0  0  0  0
 22 79  1  0  0  0  0
 23 25  2  0  0  0  0
 23 78  1  0  0  0  0
 24 80  1  0  0  0  0
 25 81  1  0  0  0  0
 26 60  2  0  0  0  0
 27 28  2  0  0  0  0
 27 32  1  0  0  0  0
 27 85  1  0  0  0  0
 28 61  1  0  0  0  0
 28 65  1  0  0  0  0
 29 62  1  0  0  0  0
 29 66  1  0  0  0  0
 30 61  2  0  0  0  0
 30 68  1  0  0  0  0
 30 85  1  0  0  0  0
 31 67  1  0  0  0  0
 31 72  2  0  0  0  0
 32 58  1  0  0  0  0
 32 73  2  0  0  0  0
 33 47  1  0  0  0  0
 33 69  1  0  0  0  0
 33 74  2  0  0  0  0
 34 55  1  0  0  0  0
 34 63  1  0  0  0  0
 34 75  2  0  0  0  0
 35 56  1  0  0  0  0
 35 70  1  0  0  0  0
 35 76  2  0  0  0  0
 36 64  1  0  0  0  0
 36 68  1  0  0  0  0
 36 77  2  0  0  0  0
 37 40  1  0  0  0  0
 38 47  1  0  0  0  0
 39 63  1  0  0  0  0
 40 42  1  0  0  0  0
 41 43  1  0  0  0  0
 41 44  1  0  0  0  0
 42 46  1  0  0  0  0
 43 48  1  0  0  0  0
 44 64  1  0  0  0  0
 45 48  1  0  0  0  0
 45 64  1  0  0  0  0
 46 69  1  0  0  0  0
 47 63  1  0  0  0  0
 48 62  1  0  0  0  0
 49 56  1  0  0  0  0
 50 59  1  0  0  0  0
 51 59  1  0  0  0  0
 52 59  1  0  0  0  0
 53 71  1  0  0  0  0
 54 57  1  0  0  0  0
 54 79  1  0  0  0  0
 55 59  1  0  0  0  0
 55 70  1  0  0  0  0
 56 71  1  0  0  0  0
 57 58  1  0  0  0  0
 57 82  1  0  0  0  0
 58 83  1  0  0  0  0
 58 84  1  0  0  0  0
 60 62  1  0  0  0  0
M  CHG  1  71   1
M  ISO  4  36 100  54 101  68 100  79 101
M  END
> <Batch ID>
0183

> <Smiles>
CNC(C)C(=O)NC(C(=O)N1Cc2cc([101O:1][101CH2:1]C(F)C(F)(F)C(=O)c3sc([100NH:0][100C:0](=O)N4CCCC(n5nc(-c6ccc(Oc7ccc(F)cc7F)cc6)c(C(N)=O)c5N)C4)nc3N)ccc2CC1C(=O)NC1CCCc2ccccc21)C(C)(C)C

> <Shape>
0.269

> <Color>
0.083

> <Negative vol penalty>
0.000

$$$$

  -OEChem-04052304593D

 86 94  0     1  0  0  0  0  0999 V2000
  -17.6239  -29.7349   22.8354 C   0  0  0  0  0  0  0  0  0  0  0  0
  -18.9035  -29.7994   22.2933 C   0  0  0  0  0  0  0  0  0  0  0  0
  -26.3009  -13.1100   21.3608 C   0  0  0  0  0  0  0  0  0  0  0  0
  -26.0251  -14.5081   19.4098 C   0  0  0  0  0  0  0  0  0  0  0  0
  -17.3426  -28.8192   23.8484 C   0  0  0  0  0  0  0  0  0  0  0  0
  -19.9029  -28.9489   22.7648 C   0  0  0  0  0  0  0  0  0  0  0  0
  -24.4473  -26.4480   19.5090 C   0  0  0  0  0  0  0  0  0  0  0  0
  -24.9836  -12.6699   21.2317 C   0  0  0  0  0  0  0  0  0  0  0  0
  -24.7078  -14.0679   19.2806 C   0  0  0  0  0  0  0  0  0  0  0  0
  -25.7855  -26.8012   19.3412 C   0  0  0  0  0  0  0  0  0  0  0  0
  -21.8896  -13.8280   21.9460 C   0  0  0  0  0  0  0  0  0  0  0  0
  -21.1083  -13.7762   23.1003 C   0  0  0  0  0  0  0  0  0  0  0  0
  -26.4084  -25.2387   21.0703 C   0  0  0  0  0  0  0  0  0  0  0  0
  -20.7982  -11.4011   22.7837 C   0  0  0  0  0  0  0  0  0  0  0  0
  -26.8216  -14.0292   20.4499 C   0  0  0  0  0  0  0  0  0  0  0  0
  -29.3313  -13.9095   20.0083 C   0  0  0  0  0  0  0  0  0  0  0  0
  -18.3366  -27.9505   24.3259 C   0  0  0  0  0  0  0  0  0  0  0  0
  -24.0778  -25.4938   20.4679 C   0  0  0  0  0  0  0  0  0  0  0  0
  -19.6350  -28.0217   23.7861 C   0  0  0  0  0  0  0  0  0  0  0  0
  -25.0651  -24.8732   21.2465 C   0  0  0  0  0  0  0  0  0  0  0  0
  -24.1871  -13.1488   20.1916 C   0  0  0  0  0  0  0  0  0  0  0  0
  -26.7660  -26.1986   20.1239 C   0  0  0  0  0  0  0  0  0  0  0  0
  -22.1252  -12.6664   21.2104 C   0  0  0  0  0  0  0  0  0  0  0  0
  -20.5626  -12.5627   23.5192 C   0  0  0  0  0  0  0  0  0  0  0  0
  -21.5795  -11.4530   21.6294 C   0  0  0  0  0  0  0  0  0  0  0  0
  -28.1821  -14.4847   20.5832 C   0  0  0  0  0  0  0  0  0  0  0  0
  -31.0251  -23.7460   19.3124 C   0  0  0  0  0  0  0  0  0  0  0  0
  -30.3644  -14.7083   20.4337 C   0  0  0  0  0  0  0  0  0  0  0  0
  -30.3921  -23.2768   18.1804 C   0  0  0  0  0  0  0  0  0  0  0  0
  -30.4467  -21.7651   20.0551 C   0  0  0  0  0  0  0  0  0  0  0  0
  -29.4538  -12.7564   19.1652 C   0  0  0  0  0  0  0  0  0  0  0  0
  -22.2618  -25.5218   23.0765 C   0  0  0  0  0  0  0  0  0  0  0  0
  -22.8426  -22.3306   23.0420 C   0  0  0  0  0  0  0  0  0  0  0  0
  -24.8672  -19.7647   22.0601 C   0  0  0  0  0  0  0  0  0  0  0  0
  -30.8456  -27.4361   19.5341 C   0  0  0  0  0  0  0  0  0  0  0  0
  -30.6612  -20.4174   22.1726 C   0  0  0  0  0  0  0  0  0  0  0  0
  -17.9974  -27.0100   25.4551 C   0  0  0  0  0  0  0  0  0  0  0  0
  -22.6328  -25.1044   20.6180 C   0  0  0  0  0  0  0  0  0  0  0  0
  -24.7229  -23.8282   22.2757 C   0  0  0  0  0  0  0  0  0  0  0  0
  -19.0147  -25.8868   25.6387 C   0  0  0  0  0  0  0  0  0  0  0  0
  -31.6428  -17.5626   24.0604 C   0  0  0  0  0  0  0  0  0  0  0  0
  -20.4350  -26.4423   25.6058 C   0  0  0  0  0  0  0  0  0  0  0  0
  -30.9763  -16.3964   23.3271 C   0  0  0  0  0  0  0  0  0  0  0  0
  -30.7596  -18.8091   24.0643 C   0  0  0  0  0  0  0  0  0  0  0  0
  -29.6187  -18.0718   22.0091 C   0  0  0  0  0  0  0  0  0  0  0  0
  -20.7394  -27.0988   24.2539 C   0  0  1  0  0  0  0  0  0  0  0  0
  -22.3166  -24.4954   21.9806 C   0  0  1  0  0  0  0  0  0  0  0  0
  -30.4978  -16.8134   21.9226 C   0  0  2  0  0  0  0  0  0  0  0  0
  -32.8572  -25.0710   20.4437 C   0  0  0  0  0  0  0  0  0  0  0  0
  -25.1017  -17.2710   22.2137 C   0  0  0  0  0  0  0  0  0  0  0  0
  -29.9682  -29.7963   19.6171 C   0  0  0  0  0  0  0  0  0  0  0  0
  -29.7131  -28.3072   21.6045 C   0  0  0  0  0  0  0  0  0  0  0  0
  -23.8036  -22.6011   25.9253 C   0  0  0  0  0  0  0  0  0  0  0  0
  -24.8845  -20.3538   25.7024 C   0  0  0  0  0  0  0  0  0  0  0  0
  -22.4100  -20.5737   25.4760 C   0  0  0  0  0  0  0  0  0  0  0  0
  -24.6988  -19.4516   19.1220 C   0  0  0  0  0  0  0  0  0  0  0  0
  -28.3459  -27.8745   19.5310 C   0  0  0  0  0  0  0  0  0  1  0  0
  -31.6758  -25.1026   19.4763 C   0  0  2  0  0  0  0  0  0  0  0  0
  -23.9049  -21.4310   23.6261 C   0  0  1  0  0  0  0  0  0  0  0  0
  -24.5576  -18.4339   21.3987 C   0  0  2  0  0  0  0  0  0  0  0  0
  -29.7141  -28.3461   20.0634 C   0  0  0  0  0  0  0  0  0  0  0  0
  -23.7573  -21.2610   25.1645 C   0  0  0  0  0  0  0  0  0  0  0  0
  -28.4587  -15.5653   21.3178 N   0  0  0  0  0  0  0  0  0  0  0  0
  -31.0570  -22.8807   20.3885 N   0  0  0  0  0  0  0  0  0  0  0  0
  -29.7936  -15.6755   21.2076 N   0  0  0  0  0  0  0  0  0  0  0  0
  -23.2955  -23.4860   22.3895 N   0  0  0  0  0  0  0  0  0  0  0  0
  -30.3483  -19.1466   22.6999 N   0  0  0  0  0  0  0  0  0  0  0  0
  -31.6965  -14.6707   20.2175 N   0  0  0  0  0  0  0  0  0  0  0  0
  -30.2181  -23.9119   16.9959 N   0  0  0  0  0  0  0  0  0  0  0  0
  -28.2916  -12.0509   18.8249 N   0  0  0  0  0  0  0  0  0  0  0  0
  -30.2483  -20.6125   20.8550 N   0  0  0  0  0  0  0  0  0  0  0  0
  -21.0148  -26.0905   23.2530 N   0  0  0  0  0  0  0  0  0  0  0  0
  -30.7134  -26.0999   19.8818 N   0  0  0  0  0  0  0  0  0  0  0  0
  -23.8375  -20.1805   22.8775 N   0  0  0  0  0  0  0  0  0  0  0  0
  -25.1634  -18.3784   20.0382 N   0  3  0  0  0  0  0  0  0  0  0  0
  -30.5631  -12.3536   18.7400 O   0  0  0  0  0  0  0  0  0  0  0  0
  -23.2755  -25.7779   23.7157 O   0  0  0  0  0  0  0  0  0  0  0  0
  -21.6551  -22.0161   23.1543 O   0  0  0  0  0  0  0  0  0  0  0  0
  -25.9189  -20.3727   21.8735 O   0  0  0  0  0  0  0  0  0  0  0  0
  -31.7799  -27.8737   18.8617 O   0  0  0  0  0  0  0  0  0  0  0  0
  -31.2759  -21.2600   22.8315 O   0  0  0  0  0  0  0  0  0  0  0  0
  -22.9017  -12.7194   20.0651 O   0  0  0  0  0  0  0  0  0  0  0  0
  -28.0729  -26.5420   19.9626 O   0  0  0  0  0  0  0  0  0  1  0  0
  -19.8136  -12.5128   24.6285 F   0  0  0  0  0  0  0  0  0  0  0  0
  -21.8033  -10.3335   20.9276 F   0  0  0  0  0  0  0  0  0  0  0  0
  -29.8111  -21.6881   18.4629 S   0  0  0  0  0  0  0  0  0  0  0  0
  1  2  1  0  0  0  0
  1  5  2  0  0  0  0
  2  6  2  0  0  0  0
  3  8  2  0  0  0  0
  3 15  1  0  0  0  0
  4  9  1  0  0  0  0
  4 15  2  0  0  0  0
  5 17  1  0  0  0  0
  6 19  1  0  0  0  0
  7 10  2  0  0  0  0
  7 18  1  0  0  0  0
  8 21  1  0  0  0  0
  9 21  2  0  0  0  0
 10 22  1  0  0  0  0
 11 12  2  0  0  0  0
 11 23  1  0  0  0  0
 12 24  1  0  0  0  0
 13 20  1  0  0  0  0
 13 22  2  0  0  0  0
 14 24  2  0  0  0  0
 14 25  1  0  0  0  0
 15 26  1  0  0  0  0
 16 26  1  0  0  0  0
 16 28  2  0  0  0  0
 16 31  1  0  0  0  0
 17 19  2  0  0  0  0
 17 37  1  0  0  0  0
 18 20  2  0  0  0  0
 18 38  1  0  0  0  0
 19 46  1  0  0  0  0
 20 39  1  0  0  0  0
 21 82  1  0  0  0  0
 22 83  1  0  0  0  0
 23 25  2  0  0  0  0
 23 82  1  0  0  0  0
 24 84  1  0  0  0  0
 25 85  1  0  0  0  0
 26 63  2  0  0  0  0
 27 29  2  0  0  0  0
 27 58  1  0  0  0  0
 27 64  1  0  0  0  0
 28 65  1  0  0  0  0
 28 68  1  0  0  0  0
 29 69  1  0  0  0  0
 29 86  1  0  0  0  0
 30 64  2  0  0  0  0
 30 71  1  0  0  0  0
 30 86  1  0  0  0  0
 31 70  1  0  0  0  0
 31 76  2  0  0  0  0
 32 47  1  0  0  0  0
 32 72  1  0  0  0  0
 32 77  2  0  0  0  0
 33 59  1  0  0  0  0
 33 66  1  0  0  0  0
 33 78  2  0  0  0  0
 34 60  1  0  0  0  0
 34 74  1  0  0  0  0
 34 79  2  0  0  0  0
 35 61  1  0  0  0  0
 35 73  1  0  0  0  0
 35 80  2  0  0  0  0
 36 67  1  0  0  0  0
 36 71  1  0  0  0  0
 36 81  2  0  0  0  0
 37 40  1  0  0  0  0
 38 47  1  0  0  0  0
 39 66  1  0  0  0  0
 40 42  1  0  0  0  0
 41 43  1  0  0  0  0
 41 44  1  0  0  0  0
 42 46  1  0  0  0  0
 43 48  1  0  0  0  0
 44 67  1  0  0  0  0
 45 48  1  0  0  0  0
 45 67  1  0  0  0  0
 46 72  1  0  0  0  0
 47 66  1  0  0  0  0
 48 65  1  0  0  0  0
 49 58  1  0  0  0  0
 50 60  1  0  0  0  0
 51 61  1  0  0  0  0
 52 61  1  0  0  0  0
 53 62  1  0  0  0  0
 54 62  1  0  0  0  0
 55 62  1  0  0  0  0
 56 75  1  0  0  0  0
 57 61  1  0  0  0  0
 57 83  1  0  0  0  0
 58 73  1  0  0  0  0
 59 62  1  0  0  0  0
 59 74  1  0  0  0  0
 60 75  1  0  0  0  0
 63 65  1  0  0  0  0
M  CHG  1  75   1
M  ISO  4  36 100  57 101  71 100  83 101
M  END
> <Batch ID>
0183

> <Smiles>
CNC(C)C(=O)NC(C(=O)N1Cc2cc([101O:1][101CH2:1]C(C)(C)C(=O)NC(C)c3nc([100NH:0][100C:0](=O)N4CCCC(n5nc(-c6ccc(Oc7ccc(F)cc7F)cc6)c(C(N)=O)c5N)C4)sc3N)ccc2CC1C(=O)NC1CCCc2ccccc21)C(C)(C)C

> <Shape>
0.239

> <Color>
0.047

> <Negative vol penalty>
0.000

$$$$

  -OEChem-04052304593D

 85 93  0     1  0  0  0  0  0999 V2000
  -20.8469  -18.9725   24.9432 C   0  0  0  0  0  0  0  0  0  0  0  0
  -22.1744  -19.3866   24.9841 C   0  0  0  0  0  0  0  0  0  0  0  0
  -25.7795  -13.8509   21.4172 C   0  0  0  0  0  0  0  0  0  0  0  0
  -25.0904  -14.5890   19.2223 C   0  0  0  0  0  0  0  0  0  0  0  0
  -19.9685  -19.5413   24.0219 C   0  0  0  0  0  0  0  0  0  0  0  0
  -22.6246  -20.3691   24.1029 C   0  0  0  0  0  0  0  0  0  0  0  0
  -27.2847  -25.7946   23.6981 C   0  0  0  0  0  0  0  0  0  0  0  0
  -24.7454  -12.9149   21.4270 C   0  0  0  0  0  0  0  0  0  0  0  0
  -24.0563  -13.6529   19.2321 C   0  0  0  0  0  0  0  0  0  0  0  0
  -28.3162  -26.2704   22.8898 C   0  0  0  0  0  0  0  0  0  0  0  0
  -24.1330   -9.8655   20.1007 C   0  0  0  0  0  0  0  0  0  0  0  0
  -24.4325   -8.5732   20.5317 C   0  0  0  0  0  0  0  0  0  0  0  0
  -26.6897  -27.2387   21.3945 C   0  0  0  0  0  0  0  0  0  0  0  0
  -22.8092   -8.7894   22.3080 C   0  0  0  0  0  0  0  0  0  0  0  0
  -30.2861  -22.4708   16.3510 C   0  0  0  0  0  0  0  0  0  0  0  0
  -25.9520  -14.6880   20.3148 C   0  0  0  0  0  0  0  0  0  0  0  0
  -28.3316  -15.4686   19.8293 C   0  0  0  0  0  0  0  0  0  0  0  0
  -20.4058  -20.5381   23.1355 C   0  0  0  0  0  0  0  0  0  0  0  0
  -25.9454  -26.0283   23.3543 C   0  0  0  0  0  0  0  0  0  0  0  0
  -21.7515  -20.9508   23.1680 C   0  0  0  0  0  0  0  0  0  0  0  0
  -25.6431  -26.7670   22.2014 C   0  0  0  0  0  0  0  0  0  0  0  0
  -23.8838  -12.8159   20.3345 C   0  0  0  0  0  0  0  0  0  0  0  0
  -28.0188  -26.9900   21.7363 C   0  0  0  0  0  0  0  0  0  0  0  0
  -23.1716  -10.6198   20.7734 C   0  0  0  0  0  0  0  0  0  0  0  0
  -23.7706   -8.0351   21.6353 C   0  0  0  0  0  0  0  0  0  0  0  0
  -22.5097  -10.0818   21.8770 C   0  0  0  0  0  0  0  0  0  0  0  0
  -31.1528  -23.2192   15.5624 C   0  0  0  0  0  0  0  0  0  0  0  0
  -31.8431  -24.2894   16.1206 C   0  0  0  0  0  0  0  0  0  0  0  0
  -27.0196  -15.6555   20.3042 C   0  0  0  0  0  0  0  0  0  0  0  0
  -30.1458  -22.8306   17.6817 C   0  0  0  0  0  0  0  0  0  0  0  0
  -31.6329  -24.5679   17.4616 C   0  0  0  0  0  0  0  0  0  0  0  0
  -28.9489  -16.6771   20.0410 C   0  0  0  0  0  0  0  0  0  0  0  0
  -28.9380  -14.3064   19.2485 C   0  0  0  0  0  0  0  0  0  0  0  0
  -23.4601  -24.1829   22.6322 C   0  0  0  0  0  0  0  0  0  0  0  0
  -30.9138  -26.8255   19.5675 C   0  0  0  0  0  0  0  0  0  0  0  0
  -21.8540  -27.0011   22.6672 C   0  0  0  0  0  0  0  0  0  0  0  0
  -21.9579  -30.3988   22.3652 C   0  0  0  0  0  0  0  0  0  0  0  0
  -28.9664  -22.2411   19.8283 C   0  0  0  0  0  0  0  0  0  0  0  0
  -19.4310  -21.0898   22.1255 C   0  0  0  0  0  0  0  0  0  0  0  0
  -24.8448  -25.5313   24.2510 C   0  0  0  0  0  0  0  0  0  0  0  0
  -24.2221  -27.0624   21.7989 C   0  0  0  0  0  0  0  0  0  0  0  0
  -19.8957  -22.3922   21.4788 C   0  0  0  0  0  0  0  0  0  0  0  0
  -27.4389  -20.7316   22.6682 C   0  0  0  0  0  0  0  0  0  0  0  0
  -21.3532  -22.2812   21.0426 C   0  0  0  0  0  0  0  0  0  0  0  0
  -27.3016  -19.2611   22.2673 C   0  0  0  0  0  0  0  0  0  0  0  0
  -27.2040  -21.6668   21.4834 C   0  0  0  0  0  0  0  0  0  0  0  0
  -27.8813  -19.9100   19.8946 C   0  0  0  0  0  0  0  0  0  0  0  0
  -22.2715  -22.0316   22.2451 C   0  0  1  0  0  0  0  0  0  0  0  0
  -23.5075  -25.3859   23.5313 C   0  0  1  0  0  0  0  0  0  0  0  0
  -28.1731  -18.9277   21.0406 C   0  0  2  0  0  0  0  0  0  0  0  0
  -33.4083  -26.8964   19.7680 C   0  0  0  0  0  0  0  0  0  0  0  0
  -20.4794  -32.4261   22.4049 C   0  0  0  0  0  0  0  0  0  0  0  0
  -20.8468  -26.3183   19.8691 C   0  0  0  0  0  0  0  0  0  0  0  0
  -20.1929  -28.7194   19.5942 C   0  0  0  0  0  0  0  0  0  0  0  0
  -19.1299  -27.3352   21.3766 C   0  0  0  0  0  0  0  0  0  0  0  0
  -23.3970  -31.5461   24.6828 C   0  0  0  0  0  0  0  0  0  0  0  0
  -30.2322  -26.6967   20.9174 C   0  0  0  0  0  0  0  0  0  1  0  0
  -32.2084  -26.0450   19.3884 C   0  0  2  0  0  0  0  0  0  0  0  0
  -21.5364  -28.0633   21.6426 C   0  0  1  0  0  0  0  0  0  0  0  0
  -21.3705  -31.5048   23.2233 C   0  0  2  0  0  0  0  0  0  0  0  0
  -20.4533  -27.6020   20.6269 C   0  0  0  0  0  0  0  0  0  0  0  0
  -26.8146  -16.8859   20.7818 N   0  0  0  0  0  0  0  0  0  0  0  0
  -30.7992  -23.8635   18.2594 N   0  0  0  0  0  0  0  0  0  0  0  0
  -28.0060  -17.4830   20.6081 N   0  0  0  0  0  0  0  0  0  0  0  0
  -23.1810  -26.5498   22.7048 N   0  0  0  0  0  0  0  0  0  0  0  0
  -28.0667  -21.2933   20.3604 N   0  0  0  0  0  0  0  0  0  0  0  0
  -30.2008  -17.1184   19.7956 N   0  0  0  0  0  0  0  0  0  0  0  0
  -28.1611  -13.1489   19.1040 N   0  0  0  0  0  0  0  0  0  0  0  0
  -29.2603  -22.0617   18.4770 N   0  0  0  0  0  0  0  0  0  0  0  0
  -32.3255  -25.6357   18.0060 N   0  0  0  0  0  0  0  0  0  0  0  0
  -22.4907  -23.2606   22.9773 N   0  0  0  0  0  0  0  0  0  0  0  0
  -21.1789  -29.2615   22.3943 N   0  0  0  0  0  0  0  0  0  0  0  0
  -22.4585  -32.3216   23.8315 N   0  3  0  0  0  0  0  0  0  0  0  0
  -30.1382  -14.2896   18.8841 O   0  0  0  0  0  0  0  0  0  0  0  0
  -24.2438  -24.0986   21.6939 O   0  0  0  0  0  0  0  0  0  0  0  0
  -30.4443  -27.5323   18.6752 O   0  0  0  0  0  0  0  0  0  0  0  0
  -20.9595  -26.5921   23.4116 O   0  0  0  0  0  0  0  0  0  0  0  0
  -23.0013  -30.5319   21.7294 O   0  0  0  0  0  0  0  0  0  0  0  0
  -29.4621  -23.1288   20.5269 O   0  0  0  0  0  0  0  0  0  0  0  0
  -22.8748  -11.9024   20.3437 O   0  0  0  0  0  0  0  0  0  0  0  0
  -29.0237  -27.4550   20.9452 O   0  0  0  0  0  0  0  0  0  1  0  0
  -24.0572   -6.7935   22.0482 F   0  0  0  0  0  0  0  0  0  0  0  0
  -21.5843  -10.8012   22.5265 F   0  0  0  0  0  0  0  0  0  0  0  0
  -31.3223  -22.9105   14.2703 F   0  0  0  0  0  0  0  0  0  0  0  0
  -32.6810  -25.0188   15.3730 F   0  0  0  0  0  0  0  0  0  0  0  0
  1  2  1  0  0  0  0
  1  5  2  0  0  0  0
  2  6  2  0  0  0  0
  3  8  2  0  0  0  0
  3 16  1  0  0  0  0
  4  9  1  0  0  0  0
  4 16  2  0  0  0  0
  5 18  1  0  0  0  0
  6 20  1  0  0  0  0
  7 10  2  0  0  0  0
  7 19  1  0  0  0  0
  8 22  1  0  0  0  0
  9 22  2  0  0  0  0
 10 23  1  0  0  0  0
 11 12  2  0  0  0  0
 11 24  1  0  0  0  0
 12 25  1  0  0  0  0
 13 21  1  0  0  0  0
 13 23  2  0  0  0  0
 14 25  2  0  0  0  0
 14 26  1  0  0  0  0
 15 27  2  0  0  0  0
 15 30  1  0  0  0  0
 16 29  1  0  0  0  0
 17 29  1  0  0  0  0
 17 32  2  0  0  0  0
 17 33  1  0  0  0  0
 18 20  2  0  0  0  0
 18 39  1  0  0  0  0
 19 21  2  0  0  0  0
 19 40  1  0  0  0  0
 20 48  1  0  0  0  0
 21 41  1  0  0  0  0
 22 80  1  0  0  0  0
 23 81  1  0  0  0  0
 24 26  2  0  0  0  0
 24 80  1  0  0  0  0
 25 82  1  0  0  0  0
 26 83  1  0  0  0  0
 27 28  1  0  0  0  0
 27 84  1  0  0  0  0
 28 31  2  0  0  0  0
 28 85  1  0  0  0  0
 29 62  2  0  0  0  0
 30 63  2  0  0  0  0
 30 69  1  0  0  0  0
 31 63  1  0  0  0  0
 31 70  1  0  0  0  0
 32 64  1  0  0  0  0
 32 67  1  0  0  0  0
 33 68  1  0  0  0  0
 33 74  2  0  0  0  0
 34 49  1  0  0  0  0
 34 71  1  0  0  0  0
 34 75  2  0  0  0  0
 35 57  1  0  0  0  0
 35 58  1  0  0  0  0
 35 76  2  0  0  0  0
 36 59  1  0  0  0  0
 36 65  1  0  0  0  0
 36 77  2  0  0  0  0
 37 60  1  0  0  0  0
 37 72  1  0  0  0  0
 37 78  2  0  0  0  0
 38 66  1  0  0  0  0
 38 69  1  0  0  0  0
 38 79  2  0  0  0  0
 39 42  1  0  0  0  0
 40 49  1  0  0  0  0
 41 65  1  0  0  0  0
 42 44  1  0  0  0  0
 43 45  1  0  0  0  0
 43 46  1  0  0  0  0
 44 48  1  0  0  0  0
 45 50  1  0  0  0  0
 46 66  1  0  0  0  0
 47 50  1  0  0  0  0
 47 66  1  0  0  0  0
 48 71  1  0  0  0  0
 49 65  1  0  0  0  0
 50 64  1  0  0  0  0
 51 58  1  0  0  0  0
 52 60  1  0  0  0  0
 53 61  1  0  0  0  0
 54 61  1  0  0  0  0
 55 61  1  0  0  0  0
 56 73  1  0  0  0  0
 57 81  1  0  0  0  0
 58 70  1  0  0  0  0
 59 61  1  0  0  0  0
 59 72  1  0  0  0  0
 60 73  1  0  0  0  0
 62 64  1  0  0  0  0
M  CHG  1  73   1
M  ISO  4  38 100  57 101  69 100  81 101
M  END
> <Batch ID>
0183

> <Smiles>
CNC(C)C(=O)NC(C(=O)N1Cc2cc([101O:1][101CH2:1]C(=O)C(C)Nc3nc([100NH:0][100C:0](=O)N4CCCC(n5nc(-c6ccc(Oc7ccc(F)cc7F)cc6)c(C(N)=O)c5N)C4)cc(F)c3F)ccc2CC1C(=O)NC1CCCc2ccccc21)C(C)(C)C

> <Shape>
0.237

> <Color>
0.057

> <Negative vol penalty>
0.000

$$$$

  -OEChem-04052304593D

 87 95  0     1  0  0  0  0  0999 V2000
  -29.6847  -36.5306   19.4303 C   0  0  0  0  0  0  0  0  0  0  0  0
  -29.7270  -35.1574   19.2112 C   0  0  0  0  0  0  0  0  0  0  0  0
  -23.2694   -9.1970   20.5934 C   0  0  0  0  0  0  0  0  0  0  0  0
  -23.0989  -10.8176   22.3771 C   0  0  0  0  0  0  0  0  0  0  0  0
  -29.1238  -37.0310   20.6045 C   0  0  0  0  0  0  0  0  0  0  0  0
  -29.2095  -34.2837   20.1669 C   0  0  0  0  0  0  0  0  0  0  0  0
  -26.3672  -28.9588   19.1315 C   0  0  0  0  0  0  0  0  0  0  0  0
  -22.4541   -8.3216   21.3108 C   0  0  0  0  0  0  0  0  0  0  0  0
  -22.2836   -9.9423   23.0945 C   0  0  0  0  0  0  0  0  0  0  0  0
  -26.8098  -27.6372   19.1654 C   0  0  0  0  0  0  0  0  0  0  0  0
  -22.7785   -6.1725   23.8993 C   0  0  0  0  0  0  0  0  0  0  0  0
  -23.1685   -4.8352   23.9693 C   0  0  0  0  0  0  0  0  0  0  0  0
  -25.9903  -27.4270   21.4245 C   0  0  0  0  0  0  0  0  0  0  0  0
  -21.1031   -4.1770   22.9025 C   0  0  0  0  0  0  0  0  0  0  0  0
  -23.5919  -10.4450   21.1265 C   0  0  0  0  0  0  0  0  0  0  0  0
  -24.0249  -12.3267   19.4594 C   0  0  0  0  0  0  0  0  0  0  0  0
  -28.5904  -36.1635   21.5708 C   0  0  0  0  0  0  0  0  0  0  0  0
  -25.7415  -29.5288   20.2495 C   0  0  0  0  0  0  0  0  0  0  0  0
  -28.6422  -34.7730   21.3558 C   0  0  0  0  0  0  0  0  0  0  0  0
  -25.5384  -28.7553   21.4013 C   0  0  0  0  0  0  0  0  0  0  0  0
  -21.9612   -8.6943   22.5613 C   0  0  0  0  0  0  0  0  0  0  0  0
  -26.6240  -26.8719   20.3130 C   0  0  0  0  0  0  0  0  0  0  0  0
  -21.5508   -6.5122   23.3310 C   0  0  0  0  0  0  0  0  0  0  0  0
  -22.3308   -3.8374   23.4709 C   0  0  0  0  0  0  0  0  0  0  0  0
  -20.7131   -5.5145   22.8325 C   0  0  0  0  0  0  0  0  0  0  0  0
  -24.4345  -11.3494   20.3862 C   0  0  0  0  0  0  0  0  0  0  0  0
  -29.4251  -19.7608   18.7945 C   0  0  0  0  0  0  0  0  0  0  0  0
  -30.7160  -19.2807   18.8664 C   0  0  0  0  0  0  0  0  0  0  0  0
  -25.1938  -12.9130   19.0395 C   0  0  0  0  0  0  0  0  0  0  0  0
  -29.6518  -17.4536   19.4489 C   0  0  0  0  0  0  0  0  0  0  0  0
  -22.7057  -12.6735   19.0176 C   0  0  0  0  0  0  0  0  0  0  0  0
  -28.9101  -21.1063   18.4320 C   0  0  0  0  0  0  0  0  0  0  0  0
  -26.3959  -31.9602   22.1896 C   0  0  0  0  0  0  0  0  0  0  0  0
  -26.8711  -23.3821   19.3518 C   0  0  0  0  0  0  0  0  0  0  0  0
  -23.4681  -31.2712   23.4045 C   0  0  0  0  0  0  0  0  0  0  0  0
  -20.9957  -28.9662   23.8746 C   0  0  0  0  0  0  0  0  0  0  0  0
  -30.2092  -15.0854   20.1025 C   0  0  0  0  0  0  0  0  0  0  0  0
  -28.0372  -36.7491   22.8458 C   0  0  0  0  0  0  0  0  0  0  0  0
  -25.2458  -30.9475   20.1876 C   0  0  0  0  0  0  0  0  0  0  0  0
  -24.8541  -29.3139   22.6212 C   0  0  0  0  0  0  0  0  0  0  0  0
  -27.1722  -35.7730   23.6392 C   0  0  0  0  0  0  0  0  0  0  0  0
  -30.0124  -11.5459   19.7702 C   0  0  0  0  0  0  0  0  0  0  0  0
  -27.8587  -34.4149   23.7441 C   0  0  0  0  0  0  0  0  0  0  0  0
  -28.5100  -11.2596   19.8246 C   0  0  0  0  0  0  0  0  0  0  0  0
  -30.4073  -12.6839   20.7097 C   0  0  0  0  0  0  0  0  0  0  0  0
  -28.1394  -13.6390   20.5918 C   0  0  0  0  0  0  0  0  0  0  0  0
  -28.0687  -33.7944   22.3576 C   0  0  1  0  0  0  0  0  0  0  0  0
  -25.0824  -31.5840   21.5644 C   0  0  1  0  0  0  0  0  0  0  0  0
  -27.6837  -12.5436   19.6140 C   0  0  2  0  0  0  0  0  0  0  0  0
  -18.7397  -28.6863   24.9373 C   0  0  0  0  0  0  0  0  0  0  0  0
  -24.4750  -21.6844   18.5099 C   0  0  0  0  0  0  0  0  0  0  0  0
  -25.5167  -21.4673   16.2411 C   0  0  0  0  0  0  0  0  0  0  0  0
  -24.7856  -31.1036   26.1515 C   0  0  0  0  0  0  0  0  0  0  0  0
  -22.7425  -29.9185   26.9819 C   0  0  0  0  0  0  0  0  0  0  0  0
  -22.5659  -32.2555   26.1276 C   0  0  0  0  0  0  0  0  0  0  0  0
  -19.7191  -28.3532   21.2759 C   0  0  0  0  0  0  0  0  0  0  0  0
  -27.0703  -24.8672   19.1139 C   0  0  0  0  0  0  0  0  0  1  0  0
  -26.8788  -22.4943   18.1104 C   0  0  2  0  0  0  0  0  0  0  0  0
  -22.9492  -30.3643   24.4940 C   0  0  1  0  0  0  0  0  0  0  0  0
  -19.4940  -29.0430   23.6659 C   0  0  2  0  0  0  0  0  0  0  0  0
  -25.4679  -22.3057   17.5223 C   0  0  0  0  0  0  0  0  0  0  0  0
  -23.2755  -30.9002   25.9166 C   0  0  0  0  0  0  0  0  0  0  0  0
  -25.7601  -11.3137   20.5460 N   0  0  0  0  0  0  0  0  0  0  0  0
  -30.8479  -17.9580   19.2419 N   0  0  0  0  0  0  0  0  0  0  0  0
  -26.1936  -12.2758   19.7138 N   0  0  0  0  0  0  0  0  0  0  0  0
  -24.3930  -30.7079   22.5138 N   0  0  0  0  0  0  0  0  0  0  0  0
  -29.5858  -13.8681   20.4494 N   0  0  0  0  0  0  0  0  0  0  0  0
  -31.8145  -20.0247   18.5932 N   0  0  0  0  0  0  0  0  0  0  0  0
  -25.4537  -13.9062   18.1629 N   0  0  0  0  0  0  0  0  0  0  0  0
  -21.6163  -11.9711   19.5507 N   0  0  0  0  0  0  0  0  0  0  0  0
  -29.3255  -16.1332   19.8462 N   0  0  0  0  0  0  0  0  0  0  0  0
  -27.5301  -21.2583   18.4597 N   0  0  0  0  0  0  0  0  0  0  0  0
  -26.8308  -33.2306   21.8634 N   0  0  0  0  0  0  0  0  0  0  0  0
  -21.5245  -30.1878   24.2342 N   0  0  0  0  0  0  0  0  0  0  0  0
  -19.0719  -28.1028   22.5895 N   0  3  0  0  0  0  0  0  0  0  0  0
  -22.5003  -13.5683   18.1628 O   0  0  0  0  0  0  0  0  0  0  0  0
  -29.7047  -21.9874   18.1147 O   0  0  0  0  0  0  0  0  0  0  0  0
  -26.9714  -31.1579   22.9153 O   0  0  0  0  0  0  0  0  0  0  0  0
  -26.6840  -22.9294   20.4815 O   0  0  0  0  0  0  0  0  0  0  0  0
  -23.0623  -32.4343   23.3415 O   0  0  0  0  0  0  0  0  0  0  0  0
  -21.6351  -27.9257   23.7364 O   0  0  0  0  0  0  0  0  0  0  0  0
  -31.4356  -15.1835   20.0110 O   0  0  0  0  0  0  0  0  0  0  0  0
  -21.1654   -7.8405   23.2615 O   0  0  0  0  0  0  0  0  0  0  0  0
  -27.0557  -25.5819   20.3490 O   0  0  0  0  0  0  0  0  0  1  0  0
  -22.7061   -2.5533   23.5368 F   0  0  0  0  0  0  0  0  0  0  0  0
  -19.5330   -5.8347   22.2843 F   0  0  0  0  0  0  0  0  0  0  0  0
  -28.3235  -18.5137   19.2100 S   0  0  0  0  0  0  0  0  0  0  0  0
  1  2  1  0  0  0  0
  1  5  2  0  0  0  0
  2  6  2  0  0  0  0
  3  8  2  0  0  0  0
  3 15  1  0  0  0  0
  4  9  1  0  0  0  0
  4 15  2  0  0  0  0
  5 17  1  0  0  0  0
  6 19  1  0  0  0  0
  7 10  2  0  0  0  0
  7 18  1  0  0  0  0
  8 21  1  0  0  0  0
  9 21  2  0  0  0  0
 10 22  1  0  0  0  0
 11 12  2  0  0  0  0
 11 23  1  0  0  0  0
 12 24  1  0  0  0  0
 13 20  1  0  0  0  0
 13 22  2  0  0  0  0
 14 24  2  0  0  0  0
 14 25  1  0  0  0  0
 15 26  1  0  0  0  0
 16 26  1  0  0  0  0
 16 29  2  0  0  0  0
 16 31  1  0  0  0  0
 17 19  2  0  0  0  0
 17 38  1  0  0  0  0
 18 20  2  0  0  0  0
 18 39  1  0  0  0  0
 19 47  1  0  0  0  0
 20 40  1  0  0  0  0
 21 83  1  0  0  0  0
 22 84  1  0  0  0  0
 23 25  2  0  0  0  0
 23 83  1  0  0  0  0
 24 85  1  0  0  0  0
 25 86  1  0  0  0  0
 26 63  2  0  0  0  0
 27 28  2  0  0  0  0
 27 32  1  0  0  0  0
 27 87  1  0  0  0  0
 28 64  1  0  0  0  0
 28 68  1  0  0  0  0
 29 65  1  0  0  0  0
 29 69  1  0  0  0  0
 30 64  2  0  0  0  0
 30 71  1  0  0  0  0
 30 87  1  0  0  0  0
 31 70  1  0  0  0  0
 31 76  2  0  0  0  0
 32 72  1  0  0  0  0
 32 77  2  0  0  0  0
 33 48  1  0  0  0  0
 33 73  1  0  0  0  0
 33 78  2  0  0  0  0
 34 57  1  0  0  0  0
 34 58  1  0  0  0  0
 34 79  2  0  0  0  0
 35 59  1  0  0  0  0
 35 66  1  0  0  0  0
 35 80  2  0  0  0  0
 36 60  1  0  0  0  0
 36 74  1  0  0  0  0
 36 81  2  0  0  0  0
 37 67  1  0  0  0  0
 37 71  1  0  0  0  0
 37 82  2  0  0  0  0
 38 41  1  0  0  0  0
 39 48  1  0  0  0  0
 40 66  1  0  0  0  0
 41 43  1  0  0  0  0
 42 44  1  0  0  0  0
 42 45  1  0  0  0  0
 43 47  1  0  0  0  0
 44 49  1  0  0  0  0
 45 67  1  0  0  0  0
 46 49  1  0  0  0  0
 46 67  1  0  0  0  0
 47 73  1  0  0  0  0
 48 66  1  0  0  0  0
 49 65  1  0  0  0  0
 50 60  1  0  0  0  0
 51 61  1  0  0  0  0
 52 61  1  0  0  0  0
 53 62  1  0  0  0  0
 54 62  1  0  0  0  0
 55 62  1  0  0  0  0
 56 75  1  0  0  0  0
 57 84  1  0  0  0  0
 58 61  1  0  0  0  0
 58 72  1  0  0  0  0
 59 62  1  0  0  0  0
 59 74  1  0  0  0  0
 60 75  1  0  0  0  0
 63 65  1  0  0  0  0
M  CHG  1  75   1
M  ISO  4  37 100  57 101  71 100  84 101
M  END
> <Batch ID>
0183

> <Smiles>
CNC(C)C(=O)NC(C(=O)N1Cc2cc([101O:1][101CH2:1]C(=O)C(NC(=O)c3sc([100NH:0][100C:0](=O)N4CCCC(n5nc(-c6ccc(Oc7ccc(F)cc7F)cc6)c(C(N)=O)c5N)C4)nc3N)C(C)C)ccc2CC1C(=O)NC1CCCc2ccccc21)C(C)(C)C

> <Shape>
0.289

> <Color>
0.127

> <Negative vol penalty>
0.000

$$$$

  -OEChem-04052304593D

 87 95  0     1  0  0  0  0  0999 V2000
  -29.1584  -24.7628   16.6658 C   0  0  0  0  0  0  0  0  0  0  0  0
  -27.9337  -25.2900   17.0598 C   0  0  0  0  0  0  0  0  0  0  0  0
  -23.9808  -12.7173   18.5953 C   0  0  0  0  0  0  0  0  0  0  0  0
  -24.0936  -12.1653   20.9447 C   0  0  0  0  0  0  0  0  0  0  0  0
  -30.2955  -25.0018   17.4346 C   0  0  0  0  0  0  0  0  0  0  0  0
  -27.8479  -26.0661   18.2162 C   0  0  0  0  0  0  0  0  0  0  0  0
  -23.5359  -28.2532   19.1252 C   0  0  0  0  0  0  0  0  0  0  0  0
  -23.7682  -11.3731   18.2897 C   0  0  0  0  0  0  0  0  0  0  0  0
  -23.8809  -10.8210   20.6391 C   0  0  0  0  0  0  0  0  0  0  0  0
  -22.4059  -27.5489   19.5387 C   0  0  0  0  0  0  0  0  0  0  0  0
  -23.0081   -7.2942   20.5069 C   0  0  0  0  0  0  0  0  0  0  0  0
  -22.0890   -6.5892   21.2839 C   0  0  0  0  0  0  0  0  0  0  0  0
  -26.2349  -22.6026   20.8292 C   0  0  0  0  0  0  0  0  0  0  0  0
  -25.0107  -23.0354   21.4159 C   0  0  0  0  0  0  0  0  0  0  0  0
  -22.7484  -28.3350   21.7935 C   0  0  0  0  0  0  0  0  0  0  0  0
  -20.3474   -8.1254   20.6176 C   0  0  0  0  0  0  0  0  0  0  0  0
  -24.1436  -13.1134   19.9228 C   0  0  0  0  0  0  0  0  0  0  0  0
  -23.3861  -15.4762   20.5153 C   0  0  0  0  0  0  0  0  0  0  0  0
  -30.2204  -25.7710   18.6075 C   0  0  0  0  0  0  0  0  0  0  0  0
  -24.2881  -28.9961   20.0465 C   0  0  0  0  0  0  0  0  0  0  0  0
  -28.9888  -26.3386   18.9926 C   0  0  0  0  0  0  0  0  0  0  0  0
  -23.8860  -29.0499   21.3887 C   0  0  0  0  0  0  0  0  0  0  0  0
  -23.7182  -10.4250   19.3115 C   0  0  0  0  0  0  0  0  0  0  0  0
  -22.0137  -27.5874   20.8735 C   0  0  0  0  0  0  0  0  0  0  0  0
  -22.5969   -8.4148   19.7852 C   0  0  0  0  0  0  0  0  0  0  0  0
  -20.7586   -7.0048   21.3392 C   0  0  0  0  0  0  0  0  0  0  0  0
  -21.2666   -8.8304   19.8406 C   0  0  0  0  0  0  0  0  0  0  0  0
  -24.3638  -14.5018   20.2392 C   0  0  0  0  0  0  0  0  0  0  0  0
  -26.1583  -22.5455   19.4550 C   0  0  0  0  0  0  0  0  0  0  0  0
  -24.1024  -16.6241   20.7515 C   0  0  0  0  0  0  0  0  0  0  0  0
  -24.0450  -23.2927   20.4676 C   0  0  0  0  0  0  0  0  0  0  0  0
  -21.9580  -15.3547   20.5548 C   0  0  0  0  0  0  0  0  0  0  0  0
  -27.2805  -28.8787   21.1121 C   0  0  0  0  0  0  0  0  0  0  0  0
  -26.4344  -31.6169   22.6316 C   0  0  0  0  0  0  0  0  0  0  0  0
  -27.1673  -19.9619   17.2721 C   0  0  0  0  0  0  0  0  0  0  0  0
  -22.0262  -24.0286   21.7826 C   0  0  0  0  0  0  0  0  0  0  0  0
  -23.9456  -33.5685   23.9137 C   0  0  0  0  0  0  0  0  0  0  0  0
  -28.1854  -20.1493   19.5014 C   0  0  0  0  0  0  0  0  0  0  0  0
  -31.4839  -26.0049   19.3976 C   0  0  0  0  0  0  0  0  0  0  0  0
  -25.4891  -29.7719   19.5794 C   0  0  0  0  0  0  0  0  0  0  0  0
  -24.6477  -29.8490   22.4133 C   0  0  0  0  0  0  0  0  0  0  0  0
  -31.2147  -26.4590   20.8285 C   0  0  0  0  0  0  0  0  0  0  0  0
  -29.0537  -17.3447   21.4391 C   0  0  0  0  0  0  0  0  0  0  0  0
  -30.2185  -27.6088   20.8302 C   0  0  0  0  0  0  0  0  0  0  0  0
  -27.8399  -16.4242   21.3163 C   0  0  0  0  0  0  0  0  0  0  0  0
  -29.3484  -18.0451   20.1174 C   0  0  0  0  0  0  0  0  0  0  0  0
  -26.9689  -17.9088   19.4469 C   0  0  0  0  0  0  0  0  0  0  0  0
  -28.8657  -27.1602   20.2631 C   0  0  1  0  0  0  0  0  0  0  0  0
  -26.4755  -30.0793   20.7019 C   0  0  1  0  0  0  0  0  0  0  0  0
  -26.6226  -17.1860   20.7632 C   0  0  1  0  0  0  0  0  0  0  0  0
  -25.8651  -20.2610   16.5676 C   0  0  0  0  0  0  0  0  0  0  0  0
  -19.8411  -24.7294   22.8156 C   0  0  0  0  0  0  0  0  0  0  0  0
  -23.5662  -35.7316   25.1280 C   0  0  0  0  0  0  0  0  0  0  0  0
  -19.2497  -25.9224   19.8745 C   0  0  0  0  0  0  0  0  0  0  0  0
  -27.3931  -30.3264   25.2249 C   0  0  0  0  0  0  0  0  0  0  0  0
  -26.1425  -32.0923   26.4843 C   0  0  0  0  0  0  0  0  0  0  0  0
  -28.0148  -32.7349   24.9663 C   0  0  0  0  0  0  0  0  0  0  0  0
  -22.3154  -34.6605   21.6981 C   0  0  0  0  0  0  0  0  0  0  0  0
  -27.2217  -22.1400   18.4756 C   0  0  0  0  0  0  0  0  0  0  0  0
  -25.8261  -31.9516   23.9721 C   0  0  1  0  0  0  0  0  0  0  0  0
  -20.5852  -24.4807   21.5010 C   0  0  1  0  0  0  0  0  0  0  0  0
  -23.6535  -35.0513   23.7707 C   0  0  2  0  0  0  0  0  0  0  0  0
  -20.5929  -25.7059   20.5612 C   0  0  2  0  0  0  0  0  0  1  0  0
  -26.8307  -31.7596   25.1432 C   0  0  0  0  0  0  0  0  0  0  0  0
  -25.6066  -14.9882   20.2943 N   0  0  0  0  0  0  0  0  0  0  0  0
  -25.4145  -16.2809   20.6077 N   0  0  0  0  0  0  0  0  0  0  0  0
  -25.8185  -30.5854   21.9088 N   0  0  0  0  0  0  0  0  0  0  0  0
  -28.1659  -18.7475   19.6180 N   0  0  0  0  0  0  0  0  0  0  0  0
  -23.7316  -17.8835   21.0659 N   0  0  0  0  0  0  0  0  0  0  0  0
  -21.3863  -14.1033   20.2875 N   0  0  0  0  0  0  0  0  0  0  0  0
  -22.7533  -23.7211   20.6000 N   0  0  0  0  0  0  0  0  0  0  0  0
  -28.0197  -28.3200   20.0869 N   0  0  0  0  0  0  0  0  0  0  0  0
  -25.2980  -33.3064   23.8539 N   0  0  0  0  0  0  0  0  0  0  0  0
  -27.4173  -20.6924   18.4491 N   0  0  0  0  0  0  0  0  0  0  0  0
  -22.3614  -35.2583   23.0574 N   0  3  0  0  0  0  0  0  0  0  0  0
  -21.2103  -16.3307   20.8033 O   0  0  0  0  0  0  0  0  0  0  0  0
  -27.2356  -28.4891   22.2731 O   0  0  0  0  0  0  0  0  0  0  0  0
  -27.4154  -32.2522   22.2370 O   0  0  0  0  0  0  0  0  0  0  0  0
  -27.9332  -19.1170   16.8022 O   0  0  0  0  0  0  0  0  0  0  0  0
  -22.4680  -23.9678   22.9265 O   0  0  0  0  0  0  0  0  0  0  0  0
  -23.0627  -32.7274   24.0671 O   0  0  0  0  0  0  0  0  0  0  0  0
  -28.8605  -20.8714   20.2440 O   0  0  0  0  0  0  0  0  0  0  0  0
  -23.5105   -9.1132   19.0136 O   0  0  0  0  0  0  0  0  0  0  0  0
  -20.9055  -26.8966   21.2821 O   0  0  0  0  0  0  0  0  0  1  0  0
  -19.8758   -6.3268   22.0842 F   0  0  0  0  0  0  0  0  0  0  0  0
  -20.8654   -9.9056   19.1485 F   0  0  0  0  0  0  0  0  0  0  0  0
  -24.6153  -23.0125   18.8775 S   0  0  0  0  0  0  0  0  0  0  0  0
  1  2  1  0  0  0  0
  1  5  2  0  0  0  0
  2  6  2  0  0  0  0
  3  8  2  0  0  0  0
  3 17  1  0  0  0  0
  4  9  1  0  0  0  0
  4 17  2  0  0  0  0
  5 19  1  0  0  0  0
  6 21  1  0  0  0  0
  7 10  2  0  0  0  0
  7 20  1  0  0  0  0
  8 23  1  0  0  0  0
  9 23  2  0  0  0  0
 10 24  1  0  0  0  0
 11 12  2  0  0  0  0
 11 25  1  0  0  0  0
 12 26  1  0  0  0  0
 13 14  1  0  0  0  0
 13 29  2  0  0  0  0
 14 31  2  0  0  0  0
 15 22  1  0  0  0  0
 15 24  2  0  0  0  0
 16 26  2  0  0  0  0
 16 27  1  0  0  0  0
 17 28  1  0  0  0  0
 18 28  1  0  0  0  0
 18 30  2  0  0  0  0
 18 32  1  0  0  0  0
 19 21  2  0  0  0  0
 19 39  1  0  0  0  0
 20 22  2  0  0  0  0
 20 40  1  0  0  0  0
 21 48  1  0  0  0  0
 22 41  1  0  0  0  0
 23 83  1  0  0  0  0
 24 84  1  0  0  0  0
 25 27  2  0  0  0  0
 25 83  1  0  0  0  0
 26 85  1  0  0  0  0
 27 86  1  0  0  0  0
 28 65  2  0  0  0  0
 29 59  1  0  0  0  0
 29 87  1  0  0  0  0
 30 66  1  0  0  0  0
 30 69  1  0  0  0  0
 31 71  1  0  0  0  0
 31 87  1  0  0  0  0
 32 70  1  0  0  0  0
 32 76  2  0  0  0  0
 33 49  1  0  0  0  0
 33 72  1  0  0  0  0
 33 77  2  0  0  0  0
 34 60  1  0  0  0  0
 34 67  1  0  0  0  0
 34 78  2  0  0  0  0
 35 51  1  0  0  0  0
 35 74  1  0  0  0  0
 35 79  2  0  0  0  0
 36 61  1  0  0  0  0
 36 71  1  0  0  0  0
 36 80  2  0  0  0  0
 37 62  1  0  0  0  0
 37 73  1  0  0  0  0
 37 81  2  0  0  0  0
 38 68  1  0  0  0  0
 38 74  1  0  0  0  0
 38 82  2  0  0  0  0
 39 42  1  0  0  0  0
 40 49  1  0  0  0  0
 41 67  1  0  0  0  0
 42 44  1  0  0  0  0
 43 45  1  0  0  0  0
 43 46  1  0  0  0  0
 44 48  1  0  0  0  0
 45 50  1  0  0  0  0
 46 68  1  0  0  0  0
 47 50  1  0  0  0  0
 47 68  1  0  0  0  0
 48 72  1  0  0  0  0
 49 67  1  0  0  0  0
 50 66  1  0  0  0  0
 52 61  1  0  0  0  0
 53 62  1  0  0  0  0
 54 63  1  0  0  0  0
 55 64  1  0  0  0  0
 56 64  1  0  0  0  0
 57 64  1  0  0  0  0
 58 75  1  0  0  0  0
 59 74  1  0  0  0  0
 60 64  1  0  0  0  0
 60 73  1  0  0  0  0
 61 63  1  0  0  0  0
 62 75  1  0  0  0  0
 63 84  1  0  0  0  0
 65 66  1  0  0  0  0
M  CHG  1  75   1
M  ISO  4  38 100  63 101  74 100  84 101
M  END
> <Batch ID>
0183

> <Smiles>
CNC(C)C(=O)NC(C(=O)N1Cc2cc([101O:1][101CH:1](C)C(C)C(=O)Nc3ccc(C[100N:0](C(C)=O)[100C:0](=O)N4CCCC(n5nc(-c6ccc(Oc7ccc(F)cc7F)cc6)c(C(N)=O)c5N)C4)s3)ccc2CC1C(=O)NC1CCCc2ccccc21)C(C)(C)C

> <Shape>
0.298

> <Color>
0.078

> <Negative vol penalty>
0.000

$$$$

  -OEChem-04052304593D

 87 95  0     1  0  0  0  0  0999 V2000
  -24.2598   -6.9548   24.3208 C   0  0  0  0  0  0  0  0  0  0  0  0
  -25.4550   -7.5865   23.9923 C   0  0  0  0  0  0  0  0  0  0  0  0
  -24.9948  -31.1189   21.0226 C   0  0  0  0  0  0  0  0  0  0  0  0
  -23.7767  -29.3040   22.0518 C   0  0  0  0  0  0  0  0  0  0  0  0
  -23.1074   -7.2180   23.5815 C   0  0  0  0  0  0  0  0  0  0  0  0
  -25.4986   -8.4810   22.9234 C   0  0  0  0  0  0  0  0  0  0  0  0
  -28.9110  -13.5488   22.5010 C   0  0  0  0  0  0  0  0  0  0  0  0
  -24.1553  -32.0387   21.6508 C   0  0  0  0  0  0  0  0  0  0  0  0
  -22.9371  -30.2238   22.6801 C   0  0  0  0  0  0  0  0  0  0  0  0
  -30.1282  -13.8105   21.8734 C   0  0  0  0  0  0  0  0  0  0  0  0
  -22.5585  -34.8752   23.2693 C   0  0  0  0  0  0  0  0  0  0  0  0
  -23.1491  -35.9853   23.8731 C   0  0  0  0  0  0  0  0  0  0  0  0
  -28.9467  -14.6647   19.9515 C   0  0  0  0  0  0  0  0  0  0  0  0
  -24.4100  -34.5239   25.3263 C   0  0  0  0  0  0  0  0  0  0  0  0
  -27.8114  -20.7887   16.3655 C   0  0  0  0  0  0  0  0  0  0  0  0
  -24.8055  -29.7515   21.2231 C   0  0  0  0  0  0  0  0  0  0  0  0
  -26.8787  -28.2727   21.0712 C   0  0  0  0  0  0  0  0  0  0  0  0
  -23.1347   -8.1234   22.5091 C   0  0  0  0  0  0  0  0  0  0  0  0
  -27.7004  -13.8336   21.8531 C   0  0  0  0  0  0  0  0  0  0  0  0
  -24.3458   -8.7555   22.1682 C   0  0  0  0  0  0  0  0  0  0  0  0
  -27.7156  -14.4081   20.5741 C   0  0  0  0  0  0  0  0  0  0  0  0
  -27.6846  -21.6111   17.4633 C   0  0  0  0  0  0  0  0  0  0  0  0
  -23.1264  -31.5912   22.4795 C   0  0  0  0  0  0  0  0  0  0  0  0
  -30.1462  -14.3658   20.5973 C   0  0  0  0  0  0  0  0  0  0  0  0
  -22.8937  -33.5895   23.6939 C   0  0  0  0  0  0  0  0  0  0  0  0
  -24.0748  -35.8096   24.9016 C   0  0  0  0  0  0  0  0  0  0  0  0
  -23.8194  -33.4139   24.7224 C   0  0  0  0  0  0  0  0  0  0  0  0
  -28.3248  -21.0689   18.6150 C   0  0  0  0  0  0  0  0  0  0  0  0
  -25.6721  -28.8008   20.5740 C   0  0  0  0  0  0  0  0  0  0  0  0
  -28.9163  -19.8525   18.3536 C   0  0  0  0  0  0  0  0  0  0  0  0
  -27.3128  -27.4210   20.0851 C   0  0  0  0  0  0  0  0  0  0  0  0
  -27.5471  -28.5292   22.3134 C   0  0  0  0  0  0  0  0  0  0  0  0
  -29.6527  -19.0541   19.3550 C   0  0  0  0  0  0  0  0  0  0  0  0
  -25.2193  -12.1045   20.8743 C   0  0  0  0  0  0  0  0  0  0  0  0
  -23.9587  -15.0141   20.1907 C   0  0  0  0  0  0  0  0  0  0  0  0
  -24.4941  -18.3057   19.4656 C   0  0  0  0  0  0  0  0  0  0  0  0
  -30.9303  -16.9672   19.7918 C   0  0  0  0  0  0  0  0  0  0  0  0
  -26.3513  -23.4235   16.3303 C   0  0  0  0  0  0  0  0  0  0  0  0
  -21.8744   -8.3399   21.7095 C   0  0  0  0  0  0  0  0  0  0  0  0
  -26.3962  -13.5702   22.5544 C   0  0  0  0  0  0  0  0  0  0  0  0
  -26.4438  -14.7511   19.8437 C   0  0  0  0  0  0  0  0  0  0  0  0
  -21.9192   -9.5848   20.8271 C   0  0  0  0  0  0  0  0  0  0  0  0
  -25.6832  -26.7765   15.3363 C   0  0  0  0  0  0  0  0  0  0  0  0
  -23.2397   -9.6528   20.0665 C   0  0  0  0  0  0  0  0  0  0  0  0
  -25.7200  -27.5586   16.6512 C   0  0  0  0  0  0  0  0  0  0  0  0
  -25.0678  -25.3902   15.5180 C   0  0  0  0  0  0  0  0  0  0  0  0
  -25.7083  -25.3596   17.8967 C   0  0  0  0  0  0  0  0  0  0  0  0
  -24.4276   -9.7509   21.0313 C   0  0  1  0  0  0  0  0  0  0  0  0
  -25.2201  -13.4236   21.5937 C   0  0  1  0  0  0  0  0  0  0  0  0
  -26.3792  -26.7377   17.7769 C   0  0  2  0  0  0  0  0  0  0  0  0
  -23.2696  -20.4269   18.9194 C   0  0  0  0  0  0  0  0  0  0  0  0
  -23.4564  -13.9924   17.3598 C   0  0  0  0  0  0  0  0  0  0  0  0
  -23.1385  -16.3673   16.6339 C   0  0  0  0  0  0  0  0  0  0  0  0
  -21.5977  -15.3633   18.3193 C   0  0  0  0  0  0  0  0  0  0  0  0
  -25.5634  -19.6764   21.8607 C   0  0  0  0  0  0  0  0  0  0  0  0
  -23.9692  -15.9283   18.9893 C   0  0  1  0  0  0  0  0  0  0  0  0
  -23.8740  -19.5739   20.0238 C   0  0  2  0  0  0  0  0  0  0  0  0
  -31.3665  -15.7137   19.0644 C   0  0  1  0  0  0  0  0  0  1  0  0
  -23.0646  -15.4046   17.8383 C   0  0  0  0  0  0  0  0  0  0  0  0
  -32.7613  -15.8490   18.4947 C   0  0  0  0  0  0  0  0  0  0  0  0
  -25.3599  -28.3245   19.3658 N   0  0  0  0  0  0  0  0  0  0  0  0
  -26.3766  -27.4883   19.0955 N   0  0  0  0  0  0  0  0  0  0  0  0
  -25.1939  -14.4690   20.5687 N   0  0  0  0  0  0  0  0  0  0  0  0
  -25.7454  -24.6693   16.5979 N   0  0  0  0  0  0  0  0  0  0  0  0
  -28.4003  -26.6285   19.9765 N   0  0  0  0  0  0  0  0  0  0  0  0
  -26.9632  -29.4320   23.2124 N   0  0  0  0  0  0  0  0  0  0  0  0
  -26.9934  -22.8474   17.4259 N   0  0  0  0  0  0  0  0  0  0  0  0
  -30.1801  -17.8853   18.9659 N   0  0  0  0  0  0  0  0  0  0  0  0
  -24.5513  -11.0981   21.5454 N   0  0  0  0  0  0  0  0  0  0  0  0
  -23.6042  -17.2525   19.4809 N   0  0  0  0  0  0  0  0  0  0  0  0
  -29.7485  -19.5440   20.5906 N   0  3  0  0  0  0  0  0  0  0  0  0
  -24.9033  -20.3846   20.7339 N   0  3  0  0  0  0  0  0  0  0  0  0
  -28.6385  -27.9866   22.6100 O   0  0  0  0  0  0  0  0  0  0  0  0
  -25.7818  -12.0073   19.7899 O   0  0  0  0  0  0  0  0  0  0  0  0
  -22.8950  -14.7975   20.7765 O   0  0  0  0  0  0  0  0  0  0  0  0
  -25.6509  -18.2554   19.0535 O   0  0  0  0  0  0  0  0  0  0  0  0
  -31.1510  -17.2030   20.9716 O   0  0  0  0  0  0  0  0  0  0  0  0
  -26.3276  -22.9187   15.2048 O   0  0  0  0  0  0  0  0  0  0  0  0
  -22.3071  -32.4885   23.0929 O   0  0  0  0  0  0  0  0  0  0  0  0
  -31.3328  -14.6216   19.9822 O   0  0  0  0  0  0  0  0  0  1  0  0
  -24.6430  -36.8757   25.4804 F   0  0  0  0  0  0  0  0  0  0  0  0
  -24.1463  -32.1811   25.1339 F   0  0  0  0  0  0  0  0  0  0  0  0
  -28.3478  -21.6702   19.8070 F   0  0  0  0  0  0  0  0  0  0  0  0
  -32.8348  -16.8525   17.5945 F   0  0  0  0  0  0  0  0  0  0  0  0
  -33.6542  -16.1106   19.4758 F   0  0  0  0  0  0  0  0  0  0  0  0
  -33.1587  -14.7121   17.8836 F   0  0  0  0  0  0  0  0  0  0  0  0
  -28.6990  -19.3692   16.7253 S   0  0  0  0  0  0  0  0  0  0  0  0
  1  2  1  0  0  0  0
  1  5  2  0  0  0  0
  2  6  2  0  0  0  0
  3  8  2  0  0  0  0
  3 16  1  0  0  0  0
  4  9  1  0  0  0  0
  4 16  2  0  0  0  0
  5 18  1  0  0  0  0
  6 20  1  0  0  0  0
  7 10  2  0  0  0  0
  7 19  1  0  0  0  0
  8 23  1  0  0  0  0
  9 23  2  0  0  0  0
 10 24  1  0  0  0  0
 11 12  2  0  0  0  0
 11 25  1  0  0  0  0
 12 26  1  0  0  0  0
 13 21  1  0  0  0  0
 13 24  2  0  0  0  0
 14 26  2  0  0  0  0
 14 27  1  0  0  0  0
 15 22  2  0  0  0  0
 15 87  1  0  0  0  0
 16 29  1  0  0  0  0
 17 29  1  0  0  0  0
 17 31  2  0  0  0  0
 17 32  1  0  0  0  0
 18 20  2  0  0  0  0
 18 39  1  0  0  0  0
 19 21  2  0  0  0  0
 19 40  1  0  0  0  0
 20 48  1  0  0  0  0
 21 41  1  0  0  0  0
 22 28  1  0  0  0  0
 22 67  1  0  0  0  0
 23 79  1  0  0  0  0
 24 80  1  0  0  0  0
 25 27  2  0  0  0  0
 25 79  1  0  0  0  0
 26 81  1  0  0  0  0
 27 82  1  0  0  0  0
 28 30  2  0  0  0  0
 28 83  1  0  0  0  0
 29 61  2  0  0  0  0
 30 33  1  0  0  0  0
 30 87  1  0  0  0  0
 31 62  1  0  0  0  0
 31 65  1  0  0  0  0
 32 66  1  0  0  0  0
 32 73  2  0  0  0  0
 33 68  1  0  0  0  0
 33 71  2  0  0  0  0
 34 49  1  0  0  0  0
 34 69  1  0  0  0  0
 34 74  2  0  0  0  0
 35 56  1  0  0  0  0
 35 63  1  0  0  0  0
 35 75  2  0  0  0  0
 36 57  1  0  0  0  0
 36 70  1  0  0  0  0
 36 76  2  0  0  0  0
 37 58  1  0  0  0  0
 37 68  1  0  0  0  0
 37 77  2  0  0  0  0
 38 64  1  0  0  0  0
 38 67  1  0  0  0  0
 38 78  2  0  0  0  0
 39 42  1  0  0  0  0
 40 49  1  0  0  0  0
 41 63  1  0  0  0  0
 42 44  1  0  0  0  0
 43 45  1  0  0  0  0
 43 46  1  0  0  0  0
 44 48  1  0  0  0  0
 45 50  1  0  0  0  0
 46 64  1  0  0  0  0
 47 50  1  0  0  0  0
 47 64  1  0  0  0  0
 48 69  1  0  0  0  0
 49 63  1  0  0  0  0
 50 62  1  0  0  0  0
 51 57  1  0  0  0  0
 52 59  1  0  0  0  0
 53 59  1  0  0  0  0
 54 59  1  0  0  0  0
 55 72  1  0  0  0  0
 56 59  1  0  0  0  0
 56 70  1  0  0  0  0
 57 72  1  0  0  0  0
 58 60  1  0  0  0  0
 58 80  1  0  0  0  0
 60 84  1  0  0  0  0
 60 85  1  0  0  0  0
 60 86  1  0  0  0  0
 61 62  1  0  0  0  0
M  CHG  2  71   1  72   1
M  ISO  4  38 100  58 101  67 100  80 101
M  END
> <Batch ID>
0183

> <Smiles>
CNC(C)C(=O)NC(C(=O)N1Cc2cc([101O:1][101CH:1](C(=O)NC(=N)c3scc([100NH:0][100C:0](=O)N4CCCC(n5nc(-c6ccc(Oc7ccc(F)cc7F)cc6)c(C(N)=O)c5N)C4)c3F)C(F)(F)F)ccc2CC1C(=O)NC1CCCc2ccccc21)C(C)(C)C

> <Shape>
0.248

> <Color>
0.103

> <Negative vol penalty>
0.000

$$$$

  -OEChem-04052304593D

 86 94  0     1  0  0  0  0  0999 V2000
  -18.0529  -33.2814   23.1085 C   0  0  0  0  0  0  0  0  0  0  0  0
  -19.2563  -33.3409   22.4130 C   0  0  0  0  0  0  0  0  0  0  0  0
  -23.8395  -11.8310   19.7341 C   0  0  0  0  0  0  0  0  0  0  0  0
  -25.0872  -11.8571   21.8028 C   0  0  0  0  0  0  0  0  0  0  0  0
  -17.8369  -32.2666   24.0399 C   0  0  0  0  0  0  0  0  0  0  0  0
  -20.2448  -32.3863   22.6493 C   0  0  0  0  0  0  0  0  0  0  0  0
  -25.4794  -28.8230   19.2999 C   0  0  0  0  0  0  0  0  0  0  0  0
  -23.7406  -10.4419   19.8112 C   0  0  0  0  0  0  0  0  0  0  0  0
  -24.9883  -10.4679   21.8799 C   0  0  0  0  0  0  0  0  0  0  0  0
  -26.8388  -28.5390   19.4230 C   0  0  0  0  0  0  0  0  0  0  0  0
  -22.6685   -8.1841   22.7873 C   0  0  0  0  0  0  0  0  0  0  0  0
  -22.3273   -7.6277   24.0200 C   0  0  0  0  0  0  0  0  0  0  0  0
  -26.3237  -26.7854   20.9974 C   0  0  0  0  0  0  0  0  0  0  0  0
  -24.4108   -6.4047   24.0447 C   0  0  0  0  0  0  0  0  0  0  0  0
  -24.5129  -12.5387   20.7299 C   0  0  0  0  0  0  0  0  0  0  0  0
  -23.7189  -14.9209   21.1798 C   0  0  0  0  0  0  0  0  0  0  0  0
  -18.8195  -31.2934   24.2807 C   0  0  0  0  0  0  0  0  0  0  0  0
  -24.5312  -28.0964   20.0342 C   0  0  0  0  0  0  0  0  0  0  0  0
  -20.0423  -31.3584   23.5858 C   0  0  0  0  0  0  0  0  0  0  0  0
  -24.9527  -27.0605   20.8799 C   0  0  0  0  0  0  0  0  0  0  0  0
  -24.3150   -9.7603   20.8841 C   0  0  0  0  0  0  0  0  0  0  0  0
  -27.2614  -27.5220   20.2740 C   0  0  0  0  0  0  0  0  0  0  0  0
  -23.8808   -7.8508   22.1832 C   0  0  0  0  0  0  0  0  0  0  0  0
  -23.1984   -6.7380   24.6487 C   0  0  0  0  0  0  0  0  0  0  0  0
  -24.7520   -6.9611   22.8119 C   0  0  0  0  0  0  0  0  0  0  0  0
  -24.6159  -13.9737   20.6505 C   0  0  0  0  0  0  0  0  0  0  0  0
  -27.3936  -22.9943   23.6686 C   0  0  0  0  0  0  0  0  0  0  0  0
  -28.3160  -23.2921   22.6875 C   0  0  0  0  0  0  0  0  0  0  0  0
  -24.2614  -16.1356   20.8383 C   0  0  0  0  0  0  0  0  0  0  0  0
  -27.8958  -21.2143   22.1252 C   0  0  0  0  0  0  0  0  0  0  0  0
  -22.5041  -14.7206   21.9145 C   0  0  0  0  0  0  0  0  0  0  0  0
  -22.3791  -28.8229   22.2578 C   0  0  0  0  0  0  0  0  0  0  0  0
  -21.5123  -25.7203   21.8776 C   0  0  0  0  0  0  0  0  0  0  0  0
  -29.8880  -24.9319   21.5992 C   0  0  0  0  0  0  0  0  0  0  0  0
  -22.2282  -22.2179   21.3892 C   0  0  0  0  0  0  0  0  0  0  0  0
  -28.6249  -19.5624   20.3685 C   0  0  0  0  0  0  0  0  0  0  0  0
  -18.5589  -30.2432   25.3313 C   0  0  0  0  0  0  0  0  0  0  0  0
  -23.0666  -28.3973   19.8699 C   0  0  0  0  0  0  0  0  0  0  0  0
  -23.9733  -26.2374   21.6747 C   0  0  0  0  0  0  0  0  0  0  0  0
  -19.5103  -29.0521   25.2510 C   0  0  0  0  0  0  0  0  0  0  0  0
  -28.0601  -17.2800   17.6948 C   0  0  0  0  0  0  0  0  0  0  0  0
  -20.9507  -29.5291   25.0938 C   0  0  0  0  0  0  0  0  0  0  0  0
  -27.0399  -16.2943   18.2689 C   0  0  0  0  0  0  0  0  0  0  0  0
  -29.0693  -17.7304   18.7495 C   0  0  0  0  0  0  0  0  0  0  0  0
  -27.4602  -17.2770   20.5590 C   0  0  0  0  0  0  0  0  0  0  0  0
  -21.1292  -30.3267   23.7964 C   0  0  1  0  0  0  0  0  0  0  0  0
  -22.2250  -27.9351   21.0554 C   0  0  1  0  0  0  0  0  0  0  0  0
  -26.3836  -16.8449   19.5502 C   0  0  2  0  0  0  0  0  0  0  0  0
  -20.6832  -20.2618   21.0993 C   0  0  0  0  0  0  0  0  0  0  0  0
  -29.6461  -28.8048   21.8736 C   0  0  0  0  0  0  0  0  0  0  0  0
  -21.8309  -25.3918   24.8943 C   0  0  0  0  0  0  0  0  0  0  0  0
  -21.8514  -22.9118   24.5519 C   0  0  0  0  0  0  0  0  0  0  0  0
  -19.8347  -24.2391   23.9245 C   0  0  0  0  0  0  0  0  0  0  0  0
  -23.5090  -21.4361   18.8382 C   0  0  0  0  0  0  0  0  0  0  0  0
  -30.3169  -26.3791   21.8205 C   0  0  0  0  0  0  0  0  0  0  0  0
  -21.9216  -24.4109   22.5077 C   0  0  1  0  0  0  0  0  0  0  0  0
  -21.5617  -21.2841   20.3951 C   0  0  2  0  0  0  0  0  0  0  0  0
  -29.1611  -27.3719   21.6970 C   0  0  2  0  0  0  0  0  0  1  0  0
  -26.8587  -23.8305   24.7625 C   0  0  0  0  0  0  0  0  0  0  0  0
  -21.3785  -24.2550   23.9562 C   0  0  0  0  0  0  0  0  0  0  0  0
  -25.6495  -14.5381   20.0205 N   0  0  0  0  0  0  0  0  0  0  0  0
  -28.6056  -22.2725   21.8018 N   0  0  0  0  0  0  0  0  0  0  0  0
  -25.4055  -15.8532   20.1517 N   0  0  0  0  0  0  0  0  0  0  0  0
  -22.5527  -26.5740   21.4848 N   0  0  0  0  0  0  0  0  0  0  0  0
  -28.3753  -18.2439   19.9325 N   0  0  0  0  0  0  0  0  0  0  0  0
  -23.8665  -17.4072   21.0613 N   0  0  0  0  0  0  0  0  0  0  0  0
  -22.0919  -13.4074   22.1787 N   0  0  0  0  0  0  0  0  0  0  0  0
  -28.9517  -24.5497   22.5563 N   0  0  0  0  0  0  0  0  0  0  0  0
  -27.8832  -19.9510   21.4837 N   0  0  0  0  0  0  0  0  0  0  0  0
  -21.2066  -29.4333   22.6605 N   0  0  0  0  0  0  0  0  0  0  0  0
  -21.4869  -23.3630   21.5906 N   0  0  0  0  0  0  0  0  0  0  0  0
  -22.5897  -20.5532   19.6014 N   0  3  0  0  0  0  0  0  0  0  0  0
  -21.7963  -15.6777   22.3102 O   0  0  0  0  0  0  0  0  0  0  0  0
  -23.4800  -28.9439   22.7824 O   0  0  0  0  0  0  0  0  0  0  0  0
  -20.3136  -25.9730   21.7325 O   0  0  0  0  0  0  0  0  0  0  0  0
  -30.3399  -24.2486   20.6865 O   0  0  0  0  0  0  0  0  0  0  0  0
  -23.2976  -21.9560   21.9354 O   0  0  0  0  0  0  0  0  0  0  0  0
  -29.4166  -20.3021   19.7786 O   0  0  0  0  0  0  0  0  0  0  0  0
  -24.2185   -8.4047   20.9598 O   0  0  0  0  0  0  0  0  0  0  0  0
  -28.5877  -27.2432   20.3966 O   0  0  0  0  0  0  0  0  0  1  0  0
  -22.8713   -6.2049   25.8332 F   0  0  0  0  0  0  0  0  0  0  0  0
  -25.9186   -6.6381   22.2371 F   0  0  0  0  0  0  0  0  0  0  0  0
  -27.3685  -25.1035   24.7972 F   0  0  0  0  0  0  0  0  0  0  0  0
  -25.4991  -24.0066   24.7206 F   0  0  0  0  0  0  0  0  0  0  0  0
  -27.1100  -23.3155   26.0074 F   0  0  0  0  0  0  0  0  0  0  0  0
  -26.8590  -21.3753   23.4831 S   0  0  0  0  0  0  0  0  0  0  0  0
  1  2  1  0  0  0  0
  1  5  2  0  0  0  0
  2  6  2  0  0  0  0
  3  8  2  0  0  0  0
  3 15  1  0  0  0  0
  4  9  1  0  0  0  0
  4 15  2  0  0  0  0
  5 17  1  0  0  0  0
  6 19  1  0  0  0  0
  7 10  2  0  0  0  0
  7 18  1  0  0  0  0
  8 21  1  0  0  0  0
  9 21  2  0  0  0  0
 10 22  1  0  0  0  0
 11 12  2  0  0  0  0
 11 23  1  0  0  0  0
 12 24  1  0  0  0  0
 13 20  1  0  0  0  0
 13 22  2  0  0  0  0
 14 24  2  0  0  0  0
 14 25  1  0  0  0  0
 15 26  1  0  0  0  0
 16 26  1  0  0  0  0
 16 29  2  0  0  0  0
 16 31  1  0  0  0  0
 17 19  2  0  0  0  0
 17 37  1  0  0  0  0
 18 20  2  0  0  0  0
 18 38  1  0  0  0  0
 19 46  1  0  0  0  0
 20 39  1  0  0  0  0
 21 79  1  0  0  0  0
 22 80  1  0  0  0  0
 23 25  2  0  0  0  0
 23 79  1  0  0  0  0
 24 81  1  0  0  0  0
 25 82  1  0  0  0  0
 26 61  2  0  0  0  0
 27 28  2  0  0  0  0
 27 59  1  0  0  0  0
 27 86  1  0  0  0  0
 28 62  1  0  0  0  0
 28 68  1  0  0  0  0
 29 63  1  0  0  0  0
 29 66  1  0  0  0  0
 30 62  2  0  0  0  0
 30 69  1  0  0  0  0
 30 86  1  0  0  0  0
 31 67  1  0  0  0  0
 31 73  2  0  0  0  0
 32 47  1  0  0  0  0
 32 70  1  0  0  0  0
 32 74  2  0  0  0  0
 33 56  1  0  0  0  0
 33 64  1  0  0  0  0
 33 75  2  0  0  0  0
 34 55  1  0  0  0  0
 34 68  1  0  0  0  0
 34 76  2  0  0  0  0
 35 57  1  0  0  0  0
 35 71  1  0  0  0  0
 35 77  2  0  0  0  0
 36 65  1  0  0  0  0
 36 69  1  0  0  0  0
 36 78  2  0  0  0  0
 37 40  1  0  0  0  0
 38 47  1  0  0  0  0
 39 64  1  0  0  0  0
 40 42  1  0  0  0  0
 41 43  1  0  0  0  0
 41 44  1  0  0  0  0
 42 46  1  0  0  0  0
 43 48  1  0  0  0  0
 44 65  1  0  0  0  0
 45 48  1  0  0  0  0
 45 65  1  0  0  0  0
 46 70  1  0  0  0  0
 47 64  1  0  0  0  0
 48 63  1  0  0  0  0
 49 57  1  0  0  0  0
 50 58  1  0  0  0  0
 51 60  1  0  0  0  0
 52 60  1  0  0  0  0
 53 60  1  0  0  0  0
 54 72  1  0  0  0  0
 55 58  1  0  0  0  0
 56 60  1  0  0  0  0
 56 71  1  0  0  0  0
 57 72  1  0  0  0  0
 58 80  1  0  0  0  0
 59 83  1  0  0  0  0
 59 84  1  0  0  0  0
 59 85  1  0  0  0  0
 61 63  1  0  0  0  0
M  CHG  1  72   1
M  ISO  4  36 100  58 101  69 100  80 101
M  END
> <Batch ID>
0183

> <Smiles>
CNC(C)C(=O)NC(C(=O)N1Cc2cc([101O:1][101CH:1](C)CC(=O)Nc3nc([100NH:0][100C:0](=O)N4CCCC(n5nc(-c6ccc(Oc7ccc(F)cc7F)cc6)c(C(N)=O)c5N)C4)sc3C(F)(F)F)ccc2CC1C(=O)NC1CCCc2ccccc21)C(C)(C)C

> <Shape>
0.220

> <Color>
0.104

> <Negative vol penalty>
0.000

$$$$

  -OEChem-04052304593D

 88 96  0     1  0  0  0  0  0999 V2000
  -16.1240  -27.7291   21.8164 C   0  0  0  0  0  0  0  0  0  0  0  0
  -17.3700  -27.1206   21.7040 C   0  0  0  0  0  0  0  0  0  0  0  0
  -23.6588   -9.6547   21.9230 C   0  0  0  0  0  0  0  0  0  0  0  0
  -24.2126  -11.0371   23.8255 C   0  0  0  0  0  0  0  0  0  0  0  0
  -16.0183  -29.1174   21.7418 C   0  0  0  0  0  0  0  0  0  0  0  0
  -18.5109  -27.8999   21.5159 C   0  0  0  0  0  0  0  0  0  0  0  0
  -22.3645  -26.4452   24.4618 C   0  0  0  0  0  0  0  0  0  0  0  0
  -23.1094   -8.6989   22.7774 C   0  0  0  0  0  0  0  0  0  0  0  0
  -23.6632  -10.0812   24.6799 C   0  0  0  0  0  0  0  0  0  0  0  0
  -23.0790  -25.3161   24.0641 C   0  0  0  0  0  0  0  0  0  0  0  0
  -24.2258   -6.2380   24.8077 C   0  0  0  0  0  0  0  0  0  0  0  0
  -24.5490   -4.9009   24.5766 C   0  0  0  0  0  0  0  0  0  0  0  0
  -24.8003  -26.7357   23.1469 C   0  0  0  0  0  0  0  0  0  0  0  0
  -22.2097   -4.3915   24.2518 C   0  0  0  0  0  0  0  0  0  0  0  0
  -24.2105  -10.8238   22.4470 C   0  0  0  0  0  0  0  0  0  0  0  0
  -24.1153  -12.8997   20.9674 C   0  0  0  0  0  0  0  0  0  0  0  0
  -17.1597  -29.9147   21.5624 C   0  0  0  0  0  0  0  0  0  0  0  0
  -22.8581  -27.7304   24.1949 C   0  0  0  0  0  0  0  0  0  0  0  0
  -18.4202  -29.3000   21.4375 C   0  0  0  0  0  0  0  0  0  0  0  0
  -24.0913  -27.8795   23.5445 C   0  0  0  0  0  0  0  0  0  0  0  0
  -23.1116   -8.9121   24.1559 C   0  0  0  0  0  0  0  0  0  0  0  0
  -24.2957  -25.4612   23.4040 C   0  0  0  0  0  0  0  0  0  0  0  0
  -22.8945   -6.6518   24.7610 C   0  0  0  0  0  0  0  0  0  0  0  0
  -23.5410   -3.9777   24.2986 C   0  0  0  0  0  0  0  0  0  0  0  0
  -21.8865   -5.7286   24.4830 C   0  0  0  0  0  0  0  0  0  0  0  0
  -24.7787  -11.8113   21.5649 C   0  0  0  0  0  0  0  0  0  0  0  0
  -29.2858  -20.3364   19.2845 C   0  0  0  0  0  0  0  0  0  0  0  0
  -30.4928  -19.8459   18.8324 C   0  0  0  0  0  0  0  0  0  0  0  0
  -25.0862  -13.5298   20.2280 C   0  0  0  0  0  0  0  0  0  0  0  0
  -29.6164  -17.9641   19.5399 C   0  0  0  0  0  0  0  0  0  0  0  0
  -22.7439  -13.3051   21.0715 C   0  0  0  0  0  0  0  0  0  0  0  0
  -28.7424  -21.7191   19.2905 C   0  0  0  0  0  0  0  0  0  0  0  0
  -21.8401  -30.2160   22.4951 C   0  0  0  0  0  0  0  0  0  0  0  0
  -25.9417  -23.1543   21.1393 C   0  0  0  0  0  0  0  0  0  0  0  0
  -24.4120  -31.6806   23.8226 C   0  0  0  0  0  0  0  0  0  0  0  0
  -27.4954  -31.3844   25.2551 C   0  0  0  0  0  0  0  0  0  0  0  0
  -30.2525  -15.5299   19.6688 C   0  0  0  0  0  0  0  0  0  0  0  0
  -16.9900  -31.4084   21.4406 C   0  0  0  0  0  0  0  0  0  0  0  0
  -22.0882  -28.9381   24.6542 C   0  0  0  0  0  0  0  0  0  0  0  0
  -24.6747  -29.2370   23.2523 C   0  0  0  0  0  0  0  0  0  0  0  0
  -18.2921  -32.1856   21.6152 C   0  0  0  0  0  0  0  0  0  0  0  0
  -29.7770  -12.0618   19.0181 C   0  0  0  0  0  0  0  0  0  0  0  0
  -19.4085  -31.5483   20.7939 C   0  0  0  0  0  0  0  0  0  0  0  0
  -28.3796  -11.7770   19.5735 C   0  0  0  0  0  0  0  0  0  0  0  0
  -30.5351  -13.0701   19.8797 C   0  0  0  0  0  0  0  0  0  0  0  0
  -28.4229  -14.0415   20.6948 C   0  0  0  0  0  0  0  0  0  0  0  0
  -19.6840  -30.1128   21.2577 C   0  0  1  0  0  0  0  0  0  0  0  0
  -22.4373  -30.2016   23.8738 C   0  0  1  0  0  0  0  0  0  0  0  0
  -27.5965  -13.0806   19.8246 C   0  0  2  0  0  0  0  0  0  0  0  0
  -29.3680  -32.7607   26.2020 C   0  0  0  0  0  0  0  0  0  0  0  0
  -25.2847  -32.4328   20.9972 C   0  0  0  0  0  0  0  0  0  0  0  0
  -27.5602  -32.9400   21.9100 C   0  0  0  0  0  0  0  0  0  0  0  0
  -25.5835  -34.2420   22.6978 C   0  0  0  0  0  0  0  0  0  0  0  0
  -27.2215  -30.1325   27.9228 C   0  0  0  0  0  0  0  0  0  0  0  0
  -25.8093  -24.4876   21.8493 C   0  0  0  0  0  0  0  0  0  1  0  0
  -26.8000  -23.1448   19.8828 C   0  0  2  0  0  0  0  0  0  0  0  0
  -25.8642  -31.8424   23.4429 C   0  0  1  0  0  0  0  0  0  0  0  0
  -28.0867  -32.0015   26.5097 C   0  0  2  0  0  0  0  0  0  0  0  0
  -26.0615  -32.8386   22.2656 C   0  0  0  0  0  0  0  0  0  0  0  0
  -25.9532  -23.3878   18.6533 C   0  0  0  0  0  0  0  0  0  0  0  0
  -26.0712  -11.7504   21.2336 N   0  0  0  0  0  0  0  0  0  0  0  0
  -30.6844  -18.4858   18.9783 N   0  0  0  0  0  0  0  0  0  0  0  0
  -26.2277  -12.8084   20.4199 N   0  0  0  0  0  0  0  0  0  0  0  0
  -23.8812  -30.3873   23.7156 N   0  0  0  0  0  0  0  0  0  0  0  0
  -29.7339  -14.2810   20.0713 N   0  0  0  0  0  0  0  0  0  0  0  0
  -31.4579  -20.6141   18.2724 N   0  0  0  0  0  0  0  0  0  0  0  0
  -25.0664  -14.6250   19.4390 N   0  0  0  0  0  0  0  0  0  0  0  0
  -21.8817  -12.5452   21.8737 N   0  0  0  0  0  0  0  0  0  0  0  0
  -29.3879  -16.6053   19.8705 N   0  0  0  0  0  0  0  0  0  0  0  0
  -27.4710  -21.8725   19.8285 N   0  0  0  0  0  0  0  0  0  0  0  0
  -20.4619  -30.1165   22.4780 N   0  0  0  0  0  0  0  0  0  0  0  0
  -26.5666  -32.2160   24.6658 N   0  0  0  0  0  0  0  0  0  0  0  0
  -28.3969  -30.9424   27.5112 N   0  3  0  0  0  0  0  0  0  0  0  0
  -22.2926  -14.3017   20.4580 O   0  0  0  0  0  0  0  0  0  0  0  0
  -29.4148  -22.6301   18.8147 O   0  0  0  0  0  0  0  0  0  0  0  0
  -22.5750  -30.3117   21.5193 O   0  0  0  0  0  0  0  0  0  0  0  0
  -25.3614  -22.1457   21.5419 O   0  0  0  0  0  0  0  0  0  0  0  0
  -23.7743  -32.6641   24.2069 O   0  0  0  0  0  0  0  0  0  0  0  0
  -27.8272  -30.2772   24.8373 O   0  0  0  0  0  0  0  0  0  0  0  0
  -31.3697  -15.6339   19.1559 O   0  0  0  0  0  0  0  0  0  0  0  0
  -22.5753   -7.9797   24.9899 O   0  0  0  0  0  0  0  0  0  0  0  0
  -24.9948  -24.3607   23.0142 O   0  0  0  0  0  0  0  0  0  1  0  0
  -23.8517   -2.6941   24.0751 F   0  0  0  0  0  0  0  0  0  0  0  0
  -20.6059   -6.1205   24.4356 F   0  0  0  0  0  0  0  0  0  0  0  0
  -26.7028  -23.3467   17.5297 F   0  0  0  0  0  0  0  0  0  0  0  0
  -25.3375  -24.5888   18.6953 F   0  0  0  0  0  0  0  0  0  0  0  0
  -24.9970  -22.4393   18.5326 F   0  0  0  0  0  0  0  0  0  0  0  0
  -28.3436  -19.0512   19.9185 S   0  0  0  0  0  0  0  0  0  0  0  0
  1  2  1  0  0  0  0
  1  5  2  0  0  0  0
  2  6  2  0  0  0  0
  3  8  2  0  0  0  0
  3 15  1  0  0  0  0
  4  9  1  0  0  0  0
  4 15  2  0  0  0  0
  5 17  1  0  0  0  0
  6 19  1  0  0  0  0
  7 10  2  0  0  0  0
  7 18  1  0  0  0  0
  8 21  1  0  0  0  0
  9 21  2  0  0  0  0
 10 22  1  0  0  0  0
 11 12  2  0  0  0  0
 11 23  1  0  0  0  0
 12 24  1  0  0  0  0
 13 20  1  0  0  0  0
 13 22  2  0  0  0  0
 14 24  2  0  0  0  0
 14 25  1  0  0  0  0
 15 26  1  0  0  0  0
 16 26  1  0  0  0  0
 16 29  2  0  0  0  0
 16 31  1  0  0  0  0
 17 19  2  0  0  0  0
 17 38  1  0  0  0  0
 18 20  2  0  0  0  0
 18 39  1  0  0  0  0
 19 47  1  0  0  0  0
 20 40  1  0  0  0  0
 21 81  1  0  0  0  0
 22 82  1  0  0  0  0
 23 25  2  0  0  0  0
 23 81  1  0  0  0  0
 24 83  1  0  0  0  0
 25 84  1  0  0  0  0
 26 61  2  0  0  0  0
 27 28  2  0  0  0  0
 27 32  1  0  0  0  0
 27 88  1  0  0  0  0
 28 62  1  0  0  0  0
 28 66  1  0  0  0  0
 29 63  1  0  0  0  0
 29 67  1  0  0  0  0
 30 62  2  0  0  0  0
 30 69  1  0  0  0  0
 30 88  1  0  0  0  0
 31 68  1  0  0  0  0
 31 74  2  0  0  0  0
 32 70  1  0  0  0  0
 32 75  2  0  0  0  0
 33 48  1  0  0  0  0
 33 71  1  0  0  0  0
 33 76  2  0  0  0  0
 34 55  1  0  0  0  0
 34 56  1  0  0  0  0
 34 77  2  0  0  0  0
 35 57  1  0  0  0  0
 35 64  1  0  0  0  0
 35 78  2  0  0  0  0
 36 58  1  0  0  0  0
 36 72  1  0  0  0  0
 36 79  2  0  0  0  0
 37 65  1  0  0  0  0
 37 69  1  0  0  0  0
 37 80  2  0  0  0  0
 38 41  1  0  0  0  0
 39 48  1  0  0  0  0
 40 64  1  0  0  0  0
 41 43  1  0  0  0  0
 42 44  1  0  0  0  0
 42 45  1  0  0  0  0
 43 47  1  0  0  0  0
 44 49  1  0  0  0  0
 45 65  1  0  0  0  0
 46 49  1  0  0  0  0
 46 65  1  0  0  0  0
 47 71  1  0  0  0  0
 48 64  1  0  0  0  0
 49 63  1  0  0  0  0
 50 58  1  0  0  0  0
 51 59  1  0  0  0  0
 52 59  1  0  0  0  0
 53 59  1  0  0  0  0
 54 73  1  0  0  0  0
 55 82  1  0  0  0  0
 56 60  1  0  0  0  0
 56 70  1  0  0  0  0
 57 59  1  0  0  0  0
 57 72  1  0  0  0  0
 58 73  1  0  0  0  0
 60 85  1  0  0  0  0
 60 86  1  0  0  0  0
 60 87  1  0  0  0  0
 61 63  1  0  0  0  0
M  CHG  1  73   1
M  ISO  4  37 100  55 101  69 100  82 101
M  END
> <Batch ID>
0183

> <Smiles>
CNC(C)C(=O)NC(C(=O)N1Cc2cc([101O:1][101CH2:1]C(=O)C(NC(=O)c3sc([100NH:0][100C:0](=O)N4CCCC(n5nc(-c6ccc(Oc7ccc(F)cc7F)cc6)c(C(N)=O)c5N)C4)nc3N)C(F)(F)F)ccc2CC1C(=O)NC1CCCc2ccccc21)C(C)(C)C

> <Shape>
0.287

> <Color>
0.126

> <Negative vol penalty>
0.000

$$$$

  -OEChem-04052304593D

 87 95  0     1  0  0  0  0  0999 V2000
  -28.2541  -29.9079   19.5135 C   0  0  0  0  0  0  0  0  0  0  0  0
  -28.2446  -28.9293   20.5022 C   0  0  0  0  0  0  0  0  0  0  0  0
  -23.0885   -9.8333   19.9494 C   0  0  0  0  0  0  0  0  0  0  0  0
  -23.8342   -9.8681   22.2471 C   0  0  0  0  0  0  0  0  0  0  0  0
  -27.1287  -30.7063   19.3136 C   0  0  0  0  0  0  0  0  0  0  0  0
  -27.1099  -28.7492   21.2925 C   0  0  0  0  0  0  0  0  0  0  0  0
  -25.8955  -23.8663   21.8644 C   0  0  0  0  0  0  0  0  0  0  0  0
  -22.3518   -8.6770   20.2060 C   0  0  0  0  0  0  0  0  0  0  0  0
  -23.0975   -8.7118   22.5038 C   0  0  0  0  0  0  0  0  0  0  0  0
  -26.6423  -23.1276   22.7810 C   0  0  0  0  0  0  0  0  0  0  0  0
  -22.9473   -5.3659   20.5325 C   0  0  0  0  0  0  0  0  0  0  0  0
  -23.0277   -4.3278   19.6043 C   0  0  0  0  0  0  0  0  0  0  0  0
  -24.8785  -23.3747   24.4081 C   0  0  0  0  0  0  0  0  0  0  0  0
  -20.6442   -4.4721   19.2366 C   0  0  0  0  0  0  0  0  0  0  0  0
  -23.8297  -10.4288   20.9699 C   0  0  0  0  0  0  0  0  0  0  0  0
  -24.1532  -12.9552   20.8275 C   0  0  0  0  0  0  0  0  0  0  0  0
  -25.9762  -30.5295   20.0954 C   0  0  0  0  0  0  0  0  0  0  0  0
  -24.6371  -24.3749   22.2169 C   0  0  0  0  0  0  0  0  0  0  0  0
  -25.9685  -29.5469   21.1039 C   0  0  0  0  0  0  0  0  0  0  0  0
  -24.1166  -24.1174   23.4932 C   0  0  0  0  0  0  0  0  0  0  0  0
  -22.3562   -8.1163   21.4832 C   0  0  0  0  0  0  0  0  0  0  0  0
  -26.1352  -22.8841   24.0541 C   0  0  0  0  0  0  0  0  0  0  0  0
  -21.7153   -5.9571   20.8128 C   0  0  0  0  0  0  0  0  0  0  0  0
  -21.8761   -3.8810   18.9563 C   0  0  0  0  0  0  0  0  0  0  0  0
  -20.5638   -5.5102   20.1648 C   0  0  0  0  0  0  0  0  0  0  0  0
  -24.5914  -11.6230   20.7053 C   0  0  0  0  0  0  0  0  0  0  0  0
  -31.7432  -18.7792   22.2260 C   0  0  0  0  0  0  0  0  0  0  0  0
  -25.2419  -13.7094   20.4636 C   0  0  0  0  0  0  0  0  0  0  0  0
  -30.6343  -19.1452   22.9599 C   0  0  0  0  0  0  0  0  0  0  0  0
  -30.5204  -16.9898   21.8905 C   0  0  0  0  0  0  0  0  0  0  0  0
  -22.8764  -13.4654   21.2337 C   0  0  0  0  0  0  0  0  0  0  0  0
  -32.9174  -19.5939   22.0769 C   0  0  0  0  0  0  0  0  0  0  0  0
  -29.2137  -21.9197   25.0985 C   0  0  0  0  0  0  0  0  0  0  0  0
  -28.0911  -22.6400   25.3132 C   0  0  0  0  0  0  0  0  0  1  0  0
  -29.1583  -20.5681   24.4237 C   0  0  0  0  0  0  0  0  0  0  0  0
  -23.3835  -27.2852   22.4658 C   0  0  0  0  0  0  0  0  0  0  0  0
  -20.6414  -25.6348   22.9945 C   0  0  0  0  0  0  0  0  0  0  0  0
  -19.1547  -22.7386   24.0185 C   0  0  0  0  0  0  0  0  0  0  0  0
  -30.6990  -14.7980   20.6614 C   0  0  0  0  0  0  0  0  0  0  0  0
  -24.8009  -31.4483   19.8741 C   0  0  0  0  0  0  0  0  0  0  0  0
  -23.8325  -25.1471   21.2077 C   0  0  0  0  0  0  0  0  0  0  0  0
  -22.7622  -24.6239   23.9142 C   0  0  0  0  0  0  0  0  0  0  0  0
  -23.5055  -30.9428   20.5039 C   0  0  0  0  0  0  0  0  0  0  0  0
  -29.6173  -12.3532   18.3098 C   0  0  0  0  0  0  0  0  0  0  0  0
  -23.7549  -30.4728   21.9335 C   0  0  0  0  0  0  0  0  0  0  0  0
  -28.1772  -12.0549   18.7334 C   0  0  0  0  0  0  0  0  0  0  0  0
  -30.5232  -12.6005   19.5147 C   0  0  0  0  0  0  0  0  0  0  0  0
  -28.6025  -13.3237   20.8773 C   0  0  0  0  0  0  0  0  0  0  0  0
  -24.7479  -29.3047   21.9649 C   0  0  1  0  0  0  0  0  0  0  0  0
  -22.7851  -26.0541   21.8462 C   0  0  1  0  0  0  0  0  0  0  0  0
  -27.6382  -13.1318   19.6954 C   0  0  2  0  0  0  0  0  0  0  0  0
  -34.0534  -19.0573   21.2406 C   0  0  0  0  0  0  0  0  0  0  0  0
  -27.8820  -23.8795   27.4858 C   0  0  0  0  0  0  0  0  0  0  0  0
  -16.8972  -21.7028   24.3765 C   0  0  0  0  0  0  0  0  0  0  0  0
  -20.3055  -27.2583   25.5559 C   0  0  0  0  0  0  0  0  0  0  0  0
  -18.6212  -25.5714   26.3215 C   0  0  0  0  0  0  0  0  0  0  0  0
  -18.1962  -26.9080   24.2587 C   0  0  0  0  0  0  0  0  0  0  0  0
  -19.6897  -20.6071   22.0362 C   0  0  0  0  0  0  0  0  0  0  0  0
  -28.0541  -23.9967   25.9789 C   0  0  0  0  0  0  0  0  0  0  0  0
  -19.9445  -25.0822   24.2142 C   0  0  1  0  0  0  0  0  0  0  0  0
  -18.0479  -21.9020   23.4024 C   0  0  2  0  0  0  0  0  0  0  0  0
  -19.2932  -26.1969   25.0806 C   0  0  0  0  0  0  0  0  0  0  0  0
  -25.8595  -11.5327   20.2957 N   0  0  0  0  0  0  0  0  0  0  0  0
  -31.6798  -17.5434   21.6124 N   0  0  0  0  0  0  0  0  0  0  0  0
  -26.2275  -12.8178   20.1572 N   0  0  0  0  0  0  0  0  0  0  0  0
  -22.0164  -25.3793   22.8941 N   0  0  0  0  0  0  0  0  0  0  0  0
  -29.9512  -13.6354   20.3787 N   0  0  0  0  0  0  0  0  0  0  0  0
  -25.4427  -15.0417   20.3790 N   0  0  0  0  0  0  0  0  0  0  0  0
  -21.8693  -12.5519   21.5736 N   0  0  0  0  0  0  0  0  0  0  0  0
  -30.3235  -20.3027   23.7137 N   0  0  0  0  0  0  0  0  0  0  0  0
  -30.0397  -15.7260   21.4669 N   0  0  0  0  0  0  0  0  0  0  0  0
  -24.0922  -28.0735   21.5794 N   0  0  0  0  0  0  0  0  0  0  0  0
  -19.0046  -24.0780   23.7275 N   0  0  0  0  0  0  0  0  0  0  0  0
  -18.5688  -20.5619   23.0101 N   0  3  0  0  0  0  0  0  0  0  0  0
  -22.6305  -14.6947   21.2777 O   0  0  0  0  0  0  0  0  0  0  0  0
  -33.0896  -20.7154   22.5843 O   0  0  0  0  0  0  0  0  0  0  0  0
  -28.1817  -19.8347   24.5255 O   0  0  0  0  0  0  0  0  0  0  0  0
  -23.2134  -27.5046   23.6594 O   0  0  0  0  0  0  0  0  0  0  0  0
  -19.9885  -26.2636   22.1579 O   0  0  0  0  0  0  0  0  0  0  0  0
  -20.0596  -22.2529   24.6936 O   0  0  0  0  0  0  0  0  0  0  0  0
  -31.8296  -14.9708   20.1990 O   0  0  0  0  0  0  0  0  0  0  0  0
  -30.4752  -22.3611   25.4589 O   0  0  0  0  0  0  0  0  0  0  0  0
  -21.6373   -6.9881   21.7340 O   0  0  0  0  0  0  0  0  0  0  0  0
  -26.8623  -22.1639   24.9510 O   0  0  0  0  0  0  0  0  0  1  0  0
  -21.9537   -2.8851   18.0639 F   0  0  0  0  0  0  0  0  0  0  0  0
  -19.3776   -6.0750   20.4291 F   0  0  0  0  0  0  0  0  0  0  0  0
  -29.4576  -17.8999   22.8841 S   0  0  0  0  0  0  0  0  0  0  0  0
  1  2  1  0  0  0  0
  1  5  2  0  0  0  0
  2  6  2  0  0  0  0
  3  8  2  0  0  0  0
  3 15  1  0  0  0  0
  4  9  1  0  0  0  0
  4 15  2  0  0  0  0
  5 17  1  0  0  0  0
  6 19  1  0  0  0  0
  7 10  2  0  0  0  0
  7 18  1  0  0  0  0
  8 21  1  0  0  0  0
  9 21  2  0  0  0  0
 10 22  1  0  0  0  0
 11 12  2  0  0  0  0
 11 23  1  0  0  0  0
 12 24  1  0  0  0  0
 13 20  1  0  0  0  0
 13 22  2  0  0  0  0
 14 24  2  0  0  0  0
 14 25  1  0  0  0  0
 15 26  1  0  0  0  0
 16 26  1  0  0  0  0
 16 28  2  0  0  0  0
 16 31  1  0  0  0  0
 17 19  2  0  0  0  0
 17 40  1  0  0  0  0
 18 20  2  0  0  0  0
 18 41  1  0  0  0  0
 19 49  1  0  0  0  0
 20 42  1  0  0  0  0
 21 83  1  0  0  0  0
 22 84  1  0  0  0  0
 23 25  2  0  0  0  0
 23 83  1  0  0  0  0
 24 85  1  0  0  0  0
 25 86  1  0  0  0  0
 26 63  2  0  0  0  0
 27 29  2  0  0  0  0
 27 32  1  0  0  0  0
 27 64  1  0  0  0  0
 28 65  1  0  0  0  0
 28 68  1  0  0  0  0
 29 70  1  0  0  0  0
 29 87  1  0  0  0  0
 30 64  2  0  0  0  0
 30 71  1  0  0  0  0
 30 87  1  0  0  0  0
 31 69  1  0  0  0  0
 31 75  2  0  0  0  0
 32 52  1  0  0  0  0
 32 76  2  0  0  0  0
 33 34  2  0  0  0  0
 33 35  1  0  0  0  0
 33 82  1  0  0  0  0
 34 59  1  0  0  0  0
 34 84  1  0  0  0  0
 35 70  1  0  0  0  0
 35 77  2  0  0  0  0
 36 50  1  0  0  0  0
 36 72  1  0  0  0  0
 36 78  2  0  0  0  0
 37 60  1  0  0  0  0
 37 66  1  0  0  0  0
 37 79  2  0  0  0  0
 38 61  1  0  0  0  0
 38 73  1  0  0  0  0
 38 80  2  0  0  0  0
 39 67  1  0  0  0  0
 39 71  1  0  0  0  0
 39 81  2  0  0  0  0
 40 43  1  0  0  0  0
 41 50  1  0  0  0  0
 42 66  1  0  0  0  0
 43 45  1  0  0  0  0
 44 46  1  0  0  0  0
 44 47  1  0  0  0  0
 45 49  1  0  0  0  0
 46 51  1  0  0  0  0
 47 67  1  0  0  0  0
 48 51  1  0  0  0  0
 48 67  1  0  0  0  0
 49 72  1  0  0  0  0
 50 66  1  0  0  0  0
 51 65  1  0  0  0  0
 53 59  1  0  0  0  0
 54 61  1  0  0  0  0
 55 62  1  0  0  0  0
 56 62  1  0  0  0  0
 57 62  1  0  0  0  0
 58 74  1  0  0  0  0
 60 62  1  0  0  0  0
 60 73  1  0  0  0  0
 61 74  1  0  0  0  0
 63 65  1  0  0  0  0
M  CHG  1  74   1
M  ISO  4  34 101  39 100  71 100  84 101
M  END
> <Batch ID>
0183

> <Smiles>
CC[101CH:1](C(=O)C(=O)Nc1sc([100NH:0][100C:0](=O)N2CCCC(n3nc(-c4ccc(Oc5ccc(F)cc5F)cc4)c(C(N)=O)c3N)C2)nc1C(C)=O)[101O:1]c1ccc2c(c1)CN(C(=O)C(NC(=O)C(C)NC)C(C)(C)C)C(C(=O)NC1CCCc3ccccc31)C2

> <Shape>
0.227

> <Color>
0.203

> <Negative vol penalty>
0.000

$$$$

  -OEChem-04052304593D

 84 92  0     1  0  0  0  0  0999 V2000
  -25.4442  -35.1513   24.1736 C   0  0  0  0  0  0  0  0  0  0  0  0
  -26.1205  -33.9998   23.7834 C   0  0  0  0  0  0  0  0  0  0  0  0
  -23.9356  -13.8081   20.3419 C   0  0  0  0  0  0  0  0  0  0  0  0
  -25.6536  -14.0684   22.0204 C   0  0  0  0  0  0  0  0  0  0  0  0
  -24.1289  -35.0656   24.6279 C   0  0  0  0  0  0  0  0  0  0  0  0
  -25.4821  -32.7618   23.8484 C   0  0  0  0  0  0  0  0  0  0  0  0
  -26.2420  -29.9638   19.6965 C   0  0  0  0  0  0  0  0  0  0  0  0
  -24.2433  -12.4516   20.2372 C   0  0  0  0  0  0  0  0  0  0  0  0
  -25.9613  -12.7119   21.9158 C   0  0  0  0  0  0  0  0  0  0  0  0
  -27.4711  -29.3159   19.5815 C   0  0  0  0  0  0  0  0  0  0  0  0
  -24.3331   -8.8453   19.7888 C   0  0  0  0  0  0  0  0  0  0  0  0
  -23.2722   -7.9402   19.7565 C   0  0  0  0  0  0  0  0  0  0  0  0
  -26.4514  -27.2617   20.3298 C   0  0  0  0  0  0  0  0  0  0  0  0
  -22.5515   -8.7074   21.9312 C   0  0  0  0  0  0  0  0  0  0  0  0
  -24.6408  -14.6165   21.2335 C   0  0  0  0  0  0  0  0  0  0  0  0
  -23.3874  -16.6132   22.2079 C   0  0  0  0  0  0  0  0  0  0  0  0
  -23.4708  -33.8272   24.6894 C   0  0  0  0  0  0  0  0  0  0  0  0
  -25.1089  -29.2671   20.1402 C   0  0  0  0  0  0  0  0  0  0  0  0
  -24.1572  -32.6594   24.3053 C   0  0  0  0  0  0  0  0  0  0  0  0
  -25.2086  -27.9025   20.4471 C   0  0  0  0  0  0  0  0  0  0  0  0
  -25.2561  -11.9035   21.0242 C   0  0  0  0  0  0  0  0  0  0  0  0
  -27.5766  -27.9654   19.9009 C   0  0  0  0  0  0  0  0  0  0  0  0
  -24.5032   -9.6814   20.8923 C   0  0  0  0  0  0  0  0  0  0  0  0
  -22.3814   -7.8713   20.8277 C   0  0  0  0  0  0  0  0  0  0  0  0
  -23.6124   -9.6124   21.9635 C   0  0  0  0  0  0  0  0  0  0  0  0
  -24.3238  -16.0179   21.3416 C   0  0  0  0  0  0  0  0  0  0  0  0
  -23.4622  -17.9551   21.9246 C   0  0  0  0  0  0  0  0  0  0  0  0
  -31.0015  -23.0423   22.2148 C   0  0  0  0  0  0  0  0  0  0  0  0
  -29.4548  -21.6795   21.5176 C   0  0  0  0  0  0  0  0  0  0  0  0
  -29.3120  -26.7687   20.9144 C   0  0  0  0  0  0  0  0  0  1  0  0
  -22.5270  -16.0075   23.1819 C   0  0  0  0  0  0  0  0  0  0  0  0
  -30.4834  -26.1214   20.9203 C   0  0  0  0  0  0  0  0  0  0  0  0
  -30.9819  -25.5398   22.2055 C   0  0  0  0  0  0  0  0  0  0  0  0
  -23.1513  -29.5226   22.6315 C   0  0  0  0  0  0  0  0  0  0  0  0
  -21.5021  -27.2008   21.0784 C   0  0  0  0  0  0  0  0  0  0  0  0
  -21.5370  -24.6277   18.8368 C   0  0  0  0  0  0  0  0  0  0  0  0
  -27.7754  -21.4145   19.6587 C   0  0  0  0  0  0  0  0  0  0  0  0
  -22.0645  -33.7785   25.2321 C   0  0  0  0  0  0  0  0  0  0  0  0
  -23.7845  -29.9740   20.2333 C   0  0  0  0  0  0  0  0  0  0  0  0
  -24.0176  -27.1044   20.9086 C   0  0  0  0  0  0  0  0  0  0  0  0
  -21.3345  -32.4756   24.9163 C   0  0  0  0  0  0  0  0  0  0  0  0
  -24.4913  -20.9769   18.3547 C   0  0  0  0  0  0  0  0  0  0  0  0
  -22.2303  -31.2767   25.2115 C   0  0  0  0  0  0  0  0  0  0  0  0
  -23.9882  -19.7131   19.0561 C   0  0  0  0  0  0  0  0  0  0  0  0
  -25.9800  -20.8873   18.0236 C   0  0  0  0  0  0  0  0  0  0  0  0
  -26.3459  -19.2857   19.8595 C   0  0  0  0  0  0  0  0  0  0  0  0
  -23.4904  -31.3013   24.3380 C   0  0  1  0  0  0  0  0  0  0  0  0
  -22.8086  -29.2915   21.1869 C   0  0  1  0  0  0  0  0  0  0  0  0
  -24.8663  -19.3555   20.2712 C   0  0  2  0  0  0  0  0  0  0  0  0
  -20.0446  -22.8948   17.8038 C   0  0  0  0  0  0  0  0  0  0  0  0
  -21.6146  -25.5712   23.6555 C   0  0  0  0  0  0  0  0  0  0  0  0
  -20.9848  -23.5482   22.3216 C   0  0  0  0  0  0  0  0  0  0  0  0
  -19.4188  -25.4849   22.4616 C   0  0  0  0  0  0  0  0  0  0  0  0
  -21.9773  -25.7036   16.1152 C   0  0  0  0  0  0  0  0  0  0  0  0
  -21.5247  -25.6914   21.0780 C   0  0  1  0  0  0  0  0  0  0  0  0
  -20.6233  -24.2949   17.6711 C   0  0  2  0  0  0  0  0  0  0  0  0
  -31.8547  -24.2906   22.1521 C   0  0  0  0  0  0  0  0  0  0  0  0
  -20.9088  -25.0891   22.3724 C   0  0  0  0  0  0  0  0  0  0  0  0
  -24.9475  -16.9085   20.5658 N   0  0  0  0  0  0  0  0  0  0  0  0
  -30.0511  -22.8165   21.2335 N   0  0  0  0  0  0  0  0  0  0  0  0
  -31.1734  -22.1738   23.2111 N   0  0  0  0  0  0  0  0  0  0  0  0
  -24.4019  -18.0771   20.9437 N   0  0  0  0  0  0  0  0  0  0  0  0
  -22.7459  -27.8419   20.9895 N   0  0  0  0  0  0  0  0  0  0  0  0
  -26.7494  -20.5494   19.2231 N   0  0  0  0  0  0  0  0  0  0  0  0
  -22.8151  -19.0307   22.4212 N   0  0  0  0  0  0  0  0  0  0  0  0
  -22.5775  -14.6164   23.3448 N   0  0  0  0  0  0  0  0  0  0  0  0
  -28.4158  -21.0065   20.8283 N   0  0  0  0  0  0  0  0  0  0  0  0
  -23.1837  -30.8551   22.9958 N   0  0  0  0  0  0  0  0  0  0  0  0
  -20.8589  -25.2735   19.8490 N   0  0  0  0  0  0  0  0  0  0  0  0
  -21.3738  -24.3734   16.3860 N   0  3  0  0  0  0  0  0  0  0  0  0
  -21.7251  -16.6781   23.8752 O   0  0  0  0  0  0  0  0  0  0  0  0
  -30.6771  -26.0383   23.2899 O   0  0  0  0  0  0  0  0  0  0  0  0
  -23.3688  -28.5629   23.3618 O   0  0  0  0  0  0  0  0  0  0  0  0
  -20.4203  -27.7894   21.1475 O   0  0  0  0  0  0  0  0  0  0  0  0
  -22.7318  -24.3400   18.8499 O   0  0  0  0  0  0  0  0  0  0  0  0
  -28.0463  -22.4557   19.0549 O   0  0  0  0  0  0  0  0  0  0  0  0
  -31.2500  -25.9656   19.7866 O   0  0  0  0  0  0  0  0  0  0  0  0
  -25.5565  -10.5799   20.9225 O   0  0  0  0  0  0  0  0  0  0  0  0
  -28.7753  -27.3306   19.7902 O   0  0  0  0  0  0  0  0  0  1  0  0
  -21.3618   -7.0032   20.7959 F   0  0  0  0  0  0  0  0  0  0  0  0
  -23.7701  -10.4139   23.0258 F   0  0  0  0  0  0  0  0  0  0  0  0
  -32.7354  -24.3237   23.2005 F   0  0  0  0  0  0  0  0  0  0  0  0
  -32.6579  -24.3212   21.0461 F   0  0  0  0  0  0  0  0  0  0  0  0
  -30.0680  -20.9463   22.9428 S   0  0  0  0  0  0  0  0  0  0  0  0
  1  2  1  0  0  0  0
  1  5  2  0  0  0  0
  2  6  2  0  0  0  0
  3  8  2  0  0  0  0
  3 15  1  0  0  0  0
  4  9  1  0  0  0  0
  4 15  2  0  0  0  0
  5 17  1  0  0  0  0
  6 19  1  0  0  0  0
  7 10  2  0  0  0  0
  7 18  1  0  0  0  0
  8 21  1  0  0  0  0
  9 21  2  0  0  0  0
 10 22  1  0  0  0  0
 11 12  2  0  0  0  0
 11 23  1  0  0  0  0
 12 24  1  0  0  0  0
 13 20  1  0  0  0  0
 13 22  2  0  0  0  0
 14 24  2  0  0  0  0
 14 25  1  0  0  0  0
 15 26  1  0  0  0  0
 16 26  1  0  0  0  0
 16 27  2  0  0  0  0
 16 31  1  0  0  0  0
 17 19  2  0  0  0  0
 17 38  1  0  0  0  0
 18 20  2  0  0  0  0
 18 39  1  0  0  0  0
 19 47  1  0  0  0  0
 20 40  1  0  0  0  0
 21 78  1  0  0  0  0
 22 79  1  0  0  0  0
 23 25  2  0  0  0  0
 23 78  1  0  0  0  0
 24 80  1  0  0  0  0
 25 81  1  0  0  0  0
 26 59  2  0  0  0  0
 27 62  1  0  0  0  0
 27 65  1  0  0  0  0
 28 57  1  0  0  0  0
 28 60  1  0  0  0  0
 28 61  2  0  0  0  0
 29 60  2  0  0  0  0
 29 67  1  0  0  0  0
 29 84  1  0  0  0  0
 30 32  2  0  0  0  0
 30 79  1  0  0  0  0
 31 66  1  0  0  0  0
 31 71  2  0  0  0  0
 32 33  1  0  0  0  0
 32 77  1  0  0  0  0
 33 57  1  0  0  0  0
 33 72  2  0  0  0  0
 34 48  1  0  0  0  0
 34 68  1  0  0  0  0
 34 73  2  0  0  0  0
 35 55  1  0  0  0  0
 35 63  1  0  0  0  0
 35 74  2  0  0  0  0
 36 56  1  0  0  0  0
 36 69  1  0  0  0  0
 36 75  2  0  0  0  0
 37 64  1  0  0  0  0
 37 67  1  0  0  0  0
 37 76  2  0  0  0  0
 38 41  1  0  0  0  0
 39 48  1  0  0  0  0
 40 63  1  0  0  0  0
 41 43  1  0  0  0  0
 42 44  1  0  0  0  0
 42 45  1  0  0  0  0
 43 47  1  0  0  0  0
 44 49  1  0  0  0  0
 45 64  1  0  0  0  0
 46 49  1  0  0  0  0
 46 64  1  0  0  0  0
 47 68  1  0  0  0  0
 48 63  1  0  0  0  0
 49 62  1  0  0  0  0
 50 56  1  0  0  0  0
 51 58  1  0  0  0  0
 52 58  1  0  0  0  0
 53 58  1  0  0  0  0
 54 70  1  0  0  0  0
 55 58  1  0  0  0  0
 55 69  1  0  0  0  0
 56 70  1  0  0  0  0
 57 82  1  0  0  0  0
 57 83  1  0  0  0  0
 59 62  1  0  0  0  0
 61 84  1  0  0  0  0
M  CHG  1  70   1
M  ISO  4  30 101  37 100  67 100  79 101
M  END
> <Batch ID>
0183

> <Smiles>
CNC(C)C(=O)NC(C(=O)N1Cc2cc([101O:1][101CH2:1]C(=O)C(=O)C(F)(F)c3nsc([100NH:0][100C:0](=O)N4CCCC(n5nc(-c6ccc(Oc7ccc(F)cc7F)cc6)c(C(N)=O)c5N)C4)n3)ccc2CC1C(=O)NC1CCCc2ccccc21)C(C)(C)C

> <Shape>
0.227

> <Color>
0.076

> <Negative vol penalty>
0.000

$$$$

  -OEChem-04052304593D

 87 95  0     1  0  0  0  0  0999 V2000
  -23.9120  -12.0573   20.6129 C   0  0  0  0  0  0  0  0  0  0  0  0
  -23.6222  -13.3835   20.9172 C   0  0  0  0  0  0  0  0  0  0  0  0
  -25.2899  -25.6769   25.1009 C   0  0  0  0  0  0  0  0  0  0  0  0
  -23.9157  -24.4666   23.5250 C   0  0  0  0  0  0  0  0  0  0  0  0
  -25.2373  -11.6262   20.5724 C   0  0  0  0  0  0  0  0  0  0  0  0
  -24.6576  -14.2791   21.1824 C   0  0  0  0  0  0  0  0  0  0  0  0
  -24.0340  -18.7207   18.8312 C   0  0  0  0  0  0  0  0  0  0  0  0
  -24.6576  -25.0203   26.1567 C   0  0  0  0  0  0  0  0  0  0  0  0
  -23.2833  -23.8099   24.5807 C   0  0  0  0  0  0  0  0  0  0  0  0
  -23.1250  -19.6164   19.3929 C   0  0  0  0  0  0  0  0  0  0  0  0
  -21.0574  -22.0787   26.8738 C   0  0  0  0  0  0  0  0  0  0  0  0
  -19.6677  -21.9685   26.8294 C   0  0  0  0  0  0  0  0  0  0  0  0
  -24.9511  -20.8271   20.4023 C   0  0  0  0  0  0  0  0  0  0  0  0
  -19.9860  -26.9784   21.1870 C   0  0  0  0  0  0  0  0  0  0  0  0
  -20.2324  -28.2224   23.2433 C   0  0  0  0  0  0  0  0  0  0  0  0
  -19.4775  -24.3769   26.8038 C   0  0  0  0  0  0  0  0  0  0  0  0
  -24.9189  -25.4001   23.7851 C   0  0  0  0  0  0  0  0  0  0  0  0
  -26.7267  -25.6641   22.0046 C   0  0  0  0  0  0  0  0  0  0  0  0
  -26.2899  -12.5192   20.8277 C   0  0  0  0  0  0  0  0  0  0  0  0
  -25.4098  -18.8654   19.0602 C   0  0  0  0  0  0  0  0  0  0  0  0
  -25.9981  -13.8592   21.1466 C   0  0  0  0  0  0  0  0  0  0  0  0
  -25.8756  -19.9335   19.8403 C   0  0  0  0  0  0  0  0  0  0  0  0
  -20.6078  -27.9888   21.9204 C   0  0  0  0  0  0  0  0  0  0  0  0
  -18.9886  -26.2015   21.7764 C   0  0  0  0  0  0  0  0  0  0  0  0
  -23.6543  -24.0868   25.8966 C   0  0  0  0  0  0  0  0  0  0  0  0
  -23.5833  -20.6681   20.1809 C   0  0  0  0  0  0  0  0  0  0  0  0
  -21.6573  -23.3380   26.8832 C   0  0  0  0  0  0  0  0  0  0  0  0
  -18.8777  -23.1176   26.7944 C   0  0  0  0  0  0  0  0  0  0  0  0
  -19.2351  -27.4455   23.8328 C   0  0  0  0  0  0  0  0  0  0  0  0
  -20.8673  -24.4871   26.8482 C   0  0  0  0  0  0  0  0  0  0  0  0
  -18.6132  -26.4351   23.0994 C   0  0  0  0  0  0  0  0  0  0  0  0
  -25.5714  -26.0785   22.6941 C   0  0  0  0  0  0  0  0  0  0  0  0
  -26.9370  -26.6450   21.0665 C   0  0  0  0  0  0  0  0  0  0  0  0
  -27.5371  -24.4968   22.1950 C   0  0  0  0  0  0  0  0  0  0  0  0
  -27.6535  -17.0861   20.4399 C   0  0  0  0  0  0  0  0  0  0  0  0
  -20.4645  -22.3813   21.1354 C   0  0  0  0  0  0  0  0  0  0  0  0
  -29.6284  -19.4054   19.3249 C   0  0  0  0  0  0  0  0  0  0  0  0
  -30.0114  -22.6366   18.2956 C   0  0  0  0  0  0  0  0  0  0  0  0
  -22.3376  -29.8200   21.9120 C   0  0  0  0  0  0  0  0  0  0  0  0
  -27.7043  -11.9958   20.8187 C   0  0  0  0  0  0  0  0  0  0  0  0
  -26.3792  -17.9065   18.4252 C   0  0  0  0  0  0  0  0  0  0  0  0
  -27.3441  -20.1447   20.0998 C   0  0  0  0  0  0  0  0  0  0  0  0
  -28.7603  -13.0956   20.7441 C   0  0  0  0  0  0  0  0  0  0  0  0
  -25.8984  -30.6260   22.2488 C   0  0  0  0  0  0  0  0  0  0  0  0
  -28.4424  -14.2091   21.7370 C   0  0  0  0  0  0  0  0  0  0  0  0
  -26.5412  -29.9959   21.0195 C   0  0  0  0  0  0  0  0  0  0  0  0
  -24.4743  -31.0695   21.9497 C   0  0  0  0  0  0  0  0  0  0  0  0
  -24.2247  -29.2426   20.2707 C   0  0  0  0  0  0  0  0  0  0  0  0
  -27.0948  -14.8666   21.4158 C   0  0  1  0  0  0  0  0  0  0  0  0
  -27.7220  -17.8487   19.1471 C   0  0  1  0  0  0  0  0  0  0  0  0
  -25.7030  -28.8374   20.4579 C   0  0  2  0  0  0  0  0  0  0  0  0
  -31.7508  -24.2513   17.4804 C   0  0  0  0  0  0  0  0  0  0  0  0
  -30.6876  -19.6977   22.1714 C   0  0  0  0  0  0  0  0  0  0  0  0
  -31.6808  -21.8961   21.5016 C   0  0  0  0  0  0  0  0  0  0  0  0
  -32.4408  -19.7959   20.3906 C   0  0  0  0  0  0  0  0  0  0  0  0
  -28.6162  -23.0154   15.7132 C   0  0  0  0  0  0  0  0  0  0  0  0
  -18.9666  -22.2909   20.9227 C   0  0  0  0  0  0  0  0  0  0  0  0
  -21.3145  -21.3246   20.4592 C   0  0  0  0  0  0  0  0  0  1  0  0
  -18.9423  -24.6061   19.8586 C   0  0  0  0  0  0  0  0  0  0  0  0
  -30.1467  -20.7176   19.8620 C   0  0  1  0  0  0  0  0  0  0  0  0
  -30.6965  -23.2316   17.0786 C   0  0  2  0  0  0  0  0  0  0  0  0
  -18.5452  -23.1400   19.7301 C   0  0  1  0  0  0  0  0  0  0  0  0
  -31.2111  -20.5220   20.9783 C   0  0  0  0  0  0  0  0  0  0  0  0
  -25.0822  -27.2328   22.2334 N   0  0  0  0  0  0  0  0  0  0  0  0
  -25.9342  -27.5522   21.2444 N   0  0  0  0  0  0  0  0  0  0  0  0
  -28.2519  -19.1768   19.4622 N   0  0  0  0  0  0  0  0  0  0  0  0
  -23.6521  -29.9843   21.4093 N   0  0  0  0  0  0  0  0  0  0  0  0
  -27.8802  -26.8115   20.1151 N   0  0  0  0  0  0  0  0  0  0  0  0
  -27.1789  -23.5919   23.2035 N   0  0  0  0  0  0  0  0  0  0  0  0
  -21.6212  -28.7781   21.3225 N   0  0  0  0  0  0  0  0  0  0  0  0
  -18.3722  -25.1986   21.0459 N   0  0  0  0  0  0  0  0  0  0  0  0
  -27.2304  -15.7781   20.3000 N   0  0  0  0  0  0  0  0  0  0  0  0
  -30.6232  -21.4715   18.7075 N   0  0  0  0  0  0  0  0  0  0  0  0
  -29.6991  -23.9075   16.2015 N   0  3  0  0  0  0  0  0  0  0  0  0
  -28.5585  -24.2714   21.5025 O   0  0  0  0  0  0  0  0  0  0  0  0
  -27.9632  -17.6428   21.4868 O   0  0  0  0  0  0  0  0  0  0  0  0
  -20.9565  -23.2884   21.8064 O   0  0  0  0  0  0  0  0  0  0  0  0
  -30.4147  -18.6154   18.7963 O   0  0  0  0  0  0  0  0  0  0  0  0
  -29.0338  -23.1555   18.8299 O   0  0  0  0  0  0  0  0  0  0  0  0
  -21.8765  -30.5614   22.7837 O   0  0  0  0  0  0  0  0  0  0  0  0
  -23.0372  -23.4457   26.9265 O   0  0  0  0  0  0  0  0  0  0  0  0
  -22.6983  -21.5433   20.7308 O   0  0  0  0  0  0  0  0  0  1  0  0
  -17.5432  -23.0116   26.7502 F   0  0  0  0  0  0  0  0  0  0  0  0
  -18.8751  -27.6692   25.1034 F   0  0  0  0  0  0  0  0  0  0  0  0
  -21.4379  -25.6996   26.8558 F   0  0  0  0  0  0  0  0  0  0  0  0
  -17.6552  -25.6948   23.6758 F   0  0  0  0  0  0  0  0  0  0  0  0
  -19.1338  -22.6324   18.6088 F   0  0  0  0  0  0  0  0  0  0  0  0
  1  2  1  0  0  0  0
  1  5  2  0  0  0  0
  2  6  2  0  0  0  0
  3  8  2  0  0  0  0
  3 17  1  0  0  0  0
  4  9  1  0  0  0  0
  4 17  2  0  0  0  0
  5 19  1  0  0  0  0
  6 21  1  0  0  0  0
  7 10  2  0  0  0  0
  7 20  1  0  0  0  0
  8 25  1  0  0  0  0
  9 25  2  0  0  0  0
 10 26  1  0  0  0  0
 11 12  2  0  0  0  0
 11 27  1  0  0  0  0
 12 28  1  0  0  0  0
 13 22  1  0  0  0  0
 13 26  2  0  0  0  0
 14 23  2  0  0  0  0
 14 24  1  0  0  0  0
 15 23  1  0  0  0  0
 15 29  2  0  0  0  0
 16 28  2  0  0  0  0
 16 30  1  0  0  0  0
 17 32  1  0  0  0  0
 18 32  1  0  0  0  0
 18 33  2  0  0  0  0
 18 34  1  0  0  0  0
 19 21  2  0  0  0  0
 19 40  1  0  0  0  0
 20 22  2  0  0  0  0
 20 41  1  0  0  0  0
 21 49  1  0  0  0  0
 22 42  1  0  0  0  0
 23 70  1  0  0  0  0
 24 31  2  0  0  0  0
 24 71  1  0  0  0  0
 25 81  1  0  0  0  0
 26 82  1  0  0  0  0
 27 30  2  0  0  0  0
 27 81  1  0  0  0  0
 28 83  1  0  0  0  0
 29 31  1  0  0  0  0
 29 84  1  0  0  0  0
 30 85  1  0  0  0  0
 31 86  1  0  0  0  0
 32 64  2  0  0  0  0
 33 65  1  0  0  0  0
 33 68  1  0  0  0  0
 34 69  1  0  0  0  0
 34 75  2  0  0  0  0
 35 50  1  0  0  0  0
 35 72  1  0  0  0  0
 35 76  2  0  0  0  0
 36 57  1  0  0  0  0
 36 58  1  0  0  0  0
 36 77  2  0  0  0  0
 37 60  1  0  0  0  0
 37 66  1  0  0  0  0
 37 78  2  0  0  0  0
 38 61  1  0  0  0  0
 38 73  1  0  0  0  0
 38 79  2  0  0  0  0
 39 67  1  0  0  0  0
 39 70  1  0  0  0  0
 39 80  2  0  0  0  0
 40 43  1  0  0  0  0
 41 50  1  0  0  0  0
 42 66  1  0  0  0  0
 43 45  1  0  0  0  0
 44 46  1  0  0  0  0
 44 47  1  0  0  0  0
 45 49  1  0  0  0  0
 46 51  1  0  0  0  0
 47 67  1  0  0  0  0
 48 51  1  0  0  0  0
 48 67  1  0  0  0  0
 49 72  1  0  0  0  0
 50 66  1  0  0  0  0
 51 65  1  0  0  0  0
 52 61  1  0  0  0  0
 53 63  1  0  0  0  0
 54 63  1  0  0  0  0
 55 63  1  0  0  0  0
 56 74  1  0  0  0  0
 57 62  1  0  0  0  0
 58 82  1  0  0  0  0
 59 62  1  0  0  0  0
 59 71  1  0  0  0  0
 60 63  1  0  0  0  0
 60 73  1  0  0  0  0
 61 74  1  0  0  0  0
 62 87  1  0  0  0  0
 64 65  1  0  0  0  0
M  CHG  1  74   1
M  ISO  4  39 100  58 101  70 100  82 101
M  END
> <Batch ID>
0183

> <Smiles>
CNC(C)C(=O)NC(C(=O)N1Cc2cc([101O:1][101CH2:1]C(=O)CC(F)CNc3cc([100NH:0][100C:0](=O)N4CCCC(n5nc(-c6ccc(Oc7ccc(F)cc7F)cc6)c(C(N)=O)c5N)C4)cc(F)c3F)ccc2CC1C(=O)NC1CCCc2ccccc21)C(C)(C)C

> <Shape>
0.218

> <Color>
0.088

> <Negative vol penalty>
0.000

$$$$

  -OEChem-04052304593D

 85 93  0     1  0  0  0  0  0999 V2000
  -35.5184  -29.6790   10.8478 C   0  0  0  0  0  0  0  0  0  0  0  0
  -35.9534  -28.5891   11.5949 C   0  0  0  0  0  0  0  0  0  0  0  0
  -22.9770   -9.8844   20.0302 C   0  0  0  0  0  0  0  0  0  0  0  0
  -23.6710  -10.0278   22.3399 C   0  0  0  0  0  0  0  0  0  0  0  0
  -34.5184  -30.5115   11.3485 C   0  0  0  0  0  0  0  0  0  0  0  0
  -35.3893  -28.3317   12.8439 C   0  0  0  0  0  0  0  0  0  0  0  0
  -34.3676  -22.8431   15.3613 C   0  0  0  0  0  0  0  0  0  0  0  0
  -22.1945   -8.7705   20.3344 C   0  0  0  0  0  0  0  0  0  0  0  0
  -22.8885   -8.9139   22.6442 C   0  0  0  0  0  0  0  0  0  0  0  0
  -35.0800  -22.0922   16.2954 C   0  0  0  0  0  0  0  0  0  0  0  0
  -23.1028   -5.5553   22.3206 C   0  0  0  0  0  0  0  0  0  0  0  0
  -23.6689   -4.5657   23.1243 C   0  0  0  0  0  0  0  0  0  0  0  0
  -33.6750  -22.9586   18.0545 C   0  0  0  0  0  0  0  0  0  0  0  0
  -21.9249   -4.8988   24.7628 C   0  0  0  0  0  0  0  0  0  0  0  0
  -29.9008  -17.8177   22.4719 C   0  0  0  0  0  0  0  0  0  0  0  0
  -23.7153  -10.5130   21.0329 C   0  0  0  0  0  0  0  0  0  0  0  0
  -24.1304  -13.0145   20.7538 C   0  0  0  0  0  0  0  0  0  0  0  0
  -33.9349  -30.2585   12.6000 C   0  0  0  0  0  0  0  0  0  0  0  0
  -33.3087  -23.6671   15.7690 C   0  0  0  0  0  0  0  0  0  0  0  0
  -34.3814  -29.1623   13.3625 C   0  0  0  0  0  0  0  0  0  0  0  0
  -32.9491  -23.7169   17.1234 C   0  0  0  0  0  0  0  0  0  0  0  0
  -22.1503   -8.2852   21.6414 C   0  0  0  0  0  0  0  0  0  0  0  0
  -34.7357  -22.1521   17.6426 C   0  0  0  0  0  0  0  0  0  0  0  0
  -21.9479   -6.2168   22.7381 C   0  0  0  0  0  0  0  0  0  0  0  0
  -23.0799   -4.2374   24.3454 C   0  0  0  0  0  0  0  0  0  0  0  0
  -21.3589   -5.8885   23.9592 C   0  0  0  0  0  0  0  0  0  0  0  0
  -24.5242  -11.6634   20.7191 C   0  0  0  0  0  0  0  0  0  0  0  0
  -30.6090  -16.8876   21.7401 C   0  0  0  0  0  0  0  0  0  0  0  0
  -25.2528  -13.7091   20.3742 C   0  0  0  0  0  0  0  0  0  0  0  0
  -32.1223  -18.4735   21.8106 C   0  0  0  0  0  0  0  0  0  0  0  0
  -34.7455  -20.4963   19.2945 C   0  0  0  0  0  0  0  0  0  1  0  0
  -22.8633  -13.5902   21.0983 C   0  0  0  0  0  0  0  0  0  0  0  0
  -35.2921  -19.7074   20.2263 C   0  0  0  0  0  0  0  0  0  0  0  0
  -34.4163  -18.7214   20.9278 C   0  0  0  0  0  0  0  0  0  0  0  0
  -32.7277  -26.7904   15.6629 C   0  0  0  0  0  0  0  0  0  0  0  0
  -29.8214  -25.8929   16.7900 C   0  0  0  0  0  0  0  0  0  0  0  0
  -27.9512  -23.5816   18.4654 C   0  0  0  0  0  0  0  0  0  0  0  0
  -30.7387  -14.6231   20.6440 C   0  0  0  0  0  0  0  0  0  0  0  0
  -32.8902  -31.2138   13.1203 C   0  0  0  0  0  0  0  0  0  0  0  0
  -32.5329  -24.4502   14.7456 C   0  0  0  0  0  0  0  0  0  0  0  0
  -31.8073  -24.5703   17.6098 C   0  0  0  0  0  0  0  0  0  0  0  0
  -32.0812  -30.6547   14.2879 C   0  0  0  0  0  0  0  0  0  0  0  0
  -29.6258  -12.0831   18.4109 C   0  0  0  0  0  0  0  0  0  0  0  0
  -33.0048  -30.0132   15.3186 C   0  0  0  0  0  0  0  0  0  0  0  0
  -28.1670  -11.8586   18.8152 C   0  0  0  0  0  0  0  0  0  0  0  0
  -30.5122  -12.3696   19.6217 C   0  0  0  0  0  0  0  0  0  0  0  0
  -28.5875  -13.2353   20.8924 C   0  0  0  0  0  0  0  0  0  0  0  0
  -33.7766  -28.8358   14.7107 C   0  0  1  0  0  0  0  0  0  0  0  0
  -31.8031  -25.6510   15.3395 C   0  0  1  0  0  0  0  0  0  0  0  0
  -27.6442  -13.0073   19.6999 C   0  0  2  0  0  0  0  0  0  0  0  0
  -25.6124  -23.1432   19.2624 C   0  0  0  0  0  0  0  0  0  0  0  0
  -30.2210  -27.8960   19.0566 C   0  0  0  0  0  0  0  0  0  0  0  0
  -28.3665  -26.7584   20.2955 C   0  0  0  0  0  0  0  0  0  0  0  0
  -27.9109  -27.8507   18.0996 C   0  0  0  0  0  0  0  0  0  0  0  0
  -27.7297  -21.1259   16.8285 C   0  0  0  0  0  0  0  0  0  0  0  0
  -29.2224  -25.6901   18.1607 C   0  0  1  0  0  0  0  0  0  0  0  0
  -26.6159  -22.9377   18.1384 C   0  0  2  0  0  0  0  0  0  0  0  0
  -33.4063  -20.6065   22.2299 C   0  0  0  0  0  0  0  0  0  0  0  0
  -28.9530  -27.0341   18.8945 C   0  0  0  0  0  0  0  0  0  0  0  0
  -25.7973  -11.5068   20.3469 N   0  0  0  0  0  0  0  0  0  0  0  0
  -31.8829  -17.2621   21.3597 N   0  0  0  0  0  0  0  0  0  0  0  0
  -26.2132  -12.7685   20.1440 N   0  0  0  0  0  0  0  0  0  0  0  0
  -31.0834  -25.3222   16.5716 N   0  0  0  0  0  0  0  0  0  0  0  0
  -29.9573  -13.4718   20.4103 N   0  0  0  0  0  0  0  0  0  0  0  0
  -25.5021  -15.0267   20.2183 N   0  0  0  0  0  0  0  0  0  0  0  0
  -21.8173  -12.7325   21.4651 N   0  0  0  0  0  0  0  0  0  0  0  0
  -30.0941  -15.6181   21.3782 N   0  0  0  0  0  0  0  0  0  0  0  0
  -32.9257  -27.6691   14.6150 N   0  0  0  0  0  0  0  0  0  0  0  0
  -28.0343  -24.8653   17.9691 N   0  0  0  0  0  0  0  0  0  0  0  0
  -33.3304  -19.2586   21.6455 N   0  0  0  0  0  0  0  0  0  0  0  0
  -26.7863  -21.4730   17.9223 N   0  3  0  0  0  0  0  0  0  0  0  0
  -22.6597  -14.8276   21.0655 O   0  0  0  0  0  0  0  0  0  0  0  0
  -34.7006  -17.5252   20.8494 O   0  0  0  0  0  0  0  0  0  0  0  0
  -33.2236  -26.8673   16.7809 O   0  0  0  0  0  0  0  0  0  0  0  0
  -29.1897  -26.5280   15.9419 O   0  0  0  0  0  0  0  0  0  0  0  0
  -28.8309  -23.0049   19.1010 O   0  0  0  0  0  0  0  0  0  0  0  0
  -31.8849  -14.7305   20.2006 O   0  0  0  0  0  0  0  0  0  0  0  0
  -36.6404  -19.7427   20.5096 O   0  0  0  0  0  0  0  0  0  0  0  0
  -21.3867   -7.1985   21.9387 O   0  0  0  0  0  0  0  0  0  0  0  0
  -35.4299  -21.4208   18.5564 O   0  0  0  0  0  0  0  0  0  1  0  0
  -23.6227   -3.2860   25.1163 F   0  0  0  0  0  0  0  0  0  0  0  0
  -20.2486   -6.5196   24.3650 F   0  0  0  0  0  0  0  0  0  0  0  0
  -32.4469  -21.4096   21.6954 F   0  0  0  0  0  0  0  0  0  0  0  0
  -33.2077  -20.5703   23.5728 F   0  0  0  0  0  0  0  0  0  0  0  0
  -30.8597  -19.2211   22.7005 S   0  0  0  0  0  0  0  0  0  0  0  0
  1  2  1  0  0  0  0
  1  5  2  0  0  0  0
  2  6  2  0  0  0  0
  3  8  2  0  0  0  0
  3 16  1  0  0  0  0
  4  9  1  0  0  0  0
  4 16  2  0  0  0  0
  5 18  1  0  0  0  0
  6 20  1  0  0  0  0
  7 10  2  0  0  0  0
  7 19  1  0  0  0  0
  8 22  1  0  0  0  0
  9 22  2  0  0  0  0
 10 23  1  0  0  0  0
 11 12  2  0  0  0  0
 11 24  1  0  0  0  0
 12 25  1  0  0  0  0
 13 21  1  0  0  0  0
 13 23  2  0  0  0  0
 14 25  2  0  0  0  0
 14 26  1  0  0  0  0
 15 28  2  0  0  0  0
 15 85  1  0  0  0  0
 16 27  1  0  0  0  0
 17 27  1  0  0  0  0
 17 29  2  0  0  0  0
 17 32  1  0  0  0  0
 18 20  2  0  0  0  0
 18 39  1  0  0  0  0
 19 21  2  0  0  0  0
 19 40  1  0  0  0  0
 20 48  1  0  0  0  0
 21 41  1  0  0  0  0
 22 79  1  0  0  0  0
 23 80  1  0  0  0  0
 24 26  2  0  0  0  0
 24 79  1  0  0  0  0
 25 81  1  0  0  0  0
 26 82  1  0  0  0  0
 27 60  2  0  0  0  0
 28 61  1  0  0  0  0
 28 67  1  0  0  0  0
 29 62  1  0  0  0  0
 29 65  1  0  0  0  0
 30 61  2  0  0  0  0
 30 70  1  0  0  0  0
 30 85  1  0  0  0  0
 31 33  2  0  0  0  0
 31 80  1  0  0  0  0
 32 66  1  0  0  0  0
 32 72  2  0  0  0  0
 33 34  1  0  0  0  0
 33 78  1  0  0  0  0
 34 70  1  0  0  0  0
 34 73  2  0  0  0  0
 35 49  1  0  0  0  0
 35 68  1  0  0  0  0
 35 74  2  0  0  0  0
 36 56  1  0  0  0  0
 36 63  1  0  0  0  0
 36 75  2  0  0  0  0
 37 57  1  0  0  0  0
 37 69  1  0  0  0  0
 37 76  2  0  0  0  0
 38 64  1  0  0  0  0
 38 67  1  0  0  0  0
 38 77  2  0  0  0  0
 39 42  1  0  0  0  0
 40 49  1  0  0  0  0
 41 63  1  0  0  0  0
 42 44  1  0  0  0  0
 43 45  1  0  0  0  0
 43 46  1  0  0  0  0
 44 48  1  0  0  0  0
 45 50  1  0  0  0  0
 46 64  1  0  0  0  0
 47 50  1  0  0  0  0
 47 64  1  0  0  0  0
 48 68  1  0  0  0  0
 49 63  1  0  0  0  0
 50 62  1  0  0  0  0
 51 57  1  0  0  0  0
 52 59  1  0  0  0  0
 53 59  1  0  0  0  0
 54 59  1  0  0  0  0
 55 71  1  0  0  0  0
 56 59  1  0  0  0  0
 56 69  1  0  0  0  0
 57 71  1  0  0  0  0
 58 70  1  0  0  0  0
 58 83  1  0  0  0  0
 58 84  1  0  0  0  0
 60 62  1  0  0  0  0
M  CHG  1  71   1
M  ISO  4  31 101  38 100  67 100  80 101
M  END
> <Batch ID>
0183

> <Smiles>
CNC(C)C(=O)NC(C(=O)N1Cc2cc([101O:1][101CH2:1]C(=O)C(=O)N(c3nc([100NH:0][100C:0](=O)N4CCCC(n5nc(-c6ccc(Oc7ccc(F)cc7F)cc6)c(C(N)=O)c5N)C4)cs3)C(F)F)ccc2CC1C(=O)NC1CCCc2ccccc21)C(C)(C)C

> <Shape>
0.219

> <Color>
0.214

> <Negative vol penalty>
0.000

$$$$

  -OEChem-04052304593D

 83 91  0     1  0  0  0  0  0999 V2000
  -30.6257  -23.9970   26.8205 C   0  0  0  0  0  0  0  0  0  0  0  0
  -30.4430  -24.4040   25.5028 C   0  0  0  0  0  0  0  0  0  0  0  0
  -25.6593  -13.0186   22.0680 C   0  0  0  0  0  0  0  0  0  0  0  0
  -26.1389  -13.5439   19.7591 C   0  0  0  0  0  0  0  0  0  0  0  0
  -29.5197  -23.7204   27.6231 C   0  0  0  0  0  0  0  0  0  0  0  0
  -29.1542  -24.5336   24.9866 C   0  0  0  0  0  0  0  0  0  0  0  0
  -28.5475  -28.7980   22.3236 C   0  0  0  0  0  0  0  0  0  0  0  0
  -24.6202  -12.1815   21.6617 C   0  0  0  0  0  0  0  0  0  0  0  0
  -25.0998  -12.7067   19.3528 C   0  0  0  0  0  0  0  0  0  0  0  0
  -29.0608  -28.8178   21.0275 C   0  0  0  0  0  0  0  0  0  0  0  0
  -24.2815   -9.0580   20.4120 C   0  0  0  0  0  0  0  0  0  0  0  0
  -24.1827   -7.8060   21.0190 C   0  0  0  0  0  0  0  0  0  0  0  0
  -26.8527  -28.3951   20.1530 C   0  0  0  0  0  0  0  0  0  0  0  0
  -21.9757   -8.3704   21.8239 C   0  0  0  0  0  0  0  0  0  0  0  0
  -26.4186  -13.6999   21.1167 C   0  0  0  0  0  0  0  0  0  0  0  0
  -28.8399  -14.2122   21.7353 C   0  0  0  0  0  0  0  0  0  0  0  0
  -28.2164  -23.8559   27.1194 C   0  0  0  0  0  0  0  0  0  0  0  0
  -27.1825  -28.5654   22.5451 C   0  0  0  0  0  0  0  0  0  0  0  0
  -28.0297  -24.2572   25.7828 C   0  0  0  0  0  0  0  0  0  0  0  0
  -26.3241  -28.3755   21.4527 C   0  0  0  0  0  0  0  0  0  0  0  0
  -24.3404  -12.0255   20.3041 C   0  0  0  0  0  0  0  0  0  0  0  0
  -28.2139  -28.6135   19.9421 C   0  0  0  0  0  0  0  0  0  0  0  0
  -23.2274   -9.9662   20.5111 C   0  0  0  0  0  0  0  0  0  0  0  0
  -23.0298   -7.4622   21.7248 C   0  0  0  0  0  0  0  0  0  0  0  0
  -22.0745   -9.6224   21.2170 C   0  0  0  0  0  0  0  0  0  0  0  0
  -27.4918  -14.5652   21.5357 C   0  0  0  0  0  0  0  0  0  0  0  0
  -29.4102  -22.3122   16.6069 C   0  0  0  0  0  0  0  0  0  0  0  0
  -29.3800  -23.2954   17.5737 C   0  0  0  0  0  0  0  0  0  0  0  0
  -29.4465  -15.3808   22.1263 C   0  0  0  0  0  0  0  0  0  0  0  0
  -28.7833  -21.5908   18.8180 C   0  0  0  0  0  0  0  0  0  0  0  0
  -29.4860  -12.9416   21.5810 C   0  0  0  0  0  0  0  0  0  0  0  0
  -25.5043  -26.3253   24.0514 C   0  0  0  0  0  0  0  0  0  0  0  0
  -23.0095  -28.2794   23.3586 C   0  0  0  0  0  0  0  0  0  0  0  0
  -29.6865  -25.7041   18.2432 C   0  0  0  0  0  0  0  0  0  0  0  0
  -21.7130  -30.7264   21.3642 C   0  0  0  0  0  0  0  0  0  0  0  0
  -28.1663  -21.1466   21.2198 C   0  0  0  0  0  0  0  0  0  0  0  0
  -27.0530  -23.4999   28.0107 C   0  0  0  0  0  0  0  0  0  0  0  0
  -26.6398  -28.5738   23.9479 C   0  0  0  0  0  0  0  0  0  0  0  0
  -24.8475  -28.1419   21.6358 C   0  0  0  0  0  0  0  0  0  0  0  0
  -25.7127  -24.0230   27.5007 C   0  0  0  0  0  0  0  0  0  0  0  0
  -28.5230  -19.5132   24.3633 C   0  0  0  0  0  0  0  0  0  0  0  0
  -25.5568  -23.7299   26.0119 C   0  0  0  0  0  0  0  0  0  0  0  0
  -28.4278  -18.0267   24.0123 C   0  0  0  0  0  0  0  0  0  0  0  0
  -27.5856  -20.3600   23.5043 C   0  0  0  0  0  0  0  0  0  0  0  0
  -27.6300  -18.6782   21.7045 C   0  0  0  0  0  0  0  0  0  0  0  0
  -26.6468  -24.4333   25.1941 C   0  0  1  0  0  0  0  0  0  0  0  0
  -25.3225  -27.8165   24.0834 C   0  0  1  0  0  0  0  0  0  0  0  0
  -28.6036  -17.7925   22.4991 C   0  0  2  0  0  0  0  0  0  0  0  0
  -29.7446  -22.3949   15.1704 C   0  0  0  0  0  0  0  0  0  0  0  0
  -19.6366  -32.0930   21.0199 C   0  0  0  0  0  0  0  0  0  0  0  0
  -30.8663  -29.3723   17.9326 C   0  0  0  0  0  0  0  0  0  0  0  0
  -21.6374  -25.8696   22.0858 C   0  0  0  0  0  0  0  0  0  0  0  0
  -20.0622  -27.4523   20.9536 C   0  0  0  0  0  0  0  0  0  0  0  0
  -20.1299  -27.3312   23.4443 C   0  0  0  0  0  0  0  0  0  0  0  0
  -23.1600  -33.2610   21.8548 C   0  0  0  0  0  0  0  0  0  0  0  0
  -30.0850  -27.0085   17.5597 C   0  0  0  0  0  0  0  0  0  0  0  0
  -22.0471  -28.4160   22.2035 C   0  0  1  0  0  0  0  0  0  0  0  0
  -20.9966  -32.0228   21.6968 C   0  0  2  0  0  0  0  0  0  0  0  0
  -30.0650  -28.2102   18.5045 C   0  0  2  0  0  0  0  0  0  1  0  0
  -20.9973  -27.2697   22.1681 C   0  0  0  0  0  0  0  0  0  0  0  0
  -27.2554  -15.8569   21.7800 N   0  0  0  0  0  0  0  0  0  0  0  0
  -29.0203  -22.8836   18.8421 N   0  0  0  0  0  0  0  0  0  0  0  0
  -28.4632  -16.3258   22.1371 N   0  0  0  0  0  0  0  0  0  0  0  0
  -24.3659  -28.1528   23.0270 N   0  0  0  0  0  0  0  0  0  0  0  0
  -27.8120  -20.0883   22.0831 N   0  0  0  0  0  0  0  0  0  0  0  0
  -30.7199  -15.6819   22.4586 N   0  0  0  0  0  0  0  0  0  0  0  0
  -28.7147  -11.8452   21.1721 N   0  0  0  0  0  0  0  0  0  0  0  0
  -29.6908  -24.6541   17.3288 N   0  0  0  0  0  0  0  0  0  0  0  0
  -28.3881  -20.7626   19.8977 N   0  0  0  0  0  0  0  0  0  0  0  0
  -26.3364  -25.8386   25.0413 N   0  0  0  0  0  0  0  0  0  0  0  0
  -21.4701  -29.7518   22.3088 N   0  0  0  0  0  0  0  0  0  0  0  0
  -21.8055  -33.1914   21.2486 N   0  3  0  0  0  0  0  0  0  0  0  0
  -30.7077  -12.7797   21.8150 O   0  0  0  0  0  0  0  0  0  0  0  0
  -24.9308  -25.6650   23.1930 O   0  0  0  0  0  0  0  0  0  0  0  0
  -22.5745  -28.2920   24.5128 O   0  0  0  0  0  0  0  0  0  0  0  0
  -29.4116  -25.6494   19.4372 O   0  0  0  0  0  0  0  0  0  0  0  0
  -22.4146  -30.5908   20.3643 O   0  0  0  0  0  0  0  0  0  0  0  0
  -28.2923  -22.3036   21.6291 O   0  0  0  0  0  0  0  0  0  0  0  0
  -23.3267  -11.2085   19.9073 O   0  0  0  0  0  0  0  0  0  0  0  0
  -28.7125  -28.6316   18.6760 O   0  0  0  0  0  0  0  0  0  1  0  0
  -22.9344   -6.2593   22.3063 F   0  0  0  0  0  0  0  0  0  0  0  0
  -21.0581  -10.4903   21.3146 F   0  0  0  0  0  0  0  0  0  0  0  0
  -28.9742  -20.8069   17.3034 S   0  0  0  0  0  0  0  0  0  0  0  0
  1  2  1  0  0  0  0
  1  5  2  0  0  0  0
  2  6  2  0  0  0  0
  3  8  2  0  0  0  0
  3 15  1  0  0  0  0
  4  9  1  0  0  0  0
  4 15  2  0  0  0  0
  5 17  1  0  0  0  0
  6 19  1  0  0  0  0
  7 10  2  0  0  0  0
  7 18  1  0  0  0  0
  8 21  1  0  0  0  0
  9 21  2  0  0  0  0
 10 22  1  0  0  0  0
 11 12  2  0  0  0  0
 11 23  1  0  0  0  0
 12 24  1  0  0  0  0
 13 20  1  0  0  0  0
 13 22  2  0  0  0  0
 14 24  2  0  0  0  0
 14 25  1  0  0  0  0
 15 26  1  0  0  0  0
 16 26  1  0  0  0  0
 16 29  2  0  0  0  0
 16 31  1  0  0  0  0
 17 19  2  0  0  0  0
 17 37  1  0  0  0  0
 18 20  2  0  0  0  0
 18 38  1  0  0  0  0
 19 46  1  0  0  0  0
 20 39  1  0  0  0  0
 21 79  1  0  0  0  0
 22 80  1  0  0  0  0
 23 25  2  0  0  0  0
 23 79  1  0  0  0  0
 24 81  1  0  0  0  0
 25 82  1  0  0  0  0
 26 61  2  0  0  0  0
 27 28  2  0  0  0  0
 27 49  1  0  0  0  0
 27 83  1  0  0  0  0
 28 62  1  0  0  0  0
 28 68  1  0  0  0  0
 29 63  1  0  0  0  0
 29 66  1  0  0  0  0
 30 62  2  0  0  0  0
 30 69  1  0  0  0  0
 30 83  1  0  0  0  0
 31 67  1  0  0  0  0
 31 73  2  0  0  0  0
 32 47  1  0  0  0  0
 32 70  1  0  0  0  0
 32 74  2  0  0  0  0
 33 57  1  0  0  0  0
 33 64  1  0  0  0  0
 33 75  2  0  0  0  0
 34 56  1  0  0  0  0
 34 68  1  0  0  0  0
 34 76  2  0  0  0  0
 35 58  1  0  0  0  0
 35 71  1  0  0  0  0
 35 77  2  0  0  0  0
 36 65  1  0  0  0  0
 36 69  1  0  0  0  0
 36 78  2  0  0  0  0
 37 40  1  0  0  0  0
 38 47  1  0  0  0  0
 39 64  1  0  0  0  0
 40 42  1  0  0  0  0
 41 43  1  0  0  0  0
 41 44  1  0  0  0  0
 42 46  1  0  0  0  0
 43 48  1  0  0  0  0
 44 65  1  0  0  0  0
 45 48  1  0  0  0  0
 45 65  1  0  0  0  0
 46 70  1  0  0  0  0
 47 64  1  0  0  0  0
 48 63  1  0  0  0  0
 50 58  1  0  0  0  0
 51 59  1  0  0  0  0
 52 60  1  0  0  0  0
 53 60  1  0  0  0  0
 54 60  1  0  0  0  0
 55 72  1  0  0  0  0
 56 59  1  0  0  0  0
 57 60  1  0  0  0  0
 57 71  1  0  0  0  0
 58 72  1  0  0  0  0
 59 80  1  0  0  0  0
 61 63  1  0  0  0  0
M  CHG  1  72   1
M  ISO  4  36 100  59 101  69 100  80 101
M  END
> <Batch ID>
0183

> <Smiles>
CNC(C)C(=O)NC(C(=O)N1Cc2cc([101O:1][101CH:1](C)CC(=O)Nc3nc([100NH:0][100C:0](=O)N4CCCC(n5nc(-c6ccc(Oc7ccc(F)cc7F)cc6)c(C(N)=O)c5N)C4)sc3C)ccc2CC1C(=O)NC1CCCc2ccccc21)C(C)(C)C

> <Shape>
0.238

> <Color>
0.073

> <Negative vol penalty>
0.000

$$$$

  -OEChem-04052304593D

 84 92  0     1  0  0  0  0  0999 V2000
  -26.2004  -37.5031   22.7302 C   0  0  0  0  0  0  0  0  0  0  0  0
  -26.9261  -36.3893   22.3201 C   0  0  0  0  0  0  0  0  0  0  0  0
  -22.8393  -10.0326   23.1488 C   0  0  0  0  0  0  0  0  0  0  0  0
  -23.7407  -10.0419   20.9072 C   0  0  0  0  0  0  0  0  0  0  0  0
  -25.0592  -37.3400   23.5144 C   0  0  0  0  0  0  0  0  0  0  0  0
  -26.5116  -35.1117   22.6950 C   0  0  0  0  0  0  0  0  0  0  0  0
  -26.9834  -29.9727   19.3975 C   0  0  0  0  0  0  0  0  0  0  0  0
  -22.1886   -8.8281   22.8821 C   0  0  0  0  0  0  0  0  0  0  0  0
  -23.0900   -8.8372   20.6406 C   0  0  0  0  0  0  0  0  0  0  0  0
  -27.9069  -28.9284   19.4151 C   0  0  0  0  0  0  0  0  0  0  0  0
  -20.5824   -5.5670   22.9086 C   0  0  0  0  0  0  0  0  0  0  0  0
  -20.6531   -4.5639   23.8752 C   0  0  0  0  0  0  0  0  0  0  0  0
  -26.4359  -27.6597   20.8455 C   0  0  0  0  0  0  0  0  0  0  0  0
  -23.0610   -4.5437   23.6782 C   0  0  0  0  0  0  0  0  0  0  0  0
  -23.6154  -10.6396   22.1613 C   0  0  0  0  0  0  0  0  0  0  0  0
  -25.5839  -12.0532   22.9578 C   0  0  0  0  0  0  0  0  0  0  0  0
  -24.6251  -36.0593   23.8911 C   0  0  0  0  0  0  0  0  0  0  0  0
  -25.7820  -29.8726   20.1138 C   0  0  0  0  0  0  0  0  0  0  0  0
  -25.3643  -34.9315   23.4862 C   0  0  0  0  0  0  0  0  0  0  0  0
  -25.4977  -28.7031   20.8333 C   0  0  0  0  0  0  0  0  0  0  0  0
  -22.3139   -8.2303   21.6281 C   0  0  0  0  0  0  0  0  0  0  0  0
  -27.6345  -27.7728   20.1415 C   0  0  0  0  0  0  0  0  0  0  0  0
  -21.7510   -6.0584   22.3266 C   0  0  0  0  0  0  0  0  0  0  0  0
  -21.8923   -4.0523   24.2601 C   0  0  0  0  0  0  0  0  0  0  0  0
  -22.9903   -5.5467   22.7115 C   0  0  0  0  0  0  0  0  0  0  0  0
  -24.2874  -11.8842   22.4359 C   0  0  0  0  0  0  0  0  0  0  0  0
  -29.0623  -20.6875   20.3448 C   0  0  0  0  0  0  0  0  0  0  0  0
  -25.7504  -13.4147   23.0294 C   0  0  0  0  0  0  0  0  0  0  0  0
  -30.0164  -19.6916   20.3365 C   0  0  0  0  0  0  0  0  0  0  0  0
  -27.7352  -18.9575   20.5807 C   0  0  0  0  0  0  0  0  0  0  0  0
  -26.5512  -11.0676   23.3432 C   0  0  0  0  0  0  0  0  0  0  0  0
  -29.3456  -22.1252   20.2175 C   0  0  0  0  0  0  0  0  0  0  0  0
  -28.4843  -22.9983   19.6590 C   0  0  0  0  0  0  0  0  0  0  0  0
  -28.9022  -24.4360   19.5944 C   0  0  0  0  0  0  0  0  0  0  0  0
  -24.4618  -31.4823   22.5158 C   0  0  0  0  0  0  0  0  0  0  0  0
  -21.9248  -29.5579   21.8973 C   0  0  0  0  0  0  0  0  0  0  0  0
  -20.7627  -26.6240   20.5977 C   0  0  0  0  0  0  0  0  0  0  0  0
  -25.2689  -18.5036   20.8217 C   0  0  0  0  0  0  0  0  0  0  0  0
  -23.4122  -35.9359   24.7790 C   0  0  0  0  0  0  0  0  0  0  0  0
  -24.7843  -30.9971   20.0629 C   0  0  0  0  0  0  0  0  0  0  0  0
  -24.2134  -28.5377   21.6025 C   0  0  0  0  0  0  0  0  0  0  0  0
  -22.8284  -34.5260   24.8202 C   0  0  0  0  0  0  0  0  0  0  0  0
  -22.4085  -17.1757   22.4744 C   0  0  0  0  0  0  0  0  0  0  0  0
  -23.9356  -33.4953   25.0165 C   0  0  0  0  0  0  0  0  0  0  0  0
  -22.7490  -15.6946   22.6547 C   0  0  0  0  0  0  0  0  0  0  0  0
  -22.9331  -17.7208   21.1472 C   0  0  0  0  0  0  0  0  0  0  0  0
  -24.7029  -16.0082   21.0828 C   0  0  0  0  0  0  0  0  0  0  0  0
  -24.9326  -33.5279   23.8518 C   0  0  1  0  0  0  0  0  0  0  0  0
  -23.8217  -30.9958   21.2464 C   0  0  1  0  0  0  0  0  0  0  0  0
  -24.2514  -15.4308   22.4343 C   0  0  2  0  0  0  0  0  0  0  0  0
  -27.1495  -22.6792   19.0539 C   0  0  0  0  0  0  0  0  0  0  0  0
  -18.6467  -25.3148   20.2725 C   0  0  0  0  0  0  0  0  0  0  0  0
  -21.9575  -28.7769   24.8467 C   0  0  0  0  0  0  0  0  0  0  0  0
  -20.5038  -26.8209   24.2731 C   0  0  0  0  0  0  0  0  0  0  0  0
  -19.6762  -29.1427   23.8897 C   0  0  0  0  0  0  0  0  0  0  0  0
  -21.0467  -26.6752   17.6523 C   0  0  0  0  0  0  0  0  0  0  0  0
  -28.0157  -25.4317   20.3138 C   0  0  0  0  0  0  0  0  0  1  0  0
  -21.4702  -28.2008   22.3775 C   0  0  1  0  0  0  0  0  0  0  0  0
  -19.6053  -26.3253   19.6620 C   0  0  2  0  0  0  0  0  0  0  0  0
  -20.9271  -28.2389   23.8339 C   0  0  0  0  0  0  0  0  0  0  0  0
  -23.6737  -13.0455   22.1934 N   0  0  0  0  0  0  0  0  0  0  0  0
  -27.7536  -20.2684   20.4844 N   0  0  0  0  0  0  0  0  0  0  0  0
  -24.5886  -13.9573   22.5646 N   0  0  0  0  0  0  0  0  0  0  0  0
  -23.2726  -29.6677   21.5269 N   0  0  0  0  0  0  0  0  0  0  0  0
  -24.3635  -17.4380   21.0098 N   0  0  0  0  0  0  0  0  0  0  0  0
  -26.7757  -14.1886   23.4442 N   0  0  0  0  0  0  0  0  0  0  0  0
  -26.2173   -9.7135   23.2041 N   0  0  0  0  0  0  0  0  0  0  0  0
  -26.6058  -18.1161   20.7368 N   0  0  0  0  0  0  0  0  0  0  0  0
  -24.3833  -32.8500   22.6972 N   0  0  0  0  0  0  0  0  0  0  0  0
  -20.5065  -27.7211   21.3928 N   0  0  0  0  0  0  0  0  0  0  0  0
  -20.1105  -25.7743   18.3727 N   0  3  0  0  0  0  0  0  0  0  0  0
  -27.6721  -11.3784   23.8128 O   0  0  0  0  0  0  0  0  0  0  0  0
  -29.9159  -24.7721   18.9860 O   0  0  0  0  0  0  0  0  0  0  0  0
  -24.9866  -30.6764   23.2752 O   0  0  0  0  0  0  0  0  0  0  0  0
  -21.1122  -30.4845   21.8456 O   0  0  0  0  0  0  0  0  0  0  0  0
  -21.7896  -25.9493   20.6236 O   0  0  0  0  0  0  0  0  0  0  0  0
  -24.8892  -19.6762   20.7689 O   0  0  0  0  0  0  0  0  0  0  0  0
  -30.5657  -22.5257   20.7329 O   0  0  0  0  0  0  0  0  0  0  0  0
  -21.6793   -7.0548   21.3676 O   0  0  0  0  0  0  0  0  0  0  0  0
  -28.5345  -26.7522   20.1609 O   0  0  0  0  0  0  0  0  0  1  0  0
  -21.9601   -3.0901   25.1895 F   0  0  0  0  0  0  0  0  0  0  0  0
  -24.1165   -6.0157   22.1569 F   0  0  0  0  0  0  0  0  0  0  0  0
  -31.3337  -19.8765   20.2122 F   0  0  0  0  0  0  0  0  0  0  0  0
  -29.2556  -18.1646   20.5117 S   0  0  0  0  0  0  0  0  0  0  0  0
  1  2  1  0  0  0  0
  1  5  2  0  0  0  0
  2  6  2  0  0  0  0
  3  8  2  0  0  0  0
  3 15  1  0  0  0  0
  4  9  1  0  0  0  0
  4 15  2  0  0  0  0
  5 17  1  0  0  0  0
  6 19  1  0  0  0  0
  7 10  2  0  0  0  0
  7 18  1  0  0  0  0
  8 21  1  0  0  0  0
  9 21  2  0  0  0  0
 10 22  1  0  0  0  0
 11 12  2  0  0  0  0
 11 23  1  0  0  0  0
 12 24  1  0  0  0  0
 13 20  1  0  0  0  0
 13 22  2  0  0  0  0
 14 24  2  0  0  0  0
 14 25  1  0  0  0  0
 15 26  1  0  0  0  0
 16 26  1  0  0  0  0
 16 28  2  0  0  0  0
 16 31  1  0  0  0  0
 17 19  2  0  0  0  0
 17 39  1  0  0  0  0
 18 20  2  0  0  0  0
 18 40  1  0  0  0  0
 19 48  1  0  0  0  0
 20 41  1  0  0  0  0
 21 79  1  0  0  0  0
 22 80  1  0  0  0  0
 23 25  2  0  0  0  0
 23 79  1  0  0  0  0
 24 81  1  0  0  0  0
 25 82  1  0  0  0  0
 26 61  2  0  0  0  0
 27 29  2  0  0  0  0
 27 32  1  0  0  0  0
 27 62  1  0  0  0  0
 28 63  1  0  0  0  0
 28 66  1  0  0  0  0
 29 83  1  0  0  0  0
 29 84  1  0  0  0  0
 30 62  2  0  0  0  0
 30 68  1  0  0  0  0
 30 84  1  0  0  0  0
 31 67  1  0  0  0  0
 31 72  2  0  0  0  0
 32 33  2  0  0  0  0
 32 78  1  0  0  0  0
 33 34  1  0  0  0  0
 33 51  1  0  0  0  0
 34 57  1  0  0  0  0
 34 73  2  0  0  0  0
 35 49  1  0  0  0  0
 35 69  1  0  0  0  0
 35 74  2  0  0  0  0
 36 58  1  0  0  0  0
 36 64  1  0  0  0  0
 36 75  2  0  0  0  0
 37 59  1  0  0  0  0
 37 70  1  0  0  0  0
 37 76  2  0  0  0  0
 38 65  1  0  0  0  0
 38 68  1  0  0  0  0
 38 77  2  0  0  0  0
 39 42  1  0  0  0  0
 40 49  1  0  0  0  0
 41 64  1  0  0  0  0
 42 44  1  0  0  0  0
 43 45  1  0  0  0  0
 43 46  1  0  0  0  0
 44 48  1  0  0  0  0
 45 50  1  0  0  0  0
 46 65  1  0  0  0  0
 47 50  1  0  0  0  0
 47 65  1  0  0  0  0
 48 69  1  0  0  0  0
 49 64  1  0  0  0  0
 50 63  1  0  0  0  0
 52 59  1  0  0  0  0
 53 60  1  0  0  0  0
 54 60  1  0  0  0  0
 55 60  1  0  0  0  0
 56 71  1  0  0  0  0
 57 80  1  0  0  0  0
 58 60  1  0  0  0  0
 58 70  1  0  0  0  0
 59 71  1  0  0  0  0
 61 63  1  0  0  0  0
M  CHG  1  71   1
M  ISO  4  38 100  57 101  68 100  80 101
M  END
> <Batch ID>
0183

> <Smiles>
CNC(C)C(=O)NC(C(=O)N1Cc2cc([101O:1][101CH2:1]C(=O)C(C)C(=O)c3nc([100NH:0][100C:0](=O)N4CCCC(n5nc(-c6ccc(Oc7ccc(F)cc7F)cc6)c(C(N)=O)c5N)C4)sc3F)ccc2CC1C(=O)NC1CCCc2ccccc21)C(C)(C)C

> <Shape>
0.309

> <Color>
0.096

> <Negative vol penalty>
0.000

$$$$

  -OEChem-04052304593D

 84 92  0     1  0  0  0  0  0999 V2000
  -16.9331  -29.1721   24.4553 C   0  0  0  0  0  0  0  0  0  0  0  0
  -17.3223  -28.0860   23.6780 C   0  0  0  0  0  0  0  0  0  0  0  0
  -27.3402  -17.9024   19.8345 C   0  0  0  0  0  0  0  0  0  0  0  0
  -28.6032  -17.8727   21.8939 C   0  0  0  0  0  0  0  0  0  0  0  0
  -17.5950  -30.3925   24.3271 C   0  0  0  0  0  0  0  0  0  0  0  0
  -18.3731  -28.2199   22.7712 C   0  0  0  0  0  0  0  0  0  0  0  0
  -22.4949  -23.9515   21.2556 C   0  0  0  0  0  0  0  0  0  0  0  0
  -27.1296  -16.5279   19.9438 C   0  0  0  0  0  0  0  0  0  0  0  0
  -28.3927  -16.4982   22.0032 C   0  0  0  0  0  0  0  0  0  0  0  0
  -22.5846  -23.0764   20.1739 C   0  0  0  0  0  0  0  0  0  0  0  0
  -25.1067  -14.4480   21.6802 C   0  0  0  0  0  0  0  0  0  0  0  0
  -23.8191  -13.9684   21.4402 C   0  0  0  0  0  0  0  0  0  0  0  0
  -24.0472  -24.6290   19.0471 C   0  0  0  0  0  0  0  0  0  0  0  0
  -24.6631  -12.6084   19.6304 C   0  0  0  0  0  0  0  0  0  0  0  0
  -28.0770  -18.5748   20.8095 C   0  0  0  0  0  0  0  0  0  0  0  0
  -27.4827  -21.0230   21.2103 C   0  0  0  0  0  0  0  0  0  0  0  0
  -18.6607  -30.5388   23.4252 C   0  0  0  0  0  0  0  0  0  0  0  0
  -23.1730  -25.1788   21.2365 C   0  0  0  0  0  0  0  0  0  0  0  0
  -19.0490  -29.4438   22.6298 C   0  0  0  0  0  0  0  0  0  0  0  0
  -23.9665  -25.5167   20.1309 C   0  0  0  0  0  0  0  0  0  0  0  0
  -27.6558  -15.8258   21.0282 C   0  0  0  0  0  0  0  0  0  0  0  0
  -23.3586  -23.4164   19.0682 C   0  0  0  0  0  0  0  0  0  0  0  0
  -26.1725  -14.0080   20.8953 C   0  0  0  0  0  0  0  0  0  0  0  0
  -23.5973  -13.0485   20.4154 C   0  0  0  0  0  0  0  0  0  0  0  0
  -25.9507  -13.0881   19.8704 C   0  0  0  0  0  0  0  0  0  0  0  0
  -28.2953  -19.9946   20.6968 C   0  0  0  0  0  0  0  0  0  0  0  0
  -28.8030  -24.5669   14.3658 C   0  0  0  0  0  0  0  0  0  0  0  0
  -28.1189  -22.1818   20.8378 C   0  0  0  0  0  0  0  0  0  0  0  0
  -28.3281  -25.1505   13.2099 C   0  0  0  0  0  0  0  0  0  0  0  0
  -26.6554  -24.2943   14.7172 C   0  0  0  0  0  0  0  0  0  0  0  0
  -26.2618  -20.9384   21.9574 C   0  0  0  0  0  0  0  0  0  0  0  0
  -30.2450  -24.4506   14.7035 C   0  0  0  0  0  0  0  0  0  0  0  0
  -22.2907  -28.2308   21.3364 C   0  0  0  0  0  0  0  0  0  0  0  0
  -25.4891  -28.7456   21.5035 C   0  0  0  0  0  0  0  0  0  0  0  0
  -28.6435  -27.6110   20.8639 C   0  0  0  0  0  0  0  0  0  0  0  0
  -25.1483  -23.3115   16.4783 C   0  0  0  0  0  0  0  0  0  0  0  0
  -31.8202  -23.5791   16.4014 C   0  0  0  0  0  0  0  0  0  0  0  0
  -19.3149  -31.8907   23.2877 C   0  0  0  0  0  0  0  0  0  0  0  0
  -23.0874  -26.0998   22.4226 C   0  0  0  0  0  0  0  0  0  0  0  0
  -24.7304  -26.8132   20.0697 C   0  0  0  0  0  0  0  0  0  0  0  0
  -20.6630  -31.8452   22.5730 C   0  0  0  0  0  0  0  0  0  0  0  0
  -32.4805  -23.9122   19.8583 C   0  0  0  0  0  0  0  0  0  0  0  0
  -20.5702  -30.9915   21.3122 C   0  0  0  0  0  0  0  0  0  0  0  0
  -31.3989  -23.0518   20.5171 C   0  0  0  0  0  0  0  0  0  0  0  0
  -32.9954  -23.2838   18.5641 C   0  0  0  0  0  0  0  0  0  0  0  0
  -30.8813  -22.0632   18.2502 C   0  0  0  0  0  0  0  0  0  0  0  0
  -20.2004  -29.5428   21.6528 C   0  0  1  0  0  0  0  0  0  0  0  0
  -23.4074  -27.5507   22.0767 C   0  0  1  0  0  0  0  0  0  0  0  0
  -30.2806  -22.6875   19.5200 C   0  0  1  0  0  0  0  0  0  0  0  0
  -31.1525  -27.5683   20.8893 C   0  0  0  0  0  0  0  0  0  0  0  0
  -23.0026  -22.2650   15.6657 C   0  0  0  0  0  0  0  0  0  0  0  0
  -25.1837  -30.6303   19.1234 C   0  0  0  0  0  0  0  0  0  0  0  0
  -27.6623  -30.5033   18.7938 C   0  0  0  0  0  0  0  0  0  0  0  0
  -26.7337  -31.4465   20.9083 C   0  0  0  0  0  0  0  0  0  0  0  0
  -28.7083  -26.1635   23.4445 C   0  0  0  0  0  0  0  0  0  0  0  0
  -26.5921  -28.9563   20.4946 C   0  0  1  0  0  0  0  0  0  0  0  0
  -29.8869  -27.5486   21.7324 C   0  0  2  0  0  0  0  0  0  0  0  0
  -23.6507  -23.1458   16.7236 C   0  0  1  0  0  0  0  0  0  1  0  0
  -26.5271  -30.3605   19.8300 C   0  0  0  0  0  0  0  0  0  0  0  0
  -29.3661  -20.4591   20.0474 N   0  0  0  0  0  0  0  0  0  0  0  0
  -27.8453  -24.0758   15.2315 N   0  0  0  0  0  0  0  0  0  0  0  0
  -29.2306  -21.7922   20.1502 N   0  0  0  0  0  0  0  0  0  0  0  0
  -24.6097  -27.6831   21.2513 N   0  0  0  0  0  0  0  0  0  0  0  0
  -31.8766  -22.9778   17.6709 N   0  0  0  0  0  0  0  0  0  0  0  0
  -27.8303  -23.4858   21.0344 N   0  0  0  0  0  0  0  0  0  0  0  0
  -25.7467  -19.6692   22.2542 N   0  0  0  0  0  0  0  0  0  0  0  0
  -25.3979  -23.9531   15.2696 N   0  0  0  0  0  0  0  0  0  0  0  0
  -30.5305  -23.8280   15.9190 N   0  0  0  0  0  0  0  0  0  0  0  0
  -21.3555  -28.8316   22.1573 N   0  0  0  0  0  0  0  0  0  0  0  0
  -27.8429  -28.6838   21.1944 N   0  0  0  0  0  0  0  0  0  0  0  0
  -29.8860  -26.3023   22.5496 N   0  3  0  0  0  0  0  0  0  0  0  0
  -25.6373  -21.9583   22.3359 O   0  0  0  0  0  0  0  0  0  0  0  0
  -31.0816  -24.8592   13.9029 O   0  0  0  0  0  0  0  0  0  0  0  0
  -22.2793  -28.2132   20.1112 O   0  0  0  0  0  0  0  0  0  0  0  0
  -25.4148  -29.4916   22.4830 O   0  0  0  0  0  0  0  0  0  0  0  0
  -28.4079  -26.7922   19.9781 O   0  0  0  0  0  0  0  0  0  0  0  0
  -25.9745  -22.9187   17.2970 O   0  0  0  0  0  0  0  0  0  0  0  0
  -32.8305  -23.9016   15.7684 O   0  0  0  0  0  0  0  0  0  0  0  0
  -27.4504  -14.4845   21.1353 O   0  0  0  0  0  0  0  0  0  0  0  0
  -23.4474  -22.5644   18.0108 O   0  0  0  0  0  0  0  0  0  1  0  0
  -22.3610  -12.5868   20.1860 F   0  0  0  0  0  0  0  0  0  0  0  0
  -26.9708  -12.6608   19.1138 F   0  0  0  0  0  0  0  0  0  0  0  0
  -29.0808  -25.6857   12.2451 F   0  0  0  0  0  0  0  0  0  0  0  0
  -26.6143  -25.0855   13.1949 S   0  0  0  0  0  0  0  0  0  0  0  0
  1  2  1  0  0  0  0
  1  5  2  0  0  0  0
  2  6  2  0  0  0  0
  3  8  2  0  0  0  0
  3 15  1  0  0  0  0
  4  9  1  0  0  0  0
  4 15  2  0  0  0  0
  5 17  1  0  0  0  0
  6 19  1  0  0  0  0
  7 10  2  0  0  0  0
  7 18  1  0  0  0  0
  8 21  1  0  0  0  0
  9 21  2  0  0  0  0
 10 22  1  0  0  0  0
 11 12  2  0  0  0  0
 11 23  1  0  0  0  0
 12 24  1  0  0  0  0
 13 20  1  0  0  0  0
 13 22  2  0  0  0  0
 14 24  2  0  0  0  0
 14 25  1  0  0  0  0
 15 26  1  0  0  0  0
 16 26  1  0  0  0  0
 16 28  2  0  0  0  0
 16 31  1  0  0  0  0
 17 19  2  0  0  0  0
 17 38  1  0  0  0  0
 18 20  2  0  0  0  0
 18 39  1  0  0  0  0
 19 47  1  0  0  0  0
 20 40  1  0  0  0  0
 21 79  1  0  0  0  0
 22 80  1  0  0  0  0
 23 25  2  0  0  0  0
 23 79  1  0  0  0  0
 24 81  1  0  0  0  0
 25 82  1  0  0  0  0
 26 60  2  0  0  0  0
 27 29  2  0  0  0  0
 27 32  1  0  0  0  0
 27 61  1  0  0  0  0
 28 62  1  0  0  0  0
 28 65  1  0  0  0  0
 29 83  1  0  0  0  0
 29 84  1  0  0  0  0
 30 61  2  0  0  0  0
 30 67  1  0  0  0  0
 30 84  1  0  0  0  0
 31 66  1  0  0  0  0
 31 72  2  0  0  0  0
 32 68  1  0  0  0  0
 32 73  2  0  0  0  0
 33 48  1  0  0  0  0
 33 69  1  0  0  0  0
 33 74  2  0  0  0  0
 34 56  1  0  0  0  0
 34 63  1  0  0  0  0
 34 75  2  0  0  0  0
 35 57  1  0  0  0  0
 35 70  1  0  0  0  0
 35 76  2  0  0  0  0
 36 58  1  0  0  0  0
 36 67  1  0  0  0  0
 36 77  2  0  0  0  0
 37 64  1  0  0  0  0
 37 68  1  0  0  0  0
 37 78  2  0  0  0  0
 38 41  1  0  0  0  0
 39 48  1  0  0  0  0
 40 63  1  0  0  0  0
 41 43  1  0  0  0  0
 42 44  1  0  0  0  0
 42 45  1  0  0  0  0
 43 47  1  0  0  0  0
 44 49  1  0  0  0  0
 45 64  1  0  0  0  0
 46 49  1  0  0  0  0
 46 64  1  0  0  0  0
 47 69  1  0  0  0  0
 48 63  1  0  0  0  0
 49 62  1  0  0  0  0
 50 57  1  0  0  0  0
 51 58  1  0  0  0  0
 52 59  1  0  0  0  0
 53 59  1  0  0  0  0
 54 59  1  0  0  0  0
 55 71  1  0  0  0  0
 56 59  1  0  0  0  0
 56 70  1  0  0  0  0
 57 71  1  0  0  0  0
 58 80  1  0  0  0  0
 60 62  1  0  0  0  0
M  CHG  1  71   1
M  ISO  4  37 100  58 101  68 100  80 101
M  END
> <Batch ID>
0183

> <Smiles>
CNC(C)C(=O)NC(C(=O)N1Cc2cc([101O:1][101CH:1](C)C(=O)Nc3nc(C(=O)[100NH:0][100C:0](=O)N4CCCC(n5nc(-c6ccc(Oc7ccc(F)cc7F)cc6)c(C(N)=O)c5N)C4)c(F)s3)ccc2CC1C(=O)NC1CCCc2ccccc21)C(C)(C)C

> <Shape>
0.215

> <Color>
0.076

> <Negative vol penalty>
0.000

$$$$

  -OEChem-04052304593D

 86 94  0     1  0  0  0  0  0999 V2000
  -17.5885  -27.1231   23.7598 C   0  0  0  0  0  0  0  0  0  0  0  0
  -18.3647  -26.5647   22.7493 C   0  0  0  0  0  0  0  0  0  0  0  0
  -26.8580  -10.2061   20.9556 C   0  0  0  0  0  0  0  0  0  0  0  0
  -25.6522  -11.6659   19.4549 C   0  0  0  0  0  0  0  0  0  0  0  0
  -17.7454  -28.4672   24.0957 C   0  0  0  0  0  0  0  0  0  0  0  0
  -19.2976  -27.3503   22.0733 C   0  0  0  0  0  0  0  0  0  0  0  0
  -23.7491  -25.0083   21.4871 C   0  0  0  0  0  0  0  0  0  0  0  0
  -25.6771   -9.5188   21.2359 C   0  0  0  0  0  0  0  0  0  0  0  0
  -24.4712  -10.9786   19.7352 C   0  0  0  0  0  0  0  0  0  0  0  0
  -23.8363  -24.0497   20.4785 C   0  0  0  0  0  0  0  0  0  0  0  0
  -22.9319   -9.9650   23.1567 C   0  0  0  0  0  0  0  0  0  0  0  0
  -22.6581   -9.6662   24.4914 C   0  0  0  0  0  0  0  0  0  0  0  0
  -24.9158  -25.6633   19.0466 C   0  0  0  0  0  0  0  0  0  0  0  0
  -22.6378   -7.3095   23.9595 C   0  0  0  0  0  0  0  0  0  0  0  0
  -26.8456  -11.2797   20.0651 C   0  0  0  0  0  0  0  0  0  0  0  0
  -28.9922  -11.7072   18.7547 C   0  0  0  0  0  0  0  0  0  0  0  0
  -18.6875  -29.2673   23.4301 C   0  0  0  0  0  0  0  0  0  0  0  0
  -24.2356  -26.3069   21.2788 C   0  0  0  0  0  0  0  0  0  0  0  0
  -19.4663  -28.7067   22.3997 C   0  0  0  0  0  0  0  0  0  0  0  0
  -24.8359  -26.6358   20.0551 C   0  0  0  0  0  0  0  0  0  0  0  0
  -24.4837   -9.9050   20.6257 C   0  0  0  0  0  0  0  0  0  0  0  0
  -24.4171  -24.3780   19.2570 C   0  0  0  0  0  0  0  0  0  0  0  0
  -23.0586   -8.9361   22.2234 C   0  0  0  0  0  0  0  0  0  0  0  0
  -22.5111   -8.3384   24.8928 C   0  0  0  0  0  0  0  0  0  0  0  0
  -22.9115   -7.6084   22.6248 C   0  0  0  0  0  0  0  0  0  0  0  0
  -28.0650  -11.9904   19.7755 C   0  0  0  0  0  0  0  0  0  0  0  0
  -28.7022  -21.7064   18.9584 C   0  0  0  0  0  0  0  0  0  0  0  0
  -29.9667  -12.6639   18.9009 C   0  0  0  0  0  0  0  0  0  0  0  0
  -27.7767  -21.2082   18.0654 C   0  0  0  0  0  0  0  0  0  0  0  0
  -28.7676  -19.5978   19.5578 C   0  0  0  0  0  0  0  0  0  0  0  0
  -28.9740  -10.6719   17.7630 C   0  0  0  0  0  0  0  0  0  0  0  0
  -22.9392  -29.2089   21.2424 C   0  0  0  0  0  0  0  0  0  0  0  0
  -26.0267  -30.1591   20.9474 C   0  0  0  0  0  0  0  0  0  0  0  0
  -29.2144  -29.3968   19.9964 C   0  0  0  0  0  0  0  0  0  0  0  0
  -26.9734  -23.1581   16.6857 C   0  0  0  0  0  0  0  0  0  0  0  0
  -29.9716  -18.1618   21.2415 C   0  0  0  0  0  0  0  0  0  0  0  0
  -18.7880  -30.7269   23.7959 C   0  0  0  0  0  0  0  0  0  0  0  0
  -24.1581  -27.3217   22.3864 C   0  0  0  0  0  0  0  0  0  0  0  0
  -25.3917  -28.0100   19.7884 C   0  0  0  0  0  0  0  0  0  0  0  0
  -20.0619  -31.3962   23.2865 C   0  0  0  0  0  0  0  0  0  0  0  0
  -32.0324  -15.4286   22.2211 C   0  0  0  0  0  0  0  0  0  0  0  0
  -20.3089  -31.0319   21.8260 C   0  0  0  0  0  0  0  0  0  0  0  0
  -31.3366  -14.2116   21.6071 C   0  0  0  0  0  0  0  0  0  0  0  0
  -31.0270  -16.4654   22.7191 C   0  0  0  0  0  0  0  0  0  0  0  0
  -29.3347  -15.6731   21.1136 C   0  0  0  0  0  0  0  0  0  0  0  0
  -20.5063  -29.5202   21.6603 C   0  0  1  0  0  0  0  0  0  0  0  0
  -24.2220  -28.7607   21.8838 C   0  0  1  0  0  0  0  0  0  0  0  0
  -30.3074  -14.6303   20.5389 C   0  0  2  0  0  0  0  0  0  0  0  0
  -31.5139  -30.3893   19.8395 C   0  0  0  0  0  0  0  0  0  0  0  0
  -22.3986  -23.2735   17.1771 C   0  0  0  0  0  0  0  0  0  0  0  0
  -26.0367  -24.9700   15.1958 C   0  0  0  0  0  0  0  0  0  0  0  0
  -26.4595  -22.7017   14.2705 C   0  0  0  0  0  0  0  0  0  0  0  0
  -25.1735  -31.7401   18.4810 C   0  0  0  0  0  0  0  0  0  0  0  0
  -27.5880  -31.9122   17.8420 C   0  0  0  0  0  0  0  0  0  0  0  0
  -26.7887  -32.9290   19.9750 C   0  0  0  0  0  0  0  0  0  0  0  0
  -30.3364  -27.3826   21.8519 C   0  0  0  0  0  0  0  0  0  0  0  0
  -24.5303  -23.0301   15.8581 C   0  0  0  0  0  0  0  0  0  0  0  0
  -26.9610  -30.4135   19.7892 C   0  0  1  0  0  0  0  0  0  0  0  0
  -30.5474  -29.5874   20.6972 C   0  0  2  0  0  0  0  0  0  0  0  0
  -23.8442  -23.7383   17.0392 C   0  0  2  0  0  0  0  0  0  1  0  0
  -25.9877  -23.4649   15.5277 C   0  0  0  0  0  0  0  0  0  0  0  0
  -26.6157  -31.7233   19.0258 C   0  0  0  0  0  0  0  0  0  0  0  0
  -28.4190  -13.0445   20.5156 N   0  0  0  0  0  0  0  0  0  0  0  0
  -29.2712  -20.7845   19.8152 N   0  0  0  0  0  0  0  0  0  0  0  0
  -29.5794  -13.4319   19.9593 N   0  0  0  0  0  0  0  0  0  0  0  0
  -25.2867  -28.9692   20.9003 N   0  0  0  0  0  0  0  0  0  0  0  0
  -30.0869  -16.8170   21.6526 N   0  0  0  0  0  0  0  0  0  0  0  0
  -29.0584  -23.0119   19.0241 N   0  0  0  0  0  0  0  0  0  0  0  0
  -31.1087  -12.9146   18.2261 N   0  0  0  0  0  0  0  0  0  0  0  0
  -27.8983   -9.7735   17.7546 N   0  0  0  0  0  0  0  0  0  0  0  0
  -26.9949  -21.8165   17.0534 N   0  0  0  0  0  0  0  0  0  0  0  0
  -29.0705  -18.3705   20.1979 N   0  0  0  0  0  0  0  0  0  0  0  0
  -21.8386  -29.1360   22.0747 N   0  0  0  0  0  0  0  0  0  0  0  0
  -28.3117  -30.3810   20.3395 N   0  0  0  0  0  0  0  0  0  0  0  0
  -31.1691  -28.2663   20.9959 N   0  3  0  0  0  0  0  0  0  0  0  0
  -29.8929  -10.5372   16.9198 O   0  0  0  0  0  0  0  0  0  0  0  0
  -22.9477  -29.5939   20.0791 O   0  0  0  0  0  0  0  0  0  0  0  0
  -25.9613  -30.9824   21.8637 O   0  0  0  0  0  0  0  0  0  0  0  0
  -28.9969  -28.4699   19.2192 O   0  0  0  0  0  0  0  0  0  0  0  0
  -27.6463  -24.0542   17.1928 O   0  0  0  0  0  0  0  0  0  0  0  0
  -30.6442  -19.0581   21.7575 O   0  0  0  0  0  0  0  0  0  0  0  0
  -23.3312   -9.2344   20.8989 O   0  0  0  0  0  0  0  0  0  0  0  0
  -24.5028  -23.4444   18.2705 O   0  0  0  0  0  0  0  0  0  1  0  0
  -22.2497   -8.0515   26.1748 F   0  0  0  0  0  0  0  0  0  0  0  0
  -23.0333   -6.6156   21.7330 F   0  0  0  0  0  0  0  0  0  0  0  0
  -27.6053  -19.5176   18.2978 S   0  0  0  0  0  0  0  0  0  0  0  0
  1  2  1  0  0  0  0
  1  5  2  0  0  0  0
  2  6  2  0  0  0  0
  3  8  2  0  0  0  0
  3 15  1  0  0  0  0
  4  9  1  0  0  0  0
  4 15  2  0  0  0  0
  5 17  1  0  0  0  0
  6 19  1  0  0  0  0
  7 10  2  0  0  0  0
  7 18  1  0  0  0  0
  8 21  1  0  0  0  0
  9 21  2  0  0  0  0
 10 22  1  0  0  0  0
 11 12  2  0  0  0  0
 11 23  1  0  0  0  0
 12 24  1  0  0  0  0
 13 20  1  0  0  0  0
 13 22  2  0  0  0  0
 14 24  2  0  0  0  0
 14 25  1  0  0  0  0
 15 26  1  0  0  0  0
 16 26  1  0  0  0  0
 16 28  2  0  0  0  0
 16 31  1  0  0  0  0
 17 19  2  0  0  0  0
 17 37  1  0  0  0  0
 18 20  2  0  0  0  0
 18 38  1  0  0  0  0
 19 46  1  0  0  0  0
 20 39  1  0  0  0  0
 21 82  1  0  0  0  0
 22 83  1  0  0  0  0
 23 25  2  0  0  0  0
 23 82  1  0  0  0  0
 24 84  1  0  0  0  0
 25 85  1  0  0  0  0
 26 63  2  0  0  0  0
 27 29  2  0  0  0  0
 27 64  1  0  0  0  0
 27 68  1  0  0  0  0
 28 65  1  0  0  0  0
 28 69  1  0  0  0  0
 29 71  1  0  0  0  0
 29 86  1  0  0  0  0
 30 64  2  0  0  0  0
 30 72  1  0  0  0  0
 30 86  1  0  0  0  0
 31 70  1  0  0  0  0
 31 76  2  0  0  0  0
 32 47  1  0  0  0  0
 32 73  1  0  0  0  0
 32 77  2  0  0  0  0
 33 58  1  0  0  0  0
 33 66  1  0  0  0  0
 33 78  2  0  0  0  0
 34 59  1  0  0  0  0
 34 74  1  0  0  0  0
 34 79  2  0  0  0  0
 35 61  1  0  0  0  0
 35 71  1  0  0  0  0
 35 80  2  0  0  0  0
 36 67  1  0  0  0  0
 36 72  1  0  0  0  0
 36 81  2  0  0  0  0
 37 40  1  0  0  0  0
 38 47  1  0  0  0  0
 39 66  1  0  0  0  0
 40 42  1  0  0  0  0
 41 43  1  0  0  0  0
 41 44  1  0  0  0  0
 42 46  1  0  0  0  0
 43 48  1  0  0  0  0
 44 67  1  0  0  0  0
 45 48  1  0  0  0  0
 45 67  1  0  0  0  0
 46 73  1  0  0  0  0
 47 66  1  0  0  0  0
 48 65  1  0  0  0  0
 49 59  1  0  0  0  0
 50 60  1  0  0  0  0
 51 61  1  0  0  0  0
 52 61  1  0  0  0  0
 53 62  1  0  0  0  0
 54 62  1  0  0  0  0
 55 62  1  0  0  0  0
 56 75  1  0  0  0  0
 57 60  1  0  0  0  0
 57 61  1  0  0  0  0
 58 62  1  0  0  0  0
 58 74  1  0  0  0  0
 59 75  1  0  0  0  0
 60 83  1  0  0  0  0
 63 65  1  0  0  0  0
M  CHG  1  75   1
M  ISO  4  36 100  60 101  72 100  83 101
M  END
> <Batch ID>
0183

> <Smiles>
CNC(C)C(=O)NC(C(=O)N1Cc2cc([101O:1][101CH:1](C)CC(C)(C)C(=O)Nc3sc([100NH:0][100C:0](=O)N4CCCC(n5nc(-c6ccc(Oc7ccc(F)cc7F)cc6)c(C(N)=O)c5N)C4)nc3N)ccc2CC1C(=O)NC1CCCc2ccccc21)C(C)(C)C

> <Shape>
0.286

> <Color>
0.072

> <Negative vol penalty>
0.000

$$$$

  -OEChem-04052304593D

 86 94  0     1  0  0  0  0  0999 V2000
  -28.5491  -11.3701   20.0214 C   0  0  0  0  0  0  0  0  0  0  0  0
  -28.5952  -12.4823   19.1870 C   0  0  0  0  0  0  0  0  0  0  0  0
  -19.8973  -28.5854   23.3095 C   0  0  0  0  0  0  0  0  0  0  0  0
  -20.8333  -26.5017   22.5227 C   0  0  0  0  0  0  0  0  0  0  0  0
  -27.4089  -11.1186   20.7834 C   0  0  0  0  0  0  0  0  0  0  0  0
  -27.5007  -13.3431   19.1132 C   0  0  0  0  0  0  0  0  0  0  0  0
  -27.6386  -19.4145   18.3228 C   0  0  0  0  0  0  0  0  0  0  0  0
  -18.6902  -28.2807   22.6804 C   0  0  0  0  0  0  0  0  0  0  0  0
  -19.6261  -26.1970   21.8936 C   0  0  0  0  0  0  0  0  0  0  0  0
  -27.4709  -20.2177   17.1956 C   0  0  0  0  0  0  0  0  0  0  0  0
  -16.5869  -25.0141   22.7792 C   0  0  0  0  0  0  0  0  0  0  0  0
  -16.0877  -23.7204   22.9300 C   0  0  0  0  0  0  0  0  0  0  0  0
  -25.1485  -20.5279   17.7695 C   0  0  0  0  0  0  0  0  0  0  0  0
  -16.1760  -23.4073   20.5360 C   0  0  0  0  0  0  0  0  0  0  0  0
  -20.9688  -27.6959   23.2306 C   0  0  0  0  0  0  0  0  0  0  0  0
  -22.5958  -27.6837   25.1954 C   0  0  0  0  0  0  0  0  0  0  0  0
  -26.3036  -11.9821   20.7263 C   0  0  0  0  0  0  0  0  0  0  0  0
  -26.5580  -19.1526   19.1773 C   0  0  0  0  0  0  0  0  0  0  0  0
  -26.3441  -13.1022   19.8742 C   0  0  0  0  0  0  0  0  0  0  0  0
  -25.3057  -19.7231   18.9082 C   0  0  0  0  0  0  0  0  0  0  0  0
  -18.5546  -27.0865   21.9725 C   0  0  0  0  0  0  0  0  0  0  0  0
  -26.2251  -20.7722   16.9172 C   0  0  0  0  0  0  0  0  0  0  0  0
  -16.8805  -25.5045   21.5067 C   0  0  0  0  0  0  0  0  0  0  0  0
  -15.8823  -22.9170   21.8084 C   0  0  0  0  0  0  0  0  0  0  0  0
  -16.6751  -24.7011   20.3852 C   0  0  0  0  0  0  0  0  0  0  0  0
  -29.7148  -26.5317   18.1982 C   0  0  0  0  0  0  0  0  0  0  0  0
  -29.0293  -25.8550   17.1483 C   0  0  0  0  0  0  0  0  0  0  0  0
  -22.2162  -28.0103   23.8797 C   0  0  0  0  0  0  0  0  0  0  0  0
  -28.9082  -26.7347   19.2963 C   0  0  0  0  0  0  0  0  0  0  0  0
  -23.8611  -28.2017   25.3263 C   0  0  0  0  0  0  0  0  0  0  0  0
  -27.7248  -25.5662   17.4841 C   0  0  0  0  0  0  0  0  0  0  0  0
  -21.8696  -26.9754   26.2086 C   0  0  0  0  0  0  0  0  0  0  0  0
  -24.9956  -16.5361   20.0807 C   0  0  0  0  0  0  0  0  0  0  0  0
  -23.4878  -18.5983   22.0797 C   0  0  0  0  0  0  0  0  0  0  0  0
  -22.5462  -21.8072   22.7605 C   0  0  0  0  0  0  0  0  0  0  0  0
  -26.7843  -24.3915   15.4685 C   0  0  0  0  0  0  0  0  0  0  0  0
  -28.1706  -29.4853   21.3725 C   0  0  0  0  0  0  0  0  0  0  0  0
  -25.0751  -11.6430   21.5329 C   0  0  0  0  0  0  0  0  0  0  0  0
  -26.7617  -18.3060   20.4037 C   0  0  0  0  0  0  0  0  0  0  0  0
  -24.1185  -19.4892   19.8051 C   0  0  0  0  0  0  0  0  0  0  0  0
  -24.1022  -12.8099   21.6806 C   0  0  0  0  0  0  0  0  0  0  0  0
  -26.6530  -31.7246   23.6875 C   0  0  0  0  0  0  0  0  0  0  0  0
  -23.8779  -13.4916   20.3345 C   0  0  0  0  0  0  0  0  0  0  0  0
  -25.3781  -30.9971   24.1180 C   0  0  0  0  0  0  0  0  0  0  0  0
  -26.9705  -31.4825   22.2135 C   0  0  0  0  0  0  0  0  0  0  0  0
  -25.7613  -29.3354   22.2497 C   0  0  0  0  0  0  0  0  0  0  0  0
  -25.1865  -14.0729   19.7857 C   0  0  1  0  0  0  0  0  0  0  0  0
  -25.4681  -17.6866   20.9238 C   0  0  1  0  0  0  0  0  0  0  0  0
  -25.4305  -29.5040   23.7425 C   0  0  2  0  0  0  0  0  0  0  0  0
  -29.8059  -26.4236   21.6327 C   0  0  0  0  0  0  0  0  0  0  0  0
  -21.2909  -23.1758   24.4482 C   0  0  0  0  0  0  0  0  0  0  0  0
  -20.8479  -17.5723   20.9447 C   0  0  0  0  0  0  0  0  0  0  0  0
  -19.7237  -19.5804   21.9306 C   0  0  0  0  0  0  0  0  0  0  0  0
  -20.8512  -17.9274   23.4203 C   0  0  0  0  0  0  0  0  0  0  0  0
  -24.9437  -23.4159   23.4110 C   0  0  0  0  0  0  0  0  0  0  0  0
  -25.0708  -22.5830   15.8951 C   0  0  0  0  0  0  0  0  0  1  0  0
  -29.2445  -27.3943   20.5764 C   0  0  2  0  0  0  0  0  0  0  0  0
  -22.2564  -19.4671   21.9896 C   0  0  1  0  0  0  0  0  0  0  0  0
  -22.6500  -22.6407   24.0250 C   0  0  2  0  0  0  0  0  0  0  0  0
  -25.4711  -23.7677   15.0285 C   0  0  2  0  0  0  0  0  0  0  0  0
  -20.9415  -18.6398   22.0531 C   0  0  0  0  0  0  0  0  0  0  0  0
  -23.1636  -28.6837   23.2218 N   0  0  0  0  0  0  0  0  0  0  0  0
  -24.1511  -28.7846   24.1278 N   0  0  0  0  0  0  0  0  0  0  0  0
  -24.3666  -18.6492   20.9885 N   0  0  0  0  0  0  0  0  0  0  0  0
  -27.0072  -30.0470   21.9238 N   0  0  0  0  0  0  0  0  0  0  0  0
  -24.7428  -28.2109   26.3485 N   0  0  0  0  0  0  0  0  0  0  0  0
  -20.5818  -26.5118   25.9070 N   0  0  0  0  0  0  0  0  0  0  0  0
  -26.7035  -24.9146   16.7529 N   0  0  0  0  0  0  0  0  0  0  0  0
  -25.5114  -15.3115   20.4600 N   0  0  0  0  0  0  0  0  0  0  0  0
  -22.3846  -20.4674   23.0437 N   0  0  0  0  0  0  0  0  0  0  0  0
  -28.1235  -28.1171   21.1347 N   0  0  0  0  0  0  0  0  0  0  0  0
  -23.5643  -23.7976   23.8092 N   0  3  0  0  0  0  0  0  0  0  0  0
  -22.3420  -26.7744   27.3531 O   0  0  0  0  0  0  0  0  0  0  0  0
  -24.2192  -16.7438   19.1556 O   0  0  0  0  0  0  0  0  0  0  0  0
  -23.6669  -17.9056   23.0846 O   0  0  0  0  0  0  0  0  0  0  0  0
  -22.5991  -22.2962   21.6342 O   0  0  0  0  0  0  0  0  0  0  0  0
  -27.7520  -24.4021   14.7132 O   0  0  0  0  0  0  0  0  0  0  0  0
  -29.1786  -30.1525   21.1166 O   0  0  0  0  0  0  0  0  0  0  0  0
  -17.3768  -26.7888   21.3587 O   0  0  0  0  0  0  0  0  0  0  0  0
  -26.0585  -21.5560   15.8173 O   0  0  0  0  0  0  0  0  0  1  0  0
  -15.4044  -21.6742   21.9535 F   0  0  0  0  0  0  0  0  0  0  0  0
  -16.9565  -25.1662   19.1603 F   0  0  0  0  0  0  0  0  0  0  0  0
  -30.9888  -26.9212   18.1216 F   0  0  0  0  0  0  0  0  0  0  0  0
  -29.5899  -25.5402   15.9788 F   0  0  0  0  0  0  0  0  0  0  0  0
  -25.5577  -23.3371   13.7369 F   0  0  0  0  0  0  0  0  0  0  0  0
  -27.3313  -26.1105   19.0593 S   0  0  0  0  0  0  0  0  0  0  0  0
  1  2  1  0  0  0  0
  1  5  2  0  0  0  0
  2  6  2  0  0  0  0
  3  8  2  0  0  0  0
  3 15  1  0  0  0  0
  4  9  1  0  0  0  0
  4 15  2  0  0  0  0
  5 17  1  0  0  0  0
  6 19  1  0  0  0  0
  7 10  2  0  0  0  0
  7 18  1  0  0  0  0
  8 21  1  0  0  0  0
  9 21  2  0  0  0  0
 10 22  1  0  0  0  0
 11 12  2  0  0  0  0
 11 23  1  0  0  0  0
 12 24  1  0  0  0  0
 13 20  1  0  0  0  0
 13 22  2  0  0  0  0
 14 24  2  0  0  0  0
 14 25  1  0  0  0  0
 15 28  1  0  0  0  0
 16 28  1  0  0  0  0
 16 30  2  0  0  0  0
 16 32  1  0  0  0  0
 17 19  2  0  0  0  0
 17 38  1  0  0  0  0
 18 20  2  0  0  0  0
 18 39  1  0  0  0  0
 19 47  1  0  0  0  0
 20 40  1  0  0  0  0
 21 79  1  0  0  0  0
 22 80  1  0  0  0  0
 23 25  2  0  0  0  0
 23 79  1  0  0  0  0
 24 81  1  0  0  0  0
 25 82  1  0  0  0  0
 26 27  1  0  0  0  0
 26 29  2  0  0  0  0
 26 83  1  0  0  0  0
 27 31  2  0  0  0  0
 27 84  1  0  0  0  0
 28 62  2  0  0  0  0
 29 57  1  0  0  0  0
 29 86  1  0  0  0  0
 30 63  1  0  0  0  0
 30 66  1  0  0  0  0
 31 68  1  0  0  0  0
 31 86  1  0  0  0  0
 32 67  1  0  0  0  0
 32 73  2  0  0  0  0
 33 48  1  0  0  0  0
 33 69  1  0  0  0  0
 33 74  2  0  0  0  0
 34 58  1  0  0  0  0
 34 64  1  0  0  0  0
 34 75  2  0  0  0  0
 35 59  1  0  0  0  0
 35 70  1  0  0  0  0
 35 76  2  0  0  0  0
 36 60  1  0  0  0  0
 36 68  1  0  0  0  0
 36 77  2  0  0  0  0
 37 65  1  0  0  0  0
 37 71  1  0  0  0  0
 37 78  2  0  0  0  0
 38 41  1  0  0  0  0
 39 48  1  0  0  0  0
 40 64  1  0  0  0  0
 41 43  1  0  0  0  0
 42 44  1  0  0  0  0
 42 45  1  0  0  0  0
 43 47  1  0  0  0  0
 44 49  1  0  0  0  0
 45 65  1  0  0  0  0
 46 49  1  0  0  0  0
 46 65  1  0  0  0  0
 47 69  1  0  0  0  0
 48 64  1  0  0  0  0
 49 63  1  0  0  0  0
 50 57  1  0  0  0  0
 51 59  1  0  0  0  0
 52 61  1  0  0  0  0
 53 61  1  0  0  0  0
 54 61  1  0  0  0  0
 55 72  1  0  0  0  0
 56 60  1  0  0  0  0
 56 80  1  0  0  0  0
 57 71  1  0  0  0  0
 58 61  1  0  0  0  0
 58 70  1  0  0  0  0
 59 72  1  0  0  0  0
 60 85  1  0  0  0  0
 62 63  1  0  0  0  0
M  CHG  1  72   1
M  ISO  4  37 100  56 101  71 100  80 101
M  END
> <Batch ID>
0183

> <Smiles>
CNC(C)C(=O)NC(C(=O)N1Cc2cc([101O:1][101CH2:1]C(F)C(=O)Nc3sc(C(C)[100NH:0][100C:0](=O)N4CCCC(n5nc(-c6ccc(Oc7ccc(F)cc7F)cc6)c(C(N)=O)c5N)C4)c(F)c3F)ccc2CC1C(=O)NC1CCCc2ccccc21)C(C)(C)C

> <Shape>
0.191

> <Color>
0.071

> <Negative vol penalty>
0.000

$$$$

  -OEChem-04052304593D

 82 90  0     1  0  0  0  0  0999 V2000
  -18.0895  -31.0325   22.9543 C   0  0  0  0  0  0  0  0  0  0  0  0
  -19.4763  -31.0954   22.8622 C   0  0  0  0  0  0  0  0  0  0  0  0
  -27.0948  -13.2612   21.2056 C   0  0  0  0  0  0  0  0  0  0  0  0
  -26.6448  -14.0430   18.9643 C   0  0  0  0  0  0  0  0  0  0  0  0
  -17.4476  -29.7948   22.9560 C   0  0  0  0  0  0  0  0  0  0  0  0
  -20.2219  -29.9205   22.7728 C   0  0  0  0  0  0  0  0  0  0  0  0
  -25.4000  -29.0780   19.6130 C   0  0  0  0  0  0  0  0  0  0  0  0
  -26.3267  -12.1226   20.9627 C   0  0  0  0  0  0  0  0  0  0  0  0
  -25.8767  -12.9043   18.7213 C   0  0  0  0  0  0  0  0  0  0  0  0
  -26.7417  -29.0854   19.9918 C   0  0  0  0  0  0  0  0  0  0  0  0
  -24.1879   -9.1830   21.0513 C   0  0  0  0  0  0  0  0  0  0  0  0
  -23.2831   -8.7868   22.0362 C   0  0  0  0  0  0  0  0  0  0  0  0
  -26.6906  -26.6824   20.1976 C   0  0  0  0  0  0  0  0  0  0  0  0
  -22.1421  -10.9074   21.8411 C   0  0  0  0  0  0  0  0  0  0  0  0
  -27.2538  -14.2215   20.2065 C   0  0  0  0  0  0  0  0  0  0  0  0
  -29.4277  -15.5560   20.2346 C   0  0  0  0  0  0  0  0  0  0  0  0
  -18.1851  -28.6045   22.8568 C   0  0  0  0  0  0  0  0  0  0  0  0
  -24.6893  -27.8717   19.5341 C   0  0  0  0  0  0  0  0  0  0  0  0
  -19.5894  -28.6657   22.7745 C   0  0  0  0  0  0  0  0  0  0  0  0
  -25.3406  -26.6622   19.8151 C   0  0  0  0  0  0  0  0  0  0  0  0
  -25.7177  -11.9441   19.7205 C   0  0  0  0  0  0  0  0  0  0  0  0
  -27.3864  -27.8877   20.2870 C   0  0  0  0  0  0  0  0  0  0  0  0
  -24.0698  -10.4414   20.4613 C   0  0  0  0  0  0  0  0  0  0  0  0
  -22.2603   -9.6490   22.4311 C   0  0  0  0  0  0  0  0  0  0  0  0
  -23.0469  -11.3036   20.8562 C   0  0  0  0  0  0  0  0  0  0  0  0
  -28.0466  -15.3982   20.4570 C   0  0  0  0  0  0  0  0  0  0  0  0
  -31.4995  -24.9233   19.0358 C   0  0  0  0  0  0  0  0  0  0  0  0
  -29.6942  -16.8442   20.6295 C   0  0  0  0  0  0  0  0  0  0  0  0
  -32.2305  -24.0942   18.2110 C   0  0  0  0  0  0  0  0  0  0  0  0
  -30.4002  -23.0580   19.3851 C   0  0  0  0  0  0  0  0  0  0  0  0
  -29.5855  -27.1999   19.8850 C   0  0  0  0  0  0  0  0  0  1  0  0
  -30.3842  -14.6216   19.7171 C   0  0  0  0  0  0  0  0  0  0  0  0
  -31.7724  -26.3633   19.2283 C   0  0  0  0  0  0  0  0  0  0  0  0
  -30.8948  -27.1360   20.1549 C   0  0  0  0  0  0  0  0  0  0  0  0
  -22.1481  -26.6644   21.0136 C   0  0  0  0  0  0  0  0  0  0  0  0
  -22.5142  -24.2709   18.8551 C   0  0  0  0  0  0  0  0  0  0  0  0
  -25.2551  -22.4097   17.4265 C   0  0  0  0  0  0  0  0  0  0  0  0
  -28.4292  -22.2655   20.7391 C   0  0  0  0  0  0  0  0  0  0  0  0
  -17.4502  -27.2886   22.9103 C   0  0  0  0  0  0  0  0  0  0  0  0
  -23.2497  -27.8783   19.0981 C   0  0  0  0  0  0  0  0  0  0  0  0
  -24.6279  -25.3383   19.7258 C   0  0  0  0  0  0  0  0  0  0  0  0
  -18.2871  -26.1038   22.4347 C   0  0  0  0  0  0  0  0  0  0  0  0
  -26.8311  -20.1786   23.1408 C   0  0  0  0  0  0  0  0  0  0  0  0
  -19.6762  -26.1448   23.0634 C   0  0  0  0  0  0  0  0  0  0  0  0
  -27.1185  -18.7618   22.6384 C   0  0  0  0  0  0  0  0  0  0  0  0
  -26.5920  -21.1516   21.9877 C   0  0  0  0  0  0  0  0  0  0  0  0
  -27.9331  -19.7569   20.4628 C   0  0  0  0  0  0  0  0  0  0  0  0
  -20.4312  -27.4142   22.6509 C   0  0  1  0  0  0  0  0  0  0  0  0
  -22.4832  -26.6388   19.5491 C   0  0  1  0  0  0  0  0  0  0  0  0
  -28.2448  -18.7547   21.5862 C   0  0  2  0  0  0  0  0  0  0  0  0
  -25.4586  -21.2462   15.2124 C   0  0  0  0  0  0  0  0  0  0  0  0
  -21.6055  -21.7998   20.3973 C   0  0  0  0  0  0  0  0  0  0  0  0
  -23.2110  -20.4451   19.0352 C   0  0  0  0  0  0  0  0  0  0  0  0
  -21.3294  -21.6414   17.9167 C   0  0  0  0  0  0  0  0  0  0  0  0
  -27.7035  -23.9184   16.7276 C   0  0  0  0  0  0  0  0  0  0  0  0
  -23.2809  -22.9709   18.8201 C   0  0  1  0  0  0  0  0  0  0  0  0
  -25.7750  -22.5059   16.0034 C   0  0  2  0  0  0  0  0  0  0  0  0
  -22.3658  -21.7365   19.0575 C   0  0  0  0  0  0  0  0  0  0  0  0
  -27.4756  -16.4983   20.9548 N   0  0  0  0  0  0  0  0  0  0  0  0
  -30.4493  -24.3310   19.7096 N   0  0  0  0  0  0  0  0  0  0  0  0
  -28.5030  -17.3596   21.0485 N   0  0  0  0  0  0  0  0  0  0  0  0
  -23.2195  -25.3975   19.3012 N   0  0  0  0  0  0  0  0  0  0  0  0
  -27.7011  -21.0932   21.0331 N   0  0  0  0  0  0  0  0  0  0  0  0
  -30.8290  -17.5750   20.6558 N   0  0  0  0  0  0  0  0  0  0  0  0
  -33.3007  -24.4076   17.4399 N   0  0  0  0  0  0  0  0  0  0  0  0
  -29.9413  -13.3407   19.3600 N   0  0  0  0  0  0  0  0  0  0  0  0
  -29.4813  -22.0812   19.8427 N   0  0  0  0  0  0  0  0  0  0  0  0
  -20.9463  -27.2810   21.3051 N   0  0  0  0  0  0  0  0  0  0  0  0
  -23.9926  -22.9510   17.5467 N   0  0  0  0  0  0  0  0  0  0  0  0
  -27.2523  -22.7021   16.0038 N   0  3  0  0  0  0  0  0  0  0  0  0
  -31.5989  -14.9085   19.5910 O   0  0  0  0  0  0  0  0  0  0  0  0
  -32.7212  -26.8721   18.6400 O   0  0  0  0  0  0  0  0  0  0  0  0
  -22.9219  -26.1608   21.8193 O   0  0  0  0  0  0  0  0  0  0  0  0
  -21.3351  -24.2875   18.4930 O   0  0  0  0  0  0  0  0  0  0  0  0
  -25.9026  -21.9017   18.3392 O   0  0  0  0  0  0  0  0  0  0  0  0
  -28.1576  -23.3474   21.2662 O   0  0  0  0  0  0  0  0  0  0  0  0
  -31.4649  -27.7812   21.2314 O   0  0  0  0  0  0  0  0  0  0  0  0
  -24.9683  -10.8330   19.4830 O   0  0  0  0  0  0  0  0  0  0  0  0
  -28.6958  -27.8922   20.6576 O   0  0  0  0  0  0  0  0  0  1  0  0
  -21.3906   -9.2678   23.3759 F   0  0  0  0  0  0  0  0  0  0  0  0
  -22.9277  -12.5134   20.2922 F   0  0  0  0  0  0  0  0  0  0  0  0
  -31.5869  -22.5059   18.2753 S   0  0  0  0  0  0  0  0  0  0  0  0
  1  2  1  0  0  0  0
  1  5  2  0  0  0  0
  2  6  2  0  0  0  0
  3  8  2  0  0  0  0
  3 15  1  0  0  0  0
  4  9  1  0  0  0  0
  4 15  2  0  0  0  0
  5 17  1  0  0  0  0
  6 19  1  0  0  0  0
  7 10  2  0  0  0  0
  7 18  1  0  0  0  0
  8 21  1  0  0  0  0
  9 21  2  0  0  0  0
 10 22  1  0  0  0  0
 11 12  2  0  0  0  0
 11 23  1  0  0  0  0
 12 24  1  0  0  0  0
 13 20  1  0  0  0  0
 13 22  2  0  0  0  0
 14 24  2  0  0  0  0
 14 25  1  0  0  0  0
 15 26  1  0  0  0  0
 16 26  1  0  0  0  0
 16 28  2  0  0  0  0
 16 32  1  0  0  0  0
 17 19  2  0  0  0  0
 17 39  1  0  0  0  0
 18 20  2  0  0  0  0
 18 40  1  0  0  0  0
 19 48  1  0  0  0  0
 20 41  1  0  0  0  0
 21 78  1  0  0  0  0
 22 79  1  0  0  0  0
 23 25  2  0  0  0  0
 23 78  1  0  0  0  0
 24 80  1  0  0  0  0
 25 81  1  0  0  0  0
 26 59  2  0  0  0  0
 27 29  2  0  0  0  0
 27 33  1  0  0  0  0
 27 60  1  0  0  0  0
 28 61  1  0  0  0  0
 28 64  1  0  0  0  0
 29 65  1  0  0  0  0
 29 82  1  0  0  0  0
 30 60  2  0  0  0  0
 30 67  1  0  0  0  0
 30 82  1  0  0  0  0
 31 34  2  0  0  0  0
 31 79  1  0  0  0  0
 32 66  1  0  0  0  0
 32 71  2  0  0  0  0
 33 34  1  0  0  0  0
 33 72  2  0  0  0  0
 34 77  1  0  0  0  0
 35 49  1  0  0  0  0
 35 68  1  0  0  0  0
 35 73  2  0  0  0  0
 36 56  1  0  0  0  0
 36 62  1  0  0  0  0
 36 74  2  0  0  0  0
 37 57  1  0  0  0  0
 37 69  1  0  0  0  0
 37 75  2  0  0  0  0
 38 63  1  0  0  0  0
 38 67  1  0  0  0  0
 38 76  2  0  0  0  0
 39 42  1  0  0  0  0
 40 49  1  0  0  0  0
 41 62  1  0  0  0  0
 42 44  1  0  0  0  0
 43 45  1  0  0  0  0
 43 46  1  0  0  0  0
 44 48  1  0  0  0  0
 45 50  1  0  0  0  0
 46 63  1  0  0  0  0
 47 50  1  0  0  0  0
 47 63  1  0  0  0  0
 48 68  1  0  0  0  0
 49 62  1  0  0  0  0
 50 61  1  0  0  0  0
 51 57  1  0  0  0  0
 52 58  1  0  0  0  0
 53 58  1  0  0  0  0
 54 58  1  0  0  0  0
 55 70  1  0  0  0  0
 56 58  1  0  0  0  0
 56 69  1  0  0  0  0
 57 70  1  0  0  0  0
 59 61  1  0  0  0  0
M  CHG  1  70   1
M  ISO  4  31 101  38 100  67 100  79 101
M  END
> <Batch ID>
0183

> <Smiles>
CNC(C)C(=O)NC(C(=O)N1Cc2cc([101O:1][101CH2:1]C(=O)C(=O)c3nc([100NH:0][100C:0](=O)N4CCCC(n5nc(-c6ccc(Oc7ccc(F)cc7F)cc6)c(C(N)=O)c5N)C4)sc3N)ccc2CC1C(=O)NC1CCCc2ccccc21)C(C)(C)C

> <Shape>
0.282

> <Color>
0.076

> <Negative vol penalty>
0.000

$$$$

  -OEChem-04052304593D

 85 93  0     1  0  0  0  0  0999 V2000
  -26.4696  -23.3011   18.0096 C   0  0  0  0  0  0  0  0  0  0  0  0
  -25.3380  -23.9440   18.5010 C   0  0  0  0  0  0  0  0  0  0  0  0
  -24.0648  -13.1545   21.9136 C   0  0  0  0  0  0  0  0  0  0  0  0
  -25.5598  -14.5753   20.6553 C   0  0  0  0  0  0  0  0  0  0  0  0
  -27.7066  -23.5066   18.6189 C   0  0  0  0  0  0  0  0  0  0  0  0
  -25.4426  -24.7921   19.6030 C   0  0  0  0  0  0  0  0  0  0  0  0
  -22.8956  -29.1230   18.9701 C   0  0  0  0  0  0  0  0  0  0  0  0
  -24.6533  -12.0273   21.3402 C   0  0  0  0  0  0  0  0  0  0  0  0
  -26.1484  -13.4481   20.0819 C   0  0  0  0  0  0  0  0  0  0  0  0
  -21.5129  -29.0798   19.1438 C   0  0  0  0  0  0  0  0  0  0  0  0
  -28.4083  -11.0969   20.9680 C   0  0  0  0  0  0  0  0  0  0  0  0
  -29.8010  -11.0577   20.9017 C   0  0  0  0  0  0  0  0  0  0  0  0
  -23.0382  -24.9550   23.7980 C   0  0  0  0  0  0  0  0  0  0  0  0
  -22.9093  -23.6734   23.2746 C   0  0  0  0  0  0  0  0  0  0  0  0
  -21.7696  -29.9861   21.3646 C   0  0  0  0  0  0  0  0  0  0  0  0
  -29.6818  -10.8941   18.4942 C   0  0  0  0  0  0  0  0  0  0  0  0
  -24.5180  -14.4285   21.5712 C   0  0  0  0  0  0  0  0  0  0  0  0
  -24.2947  -16.2417   23.3516 C   0  0  0  0  0  0  0  0  0  0  0  0
  -27.8282  -24.3652   19.7229 C   0  0  0  0  0  0  0  0  0  0  0  0
  -23.7279  -29.5887   19.9981 C   0  0  0  0  0  0  0  0  0  0  0  0
  -26.6822  -25.0083   20.2285 C   0  0  0  0  0  0  0  0  0  0  0  0
  -23.1623  -30.0366   21.2005 C   0  0  0  0  0  0  0  0  0  0  0  0
  -25.6951  -12.1741   20.4244 C   0  0  0  0  0  0  0  0  0  0  0  0
  -20.9500  -29.5086   20.3422 C   0  0  0  0  0  0  0  0  0  0  0  0
  -27.6523  -11.0347   19.7974 C   0  0  0  0  0  0  0  0  0  0  0  0
  -30.4378  -10.9563   19.6648 C   0  0  0  0  0  0  0  0  0  0  0  0
  -22.0252  -25.8864   23.5990 C   0  0  0  0  0  0  0  0  0  0  0  0
  -28.2891  -10.9333   18.5605 C   0  0  0  0  0  0  0  0  0  0  0  0
  -23.9101  -15.5932   22.1628 C   0  0  0  0  0  0  0  0  0  0  0  0
  -21.7570  -23.3754   22.5653 C   0  0  0  0  0  0  0  0  0  0  0  0
  -20.9125  -25.4894   22.8750 C   0  0  0  0  0  0  0  0  0  0  0  0
  -23.4095  -17.2845   23.4757 C   0  0  0  0  0  0  0  0  0  0  0  0
  -25.3572  -15.9295   24.2623 C   0  0  0  0  0  0  0  0  0  0  0  0
  -26.0549  -28.3164   21.7503 C   0  0  0  0  0  0  0  0  0  0  0  0
  -26.3482  -31.3505   22.8596 C   0  0  0  0  0  0  0  0  0  0  0  0
  -24.8970  -34.3926   23.3945 C   0  0  0  0  0  0  0  0  0  0  0  0
  -18.6909  -26.2663   21.9882 C   0  0  0  0  0  0  0  0  0  0  0  0
  -20.5719  -21.5505   21.2958 C   0  0  0  0  0  0  0  0  0  0  0  0
  -29.1781  -24.5192   20.3776 C   0  0  0  0  0  0  0  0  0  0  0  0
  -25.2154  -29.6541   19.7851 C   0  0  0  0  0  0  0  0  0  0  0  0
  -24.0105  -30.5644   22.3276 C   0  0  0  0  0  0  0  0  0  0  0  0
  -29.2694  -25.7253   21.3088 C   0  0  0  0  0  0  0  0  0  0  0  0
  -19.1475  -18.3064   20.9432 C   0  0  0  0  0  0  0  0  0  0  0  0
  -28.0484  -25.7892   22.2209 C   0  0  0  0  0  0  0  0  0  0  0  0
  -20.2913  -17.3647   21.3269 C   0  0  0  0  0  0  0  0  0  0  0  0
  -19.6520  -19.5297   20.1798 C   0  0  0  0  0  0  0  0  0  0  0  0
  -21.8732  -19.3330   21.2270 C   0  0  0  0  0  0  0  0  0  0  0  0
  -26.7596  -25.9550   21.4066 C   0  0  1  0  0  0  0  0  0  0  0  0
  -26.0059  -29.6651   21.0898 C   0  0  1  0  0  0  0  0  0  0  0  0
  -21.4219  -18.1184   22.0544 C   0  0  2  0  0  0  0  0  0  0  0  0
  -25.3750  -36.6620   24.3532 C   0  0  0  0  0  0  0  0  0  0  0  0
  -26.0886  -30.2117   25.6784 C   0  0  0  0  0  0  0  0  0  0  0  0
  -25.6198  -32.5309   26.4970 C   0  0  0  0  0  0  0  0  0  0  0  0
  -27.8138  -32.0055   25.4327 C   0  0  0  0  0  0  0  0  0  0  0  0
  -24.4152  -35.7206   20.7939 C   0  0  0  0  0  0  0  0  0  0  0  0
  -17.6108  -28.0810   20.5690 C   0  0  0  0  0  0  0  0  0  0  0  0
  -18.8880  -28.4467   19.8163 C   0  0  0  0  0  0  0  0  0  1  0  0
  -25.7387  -32.1374   23.9946 C   0  0  1  0  0  0  0  0  0  0  0  0
  -25.3750  -35.8027   23.0984 C   0  0  2  0  0  0  0  0  0  0  0  0
  -17.8511  -27.5322   21.9779 C   0  0  2  0  0  0  0  0  0  0  0  0
  -26.2991  -31.7097   25.3803 C   0  0  0  0  0  0  0  0  0  0  0  0
  -22.8621  -16.1752   21.5737 N   0  0  0  0  0  0  0  0  0  0  0  0
  -20.7516  -24.2535   22.3513 N   0  0  0  0  0  0  0  0  0  0  0  0
  -22.5806  -17.2003   22.3959 N   0  0  0  0  0  0  0  0  0  0  0  0
  -25.4602  -30.6026   22.0734 N   0  0  0  0  0  0  0  0  0  0  0  0
  -20.7184  -20.1954   20.9312 N   0  0  0  0  0  0  0  0  0  0  0  0
  -23.2670  -18.2561   24.4021 N   0  0  0  0  0  0  0  0  0  0  0  0
  -26.1724  -14.8239   23.9840 N   0  0  0  0  0  0  0  0  0  0  0  0
  -19.8849  -26.4415   22.6758 N   0  0  0  0  0  0  0  0  0  0  0  0
  -21.6350  -22.0667   22.0359 N   0  0  0  0  0  0  0  0  0  0  0  0
  -26.6133  -27.3256   20.9654 N   0  0  0  0  0  0  0  0  0  0  0  0
  -25.9482  -33.5452   23.6739 N   0  0  0  0  0  0  0  0  0  0  0  0
  -24.4905  -36.4478   22.0871 N   0  3  0  0  0  0  0  0  0  0  0  0
  -25.5669  -16.6009   25.3009 O   0  0  0  0  0  0  0  0  0  0  0  0
  -25.6196  -28.1847   22.8882 O   0  0  0  0  0  0  0  0  0  0  0  0
  -27.5664  -31.4032   22.6728 O   0  0  0  0  0  0  0  0  0  0  0  0
  -23.7096  -34.0756   23.3831 O   0  0  0  0  0  0  0  0  0  0  0  0
  -18.2941  -25.2531   21.4198 O   0  0  0  0  0  0  0  0  0  0  0  0
  -19.5643  -22.1973   20.9983 O   0  0  0  0  0  0  0  0  0  0  0  0
  -26.2697  -11.0745   19.8648 O   0  0  0  0  0  0  0  0  0  0  0  0
  -19.6007  -29.4668   20.5146 O   0  0  0  0  0  0  0  0  0  1  0  0
  -31.7752  -10.9202   19.6012 F   0  0  0  0  0  0  0  0  0  0  0  0
  -22.1359  -27.1246   24.0973 F   0  0  0  0  0  0  0  0  0  0  0  0
  -27.5681  -10.8743   17.4324 F   0  0  0  0  0  0  0  0  0  0  0  0
  -18.4390  -28.5020   22.7341 F   0  0  0  0  0  0  0  0  0  0  0  0
  1  2  1  0  0  0  0
  1  5  2  0  0  0  0
  2  6  2  0  0  0  0
  3  8  2  0  0  0  0
  3 17  1  0  0  0  0
  4  9  1  0  0  0  0
  4 17  2  0  0  0  0
  5 19  1  0  0  0  0
  6 21  1  0  0  0  0
  7 10  2  0  0  0  0
  7 20  1  0  0  0  0
  8 23  1  0  0  0  0
  9 23  2  0  0  0  0
 10 24  1  0  0  0  0
 11 12  2  0  0  0  0
 11 25  1  0  0  0  0
 12 26  1  0  0  0  0
 13 14  2  0  0  0  0
 13 27  1  0  0  0  0
 14 30  1  0  0  0  0
 15 22  1  0  0  0  0
 15 24  2  0  0  0  0
 16 26  2  0  0  0  0
 16 28  1  0  0  0  0
 17 29  1  0  0  0  0
 18 29  1  0  0  0  0
 18 32  2  0  0  0  0
 18 33  1  0  0  0  0
 19 21  2  0  0  0  0
 19 39  1  0  0  0  0
 20 22  2  0  0  0  0
 20 40  1  0  0  0  0
 21 48  1  0  0  0  0
 22 41  1  0  0  0  0
 23 80  1  0  0  0  0
 24 81  1  0  0  0  0
 25 28  2  0  0  0  0
 25 80  1  0  0  0  0
 26 82  1  0  0  0  0
 27 31  2  0  0  0  0
 27 83  1  0  0  0  0
 28 84  1  0  0  0  0
 29 62  2  0  0  0  0
 30 63  2  0  0  0  0
 30 70  1  0  0  0  0
 31 63  1  0  0  0  0
 31 69  1  0  0  0  0
 32 64  1  0  0  0  0
 32 67  1  0  0  0  0
 33 68  1  0  0  0  0
 33 74  2  0  0  0  0
 34 49  1  0  0  0  0
 34 71  1  0  0  0  0
 34 75  2  0  0  0  0
 35 58  1  0  0  0  0
 35 65  1  0  0  0  0
 35 76  2  0  0  0  0
 36 59  1  0  0  0  0
 36 72  1  0  0  0  0
 36 77  2  0  0  0  0
 37 60  1  0  0  0  0
 37 69  1  0  0  0  0
 37 78  2  0  0  0  0
 38 66  1  0  0  0  0
 38 70  1  0  0  0  0
 38 79  2  0  0  0  0
 39 42  1  0  0  0  0
 40 49  1  0  0  0  0
 41 65  1  0  0  0  0
 42 44  1  0  0  0  0
 43 45  1  0  0  0  0
 43 46  1  0  0  0  0
 44 48  1  0  0  0  0
 45 50  1  0  0  0  0
 46 66  1  0  0  0  0
 47 50  1  0  0  0  0
 47 66  1  0  0  0  0
 48 71  1  0  0  0  0
 49 65  1  0  0  0  0
 50 64  1  0  0  0  0
 51 59  1  0  0  0  0
 52 61  1  0  0  0  0
 53 61  1  0  0  0  0
 54 61  1  0  0  0  0
 55 73  1  0  0  0  0
 56 57  1  0  0  0  0
 56 60  1  0  0  0  0
 57 81  1  0  0  0  0
 58 61  1  0  0  0  0
 58 72  1  0  0  0  0
 59 73  1  0  0  0  0
 60 85  1  0  0  0  0
 62 64  1  0  0  0  0
M  CHG  1  73   1
M  ISO  4  38 100  57 101  70 100  81 101
M  END
> <Batch ID>
0183

> <Smiles>
CNC(C)C(=O)NC(C(=O)N1Cc2cc([101O:1][101CH2:1]CC(F)C(=O)Nc3nc([100NH:0][100C:0](=O)N4CCCC(n5nc(-c6ccc(Oc7ccc(F)cc7F)cc6)c(C(N)=O)c5N)C4)ccc3F)ccc2CC1C(=O)NC1CCCc2ccccc21)C(C)(C)C

> <Shape>
0.248

> <Color>
0.063

> <Negative vol penalty>
0.000

$$$$

  -OEChem-04052304593D

 85 93  0     1  0  0  0  0  0999 V2000
  -26.0705  -38.0774   22.2365 C   0  0  0  0  0  0  0  0  0  0  0  0
  -26.8208  -36.9825   21.8198 C   0  0  0  0  0  0  0  0  0  0  0  0
  -24.6170   -8.6288   21.7145 C   0  0  0  0  0  0  0  0  0  0  0  0
  -22.9595  -10.0979   20.7495 C   0  0  0  0  0  0  0  0  0  0  0  0
  -25.0318  -37.9023   23.1500 C   0  0  0  0  0  0  0  0  0  0  0  0
  -26.5335  -35.7119   22.3172 C   0  0  0  0  0  0  0  0  0  0  0  0
  -26.9926  -30.3931   19.3163 C   0  0  0  0  0  0  0  0  0  0  0  0
  -23.6146   -7.9576   22.4146 C   0  0  0  0  0  0  0  0  0  0  0  0
  -21.9570   -9.4267   21.4496 C   0  0  0  0  0  0  0  0  0  0  0  0
  -27.9797  -29.4087   19.2978 C   0  0  0  0  0  0  0  0  0  0  0  0
  -21.2635   -5.6157   21.7658 C   0  0  0  0  0  0  0  0  0  0  0  0
  -21.2969   -4.2213   21.7682 C   0  0  0  0  0  0  0  0  0  0  0  0
  -26.7552  -28.1580   20.9577 C   0  0  0  0  0  0  0  0  0  0  0  0
  -21.4832   -4.2300   24.1771 C   0  0  0  0  0  0  0  0  0  0  0  0
  -24.2895   -9.6990   20.8819 C   0  0  0  0  0  0  0  0  0  0  0  0
  -25.8090  -10.0942   18.8713 C   0  0  0  0  0  0  0  0  0  0  0  0
  -24.7254  -36.6274   23.6515 C   0  0  0  0  0  0  0  0  0  0  0  0
  -25.8829  -30.2724   20.1651 C   0  0  0  0  0  0  0  0  0  0  0  0
  -25.4906  -35.5197   23.2393 C   0  0  0  0  0  0  0  0  0  0  0  0
  -25.7540  -29.1409   20.9832 C   0  0  0  0  0  0  0  0  0  0  0  0
  -22.2846   -8.3566   22.2821 C   0  0  0  0  0  0  0  0  0  0  0  0
  -27.8626  -28.2924   20.1207 C   0  0  0  0  0  0  0  0  0  0  0  0
  -21.3401   -6.3173   22.9690 C   0  0  0  0  0  0  0  0  0  0  0  0
  -21.4067   -3.5284   22.9738 C   0  0  0  0  0  0  0  0  0  0  0  0
  -21.4499   -5.6244   24.1746 C   0  0  0  0  0  0  0  0  0  0  0  0
  -25.3247  -10.3931   20.1589 C   0  0  0  0  0  0  0  0  0  0  0  0
  -25.7157  -20.0970   19.0860 C   0  0  0  0  0  0  0  0  0  0  0  0
  -26.7791  -11.0390   18.6415 C   0  0  0  0  0  0  0  0  0  0  0  0
  -24.5213  -19.6065   18.6011 C   0  0  0  0  0  0  0  0  0  0  0  0
  -25.9771  -17.9900   19.6357 C   0  0  0  0  0  0  0  0  0  0  0  0
  -26.1408  -21.4635   19.0222 C   0  0  0  0  0  0  0  0  0  0  0  0
  -27.3248  -21.9062   19.4681 C   0  0  0  0  0  0  0  0  0  0  0  0
  -25.4171   -9.0554   17.9641 C   0  0  0  0  0  0  0  0  0  0  0  0
  -29.3191  -25.0188   19.6918 C   0  0  0  0  0  0  0  0  0  0  0  0
  -29.0277  -23.5607   19.8967 C   0  0  0  0  0  0  0  0  0  0  0  0
  -24.7204  -31.9644   22.5919 C   0  0  0  0  0  0  0  0  0  0  0  0
  -22.2650  -29.8556   22.3775 C   0  0  0  0  0  0  0  0  0  0  0  0
  -21.1684  -26.7752   21.3998 C   0  0  0  0  0  0  0  0  0  0  0  0
  -27.7004  -16.5454   20.7713 C   0  0  0  0  0  0  0  0  0  0  0  0
  -23.6240  -36.4947   24.6732 C   0  0  0  0  0  0  0  0  0  0  0  0
  -24.8134  -31.3299   20.1537 C   0  0  0  0  0  0  0  0  0  0  0  0
  -24.5720  -28.9540   21.8977 C   0  0  0  0  0  0  0  0  0  0  0  0
  -23.1422  -35.0591   24.8665 C   0  0  0  0  0  0  0  0  0  0  0  0
  -29.9484  -13.7900   20.9482 C   0  0  0  0  0  0  0  0  0  0  0  0
  -24.3296  -34.1115   25.0042 C   0  0  0  0  0  0  0  0  0  0  0  0
  -29.0631  -12.5796   20.6427 C   0  0  0  0  0  0  0  0  0  0  0  0
  -29.2071  -14.8414   21.7720 C   0  0  0  0  0  0  0  0  0  0  0  0
  -27.0352  -14.0645   20.9067 C   0  0  0  0  0  0  0  0  0  0  0  0
  -25.1936  -34.1219   23.7373 C   0  0  1  0  0  0  0  0  0  0  0  0
  -23.9833  -31.3541   21.4335 C   0  0  1  0  0  0  0  0  0  0  0  0
  -27.7179  -13.0072   20.0237 C   0  0  2  0  0  0  0  0  0  0  0  0
  -19.1210  -25.3242   21.3915 C   0  0  0  0  0  0  0  0  0  0  0  0
  -22.6607  -29.2844   25.3485 C   0  0  0  0  0  0  0  0  0  0  0  0
  -21.2869  -27.2111   25.0617 C   0  0  0  0  0  0  0  0  0  0  0  0
  -20.2718  -29.4479   24.6268 C   0  0  0  0  0  0  0  0  0  0  0  0
  -21.1356  -26.6384   18.4436 C   0  0  0  0  0  0  0  0  0  0  0  0
  -28.4137  -25.9954   20.3964 C   0  0  0  0  0  0  0  0  0  1  0  0
  -21.9543  -28.5107   22.9888 C   0  0  1  0  0  0  0  0  0  0  0  0
  -19.9409  -26.3446   20.6173 C   0  0  2  0  0  0  0  0  0  0  0  0
  -21.5668  -28.6177   24.4907 C   0  0  0  0  0  0  0  0  0  0  0  0
  -25.9366  -11.4454   20.7085 N   0  0  0  0  0  0  0  0  0  0  0  0
  -26.5515  -19.1716   19.6799 N   0  0  0  0  0  0  0  0  0  0  0  0
  -26.8156  -11.8159   19.7618 N   0  0  0  0  0  0  0  0  0  0  0  0
  -23.5559  -30.0186   21.8552 N   0  0  0  0  0  0  0  0  0  0  0  0
  -27.9446  -15.2008   21.1224 N   0  0  0  0  0  0  0  0  0  0  0  0
  -27.5959  -11.2726   17.5924 N   0  0  0  0  0  0  0  0  0  0  0  0
  -23.5215  -20.2808   17.9802 N   0  0  0  0  0  0  0  0  0  0  0  0
  -24.4043   -8.1707   18.3588 N   0  0  0  0  0  0  0  0  0  0  0  0
  -26.4811  -16.7615   20.1299 N   0  0  0  0  0  0  0  0  0  0  0  0
  -27.7904  -23.1869   19.4208 N   0  0  0  0  0  0  0  0  0  0  0  0
  -24.5713  -33.3343   22.6948 N   0  0  0  0  0  0  0  0  0  0  0  0
  -20.9258  -27.9078   22.1479 N   0  0  0  0  0  0  0  0  0  0  0  0
  -20.3424  -25.7362   19.3174 N   0  3  0  0  0  0  0  0  0  0  0  0
  -25.9607   -8.9058   16.8436 O   0  0  0  0  0  0  0  0  0  0  0  0
  -30.2768  -25.3099   18.9910 O   0  0  0  0  0  0  0  0  0  0  0  0
  -29.8955  -22.8775   20.4182 O   0  0  0  0  0  0  0  0  0  0  0  0
  -25.3747  -31.2455   23.3381 O   0  0  0  0  0  0  0  0  0  0  0  0
  -21.3920  -30.7269   22.3574 O   0  0  0  0  0  0  0  0  0  0  0  0
  -22.2347  -26.1656   21.3549 O   0  0  0  0  0  0  0  0  0  0  0  0
  -28.5248  -17.4351   20.9968 O   0  0  0  0  0  0  0  0  0  0  0  0
  -21.3061   -7.7017   22.9650 O   0  0  0  0  0  0  0  0  0  0  0  0
  -28.8250  -27.3304   20.1050 O   0  0  0  0  0  0  0  0  0  1  0  0
  -21.4372   -2.1893   22.9762 F   0  0  0  0  0  0  0  0  0  0  0  0
  -21.5227   -6.2929   25.3337 F   0  0  0  0  0  0  0  0  0  0  0  0
  -24.4313  -17.9190   18.8936 S   0  0  0  0  0  0  0  0  0  0  0  0
  1  2  1  0  0  0  0
  1  5  2  0  0  0  0
  2  6  2  0  0  0  0
  3  8  2  0  0  0  0
  3 15  1  0  0  0  0
  4  9  1  0  0  0  0
  4 15  2  0  0  0  0
  5 17  1  0  0  0  0
  6 19  1  0  0  0  0
  7 10  2  0  0  0  0
  7 18  1  0  0  0  0
  8 21  1  0  0  0  0
  9 21  2  0  0  0  0
 10 22  1  0  0  0  0
 11 12  2  0  0  0  0
 11 23  1  0  0  0  0
 12 24  1  0  0  0  0
 13 20  1  0  0  0  0
 13 22  2  0  0  0  0
 14 24  2  0  0  0  0
 14 25  1  0  0  0  0
 15 26  1  0  0  0  0
 16 26  1  0  0  0  0
 16 28  2  0  0  0  0
 16 33  1  0  0  0  0
 17 19  2  0  0  0  0
 17 40  1  0  0  0  0
 18 20  2  0  0  0  0
 18 41  1  0  0  0  0
 19 49  1  0  0  0  0
 20 42  1  0  0  0  0
 21 81  1  0  0  0  0
 22 82  1  0  0  0  0
 23 25  2  0  0  0  0
 23 81  1  0  0  0  0
 24 83  1  0  0  0  0
 25 84  1  0  0  0  0
 26 61  2  0  0  0  0
 27 29  2  0  0  0  0
 27 31  1  0  0  0  0
 27 62  1  0  0  0  0
 28 63  1  0  0  0  0
 28 66  1  0  0  0  0
 29 67  1  0  0  0  0
 29 85  1  0  0  0  0
 30 62  2  0  0  0  0
 30 69  1  0  0  0  0
 30 85  1  0  0  0  0
 31 32  2  0  0  0  0
 32 70  1  0  0  0  0
 33 68  1  0  0  0  0
 33 74  2  0  0  0  0
 34 35  1  0  0  0  0
 34 57  1  0  0  0  0
 34 75  2  0  0  0  0
 35 70  1  0  0  0  0
 35 76  2  0  0  0  0
 36 50  1  0  0  0  0
 36 71  1  0  0  0  0
 36 77  2  0  0  0  0
 37 58  1  0  0  0  0
 37 64  1  0  0  0  0
 37 78  2  0  0  0  0
 38 59  1  0  0  0  0
 38 72  1  0  0  0  0
 38 79  2  0  0  0  0
 39 65  1  0  0  0  0
 39 69  1  0  0  0  0
 39 80  2  0  0  0  0
 40 43  1  0  0  0  0
 41 50  1  0  0  0  0
 42 64  1  0  0  0  0
 43 45  1  0  0  0  0
 44 46  1  0  0  0  0
 44 47  1  0  0  0  0
 45 49  1  0  0  0  0
 46 51  1  0  0  0  0
 47 65  1  0  0  0  0
 48 51  1  0  0  0  0
 48 65  1  0  0  0  0
 49 71  1  0  0  0  0
 50 64  1  0  0  0  0
 51 63  1  0  0  0  0
 52 59  1  0  0  0  0
 53 60  1  0  0  0  0
 54 60  1  0  0  0  0
 55 60  1  0  0  0  0
 56 73  1  0  0  0  0
 57 82  1  0  0  0  0
 58 60  1  0  0  0  0
 58 72  1  0  0  0  0
 59 73  1  0  0  0  0
 61 63  1  0  0  0  0
M  CHG  1  73   1
M  ISO  4  39 100  57 101  69 100  82 101
M  END
> <Batch ID>
0183

> <Smiles>
CNC(C)C(=O)NC(C(=O)N1Cc2cc([101O:1][101CH2:1]C(=O)C(=O)NC=Cc3nc([100NH:0][100C:0](=O)N4CCCC(n5nc(-c6ccc(Oc7ccc(F)cc7F)cc6)c(C(N)=O)c5N)C4)sc3N)ccc2CC1C(=O)NC1CCCc2ccccc21)C(C)(C)C

> <Shape>
0.342

> <Color>
0.091

> <Negative vol penalty>
0.000

$$$$

  -OEChem-04052304593D

 86 94  0     1  0  0  0  0  0999 V2000
  -21.0010  -18.7038   24.3739 C   0  0  0  0  0  0  0  0  0  0  0  0
  -22.3202  -19.1327   24.4801 C   0  0  0  0  0  0  0  0  0  0  0  0
  -25.7764  -14.1635   21.5010 C   0  0  0  0  0  0  0  0  0  0  0  0
  -25.1199  -14.9230   19.3034 C   0  0  0  0  0  0  0  0  0  0  0  0
  -20.1451  -19.3068   23.4533 C   0  0  0  0  0  0  0  0  0  0  0  0
  -22.7845  -20.1642   23.6648 C   0  0  0  0  0  0  0  0  0  0  0  0
  -27.3746  -25.6639   23.6890 C   0  0  0  0  0  0  0  0  0  0  0  0
  -24.7233  -13.2489   21.4995 C   0  0  0  0  0  0  0  0  0  0  0  0
  -24.0668  -14.0084   19.3019 C   0  0  0  0  0  0  0  0  0  0  0  0
  -28.4251  -26.1934   22.9407 C   0  0  0  0  0  0  0  0  0  0  0  0
  -24.0588  -10.2173   20.1576 C   0  0  0  0  0  0  0  0  0  0  0  0
  -24.3283   -8.9176   20.5864 C   0  0  0  0  0  0  0  0  0  0  0  0
  -26.8346  -27.2146   21.4418 C   0  0  0  0  0  0  0  0  0  0  0  0
  -22.6959   -9.1612   22.3508 C   0  0  0  0  0  0  0  0  0  0  0  0
  -31.3965  -23.4744   15.7809 C   0  0  0  0  0  0  0  0  0  0  0  0
  -25.9747  -15.0006   20.4029 C   0  0  0  0  0  0  0  0  0  0  0  0
  -28.3736  -15.7337   19.9387 C   0  0  0  0  0  0  0  0  0  0  0  0
  -20.5965  -20.3528   22.6330 C   0  0  0  0  0  0  0  0  0  0  0  0
  -26.0441  -25.8971   23.3125 C   0  0  0  0  0  0  0  0  0  0  0  0
  -21.9342  -20.7809   22.7313 C   0  0  0  0  0  0  0  0  0  0  0  0
  -25.7690  -26.6890   22.1885 C   0  0  0  0  0  0  0  0  0  0  0  0
  -23.8685  -13.1713   20.4000 C   0  0  0  0  0  0  0  0  0  0  0  0
  -28.1552  -26.9664   21.8153 C   0  0  0  0  0  0  0  0  0  0  0  0
  -23.1079  -10.9890   20.8255 C   0  0  0  0  0  0  0  0  0  0  0  0
  -23.6469   -8.3896   21.6830 C   0  0  0  0  0  0  0  0  0  0  0  0
  -22.4264  -10.4609   21.9220 C   0  0  0  0  0  0  0  0  0  0  0  0
  -30.5026  -22.7122   16.5051 C   0  0  0  0  0  0  0  0  0  0  0  0
  -27.0621  -15.9460   20.4041 C   0  0  0  0  0  0  0  0  0  0  0  0
  -30.3555  -23.0640   17.8313 C   0  0  0  0  0  0  0  0  0  0  0  0
  -29.0139  -16.9286   20.1595 C   0  0  0  0  0  0  0  0  0  0  0  0
  -31.8664  -24.7472   17.6047 C   0  0  0  0  0  0  0  0  0  0  0  0
  -28.9606  -14.5613   19.3586 C   0  0  0  0  0  0  0  0  0  0  0  0
  -23.6115  -24.0581   22.4158 C   0  0  0  0  0  0  0  0  0  0  0  0
  -31.1129  -26.9372   19.7324 C   0  0  0  0  0  0  0  0  0  0  0  0
  -21.9637  -26.8496   22.5377 C   0  0  0  0  0  0  0  0  0  0  0  0
  -22.0271  -30.2593   22.4098 C   0  0  0  0  0  0  0  0  0  0  0  0
  -29.1474  -22.4917   19.9665 C   0  0  0  0  0  0  0  0  0  0  0  0
  -19.6475  -20.9419   21.6196 C   0  0  0  0  0  0  0  0  0  0  0  0
  -24.9221  -25.3410   24.1456 C   0  0  0  0  0  0  0  0  0  0  0  0
  -24.3579  -26.9857   21.7537 C   0  0  0  0  0  0  0  0  0  0  0  0
  -20.1139  -22.2813   21.0550 C   0  0  0  0  0  0  0  0  0  0  0  0
  -27.5669  -21.0044   22.7892 C   0  0  0  0  0  0  0  0  0  0  0  0
  -21.5865  -22.2116   20.6630 C   0  0  0  0  0  0  0  0  0  0  0  0
  -27.4026  -19.5384   22.3820 C   0  0  0  0  0  0  0  0  0  0  0  0
  -27.3606  -21.9482   21.6058 C   0  0  0  0  0  0  0  0  0  0  0  0
  -28.0141  -20.1833   20.0162 C   0  0  0  0  0  0  0  0  0  0  0  0
  -22.4682  -21.9137   21.8817 C   0  0  1  0  0  0  0  0  0  0  0  0
  -23.6115  -25.2146   23.3750 C   0  0  1  0  0  0  0  0  0  0  0  0
  -28.2767  -19.1912   21.1610 C   0  0  2  0  0  0  0  0  0  0  0  0
  -20.5183  -32.2624   22.5011 C   0  0  0  0  0  0  0  0  0  0  0  0
  -33.7756  -28.3672   19.2841 C   0  0  0  0  0  0  0  0  0  0  0  0
  -34.9460  -26.2369   19.9050 C   0  0  0  0  0  0  0  0  0  0  0  0
  -21.0593  -26.2958   19.6766 C   0  0  0  0  0  0  0  0  0  0  0  0
  -20.3794  -28.6989   19.5005 C   0  0  0  0  0  0  0  0  0  0  0  0
  -19.2788  -27.2127   21.1745 C   0  0  0  0  0  0  0  0  0  0  0  0
  -23.3720  -31.3068   24.8290 C   0  0  0  0  0  0  0  0  0  0  0  0
  -30.3985  -26.7439   21.0577 C   0  0  0  0  0  0  0  0  0  1  0  0
  -32.4342  -26.1930   19.5574 C   0  0  2  0  0  0  0  0  0  0  0  0
  -21.6642  -27.9579   21.5575 C   0  0  1  0  0  0  0  0  0  0  0  0
  -21.3955  -31.3127   23.3019 C   0  0  2  0  0  0  0  0  0  0  0  0
  -33.6411  -27.0314   20.0233 C   0  0  0  0  0  0  0  0  0  0  0  0
  -20.6222  -27.5343   20.4841 C   0  0  0  0  0  0  0  0  0  0  0  0
  -32.0979  -24.5030   16.3008 N   0  0  0  0  0  0  0  0  0  0  0  0
  -26.8786  -17.1787   20.8844 N   0  0  0  0  0  0  0  0  0  0  0  0
  -31.0241  -24.0795   18.4162 N   0  0  0  0  0  0  0  0  0  0  0  0
  -28.0833  -17.7518   20.7221 N   0  0  0  0  0  0  0  0  0  0  0  0
  -23.2952  -26.4144   22.5973 N   0  0  0  0  0  0  0  0  0  0  0  0
  -28.2243  -21.5608   20.4883 N   0  0  0  0  0  0  0  0  0  0  0  0
  -30.2766  -17.3449   19.9253 N   0  0  0  0  0  0  0  0  0  0  0  0
  -28.1612  -13.4205   19.2040 N   0  0  0  0  0  0  0  0  0  0  0  0
  -29.4482  -22.3108   18.6169 N   0  0  0  0  0  0  0  0  0  0  0  0
  -32.5671  -25.7969   18.1702 N   0  0  0  0  0  0  0  0  0  0  0  0
  -22.6451  -23.1068   22.6815 N   0  0  0  0  0  0  0  0  0  0  0  0
  -21.2645  -29.1118   22.3557 N   0  0  0  0  0  0  0  0  0  0  0  0
  -22.4507  -32.1120   23.9865 N   0  3  0  0  0  0  0  0  0  0  0  0
  -30.1630  -14.5211   19.0034 O   0  0  0  0  0  0  0  0  0  0  0  0
  -24.4269  -24.0316   21.5013 O   0  0  0  0  0  0  0  0  0  0  0  0
  -30.6452  -27.6595   18.8512 O   0  0  0  0  0  0  0  0  0  0  0  0
  -21.0512  -26.3918   23.2302 O   0  0  0  0  0  0  0  0  0  0  0  0
  -23.0888  -30.4380   21.8170 O   0  0  0  0  0  0  0  0  0  0  0  0
  -29.6558  -23.3667   20.6721 O   0  0  0  0  0  0  0  0  0  0  0  0
  -22.8409  -12.2788   20.3981 O   0  0  0  0  0  0  0  0  0  0  0  0
  -29.1786  -27.4839   21.0827 O   0  0  0  0  0  0  0  0  0  1  0  0
  -23.9047   -7.1410   22.0936 F   0  0  0  0  0  0  0  0  0  0  0  0
  -21.5110  -11.1970   22.5669 F   0  0  0  0  0  0  0  0  0  0  0  0
  -29.8305  -21.7010   15.9453 F   0  0  0  0  0  0  0  0  0  0  0  0
  1  2  1  0  0  0  0
  1  5  2  0  0  0  0
  2  6  2  0  0  0  0
  3  8  2  0  0  0  0
  3 16  1  0  0  0  0
  4  9  1  0  0  0  0
  4 16  2  0  0  0  0
  5 18  1  0  0  0  0
  6 20  1  0  0  0  0
  7 10  2  0  0  0  0
  7 19  1  0  0  0  0
  8 22  1  0  0  0  0
  9 22  2  0  0  0  0
 10 23  1  0  0  0  0
 11 12  2  0  0  0  0
 11 24  1  0  0  0  0
 12 25  1  0  0  0  0
 13 21  1  0  0  0  0
 13 23  2  0  0  0  0
 14 25  2  0  0  0  0
 14 26  1  0  0  0  0
 15 27  1  0  0  0  0
 15 63  2  0  0  0  0
 16 28  1  0  0  0  0
 17 28  1  0  0  0  0
 17 30  2  0  0  0  0
 17 32  1  0  0  0  0
 18 20  2  0  0  0  0
 18 38  1  0  0  0  0
 19 21  2  0  0  0  0
 19 39  1  0  0  0  0
 20 47  1  0  0  0  0
 21 40  1  0  0  0  0
 22 82  1  0  0  0  0
 23 83  1  0  0  0  0
 24 26  2  0  0  0  0
 24 82  1  0  0  0  0
 25 84  1  0  0  0  0
 26 85  1  0  0  0  0
 27 29  2  0  0  0  0
 27 86  1  0  0  0  0
 28 64  2  0  0  0  0
 29 65  1  0  0  0  0
 29 71  1  0  0  0  0
 30 66  1  0  0  0  0
 30 69  1  0  0  0  0
 31 63  1  0  0  0  0
 31 65  2  0  0  0  0
 31 72  1  0  0  0  0
 32 70  1  0  0  0  0
 32 76  2  0  0  0  0
 33 48  1  0  0  0  0
 33 73  1  0  0  0  0
 33 77  2  0  0  0  0
 34 57  1  0  0  0  0
 34 58  1  0  0  0  0
 34 78  2  0  0  0  0
 35 59  1  0  0  0  0
 35 67  1  0  0  0  0
 35 79  2  0  0  0  0
 36 60  1  0  0  0  0
 36 74  1  0  0  0  0
 36 80  2  0  0  0  0
 37 68  1  0  0  0  0
 37 71  1  0  0  0  0
 37 81  2  0  0  0  0
 38 41  1  0  0  0  0
 39 48  1  0  0  0  0
 40 67  1  0  0  0  0
 41 43  1  0  0  0  0
 42 44  1  0  0  0  0
 42 45  1  0  0  0  0
 43 47  1  0  0  0  0
 44 49  1  0  0  0  0
 45 68  1  0  0  0  0
 46 49  1  0  0  0  0
 46 68  1  0  0  0  0
 47 73  1  0  0  0  0
 48 67  1  0  0  0  0
 49 66  1  0  0  0  0
 50 60  1  0  0  0  0
 51 61  1  0  0  0  0
 52 61  1  0  0  0  0
 53 62  1  0  0  0  0
 54 62  1  0  0  0  0
 55 62  1  0  0  0  0
 56 75  1  0  0  0  0
 57 83  1  0  0  0  0
 58 61  1  0  0  0  0
 58 72  1  0  0  0  0
 59 62  1  0  0  0  0
 59 74  1  0  0  0  0
 60 75  1  0  0  0  0
 64 66  1  0  0  0  0
M  CHG  1  75   1
M  ISO  4  37 100  57 101  71 100  83 101
M  END
> <Batch ID>
0183

> <Smiles>
CNC(C)C(=O)NC(C(=O)N1Cc2cc([101O:1][101CH2:1]C(=O)C(Nc3ncc(F)c([100NH:0][100C:0](=O)N4CCCC(n5nc(-c6ccc(Oc7ccc(F)cc7F)cc6)c(C(N)=O)c5N)C4)n3)C(C)C)ccc2CC1C(=O)NC1CCCc2ccccc21)C(C)(C)C

> <Shape>
0.235

> <Color>
0.052

> <Negative vol penalty>
0.000

$$$$

  -OEChem-04052304593D

 83 91  0     1  0  0  0  0  0999 V2000
  -36.6612  -26.8520   16.1610 C   0  0  0  0  0  0  0  0  0  0  0  0
  -35.6070  -26.4674   16.9832 C   0  0  0  0  0  0  0  0  0  0  0  0
  -23.0755   -9.8692   19.9468 C   0  0  0  0  0  0  0  0  0  0  0  0
  -23.8351   -9.8828   22.2403 C   0  0  0  0  0  0  0  0  0  0  0  0
  -36.8899  -28.2042   15.9093 C   0  0  0  0  0  0  0  0  0  0  0  0
  -34.7814  -27.4347   17.5551 C   0  0  0  0  0  0  0  0  0  0  0  0
  -29.8708  -26.2451   17.2157 C   0  0  0  0  0  0  0  0  0  0  0  0
  -22.3318   -8.7166   20.1999 C   0  0  0  0  0  0  0  0  0  0  0  0
  -23.0914   -8.7302   22.4934 C   0  0  0  0  0  0  0  0  0  0  0  0
  -29.3800  -25.3029   18.1186 C   0  0  0  0  0  0  0  0  0  0  0  0
  -19.8633   -7.9335   23.0977 C   0  0  0  0  0  0  0  0  0  0  0  0
  -19.1062   -7.8967   24.2686 C   0  0  0  0  0  0  0  0  0  0  0  0
  -28.4755  -27.0817   19.4739 C   0  0  0  0  0  0  0  0  0  0  0  0
  -20.3478   -5.9616   25.0107 C   0  0  0  0  0  0  0  0  0  0  0  0
  -31.8097  -18.7351   22.2333 C   0  0  0  0  0  0  0  0  0  0  0  0
  -23.8272  -10.4523   20.9670 C   0  0  0  0  0  0  0  0  0  0  0  0
  -24.1686  -12.9771   20.8399 C   0  0  0  0  0  0  0  0  0  0  0  0
  -36.0609  -29.1882   16.4707 C   0  0  0  0  0  0  0  0  0  0  0  0
  -29.6767  -27.6155   17.4412 C   0  0  0  0  0  0  0  0  0  0  0  0
  -35.0001  -28.8014   17.3118 C   0  0  0  0  0  0  0  0  0  0  0  0
  -28.9625  -28.0391   18.5711 C   0  0  0  0  0  0  0  0  0  0  0  0
  -22.3397   -8.1471   21.4732 C   0  0  0  0  0  0  0  0  0  0  0  0
  -28.6847  -25.7212   19.2494 C   0  0  0  0  0  0  0  0  0  0  0  0
  -20.8626   -6.9843   22.8832 C   0  0  0  0  0  0  0  0  0  0  0  0
  -19.3485   -6.9108   25.2251 C   0  0  0  0  0  0  0  0  0  0  0  0
  -21.1049   -5.9983   23.8397 C   0  0  0  0  0  0  0  0  0  0  0  0
  -24.5961  -11.6425   20.7060 C   0  0  0  0  0  0  0  0  0  0  0  0
  -30.7079  -19.1039   22.9765 C   0  0  0  0  0  0  0  0  0  0  0  0
  -25.2607  -13.7258   20.4747 C   0  0  0  0  0  0  0  0  0  0  0  0
  -30.5717  -16.9572   21.8924 C   0  0  0  0  0  0  0  0  0  0  0  0
  -29.0997  -23.9712   20.7446 C   0  0  0  0  0  0  0  0  0  1  0  0
  -22.8980  -13.4939   21.2572 C   0  0  0  0  0  0  0  0  0  0  0  0
  -28.8195  -23.0098   21.6384 C   0  0  0  0  0  0  0  0  0  0  0  0
  -29.9598  -22.2097   22.1894 C   0  0  0  0  0  0  0  0  0  0  0  0
  -31.5958  -30.1045   17.9163 C   0  0  0  0  0  0  0  0  0  0  0  0
  -28.8199  -31.7766   17.7713 C   0  0  0  0  0  0  0  0  0  0  0  0
  -25.4252  -31.7919   18.1216 C   0  0  0  0  0  0  0  0  0  0  0  0
  -30.7267  -14.7727   20.6473 C   0  0  0  0  0  0  0  0  0  0  0  0
  -36.3762  -30.6394   16.2078 C   0  0  0  0  0  0  0  0  0  0  0  0
  -30.1892  -28.6180   16.4439 C   0  0  0  0  0  0  0  0  0  0  0  0
  -28.7097  -29.4978   18.8485 C   0  0  0  0  0  0  0  0  0  0  0  0
  -35.2272  -31.5842   16.5508 C   0  0  0  0  0  0  0  0  0  0  0  0
  -29.6130  -12.3522   18.2855 C   0  0  0  0  0  0  0  0  0  0  0  0
  -34.6438  -31.2410   17.9178 C   0  0  0  0  0  0  0  0  0  0  0  0
  -28.1733  -12.0616   18.7157 C   0  0  0  0  0  0  0  0  0  0  0  0
  -30.5279  -12.5844   19.4866 C   0  0  0  0  0  0  0  0  0  0  0  0
  -28.6207  -13.3124   20.8657 C   0  0  0  0  0  0  0  0  0  0  0  0
  -34.0675  -29.8200   17.9306 C   0  0  1  0  0  0  0  0  0  0  0  0
  -30.3793  -30.0097   17.0394 C   0  0  1  0  0  0  0  0  0  0  0  0
  -27.6480  -13.1358   19.6882 C   0  0  2  0  0  0  0  0  0  0  0  0
  -23.4365  -33.3152   17.9740 C   0  0  0  0  0  0  0  0  0  0  0  0
  -29.5682  -33.0102   20.4598 C   0  0  0  0  0  0  0  0  0  0  0  0
  -27.1890  -33.7505   20.7036 C   0  0  0  0  0  0  0  0  0  0  0  0
  -28.5747  -34.6129   18.8171 C   0  0  0  0  0  0  0  0  0  0  0  0
  -24.2083  -30.1836   15.9557 C   0  0  0  0  0  0  0  0  0  0  0  0
  -30.4594  -20.3525   23.7724 C   0  0  0  0  0  0  0  0  0  0  0  0
  -27.7809  -32.2128   18.7759 C   0  0  1  0  0  0  0  0  0  0  0  0
  -24.3227  -32.3302   17.2276 C   0  0  2  0  0  0  0  0  0  0  0  0
  -28.2845  -33.3691   19.6852 C   0  0  0  0  0  0  0  0  0  0  0  0
  -31.7335  -17.5043   21.6113 N   0  0  0  0  0  0  0  0  0  0  0  0
  -25.8611  -11.5457   20.2882 N   0  0  0  0  0  0  0  0  0  0  0  0
  -26.2378  -12.8290   20.1563 N   0  0  0  0  0  0  0  0  0  0  0  0
  -29.2361  -30.4399   17.8470 N   0  0  0  0  0  0  0  0  0  0  0  0
  -29.9687  -13.6176   20.3611 N   0  0  0  0  0  0  0  0  0  0  0  0
  -25.4709  -15.0571   20.3980 N   0  0  0  0  0  0  0  0  0  0  0  0
  -21.8862  -12.5855   21.5969 N   0  0  0  0  0  0  0  0  0  0  0  0
  -30.0791  -15.6999   21.4631 N   0  0  0  0  0  0  0  0  0  0  0  0
  -29.5485  -21.2509   23.0992 N   0  0  0  0  0  0  0  0  0  0  0  0
  -32.7783  -29.7914   17.2737 N   0  0  0  0  0  0  0  0  0  0  0  0
  -26.5818  -32.5342   18.0095 N   0  0  0  0  0  0  0  0  0  0  0  0
  -23.4694  -31.2148   16.7288 N   0  3  0  0  0  0  0  0  0  0  0  0
  -22.6615  -14.7246   21.3111 O   0  0  0  0  0  0  0  0  0  0  0  0
  -31.1231  -22.4092   21.8509 O   0  0  0  0  0  0  0  0  0  0  0  0
  -31.4709  -30.4385   19.0887 O   0  0  0  0  0  0  0  0  0  0  0  0
  -29.2412  -32.5899   16.9451 O   0  0  0  0  0  0  0  0  0  0  0  0
  -25.2742  -30.8132   18.8496 O   0  0  0  0  0  0  0  0  0  0  0  0
  -31.8559  -14.9403   20.1793 O   0  0  0  0  0  0  0  0  0  0  0  0
  -27.5510  -22.7103   22.0843 O   0  0  0  0  0  0  0  0  0  0  0  0
  -21.6139   -7.0226   21.7206 O   0  0  0  0  0  0  0  0  0  0  0  0
  -28.2052  -24.8037   20.1326 O   0  0  0  0  0  0  0  0  0  1  0  0
  -18.6224   -6.8765   26.3502 F   0  0  0  0  0  0  0  0  0  0  0  0
  -22.0644   -5.0844   23.6398 F   0  0  0  0  0  0  0  0  0  0  0  0
  -29.5216  -17.8678   22.8989 S   0  0  0  0  0  0  0  0  0  0  0  0
  1  2  1  0  0  0  0
  1  5  2  0  0  0  0
  2  6  2  0  0  0  0
  3  8  2  0  0  0  0
  3 16  1  0  0  0  0
  4  9  1  0  0  0  0
  4 16  2  0  0  0  0
  5 18  1  0  0  0  0
  6 20  1  0  0  0  0
  7 10  2  0  0  0  0
  7 19  1  0  0  0  0
  8 22  1  0  0  0  0
  9 22  2  0  0  0  0
 10 23  1  0  0  0  0
 11 12  2  0  0  0  0
 11 24  1  0  0  0  0
 12 25  1  0  0  0  0
 13 21  1  0  0  0  0
 13 23  2  0  0  0  0
 14 25  2  0  0  0  0
 14 26  1  0  0  0  0
 15 28  2  0  0  0  0
 15 60  1  0  0  0  0
 16 27  1  0  0  0  0
 17 27  1  0  0  0  0
 17 29  2  0  0  0  0
 17 32  1  0  0  0  0
 18 20  2  0  0  0  0
 18 39  1  0  0  0  0
 19 21  2  0  0  0  0
 19 40  1  0  0  0  0
 20 48  1  0  0  0  0
 21 41  1  0  0  0  0
 22 79  1  0  0  0  0
 23 80  1  0  0  0  0
 24 26  2  0  0  0  0
 24 79  1  0  0  0  0
 25 81  1  0  0  0  0
 26 82  1  0  0  0  0
 27 61  2  0  0  0  0
 28 56  1  0  0  0  0
 28 83  1  0  0  0  0
 29 62  1  0  0  0  0
 29 65  1  0  0  0  0
 30 60  2  0  0  0  0
 30 67  1  0  0  0  0
 30 83  1  0  0  0  0
 31 33  2  0  0  0  0
 31 80  1  0  0  0  0
 32 66  1  0  0  0  0
 32 72  2  0  0  0  0
 33 34  1  0  0  0  0
 33 78  1  0  0  0  0
 34 68  1  0  0  0  0
 34 73  2  0  0  0  0
 35 49  1  0  0  0  0
 35 69  1  0  0  0  0
 35 74  2  0  0  0  0
 36 57  1  0  0  0  0
 36 63  1  0  0  0  0
 36 75  2  0  0  0  0
 37 58  1  0  0  0  0
 37 70  1  0  0  0  0
 37 76  2  0  0  0  0
 38 64  1  0  0  0  0
 38 67  1  0  0  0  0
 38 77  2  0  0  0  0
 39 42  1  0  0  0  0
 40 49  1  0  0  0  0
 41 63  1  0  0  0  0
 42 44  1  0  0  0  0
 43 45  1  0  0  0  0
 43 46  1  0  0  0  0
 44 48  1  0  0  0  0
 45 50  1  0  0  0  0
 46 64  1  0  0  0  0
 47 50  1  0  0  0  0
 47 64  1  0  0  0  0
 48 69  1  0  0  0  0
 49 63  1  0  0  0  0
 50 62  1  0  0  0  0
 51 58  1  0  0  0  0
 52 59  1  0  0  0  0
 53 59  1  0  0  0  0
 54 59  1  0  0  0  0
 55 71  1  0  0  0  0
 56 68  1  0  0  0  0
 57 59  1  0  0  0  0
 57 70  1  0  0  0  0
 58 71  1  0  0  0  0
 61 62  1  0  0  0  0
M  CHG  1  71   1
M  ISO  4  31 101  38 100  67 100  80 101
M  END
> <Batch ID>
0183

> <Smiles>
CNC(C)C(=O)NC(C(=O)N1Cc2cc([101O:1][101CH2:1]C(=O)C(=O)NCc3cnc([100NH:0][100C:0](=O)N4CCCC(n5nc(-c6ccc(Oc7ccc(F)cc7F)cc6)c(C(N)=O)c5N)C4)s3)ccc2CC1C(=O)NC1CCCc2ccccc21)C(C)(C)C

> <Shape>
0.215

> <Color>
0.185

> <Negative vol penalty>
0.000

$$$$

  -OEChem-04052304593D

 86 94  0     1  0  0  0  0  0999 V2000
  -22.6252  -23.9408   24.8705 C   0  0  0  0  0  0  0  0  0  0  0  0
  -23.6409  -23.1704   24.3135 C   0  0  0  0  0  0  0  0  0  0  0  0
  -19.9561  -29.0945   22.7053 C   0  0  0  0  0  0  0  0  0  0  0  0
  -20.0878  -26.6830   22.6410 C   0  0  0  0  0  0  0  0  0  0  0  0
  -21.6559  -23.3397   25.6725 C   0  0  0  0  0  0  0  0  0  0  0  0
  -23.6885  -21.7986   24.5590 C   0  0  0  0  0  0  0  0  0  0  0  0
  -24.6240  -19.1070   20.3728 C   0  0  0  0  0  0  0  0  0  0  0  0
  -18.5778  -29.0247   22.5033 C   0  0  0  0  0  0  0  0  0  0  0  0
  -18.7094  -26.6131   22.4391 C   0  0  0  0  0  0  0  0  0  0  0  0
  -25.9434  -19.0652   19.9242 C   0  0  0  0  0  0  0  0  0  0  0  0
  -14.9724  -29.4689   22.3651 C   0  0  0  0  0  0  0  0  0  0  0  0
  -14.1590  -30.2793   23.1571 C   0  0  0  0  0  0  0  0  0  0  0  0
  -26.2122  -16.8919   20.9360 C   0  0  0  0  0  0  0  0  0  0  0  0
  -15.0046  -29.1896   25.1407 C   0  0  0  0  0  0  0  0  0  0  0  0
  -20.7112  -27.9237   22.7741 C   0  0  0  0  0  0  0  0  0  0  0  0
  -22.8150  -27.9993   24.2149 C   0  0  0  0  0  0  0  0  0  0  0  0
  -21.6862  -21.9583   25.9201 C   0  0  0  0  0  0  0  0  0  0  0  0
  -24.0913  -18.0445   21.1169 C   0  0  0  0  0  0  0  0  0  0  0  0
  -22.7195  -21.1788   25.3662 C   0  0  0  0  0  0  0  0  0  0  0  0
  -24.8850  -16.9215   21.3906 C   0  0  0  0  0  0  0  0  0  0  0  0
  -17.9544  -27.7840   22.3702 C   0  0  0  0  0  0  0  0  0  0  0  0
  -26.7387  -17.9588   20.2083 C   0  0  0  0  0  0  0  0  0  0  0  0
  -15.8018  -28.5187   22.9609 C   0  0  0  0  0  0  0  0  0  0  0  0
  -14.1751  -30.1397   24.5448 C   0  0  0  0  0  0  0  0  0  0  0  0
  -15.8179  -28.3791   24.3487 C   0  0  0  0  0  0  0  0  0  0  0  0
  -22.1351  -27.9952   22.9822 C   0  0  0  0  0  0  0  0  0  0  0  0
  -29.7054  -24.2661   18.0900 C   0  0  0  0  0  0  0  0  0  0  0  0
  -29.7716  -24.3314   16.7139 C   0  0  0  0  0  0  0  0  0  0  0  0
  -24.1431  -28.0800   23.8743 C   0  0  0  0  0  0  0  0  0  0  0  0
  -29.2270  -22.1742   17.6372 C   0  0  0  0  0  0  0  0  0  0  0  0
  -22.2927  -27.9357   25.5486 C   0  0  0  0  0  0  0  0  0  0  0  0
  -22.9131  -17.7307   24.0524 C   0  0  0  0  0  0  0  0  0  0  0  0
  -22.2096  -14.7339   23.0292 C   0  0  0  0  0  0  0  0  0  0  0  0
  -22.8888  -12.1727   20.8784 C   0  0  0  0  0  0  0  0  0  0  0  0
  -28.6801  -20.0583   18.8873 C   0  0  0  0  0  0  0  0  0  0  0  0
  -27.7407  -26.1157   19.9232 C   0  0  0  0  0  0  0  0  0  0  0  0
  -20.6438  -21.3613   26.8320 C   0  0  0  0  0  0  0  0  0  0  0  0
  -22.6580  -18.0931   21.5705 C   0  0  0  0  0  0  0  0  0  0  0  0
  -24.3544  -15.7459   22.1683 C   0  0  0  0  0  0  0  0  0  0  0  0
  -20.5509  -19.8405   26.7376 C   0  0  0  0  0  0  0  0  0  0  0  0
  -26.6290  -29.5592   19.8636 C   0  0  0  0  0  0  0  0  0  0  0  0
  -21.9425  -19.2171   26.7783 C   0  0  0  0  0  0  0  0  0  0  0  0
  -25.4136  -29.5026   20.7907 C   0  0  0  0  0  0  0  0  0  0  0  0
  -26.7355  -28.2964   19.0139 C   0  0  0  0  0  0  0  0  0  0  0  0
  -25.5561  -26.9698   20.7235 C   0  0  0  0  0  0  0  0  0  0  0  0
  -22.7910  -19.6837   25.5892 C   0  0  1  0  0  0  0  0  0  0  0  0
  -22.3767  -17.1812   22.7608 C   0  0  1  0  0  0  0  0  0  0  0  0
  -25.4055  -28.2082   21.6255 C   0  0  2  0  0  0  0  0  0  0  0  0
  -22.1720   -9.8363   20.3085 C   0  0  0  0  0  0  0  0  0  0  0  0
  -29.4662  -17.9009   17.8446 C   0  0  0  0  0  0  0  0  0  0  0  0
  -23.6905  -13.6839   25.4816 C   0  0  0  0  0  0  0  0  0  0  0  0
  -23.7694  -11.4347   24.3847 C   0  0  0  0  0  0  0  0  0  0  0  0
  -21.5705  -12.4709   24.9446 C   0  0  0  0  0  0  0  0  0  0  0  0
  -22.1006  -12.9593   18.1364 C   0  0  0  0  0  0  0  0  0  0  0  0
  -29.9358  -25.3855   19.0258 C   0  0  0  0  0  0  0  0  0  0  0  0
  -22.9302  -13.4073   23.0298 C   0  0  1  0  0  0  0  0  0  0  0  0
  -21.9817  -11.3161   20.0137 C   0  0  2  0  0  0  0  0  0  0  0  0
  -28.3265  -18.6094   18.5617 C   0  0  1  0  0  0  0  0  0  1  0  0
  -30.0733  -25.4743   15.8291 C   0  0  0  0  0  0  0  0  0  0  0  0
  -23.0010  -12.7720   24.4472 C   0  0  0  0  0  0  0  0  0  0  0  0
  -22.9630  -28.0678   21.9365 N   0  0  0  0  0  0  0  0  0  0  0  0
  -29.3929  -23.0300   18.6212 N   0  0  0  0  0  0  0  0  0  0  0  0
  -24.1767  -28.1183   22.5113 N   0  0  0  0  0  0  0  0  0  0  0  0
  -22.9489  -15.8435   22.5956 N   0  0  0  0  0  0  0  0  0  0  0  0
  -26.7414  -27.1016   19.8697 N   0  0  0  0  0  0  0  0  0  0  0  0
  -25.2738  -28.1214   24.6106 N   0  0  0  0  0  0  0  0  0  0  0  0
  -20.9038  -27.8560   25.7192 N   0  0  0  0  0  0  0  0  0  0  0  0
  -28.8986  -20.8008   17.7316 N   0  0  0  0  0  0  0  0  0  0  0  0
  -22.4102  -18.9734   24.3871 N   0  0  0  0  0  0  0  0  0  0  0  0
  -22.2581  -12.5773   22.0359 N   0  0  0  0  0  0  0  0  0  0  0  0
  -28.8263  -26.3114   19.0784 N   0  0  0  0  0  0  0  0  0  0  0  0
  -22.2709  -11.5488   18.5704 N   0  3  0  0  0  0  0  0  0  0  0  0
  -23.0347  -27.9656   26.5596 O   0  0  0  0  0  0  0  0  0  0  0  0
  -23.7221  -17.0749   24.6983 O   0  0  0  0  0  0  0  0  0  0  0  0
  -21.0320  -14.7826   23.3931 O   0  0  0  0  0  0  0  0  0  0  0  0
  -24.0428  -12.4517   20.5608 O   0  0  0  0  0  0  0  0  0  0  0  0
  -28.7309  -20.4556   20.0478 O   0  0  0  0  0  0  0  0  0  0  0  0
  -27.6732  -25.1356   20.6728 O   0  0  0  0  0  0  0  0  0  0  0  0
  -16.6094  -27.7154   22.1733 O   0  0  0  0  0  0  0  0  0  0  0  0
  -28.0270  -17.9158   19.7723 O   0  0  0  0  0  0  0  0  0  1  0  0
  -13.3951  -30.9191   25.3053 F   0  0  0  0  0  0  0  0  0  0  0  0
  -16.6135  -27.4689   24.9269 F   0  0  0  0  0  0  0  0  0  0  0  0
  -30.3253  -26.6483   16.4930 F   0  0  0  0  0  0  0  0  0  0  0  0
  -31.1729  -25.2905   15.0294 F   0  0  0  0  0  0  0  0  0  0  0  0
  -29.0531  -25.7709   14.9632 F   0  0  0  0  0  0  0  0  0  0  0  0
  -29.4323  -22.7879   16.0478 S   0  0  0  0  0  0  0  0  0  0  0  0
  1  2  1  0  0  0  0
  1  5  2  0  0  0  0
  2  6  2  0  0  0  0
  3  8  2  0  0  0  0
  3 15  1  0  0  0  0
  4  9  1  0  0  0  0
  4 15  2  0  0  0  0
  5 17  1  0  0  0  0
  6 19  1  0  0  0  0
  7 10  2  0  0  0  0
  7 18  1  0  0  0  0
  8 21  1  0  0  0  0
  9 21  2  0  0  0  0
 10 22  1  0  0  0  0
 11 12  2  0  0  0  0
 11 23  1  0  0  0  0
 12 24  1  0  0  0  0
 13 20  1  0  0  0  0
 13 22  2  0  0  0  0
 14 24  2  0  0  0  0
 14 25  1  0  0  0  0
 15 26  1  0  0  0  0
 16 26  1  0  0  0  0
 16 29  2  0  0  0  0
 16 31  1  0  0  0  0
 17 19  2  0  0  0  0
 17 37  1  0  0  0  0
 18 20  2  0  0  0  0
 18 38  1  0  0  0  0
 19 46  1  0  0  0  0
 20 39  1  0  0  0  0
 21 79  1  0  0  0  0
 22 80  1  0  0  0  0
 23 25  2  0  0  0  0
 23 79  1  0  0  0  0
 24 81  1  0  0  0  0
 25 82  1  0  0  0  0
 26 61  2  0  0  0  0
 27 28  2  0  0  0  0
 27 55  1  0  0  0  0
 27 62  1  0  0  0  0
 28 59  1  0  0  0  0
 28 86  1  0  0  0  0
 29 63  1  0  0  0  0
 29 66  1  0  0  0  0
 30 62  2  0  0  0  0
 30 68  1  0  0  0  0
 30 86  1  0  0  0  0
 31 67  1  0  0  0  0
 31 73  2  0  0  0  0
 32 47  1  0  0  0  0
 32 69  1  0  0  0  0
 32 74  2  0  0  0  0
 33 56  1  0  0  0  0
 33 64  1  0  0  0  0
 33 75  2  0  0  0  0
 34 57  1  0  0  0  0
 34 70  1  0  0  0  0
 34 76  2  0  0  0  0
 35 58  1  0  0  0  0
 35 68  1  0  0  0  0
 35 77  2  0  0  0  0
 36 65  1  0  0  0  0
 36 71  1  0  0  0  0
 36 78  2  0  0  0  0
 37 40  1  0  0  0  0
 38 47  1  0  0  0  0
 39 64  1  0  0  0  0
 40 42  1  0  0  0  0
 41 43  1  0  0  0  0
 41 44  1  0  0  0  0
 42 46  1  0  0  0  0
 43 48  1  0  0  0  0
 44 65  1  0  0  0  0
 45 48  1  0  0  0  0
 45 65  1  0  0  0  0
 46 69  1  0  0  0  0
 47 64  1  0  0  0  0
 48 63  1  0  0  0  0
 49 57  1  0  0  0  0
 50 58  1  0  0  0  0
 51 60  1  0  0  0  0
 52 60  1  0  0  0  0
 53 60  1  0  0  0  0
 54 72  1  0  0  0  0
 55 71  1  0  0  0  0
 56 60  1  0  0  0  0
 56 70  1  0  0  0  0
 57 72  1  0  0  0  0
 58 80  1  0  0  0  0
 59 83  1  0  0  0  0
 59 84  1  0  0  0  0
 59 85  1  0  0  0  0
 61 63  1  0  0  0  0
M  CHG  1  72   1
M  ISO  4  36 100  58 101  71 100  80 101
M  END
> <Batch ID>
0183

> <Smiles>
CNC(C)C(=O)NC(C(=O)N1Cc2cc([101O:1][101CH:1](C)C(=O)Nc3nc(C[100NH:0][100C:0](=O)N4CCCC(n5nc(-c6ccc(Oc7ccc(F)cc7F)cc6)c(C(N)=O)c5N)C4)c(C(F)(F)F)s3)ccc2CC1C(=O)NC1CCCc2ccccc21)C(C)(C)C

> <Shape>
0.194

> <Color>
0.084

> <Negative vol penalty>
0.000

$$$$

  -OEChem-04052304593D

 87 95  0     1  0  0  0  0  0999 V2000
  -27.9718  -23.5262   18.4482 C   0  0  0  0  0  0  0  0  0  0  0  0
  -27.9028  -23.0766   19.7630 C   0  0  0  0  0  0  0  0  0  0  0  0
  -23.0595   -9.8800   19.9563 C   0  0  0  0  0  0  0  0  0  0  0  0
  -23.8687   -9.8783   22.2327 C   0  0  0  0  0  0  0  0  0  0  0  0
  -29.1197  -23.2923   17.6922 C   0  0  0  0  0  0  0  0  0  0  0  0
  -28.9812  -22.3919   20.3221 C   0  0  0  0  0  0  0  0  0  0  0  0
  -30.8704  -22.6230   26.1430 C   0  0  0  0  0  0  0  0  0  0  0  0
  -22.3231   -8.7245   20.2171 C   0  0  0  0  0  0  0  0  0  0  0  0
  -23.1323   -8.7227   22.4936 C   0  0  0  0  0  0  0  0  0  0  0  0
  -30.6582  -21.7791   27.2322 C   0  0  0  0  0  0  0  0  0  0  0  0
  -19.4083   -7.9162   21.7282 C   0  0  0  0  0  0  0  0  0  0  0  0
  -18.0913   -7.8698   21.2711 C   0  0  0  0  0  0  0  0  0  0  0  0
  -32.7597  -20.6825   26.7843 C   0  0  0  0  0  0  0  0  0  0  0  0
  -18.6256   -5.9336   19.9284 C   0  0  0  0  0  0  0  0  0  0  0  0
  -23.8323  -10.4569   20.9640 C   0  0  0  0  0  0  0  0  0  0  0  0
  -24.1672  -12.9832   20.8479 C   0  0  0  0  0  0  0  0  0  0  0  0
  -30.2165  -22.6129   18.2453 C   0  0  0  0  0  0  0  0  0  0  0  0
  -32.0257  -22.4957   25.3583 C   0  0  0  0  0  0  0  0  0  0  0  0
  -30.1443  -22.1476   19.5722 C   0  0  0  0  0  0  0  0  0  0  0  0
  -32.9854  -21.5277   25.6872 C   0  0  0  0  0  0  0  0  0  0  0  0
  -22.3595   -8.1458   21.4857 C   0  0  0  0  0  0  0  0  0  0  0  0
  -31.6015  -20.8067   27.5513 C   0  0  0  0  0  0  0  0  0  0  0  0
  -20.3340   -6.9714   21.2854 C   0  0  0  0  0  0  0  0  0  0  0  0
  -17.6999   -6.8785   20.3712 C   0  0  0  0  0  0  0  0  0  0  0  0
  -19.9426   -5.9800   20.3855 C   0  0  0  0  0  0  0  0  0  0  0  0
  -24.5936  -11.6503   20.6950 C   0  0  0  0  0  0  0  0  0  0  0  0
  -30.0371  -17.4144   22.9853 C   0  0  0  0  0  0  0  0  0  0  0  0
  -25.2500  -13.7362   20.4644 C   0  0  0  0  0  0  0  0  0  0  0  0
  -28.9962  -18.2544   22.6494 C   0  0  0  0  0  0  0  0  0  0  0  0
  -29.4905  -18.0843   25.0008 C   0  0  0  0  0  0  0  0  0  0  0  0
  -22.9052  -13.4949   21.2964 C   0  0  0  0  0  0  0  0  0  0  0  0
  -32.6017  -21.8030   22.3100 C   0  0  0  0  0  0  0  0  0  0  0  0
  -35.6599  -22.5044   23.1334 C   0  0  0  0  0  0  0  0  0  0  0  0
  -38.0140  -22.7535   25.5916 C   0  0  0  0  0  0  0  0  0  0  0  0
  -30.2368  -17.7083   27.3734 C   0  0  0  0  0  0  0  0  0  0  0  0
  -30.7595  -14.6722   20.6900 C   0  0  0  0  0  0  0  0  0  0  0  0
  -31.4174  -22.3423   17.3740 C   0  0  0  0  0  0  0  0  0  0  0  0
  -32.2524  -23.4314   24.2027 C   0  0  0  0  0  0  0  0  0  0  0  0
  -34.2519  -21.3635   24.8888 C   0  0  0  0  0  0  0  0  0  0  0  0
  -32.6617  -21.9376   18.1603 C   0  0  0  0  0  0  0  0  0  0  0  0
  -29.5424  -12.4154   18.1552 C   0  0  0  0  0  0  0  0  0  0  0  0
  -32.3135  -20.8808   19.2038 C   0  0  0  0  0  0  0  0  0  0  0  0
  -28.1247  -12.0948   18.6274 C   0  0  0  0  0  0  0  0  0  0  0  0
  -30.4924  -12.6125   19.3322 C   0  0  0  0  0  0  0  0  0  0  0  0
  -28.6136  -13.3347   20.7833 C   0  0  0  0  0  0  0  0  0  0  0  0
  -31.3030  -21.4228   20.2220 C   0  0  1  0  0  0  0  0  0  0  0  0
  -33.2202  -22.8739   23.1635 C   0  0  1  0  0  0  0  0  0  0  0  0
  -27.6208  -13.1558   19.6218 C   0  0  2  0  0  0  0  0  0  0  0  0
  -40.4333  -23.3134   25.9528 C   0  0  0  0  0  0  0  0  0  0  0  0
  -30.5419  -19.5639   31.4733 C   0  0  0  0  0  0  0  0  0  0  0  0
  -28.2381  -20.1637   30.6796 C   0  0  0  0  0  0  0  0  0  0  0  0
  -36.4555  -19.7836   22.0046 C   0  0  0  0  0  0  0  0  0  0  0  0
  -38.6323  -19.9922   23.2238 C   0  0  0  0  0  0  0  0  0  0  0  0
  -38.0334  -21.6438   21.4529 C   0  0  0  0  0  0  0  0  0  0  0  0
  -37.3432  -25.0256   27.3655 C   0  0  0  0  0  0  0  0  0  0  0  0
  -30.8606  -16.6244   22.0455 C   0  0  0  0  0  0  0  0  0  0  0  0
  -36.8287  -21.7170   23.6745 C   0  0  1  0  0  0  0  0  0  0  0  0
  -39.0103  -23.8492   25.9248 C   0  0  2  0  0  0  0  0  0  0  0  0
  -29.8491  -18.1639   28.7729 C   0  0  2  0  0  0  0  0  0  0  0  0
  -29.7317  -20.2281   30.3573 C   0  0  0  0  0  0  0  0  0  0  0  0
  -30.0431  -19.6756   28.9470 C   0  0  1  0  0  0  0  0  0  1  0  0
  -37.4628  -20.7857   22.6030 C   0  0  0  0  0  0  0  0  0  0  0  0
  -25.8493  -11.5586   20.2491 N   0  0  0  0  0  0  0  0  0  0  0  0
  -30.3223  -17.3159   24.3331 N   0  0  0  0  0  0  0  0  0  0  0  0
  -26.2212  -12.8434   20.1184 N   0  0  0  0  0  0  0  0  0  0  0  0
  -34.4249  -22.2981   23.7645 N   0  0  0  0  0  0  0  0  0  0  0  0
  -29.9665  -13.5970   20.2770 N   0  0  0  0  0  0  0  0  0  0  0  0
  -25.4565  -15.0684   20.3928 N   0  0  0  0  0  0  0  0  0  0  0  0
  -28.5120  -18.5333   21.4147 N   0  0  0  0  0  0  0  0  0  0  0  0
  -21.9024  -12.5824   21.6515 N   0  0  0  0  0  0  0  0  0  0  0  0
  -29.4291  -18.2835   26.4002 N   0  0  0  0  0  0  0  0  0  0  0  0
  -31.9636  -22.2815   21.1816 N   0  0  0  0  0  0  0  0  0  0  0  0
  -37.7530  -22.6945   24.2390 N   0  0  0  0  0  0  0  0  0  0  0  0
  -38.7042  -24.4397   27.2585 N   0  3  0  0  0  0  0  0  0  0  0  0
  -22.6682  -14.7248   21.3643 O   0  0  0  0  0  0  0  0  0  0  0  0
  -32.6976  -20.6294   22.6493 O   0  0  0  0  0  0  0  0  0  0  0  0
  -35.8375  -23.2794   22.1903 O   0  0  0  0  0  0  0  0  0  0  0  0
  -37.5196  -22.0206   26.4454 O   0  0  0  0  0  0  0  0  0  0  0  0
  -31.1603  -16.9162   27.2104 O   0  0  0  0  0  0  0  0  0  0  0  0
  -31.9122  -14.8693   20.3096 O   0  0  0  0  0  0  0  0  0  0  0  0
  -21.6409   -7.0183   21.7407 O   0  0  0  0  0  0  0  0  0  0  0  0
  -31.3965  -19.9812   28.6136 O   0  0  0  0  0  0  0  0  0  1  0  0
  -30.1145  -15.4965   21.5736 O   0  0  0  0  0  0  0  0  0  0  0  0
  -16.4348   -6.8331   19.9336 F   0  0  0  0  0  0  0  0  0  0  0  0
  -20.8271   -5.0689   19.9575 F   0  0  0  0  0  0  0  0  0  0  0  0
  -30.6031  -17.5051   29.6970 F   0  0  0  0  0  0  0  0  0  0  0  0
  -28.3392  -18.9533   24.0711 S   0  0  0  0  0  0  0  0  0  0  0  0
  1  2  1  0  0  0  0
  1  5  2  0  0  0  0
  2  6  2  0  0  0  0
  3  8  2  0  0  0  0
  3 15  1  0  0  0  0
  4  9  1  0  0  0  0
  4 15  2  0  0  0  0
  5 17  1  0  0  0  0
  6 19  1  0  0  0  0
  7 10  2  0  0  0  0
  7 18  1  0  0  0  0
  8 21  1  0  0  0  0
  9 21  2  0  0  0  0
 10 22  1  0  0  0  0
 11 12  2  0  0  0  0
 11 23  1  0  0  0  0
 12 24  1  0  0  0  0
 13 20  1  0  0  0  0
 13 22  2  0  0  0  0
 14 24  2  0  0  0  0
 14 25  1  0  0  0  0
 15 26  1  0  0  0  0
 16 26  1  0  0  0  0
 16 28  2  0  0  0  0
 16 31  1  0  0  0  0
 17 19  2  0  0  0  0
 17 37  1  0  0  0  0
 18 20  2  0  0  0  0
 18 38  1  0  0  0  0
 19 46  1  0  0  0  0
 20 39  1  0  0  0  0
 21 81  1  0  0  0  0
 22 82  1  0  0  0  0
 23 25  2  0  0  0  0
 23 81  1  0  0  0  0
 24 84  1  0  0  0  0
 25 85  1  0  0  0  0
 26 63  2  0  0  0  0
 27 29  2  0  0  0  0
 27 56  1  0  0  0  0
 27 64  1  0  0  0  0
 28 65  1  0  0  0  0
 28 68  1  0  0  0  0
 29 69  1  0  0  0  0
 29 87  1  0  0  0  0
 30 64  2  0  0  0  0
 30 71  1  0  0  0  0
 30 87  1  0  0  0  0
 31 70  1  0  0  0  0
 31 75  2  0  0  0  0
 32 47  1  0  0  0  0
 32 72  1  0  0  0  0
 32 76  2  0  0  0  0
 33 57  1  0  0  0  0
 33 66  1  0  0  0  0
 33 77  2  0  0  0  0
 34 58  1  0  0  0  0
 34 73  1  0  0  0  0
 34 78  2  0  0  0  0
 35 59  1  0  0  0  0
 35 71  1  0  0  0  0
 35 79  2  0  0  0  0
 36 67  1  0  0  0  0
 36 80  2  0  0  0  0
 36 83  1  0  0  0  0
 37 40  1  0  0  0  0
 38 47  1  0  0  0  0
 39 66  1  0  0  0  0
 40 42  1  0  0  0  0
 41 43  1  0  0  0  0
 41 44  1  0  0  0  0
 42 46  1  0  0  0  0
 43 48  1  0  0  0  0
 44 67  1  0  0  0  0
 45 48  1  0  0  0  0
 45 67  1  0  0  0  0
 46 72  1  0  0  0  0
 47 66  1  0  0  0  0
 48 65  1  0  0  0  0
 49 58  1  0  0  0  0
 50 60  1  0  0  0  0
 51 60  1  0  0  0  0
 52 62  1  0  0  0  0
 53 62  1  0  0  0  0
 54 62  1  0  0  0  0
 55 74  1  0  0  0  0
 56 83  1  0  0  0  0
 57 62  1  0  0  0  0
 57 73  1  0  0  0  0
 58 74  1  0  0  0  0
 59 61  1  0  0  0  0
 59 86  1  0  0  0  0
 60 61  1  0  0  0  0
 61 82  1  0  0  0  0
 63 65  1  0  0  0  0
M  CHG  1  74   1
M  ISO  4  36 100  61 101  82 101  83 100
M  END
> <Batch ID>
0183

> <Smiles>
CNC(C)C(=O)NC(C(=O)N1Cc2cc([101O:1][101CH:1](C(C)C)C(F)C(=O)Nc3nc(C[100O:0][100C:0](=O)N4CCCC(n5nc(-c6ccc(Oc7ccc(F)cc7F)cc6)c(C(N)=O)c5N)C4)c(N)s3)ccc2CC1C(=O)NC1CCCc2ccccc21)C(C)(C)C

> <Shape>
0.185

> <Color>
0.178

> <Negative vol penalty>
0.000

$$$$

  -OEChem-04052304593D

 86 94  0     1  0  0  0  0  0999 V2000
  -26.6153  -38.4368   20.8797 C   0  0  0  0  0  0  0  0  0  0  0  0
  -27.1601  -37.3662   20.1779 C   0  0  0  0  0  0  0  0  0  0  0  0
  -25.0637   -7.9175   21.0794 C   0  0  0  0  0  0  0  0  0  0  0  0
  -23.6376   -9.2352   19.6417 C   0  0  0  0  0  0  0  0  0  0  0  0
  -26.0395  -38.2272   22.1321 C   0  0  0  0  0  0  0  0  0  0  0  0
  -27.1305  -36.0855   20.7287 C   0  0  0  0  0  0  0  0  0  0  0  0
  -26.5966  -29.2004   18.8243 C   0  0  0  0  0  0  0  0  0  0  0  0
  -23.9595   -7.1711   21.4907 C   0  0  0  0  0  0  0  0  0  0  0  0
  -22.5333   -8.4888   20.0530 C   0  0  0  0  0  0  0  0  0  0  0  0
  -27.2450  -27.9795   19.0052 C   0  0  0  0  0  0  0  0  0  0  0  0
  -21.3711   -7.5280   23.6349 C   0  0  0  0  0  0  0  0  0  0  0  0
  -21.2361   -7.2697   24.9989 C   0  0  0  0  0  0  0  0  0  0  0  0
  -26.1537  -27.7233   21.1412 C   0  0  0  0  0  0  0  0  0  0  0  0
  -21.3228   -4.8958   24.5579 C   0  0  0  0  0  0  0  0  0  0  0  0
  -24.9028   -8.9496   20.1550 C   0  0  0  0  0  0  0  0  0  0  0  0
  -26.8930   -9.4528   18.6406 C   0  0  0  0  0  0  0  0  0  0  0  0
  -25.9942  -36.9416   22.6942 C   0  0  0  0  0  0  0  0  0  0  0  0
  -25.7288  -29.6979   19.8070 C   0  0  0  0  0  0  0  0  0  0  0  0
  -26.5548  -35.8587   21.9904 C   0  0  0  0  0  0  0  0  0  0  0  0
  -25.4935  -28.9495   20.9692 C   0  0  0  0  0  0  0  0  0  0  0  0
  -22.6943   -7.4567   20.9775 C   0  0  0  0  0  0  0  0  0  0  0  0
  -27.0258  -27.2421   20.1651 C   0  0  0  0  0  0  0  0  0  0  0  0
  -21.4819   -6.4703   22.7323 C   0  0  0  0  0  0  0  0  0  0  0  0
  -21.2120   -5.9536   25.4604 C   0  0  0  0  0  0  0  0  0  0  0  0
  -21.4577   -5.1542   23.1938 C   0  0  0  0  0  0  0  0  0  0  0  0
  -26.0430   -9.7213   19.7301 C   0  0  0  0  0  0  0  0  0  0  0  0
  -25.0056  -18.8234   17.7157 C   0  0  0  0  0  0  0  0  0  0  0  0
  -25.9714  -19.4148   18.5028 C   0  0  0  0  0  0  0  0  0  0  0  0
  -27.8122  -10.4732   18.6626 C   0  0  0  0  0  0  0  0  0  0  0  0
  -26.2257  -17.3414   19.1709 C   0  0  0  0  0  0  0  0  0  0  0  0
  -24.1132  -19.3879   16.7575 C   0  0  0  0  0  0  0  0  0  0  0  0
  -26.8551   -8.3773   17.6932 C   0  0  0  0  0  0  0  0  0  0  0  0
  -27.2087  -22.9331   18.9497 C   0  0  0  0  0  0  0  0  0  0  0  0
  -28.0137  -23.8403   19.5214 C   0  0  0  0  0  0  0  0  0  0  0  0
  -27.2129  -21.4704   19.2508 C   0  0  0  0  0  0  0  0  0  0  0  0
  -25.6778  -32.2852   21.6529 C   0  0  0  0  0  0  0  0  0  0  0  0
  -22.7624  -31.1447   22.5024 C   0  0  0  0  0  0  0  0  0  0  0  0
  -20.6699  -28.4635   22.7843 C   0  0  0  0  0  0  0  0  0  0  0  0
  -27.6646  -16.0551   20.7899 C   0  0  0  0  0  0  0  0  0  0  0  0
  -25.4038  -36.7721   24.0717 C   0  0  0  0  0  0  0  0  0  0  0  0
  -25.0165  -31.0039   19.5848 C   0  0  0  0  0  0  0  0  0  0  0  0
  -24.5557  -29.4299   22.0454 C   0  0  0  0  0  0  0  0  0  0  0  0
  -25.0775  -35.3222   24.4203 C   0  0  0  0  0  0  0  0  0  0  0  0
  -29.9776  -13.4982   21.6782 C   0  0  0  0  0  0  0  0  0  0  0  0
  -26.2425  -34.4092   24.0512 C   0  0  0  0  0  0  0  0  0  0  0  0
  -29.3113  -12.2157   21.1749 C   0  0  0  0  0  0  0  0  0  0  0  0
  -28.9546  -14.4912   22.2269 C   0  0  0  0  0  0  0  0  0  0  0  0
  -27.1827  -13.5287   20.8116 C   0  0  0  0  0  0  0  0  0  0  0  0
  -26.5196  -34.4506   22.5436 C   0  0  1  0  0  0  0  0  0  0  0  0
  -24.5507  -31.6587   20.8816 C   0  0  1  0  0  0  0  0  0  0  0  0
  -28.1668  -12.5245   20.1898 C   0  0  2  0  0  0  0  0  0  0  0  0
  -18.3629  -27.8368   23.5474 C   0  0  0  0  0  0  0  0  0  0  0  0
  -23.6769  -31.3255   25.4077 C   0  0  0  0  0  0  0  0  0  0  0  0
  -21.7631  -29.8361   26.0300 C   0  0  0  0  0  0  0  0  0  0  0  0
  -21.3228  -32.0682   25.0070 C   0  0  0  0  0  0  0  0  0  0  0  0
  -19.9046  -27.5282   20.0827 C   0  0  0  0  0  0  0  0  0  0  0  0
  -27.9711  -25.2984   19.1728 C   0  0  0  0  0  0  0  0  0  1  0  0
  -22.2505  -30.2071   23.5691 C   0  0  1  0  0  0  0  0  0  0  0  0
  -19.2230  -28.2669   22.3693 C   0  0  2  0  0  0  0  0  0  0  0  0
  -22.2726  -30.8508   24.9842 C   0  0  0  0  0  0  0  0  0  0  0  0
  -26.3913  -10.8256   20.3959 N   0  0  0  0  0  0  0  0  0  0  0  0
  -26.6718  -18.5667   19.3381 N   0  0  0  0  0  0  0  0  0  0  0  0
  -24.0653  -20.6656   16.4465 N   0  0  0  0  0  0  0  0  0  0  0  0
  -27.4704  -11.2600   19.7229 N   0  0  0  0  0  0  0  0  0  0  0  0
  -23.8878  -30.7157   21.7846 N   0  0  0  0  0  0  0  0  0  0  0  0
  -27.9032  -14.7386   21.2379 N   0  0  0  0  0  0  0  0  0  0  0  0
  -28.8714  -10.7651   17.8782 N   0  0  0  0  0  0  0  0  0  0  0  0
  -25.8437   -7.4147   17.8154 N   0  0  0  0  0  0  0  0  0  0  0  0
  -26.2619  -20.8005   18.4936 N   0  0  0  0  0  0  0  0  0  0  0  0
  -26.6633  -16.1634   19.8254 N   0  0  0  0  0  0  0  0  0  0  0  0
  -25.5488  -33.6497   21.8290 N   0  0  0  0  0  0  0  0  0  0  0  0
  -20.9285  -29.7728   23.1307 N   0  0  0  0  0  0  0  0  0  0  0  0
  -19.1251  -27.2232   21.3101 N   0  3  0  0  0  0  0  0  0  0  0  0
  -27.7029   -8.2639   16.7757 O   0  0  0  0  0  0  0  0  0  0  0  0
  -27.9843  -20.9914   20.0730 O   0  0  0  0  0  0  0  0  0  0  0  0
  -26.5957  -31.5825   22.0594 O   0  0  0  0  0  0  0  0  0  0  0  0
  -22.1807  -32.2150   22.3082 O   0  0  0  0  0  0  0  0  0  0  0  0
  -21.4879  -27.5464   22.8031 O   0  0  0  0  0  0  0  0  0  0  0  0
  -28.3202  -17.0122   21.2095 O   0  0  0  0  0  0  0  0  0  0  0  0
  -28.9574  -23.4838   20.4654 O   0  0  0  0  0  0  0  0  0  0  0  0
  -21.6166   -6.7285   21.3785 O   0  0  0  0  0  0  0  0  0  0  0  0
  -27.6579  -26.0504   20.3445 O   0  0  0  0  0  0  0  0  0  1  0  0
  -21.0839   -5.7057   26.7705 F   0  0  0  0  0  0  0  0  0  0  0  0
  -21.5649   -4.1340   22.3316 F   0  0  0  0  0  0  0  0  0  0  0  0
  -26.3037  -23.3192   18.0230 F   0  0  0  0  0  0  0  0  0  0  0  0
  -24.9652  -17.1369   18.0244 S   0  0  0  0  0  0  0  0  0  0  0  0
  1  2  1  0  0  0  0
  1  5  2  0  0  0  0
  2  6  2  0  0  0  0
  3  8  2  0  0  0  0
  3 15  1  0  0  0  0
  4  9  1  0  0  0  0
  4 15  2  0  0  0  0
  5 17  1  0  0  0  0
  6 19  1  0  0  0  0
  7 10  2  0  0  0  0
  7 18  1  0  0  0  0
  8 21  1  0  0  0  0
  9 21  2  0  0  0  0
 10 22  1  0  0  0  0
 11 12  2  0  0  0  0
 11 23  1  0  0  0  0
 12 24  1  0  0  0  0
 13 20  1  0  0  0  0
 13 22  2  0  0  0  0
 14 24  2  0  0  0  0
 14 25  1  0  0  0  0
 15 26  1  0  0  0  0
 16 26  1  0  0  0  0
 16 29  2  0  0  0  0
 16 32  1  0  0  0  0
 17 19  2  0  0  0  0
 17 40  1  0  0  0  0
 18 20  2  0  0  0  0
 18 41  1  0  0  0  0
 19 49  1  0  0  0  0
 20 42  1  0  0  0  0
 21 81  1  0  0  0  0
 22 82  1  0  0  0  0
 23 25  2  0  0  0  0
 23 81  1  0  0  0  0
 24 83  1  0  0  0  0
 25 84  1  0  0  0  0
 26 61  2  0  0  0  0
 27 28  2  0  0  0  0
 27 31  1  0  0  0  0
 27 86  1  0  0  0  0
 28 62  1  0  0  0  0
 28 69  1  0  0  0  0
 29 64  1  0  0  0  0
 29 67  1  0  0  0  0
 30 62  2  0  0  0  0
 30 70  1  0  0  0  0
 30 86  1  0  0  0  0
 31 63  2  0  0  0  0
 32 68  1  0  0  0  0
 32 74  2  0  0  0  0
 33 34  2  0  0  0  0
 33 35  1  0  0  0  0
 33 85  1  0  0  0  0
 34 57  1  0  0  0  0
 34 80  1  0  0  0  0
 35 69  1  0  0  0  0
 35 75  2  0  0  0  0
 36 50  1  0  0  0  0
 36 71  1  0  0  0  0
 36 76  2  0  0  0  0
 37 58  1  0  0  0  0
 37 65  1  0  0  0  0
 37 77  2  0  0  0  0
 38 59  1  0  0  0  0
 38 72  1  0  0  0  0
 38 78  2  0  0  0  0
 39 66  1  0  0  0  0
 39 70  1  0  0  0  0
 39 79  2  0  0  0  0
 40 43  1  0  0  0  0
 41 50  1  0  0  0  0
 42 65  1  0  0  0  0
 43 45  1  0  0  0  0
 44 46  1  0  0  0  0
 44 47  1  0  0  0  0
 45 49  1  0  0  0  0
 46 51  1  0  0  0  0
 47 66  1  0  0  0  0
 48 51  1  0  0  0  0
 48 66  1  0  0  0  0
 49 71  1  0  0  0  0
 50 65  1  0  0  0  0
 51 64  1  0  0  0  0
 52 59  1  0  0  0  0
 53 60  1  0  0  0  0
 54 60  1  0  0  0  0
 55 60  1  0  0  0  0
 56 73  1  0  0  0  0
 57 82  1  0  0  0  0
 58 60  1  0  0  0  0
 58 72  1  0  0  0  0
 59 73  1  0  0  0  0
 61 64  1  0  0  0  0
M  CHG  1  73   1
M  ISO  4  39 100  57 101  70 100  82 101
M  END
> <Batch ID>
0183

> <Smiles>
CNC(C)C(=O)NC(C(=O)N1Cc2cc([101O:1][101CH2:1]C(=O)C(F)C(=O)Nc3nc([100NH:0][100C:0](=O)N4CCCC(n5nc(-c6ccc(Oc7ccc(F)cc7F)cc6)c(C(N)=O)c5N)C4)sc3C=N)ccc2CC1C(=O)NC1CCCc2ccccc21)C(C)(C)C

> <Shape>
0.287

> <Color>
0.080

> <Negative vol penalty>
0.000

$$$$

  -OEChem-04052304593D

 84 92  0     1  0  0  0  0  0999 V2000
  -25.4996  -33.3196   21.4815 C   0  0  0  0  0  0  0  0  0  0  0  0
  -26.7359  -32.9009   21.9628 C   0  0  0  0  0  0  0  0  0  0  0  0
  -23.1427   -9.7397   20.0094 C   0  0  0  0  0  0  0  0  0  0  0  0
  -23.7942   -9.9496   22.3265 C   0  0  0  0  0  0  0  0  0  0  0  0
  -24.6065  -32.3880   20.9535 C   0  0  0  0  0  0  0  0  0  0  0  0
  -27.0794  -31.5502   21.9175 C   0  0  0  0  0  0  0  0  0  0  0  0
  -32.7550  -27.2579   21.0925 C   0  0  0  0  0  0  0  0  0  0  0  0
  -22.4364   -8.5760   20.3134 C   0  0  0  0  0  0  0  0  0  0  0  0
  -23.0878   -8.7858   22.6304 C   0  0  0  0  0  0  0  0  0  0  0  0
  -33.3902  -26.1816   21.7103 C   0  0  0  0  0  0  0  0  0  0  0  0
  -23.5417   -5.4482   22.3389 C   0  0  0  0  0  0  0  0  0  0  0  0
  -24.1650   -4.5071   23.1582 C   0  0  0  0  0  0  0  0  0  0  0  0
  -31.7997  -24.6729   20.7037 C   0  0  0  0  0  0  0  0  0  0  0  0
  -22.3803   -4.7296   24.7715 C   0  0  0  0  0  0  0  0  0  0  0  0
  -31.8271  -18.9225   21.7379 C   0  0  0  0  0  0  0  0  0  0  0  0
  -23.8217  -10.4265   21.0160 C   0  0  0  0  0  0  0  0  0  0  0  0
  -24.0639  -12.9488   20.7204 C   0  0  0  0  0  0  0  0  0  0  0  0
  -24.9432  -31.0266   20.8929 C   0  0  0  0  0  0  0  0  0  0  0  0
  -31.6288  -27.0506   20.2830 C   0  0  0  0  0  0  0  0  0  0  0  0
  -26.1895  -30.5994   21.3895 C   0  0  0  0  0  0  0  0  0  0  0  0
  -31.1535  -25.7480   20.0746 C   0  0  0  0  0  0  0  0  0  0  0  0
  -22.4090   -8.0990   21.6239 C   0  0  0  0  0  0  0  0  0  0  0  0
  -32.9108  -24.8891   21.5183 C   0  0  0  0  0  0  0  0  0  0  0  0
  -22.3377   -6.0301   22.7358 C   0  0  0  0  0  0  0  0  0  0  0  0
  -23.5844   -4.1478   24.3745 C   0  0  0  0  0  0  0  0  0  0  0  0
  -21.7570   -5.6707   23.9521 C   0  0  0  0  0  0  0  0  0  0  0  0
  -24.5519  -11.6284   20.7025 C   0  0  0  0  0  0  0  0  0  0  0  0
  -30.9829  -19.7429   22.4532 C   0  0  0  0  0  0  0  0  0  0  0  0
  -30.2412  -17.2750   21.7556 C   0  0  0  0  0  0  0  0  0  0  0  0
  -29.3971  -18.0951   22.4716 C   0  0  0  0  0  0  0  0  0  0  0  0
  -25.1398  -13.7176   20.3491 C   0  0  0  0  0  0  0  0  0  0  0  0
  -22.7550  -13.4366   21.0437 C   0  0  0  0  0  0  0  0  0  0  0  0
  -28.5889  -27.9733   20.3900 C   0  0  0  0  0  0  0  0  0  0  0  0
  -28.4593  -26.5461   17.4799 C   0  0  0  0  0  0  0  0  0  0  0  0
  -29.7611  -24.2465   15.3202 C   0  0  0  0  0  0  0  0  0  0  0  0
  -32.6583  -21.6219   22.4903 C   0  0  0  0  0  0  0  0  0  0  0  0
  -30.5439  -15.0169   20.6808 C   0  0  0  0  0  0  0  0  0  0  0  0
  -23.9261  -30.0504   20.3568 C   0  0  0  0  0  0  0  0  0  0  0  0
  -30.9711  -28.2195   19.6021 C   0  0  0  0  0  0  0  0  0  0  0  0
  -29.9602  -25.4699   19.1987 C   0  0  0  0  0  0  0  0  0  0  0  0
  -24.5172  -28.6886   20.0014 C   0  0  0  0  0  0  0  0  0  0  0  0
  -29.6418  -12.3877   18.4557 C   0  0  0  0  0  0  0  0  0  0  0  0
  -25.4268  -28.1928   21.1211 C   0  0  0  0  0  0  0  0  0  0  0  0
  -28.1970  -12.0644   18.8433 C   0  0  0  0  0  0  0  0  0  0  0  0
  -30.4898  -12.7451   19.6751 C   0  0  0  0  0  0  0  0  0  0  0  0
  -28.4923  -13.4833   20.9138 C   0  0  0  0  0  0  0  0  0  0  0  0
  -26.6085  -29.1463   21.3349 C   0  0  1  0  0  0  0  0  0  0  0  0
  -29.5218  -27.9458   19.2124 C   0  0  1  0  0  0  0  0  0  0  0  0
  -27.5833  -13.1804   19.7114 C   0  0  2  0  0  0  0  0  0  0  0  0
  -29.4185  -23.2802   13.0298 C   0  0  0  0  0  0  0  0  0  0  0  0
  -33.3702  -23.1002   24.4053 C   0  0  0  0  0  0  0  0  0  0  0  0
  -26.0991  -24.9176   18.5226 C   0  0  0  0  0  0  0  0  0  0  0  0
  -26.4145  -23.3546   16.5923 C   0  0  0  0  0  0  0  0  0  0  0  0
  -25.8398  -25.7463   16.1773 C   0  0  0  0  0  0  0  0  0  0  0  0
  -26.9920  -18.4951   23.0014 C   0  0  0  0  0  0  0  0  0  0  0  0
  -32.4279  -25.1533   14.4121 C   0  0  0  0  0  0  0  0  0  0  0  0
  -28.1603  -25.1514   16.9855 C   0  0  1  0  0  0  0  0  0  0  0  0
  -30.1332  -24.3416   13.8516 C   0  0  2  0  0  0  0  0  0  0  0  0
  -32.7457  -23.0514   23.0187 C   0  0  1  0  0  0  0  0  0  1  0  0
  -26.6498  -24.7976   17.0876 C   0  0  0  0  0  0  0  0  0  0  0  0
  -31.4714  -17.6738   21.3762 N   0  0  0  0  0  0  0  0  0  0  0  0
  -25.8378  -11.5588   20.3478 N   0  0  0  0  0  0  0  0  0  0  0  0
  -29.7527  -19.3439   22.8330 N   0  0  0  0  0  0  0  0  0  0  0  0
  -26.1668  -12.8450   20.1393 N   0  0  0  0  0  0  0  0  0  0  0  0
  -29.3476  -26.6465   18.5600 N   0  0  0  0  0  0  0  0  0  0  0  0
  -29.8484  -13.8117   20.4470 N   0  0  0  0  0  0  0  0  0  0  0  0
  -25.2980  -15.0481   20.1849 N   0  0  0  0  0  0  0  0  0  0  0  0
  -21.7670  -12.5104   21.4046 N   0  0  0  0  0  0  0  0  0  0  0  0
  -31.4311  -21.0415   22.7934 N   0  0  0  0  0  0  0  0  0  0  0  0
  -29.8214  -15.9697   21.3981 N   0  0  0  0  0  0  0  0  0  0  0  0
  -28.1158  -17.6277   22.8430 N   0  0  0  0  0  0  0  0  0  0  0  0
  -27.6110  -28.9463   20.3104 N   0  0  0  0  0  0  0  0  0  0  0  0
  -28.7025  -25.0726   15.6334 N   0  0  0  0  0  0  0  0  0  0  0  0
  -31.6022  -24.1612   13.6767 N   0  3  0  0  0  0  0  0  0  0  0  0
  -22.4656  -14.6563   20.9976 O   0  0  0  0  0  0  0  0  0  0  0  0
  -28.7440  -27.1701   21.3024 O   0  0  0  0  0  0  0  0  0  0  0  0
  -27.9299  -27.5114   16.9235 O   0  0  0  0  0  0  0  0  0  0  0  0
  -30.3482  -23.5101   16.1098 O   0  0  0  0  0  0  0  0  0  0  0  0
  -33.5877  -21.1154   21.8682 O   0  0  0  0  0  0  0  0  0  0  0  0
  -31.6856  -15.2011   20.2510 O   0  0  0  0  0  0  0  0  0  0  0  0
  -21.7196   -6.9636   21.9209 O   0  0  0  0  0  0  0  0  0  0  0  0
  -33.5286  -23.8368   22.1206 O   0  0  0  0  0  0  0  0  0  1  0  0
  -24.1823   -3.2429   25.1605 F   0  0  0  0  0  0  0  0  0  0  0  0
  -20.5998   -6.2254   24.3383 F   0  0  0  0  0  0  0  0  0  0  0  0
  1  2  1  0  0  0  0
  1  5  2  0  0  0  0
  2  6  2  0  0  0  0
  3  8  2  0  0  0  0
  3 16  1  0  0  0  0
  4  9  1  0  0  0  0
  4 16  2  0  0  0  0
  5 18  1  0  0  0  0
  6 20  1  0  0  0  0
  7 10  2  0  0  0  0
  7 19  1  0  0  0  0
  8 22  1  0  0  0  0
  9 22  2  0  0  0  0
 10 23  1  0  0  0  0
 11 12  2  0  0  0  0
 11 24  1  0  0  0  0
 12 25  1  0  0  0  0
 13 21  1  0  0  0  0
 13 23  2  0  0  0  0
 14 25  2  0  0  0  0
 14 26  1  0  0  0  0
 15 28  1  0  0  0  0
 15 61  2  0  0  0  0
 16 27  1  0  0  0  0
 17 27  1  0  0  0  0
 17 31  2  0  0  0  0
 17 32  1  0  0  0  0
 18 20  2  0  0  0  0
 18 38  1  0  0  0  0
 19 21  2  0  0  0  0
 19 39  1  0  0  0  0
 20 47  1  0  0  0  0
 21 40  1  0  0  0  0
 22 81  1  0  0  0  0
 23 82  1  0  0  0  0
 24 26  2  0  0  0  0
 24 81  1  0  0  0  0
 25 83  1  0  0  0  0
 26 84  1  0  0  0  0
 27 62  2  0  0  0  0
 28 63  2  0  0  0  0
 28 69  1  0  0  0  0
 29 30  2  0  0  0  0
 29 61  1  0  0  0  0
 29 70  1  0  0  0  0
 30 63  1  0  0  0  0
 30 71  1  0  0  0  0
 31 64  1  0  0  0  0
 31 67  1  0  0  0  0
 32 68  1  0  0  0  0
 32 75  2  0  0  0  0
 33 48  1  0  0  0  0
 33 72  1  0  0  0  0
 33 76  2  0  0  0  0
 34 57  1  0  0  0  0
 34 65  1  0  0  0  0
 34 77  2  0  0  0  0
 35 58  1  0  0  0  0
 35 73  1  0  0  0  0
 35 78  2  0  0  0  0
 36 59  1  0  0  0  0
 36 69  1  0  0  0  0
 36 79  2  0  0  0  0
 37 66  1  0  0  0  0
 37 70  1  0  0  0  0
 37 80  2  0  0  0  0
 38 41  1  0  0  0  0
 39 48  1  0  0  0  0
 40 65  1  0  0  0  0
 41 43  1  0  0  0  0
 42 44  1  0  0  0  0
 42 45  1  0  0  0  0
 43 47  1  0  0  0  0
 44 49  1  0  0  0  0
 45 66  1  0  0  0  0
 46 49  1  0  0  0  0
 46 66  1  0  0  0  0
 47 72  1  0  0  0  0
 48 65  1  0  0  0  0
 49 64  1  0  0  0  0
 50 58  1  0  0  0  0
 51 59  1  0  0  0  0
 52 60  1  0  0  0  0
 53 60  1  0  0  0  0
 54 60  1  0  0  0  0
 55 71  1  0  0  0  0
 56 74  1  0  0  0  0
 57 60  1  0  0  0  0
 57 73  1  0  0  0  0
 58 74  1  0  0  0  0
 59 82  1  0  0  0  0
 62 64  1  0  0  0  0
M  CHG  1  74   1
M  ISO  4  37 100  59 101  70 100  82 101
M  END
> <Batch ID>
0183

> <Smiles>
CNc1nc(NC(=O)[101CH:1](C)[101O:1]c2ccc3c(c2)CN(C(=O)C(NC(=O)C(C)NC)C(C)(C)C)C(C(=O)NC2CCCc4ccccc42)C3)cnc1[100NH:0][100C:0](=O)N1CCCC(n2nc(-c3ccc(Oc4ccc(F)cc4F)cc3)c(C(N)=O)c2N)C1

> <Shape>
0.295

> <Color>
0.194

> <Negative vol penalty>
0.000

$$$$

  -OEChem-04052304593D

 82 90  0     1  0  0  0  0  0999 V2000
  -17.3515  -27.1146   23.2614 C   0  0  0  0  0  0  0  0  0  0  0  0
  -18.5173  -26.3626   23.1585 C   0  0  0  0  0  0  0  0  0  0  0  0
  -25.3549  -14.2505   21.8514 C   0  0  0  0  0  0  0  0  0  0  0  0
  -25.8719  -14.5367   19.5087 C   0  0  0  0  0  0  0  0  0  0  0  0
  -17.3094  -28.4079   22.7421 C   0  0  0  0  0  0  0  0  0  0  0  0
  -19.6415  -26.9029   22.5351 C   0  0  0  0  0  0  0  0  0  0  0  0
  -26.7975  -26.7644   22.8322 C   0  0  0  0  0  0  0  0  0  0  0  0
  -25.2827  -12.8698   21.6668 C   0  0  0  0  0  0  0  0  0  0  0  0
  -25.7997  -13.1559   19.3242 C   0  0  0  0  0  0  0  0  0  0  0  0
  -27.9057  -26.5557   22.0124 C   0  0  0  0  0  0  0  0  0  0  0  0
  -23.0631  -10.6335   20.4432 C   0  0  0  0  0  0  0  0  0  0  0  0
  -21.9899   -9.9580   21.0241 C   0  0  0  0  0  0  0  0  0  0  0  0
  -27.7421  -28.8291   21.2226 C   0  0  0  0  0  0  0  0  0  0  0  0
  -23.5316   -8.6218   22.3184 C   0  0  0  0  0  0  0  0  0  0  0  0
  -25.6494  -15.0839   20.7723 C   0  0  0  0  0  0  0  0  0  0  0  0
  -26.8619  -17.2642   21.3053 C   0  0  0  0  0  0  0  0  0  0  0  0
  -18.4367  -28.9679   22.1206 C   0  0  0  0  0  0  0  0  0  0  0  0
  -26.1456  -28.0058   22.8453 C   0  0  0  0  0  0  0  0  0  0  0  0
  -19.6141  -28.2044   22.0058 C   0  0  0  0  0  0  0  0  0  0  0  0
  -26.6274  -29.0518   22.0453 C   0  0  0  0  0  0  0  0  0  0  0  0
  -25.5051  -12.3225   20.4032 C   0  0  0  0  0  0  0  0  0  0  0  0
  -28.3764  -27.5872   21.2053 C   0  0  0  0  0  0  0  0  0  0  0  0
  -24.3706  -10.3031   20.7998 C   0  0  0  0  0  0  0  0  0  0  0  0
  -22.2241   -8.9522   21.9618 C   0  0  0  0  0  0  0  0  0  0  0  0
  -24.6048   -9.2973   21.7375 C   0  0  0  0  0  0  0  0  0  0  0  0
  -25.7236  -16.5103   20.9622 C   0  0  0  0  0  0  0  0  0  0  0  0
  -27.0562  -25.9216   18.1619 C   0  0  0  0  0  0  0  0  0  0  0  0
  -25.7671  -26.3903   18.3060 C   0  0  0  0  0  0  0  0  0  0  0  0
  -26.4107  -18.5602   21.3632 C   0  0  0  0  0  0  0  0  0  0  0  0
  -25.3927  -24.2669   18.7070 C   0  0  0  0  0  0  0  0  0  0  0  0
  -28.2068  -16.8317   21.5498 C   0  0  0  0  0  0  0  0  0  0  0  0
  -28.3230  -26.6403   17.8335 C   0  0  0  0  0  0  0  0  0  0  0  0
  -23.2184  -29.0099   22.1191 C   0  0  0  0  0  0  0  0  0  0  0  0
  -24.3126  -31.8256   23.3010 C   0  0  0  0  0  0  0  0  0  0  0  0
  -26.9833  -33.8321   23.9997 C   0  0  0  0  0  0  0  0  0  0  0  0
  -23.4393  -22.7812   19.2758 C   0  0  0  0  0  0  0  0  0  0  0  0
  -18.3285  -30.3525   21.5324 C   0  0  0  0  0  0  0  0  0  0  0  0
  -24.9677  -28.2231   23.7552 C   0  0  0  0  0  0  0  0  0  0  0  0
  -25.9754  -30.4095   22.0379 C   0  0  0  0  0  0  0  0  0  0  0  0
  -19.6804  -30.9887   21.2197 C   0  0  0  0  0  0  0  0  0  0  0  0
  -21.7016  -20.4151   21.2906 C   0  0  0  0  0  0  0  0  0  0  0  0
  -20.5812  -29.9970   20.4903 C   0  0  0  0  0  0  0  0  0  0  0  0
  -22.6867  -19.2503   21.4130 C   0  0  0  0  0  0  0  0  0  0  0  0
  -21.7589  -21.0634   19.9085 C   0  0  0  0  0  0  0  0  0  0  0  0
  -24.0837  -20.3115   19.5938 C   0  0  0  0  0  0  0  0  0  0  0  0
  -20.8620  -28.7648   21.3587 C   0  0  1  0  0  0  0  0  0  0  0  0
  -24.0683  -29.3700   23.3047 C   0  0  1  0  0  0  0  0  0  0  0  0
  -24.1087  -19.6680   20.9899 C   0  0  2  0  0  0  0  0  0  0  0  0
  -27.5604  -36.0912   24.9276 C   0  0  0  0  0  0  0  0  0  0  0  0
  -31.0105  -25.5613   20.4263 C   0  0  0  0  0  0  0  0  0  0  0  0
  -23.4311  -33.1231   20.6838 C   0  0  0  0  0  0  0  0  0  0  0  0
  -24.8554  -35.0986   21.2644 C   0  0  0  0  0  0  0  0  0  0  0  0
  -22.9397  -34.4696   22.7332 C   0  0  0  0  0  0  0  0  0  0  0  0
  -28.5441  -32.6502   26.2191 C   0  0  0  0  0  0  0  0  0  0  0  0
  -29.6362  -26.0957   18.3839 C   0  0  0  0  0  0  0  0  0  0  0  0
  -25.0165  -33.0278   22.7194 C   0  0  1  0  0  0  0  0  0  0  0  0
  -27.3543  -34.6181   25.2444 C   0  0  2  0  0  0  0  0  0  0  0  0
  -29.6658  -26.0616   19.9145 C   0  0  2  0  0  0  0  0  0  1  0  0
  -24.0720  -33.9037   21.8487 C   0  0  0  0  0  0  0  0  0  0  0  0
  -24.6314  -17.2645   20.8128 N   0  0  0  0  0  0  0  0  0  0  0  0
  -24.8118  -25.4428   18.6182 N   0  0  0  0  0  0  0  0  0  0  0  0
  -25.0813  -18.5059   21.0633 N   0  0  0  0  0  0  0  0  0  0  0  0
  -24.8231  -30.5706   22.9400 N   0  0  0  0  0  0  0  0  0  0  0  0
  -23.1357  -21.4366   19.5772 N   0  0  0  0  0  0  0  0  0  0  0  0
  -25.4158  -27.6905   18.1606 N   0  0  0  0  0  0  0  0  0  0  0  0
  -27.0254  -19.7295   21.6410 N   0  0  0  0  0  0  0  0  0  0  0  0
  -28.4979  -15.4645   21.4478 N   0  0  0  0  0  0  0  0  0  0  0  0
  -24.7866  -23.0221   19.0085 N   0  0  0  0  0  0  0  0  0  0  0  0
  -21.8594  -29.0701   22.3619 N   0  0  0  0  0  0  0  0  0  0  0  0
  -25.6165  -33.7341   23.8461 N   0  0  0  0  0  0  0  0  0  0  0  0
  -28.6127  -34.0844   25.8380 N   0  3  0  0  0  0  0  0  0  0  0  0
  -29.1197  -17.6318   21.8658 O   0  0  0  0  0  0  0  0  0  0  0  0
  -28.2745  -27.6481   17.1322 O   0  0  0  0  0  0  0  0  0  0  0  0
  -23.7558  -28.7017   21.0617 O   0  0  0  0  0  0  0  0  0  0  0  0
  -23.3499  -31.9939   24.0536 O   0  0  0  0  0  0  0  0  0  0  0  0
  -27.8220  -33.3562   23.2379 O   0  0  0  0  0  0  0  0  0  0  0  0
  -22.5730  -23.6594   19.2829 O   0  0  0  0  0  0  0  0  0  0  0  0
  -25.4350  -10.9753   20.2228 O   0  0  0  0  0  0  0  0  0  0  0  0
  -29.4575  -27.3859   20.4036 O   0  0  0  0  0  0  0  0  0  1  0  0
  -21.1934   -8.3046   22.5207 F   0  0  0  0  0  0  0  0  0  0  0  0
  -25.8586   -8.9763   22.0849 F   0  0  0  0  0  0  0  0  0  0  0  0
  -27.0854  -24.2276   18.4277 S   0  0  0  0  0  0  0  0  0  0  0  0
  1  2  1  0  0  0  0
  1  5  2  0  0  0  0
  2  6  2  0  0  0  0
  3  8  2  0  0  0  0
  3 15  1  0  0  0  0
  4  9  1  0  0  0  0
  4 15  2  0  0  0  0
  5 17  1  0  0  0  0
  6 19  1  0  0  0  0
  7 10  2  0  0  0  0
  7 18  1  0  0  0  0
  8 21  1  0  0  0  0
  9 21  2  0  0  0  0
 10 22  1  0  0  0  0
 11 12  2  0  0  0  0
 11 23  1  0  0  0  0
 12 24  1  0  0  0  0
 13 20  1  0  0  0  0
 13 22  2  0  0  0  0
 14 24  2  0  0  0  0
 14 25  1  0  0  0  0
 15 26  1  0  0  0  0
 16 26  1  0  0  0  0
 16 29  2  0  0  0  0
 16 31  1  0  0  0  0
 17 19  2  0  0  0  0
 17 37  1  0  0  0  0
 18 20  2  0  0  0  0
 18 38  1  0  0  0  0
 19 46  1  0  0  0  0
 20 39  1  0  0  0  0
 21 78  1  0  0  0  0
 22 79  1  0  0  0  0
 23 25  2  0  0  0  0
 23 78  1  0  0  0  0
 24 80  1  0  0  0  0
 25 81  1  0  0  0  0
 26 60  2  0  0  0  0
 27 28  2  0  0  0  0
 27 32  1  0  0  0  0
 27 82  1  0  0  0  0
 28 61  1  0  0  0  0
 28 65  1  0  0  0  0
 29 62  1  0  0  0  0
 29 66  1  0  0  0  0
 30 61  2  0  0  0  0
 30 68  1  0  0  0  0
 30 82  1  0  0  0  0
 31 67  1  0  0  0  0
 31 72  2  0  0  0  0
 32 55  1  0  0  0  0
 32 73  2  0  0  0  0
 33 47  1  0  0  0  0
 33 69  1  0  0  0  0
 33 74  2  0  0  0  0
 34 56  1  0  0  0  0
 34 63  1  0  0  0  0
 34 75  2  0  0  0  0
 35 57  1  0  0  0  0
 35 70  1  0  0  0  0
 35 76  2  0  0  0  0
 36 64  1  0  0  0  0
 36 68  1  0  0  0  0
 36 77  2  0  0  0  0
 37 40  1  0  0  0  0
 38 47  1  0  0  0  0
 39 63  1  0  0  0  0
 40 42  1  0  0  0  0
 41 43  1  0  0  0  0
 41 44  1  0  0  0  0
 42 46  1  0  0  0  0
 43 48  1  0  0  0  0
 44 64  1  0  0  0  0
 45 48  1  0  0  0  0
 45 64  1  0  0  0  0
 46 69  1  0  0  0  0
 47 63  1  0  0  0  0
 48 62  1  0  0  0  0
 49 57  1  0  0  0  0
 50 58  1  0  0  0  0
 51 59  1  0  0  0  0
 52 59  1  0  0  0  0
 53 59  1  0  0  0  0
 54 71  1  0  0  0  0
 55 58  1  0  0  0  0
 56 59  1  0  0  0  0
 56 70  1  0  0  0  0
 57 71  1  0  0  0  0
 58 79  1  0  0  0  0
 60 62  1  0  0  0  0
M  CHG  1  71   1
M  ISO  4  36 100  58 101  68 100  79 101
M  END
> <Batch ID>
0183

> <Smiles>
CNC(C)C(=O)NC(C(=O)N1Cc2cc([101O:1][101CH:1](C)CC(=O)c3sc([100NH:0][100C:0](=O)N4CCCC(n5nc(-c6ccc(Oc7ccc(F)cc7F)cc6)c(C(N)=O)c5N)C4)nc3N)ccc2CC1C(=O)NC1CCCc2ccccc21)C(C)(C)C

> <Shape>
0.259

> <Color>
0.089

> <Negative vol penalty>
0.000

$$$$

  -OEChem-04052304593D

 84 92  0     1  0  0  0  0  0999 V2000
  -16.7793  -29.6180   24.0403 C   0  0  0  0  0  0  0  0  0  0  0  0
  -17.9170  -30.1777   24.6126 C   0  0  0  0  0  0  0  0  0  0  0  0
  -26.2632  -13.4428   21.5718 C   0  0  0  0  0  0  0  0  0  0  0  0
  -25.0451  -14.6137   19.8448 C   0  0  0  0  0  0  0  0  0  0  0  0
  -16.9018  -28.5645   23.1353 C   0  0  0  0  0  0  0  0  0  0  0  0
  -19.1781  -29.6835   24.2811 C   0  0  0  0  0  0  0  0  0  0  0  0
  -25.9606  -31.8196   23.4142 C   0  0  0  0  0  0  0  0  0  0  0  0
  -25.4110  -12.3477   21.4303 C   0  0  0  0  0  0  0  0  0  0  0  0
  -24.1930  -13.5185   19.7033 C   0  0  0  0  0  0  0  0  0  0  0  0
  -27.2514  -31.5040   23.8358 C   0  0  0  0  0  0  0  0  0  0  0  0
  -21.5282  -12.2099   21.3212 C   0  0  0  0  0  0  0  0  0  0  0  0
  -20.1587  -12.4610   21.2372 C   0  0  0  0  0  0  0  0  0  0  0  0
  -27.3463  -29.7334   22.2002 C   0  0  0  0  0  0  0  0  0  0  0  0
  -20.1024  -11.4242   19.0557 C   0  0  0  0  0  0  0  0  0  0  0  0
  -26.0802  -14.5759   20.7791 C   0  0  0  0  0  0  0  0  0  0  0  0
  -28.1640  -15.9432   20.2351 C   0  0  0  0  0  0  0  0  0  0  0  0
  -18.1656  -28.0635   22.7851 C   0  0  0  0  0  0  0  0  0  0  0  0
  -25.3477  -31.0863   22.3881 C   0  0  0  0  0  0  0  0  0  0  0  0
  -19.3176  -28.6214   23.3716 C   0  0  0  0  0  0  0  0  0  0  0  0
  -26.0485  -30.0434   21.7656 C   0  0  0  0  0  0  0  0  0  0  0  0
  -24.3759  -12.3855   20.4961 C   0  0  0  0  0  0  0  0  0  0  0  0
  -27.9434  -30.4589   23.2308 C   0  0  0  0  0  0  0  0  0  0  0  0
  -22.1849  -11.5661   20.2724 C   0  0  0  0  0  0  0  0  0  0  0  0
  -19.4458  -12.0681   20.1045 C   0  0  0  0  0  0  0  0  0  0  0  0
  -21.4720  -11.1732   19.1397 C   0  0  0  0  0  0  0  0  0  0  0  0
  -26.9598  -15.7078   20.9251 C   0  0  0  0  0  0  0  0  0  0  0  0
  -30.0461  -25.4253   20.0800 C   0  0  0  0  0  0  0  0  0  0  0  0
  -28.6143  -17.1428   20.7297 C   0  0  0  0  0  0  0  0  0  0  0  0
  -30.3803  -24.7847   18.9053 C   0  0  0  0  0  0  0  0  0  0  0  0
  -29.0759  -23.4971   20.4683 C   0  0  0  0  0  0  0  0  0  0  0  0
  -28.8172  -15.1485   19.2363 C   0  0  0  0  0  0  0  0  0  0  0  0
  -30.4353  -26.8183   20.4174 C   0  0  0  0  0  0  0  0  0  0  0  0
  -22.7556  -29.2586   22.1770 C   0  0  0  0  0  0  0  0  0  0  0  0
  -23.5115  -29.2261   19.0227 C   0  0  0  0  0  0  0  0  0  0  0  0
  -25.9050  -29.5622   16.6134 C   0  0  0  0  0  0  0  0  0  0  0  0
  -30.2328  -28.5698   22.1469 C   0  0  0  0  0  0  0  0  0  0  0  0
  -27.7187  -22.4116   22.2921 C   0  0  0  0  0  0  0  0  0  0  0  0
  -18.2453  -26.8922   21.8383 C   0  0  0  0  0  0  0  0  0  0  0  0
  -23.9648  -31.4566   21.9266 C   0  0  0  0  0  0  0  0  0  0  0  0
  -25.4429  -29.2385   20.6458 C   0  0  0  0  0  0  0  0  0  0  0  0
  -19.6390  -26.6745   21.2547 C   0  0  0  0  0  0  0  0  0  0  0  0
  -27.0412  -19.8708   24.6926 C   0  0  0  0  0  0  0  0  0  0  0  0
  -20.6950  -26.7476   22.3530 C   0  0  0  0  0  0  0  0  0  0  0  0
  -27.0587  -18.5806   23.8697 C   0  0  0  0  0  0  0  0  0  0  0  0
  -26.4323  -21.0337   23.9112 C   0  0  0  0  0  0  0  0  0  0  0  0
  -27.0466  -19.9847   21.7684 C   0  0  0  0  0  0  0  0  0  0  0  0
  -20.7043  -28.1292   23.0183 C   0  0  1  0  0  0  0  0  0  0  0  0
  -23.2432  -30.3116   21.2225 C   0  0  1  0  0  0  0  0  0  0  0  0
  -27.7104  -18.8007   22.4904 C   0  0  2  0  0  0  0  0  0  0  0  0
  -26.2285  -29.4424   14.1277 C   0  0  0  0  0  0  0  0  0  0  0  0
  -30.6042  -28.4844   24.6280 C   0  0  0  0  0  0  0  0  0  0  0  0
  -23.4172  -26.1794   19.1596 C   0  0  0  0  0  0  0  0  0  0  0  0
  -24.6475  -26.1129   16.9801 C   0  0  0  0  0  0  0  0  0  0  0  0
  -22.3884  -27.1635   17.1036 C   0  0  0  0  0  0  0  0  0  0  0  0
  -26.7644  -32.3907   16.4722 C   0  0  0  0  0  0  0  0  0  0  0  0
  -24.3662  -28.3519   18.1371 C   0  0  1  0  0  0  0  0  0  0  0  0
  -25.9222  -30.3449   15.3128 C   0  0  2  0  0  0  0  0  0  0  0  0
  -29.6084  -28.7854   23.5191 C   0  0  1  0  0  0  0  0  0  1  0  0
  -23.7158  -26.9657   17.8675 C   0  0  0  0  0  0  0  0  0  0  0  0
  -26.6638  -16.6797   21.7922 N   0  0  0  0  0  0  0  0  0  0  0  0
  -29.2978  -24.6886   20.9774 N   0  0  0  0  0  0  0  0  0  0  0  0
  -27.6886  -17.5375   21.6503 N   0  0  0  0  0  0  0  0  0  0  0  0
  -24.0860  -29.6350   20.2345 N   0  0  0  0  0  0  0  0  0  0  0  0
  -27.1022  -21.1849   22.6177 N   0  0  0  0  0  0  0  0  0  0  0  0
  -29.7078  -17.8880   20.4626 N   0  0  0  0  0  0  0  0  0  0  0  0
  -31.0987  -25.2659   17.8611 N   0  0  0  0  0  0  0  0  0  0  0  0
  -28.2178  -13.9441   18.8434 N   0  0  0  0  0  0  0  0  0  0  0  0
  -28.3520  -22.4267   21.0498 N   0  0  0  0  0  0  0  0  0  0  0  0
  -29.9986  -27.2839   21.6564 N   0  0  0  0  0  0  0  0  0  0  0  0
  -21.3840  -29.0907   22.1768 N   0  0  0  0  0  0  0  0  0  0  0  0
  -24.6351  -29.1301   16.9327 N   0  0  0  0  0  0  0  0  0  0  0  0
  -26.9562  -31.4168   15.3669 N   0  3  0  0  0  0  0  0  0  0  0  0
  -29.9086  -15.4883   18.7196 O   0  0  0  0  0  0  0  0  0  0  0  0
  -31.0783  -27.4736   19.6017 O   0  0  0  0  0  0  0  0  0  0  0  0
  -23.5641  -28.6428   22.8619 O   0  0  0  0  0  0  0  0  0  0  0  0
  -22.3785  -29.5406   18.6496 O   0  0  0  0  0  0  0  0  0  0  0  0
  -26.9175  -29.3517   17.2775 O   0  0  0  0  0  0  0  0  0  0  0  0
  -30.8494  -29.4540   21.5570 O   0  0  0  0  0  0  0  0  0  0  0  0
  -27.7104  -23.3687   23.0704 O   0  0  0  0  0  0  0  0  0  0  0  0
  -23.5444  -11.3169   20.3576 O   0  0  0  0  0  0  0  0  0  0  0  0
  -29.2033  -30.1483   23.6409 O   0  0  0  0  0  0  0  0  0  1  0  0
  -18.1304  -12.3078   20.0247 F   0  0  0  0  0  0  0  0  0  0  0  0
  -22.0971  -10.5532   18.1294 F   0  0  0  0  0  0  0  0  0  0  0  0
  -29.7384  -23.1943   18.9145 S   0  0  0  0  0  0  0  0  0  0  0  0
  1  2  1  0  0  0  0
  1  5  2  0  0  0  0
  2  6  2  0  0  0  0
  3  8  2  0  0  0  0
  3 15  1  0  0  0  0
  4  9  1  0  0  0  0
  4 15  2  0  0  0  0
  5 17  1  0  0  0  0
  6 19  1  0  0  0  0
  7 10  2  0  0  0  0
  7 18  1  0  0  0  0
  8 21  1  0  0  0  0
  9 21  2  0  0  0  0
 10 22  1  0  0  0  0
 11 12  2  0  0  0  0
 11 23  1  0  0  0  0
 12 24  1  0  0  0  0
 13 20  1  0  0  0  0
 13 22  2  0  0  0  0
 14 24  2  0  0  0  0
 14 25  1  0  0  0  0
 15 26  1  0  0  0  0
 16 26  1  0  0  0  0
 16 28  2  0  0  0  0
 16 31  1  0  0  0  0
 17 19  2  0  0  0  0
 17 38  1  0  0  0  0
 18 20  2  0  0  0  0
 18 39  1  0  0  0  0
 19 47  1  0  0  0  0
 20 40  1  0  0  0  0
 21 80  1  0  0  0  0
 22 81  1  0  0  0  0
 23 25  2  0  0  0  0
 23 80  1  0  0  0  0
 24 82  1  0  0  0  0
 25 83  1  0  0  0  0
 26 60  2  0  0  0  0
 27 29  2  0  0  0  0
 27 32  1  0  0  0  0
 27 61  1  0  0  0  0
 28 62  1  0  0  0  0
 28 65  1  0  0  0  0
 29 66  1  0  0  0  0
 29 84  1  0  0  0  0
 30 61  2  0  0  0  0
 30 68  1  0  0  0  0
 30 84  1  0  0  0  0
 31 67  1  0  0  0  0
 31 73  2  0  0  0  0
 32 69  1  0  0  0  0
 32 74  2  0  0  0  0
 33 48  1  0  0  0  0
 33 70  1  0  0  0  0
 33 75  2  0  0  0  0
 34 56  1  0  0  0  0
 34 63  1  0  0  0  0
 34 76  2  0  0  0  0
 35 57  1  0  0  0  0
 35 71  1  0  0  0  0
 35 77  2  0  0  0  0
 36 58  1  0  0  0  0
 36 69  1  0  0  0  0
 36 78  2  0  0  0  0
 37 64  1  0  0  0  0
 37 68  1  0  0  0  0
 37 79  2  0  0  0  0
 38 41  1  0  0  0  0
 39 48  1  0  0  0  0
 40 63  1  0  0  0  0
 41 43  1  0  0  0  0
 42 44  1  0  0  0  0
 42 45  1  0  0  0  0
 43 47  1  0  0  0  0
 44 49  1  0  0  0  0
 45 64  1  0  0  0  0
 46 49  1  0  0  0  0
 46 64  1  0  0  0  0
 47 70  1  0  0  0  0
 48 63  1  0  0  0  0
 49 62  1  0  0  0  0
 50 57  1  0  0  0  0
 51 58  1  0  0  0  0
 52 59  1  0  0  0  0
 53 59  1  0  0  0  0
 54 59  1  0  0  0  0
 55 72  1  0  0  0  0
 56 59  1  0  0  0  0
 56 71  1  0  0  0  0
 57 72  1  0  0  0  0
 58 81  1  0  0  0  0
 60 62  1  0  0  0  0
M  CHG  1  72   1
M  ISO  4  37 100  58 101  68 100  81 101
M  END
> <Batch ID>
0183

> <Smiles>
CNC(C)C(=O)NC(C(=O)N1Cc2cc([101O:1][101CH:1](C)C(=O)NC(=O)c3nc([100NH:0][100C:0](=O)N4CCCC(n5nc(-c6ccc(Oc7ccc(F)cc7F)cc6)c(C(N)=O)c5N)C4)sc3N)ccc2CC1C(=O)NC1CCCc2ccccc21)C(C)(C)C

> <Shape>
0.297

> <Color>
0.099

> <Negative vol penalty>
0.000

$$$$

  -OEChem-04052304593D

 86 94  0     1  0  0  0  0  0999 V2000
  -26.6577  -38.0022   23.5754 C   0  0  0  0  0  0  0  0  0  0  0  0
  -27.0094  -37.2314   22.4719 C   0  0  0  0  0  0  0  0  0  0  0  0
  -24.7546   -8.7075   21.4957 C   0  0  0  0  0  0  0  0  0  0  0  0
  -23.1308  -10.4364   21.0361 C   0  0  0  0  0  0  0  0  0  0  0  0
  -26.4238  -37.3899   24.8060 C   0  0  0  0  0  0  0  0  0  0  0  0
  -27.1284  -35.8479   22.5987 C   0  0  0  0  0  0  0  0  0  0  0  0
  -26.1576  -29.7977   18.8881 C   0  0  0  0  0  0  0  0  0  0  0  0
  -23.8713   -8.1184   22.4004 C   0  0  0  0  0  0  0  0  0  0  0  0
  -22.2475   -9.8473   21.9407 C   0  0  0  0  0  0  0  0  0  0  0  0
  -26.8367  -28.6347   18.5272 C   0  0  0  0  0  0  0  0  0  0  0  0
  -21.1322   -6.1396   22.2782 C   0  0  0  0  0  0  0  0  0  0  0  0
  -20.9719   -4.7553   22.2197 C   0  0  0  0  0  0  0  0  0  0  0  0
  -26.3315  -27.6779   20.6833 C   0  0  0  0  0  0  0  0  0  0  0  0
  -25.6075  -19.8581   19.0137 C   0  0  0  0  0  0  0  0  0  0  0  0
  -21.7421   -4.5697   24.5021 C   0  0  0  0  0  0  0  0  0  0  0  0
  -24.3844   -9.8665   20.8136 C   0  0  0  0  0  0  0  0  0  0  0  0
  -25.4046  -10.2110   18.5010 C   0  0  0  0  0  0  0  0  0  0  0  0
  -26.5306  -35.9971   24.9456 C   0  0  0  0  0  0  0  0  0  0  0  0
  -25.5687  -29.9139   20.1554 C   0  0  0  0  0  0  0  0  0  0  0  0
  -26.8971  -35.2165   23.8326 C   0  0  0  0  0  0  0  0  0  0  0  0
  -25.6433  -28.8424   21.0568 C   0  0  0  0  0  0  0  0  0  0  0  0
  -25.5910  -18.4479   19.2165 C   0  0  0  0  0  0  0  0  0  0  0  0
  -22.6178   -8.6883   22.6229 C   0  0  0  0  0  0  0  0  0  0  0  0
  -26.9262  -27.5758   19.4259 C   0  0  0  0  0  0  0  0  0  0  0  0
  -21.5976   -6.7390   23.4486 C   0  0  0  0  0  0  0  0  0  0  0  0
  -21.2769   -3.9703   23.3317 C   0  0  0  0  0  0  0  0  0  0  0  0
  -21.9025   -5.9541   24.5606 C   0  0  0  0  0  0  0  0  0  0  0  0
  -25.2966  -10.4758   19.8794 C   0  0  0  0  0  0  0  0  0  0  0  0
  -26.4098  -11.0416   18.0695 C   0  0  0  0  0  0  0  0  0  0  0  0
  -26.8683  -20.3892   19.1739 C   0  0  0  0  0  0  0  0  0  0  0  0
  -26.8401  -17.9548   19.5238 C   0  0  0  0  0  0  0  0  0  0  0  0
  -26.8915  -25.2646   19.0683 C   0  0  0  0  0  0  0  0  0  1  0  0
  -24.6625   -9.2962   17.6836 C   0  0  0  0  0  0  0  0  0  0  0  0
  -27.4423  -24.0893   18.7412 C   0  0  0  0  0  0  0  0  0  0  0  0
  -26.5902  -22.8557   18.7620 C   0  0  0  0  0  0  0  0  0  0  0  0
  -25.9805  -31.8372   22.6524 C   0  0  0  0  0  0  0  0  0  0  0  0
  -23.3864  -30.2626   23.7987 C   0  0  0  0  0  0  0  0  0  0  0  0
  -21.4497  -27.4530   23.7551 C   0  0  0  0  0  0  0  0  0  0  0  0
  -28.5776  -16.2251   20.1034 C   0  0  0  0  0  0  0  0  0  0  0  0
  -26.3144  -35.3853   26.3071 C   0  0  0  0  0  0  0  0  0  0  0  0
  -24.8167  -31.1646   20.5194 C   0  0  0  0  0  0  0  0  0  0  0  0
  -25.0108  -28.9092   22.4221 C   0  0  0  0  0  0  0  0  0  0  0  0
  -26.0957  -33.8751   26.2684 C   0  0  0  0  0  0  0  0  0  0  0  0
  -30.3969  -13.2056   19.6037 C   0  0  0  0  0  0  0  0  0  0  0  0
  -27.1313  -33.2085   25.3685 C   0  0  0  0  0  0  0  0  0  0  0  0
  -29.3051  -12.1397   19.4862 C   0  0  0  0  0  0  0  0  0  0  0  0
  -30.0328  -14.2801   20.6268 C   0  0  0  0  0  0  0  0  0  0  0  0
  -27.6292  -13.8431   20.3089 C   0  0  0  0  0  0  0  0  0  0  0  0
  -27.0120  -33.7103   23.9244 C   0  0  1  0  0  0  0  0  0  0  0  0
  -24.6963  -31.3722   22.0260 C   0  0  1  0  0  0  0  0  0  0  0  0
  -27.9217  -12.7744   19.2431 C   0  0  2  0  0  0  0  0  0  0  0  0
  -19.4190  -26.4434   24.8296 C   0  0  0  0  0  0  0  0  0  0  0  0
  -25.0152  -29.6630   26.3082 C   0  0  0  0  0  0  0  0  0  0  0  0
  -23.3326  -27.9047   26.8959 C   0  0  0  0  0  0  0  0  0  0  0  0
  -22.6334  -30.2940   26.7365 C   0  0  0  0  0  0  0  0  0  0  0  0
  -20.0211  -27.2863   21.1686 C   0  0  0  0  0  0  0  0  0  0  0  0
  -23.1702  -29.0159   24.6221 C   0  0  1  0  0  0  0  0  0  0  0  0
  -19.9457  -27.2676   23.6651 C   0  0  2  0  0  0  0  0  0  0  0  0
  -24.3669  -17.6186   19.1071 C   0  0  0  0  0  0  0  0  0  0  0  0
  -23.5516  -29.2186   26.1157 C   0  0  0  0  0  0  0  0  0  0  0  0
  -26.1641  -11.4020   20.2960 N   0  0  0  0  0  0  0  0  0  0  0  0
  -26.8268  -11.7264   19.1728 N   0  0  0  0  0  0  0  0  0  0  0  0
  -24.2920  -30.1557   22.7336 N   0  0  0  0  0  0  0  0  0  0  0  0
  -28.7120  -14.8391   20.3307 N   0  0  0  0  0  0  0  0  0  0  0  0
  -26.9689  -11.2455   16.8578 N   0  0  0  0  0  0  0  0  0  0  0  0
  -23.6648   -8.5188   18.2876 N   0  0  0  0  0  0  0  0  0  0  0  0
  -27.3321  -21.7225   19.0660 N   0  0  0  0  0  0  0  0  0  0  0  0
  -27.2803  -16.6364   19.7990 N   0  0  0  0  0  0  0  0  0  0  0  0
  -25.8943  -33.0755   23.2594 N   0  0  0  0  0  0  0  0  0  0  0  0
  -21.7821  -28.6210   24.4081 N   0  0  0  0  0  0  0  0  0  0  0  0
  -19.5843  -26.5737   22.3967 N   0  3  0  0  0  0  0  0  0  0  0  0
  -24.8888   -9.1599   16.4574 O   0  0  0  0  0  0  0  0  0  0  0  0
  -25.3878  -22.9165   18.5286 O   0  0  0  0  0  0  0  0  0  0  0  0
  -26.9754  -31.1245   22.5909 O   0  0  0  0  0  0  0  0  0  0  0  0
  -22.7691  -31.2913   24.0855 O   0  0  0  0  0  0  0  0  0  0  0  0
  -22.2496  -26.6408   23.2957 O   0  0  0  0  0  0  0  0  0  0  0  0
  -29.5470  -16.9869   20.1469 O   0  0  0  0  0  0  0  0  0  0  0  0
  -28.7692  -23.9658   18.3824 O   0  0  0  0  0  0  0  0  0  0  0  0
  -21.7555   -8.1136   23.5054 O   0  0  0  0  0  0  0  0  0  0  0  0
  -27.5890  -26.4398   19.0765 O   0  0  0  0  0  0  0  0  0  1  0  0
  -21.1214   -2.6410   23.2759 F   0  0  0  0  0  0  0  0  0  0  0  0
  -22.3488   -6.5243   25.6882 F   0  0  0  0  0  0  0  0  0  0  0  0
  -23.2397  -18.3294   18.7910 F   0  0  0  0  0  0  0  0  0  0  0  0
  -24.4416  -16.6413   18.1506 F   0  0  0  0  0  0  0  0  0  0  0  0
  -24.0619  -16.9612   20.2677 F   0  0  0  0  0  0  0  0  0  0  0  0
  -28.0255  -19.1898   19.5671 S   0  0  0  0  0  0  0  0  0  0  0  0
  1  2  1  0  0  0  0
  1  5  2  0  0  0  0
  2  6  2  0  0  0  0
  3  8  2  0  0  0  0
  3 16  1  0  0  0  0
  4  9  1  0  0  0  0
  4 16  2  0  0  0  0
  5 18  1  0  0  0  0
  6 20  1  0  0  0  0
  7 10  2  0  0  0  0
  7 19  1  0  0  0  0
  8 23  1  0  0  0  0
  9 23  2  0  0  0  0
 10 24  1  0  0  0  0
 11 12  2  0  0  0  0
 11 25  1  0  0  0  0
 12 26  1  0  0  0  0
 13 21  1  0  0  0  0
 13 24  2  0  0  0  0
 14 22  1  0  0  0  0
 14 30  2  0  0  0  0
 15 26  2  0  0  0  0
 15 27  1  0  0  0  0
 16 28  1  0  0  0  0
 17 28  1  0  0  0  0
 17 29  2  0  0  0  0
 17 33  1  0  0  0  0
 18 20  2  0  0  0  0
 18 40  1  0  0  0  0
 19 21  2  0  0  0  0
 19 41  1  0  0  0  0
 20 49  1  0  0  0  0
 21 42  1  0  0  0  0
 22 31  2  0  0  0  0
 22 59  1  0  0  0  0
 23 79  1  0  0  0  0
 24 80  1  0  0  0  0
 25 27  2  0  0  0  0
 25 79  1  0  0  0  0
 26 81  1  0  0  0  0
 27 82  1  0  0  0  0
 28 61  2  0  0  0  0
 29 62  1  0  0  0  0
 29 65  1  0  0  0  0
 30 67  1  0  0  0  0
 30 86  1  0  0  0  0
 31 68  1  0  0  0  0
 31 86  1  0  0  0  0
 32 34  2  0  0  0  0
 32 80  1  0  0  0  0
 33 66  1  0  0  0  0
 33 72  2  0  0  0  0
 34 35  1  0  0  0  0
 34 78  1  0  0  0  0
 35 67  1  0  0  0  0
 35 73  2  0  0  0  0
 36 50  1  0  0  0  0
 36 69  1  0  0  0  0
 36 74  2  0  0  0  0
 37 57  1  0  0  0  0
 37 63  1  0  0  0  0
 37 75  2  0  0  0  0
 38 58  1  0  0  0  0
 38 70  1  0  0  0  0
 38 76  2  0  0  0  0
 39 64  1  0  0  0  0
 39 68  1  0  0  0  0
 39 77  2  0  0  0  0
 40 43  1  0  0  0  0
 41 50  1  0  0  0  0
 42 63  1  0  0  0  0
 43 45  1  0  0  0  0
 44 46  1  0  0  0  0
 44 47  1  0  0  0  0
 45 49  1  0  0  0  0
 46 51  1  0  0  0  0
 47 64  1  0  0  0  0
 48 51  1  0  0  0  0
 48 64  1  0  0  0  0
 49 69  1  0  0  0  0
 50 63  1  0  0  0  0
 51 62  1  0  0  0  0
 52 58  1  0  0  0  0
 53 60  1  0  0  0  0
 54 60  1  0  0  0  0
 55 60  1  0  0  0  0
 56 71  1  0  0  0  0
 57 60  1  0  0  0  0
 57 70  1  0  0  0  0
 58 71  1  0  0  0  0
 59 83  1  0  0  0  0
 59 84  1  0  0  0  0
 59 85  1  0  0  0  0
 61 62  1  0  0  0  0
M  CHG  1  71   1
M  ISO  4  32 101  39 100  68 100  80 101
M  END
> <Batch ID>
0183

> <Smiles>
CNC(C)C(=O)NC(C(=O)N1Cc2cc([101O:1][101CH2:1]C(=O)C(=O)Nc3cc(C(F)(F)F)c([100NH:0][100C:0](=O)N4CCCC(n5nc(-c6ccc(Oc7ccc(F)cc7F)cc6)c(C(N)=O)c5N)C4)s3)ccc2CC1C(=O)NC1CCCc2ccccc21)C(C)(C)C

> <Shape>
0.313

> <Color>
0.102

> <Negative vol penalty>
0.000

$$$$

  -OEChem-04052304593D

 85 93  0     1  0  0  0  0  0999 V2000
  -21.7919  -16.8773   24.7249 C   0  0  0  0  0  0  0  0  0  0  0  0
  -23.0741  -17.4011   24.5944 C   0  0  0  0  0  0  0  0  0  0  0  0
  -25.9963  -12.9575   21.7139 C   0  0  0  0  0  0  0  0  0  0  0  0
  -25.1260  -14.0954   19.7685 C   0  0  0  0  0  0  0  0  0  0  0  0
  -20.7204  -17.4905   24.0770 C   0  0  0  0  0  0  0  0  0  0  0  0
  -23.2857  -18.5378   23.8150 C   0  0  0  0  0  0  0  0  0  0  0  0
  -27.4312  -24.3690   23.4566 C   0  0  0  0  0  0  0  0  0  0  0  0
  -24.8207  -12.2123   21.8041 C   0  0  0  0  0  0  0  0  0  0  0  0
  -23.9503  -13.3502   19.8586 C   0  0  0  0  0  0  0  0  0  0  0  0
  -28.2583  -25.0493   22.5639 C   0  0  0  0  0  0  0  0  0  0  0  0
  -22.1946   -9.7546   22.3316 C   0  0  0  0  0  0  0  0  0  0  0  0
  -22.3116   -8.3842   22.5634 C   0  0  0  0  0  0  0  0  0  0  0  0
  -26.3195  -26.0705   21.5551 C   0  0  0  0  0  0  0  0  0  0  0  0
  -23.5733   -8.1456   20.5169 C   0  0  0  0  0  0  0  0  0  0  0  0
  -26.1490  -13.8991   20.6962 C   0  0  0  0  0  0  0  0  0  0  0  0
  -28.5282  -14.3366   19.8865 C   0  0  0  0  0  0  0  0  0  0  0  0
  -20.9174  -18.6409   23.2971 C   0  0  0  0  0  0  0  0  0  0  0  0
  -26.0390  -24.5262   23.3980 C   0  0  0  0  0  0  0  0  0  0  0  0
  -22.2160  -19.1662   23.1549 C   0  0  0  0  0  0  0  0  0  0  0  0
  -25.4771  -25.3931   22.4498 C   0  0  0  0  0  0  0  0  0  0  0  0
  -23.7977  -12.4086   20.8764 C   0  0  0  0  0  0  0  0  0  0  0  0
  -27.7023  -25.8980   21.6111 C   0  0  0  0  0  0  0  0  0  0  0  0
  -22.7668  -10.3206   21.1923 C   0  0  0  0  0  0  0  0  0  0  0  0
  -23.0010   -7.5797   21.6561 C   0  0  0  0  0  0  0  0  0  0  0  0
  -23.4562   -9.5161   20.2850 C   0  0  0  0  0  0  0  0  0  0  0  0
  -27.3629  -14.6696   20.6029 C   0  0  0  0  0  0  0  0  0  0  0  0
  -30.2564  -22.8263   16.2713 C   0  0  0  0  0  0  0  0  0  0  0  0
  -30.5556  -23.6089   17.3669 C   0  0  0  0  0  0  0  0  0  0  0  0
  -29.3841  -15.3859   20.1163 C   0  0  0  0  0  0  0  0  0  0  0  0
  -29.7574  -21.8585   18.4200 C   0  0  0  0  0  0  0  0  0  0  0  0
  -28.8115  -13.1821   19.0850 C   0  0  0  0  0  0  0  0  0  0  0  0
  -30.4173  -23.0772   14.8770 C   0  0  0  0  0  0  0  0  0  0  0  0
  -23.5836  -22.5847   22.8452 C   0  0  0  0  0  0  0  0  0  0  0  0
  -30.1375  -26.3151   18.9639 C   0  0  0  0  0  0  0  0  0  0  0  0
  -21.8383  -25.2089   23.6133 C   0  0  0  0  0  0  0  0  0  0  0  0
  -21.6676  -28.6096   23.8423 C   0  0  0  0  0  0  0  0  0  0  0  0
  -29.3518  -21.1217   20.7947 C   0  0  0  0  0  0  0  0  0  0  0  0
  -19.7357  -19.2412   22.5774 C   0  0  0  0  0  0  0  0  0  0  0  0
  -25.1623  -23.8059   24.3855 C   0  0  0  0  0  0  0  0  0  0  0  0
  -23.9898  -25.6121   22.3587 C   0  0  0  0  0  0  0  0  0  0  0  0
  -19.9858  -20.6605   22.0740 C   0  0  0  0  0  0  0  0  0  0  0  0
  -29.7211  -18.9171   23.5660 C   0  0  0  0  0  0  0  0  0  0  0  0
  -21.3381  -20.7479   21.3736 C   0  0  0  0  0  0  0  0  0  0  0  0
  -29.2650  -17.5638   23.0160 C   0  0  0  0  0  0  0  0  0  0  0  0
  -28.8930  -20.0684   22.9981 C   0  0  0  0  0  0  0  0  0  0  0  0
  -28.3561  -18.7577   20.9824 C   0  0  0  0  0  0  0  0  0  0  0  0
  -22.4818  -20.4122   22.3383 C   0  0  1  0  0  0  0  0  0  0  0  0
  -23.7247  -23.6442   23.9013 C   0  0  1  0  0  0  0  0  0  0  0  0
  -29.2030  -17.5733   21.4760 C   0  0  2  0  0  0  0  0  0  0  0  0
  -32.4206  -26.7650   18.0404 C   0  0  0  0  0  0  0  0  0  0  0  0
  -20.0982  -30.4656   24.4665 C   0  0  0  0  0  0  0  0  0  0  0  0
  -20.3635  -24.8486   20.9665 C   0  0  0  0  0  0  0  0  0  0  0  0
  -19.5187  -27.1940   21.1981 C   0  0  0  0  0  0  0  0  0  0  0  0
  -18.9031  -25.4750   22.8977 C   0  0  0  0  0  0  0  0  0  0  0  0
  -23.4449  -29.5366   26.0196 C   0  0  0  0  0  0  0  0  0  0  0  0
  -29.7341  -25.9304   20.3756 C   0  0  0  0  0  0  0  0  0  1  0  0
  -31.4214  -25.6907   18.4355 C   0  0  2  0  0  0  0  0  0  0  0  0
  -21.2653  -26.3745   22.8439 C   0  0  1  0  0  0  0  0  0  0  0  0
  -21.1850  -29.5212   24.9561 C   0  0  2  0  0  0  0  0  0  0  0  0
  -20.0406  -25.9676   21.9767 C   0  0  0  0  0  0  0  0  0  0  0  0
  -27.4659  -15.8389   21.2401 N   0  0  0  0  0  0  0  0  0  0  0  0
  -30.2698  -23.0557   18.5998 N   0  0  0  0  0  0  0  0  0  0  0  0
  -28.7060  -16.2498   20.9251 N   0  0  0  0  0  0  0  0  0  0  0  0
  -23.1741  -24.8805   23.3420 N   0  0  0  0  0  0  0  0  0  0  0  0
  -28.8830  -20.0155   21.5345 N   0  0  0  0  0  0  0  0  0  0  0  0
  -30.6431  -15.6447   19.7035 N   0  0  0  0  0  0  0  0  0  0  0  0
  -27.8205  -12.1996   18.9546 N   0  0  0  0  0  0  0  0  0  0  0  0
  -30.0212  -22.0871   13.9618 N   0  0  0  0  0  0  0  0  0  0  0  0
  -31.1097  -24.8746   17.2827 N   0  0  0  0  0  0  0  0  0  0  0  0
  -29.3249  -20.9437   19.4119 N   0  0  0  0  0  0  0  0  0  0  0  0
  -22.7578  -21.5372   23.2059 N   0  0  0  0  0  0  0  0  0  0  0  0
  -20.9819  -27.4135   23.8281 N   0  0  0  0  0  0  0  0  0  0  0  0
  -22.3147  -30.3378   25.4833 N   0  3  0  0  0  0  0  0  0  0  0  0
  -29.9169  -13.0185   18.5150 O   0  0  0  0  0  0  0  0  0  0  0  0
  -30.9157  -24.1450   14.4346 O   0  0  0  0  0  0  0  0  0  0  0  0
  -24.1788  -22.7092   21.7812 O   0  0  0  0  0  0  0  0  0  0  0  0
  -29.4634  -27.0975   18.2934 O   0  0  0  0  0  0  0  0  0  0  0  0
  -21.1290  -24.6162   24.4302 O   0  0  0  0  0  0  0  0  0  0  0  0
  -22.5608  -28.9284   23.0606 O   0  0  0  0  0  0  0  0  0  0  0  0
  -29.7733  -22.1407   21.3478 O   0  0  0  0  0  0  0  0  0  0  0  0
  -22.6504  -11.6814   20.9639 O   0  0  0  0  0  0  0  0  0  0  0  0
  -28.5073  -26.5627   20.7382 O   0  0  0  0  0  0  0  0  0  1  0  0
  -23.1146   -6.2639   21.8797 F   0  0  0  0  0  0  0  0  0  0  0  0
  -24.0091  -10.0543   19.1893 F   0  0  0  0  0  0  0  0  0  0  0  0
  -29.5915  -21.3345   16.7944 S   0  0  0  0  0  0  0  0  0  0  0  0
  1  2  1  0  0  0  0
  1  5  2  0  0  0  0
  2  6  2  0  0  0  0
  3  8  2  0  0  0  0
  3 15  1  0  0  0  0
  4  9  1  0  0  0  0
  4 15  2  0  0  0  0
  5 17  1  0  0  0  0
  6 19  1  0  0  0  0
  7 10  2  0  0  0  0
  7 18  1  0  0  0  0
  8 21  1  0  0  0  0
  9 21  2  0  0  0  0
 10 22  1  0  0  0  0
 11 12  2  0  0  0  0
 11 23  1  0  0  0  0
 12 24  1  0  0  0  0
 13 20  1  0  0  0  0
 13 22  2  0  0  0  0
 14 24  2  0  0  0  0
 14 25  1  0  0  0  0
 15 26  1  0  0  0  0
 16 26  1  0  0  0  0
 16 29  2  0  0  0  0
 16 31  1  0  0  0  0
 17 19  2  0  0  0  0
 17 38  1  0  0  0  0
 18 20  2  0  0  0  0
 18 39  1  0  0  0  0
 19 47  1  0  0  0  0
 20 40  1  0  0  0  0
 21 81  1  0  0  0  0
 22 82  1  0  0  0  0
 23 25  2  0  0  0  0
 23 81  1  0  0  0  0
 24 83  1  0  0  0  0
 25 84  1  0  0  0  0
 26 61  2  0  0  0  0
 27 28  2  0  0  0  0
 27 32  1  0  0  0  0
 27 85  1  0  0  0  0
 28 62  1  0  0  0  0
 28 69  1  0  0  0  0
 29 63  1  0  0  0  0
 29 66  1  0  0  0  0
 30 62  2  0  0  0  0
 30 70  1  0  0  0  0
 30 85  1  0  0  0  0
 31 67  1  0  0  0  0
 31 74  2  0  0  0  0
 32 68  1  0  0  0  0
 32 75  2  0  0  0  0
 33 48  1  0  0  0  0
 33 71  1  0  0  0  0
 33 76  2  0  0  0  0
 34 56  1  0  0  0  0
 34 57  1  0  0  0  0
 34 77  2  0  0  0  0
 35 58  1  0  0  0  0
 35 64  1  0  0  0  0
 35 78  2  0  0  0  0
 36 59  1  0  0  0  0
 36 72  1  0  0  0  0
 36 79  2  0  0  0  0
 37 65  1  0  0  0  0
 37 70  1  0  0  0  0
 37 80  2  0  0  0  0
 38 41  1  0  0  0  0
 39 48  1  0  0  0  0
 40 64  1  0  0  0  0
 41 43  1  0  0  0  0
 42 44  1  0  0  0  0
 42 45  1  0  0  0  0
 43 47  1  0  0  0  0
 44 49  1  0  0  0  0
 45 65  1  0  0  0  0
 46 49  1  0  0  0  0
 46 65  1  0  0  0  0
 47 71  1  0  0  0  0
 48 64  1  0  0  0  0
 49 63  1  0  0  0  0
 50 57  1  0  0  0  0
 51 59  1  0  0  0  0
 52 60  1  0  0  0  0
 53 60  1  0  0  0  0
 54 60  1  0  0  0  0
 55 73  1  0  0  0  0
 56 82  1  0  0  0  0
 57 69  1  0  0  0  0
 58 60  1  0  0  0  0
 58 72  1  0  0  0  0
 59 73  1  0  0  0  0
 61 63  1  0  0  0  0
M  CHG  1  73   1
M  ISO  4  37 100  56 101  70 100  82 101
M  END
> <Batch ID>
0183

> <Smiles>
CNC(C)C(=O)NC(C(=O)N1Cc2cc([101O:1][101CH2:1]C(=O)C(C)Nc3nc([100NH:0][100C:0](=O)N4CCCC(n5nc(-c6ccc(Oc7ccc(F)cc7F)cc6)c(C(N)=O)c5N)C4)sc3C(N)=O)ccc2CC1C(=O)NC1CCCc2ccccc21)C(C)(C)C

> <Shape>
0.235

> <Color>
0.050

> <Negative vol penalty>
0.000

$$$$

  -OEChem-04052304593D

 83 91  0     1  0  0  0  0  0999 V2000
  -19.8485  -34.3342   22.3464 C   0  0  0  0  0  0  0  0  0  0  0  0
  -21.0924  -33.9225   21.8787 C   0  0  0  0  0  0  0  0  0  0  0  0
  -26.1337  -12.8190   21.7185 C   0  0  0  0  0  0  0  0  0  0  0  0
  -25.9035  -13.6300   19.4543 C   0  0  0  0  0  0  0  0  0  0  0  0
  -19.1629  -33.5558   23.2781 C   0  0  0  0  0  0  0  0  0  0  0  0
  -21.6518  -32.7327   22.3431 C   0  0  0  0  0  0  0  0  0  0  0  0
  -25.1249  -28.8122   19.1693 C   0  0  0  0  0  0  0  0  0  0  0  0
  -24.9400  -12.1097   21.5859 C   0  0  0  0  0  0  0  0  0  0  0  0
  -24.7098  -12.9207   19.3217 C   0  0  0  0  0  0  0  0  0  0  0  0
  -26.5050  -28.6279   19.0973 C   0  0  0  0  0  0  0  0  0  0  0  0
  -23.9056   -9.2156   20.1763 C   0  0  0  0  0  0  0  0  0  0  0  0
  -23.8787   -7.8997   20.6380 C   0  0  0  0  0  0  0  0  0  0  0  0
  -26.3506  -26.8735   20.7459 C   0  0  0  0  0  0  0  0  0  0  0  0
  -22.1125   -8.4774   22.1820 C   0  0  0  0  0  0  0  0  0  0  0  0
  -26.6155  -13.5792   20.6527 C   0  0  0  0  0  0  0  0  0  0  0  0
  -29.1465  -13.8555   20.4934 C   0  0  0  0  0  0  0  0  0  0  0  0
  -19.7098  -32.3510   23.7470 C   0  0  0  0  0  0  0  0  0  0  0  0
  -24.3474  -28.0347   20.0396 C   0  0  0  0  0  0  0  0  0  0  0  0
  -20.9734  -31.9381   23.2829 C   0  0  0  0  0  0  0  0  0  0  0  0
  -24.9605  -27.0482   20.8252 C   0  0  0  0  0  0  0  0  0  0  0  0
  -24.2281  -12.1606   20.3875 C   0  0  0  0  0  0  0  0  0  0  0  0
  -27.1184  -27.6604   19.8878 C   0  0  0  0  0  0  0  0  0  0  0  0
  -23.0360  -10.1625   20.7175 C   0  0  0  0  0  0  0  0  0  0  0  0
  -22.9822   -7.5305   21.6408 C   0  0  0  0  0  0  0  0  0  0  0  0
  -22.1394   -9.7934   21.7203 C   0  0  0  0  0  0  0  0  0  0  0  0
  -27.8482  -14.3125   20.7893 C   0  0  0  0  0  0  0  0  0  0  0  0
  -29.2498  -23.3789   17.4270 C   0  0  0  0  0  0  0  0  0  0  0  0
  -29.9614  -14.9203   20.7911 C   0  0  0  0  0  0  0  0  0  0  0  0
  -28.8693  -22.5385   16.4018 C   0  0  0  0  0  0  0  0  0  0  0  0
  -28.9128  -21.5577   18.6014 C   0  0  0  0  0  0  0  0  0  0  0  0
  -29.5772  -12.5824   19.9941 C   0  0  0  0  0  0  0  0  0  0  0  0
  -29.6202  -24.8067   17.2496 C   0  0  0  0  0  0  0  0  0  0  0  0
  -22.4894  -28.6505   22.5441 C   0  0  0  0  0  0  0  0  0  0  0  0
  -21.8059  -25.4872   22.3220 C   0  0  0  0  0  0  0  0  0  0  0  0
  -22.7626  -22.3830   21.2753 C   0  0  0  0  0  0  0  0  0  0  0  0
  -29.0514  -20.8221   21.0068 C   0  0  0  0  0  0  0  0  0  0  0  0
  -18.9527  -31.5672   24.7895 C   0  0  0  0  0  0  0  0  0  0  0  0
  -22.8564  -28.2277   20.0859 C   0  0  0  0  0  0  0  0  0  0  0  0
  -24.1680  -26.1736   21.7608 C   0  0  0  0  0  0  0  0  0  0  0  0
  -19.4460  -30.1314   24.9495 C   0  0  0  0  0  0  0  0  0  0  0  0
  -30.2233  -18.7500   23.6545 C   0  0  0  0  0  0  0  0  0  0  0  0
  -20.9688  -30.0961   25.0301 C   0  0  0  0  0  0  0  0  0  0  0  0
  -29.8708  -17.3348   23.1905 C   0  0  0  0  0  0  0  0  0  0  0  0
  -29.1521  -19.7620   23.2521 C   0  0  0  0  0  0  0  0  0  0  0  0
  -28.4498  -18.3467   21.3619 C   0  0  0  0  0  0  0  0  0  0  0  0
  -21.6021  -30.6412   23.7443 C   0  0  1  0  0  0  0  0  0  0  0  0
  -22.2296  -27.7304   21.3849 C   0  0  1  0  0  0  0  0  0  0  0  0
  -29.5306  -17.3029   21.6876 C   0  0  2  0  0  0  0  0  0  0  0  0
  -22.0130  -19.9881   21.2700 C   0  0  0  0  0  0  0  0  0  0  0  0
  -31.3612  -27.1615   19.4905 C   0  0  0  0  0  0  0  0  0  0  0  0
  -22.5772  -25.2418   25.2639 C   0  0  0  0  0  0  0  0  0  0  0  0
  -22.7295  -22.7632   24.9452 C   0  0  0  0  0  0  0  0  0  0  0  0
  -20.5521  -23.9314   24.6035 C   0  0  0  0  0  0  0  0  0  0  0  0
  -22.7090  -22.2852   18.3179 C   0  0  0  0  0  0  0  0  0  0  0  0
  -29.0969  -27.7622   18.5720 C   0  0  0  0  0  0  0  0  0  1  0  0
  -22.3960  -24.2229   22.8985 C   0  0  1  0  0  0  0  0  0  0  0  0
  -22.0182  -21.3047   20.5088 C   0  0  2  0  0  0  0  0  0  0  0  0
  -30.3361  -26.8861   18.3982 C   0  0  2  0  0  0  0  0  0  0  0  0
  -22.0792  -24.0575   24.4117 C   0  0  0  0  0  0  0  0  0  0  0  0
  -27.8344  -15.5696   21.2405 N   0  0  0  0  0  0  0  0  0  0  0  0
  -29.2749  -22.8183   18.6891 N   0  0  0  0  0  0  0  0  0  0  0  0
  -29.1340  -15.9116   21.2304 N   0  0  0  0  0  0  0  0  0  0  0  0
  -22.7141  -26.4048   21.7750 N   0  0  0  0  0  0  0  0  0  0  0  0
  -28.8851  -19.6773   21.8146 N   0  0  0  0  0  0  0  0  0  0  0  0
  -31.2979  -15.0960   20.7173 N   0  0  0  0  0  0  0  0  0  0  0  0
  -28.7578  -22.8221   15.0807 N   0  0  0  0  0  0  0  0  0  0  0  0
  -28.6087  -11.6012   19.7419 N   0  0  0  0  0  0  0  0  0  0  0  0
  -28.8002  -20.6127   19.6512 N   0  0  0  0  0  0  0  0  0  0  0  0
  -29.9747  -25.4867   18.4038 N   0  0  0  0  0  0  0  0  0  0  0  0
  -21.5453  -29.6485   22.6927 N   0  0  0  0  0  0  0  0  0  0  0  0
  -21.9119  -23.1289   22.0636 N   0  0  0  0  0  0  0  0  0  0  0  0
  -22.6572  -21.0777   19.1817 N   0  3  0  0  0  0  0  0  0  0  0  0
  -30.7867  -12.3171   19.7935 O   0  0  0  0  0  0  0  0  0  0  0  0
  -29.5751  -25.3032   16.1271 O   0  0  0  0  0  0  0  0  0  0  0  0
  -23.4726  -28.4674   23.2522 O   0  0  0  0  0  0  0  0  0  0  0  0
  -20.5837  -25.6514   22.3493 O   0  0  0  0  0  0  0  0  0  0  0  0
  -23.9777  -22.5449   21.1868 O   0  0  0  0  0  0  0  0  0  0  0  0
  -29.4180  -21.9015   21.4786 O   0  0  0  0  0  0  0  0  0  0  0  0
  -23.0633  -11.4684   20.2576 O   0  0  0  0  0  0  0  0  0  0  0  0
  -28.4654  -27.4788   19.8199 O   0  0  0  0  0  0  0  0  0  1  0  0
  -22.9554   -6.2664   22.0829 F   0  0  0  0  0  0  0  0  0  0  0  0
  -21.3008  -10.6983   22.2433 F   0  0  0  0  0  0  0  0  0  0  0  0
  -28.5287  -20.9802   17.0317 S   0  0  0  0  0  0  0  0  0  0  0  0
  1  2  1  0  0  0  0
  1  5  2  0  0  0  0
  2  6  2  0  0  0  0
  3  8  2  0  0  0  0
  3 15  1  0  0  0  0
  4  9  1  0  0  0  0
  4 15  2  0  0  0  0
  5 17  1  0  0  0  0
  6 19  1  0  0  0  0
  7 10  2  0  0  0  0
  7 18  1  0  0  0  0
  8 21  1  0  0  0  0
  9 21  2  0  0  0  0
 10 22  1  0  0  0  0
 11 12  2  0  0  0  0
 11 23  1  0  0  0  0
 12 24  1  0  0  0  0
 13 20  1  0  0  0  0
 13 22  2  0  0  0  0
 14 24  2  0  0  0  0
 14 25  1  0  0  0  0
 15 26  1  0  0  0  0
 16 26  1  0  0  0  0
 16 28  2  0  0  0  0
 16 31  1  0  0  0  0
 17 19  2  0  0  0  0
 17 37  1  0  0  0  0
 18 20  2  0  0  0  0
 18 38  1  0  0  0  0
 19 46  1  0  0  0  0
 20 39  1  0  0  0  0
 21 79  1  0  0  0  0
 22 80  1  0  0  0  0
 23 25  2  0  0  0  0
 23 79  1  0  0  0  0
 24 81  1  0  0  0  0
 25 82  1  0  0  0  0
 26 60  2  0  0  0  0
 27 29  2  0  0  0  0
 27 32  1  0  0  0  0
 27 61  1  0  0  0  0
 28 62  1  0  0  0  0
 28 65  1  0  0  0  0
 29 66  1  0  0  0  0
 29 83  1  0  0  0  0
 30 61  2  0  0  0  0
 30 68  1  0  0  0  0
 30 83  1  0  0  0  0
 31 67  1  0  0  0  0
 31 73  2  0  0  0  0
 32 69  1  0  0  0  0
 32 74  2  0  0  0  0
 33 47  1  0  0  0  0
 33 70  1  0  0  0  0
 33 75  2  0  0  0  0
 34 56  1  0  0  0  0
 34 63  1  0  0  0  0
 34 76  2  0  0  0  0
 35 57  1  0  0  0  0
 35 71  1  0  0  0  0
 35 77  2  0  0  0  0
 36 64  1  0  0  0  0
 36 68  1  0  0  0  0
 36 78  2  0  0  0  0
 37 40  1  0  0  0  0
 38 47  1  0  0  0  0
 39 63  1  0  0  0  0
 40 42  1  0  0  0  0
 41 43  1  0  0  0  0
 41 44  1  0  0  0  0
 42 46  1  0  0  0  0
 43 48  1  0  0  0  0
 44 64  1  0  0  0  0
 45 48  1  0  0  0  0
 45 64  1  0  0  0  0
 46 70  1  0  0  0  0
 47 63  1  0  0  0  0
 48 62  1  0  0  0  0
 49 57  1  0  0  0  0
 50 58  1  0  0  0  0
 51 59  1  0  0  0  0
 52 59  1  0  0  0  0
 53 59  1  0  0  0  0
 54 72  1  0  0  0  0
 55 58  1  0  0  0  0
 55 80  1  0  0  0  0
 56 59  1  0  0  0  0
 56 71  1  0  0  0  0
 57 72  1  0  0  0  0
 58 69  1  0  0  0  0
 60 62  1  0  0  0  0
M  CHG  1  72   1
M  ISO  4  36 100  55 101  68 100  80 101
M  END
> <Batch ID>
0183

> <Smiles>
CNC(C)C(=O)NC(C(=O)N1Cc2cc([101O:1][101CH2:1]C(C)NC(=O)c3nc([100NH:0][100C:0](=O)N4CCCC(n5nc(-c6ccc(Oc7ccc(F)cc7F)cc6)c(C(N)=O)c5N)C4)sc3N)ccc2CC1C(=O)NC1CCCc2ccccc21)C(C)(C)C

> <Shape>
0.264

> <Color>
0.114

> <Negative vol penalty>
0.000

$$$$

  -OEChem-04052304593D

 84 92  0     1  0  0  0  0  0999 V2000
  -20.5380  -31.2343   22.0278 C   0  0  0  0  0  0  0  0  0  0  0  0
  -21.7514  -30.5568   21.9641 C   0  0  0  0  0  0  0  0  0  0  0  0
  -26.1068  -13.1140   20.6079 C   0  0  0  0  0  0  0  0  0  0  0  0
  -24.2399  -14.6361   20.4211 C   0  0  0  0  0  0  0  0  0  0  0  0
  -19.3584  -30.5288   22.2614 C   0  0  0  0  0  0  0  0  0  0  0  0
  -21.7860  -29.1734   22.1351 C   0  0  0  0  0  0  0  0  0  0  0  0
  -24.7330  -26.8672   18.7231 C   0  0  0  0  0  0  0  0  0  0  0  0
  -25.2763  -12.1694   21.2109 C   0  0  0  0  0  0  0  0  0  0  0  0
  -23.4094  -13.6914   21.0240 C   0  0  0  0  0  0  0  0  0  0  0  0
  -26.1105  -26.9202   18.9320 C   0  0  0  0  0  0  0  0  0  0  0  0
  -22.9538   -9.9125   20.2388 C   0  0  0  0  0  0  0  0  0  0  0  0
  -23.0491   -8.5917   19.8005 C   0  0  0  0  0  0  0  0  0  0  0  0
  -26.0520  -24.6876   19.8437 C   0  0  0  0  0  0  0  0  0  0  0  0
  -23.6620   -7.8956   22.0314 C   0  0  0  0  0  0  0  0  0  0  0  0
  -25.5886  -14.3474   20.2130 C   0  0  0  0  0  0  0  0  0  0  0  0
  -26.7055  -15.4735   18.2151 C   0  0  0  0  0  0  0  0  0  0  0  0
  -19.3774  -29.1348   22.4257 C   0  0  0  0  0  0  0  0  0  0  0  0
  -24.0019  -25.7262   19.0836 C   0  0  0  0  0  0  0  0  0  0  0  0
  -20.6057  -28.4486   22.3725 C   0  0  0  0  0  0  0  0  0  0  0  0
  -24.6658  -24.6216   19.6360 C   0  0  0  0  0  0  0  0  0  0  0  0
  -23.9276  -12.4581   21.4190 C   0  0  0  0  0  0  0  0  0  0  0  0
  -26.7698  -25.8314   19.4950 C   0  0  0  0  0  0  0  0  0  0  0  0
  -23.2127  -10.2248   21.5734 C   0  0  0  0  0  0  0  0  0  0  0  0
  -23.4031   -7.5833   20.6968 C   0  0  0  0  0  0  0  0  0  0  0  0
  -23.5668   -9.2164   22.4696 C   0  0  0  0  0  0  0  0  0  0  0  0
  -26.4461  -15.3238   19.5906 C   0  0  0  0  0  0  0  0  0  0  0  0
  -29.4393  -24.5625   16.3722 C   0  0  0  0  0  0  0  0  0  0  0  0
  -27.5759  -16.5336   18.1432 C   0  0  0  0  0  0  0  0  0  0  0  0
  -28.6343  -24.0265   15.3889 C   0  0  0  0  0  0  0  0  0  0  0  0
  -28.7915  -22.7519   17.4268 C   0  0  0  0  0  0  0  0  0  0  0  0
  -26.2045  -14.7216   17.1018 C   0  0  0  0  0  0  0  0  0  0  0  0
  -21.6403  -25.1279   21.1255 C   0  0  0  0  0  0  0  0  0  0  0  0
  -30.2706  -26.0945   18.6200 C   0  0  0  0  0  0  0  0  0  0  0  0
  -21.7128  -22.1934   19.7449 C   0  0  0  0  0  0  0  0  0  0  0  0
  -23.4927  -19.8441   18.0246 C   0  0  0  0  0  0  0  0  0  0  0  0
  -29.1534  -21.6523   19.6643 C   0  0  0  0  0  0  0  0  0  0  0  0
  -18.0824  -28.4212   22.7232 C   0  0  0  0  0  0  0  0  0  0  0  0
  -22.5206  -25.6746   18.8272 C   0  0  0  0  0  0  0  0  0  0  0  0
  -23.9298  -23.3654   20.0217 C   0  0  0  0  0  0  0  0  0  0  0  0
  -18.1592  -26.9101   22.5207 C   0  0  0  0  0  0  0  0  0  0  0  0
  -30.1186  -18.9605   21.7856 C   0  0  0  0  0  0  0  0  0  0  0  0
  -19.4214  -26.3483   23.1672 C   0  0  0  0  0  0  0  0  0  0  0  0
  -29.2705  -17.7867   21.2905 C   0  0  0  0  0  0  0  0  0  0  0  0
  -29.3506  -20.2798   21.7264 C   0  0  0  0  0  0  0  0  0  0  0  0
  -27.9053  -19.4187   19.9267 C   0  0  0  0  0  0  0  0  0  0  0  0
  -20.6811  -26.9453   22.5282 C   0  0  1  0  0  0  0  0  0  0  0  0
  -21.7970  -24.6594   19.7064 C   0  0  1  0  0  0  0  0  0  0  0  0
  -28.6580  -18.0783   19.9065 C   0  0  2  0  0  0  0  0  0  0  0  0
  -23.2959  -17.5306   17.0724 C   0  0  0  0  0  0  0  0  0  0  0  0
  -31.1622  -27.8003   16.9644 C   0  0  0  0  0  0  0  0  0  0  0  0
  -32.3101  -25.5755   17.2615 C   0  0  0  0  0  0  0  0  0  0  0  0
  -21.9848  -21.0192   22.5480 C   0  0  0  0  0  0  0  0  0  0  0  0
  -22.7273  -18.8701   21.5001 C   0  0  0  0  0  0  0  0  0  0  0  0
  -20.4437  -19.7592   21.0341 C   0  0  0  0  0  0  0  0  0  0  0  0
  -23.9871  -20.8099   15.2711 C   0  0  0  0  0  0  0  0  0  0  0  0
  -28.8798  -26.6811   18.8008 C   0  0  0  0  0  0  0  0  0  1  0  0
  -22.4522  -20.9045   20.0114 C   0  0  1  0  0  0  0  0  0  0  0  0
  -23.1492  -19.0191   16.7975 C   0  0  2  0  0  0  0  0  0  0  0  0
  -30.9717  -26.3150   17.2699 C   0  0  0  0  0  0  0  0  0  0  0  0
  -21.9159  -20.1625   21.2680 C   0  0  0  0  0  0  0  0  0  0  0  0
  -27.0989  -16.2172   20.3387 N   0  0  0  0  0  0  0  0  0  0  0  0
  -29.5303  -23.8332   17.5416 N   0  0  0  0  0  0  0  0  0  0  0  0
  -27.7773  -16.9384   19.4300 N   0  0  0  0  0  0  0  0  0  0  0  0
  -22.4816  -23.3659   19.7570 N   0  0  0  0  0  0  0  0  0  0  0  0
  -28.8028  -20.4909   20.3847 N   0  0  0  0  0  0  0  0  0  0  0  0
  -28.1811  -17.1496   17.1056 N   0  0  0  0  0  0  0  0  0  0  0  0
  -25.3188  -13.6650   17.3535 N   0  0  0  0  0  0  0  0  0  0  0  0
  -30.1251  -25.7516   16.2305 N   0  0  0  0  0  0  0  0  0  0  0  0
  -28.5979  -21.7285   18.3875 N   0  0  0  0  0  0  0  0  0  0  0  0
  -20.9470  -26.3165   21.2522 N   0  0  0  0  0  0  0  0  0  0  0  0
  -22.3740  -20.1269   18.7795 N   0  0  0  0  0  0  0  0  0  0  0  0
  -24.0472  -19.3784   15.6637 N   0  3  0  0  0  0  0  0  0  0  0  0
  -26.5454  -14.9687   15.9202 O   0  0  0  0  0  0  0  0  0  0  0  0
  -22.1122  -24.4597   22.0379 O   0  0  0  0  0  0  0  0  0  0  0  0
  -30.8220  -25.4907   19.5434 O   0  0  0  0  0  0  0  0  0  0  0  0
  -20.4992  -22.1604   19.5268 O   0  0  0  0  0  0  0  0  0  0  0  0
  -24.6393  -20.1987   18.2892 O   0  0  0  0  0  0  0  0  0  0  0  0
  -29.9139  -22.5026   20.1341 O   0  0  0  0  0  0  0  0  0  0  0  0
  -23.1169  -11.5364   22.0071 O   0  0  0  0  0  0  0  0  0  0  0  0
  -28.1141  -25.8808   19.7006 O   0  0  0  0  0  0  0  0  0  1  0  0
  -23.4931   -6.3148   20.2761 F   0  0  0  0  0  0  0  0  0  0  0  0
  -23.8155   -9.5102   23.7533 F   0  0  0  0  0  0  0  0  0  0  0  0
  -28.4090  -24.5683   14.1888 F   0  0  0  0  0  0  0  0  0  0  0  0
  -27.9604  -22.5485   15.9392 S   0  0  0  0  0  0  0  0  0  0  0  0
  1  2  1  0  0  0  0
  1  5  2  0  0  0  0
  2  6  2  0  0  0  0
  3  8  2  0  0  0  0
  3 15  1  0  0  0  0
  4  9  1  0  0  0  0
  4 15  2  0  0  0  0
  5 17  1  0  0  0  0
  6 19  1  0  0  0  0
  7 10  2  0  0  0  0
  7 18  1  0  0  0  0
  8 21  1  0  0  0  0
  9 21  2  0  0  0  0
 10 22  1  0  0  0  0
 11 12  2  0  0  0  0
 11 23  1  0  0  0  0
 12 24  1  0  0  0  0
 13 20  1  0  0  0  0
 13 22  2  0  0  0  0
 14 24  2  0  0  0  0
 14 25  1  0  0  0  0
 15 26  1  0  0  0  0
 16 26  1  0  0  0  0
 16 28  2  0  0  0  0
 16 31  1  0  0  0  0
 17 19  2  0  0  0  0
 17 37  1  0  0  0  0
 18 20  2  0  0  0  0
 18 38  1  0  0  0  0
 19 46  1  0  0  0  0
 20 39  1  0  0  0  0
 21 79  1  0  0  0  0
 22 80  1  0  0  0  0
 23 25  2  0  0  0  0
 23 79  1  0  0  0  0
 24 81  1  0  0  0  0
 25 82  1  0  0  0  0
 26 61  2  0  0  0  0
 27 29  2  0  0  0  0
 27 62  1  0  0  0  0
 27 68  1  0  0  0  0
 28 63  1  0  0  0  0
 28 66  1  0  0  0  0
 29 83  1  0  0  0  0
 29 84  1  0  0  0  0
 30 62  2  0  0  0  0
 30 69  1  0  0  0  0
 30 84  1  0  0  0  0
 31 67  1  0  0  0  0
 31 73  2  0  0  0  0
 32 47  1  0  0  0  0
 32 70  1  0  0  0  0
 32 74  2  0  0  0  0
 33 56  1  0  0  0  0
 33 59  1  0  0  0  0
 33 75  2  0  0  0  0
 34 57  1  0  0  0  0
 34 64  1  0  0  0  0
 34 76  2  0  0  0  0
 35 58  1  0  0  0  0
 35 71  1  0  0  0  0
 35 77  2  0  0  0  0
 36 65  1  0  0  0  0
 36 69  1  0  0  0  0
 36 78  2  0  0  0  0
 37 40  1  0  0  0  0
 38 47  1  0  0  0  0
 39 64  1  0  0  0  0
 40 42  1  0  0  0  0
 41 43  1  0  0  0  0
 41 44  1  0  0  0  0
 42 46  1  0  0  0  0
 43 48  1  0  0  0  0
 44 65  1  0  0  0  0
 45 48  1  0  0  0  0
 45 65  1  0  0  0  0
 46 70  1  0  0  0  0
 47 64  1  0  0  0  0
 48 63  1  0  0  0  0
 49 58  1  0  0  0  0
 50 59  1  0  0  0  0
 51 59  1  0  0  0  0
 52 60  1  0  0  0  0
 53 60  1  0  0  0  0
 54 60  1  0  0  0  0
 55 72  1  0  0  0  0
 56 80  1  0  0  0  0
 57 60  1  0  0  0  0
 57 71  1  0  0  0  0
 58 72  1  0  0  0  0
 59 68  1  0  0  0  0
 61 63  1  0  0  0  0
M  CHG  1  72   1
M  ISO  4  36 100  56 101  69 100  80 101
M  END
> <Batch ID>
0183

> <Smiles>
CNC(C)C(=O)NC(C(=O)N1Cc2cc([101O:1][101CH2:1]C(=O)C(C)(C)Nc3nc([100NH:0][100C:0](=O)N4CCCC(n5nc(-c6ccc(Oc7ccc(F)cc7F)cc6)c(C(N)=O)c5N)C4)sc3F)ccc2CC1C(=O)NC1CCCc2ccccc21)C(C)(C)C

> <Shape>
0.237

> <Color>
0.071

> <Negative vol penalty>
0.000

$$$$

  -OEChem-04052304593D

 83 91  0     1  0  0  0  0  0999 V2000
  -32.2123  -24.5780   10.7449 C   0  0  0  0  0  0  0  0  0  0  0  0
  -32.8326  -24.1318   11.9075 C   0  0  0  0  0  0  0  0  0  0  0  0
  -23.0032   -9.8875   19.9767 C   0  0  0  0  0  0  0  0  0  0  0  0
  -23.7324   -9.9324   22.2796 C   0  0  0  0  0  0  0  0  0  0  0  0
  -31.6346  -25.8464   10.7072 C   0  0  0  0  0  0  0  0  0  0  0  0
  -32.8763  -24.9542   13.0328 C   0  0  0  0  0  0  0  0  0  0  0  0
  -31.7330  -22.4740   17.2973 C   0  0  0  0  0  0  0  0  0  0  0  0
  -22.2399   -8.7503   20.2406 C   0  0  0  0  0  0  0  0  0  0  0  0
  -22.9691   -8.7952   22.5435 C   0  0  0  0  0  0  0  0  0  0  0  0
  -32.7284  -21.6718   17.8537 C   0  0  0  0  0  0  0  0  0  0  0  0
  -23.2206   -5.4585   22.0598 C   0  0  0  0  0  0  0  0  0  0  0  0
  -23.8119   -4.4402   22.8075 C   0  0  0  0  0  0  0  0  0  0  0  0
  -33.2372  -23.4152   19.4416 C   0  0  0  0  0  0  0  0  0  0  0  0
  -22.0905   -4.6732   24.4866 C   0  0  0  0  0  0  0  0  0  0  0  0
  -23.7495  -10.4786   20.9962 C   0  0  0  0  0  0  0  0  0  0  0  0
  -24.1285  -12.9957   20.8281 C   0  0  0  0  0  0  0  0  0  0  0  0
  -31.6628  -26.6809   11.8356 C   0  0  0  0  0  0  0  0  0  0  0  0
  -31.4892  -23.7591   17.8027 C   0  0  0  0  0  0  0  0  0  0  0  0
  -32.2996  -26.2354   13.0096 C   0  0  0  0  0  0  0  0  0  0  0  0
  -32.2365  -24.2306   18.8914 C   0  0  0  0  0  0  0  0  0  0  0  0
  -22.2228   -8.2041   21.5239 C   0  0  0  0  0  0  0  0  0  0  0  0
  -33.4826  -22.1435   18.9241 C   0  0  0  0  0  0  0  0  0  0  0  0
  -22.0642   -6.0843   22.5256 C   0  0  0  0  0  0  0  0  0  0  0  0
  -23.2469   -4.0475   24.0208 C   0  0  0  0  0  0  0  0  0  0  0  0
  -21.4992   -5.6916   23.7389 C   0  0  0  0  0  0  0  0  0  0  0  0
  -24.5387  -11.6530   20.7242 C   0  0  0  0  0  0  0  0  0  0  0  0
  -31.8314  -18.6710   22.2199 C   0  0  0  0  0  0  0  0  0  0  0  0
  -25.2358  -13.7222   20.4641 C   0  0  0  0  0  0  0  0  0  0  0  0
  -30.7252  -19.0688   22.9412 C   0  0  0  0  0  0  0  0  0  0  0  0
  -30.5729  -16.9045   21.8947 C   0  0  0  0  0  0  0  0  0  0  0  0
  -22.8599  -13.5377   21.2187 C   0  0  0  0  0  0  0  0  0  0  0  0
  -31.6536  -26.7039   16.6174 C   0  0  0  0  0  0  0  0  0  0  0  0
  -30.3568  -27.5092   19.4796 C   0  0  0  0  0  0  0  0  0  0  0  0
  -29.8593  -26.7150   22.7612 C   0  0  0  0  0  0  0  0  0  0  0  0
  -34.1549  -19.1359   21.3763 C   0  0  0  0  0  0  0  0  0  0  0  0
  -30.7134  -14.6956   20.6916 C   0  0  0  0  0  0  0  0  0  0  0  0
  -31.0662  -28.0623   11.7320 C   0  0  0  0  0  0  0  0  0  0  0  0
  -30.3939  -24.6016   17.2086 C   0  0  0  0  0  0  0  0  0  0  0  0
  -32.0004  -25.5951   19.4839 C   0  0  0  0  0  0  0  0  0  0  0  0
  -30.8272  -28.7256   13.0859 C   0  0  0  0  0  0  0  0  0  0  0  0
  -29.5968  -12.2481   18.3593 C   0  0  0  0  0  0  0  0  0  0  0  0
  -32.0520  -28.5679   13.9813 C   0  0  0  0  0  0  0  0  0  0  0  0
  -28.1476  -11.9855   18.7751 C   0  0  0  0  0  0  0  0  0  0  0  0
  -30.4989  -12.4895   19.5683 C   0  0  0  0  0  0  0  0  0  0  0  0
  -28.5841  -13.2691   20.9079 C   0  0  0  0  0  0  0  0  0  0  0  0
  -32.3458  -27.0886   14.2587 C   0  0  1  0  0  0  0  0  0  0  0  0
  -30.5783  -26.0931   17.4709 C   0  0  1  0  0  0  0  0  0  0  0  0
  -27.6247  -13.0846   19.7208 C   0  0  2  0  0  0  0  0  0  0  0  0
  -28.7934  -27.5865   24.8592 C   0  0  0  0  0  0  0  0  0  0  0  0
  -32.6571  -29.4839   19.8250 C   0  0  0  0  0  0  0  0  0  0  0  0
  -32.0908  -29.6104   22.2605 C   0  0  0  0  0  0  0  0  0  0  0  0
  -30.4251  -30.3443   20.5547 C   0  0  0  0  0  0  0  0  0  0  0  0
  -28.0402  -24.3875   22.9422 C   0  0  0  0  0  0  0  0  0  0  0  0
  -34.7301  -21.5419   20.8575 C   0  0  0  0  0  0  0  0  0  1  0  0
  -30.9063  -27.8783   20.8364 C   0  0  1  0  0  0  0  0  0  0  0  0
  -28.6083  -26.7231   23.6210 C   0  0  2  0  0  0  0  0  0  0  0  0
  -35.2001  -20.2336   21.4760 C   0  0  2  0  0  0  0  0  0  0  0  0
  -31.5258  -29.3042   20.8570 C   0  0  0  0  0  0  0  0  0  0  0  0
  -25.8075  -11.5309   20.3253 N   0  0  0  0  0  0  0  0  0  0  0  0
  -31.7460  -17.4300   21.6195 N   0  0  0  0  0  0  0  0  0  0  0  0
  -26.2042  -12.8062   20.1753 N   0  0  0  0  0  0  0  0  0  0  0  0
  -30.9225  -26.3836   18.8642 N   0  0  0  0  0  0  0  0  0  0  0  0
  -29.9429  -13.5462   20.4162 N   0  0  0  0  0  0  0  0  0  0  0  0
  -25.4659  -15.0488   20.3661 N   0  0  0  0  0  0  0  0  0  0  0  0
  -21.8308  -12.6499   21.5611 N   0  0  0  0  0  0  0  0  0  0  0  0
  -33.0006  -19.4556   22.0798 N   0  0  0  0  0  0  0  0  0  0  0  0
  -30.0683  -15.6465   21.4817 N   0  0  0  0  0  0  0  0  0  0  0  0
  -31.4367  -26.5717   15.2591 N   0  0  0  0  0  0  0  0  0  0  0  0
  -29.8142  -27.6875   21.7848 N   0  0  0  0  0  0  0  0  0  0  0  0
  -28.2719  -25.3390   24.0593 N   0  3  0  0  0  0  0  0  0  0  0  0
  -22.6402  -14.7724   21.2470 O   0  0  0  0  0  0  0  0  0  0  0  0
  -32.6084  -27.2557   17.1517 O   0  0  0  0  0  0  0  0  0  0  0  0
  -29.4537  -28.1902   18.9873 O   0  0  0  0  0  0  0  0  0  0  0  0
  -30.7855  -25.9272   22.9402 O   0  0  0  0  0  0  0  0  0  0  0  0
  -34.3868  -18.1122   20.7396 O   0  0  0  0  0  0  0  0  0  0  0  0
  -31.8509  -14.8388   20.2361 O   0  0  0  0  0  0  0  0  0  0  0  0
  -21.4779   -7.0945   21.7818 O   0  0  0  0  0  0  0  0  0  0  0  0
  -34.4552  -21.3629   19.4687 O   0  0  0  0  0  0  0  0  0  1  0  0
  -23.8140   -3.0686   24.7379 F   0  0  0  0  0  0  0  0  0  0  0  0
  -20.3876   -6.2883   24.1910 F   0  0  0  0  0  0  0  0  0  0  0  0
  -30.6012  -20.2261   23.5965 F   0  0  0  0  0  0  0  0  0  0  0  0
  -36.3491  -19.8559   20.8448 F   0  0  0  0  0  0  0  0  0  0  0  0
  -29.5226  -17.8482   22.8701 S   0  0  0  0  0  0  0  0  0  0  0  0
  1  2  1  0  0  0  0
  1  5  2  0  0  0  0
  2  6  2  0  0  0  0
  3  8  2  0  0  0  0
  3 15  1  0  0  0  0
  4  9  1  0  0  0  0
  4 15  2  0  0  0  0
  5 17  1  0  0  0  0
  6 19  1  0  0  0  0
  7 10  2  0  0  0  0
  7 18  1  0  0  0  0
  8 21  1  0  0  0  0
  9 21  2  0  0  0  0
 10 22  1  0  0  0  0
 11 12  2  0  0  0  0
 11 23  1  0  0  0  0
 12 24  1  0  0  0  0
 13 20  1  0  0  0  0
 13 22  2  0  0  0  0
 14 24  2  0  0  0  0
 14 25  1  0  0  0  0
 15 26  1  0  0  0  0
 16 26  1  0  0  0  0
 16 28  2  0  0  0  0
 16 31  1  0  0  0  0
 17 19  2  0  0  0  0
 17 37  1  0  0  0  0
 18 20  2  0  0  0  0
 18 38  1  0  0  0  0
 19 46  1  0  0  0  0
 20 39  1  0  0  0  0
 21 77  1  0  0  0  0
 22 78  1  0  0  0  0
 23 25  2  0  0  0  0
 23 77  1  0  0  0  0
 24 79  1  0  0  0  0
 25 80  1  0  0  0  0
 26 59  2  0  0  0  0
 27 29  2  0  0  0  0
 27 60  1  0  0  0  0
 27 66  1  0  0  0  0
 28 61  1  0  0  0  0
 28 64  1  0  0  0  0
 29 81  1  0  0  0  0
 29 83  1  0  0  0  0
 30 60  2  0  0  0  0
 30 67  1  0  0  0  0
 30 83  1  0  0  0  0
 31 65  1  0  0  0  0
 31 71  2  0  0  0  0
 32 47  1  0  0  0  0
 32 68  1  0  0  0  0
 32 72  2  0  0  0  0
 33 55  1  0  0  0  0
 33 62  1  0  0  0  0
 33 73  2  0  0  0  0
 34 56  1  0  0  0  0
 34 69  1  0  0  0  0
 34 74  2  0  0  0  0
 35 57  1  0  0  0  0
 35 66  1  0  0  0  0
 35 75  2  0  0  0  0
 36 63  1  0  0  0  0
 36 67  1  0  0  0  0
 36 76  2  0  0  0  0
 37 40  1  0  0  0  0
 38 47  1  0  0  0  0
 39 62  1  0  0  0  0
 40 42  1  0  0  0  0
 41 43  1  0  0  0  0
 41 44  1  0  0  0  0
 42 46  1  0  0  0  0
 43 48  1  0  0  0  0
 44 63  1  0  0  0  0
 45 48  1  0  0  0  0
 45 63  1  0  0  0  0
 46 68  1  0  0  0  0
 47 62  1  0  0  0  0
 48 61  1  0  0  0  0
 49 56  1  0  0  0  0
 50 58  1  0  0  0  0
 51 58  1  0  0  0  0
 52 58  1  0  0  0  0
 53 70  1  0  0  0  0
 54 57  1  0  0  0  0
 54 78  1  0  0  0  0
 55 58  1  0  0  0  0
 55 69  1  0  0  0  0
 56 70  1  0  0  0  0
 57 82  1  0  0  0  0
 59 61  1  0  0  0  0
M  CHG  1  70   1
M  ISO  4  36 100  54 101  67 100  78 101
M  END
> <Batch ID>
0183

> <Smiles>
CNC(C)C(=O)NC(C(=O)N1Cc2cc([101O:1][101CH2:1]C(F)C(=O)Nc3nc([100NH:0][100C:0](=O)N4CCCC(n5nc(-c6ccc(Oc7ccc(F)cc7F)cc6)c(C(N)=O)c5N)C4)sc3F)ccc2CC1C(=O)NC1CCCc2ccccc21)C(C)(C)C

> <Shape>
0.231

> <Color>
0.194

> <Negative vol penalty>
0.000

$$$$

  -OEChem-04052304593D

 84 92  0     1  0  0  0  0  0999 V2000
  -28.4491  -30.0920   19.6239 C   0  0  0  0  0  0  0  0  0  0  0  0
  -28.3950  -29.0862   20.5836 C   0  0  0  0  0  0  0  0  0  0  0  0
  -23.0462   -9.8349   19.9659 C   0  0  0  0  0  0  0  0  0  0  0  0
  -23.7637   -9.8984   22.2720 C   0  0  0  0  0  0  0  0  0  0  0  0
  -27.3354  -30.9001   19.3993 C   0  0  0  0  0  0  0  0  0  0  0  0
  -27.2275  -28.8888   21.3200 C   0  0  0  0  0  0  0  0  0  0  0  0
  -25.9764  -23.9967   21.7033 C   0  0  0  0  0  0  0  0  0  0  0  0
  -22.3023   -8.6847   20.2289 C   0  0  0  0  0  0  0  0  0  0  0  0
  -23.0197   -8.7482   22.5351 C   0  0  0  0  0  0  0  0  0  0  0  0
  -26.6818  -23.2297   22.6296 C   0  0  0  0  0  0  0  0  0  0  0  0
  -23.3335   -5.4155   22.0608 C   0  0  0  0  0  0  0  0  0  0  0  0
  -23.9395   -4.4097   22.8137 C   0  0  0  0  0  0  0  0  0  0  0  0
  -24.8515  -23.4384   24.1871 C   0  0  0  0  0  0  0  0  0  0  0  0
  -22.2063   -4.6158   24.4842 C   0  0  0  0  0  0  0  0  0  0  0  0
  -23.7770  -10.4417   20.9874 C   0  0  0  0  0  0  0  0  0  0  0  0
  -24.1114  -12.9648   20.8148 C   0  0  0  0  0  0  0  0  0  0  0  0
  -26.1504  -30.7062   20.1265 C   0  0  0  0  0  0  0  0  0  0  0  0
  -24.7057  -24.5002   22.0166 C   0  0  0  0  0  0  0  0  0  0  0  0
  -26.0973  -29.6960   21.1058 C   0  0  0  0  0  0  0  0  0  0  0  0
  -24.1310  -24.2093   23.2620 C   0  0  0  0  0  0  0  0  0  0  0  0
  -22.2890   -8.1414   21.5136 C   0  0  0  0  0  0  0  0  0  0  0  0
  -26.1206  -22.9529   23.8728 C   0  0  0  0  0  0  0  0  0  0  0  0
  -22.1639   -6.0214   22.5197 C   0  0  0  0  0  0  0  0  0  0  0  0
  -23.3759   -4.0099   24.0253 C   0  0  0  0  0  0  0  0  0  0  0  0
  -21.6003   -5.6215   23.7313 C   0  0  0  0  0  0  0  0  0  0  0  0
  -24.5462  -11.6295   20.7161 C   0  0  0  0  0  0  0  0  0  0  0  0
  -31.7045  -18.7811   22.2284 C   0  0  0  0  0  0  0  0  0  0  0  0
  -25.2072  -13.7103   20.4542 C   0  0  0  0  0  0  0  0  0  0  0  0
  -30.5880  -19.1608   22.9435 C   0  0  0  0  0  0  0  0  0  0  0  0
  -30.4794  -16.9915   21.9019 C   0  0  0  0  0  0  0  0  0  0  0  0
  -22.8314  -13.4849   21.1982 C   0  0  0  0  0  0  0  0  0  0  0  0
  -29.1482  -21.9549   25.0222 C   0  0  0  0  0  0  0  0  0  0  0  0
  -28.0209  -22.6661   25.2059 C   0  0  0  0  0  0  0  0  0  1  0  0
  -29.1016  -20.6052   24.3667 C   0  0  0  0  0  0  0  0  0  0  0  0
  -23.4507  -27.4075   22.2938 C   0  0  0  0  0  0  0  0  0  0  0  0
  -20.6842  -25.7538   22.6599 C   0  0  0  0  0  0  0  0  0  0  0  0
  -19.1475  -22.8362   23.5389 C   0  0  0  0  0  0  0  0  0  0  0  0
  -30.6652  -14.7827   20.7049 C   0  0  0  0  0  0  0  0  0  0  0  0
  -24.9880  -31.6355   19.8816 C   0  0  0  0  0  0  0  0  0  0  0  0
  -23.9465  -25.3035   20.9963 C   0  0  0  0  0  0  0  0  0  0  0  0
  -22.7614  -24.7093   23.6396 C   0  0  0  0  0  0  0  0  0  0  0  0
  -23.6658  -31.1177   20.4419 C   0  0  0  0  0  0  0  0  0  0  0  0
  -29.6038  -12.3099   18.3734 C   0  0  0  0  0  0  0  0  0  0  0  0
  -23.8532  -30.6071   21.8670 C   0  0  0  0  0  0  0  0  0  0  0  0
  -28.1576  -12.0223   18.7831 C   0  0  0  0  0  0  0  0  0  0  0  0
  -30.4957  -12.5704   19.5859 C   0  0  0  0  0  0  0  0  0  0  0  0
  -28.5609  -13.3186   20.9148 C   0  0  0  0  0  0  0  0  0  0  0  0
  -24.8407  -29.4347   21.9076 C   0  0  1  0  0  0  0  0  0  0  0  0
  -22.8756  -26.1964   21.6153 C   0  0  1  0  0  0  0  0  0  0  0  0
  -27.6106  -13.1140   19.7236 C   0  0  2  0  0  0  0  0  0  0  0  0
  -32.9358  -19.5781   22.0513 C   0  0  0  0  0  0  0  0  0  0  0  0
  -27.9809  -24.0147   25.8635 C   0  0  0  0  0  0  0  0  0  0  0  0
  -16.8740  -21.7998   23.7723 C   0  0  0  0  0  0  0  0  0  0  0  0
  -20.2449  -27.3067   25.2494 C   0  0  0  0  0  0  0  0  0  0  0  0
  -18.5251  -25.6059   25.8958 C   0  0  0  0  0  0  0  0  0  0  0  0
  -18.1914  -27.0011   23.8551 C   0  0  0  0  0  0  0  0  0  0  0  0
  -19.7598  -20.7586   21.5220 C   0  0  0  0  0  0  0  0  0  0  0  0
  -19.9348  -25.1702   23.8333 C   0  0  1  0  0  0  0  0  0  0  0  0
  -18.0654  -22.0214   22.8535 C   0  0  2  0  0  0  0  0  0  0  0  0
  -19.2507  -26.2630   24.7023 C   0  0  0  0  0  0  0  0  0  0  0  0
  -25.8189  -11.5294   20.3235 N   0  0  0  0  0  0  0  0  0  0  0  0
  -31.6441  -17.5373   21.6307 N   0  0  0  0  0  0  0  0  0  0  0  0
  -26.1932  -12.8112   20.1722 N   0  0  0  0  0  0  0  0  0  0  0  0
  -22.0614  -25.4958   22.6105 N   0  0  0  0  0  0  0  0  0  0  0  0
  -29.9168  -13.6189   20.4287 N   0  0  0  0  0  0  0  0  0  0  0  0
  -25.4138  -15.0406   20.3541 N   0  0  0  0  0  0  0  0  0  0  0  0
  -21.8169  -12.5795   21.5379 N   0  0  0  0  0  0  0  0  0  0  0  0
  -30.2754  -20.3310   23.6776 N   0  0  0  0  0  0  0  0  0  0  0  0
  -29.9994  -15.7237   21.4895 N   0  0  0  0  0  0  0  0  0  0  0  0
  -24.1985  -28.2173   21.4604 N   0  0  0  0  0  0  0  0  0  0  0  0
  -19.0136  -24.1838   23.2795 N   0  0  0  0  0  0  0  0  0  0  0  0
  -18.5986  -20.6908   22.4461 N   0  3  0  0  0  0  0  0  0  0  0  0
  -22.5894  -14.7155   21.2224 O   0  0  0  0  0  0  0  0  0  0  0  0
  -28.1111  -19.8904   24.4705 O   0  0  0  0  0  0  0  0  0  0  0  0
  -23.2310  -27.5941   23.4848 O   0  0  0  0  0  0  0  0  0  0  0  0
  -20.0690  -26.4083   21.8145 O   0  0  0  0  0  0  0  0  0  0  0  0
  -20.0217  -22.3283   24.2377 O   0  0  0  0  0  0  0  0  0  0  0  0
  -31.8021  -14.9453   20.2543 O   0  0  0  0  0  0  0  0  0  0  0  0
  -30.3752  -22.4378   25.4371 O   0  0  0  0  0  0  0  0  0  0  0  0
  -21.5629   -7.0192   21.7707 O   0  0  0  0  0  0  0  0  0  0  0  0
  -26.8072  -22.2052   24.7790 O   0  0  0  0  0  0  0  0  0  1  0  0
  -23.9572   -3.0430   24.7475 F   0  0  0  0  0  0  0  0  0  0  0  0
  -20.4761   -6.1991   24.1767 F   0  0  0  0  0  0  0  0  0  0  0  0
  -29.4077  -17.9187   22.8699 S   0  0  0  0  0  0  0  0  0  0  0  0
  1  2  1  0  0  0  0
  1  5  2  0  0  0  0
  2  6  2  0  0  0  0
  3  8  2  0  0  0  0
  3 15  1  0  0  0  0
  4  9  1  0  0  0  0
  4 15  2  0  0  0  0
  5 17  1  0  0  0  0
  6 19  1  0  0  0  0
  7 10  2  0  0  0  0
  7 18  1  0  0  0  0
  8 21  1  0  0  0  0
  9 21  2  0  0  0  0
 10 22  1  0  0  0  0
 11 12  2  0  0  0  0
 11 23  1  0  0  0  0
 12 24  1  0  0  0  0
 13 20  1  0  0  0  0
 13 22  2  0  0  0  0
 14 24  2  0  0  0  0
 14 25  1  0  0  0  0
 15 26  1  0  0  0  0
 16 26  1  0  0  0  0
 16 28  2  0  0  0  0
 16 31  1  0  0  0  0
 17 19  2  0  0  0  0
 17 39  1  0  0  0  0
 18 20  2  0  0  0  0
 18 40  1  0  0  0  0
 19 48  1  0  0  0  0
 20 41  1  0  0  0  0
 21 80  1  0  0  0  0
 22 81  1  0  0  0  0
 23 25  2  0  0  0  0
 23 80  1  0  0  0  0
 24 82  1  0  0  0  0
 25 83  1  0  0  0  0
 26 61  2  0  0  0  0
 27 29  2  0  0  0  0
 27 51  1  0  0  0  0
 27 62  1  0  0  0  0
 28 63  1  0  0  0  0
 28 66  1  0  0  0  0
 29 68  1  0  0  0  0
 29 84  1  0  0  0  0
 30 62  2  0  0  0  0
 30 69  1  0  0  0  0
 30 84  1  0  0  0  0
 31 67  1  0  0  0  0
 31 73  2  0  0  0  0
 32 33  2  0  0  0  0
 32 34  1  0  0  0  0
 32 79  1  0  0  0  0
 33 52  1  0  0  0  0
 33 81  1  0  0  0  0
 34 68  1  0  0  0  0
 34 74  2  0  0  0  0
 35 49  1  0  0  0  0
 35 70  1  0  0  0  0
 35 75  2  0  0  0  0
 36 58  1  0  0  0  0
 36 64  1  0  0  0  0
 36 76  2  0  0  0  0
 37 59  1  0  0  0  0
 37 71  1  0  0  0  0
 37 77  2  0  0  0  0
 38 65  1  0  0  0  0
 38 69  1  0  0  0  0
 38 78  2  0  0  0  0
 39 42  1  0  0  0  0
 40 49  1  0  0  0  0
 41 64  1  0  0  0  0
 42 44  1  0  0  0  0
 43 45  1  0  0  0  0
 43 46  1  0  0  0  0
 44 48  1  0  0  0  0
 45 50  1  0  0  0  0
 46 65  1  0  0  0  0
 47 50  1  0  0  0  0
 47 65  1  0  0  0  0
 48 70  1  0  0  0  0
 49 64  1  0  0  0  0
 50 63  1  0  0  0  0
 53 59  1  0  0  0  0
 54 60  1  0  0  0  0
 55 60  1  0  0  0  0
 56 60  1  0  0  0  0
 57 72  1  0  0  0  0
 58 60  1  0  0  0  0
 58 71  1  0  0  0  0
 59 72  1  0  0  0  0
 61 63  1  0  0  0  0
M  CHG  1  72   1
M  ISO  4  33 101  38 100  69 100  81 101
M  END
> <Batch ID>
0183

> <Smiles>
CNC(C)C(=O)NC(C(=O)N1Cc2cc([101O:1][101CH:1](C)C(=O)C(=O)Nc3sc([100NH:0][100C:0](=O)N4CCCC(n5nc(-c6ccc(Oc7ccc(F)cc7F)cc6)c(C(N)=O)c5N)C4)nc3C)ccc2CC1C(=O)NC1CCCc2ccccc21)C(C)(C)C

> <Shape>
0.258

> <Color>
0.214

> <Negative vol penalty>
0.000

$$$$

  -OEChem-04052304593D

 87 95  0     1  0  0  0  0  0999 V2000
  -23.9830  -18.3920   20.1275 C   0  0  0  0  0  0  0  0  0  0  0  0
  -24.7866  -19.3501   20.7349 C   0  0  0  0  0  0  0  0  0  0  0  0
  -26.3476  -12.5920   21.6229 C   0  0  0  0  0  0  0  0  0  0  0  0
  -25.8081  -13.5659   19.4787 C   0  0  0  0  0  0  0  0  0  0  0  0
  -22.7122  -18.7394   19.6741 C   0  0  0  0  0  0  0  0  0  0  0  0
  -24.3153  -20.6530   20.8999 C   0  0  0  0  0  0  0  0  0  0  0  0
  -27.1125  -23.7247   23.5349 C   0  0  0  0  0  0  0  0  0  0  0  0
  -25.1369  -11.8994   21.6130 C   0  0  0  0  0  0  0  0  0  0  0  0
  -24.5974  -12.8732   19.4688 C   0  0  0  0  0  0  0  0  0  0  0  0
  -28.3169  -24.2424   23.0601 C   0  0  0  0  0  0  0  0  0  0  0  0
  -23.8694   -9.1195   20.1645 C   0  0  0  0  0  0  0  0  0  0  0  0
  -23.8895   -7.7737   20.5305 C   0  0  0  0  0  0  0  0  0  0  0  0
  -27.2311  -26.3518   22.6235 C   0  0  0  0  0  0  0  0  0  0  0  0
  -22.3707   -8.2456   22.3492 C   0  0  0  0  0  0  0  0  0  0  0  0
  -26.6832  -13.4253   20.5558 C   0  0  0  0  0  0  0  0  0  0  0  0
  -29.1692  -13.7016   20.0548 C   0  0  0  0  0  0  0  0  0  0  0  0
  -22.2306  -20.0505   19.8229 C   0  0  0  0  0  0  0  0  0  0  0  0
  -25.9540  -24.5147   23.5473 C   0  0  0  0  0  0  0  0  0  0  0  0
  -23.0263  -21.0173   20.4706 C   0  0  0  0  0  0  0  0  0  0  0  0
  -26.0139  -25.8426   23.1013 C   0  0  0  0  0  0  0  0  0  0  0  0
  -24.2619  -12.0400   20.5359 C   0  0  0  0  0  0  0  0  0  0  0  0
  -28.3757  -25.5552   22.6017 C   0  0  0  0  0  0  0  0  0  0  0  0
  -23.1000  -10.0284   20.8909 C   0  0  0  0  0  0  0  0  0  0  0  0
  -23.1401   -7.3367   21.6228 C   0  0  0  0  0  0  0  0  0  0  0  0
  -22.3506   -9.5915   21.9832 C   0  0  0  0  0  0  0  0  0  0  0  0
  -27.9334  -14.1415   20.5658 C   0  0  0  0  0  0  0  0  0  0  0  0
  -27.2434  -23.1572   17.3714 C   0  0  0  0  0  0  0  0  0  0  0  0
  -28.3389  -23.6689   18.0348 C   0  0  0  0  0  0  0  0  0  0  0  0
  -30.0339  -14.7385   20.3073 C   0  0  0  0  0  0  0  0  0  0  0  0
  -28.1152  -21.7998   19.1603 C   0  0  0  0  0  0  0  0  0  0  0  0
  -29.5055  -12.4662   19.4096 C   0  0  0  0  0  0  0  0  0  0  0  0
  -23.1048  -24.3399   22.1491 C   0  0  0  0  0  0  0  0  0  0  0  0
  -29.5972  -26.0191   19.7324 C   0  0  0  0  0  0  0  0  0  0  0  0
  -22.4582  -26.9033   24.0287 C   0  0  0  0  0  0  0  0  0  0  0  0
  -23.6418  -29.5721   25.7962 C   0  0  0  0  0  0  0  0  0  0  0  0
  -29.2506  -20.6130   21.0704 C   0  0  0  0  0  0  0  0  0  0  0  0
  -20.8445  -20.3700   19.3210 C   0  0  0  0  0  0  0  0  0  0  0  0
  -24.6688  -23.9498   24.0875 C   0  0  0  0  0  0  0  0  0  0  0  0
  -24.8032  -26.7385   23.1127 C   0  0  0  0  0  0  0  0  0  0  0  0
  -20.6082  -21.8658   19.1392 C   0  0  0  0  0  0  0  0  0  0  0  0
  -30.7583  -18.3495   23.3684 C   0  0  0  0  0  0  0  0  0  0  0  0
  -21.0414  -22.6162   20.3897 C   0  0  0  0  0  0  0  0  0  0  0  0
  -30.3225  -16.9732   22.8604 C   0  0  0  0  0  0  0  0  0  0  0  0
  -29.6555  -19.3927   23.1969 C   0  0  0  0  0  0  0  0  0  0  0  0
  -28.6697  -18.1210   21.3313 C   0  0  0  0  0  0  0  0  0  0  0  0
  -22.5465  -22.4483   20.6334 C   0  0  1  0  0  0  0  0  0  0  0  0
  -23.4324  -24.6819   23.5750 C   0  0  1  0  0  0  0  0  0  0  0  0
  -29.7705  -17.0517   21.4235 C   0  0  2  0  0  0  0  0  0  0  0  0
  -30.7518  -26.4756   17.5632 C   0  0  0  0  0  0  0  0  0  0  0  0
  -31.6485  -25.5748   21.1163 C   0  0  0  0  0  0  0  0  0  0  0  0
  -22.8698  -31.5068   27.1955 C   0  0  0  0  0  0  0  0  0  0  0  0
  -21.5767  -28.3740   21.5048 C   0  0  0  0  0  0  0  0  0  0  0  0
  -21.7319  -30.5200   22.7849 C   0  0  0  0  0  0  0  0  0  0  0  0
  -20.1174  -28.7576   23.4992 C   0  0  0  0  0  0  0  0  0  0  0  0
  -25.1243  -28.5996   28.1659 C   0  0  0  0  0  0  0  0  0  0  0  0
  -30.0763  -25.4178   18.4199 C   0  0  2  0  0  0  0  0  0  0  0  0
  -30.1431  -25.4068   21.0173 C   0  0  1  0  0  0  0  0  0  1  0  0
  -22.5912  -28.3996   23.8789 C   0  0  1  0  0  0  0  0  0  0  0  0
  -23.3434  -30.0616   27.2018 C   0  0  2  0  0  0  0  0  0  0  0  0
  -26.4645  -23.7089   16.2436 C   0  0  0  0  0  0  0  0  0  0  0  0
  -21.5269  -28.9956   22.9148 C   0  0  0  0  0  0  0  0  0  0  0  0
  -28.0026  -15.3627   21.1025 N   0  0  0  0  0  0  0  0  0  0  0  0
  -28.8399  -22.8921   19.0612 N   0  0  0  0  0  0  0  0  0  0  0  0
  -29.2923  -15.6989   20.9302 N   0  0  0  0  0  0  0  0  0  0  0  0
  -23.5685  -26.1382   23.6444 N   0  0  0  0  0  0  0  0  0  0  0  0
  -29.1847  -19.4134   21.8102 N   0  0  0  0  0  0  0  0  0  0  0  0
  -31.3485  -14.9133   20.0551 N   0  0  0  0  0  0  0  0  0  0  0  0
  -28.4967  -11.5100   19.2300 N   0  0  0  0  0  0  0  0  0  0  0  0
  -28.9280  -24.8828   17.7236 N   0  0  0  0  0  0  0  0  0  0  0  0
  -28.2800  -20.7314   20.0762 N   0  0  0  0  0  0  0  0  0  0  0  0
  -22.8785  -22.9943   21.9310 N   0  0  0  0  0  0  0  0  0  0  0  0
  -22.5494  -28.9504   25.2292 N   0  0  0  0  0  0  0  0  0  0  0  0
  -24.5639  -29.9707   28.0520 N   0  3  0  0  0  0  0  0  0  0  0  0
  -30.6699  -12.2109   19.0191 O   0  0  0  0  0  0  0  0  0  0  0  0
  -23.0592  -25.2311   21.3092 O   0  0  0  0  0  0  0  0  0  0  0  0
  -28.7894  -26.9497   19.7540 O   0  0  0  0  0  0  0  0  0  0  0  0
  -21.4105  -26.4312   24.4772 O   0  0  0  0  0  0  0  0  0  0  0  0
  -24.7335  -29.7290   25.2539 O   0  0  0  0  0  0  0  0  0  0  0  0
  -30.1220  -21.4599   21.2837 O   0  0  0  0  0  0  0  0  0  0  0  0
  -23.0805  -11.3641   20.5257 O   0  0  0  0  0  0  0  0  0  0  0  0
  -29.5498  -26.0627   22.1372 O   0  0  0  0  0  0  0  0  0  1  0  0
  -23.1583   -6.0440   21.9732 F   0  0  0  0  0  0  0  0  0  0  0  0
  -21.6086  -10.4598   22.6841 F   0  0  0  0  0  0  0  0  0  0  0  0
  -26.9125  -24.9246   15.7934 F   0  0  0  0  0  0  0  0  0  0  0  0
  -26.4535  -22.9124   15.1271 F   0  0  0  0  0  0  0  0  0  0  0  0
  -25.1436  -23.9096   16.5478 F   0  0  0  0  0  0  0  0  0  0  0  0
  -26.8158  -21.6415   18.0506 S   0  0  0  0  0  0  0  0  0  0  0  0
  1  2  1  0  0  0  0
  1  5  2  0  0  0  0
  2  6  2  0  0  0  0
  3  8  2  0  0  0  0
  3 15  1  0  0  0  0
  4  9  1  0  0  0  0
  4 15  2  0  0  0  0
  5 17  1  0  0  0  0
  6 19  1  0  0  0  0
  7 10  2  0  0  0  0
  7 18  1  0  0  0  0
  8 21  1  0  0  0  0
  9 21  2  0  0  0  0
 10 22  1  0  0  0  0
 11 12  2  0  0  0  0
 11 23  1  0  0  0  0
 12 24  1  0  0  0  0
 13 20  1  0  0  0  0
 13 22  2  0  0  0  0
 14 24  2  0  0  0  0
 14 25  1  0  0  0  0
 15 26  1  0  0  0  0
 16 26  1  0  0  0  0
 16 29  2  0  0  0  0
 16 31  1  0  0  0  0
 17 19  2  0  0  0  0
 17 37  1  0  0  0  0
 18 20  2  0  0  0  0
 18 38  1  0  0  0  0
 19 46  1  0  0  0  0
 20 39  1  0  0  0  0
 21 80  1  0  0  0  0
 22 81  1  0  0  0  0
 23 25  2  0  0  0  0
 23 80  1  0  0  0  0
 24 82  1  0  0  0  0
 25 83  1  0  0  0  0
 26 62  2  0  0  0  0
 27 28  2  0  0  0  0
 27 60  1  0  0  0  0
 27 87  1  0  0  0  0
 28 63  1  0  0  0  0
 28 69  1  0  0  0  0
 29 64  1  0  0  0  0
 29 67  1  0  0  0  0
 30 63  2  0  0  0  0
 30 70  1  0  0  0  0
 30 87  1  0  0  0  0
 31 68  1  0  0  0  0
 31 74  2  0  0  0  0
 32 47  1  0  0  0  0
 32 71  1  0  0  0  0
 32 75  2  0  0  0  0
 33 56  1  0  0  0  0
 33 57  1  0  0  0  0
 33 76  2  0  0  0  0
 34 58  1  0  0  0  0
 34 65  1  0  0  0  0
 34 77  2  0  0  0  0
 35 59  1  0  0  0  0
 35 72  1  0  0  0  0
 35 78  2  0  0  0  0
 36 66  1  0  0  0  0
 36 70  1  0  0  0  0
 36 79  2  0  0  0  0
 37 40  1  0  0  0  0
 38 47  1  0  0  0  0
 39 65  1  0  0  0  0
 40 42  1  0  0  0  0
 41 43  1  0  0  0  0
 41 44  1  0  0  0  0
 42 46  1  0  0  0  0
 43 48  1  0  0  0  0
 44 66  1  0  0  0  0
 45 48  1  0  0  0  0
 45 66  1  0  0  0  0
 46 71  1  0  0  0  0
 47 65  1  0  0  0  0
 48 64  1  0  0  0  0
 49 56  1  0  0  0  0
 50 57  1  0  0  0  0
 51 59  1  0  0  0  0
 52 61  1  0  0  0  0
 53 61  1  0  0  0  0
 54 61  1  0  0  0  0
 55 73  1  0  0  0  0
 56 69  1  0  0  0  0
 57 81  1  0  0  0  0
 58 61  1  0  0  0  0
 58 72  1  0  0  0  0
 59 73  1  0  0  0  0
 60 84  1  0  0  0  0
 60 85  1  0  0  0  0
 60 86  1  0  0  0  0
 62 64  1  0  0  0  0
M  CHG  1  73   1
M  ISO  4  36 100  57 101  70 100  81 101
M  END
> <Batch ID>
0183

> <Smiles>
CNC(C)C(=O)NC(C(=O)N1Cc2cc([101O:1][101CH:1](C)C(=O)C(C)Nc3nc([100NH:0][100C:0](=O)N4CCCC(n5nc(-c6ccc(Oc7ccc(F)cc7F)cc6)c(C(N)=O)c5N)C4)sc3C(F)(F)F)ccc2CC1C(=O)NC1CCCc2ccccc21)C(C)(C)C

> <Shape>
0.225

> <Color>
0.079

> <Negative vol penalty>
0.000

$$$$

  -OEChem-04052304593D

 85 93  0     1  0  0  0  0  0999 V2000
  -25.3325  -16.8449   25.0427 C   0  0  0  0  0  0  0  0  0  0  0  0
  -26.3262  -17.8159   24.9708 C   0  0  0  0  0  0  0  0  0  0  0  0
  -26.4300  -12.6399   21.6245 C   0  0  0  0  0  0  0  0  0  0  0  0
  -25.8247  -13.6712   19.5252 C   0  0  0  0  0  0  0  0  0  0  0  0
  -24.2921  -16.8438   24.1145 C   0  0  0  0  0  0  0  0  0  0  0  0
  -26.2806  -18.7858   23.9700 C   0  0  0  0  0  0  0  0  0  0  0  0
  -27.9619  -25.6435   22.7609 C   0  0  0  0  0  0  0  0  0  0  0  0
  -25.1811  -12.0214   21.6808 C   0  0  0  0  0  0  0  0  0  0  0  0
  -24.5757  -13.0526   19.5814 C   0  0  0  0  0  0  0  0  0  0  0  0
  -28.6645  -26.4366   21.8548 C   0  0  0  0  0  0  0  0  0  0  0  0
  -23.6639   -9.3408   20.2859 C   0  0  0  0  0  0  0  0  0  0  0  0
  -23.6240   -7.9918   20.6380 C   0  0  0  0  0  0  0  0  0  0  0  0
  -26.7766  -26.3839   20.3540 C   0  0  0  0  0  0  0  0  0  0  0  0
  -22.2469   -8.5311   22.5484 C   0  0  0  0  0  0  0  0  0  0  0  0
  -26.7518  -13.4649   20.5467 C   0  0  0  0  0  0  0  0  0  0  0  0
  -29.2160  -13.5979   19.9004 C   0  0  0  0  0  0  0  0  0  0  0  0
  -24.2285  -17.8199   23.1077 C   0  0  0  0  0  0  0  0  0  0  0  0
  -26.6632  -25.2048   22.4652 C   0  0  0  0  0  0  0  0  0  0  0  0
  -25.2391  -18.7969   23.0267 C   0  0  0  0  0  0  0  0  0  0  0  0
  -26.0586  -25.5874   21.2592 C   0  0  0  0  0  0  0  0  0  0  0  0
  -24.2540  -12.2276   20.6593 C   0  0  0  0  0  0  0  0  0  0  0  0
  -28.0730  -26.8045   20.6499 C   0  0  0  0  0  0  0  0  0  0  0  0
  -22.9954  -10.2851   21.0651 C   0  0  0  0  0  0  0  0  0  0  0  0
  -22.9155   -7.5869   21.7692 C   0  0  0  0  0  0  0  0  0  0  0  0
  -22.2868   -9.8802   22.1963 C   0  0  0  0  0  0  0  0  0  0  0  0
  -28.0415  -14.1047   20.4883 C   0  0  0  0  0  0  0  0  0  0  0  0
  -29.4695  -23.3410   17.6386 C   0  0  0  0  0  0  0  0  0  0  0  0
  -30.1553  -14.5778   20.1100 C   0  0  0  0  0  0  0  0  0  0  0  0
  -28.8297  -22.6250   16.6486 C   0  0  0  0  0  0  0  0  0  0  0  0
  -29.2265  -21.4425   18.7094 C   0  0  0  0  0  0  0  0  0  0  0  0
  -29.4380  -12.3527   19.2252 C   0  0  0  0  0  0  0  0  0  0  0  0
  -30.8602  -26.8257   17.9393 C   0  0  0  0  0  0  0  0  0  0  0  0
  -30.5335  -25.4505   18.4504 C   0  0  0  0  0  0  0  0  0  0  0  0
  -25.2902  -22.3655   22.0696 C   0  0  0  0  0  0  0  0  0  0  0  0
  -22.5777  -24.1359   21.8956 C   0  0  0  0  0  0  0  0  0  0  0  0
  -21.1244  -27.1528   21.2374 C   0  0  0  0  0  0  0  0  0  0  0  0
  -29.7762  -20.4787   20.9710 C   0  0  0  0  0  0  0  0  0  0  0  0
  -23.1102  -17.7498   22.0982 C   0  0  0  0  0  0  0  0  0  0  0  0
  -25.9086  -24.3721   23.4649 C   0  0  0  0  0  0  0  0  0  0  0  0
  -24.6592  -25.1596   20.9030 C   0  0  0  0  0  0  0  0  0  0  0  0
  -22.9319  -19.0365   21.2963 C   0  0  0  0  0  0  0  0  0  0  0  0
  -31.2772  -18.1002   23.1544 C   0  0  0  0  0  0  0  0  0  0  0  0
  -24.2805  -19.5464   20.7984 C   0  0  0  0  0  0  0  0  0  0  0  0
  -30.7294  -16.7590   22.6611 C   0  0  0  0  0  0  0  0  0  0  0  0
  -30.2314  -19.2097   23.0585 C   0  0  0  0  0  0  0  0  0  0  0  0
  -29.0617  -18.0229   21.2440 C   0  0  0  0  0  0  0  0  0  0  0  0
  -25.2110  -19.8805   21.9707 C   0  0  1  0  0  0  0  0  0  0  0  0
  -24.7845  -23.5553   22.8351 C   0  0  1  0  0  0  0  0  0  0  0  0
  -30.0992  -16.8884   21.2605 C   0  0  2  0  0  0  0  0  0  0  0  0
  -30.0862  -29.1870   17.7085 C   0  0  0  0  0  0  0  0  0  0  0  0
  -18.8853  -28.2820   21.1436 C   0  0  0  0  0  0  0  0  0  0  0  0
  -21.9934  -22.7515   19.2401 C   0  0  0  0  0  0  0  0  0  0  0  0
  -20.3188  -24.5475   18.7520 C   0  0  0  0  0  0  0  0  0  0  0  0
  -20.0008  -23.0501   20.7215 C   0  0  0  0  0  0  0  0  0  0  0  0
  -21.8822  -29.0874   23.3450 C   0  0  0  0  0  0  0  0  0  0  0  0
  -28.4578  -27.3989   18.3795 C   0  0  0  0  0  0  0  0  0  1  0  0
  -29.6937  -27.7199   17.5374 C   0  0  2  0  0  0  0  0  0  0  0  0
  -21.8122  -24.8127   20.7843 C   0  0  1  0  0  0  0  0  0  0  0  0
  -20.0975  -27.9651   22.0056 C   0  0  2  0  0  0  0  0  0  0  0  0
  -21.0584  -23.7970   19.8800 C   0  0  0  0  0  0  0  0  0  0  0  0
  -28.2163  -15.3126   21.0307 N   0  0  0  0  0  0  0  0  0  0  0  0
  -29.6976  -22.6647   18.8211 N   0  0  0  0  0  0  0  0  0  0  0  0
  -29.5115  -15.5731   20.7846 N   0  0  0  0  0  0  0  0  0  0  0  0
  -23.9647  -24.3410   21.9105 N   0  0  0  0  0  0  0  0  0  0  0  0
  -29.6815  -19.2760   21.7027 N   0  0  0  0  0  0  0  0  0  0  0  0
  -31.4609  -14.6766   19.7812 N   0  0  0  0  0  0  0  0  0  0  0  0
  -28.4846  -23.0358   15.4034 N   0  0  0  0  0  0  0  0  0  0  0  0
  -28.3642  -11.4610   19.0977 N   0  0  0  0  0  0  0  0  0  0  0  0
  -29.8874  -24.6853   17.5036 N   0  0  0  0  0  0  0  0  0  0  0  0
  -29.2478  -20.4125   19.6822 N   0  0  0  0  0  0  0  0  0  0  0  0
  -24.8465  -21.1517   22.5588 N   0  0  0  0  0  0  0  0  0  0  0  0
  -20.9482  -25.7982   21.4252 N   0  0  0  0  0  0  0  0  0  0  0  0
  -20.6942  -29.2501   22.4680 N   0  3  0  0  0  0  0  0  0  0  0  0
  -30.5596  -12.0329   18.7635 O   0  0  0  0  0  0  0  0  0  0  0  0
  -32.0445  -27.1275   17.8921 O   0  0  0  0  0  0  0  0  0  0  0  0
  -30.8946  -25.1891   19.5859 O   0  0  0  0  0  0  0  0  0  0  0  0
  -26.0271  -22.5360   21.1054 O   0  0  0  0  0  0  0  0  0  0  0  0
  -21.9667  -23.4564   22.7242 O   0  0  0  0  0  0  0  0  0  0  0  0
  -21.9934  -27.6682   20.5376 O   0  0  0  0  0  0  0  0  0  0  0  0
  -30.3126  -21.4846   21.4425 O   0  0  0  0  0  0  0  0  0  0  0  0
  -23.0353  -11.6240   20.7137 O   0  0  0  0  0  0  0  0  0  0  0  0
  -28.7568  -27.5780   19.7633 O   0  0  0  0  0  0  0  0  0  1  0  0
  -22.8759   -6.2911   22.1063 F   0  0  0  0  0  0  0  0  0  0  0  0
  -21.6416  -10.7826   22.9481 F   0  0  0  0  0  0  0  0  0  0  0  0
  -28.4970  -21.0388   17.2094 S   0  0  0  0  0  0  0  0  0  0  0  0
  1  2  1  0  0  0  0
  1  5  2  0  0  0  0
  2  6  2  0  0  0  0
  3  8  2  0  0  0  0
  3 15  1  0  0  0  0
  4  9  1  0  0  0  0
  4 15  2  0  0  0  0
  5 17  1  0  0  0  0
  6 19  1  0  0  0  0
  7 10  2  0  0  0  0
  7 18  1  0  0  0  0
  8 21  1  0  0  0  0
  9 21  2  0  0  0  0
 10 22  1  0  0  0  0
 11 12  2  0  0  0  0
 11 23  1  0  0  0  0
 12 24  1  0  0  0  0
 13 20  1  0  0  0  0
 13 22  2  0  0  0  0
 14 24  2  0  0  0  0
 14 25  1  0  0  0  0
 15 26  1  0  0  0  0
 16 26  1  0  0  0  0
 16 28  2  0  0  0  0
 16 31  1  0  0  0  0
 17 19  2  0  0  0  0
 17 38  1  0  0  0  0
 18 20  2  0  0  0  0
 18 39  1  0  0  0  0
 19 47  1  0  0  0  0
 20 40  1  0  0  0  0
 21 81  1  0  0  0  0
 22 82  1  0  0  0  0
 23 25  2  0  0  0  0
 23 81  1  0  0  0  0
 24 83  1  0  0  0  0
 25 84  1  0  0  0  0
 26 61  2  0  0  0  0
 27 29  2  0  0  0  0
 27 62  1  0  0  0  0
 27 69  1  0  0  0  0
 28 63  1  0  0  0  0
 28 66  1  0  0  0  0
 29 67  1  0  0  0  0
 29 85  1  0  0  0  0
 30 62  2  0  0  0  0
 30 70  1  0  0  0  0
 30 85  1  0  0  0  0
 31 68  1  0  0  0  0
 31 74  2  0  0  0  0
 32 33  1  0  0  0  0
 32 57  1  0  0  0  0
 32 75  2  0  0  0  0
 33 69  1  0  0  0  0
 33 76  2  0  0  0  0
 34 48  1  0  0  0  0
 34 71  1  0  0  0  0
 34 77  2  0  0  0  0
 35 58  1  0  0  0  0
 35 64  1  0  0  0  0
 35 78  2  0  0  0  0
 36 59  1  0  0  0  0
 36 72  1  0  0  0  0
 36 79  2  0  0  0  0
 37 65  1  0  0  0  0
 37 70  1  0  0  0  0
 37 80  2  0  0  0  0
 38 41  1  0  0  0  0
 39 48  1  0  0  0  0
 40 64  1  0  0  0  0
 41 43  1  0  0  0  0
 42 44  1  0  0  0  0
 42 45  1  0  0  0  0
 43 47  1  0  0  0  0
 44 49  1  0  0  0  0
 45 65  1  0  0  0  0
 46 49  1  0  0  0  0
 46 65  1  0  0  0  0
 47 71  1  0  0  0  0
 48 64  1  0  0  0  0
 49 63  1  0  0  0  0
 50 57  1  0  0  0  0
 51 59  1  0  0  0  0
 52 60  1  0  0  0  0
 53 60  1  0  0  0  0
 54 60  1  0  0  0  0
 55 73  1  0  0  0  0
 56 57  1  0  0  0  0
 56 82  1  0  0  0  0
 58 60  1  0  0  0  0
 58 72  1  0  0  0  0
 59 73  1  0  0  0  0
 61 63  1  0  0  0  0
M  CHG  1  73   1
M  ISO  4  37 100  56 101  70 100  82 101
M  END
> <Batch ID>
0183

> <Smiles>
CNC(C)C(=O)NC(C(=O)N1Cc2cc([101O:1][101CH2:1]C(C)C(=O)C(=O)Nc3nc([100NH:0][100C:0](=O)N4CCCC(n5nc(-c6ccc(Oc7ccc(F)cc7F)cc6)c(C(N)=O)c5N)C4)sc3N)ccc2CC1C(=O)NC1CCCc2ccccc21)C(C)(C)C

> <Shape>
0.243

> <Color>
0.091

> <Negative vol penalty>
0.000

$$$$

  -OEChem-04052304593D

 86 94  0     1  0  0  0  0  0999 V2000
  -16.6687  -28.0672   23.2398 C   0  0  0  0  0  0  0  0  0  0  0  0
  -17.5870  -27.7004   22.2612 C   0  0  0  0  0  0  0  0  0  0  0  0
  -26.1541  -13.1635   21.6772 C   0  0  0  0  0  0  0  0  0  0  0  0
  -25.4075  -13.7914   19.4669 C   0  0  0  0  0  0  0  0  0  0  0  0
  -17.0036  -29.0427   24.1779 C   0  0  0  0  0  0  0  0  0  0  0  0
  -18.8405  -28.3099   22.2196 C   0  0  0  0  0  0  0  0  0  0  0  0
  -24.1426  -25.7164   20.5863 C   0  0  0  0  0  0  0  0  0  0  0  0
  -25.2997  -12.0612   21.6527 C   0  0  0  0  0  0  0  0  0  0  0  0
  -24.5531  -12.6891   19.4424 C   0  0  0  0  0  0  0  0  0  0  0  0
  -24.8627  -25.7255   19.3925 C   0  0  0  0  0  0  0  0  0  0  0  0
  -22.0057  -11.4531   22.1044 C   0  0  0  0  0  0  0  0  0  0  0  0
  -21.2427  -11.1999   23.2443 C   0  0  0  0  0  0  0  0  0  0  0  0
  -26.2165  -27.5380   20.2300 C   0  0  0  0  0  0  0  0  0  0  0  0
  -22.2852   -9.0311   23.4602 C   0  0  0  0  0  0  0  0  0  0  0  0
  -31.3280  -23.3678   17.0073 C   0  0  0  0  0  0  0  0  0  0  0  0
  -26.2080  -14.0286   20.5844 C   0  0  0  0  0  0  0  0  0  0  0  0
  -28.4270  -15.2174   20.1717 C   0  0  0  0  0  0  0  0  0  0  0  0
  -18.2654  -29.6575   24.1537 C   0  0  0  0  0  0  0  0  0  0  0  0
  -24.4474  -26.6268   21.6084 C   0  0  0  0  0  0  0  0  0  0  0  0
  -19.1921  -29.2955   23.1575 C   0  0  0  0  0  0  0  0  0  0  0  0
  -25.5004  -27.5366   21.4368 C   0  0  0  0  0  0  0  0  0  0  0  0
  -24.4992  -11.8240   20.5353 C   0  0  0  0  0  0  0  0  0  0  0  0
  -25.8980  -26.6383   19.2131 C   0  0  0  0  0  0  0  0  0  0  0  0
  -22.9083  -10.4952   21.6423 C   0  0  0  0  0  0  0  0  0  0  0  0
  -21.3825   -9.9889   23.9222 C   0  0  0  0  0  0  0  0  0  0  0  0
  -23.0481   -9.2842   22.3203 C   0  0  0  0  0  0  0  0  0  0  0  0
  -27.0899  -15.1678   20.6094 C   0  0  0  0  0  0  0  0  0  0  0  0
  -30.7753  -24.3055   17.8543 C   0  0  0  0  0  0  0  0  0  0  0  0
  -28.8174  -16.5131   20.4069 C   0  0  0  0  0  0  0  0  0  0  0  0
  -29.6467  -22.5489   18.5256 C   0  0  0  0  0  0  0  0  0  0  0  0
  -29.2431  -14.1847   19.6031 C   0  0  0  0  0  0  0  0  0  0  0  0
  -22.8716  -28.9688   23.0698 C   0  0  0  0  0  0  0  0  0  0  0  0
  -28.7864  -26.3746   17.0450 C   0  0  0  0  0  0  0  0  0  0  0  0
  -25.5126  -29.0444   24.9517 C   0  0  0  0  0  0  0  0  0  0  0  0
  -28.8389  -28.3679   25.3048 C   0  0  0  0  0  0  0  0  0  0  0  0
  -32.0176  -27.1810   19.5844 C   0  0  0  0  0  0  0  0  0  0  0  0
  -27.8677  -21.9964   20.2216 C   0  0  0  0  0  0  0  0  0  0  0  0
  -18.5646  -30.7407   25.1596 C   0  0  0  0  0  0  0  0  0  0  0  0
  -23.6786  -26.5863   22.9005 C   0  0  0  0  0  0  0  0  0  0  0  0
  -25.8806  -28.5213   22.5112 C   0  0  0  0  0  0  0  0  0  0  0  0
  -20.0506  -31.0700   25.2762 C   0  0  0  0  0  0  0  0  0  0  0  0
  -26.5499  -20.2157   23.0090 C   0  0  0  0  0  0  0  0  0  0  0  0
  -20.6739  -31.2217   23.8923 C   0  0  0  0  0  0  0  0  0  0  0  0
  -26.6829  -18.7477   22.5972 C   0  0  0  0  0  0  0  0  0  0  0  0
  -26.1879  -21.1071   21.8223 C   0  0  0  0  0  0  0  0  0  0  0  0
  -27.2055  -19.5112   20.2453 C   0  0  0  0  0  0  0  0  0  0  0  0
  -20.5710  -29.9160   23.0947 C   0  0  1  0  0  0  0  0  0  0  0  0
  -23.7389  -27.9004   23.6731 C   0  0  1  0  0  0  0  0  0  0  0  0
  -27.6329  -18.5837   21.3946 C   0  0  2  0  0  0  0  0  0  0  0  0
  -31.8581  -27.5599   21.0256 C   0  0  0  0  0  0  0  0  0  0  0  0
  -30.7739  -26.7142   15.5546 C   0  0  0  0  0  0  0  0  0  0  0  0
  -30.7286  -28.5767   26.9427 C   0  0  0  0  0  0  0  0  0  0  0  0
  -25.7092  -32.0274   24.3410 C   0  0  0  0  0  0  0  0  0  0  0  0
  -28.0660  -31.9737   25.1843 C   0  0  0  0  0  0  0  0  0  0  0  0
  -26.1808  -31.4163   26.7198 C   0  0  0  0  0  0  0  0  0  0  0  0
  -29.2399  -25.4370   25.3928 C   0  0  0  0  0  0  0  0  0  0  0  0
  -27.9654  -27.0654   18.1180 C   0  0  0  0  0  0  0  0  0  1  0  0
  -31.1356  -25.7755   17.9020 C   0  0  1  0  0  0  0  0  0  0  0  0
  -30.2833  -26.7009   17.0046 C   0  0  2  0  0  0  0  0  0  0  0  0
  -26.8335  -29.7743   24.9115 C   0  0  1  0  0  0  0  0  0  0  0  0
  -29.6155  -27.6845   26.4158 C   0  0  2  0  0  0  0  0  0  0  0  0
  -26.6892  -31.2808   25.2680 C   0  0  0  0  0  0  0  0  0  0  0  0
  -26.6598  -16.3387   21.0867 N   0  0  0  0  0  0  0  0  0  0  0  0
  -29.8108  -23.8378   18.7254 N   0  0  0  0  0  0  0  0  0  0  0  0
  -27.7328  -17.1363   20.9504 N   0  0  0  0  0  0  0  0  0  0  0  0
  -25.0951  -28.4467   23.7542 N   0  0  0  0  0  0  0  0  0  0  0  0
  -27.1333  -20.9009   20.7229 N   0  0  0  0  0  0  0  0  0  0  0  0
  -29.9793  -17.1686   20.2000 N   0  0  0  0  0  0  0  0  0  0  0  0
  -28.6847  -12.9108   19.4306 N   0  0  0  0  0  0  0  0  0  0  0  0
  -28.7592  -21.6734   19.1991 N   0  0  0  0  0  0  0  0  0  0  0  0
  -21.5724  -28.9712   23.5405 N   0  0  0  0  0  0  0  0  0  0  0  0
  -27.7346  -29.0361   25.7898 N   0  0  0  0  0  0  0  0  0  0  0  0
  -30.2237  -26.4178   25.9192 N   0  3  0  0  0  0  0  0  0  0  0  0
  -30.4373  -14.3814   19.2735 O   0  0  0  0  0  0  0  0  0  0  0  0
  -23.3463  -29.7352   22.2397 O   0  0  0  0  0  0  0  0  0  0  0  0
  -28.2710  -25.5859   16.2515 O   0  0  0  0  0  0  0  0  0  0  0  0
  -24.8781  -29.0000   26.0087 O   0  0  0  0  0  0  0  0  0  0  0  0
  -29.1801  -28.3175   24.1251 O   0  0  0  0  0  0  0  0  0  0  0  0
  -32.8558  -27.6666   18.8370 O   0  0  0  0  0  0  0  0  0  0  0  0
  -27.7367  -23.1322   20.6850 O   0  0  0  0  0  0  0  0  0  0  0  0
  -23.6656  -10.7484   20.5109 O   0  0  0  0  0  0  0  0  0  0  0  0
  -26.6020  -26.6497   18.0486 O   0  0  0  0  0  0  0  0  0  1  0  0
  -31.0958  -26.2303   19.2565 O   0  0  0  0  0  0  0  0  0  0  0  0
  -20.6509   -9.7466   25.0178 F   0  0  0  0  0  0  0  0  0  0  0  0
  -23.9144   -8.3607   21.8818 F   0  0  0  0  0  0  0  0  0  0  0  0
  -30.6201  -21.8345   17.3061 S   0  0  0  0  0  0  0  0  0  0  0  0
  1  2  1  0  0  0  0
  1  5  2  0  0  0  0
  2  6  2  0  0  0  0
  3  8  2  0  0  0  0
  3 16  1  0  0  0  0
  4  9  1  0  0  0  0
  4 16  2  0  0  0  0
  5 18  1  0  0  0  0
  6 20  1  0  0  0  0
  7 10  2  0  0  0  0
  7 19  1  0  0  0  0
  8 22  1  0  0  0  0
  9 22  2  0  0  0  0
 10 23  1  0  0  0  0
 11 12  2  0  0  0  0
 11 24  1  0  0  0  0
 12 25  1  0  0  0  0
 13 21  1  0  0  0  0
 13 23  2  0  0  0  0
 14 25  2  0  0  0  0
 14 26  1  0  0  0  0
 15 28  2  0  0  0  0
 15 86  1  0  0  0  0
 16 27  1  0  0  0  0
 17 27  1  0  0  0  0
 17 29  2  0  0  0  0
 17 31  1  0  0  0  0
 18 20  2  0  0  0  0
 18 38  1  0  0  0  0
 19 21  2  0  0  0  0
 19 39  1  0  0  0  0
 20 47  1  0  0  0  0
 21 40  1  0  0  0  0
 22 81  1  0  0  0  0
 23 82  1  0  0  0  0
 24 26  2  0  0  0  0
 24 81  1  0  0  0  0
 25 84  1  0  0  0  0
 26 85  1  0  0  0  0
 27 63  2  0  0  0  0
 28 58  1  0  0  0  0
 28 64  1  0  0  0  0
 29 65  1  0  0  0  0
 29 68  1  0  0  0  0
 30 64  2  0  0  0  0
 30 70  1  0  0  0  0
 30 86  1  0  0  0  0
 31 69  1  0  0  0  0
 31 74  2  0  0  0  0
 32 48  1  0  0  0  0
 32 71  1  0  0  0  0
 32 75  2  0  0  0  0
 33 57  1  0  0  0  0
 33 59  1  0  0  0  0
 33 76  2  0  0  0  0
 34 60  1  0  0  0  0
 34 66  1  0  0  0  0
 34 77  2  0  0  0  0
 35 61  1  0  0  0  0
 35 72  1  0  0  0  0
 35 78  2  0  0  0  0
 36 50  1  0  0  0  0
 36 79  2  0  0  0  0
 36 83  1  0  0  0  0
 37 67  1  0  0  0  0
 37 70  1  0  0  0  0
 37 80  2  0  0  0  0
 38 41  1  0  0  0  0
 39 48  1  0  0  0  0
 40 66  1  0  0  0  0
 41 43  1  0  0  0  0
 42 44  1  0  0  0  0
 42 45  1  0  0  0  0
 43 47  1  0  0  0  0
 44 49  1  0  0  0  0
 45 67  1  0  0  0  0
 46 49  1  0  0  0  0
 46 67  1  0  0  0  0
 47 71  1  0  0  0  0
 48 66  1  0  0  0  0
 49 65  1  0  0  0  0
 51 59  1  0  0  0  0
 52 61  1  0  0  0  0
 53 62  1  0  0  0  0
 54 62  1  0  0  0  0
 55 62  1  0  0  0  0
 56 73  1  0  0  0  0
 57 82  1  0  0  0  0
 58 59  1  0  0  0  0
 58 83  1  0  0  0  0
 60 62  1  0  0  0  0
 60 72  1  0  0  0  0
 61 73  1  0  0  0  0
 63 65  1  0  0  0  0
M  CHG  1  73   1
M  ISO  4  37 100  57 101  70 100  82 101
M  END
> <Batch ID>
0183

> <Smiles>
CNC(C)C(=O)NC(C(=O)N1Cc2cc([101O:1][101CH2:1]C(=O)C(C)C(OC(C)=O)c3csc([100NH:0][100C:0](=O)N4CCCC(n5nc(-c6ccc(Oc7ccc(F)cc7F)cc6)c(C(N)=O)c5N)C4)n3)ccc2CC1C(=O)NC1CCCc2ccccc21)C(C)(C)C

> <Shape>
0.297

> <Color>
0.071

> <Negative vol penalty>
0.000

$$$$

  -OEChem-04052304593D

 90 98  0     1  0  0  0  0  0999 V2000
  -24.3309  -34.8478   14.4262 C   0  0  0  0  0  0  0  0  0  0  0  0
  -24.4991  -33.4903   14.6800 C   0  0  0  0  0  0  0  0  0  0  0  0
  -23.1801   -9.8013   21.1971 C   0  0  0  0  0  0  0  0  0  0  0  0
  -23.9230  -10.5688   23.3641 C   0  0  0  0  0  0  0  0  0  0  0  0
  -25.0527  -35.7878   15.1607 C   0  0  0  0  0  0  0  0  0  0  0  0
  -25.3900  -33.0720   15.6677 C   0  0  0  0  0  0  0  0  0  0  0  0
  -24.7838  -28.2216   19.3572 C   0  0  0  0  0  0  0  0  0  0  0  0
  -22.4956   -8.7487   21.8045 C   0  0  0  0  0  0  0  0  0  0  0  0
  -23.2385   -9.5162   23.9716 C   0  0  0  0  0  0  0  0  0  0  0  0
  -25.3110  -26.9319   19.3053 C   0  0  0  0  0  0  0  0  0  0  0  0
  -23.2379   -5.7245   23.1191 C   0  0  0  0  0  0  0  0  0  0  0  0
  -23.3646   -4.4567   22.5515 C   0  0  0  0  0  0  0  0  0  0  0  0
  -27.0919  -27.6068   20.7858 C   0  0  0  0  0  0  0  0  0  0  0  0
  -20.9771   -4.3803   22.1892 C   0  0  0  0  0  0  0  0  0  0  0  0
  -23.8939  -10.7113   21.9768 C   0  0  0  0  0  0  0  0  0  0  0  0
  -24.1046  -13.0845   21.0650 C   0  0  0  0  0  0  0  0  0  0  0  0
  -25.9458  -35.3810   16.1646 C   0  0  0  0  0  0  0  0  0  0  0  0
  -25.4140  -29.2181   20.1164 C   0  0  0  0  0  0  0  0  0  0  0  0
  -26.1254  -34.0073   16.4154 C   0  0  0  0  0  0  0  0  0  0  0  0
  -26.5694  -28.9076   20.8477 C   0  0  0  0  0  0  0  0  0  0  0  0
  -22.5247   -8.6061   23.1918 C   0  0  0  0  0  0  0  0  0  0  0  0
  -26.4668  -26.6251   20.0174 C   0  0  0  0  0  0  0  0  0  0  0  0
  -21.9808   -6.3202   23.2218 C   0  0  0  0  0  0  0  0  0  0  0  0
  -22.2343   -3.7846   22.0865 C   0  0  0  0  0  0  0  0  0  0  0  0
  -20.8504   -5.6481   22.7569 C   0  0  0  0  0  0  0  0  0  0  0  0
  -24.6017  -11.7986   21.3499 C   0  0  0  0  0  0  0  0  0  0  0  0
  -30.3028  -19.8998   21.1141 C   0  0  0  0  0  0  0  0  0  0  0  0
  -31.4273  -19.3737   20.5135 C   0  0  0  0  0  0  0  0  0  0  0  0
  -25.1587  -13.7368   20.4735 C   0  0  0  0  0  0  0  0  0  0  0  0
  -30.2855  -17.5174   20.7590 C   0  0  0  0  0  0  0  0  0  0  0  0
  -22.8062  -13.6397   21.3130 C   0  0  0  0  0  0  0  0  0  0  0  0
  -29.9659  -21.2992   21.4821 C   0  0  0  0  0  0  0  0  0  0  0  0
  -26.7724  -32.0158   19.4598 C   0  0  0  0  0  0  0  0  0  0  0  0
  -27.5494  -23.4085   21.2757 C   0  0  0  0  0  0  0  0  0  0  0  0
  -26.9737  -32.2350   22.6900 C   0  0  0  0  0  0  0  0  0  0  0  0
  -33.7106  -19.6908   19.5084 C   0  0  0  0  0  0  0  0  0  0  0  0
  -27.0836  -30.6329   25.7013 C   0  0  0  0  0  0  0  0  0  0  0  0
  -30.5618  -15.0644   20.2561 C   0  0  0  0  0  0  0  0  0  0  0  0
  -26.7390  -36.4321   16.8999 C   0  0  0  0  0  0  0  0  0  0  0  0
  -24.8178  -30.5974   20.1833 C   0  0  0  0  0  0  0  0  0  0  0  0
  -27.2724  -29.9362   21.6940 C   0  0  0  0  0  0  0  0  0  0  0  0
  -27.3843  -35.9200   18.1851 C   0  0  0  0  0  0  0  0  0  0  0  0
  -29.5906  -11.9740   18.7786 C   0  0  0  0  0  0  0  0  0  0  0  0
  -28.0729  -34.5811   17.9399 C   0  0  0  0  0  0  0  0  0  0  0  0
  -28.1652  -11.7586   19.2924 C   0  0  0  0  0  0  0  0  0  0  0  0
  -30.4844  -12.6161   19.8381 C   0  0  0  0  0  0  0  0  0  0  0  0
  -28.5330  -13.6391   20.9403 C   0  0  0  0  0  0  0  0  0  0  0  0
  -27.0640  -33.5151   17.4956 C   0  0  1  0  0  0  0  0  0  0  0  0
  -25.8308  -31.6677   20.5778 C   0  0  1  0  0  0  0  0  0  0  0  0
  -27.5785  -13.0542   19.8865 C   0  0  2  0  0  0  0  0  0  0  0  0
  -34.6618  -20.8300   19.2405 C   0  0  0  0  0  0  0  0  0  0  0  0
  -27.2883  -31.0770   28.1626 C   0  0  0  0  0  0  0  0  0  0  0  0
  -29.9571  -32.7722   22.3424 C   0  0  0  0  0  0  0  0  0  0  0  0
  -30.2611  -32.2635   24.7749 C   0  0  0  0  0  0  0  0  0  0  0  0
  -28.8370  -34.1876   24.0733 C   0  0  0  0  0  0  0  0  0  0  0  0
  -24.4465  -29.4108   26.2590 C   0  0  0  0  0  0  0  0  0  0  0  0
  -27.6915  -24.9102   21.1197 C   0  0  0  0  0  0  0  0  0  1  0  0
  -28.2497  -22.7903   22.4758 C   0  0  1  0  0  0  0  0  0  0  0  0
  -27.9926  -31.8297   23.7276 C   0  0  1  0  0  0  0  0  0  0  0  0
  -26.3318  -30.8730   26.9980 C   0  0  2  0  0  0  0  0  0  0  0  0
  -27.3134  -22.7131   23.6639 C   0  0  0  0  0  0  0  0  0  0  0  0
  -29.2500  -32.7441   23.7121 C   0  0  0  0  0  0  0  0  0  0  0  0
  -25.8726  -11.6413   20.9704 N   0  0  0  0  0  0  0  0  0  0  0  0
  -31.4194  -18.0077   20.3095 N   0  0  0  0  0  0  0  0  0  0  0  0
  -26.1831  -12.8369   20.4410 N   0  0  0  0  0  0  0  0  0  0  0  0
  -26.6543  -31.2721   21.7221 N   0  0  0  0  0  0  0  0  0  0  0  0
  -29.8666  -13.8404   20.3522 N   0  0  0  0  0  0  0  0  0  0  0  0
  -25.3000  -14.9866   19.9832 N   0  0  0  0  0  0  0  0  0  0  0  0
  -21.8407  -12.8320   21.9292 N   0  0  0  0  0  0  0  0  0  0  0  0
  -32.5183  -20.1240   20.1260 N   0  0  0  0  0  0  0  0  0  0  0  0
  -29.8617  -16.1653   20.7484 N   0  0  0  0  0  0  0  0  0  0  0  0
  -28.7289  -21.4909   22.0841 N   0  0  0  0  0  0  0  0  0  0  0  0
  -26.3150  -33.0233   18.6321 N   0  0  0  0  0  0  0  0  0  0  0  0
  -27.2873  -31.8051   25.0044 N   0  0  0  0  0  0  0  0  0  0  0  0
  -25.4527  -29.7108   27.3100 N   0  3  0  0  0  0  0  0  0  0  0  0
  -22.5058  -14.8120   20.9826 O   0  0  0  0  0  0  0  0  0  0  0  0
  -30.7648  -22.1960   21.2252 O   0  0  0  0  0  0  0  0  0  0  0  0
  -27.8359  -31.4158   19.3567 O   0  0  0  0  0  0  0  0  0  0  0  0
  -26.8750  -22.7371   20.4944 O   0  0  0  0  0  0  0  0  0  0  0  0
  -26.4742  -33.3617   22.7407 O   0  0  0  0  0  0  0  0  0  0  0  0
  -34.0033  -18.5413   19.1954 O   0  0  0  0  0  0  0  0  0  0  0  0
  -27.4563  -29.5175   25.3442 O   0  0  0  0  0  0  0  0  0  0  0  0
  -31.6838  -15.1353   19.7479 O   0  0  0  0  0  0  0  0  0  0  0  0
  -21.8567   -7.5793   23.7849 O   0  0  0  0  0  0  0  0  0  0  0  0
  -26.9838  -25.3673   19.9679 O   0  0  0  0  0  0  0  0  0  1  0  0
  -22.3563   -2.5678   21.5400 F   0  0  0  0  0  0  0  0  0  0  0  0
  -19.6402   -6.2158   22.8518 F   0  0  0  0  0  0  0  0  0  0  0  0
  -26.2465  -21.9264   23.3756 F   0  0  0  0  0  0  0  0  0  0  0  0
  -27.9523  -22.1375   24.7133 F   0  0  0  0  0  0  0  0  0  0  0  0
  -29.1826  -18.6425   21.4393 S   0  0  0  0  0  0  0  0  0  0  0  0
  1  2  1  0  0  0  0
  1  5  2  0  0  0  0
  2  6  2  0  0  0  0
  3  8  2  0  0  0  0
  3 15  1  0  0  0  0
  4  9  1  0  0  0  0
  4 15  2  0  0  0  0
  5 17  1  0  0  0  0
  6 19  1  0  0  0  0
  7 10  2  0  0  0  0
  7 18  1  0  0  0  0
  8 21  1  0  0  0  0
  9 21  2  0  0  0  0
 10 22  1  0  0  0  0
 11 12  2  0  0  0  0
 11 23  1  0  0  0  0
 12 24  1  0  0  0  0
 13 20  1  0  0  0  0
 13 22  2  0  0  0  0
 14 24  2  0  0  0  0
 14 25  1  0  0  0  0
 15 26  1  0  0  0  0
 16 26  1  0  0  0  0
 16 29  2  0  0  0  0
 16 31  1  0  0  0  0
 17 19  2  0  0  0  0
 17 39  1  0  0  0  0
 18 20  2  0  0  0  0
 18 40  1  0  0  0  0
 19 48  1  0  0  0  0
 20 41  1  0  0  0  0
 21 84  1  0  0  0  0
 22 85  1  0  0  0  0
 23 25  2  0  0  0  0
 23 84  1  0  0  0  0
 24 86  1  0  0  0  0
 25 87  1  0  0  0  0
 26 63  2  0  0  0  0
 27 28  2  0  0  0  0
 27 32  1  0  0  0  0
 27 90  1  0  0  0  0
 28 64  1  0  0  0  0
 28 70  1  0  0  0  0
 29 65  1  0  0  0  0
 29 68  1  0  0  0  0
 30 64  2  0  0  0  0
 30 71  1  0  0  0  0
 30 90  1  0  0  0  0
 31 69  1  0  0  0  0
 31 76  2  0  0  0  0
 32 72  1  0  0  0  0
 32 77  2  0  0  0  0
 33 49  1  0  0  0  0
 33 73  1  0  0  0  0
 33 78  2  0  0  0  0
 34 57  1  0  0  0  0
 34 58  1  0  0  0  0
 34 79  2  0  0  0  0
 35 59  1  0  0  0  0
 35 66  1  0  0  0  0
 35 80  2  0  0  0  0
 36 51  1  0  0  0  0
 36 70  1  0  0  0  0
 36 81  2  0  0  0  0
 37 60  1  0  0  0  0
 37 74  1  0  0  0  0
 37 82  2  0  0  0  0
 38 67  1  0  0  0  0
 38 71  1  0  0  0  0
 38 83  2  0  0  0  0
 39 42  1  0  0  0  0
 40 49  1  0  0  0  0
 41 66  1  0  0  0  0
 42 44  1  0  0  0  0
 43 45  1  0  0  0  0
 43 46  1  0  0  0  0
 44 48  1  0  0  0  0
 45 50  1  0  0  0  0
 46 67  1  0  0  0  0
 47 50  1  0  0  0  0
 47 67  1  0  0  0  0
 48 73  1  0  0  0  0
 49 66  1  0  0  0  0
 50 65  1  0  0  0  0
 52 60  1  0  0  0  0
 53 62  1  0  0  0  0
 54 62  1  0  0  0  0
 55 62  1  0  0  0  0
 56 75  1  0  0  0  0
 57 85  1  0  0  0  0
 58 61  1  0  0  0  0
 58 72  1  0  0  0  0
 59 62  1  0  0  0  0
 59 74  1  0  0  0  0
 60 75  1  0  0  0  0
 61 88  1  0  0  0  0
 61 89  1  0  0  0  0
 63 65  1  0  0  0  0
M  CHG  1  75   1
M  ISO  4  38 100  57 101  71 100  85 101
M  END
> <Batch ID>
0183

> <Smiles>
CNC(C)C(=O)NC(C(=O)N1Cc2cc([101O:1][101CH2:1]C(=O)C(NC(=O)c3sc([100NH:0][100C:0](=O)N4CCCC(n5nc(-c6ccc(Oc7ccc(F)cc7F)cc6)c(C(N)=O)c5N)C4)nc3NC(C)=O)C(F)F)ccc2CC1C(=O)NC1CCCc2ccccc21)C(C)(C)C

> <Shape>
0.290

> <Color>
0.169

> <Negative vol penalty>
0.000

$$$$

  -OEChem-04052304593D

 86 94  0     1  0  0  0  0  0999 V2000
  -18.3699  -21.7129   22.3271 C   0  0  0  0  0  0  0  0  0  0  0  0
  -19.7424  -21.9395   22.3103 C   0  0  0  0  0  0  0  0  0  0  0  0
  -23.2240   -9.7172   20.5748 C   0  0  0  0  0  0  0  0  0  0  0  0
  -23.8777  -10.2679   22.8345 C   0  0  0  0  0  0  0  0  0  0  0  0
  -17.5096  -22.6037   21.6865 C   0  0  0  0  0  0  0  0  0  0  0  0
  -20.2555  -23.0564   21.6517 C   0  0  0  0  0  0  0  0  0  0  0  0
  -23.7949  -25.4555   24.3650 C   0  0  0  0  0  0  0  0  0  0  0  0
  -22.5287   -8.6041   21.0472 C   0  0  0  0  0  0  0  0  0  0  0  0
  -23.1824   -9.1548   23.3070 C   0  0  0  0  0  0  0  0  0  0  0  0
  -25.0701  -24.8923   24.3880 C   0  0  0  0  0  0  0  0  0  0  0  0
  -19.9747   -8.3174   23.9625 C   0  0  0  0  0  0  0  0  0  0  0  0
  -19.1684   -8.4884   25.0878 C   0  0  0  0  0  0  0  0  0  0  0  0
  -25.7954  -26.4814   22.7243 C   0  0  0  0  0  0  0  0  0  0  0  0
  -20.4714   -6.8346   26.2727 C   0  0  0  0  0  0  0  0  0  0  0  0
  -23.8985  -10.5491   21.4685 C   0  0  0  0  0  0  0  0  0  0  0  0
  -24.1174  -13.0034   20.8080 C   0  0  0  0  0  0  0  0  0  0  0  0
  -18.0116  -23.7372   21.0281 C   0  0  0  0  0  0  0  0  0  0  0  0
  -23.5070  -26.5307   23.5121 C   0  0  0  0  0  0  0  0  0  0  0  0
  -19.4012  -23.9624   21.0006 C   0  0  0  0  0  0  0  0  0  0  0  0
  -24.5165  -27.0581   22.6942 C   0  0  0  0  0  0  0  0  0  0  0  0
  -22.5079   -8.3229   22.4133 C   0  0  0  0  0  0  0  0  0  0  0  0
  -26.0698  -25.4033   23.5655 C   0  0  0  0  0  0  0  0  0  0  0  0
  -21.0293   -7.4050   23.9923 C   0  0  0  0  0  0  0  0  0  0  0  0
  -19.4167   -7.7470   26.2429 C   0  0  0  0  0  0  0  0  0  0  0  0
  -21.2777   -6.6636   25.1474 C   0  0  0  0  0  0  0  0  0  0  0  0
  -24.6174  -11.6988   20.9811 C   0  0  0  0  0  0  0  0  0  0  0  0
  -31.3877  -19.3670   21.1705 C   0  0  0  0  0  0  0  0  0  0  0  0
  -25.1857  -13.7192   20.3254 C   0  0  0  0  0  0  0  0  0  0  0  0
  -30.2364  -19.8214   21.7789 C   0  0  0  0  0  0  0  0  0  0  0  0
  -30.2575  -17.4875   21.1831 C   0  0  0  0  0  0  0  0  0  0  0  0
  -27.4420  -23.5344   23.2572 C   0  0  0  0  0  0  0  0  0  1  0  0
  -22.8048  -13.5218   21.0609 C   0  0  0  0  0  0  0  0  0  0  0  0
  -28.6171  -22.8937   23.2439 C   0  0  0  0  0  0  0  0  0  0  0  0
  -28.6501  -21.4425   22.8680 C   0  0  0  0  0  0  0  0  0  0  0  0
  -21.5137  -26.9929   21.0796 C   0  0  0  0  0  0  0  0  0  0  0  0
  -22.5889  -30.0464   21.2861 C   0  0  0  0  0  0  0  0  0  0  0  0
  -25.0605  -32.1879   22.2618 C   0  0  0  0  0  0  0  0  0  0  0  0
  -30.5786  -15.0996   20.4475 C   0  0  0  0  0  0  0  0  0  0  0  0
  -17.0463  -24.6463   20.3094 C   0  0  0  0  0  0  0  0  0  0  0  0
  -22.1337  -27.1443   23.5186 C   0  0  0  0  0  0  0  0  0  0  0  0
  -24.2642  -28.2245   21.7754 C   0  0  0  0  0  0  0  0  0  0  0  0
  -17.6405  -26.0067   19.9537 C   0  0  0  0  0  0  0  0  0  0  0  0
  -29.6960  -12.1668   18.6317 C   0  0  0  0  0  0  0  0  0  0  0  0
  -19.0238  -25.8391   19.3329 C   0  0  0  0  0  0  0  0  0  0  0  0
  -28.2550  -11.8909   19.0668 C   0  0  0  0  0  0  0  0  0  0  0  0
  -30.5430  -12.7052   19.7835 C   0  0  0  0  0  0  0  0  0  0  0  0
  -28.5412  -13.5986   20.9077 C   0  0  0  0  0  0  0  0  0  0  0  0
  -19.9940  -25.1760   20.3180 C   0  0  1  0  0  0  0  0  0  0  0  0
  -21.8130  -27.9049   22.2356 C   0  0  1  0  0  0  0  0  0  0  0  0
  -27.6328  -13.1160   19.7651 C   0  0  2  0  0  0  0  0  0  0  0  0
  -25.6709  -34.6220   22.2632 C   0  0  0  0  0  0  0  0  0  0  0  0
  -23.2707  -29.8747   18.3170 C   0  0  0  0  0  0  0  0  0  0  0  0
  -24.7046  -31.9074   18.6000 C   0  0  0  0  0  0  0  0  0  0  0  0
  -22.2512  -32.0443   19.0294 C   0  0  0  0  0  0  0  0  0  0  0  0
  -25.1700  -32.2779   25.2179 C   0  0  0  0  0  0  0  0  0  0  0  0
  -23.7310  -30.8213   20.6745 C   0  0  1  0  0  0  0  0  0  0  0  0
  -25.0154  -33.4906   23.0398 C   0  0  2  0  0  0  0  0  0  0  0  0
  -32.5841  -20.1761   20.8598 C   0  0  0  0  0  0  0  0  0  0  0  0
  -23.4939  -31.1387   19.1710 C   0  0  0  0  0  0  0  0  0  0  0  0
  -25.9031  -11.5894   20.6363 N   0  0  0  0  0  0  0  0  0  0  0  0
  -31.4018  -18.0288   20.8286 N   0  0  0  0  0  0  0  0  0  0  0  0
  -26.2201  -12.8343   20.2417 N   0  0  0  0  0  0  0  0  0  0  0  0
  -22.9037  -28.7859   21.8132 N   0  0  0  0  0  0  0  0  0  0  0  0
  -29.8935  -13.8673   20.3939 N   0  0  0  0  0  0  0  0  0  0  0  0
  -25.3317  -15.0130   19.9686 N   0  0  0  0  0  0  0  0  0  0  0  0
  -21.8259  -12.6495   21.5559 N   0  0  0  0  0  0  0  0  0  0  0  0
  -29.8500  -21.0945   22.2630 N   0  0  0  0  0  0  0  0  0  0  0  0
  -29.8489  -16.1405   21.0208 N   0  0  0  0  0  0  0  0  0  0  0  0
  -20.4523  -26.1358   21.2994 N   0  0  0  0  0  0  0  0  0  0  0  0
  -23.9185  -32.0011   21.5119 N   0  0  0  0  0  0  0  0  0  0  0  0
  -25.7253  -33.3413   24.3416 N   0  3  0  0  0  0  0  0  0  0  0  0
  -22.5044  -14.7192   20.8385 O   0  0  0  0  0  0  0  0  0  0  0  0
  -27.6940  -20.7100   23.0987 O   0  0  0  0  0  0  0  0  0  0  0  0
  -22.1943  -27.0628   20.0630 O   0  0  0  0  0  0  0  0  0  0  0  0
  -21.4604  -30.5442   21.3022 O   0  0  0  0  0  0  0  0  0  0  0  0
  -26.0150  -31.4152   22.3111 O   0  0  0  0  0  0  0  0  0  0  0  0
  -31.7177  -15.2291   19.9920 O   0  0  0  0  0  0  0  0  0  0  0  0
  -29.8062  -23.5175   23.5623 O   0  0  0  0  0  0  0  0  0  0  0  0
  -21.8294   -7.2369   22.8746 O   0  0  0  0  0  0  0  0  0  0  0  0
  -27.3151  -24.8550   23.5855 O   0  0  0  0  0  0  0  0  0  1  0  0
  -18.6433   -7.9125   27.3239 F   0  0  0  0  0  0  0  0  0  0  0  0
  -22.2901   -5.7864   25.1825 F   0  0  0  0  0  0  0  0  0  0  0  0
  -32.4842  -21.4923   21.2328 F   0  0  0  0  0  0  0  0  0  0  0  0
  -33.7327  -19.7342   21.4652 F   0  0  0  0  0  0  0  0  0  0  0  0
  -32.8798  -20.2095   19.5221 F   0  0  0  0  0  0  0  0  0  0  0  0
  -29.1185  -18.5298   21.9323 S   0  0  0  0  0  0  0  0  0  0  0  0
  1  2  1  0  0  0  0
  1  5  2  0  0  0  0
  2  6  2  0  0  0  0
  3  8  2  0  0  0  0
  3 15  1  0  0  0  0
  4  9  1  0  0  0  0
  4 15  2  0  0  0  0
  5 17  1  0  0  0  0
  6 19  1  0  0  0  0
  7 10  2  0  0  0  0
  7 18  1  0  0  0  0
  8 21  1  0  0  0  0
  9 21  2  0  0  0  0
 10 22  1  0  0  0  0
 11 12  2  0  0  0  0
 11 23  1  0  0  0  0
 12 24  1  0  0  0  0
 13 20  1  0  0  0  0
 13 22  2  0  0  0  0
 14 24  2  0  0  0  0
 14 25  1  0  0  0  0
 15 26  1  0  0  0  0
 16 26  1  0  0  0  0
 16 28  2  0  0  0  0
 16 32  1  0  0  0  0
 17 19  2  0  0  0  0
 17 39  1  0  0  0  0
 18 20  2  0  0  0  0
 18 40  1  0  0  0  0
 19 48  1  0  0  0  0
 20 41  1  0  0  0  0
 21 79  1  0  0  0  0
 22 80  1  0  0  0  0
 23 25  2  0  0  0  0
 23 79  1  0  0  0  0
 24 81  1  0  0  0  0
 25 82  1  0  0  0  0
 26 60  2  0  0  0  0
 27 29  2  0  0  0  0
 27 58  1  0  0  0  0
 27 61  1  0  0  0  0
 28 62  1  0  0  0  0
 28 65  1  0  0  0  0
 29 67  1  0  0  0  0
 29 86  1  0  0  0  0
 30 61  2  0  0  0  0
 30 68  1  0  0  0  0
 30 86  1  0  0  0  0
 31 33  2  0  0  0  0
 31 80  1  0  0  0  0
 32 66  1  0  0  0  0
 32 72  2  0  0  0  0
 33 34  1  0  0  0  0
 33 78  1  0  0  0  0
 34 67  1  0  0  0  0
 34 73  2  0  0  0  0
 35 49  1  0  0  0  0
 35 69  1  0  0  0  0
 35 74  2  0  0  0  0
 36 56  1  0  0  0  0
 36 63  1  0  0  0  0
 36 75  2  0  0  0  0
 37 57  1  0  0  0  0
 37 70  1  0  0  0  0
 37 76  2  0  0  0  0
 38 64  1  0  0  0  0
 38 68  1  0  0  0  0
 38 77  2  0  0  0  0
 39 42  1  0  0  0  0
 40 49  1  0  0  0  0
 41 63  1  0  0  0  0
 42 44  1  0  0  0  0
 43 45  1  0  0  0  0
 43 46  1  0  0  0  0
 44 48  1  0  0  0  0
 45 50  1  0  0  0  0
 46 64  1  0  0  0  0
 47 50  1  0  0  0  0
 47 64  1  0  0  0  0
 48 69  1  0  0  0  0
 49 63  1  0  0  0  0
 50 62  1  0  0  0  0
 51 57  1  0  0  0  0
 52 59  1  0  0  0  0
 53 59  1  0  0  0  0
 54 59  1  0  0  0  0
 55 71  1  0  0  0  0
 56 59  1  0  0  0  0
 56 70  1  0  0  0  0
 57 71  1  0  0  0  0
 58 83  1  0  0  0  0
 58 84  1  0  0  0  0
 58 85  1  0  0  0  0
 60 62  1  0  0  0  0
M  CHG  1  71   1
M  ISO  4  31 101  38 100  68 100  80 101
M  END
> <Batch ID>
0183

> <Smiles>
CNC(C)C(=O)NC(C(=O)N1Cc2cc([101O:1][101CH2:1]C(=O)C(=O)Nc3sc([100NH:0][100C:0](=O)N4CCCC(n5nc(-c6ccc(Oc7ccc(F)cc7F)cc6)c(C(N)=O)c5N)C4)nc3C(F)(F)F)ccc2CC1C(=O)NC1CCCc2ccccc21)C(C)(C)C

> <Shape>
0.269

> <Color>
0.171

> <Negative vol penalty>
0.000

$$$$

  -OEChem-04052304593D

 88 96  0     1  0  0  0  0  0999 V2000
  -19.4332  -29.8704   25.8357 C   0  0  0  0  0  0  0  0  0  0  0  0
  -20.7634  -29.6061   25.5255 C   0  0  0  0  0  0  0  0  0  0  0  0
  -21.6549  -15.4327   20.9658 C   0  0  0  0  0  0  0  0  0  0  0  0
  -23.9705  -14.7508   21.0678 C   0  0  0  0  0  0  0  0  0  0  0  0
  -18.4139  -29.2680   25.0995 C   0  0  0  0  0  0  0  0  0  0  0  0
  -21.0750  -28.7383   24.4795 C   0  0  0  0  0  0  0  0  0  0  0  0
  -25.8409  -29.1442   20.6549 C   0  0  0  0  0  0  0  0  0  0  0  0
  -21.3012  -14.1633   20.5086 C   0  0  0  0  0  0  0  0  0  0  0  0
  -23.6168  -13.4813   20.6107 C   0  0  0  0  0  0  0  0  0  0  0  0
  -27.0832  -28.5118   20.6338 C   0  0  0  0  0  0  0  0  0  0  0  0
  -22.2649  -10.6616   21.8920 C   0  0  0  0  0  0  0  0  0  0  0  0
  -22.8234   -9.5613   22.5425 C   0  0  0  0  0  0  0  0  0  0  0  0
  -26.2164  -26.8736   19.0898 C   0  0  0  0  0  0  0  0  0  0  0  0
  -31.4396  -20.2758   19.4491 C   0  0  0  0  0  0  0  0  0  0  0  0
  -23.8359   -8.8488   20.4678 C   0  0  0  0  0  0  0  0  0  0  0  0
  -22.9896  -15.7265   21.2453 C   0  0  0  0  0  0  0  0  0  0  0  0
  -23.4246  -17.4715   23.0546 C   0  0  0  0  0  0  0  0  0  0  0  0
  -18.7133  -28.3998   24.0377 C   0  0  0  0  0  0  0  0  0  0  0  0
  -24.7721  -28.6389   19.9007 C   0  0  0  0  0  0  0  0  0  0  0  0
  -20.0588  -28.1226   23.7292 C   0  0  0  0  0  0  0  0  0  0  0  0
  -24.9622  -27.5029   19.1010 C   0  0  0  0  0  0  0  0  0  0  0  0
  -31.9563  -21.4544   18.9228 C   0  0  0  0  0  0  0  0  0  0  0  0
  -22.2821  -13.1876   20.3311 C   0  0  0  0  0  0  0  0  0  0  0  0
  -27.2703  -27.3747   19.8535 C   0  0  0  0  0  0  0  0  0  0  0  0
  -22.4918  -10.8554   20.5294 C   0  0  0  0  0  0  0  0  0  0  0  0
  -23.6089   -8.6549   21.8304 C   0  0  0  0  0  0  0  0  0  0  0  0
  -30.0627  -20.1127   19.5540 C   0  0  0  0  0  0  0  0  0  0  0  0
  -23.2774   -9.9491   19.8174 C   0  0  0  0  0  0  0  0  0  0  0  0
  -23.3557  -17.0378   21.7171 C   0  0  0  0  0  0  0  0  0  0  0  0
  -31.0610  -22.4317   18.5189 C   0  0  0  0  0  0  0  0  0  0  0  0
  -29.2521  -21.1500   19.1220 C   0  0  0  0  0  0  0  0  0  0  0  0
  -23.8161  -18.7853   22.9698 C   0  0  0  0  0  0  0  0  0  0  0  0
  -23.1587  -16.7512   24.2654 C   0  0  0  0  0  0  0  0  0  0  0  0
  -21.8930  -27.4796   20.5868 C   0  0  0  0  0  0  0  0  0  0  0  0
  -30.2217  -25.4561   18.7573 C   0  0  0  0  0  0  0  0  0  0  0  0
  -21.5567  -27.4701   17.3605 C   0  0  0  0  0  0  0  0  0  0  0  0
  -23.0488  -27.3916   14.2922 C   0  0  0  0  0  0  0  0  0  0  0  0
  -26.8557  -21.8821   18.8618 C   0  0  0  0  0  0  0  0  0  0  0  0
  -17.5773  -27.7354   23.3010 C   0  0  0  0  0  0  0  0  0  0  0  0
  -23.4458  -29.3482   19.9134 C   0  0  0  0  0  0  0  0  0  0  0  0
  -23.8527  -26.9323   18.2573 C   0  0  0  0  0  0  0  0  0  0  0  0
  -17.9934  -27.1203   21.9673 C   0  0  0  0  0  0  0  0  0  0  0  0
  -23.5781  -22.5836   20.0628 C   0  0  0  0  0  0  0  0  0  0  0  0
  -19.2774  -26.3128   22.1293 C   0  0  0  0  0  0  0  0  0  0  0  0
  -23.1578  -21.2825   20.7503 C   0  0  0  0  0  0  0  0  0  0  0  0
  -24.4101  -22.3194   18.8091 C   0  0  0  0  0  0  0  0  0  0  0  0
  -25.1529  -20.1444   19.6962 C   0  0  0  0  0  0  0  0  0  0  0  0
  -20.4371  -27.2062   22.5859 C   0  0  1  0  0  0  0  0  0  0  0  0
  -22.2830  -28.4483   19.5064 C   0  0  1  0  0  0  0  0  0  0  0  0
  -24.3676  -20.3607   21.0001 C   0  0  2  0  0  0  0  0  0  0  0  0
  -22.5121  -27.3559   11.8411 C   0  0  0  0  0  0  0  0  0  0  0  0
  -30.9590  -24.4848   14.4459 C   0  0  0  0  0  0  0  0  0  0  0  0
  -32.9131  -26.0425   14.5695 C   0  0  0  0  0  0  0  0  0  0  0  0
  -20.7843  -24.5261   17.5750 C   0  0  0  0  0  0  0  0  0  0  0  0
  -21.1894  -24.3124   15.1136 C   0  0  0  0  0  0  0  0  0  0  0  0
  -19.4133  -25.8488   15.9548 C   0  0  0  0  0  0  0  0  0  0  0  0
  -24.4679  -29.9465   13.8259 C   0  0  0  0  0  0  0  0  0  0  0  0
  -28.8420  -26.0752   18.6299 C   0  0  0  0  0  0  0  0  0  1  0  0
  -31.5457  -25.6481   16.6413 C   0  0  0  0  0  0  0  0  0  0  0  0
  -30.7380  -24.7025   17.5367 C   0  0  1  0  0  0  0  0  0  0  0  0
  -21.8430  -26.4786   16.2587 C   0  0  1  0  0  0  0  0  0  0  0  0
  -22.8314  -28.2288   13.0447 C   0  0  2  0  0  0  0  0  0  0  0  0
  -32.0807  -25.0141   15.3405 C   0  0  0  0  0  0  0  0  0  0  0  0
  -20.8281  -25.3009   16.2428 C   0  0  0  0  0  0  0  0  0  0  0  0
  -23.6774  -17.9982   20.8464 N   0  0  0  0  0  0  0  0  0  0  0  0
  -29.7174  -22.3094   18.6052 N   0  0  0  0  0  0  0  0  0  0  0  0
  -23.9522  -19.0485   21.6385 N   0  0  0  0  0  0  0  0  0  0  0  0
  -22.5726  -27.6578   18.3083 N   0  0  0  0  0  0  0  0  0  0  0  0
  -25.5406  -21.4428   19.1230 N   0  0  0  0  0  0  0  0  0  0  0  0
  -33.3497  -21.6211   18.8144 N   0  0  0  0  0  0  0  0  0  0  0  0
  -24.0537  -19.7295   23.9049 N   0  0  0  0  0  0  0  0  0  0  0  0
  -22.7667  -15.4088   24.1719 N   0  0  0  0  0  0  0  0  0  0  0  0
  -27.8501  -20.9771   19.2317 N   0  0  0  0  0  0  0  0  0  0  0  0
  -31.5668  -23.6079   17.9935 N   0  0  0  0  0  0  0  0  0  0  0  0
  -20.9535  -27.9726   21.4721 N   0  0  0  0  0  0  0  0  0  0  0  0
  -21.8861  -27.2470   15.0192 N   0  0  0  0  0  0  0  0  0  0  0  0
  -24.0524  -29.0258   12.7366 N   0  3  0  0  0  0  0  0  0  0  0  0
  -23.2496  -17.2868   25.3960 O   0  0  0  0  0  0  0  0  0  0  0  0
  -22.4054  -26.3668   20.6142 O   0  0  0  0  0  0  0  0  0  0  0  0
  -30.8880  -25.5737   19.7860 O   0  0  0  0  0  0  0  0  0  0  0  0
  -20.4743  -28.0617   17.3754 O   0  0  0  0  0  0  0  0  0  0  0  0
  -24.1399  -26.9107   14.5899 O   0  0  0  0  0  0  0  0  0  0  0  0
  -27.0843  -22.9915   18.3730 O   0  0  0  0  0  0  0  0  0  0  0  0
  -21.9373  -11.9487   19.8853 O   0  0  0  0  0  0  0  0  0  0  0  0
  -28.4817  -26.7551   19.8317 O   0  0  0  0  0  0  0  0  0  1  0  0
  -24.1465   -7.5993   22.4555 F   0  0  0  0  0  0  0  0  0  0  0  0
  -29.5511  -18.9830   20.0593 F   0  0  0  0  0  0  0  0  0  0  0  0
  -23.4999  -10.1307   18.5084 F   0  0  0  0  0  0  0  0  0  0  0  0
  1  2  1  0  0  0  0
  1  5  2  0  0  0  0
  2  6  2  0  0  0  0
  3  8  2  0  0  0  0
  3 16  1  0  0  0  0
  4  9  1  0  0  0  0
  4 16  2  0  0  0  0
  5 18  1  0  0  0  0
  6 20  1  0  0  0  0
  7 10  2  0  0  0  0
  7 19  1  0  0  0  0
  8 23  1  0  0  0  0
  9 23  2  0  0  0  0
 10 24  1  0  0  0  0
 11 12  2  0  0  0  0
 11 25  1  0  0  0  0
 12 26  1  0  0  0  0
 13 21  1  0  0  0  0
 13 24  2  0  0  0  0
 14 22  1  0  0  0  0
 14 27  2  0  0  0  0
 15 26  2  0  0  0  0
 15 28  1  0  0  0  0
 16 29  1  0  0  0  0
 17 29  1  0  0  0  0
 17 32  2  0  0  0  0
 17 33  1  0  0  0  0
 18 20  2  0  0  0  0
 18 39  1  0  0  0  0
 19 21  2  0  0  0  0
 19 40  1  0  0  0  0
 20 48  1  0  0  0  0
 21 41  1  0  0  0  0
 22 30  2  0  0  0  0
 22 70  1  0  0  0  0
 23 84  1  0  0  0  0
 24 85  1  0  0  0  0
 25 28  2  0  0  0  0
 25 84  1  0  0  0  0
 26 86  1  0  0  0  0
 27 31  1  0  0  0  0
 27 87  1  0  0  0  0
 28 88  1  0  0  0  0
 29 65  2  0  0  0  0
 30 66  1  0  0  0  0
 30 74  1  0  0  0  0
 31 66  2  0  0  0  0
 31 73  1  0  0  0  0
 32 67  1  0  0  0  0
 32 71  1  0  0  0  0
 33 72  1  0  0  0  0
 33 78  2  0  0  0  0
 34 49  1  0  0  0  0
 34 75  1  0  0  0  0
 34 79  2  0  0  0  0
 35 58  1  0  0  0  0
 35 60  1  0  0  0  0
 35 80  2  0  0  0  0
 36 61  1  0  0  0  0
 36 68  1  0  0  0  0
 36 81  2  0  0  0  0
 37 62  1  0  0  0  0
 37 76  1  0  0  0  0
 37 82  2  0  0  0  0
 38 69  1  0  0  0  0
 38 73  1  0  0  0  0
 38 83  2  0  0  0  0
 39 42  1  0  0  0  0
 40 49  1  0  0  0  0
 41 68  1  0  0  0  0
 42 44  1  0  0  0  0
 43 45  1  0  0  0  0
 43 46  1  0  0  0  0
 44 48  1  0  0  0  0
 45 50  1  0  0  0  0
 46 69  1  0  0  0  0
 47 50  1  0  0  0  0
 47 69  1  0  0  0  0
 48 75  1  0  0  0  0
 49 68  1  0  0  0  0
 50 67  1  0  0  0  0
 51 62  1  0  0  0  0
 52 63  1  0  0  0  0
 53 63  1  0  0  0  0
 54 64  1  0  0  0  0
 55 64  1  0  0  0  0
 56 64  1  0  0  0  0
 57 77  1  0  0  0  0
 58 85  1  0  0  0  0
 59 60  1  0  0  0  0
 59 63  1  0  0  0  0
 60 74  1  0  0  0  0
 61 64  1  0  0  0  0
 61 76  1  0  0  0  0
 62 77  1  0  0  0  0
 65 67  1  0  0  0  0
M  CHG  1  77   1
M  ISO  4  38 100  58 101  73 100  85 101
M  END
> <Batch ID>
0183

> <Smiles>
CNC(C)C(=O)NC(C(=O)N1Cc2cc([101O:1][101CH2:1]C(=O)C(CC(C)C)Nc3nc([100NH:0][100C:0](=O)N4CCCC(n5nc(-c6ccc(Oc7ccc(F)cc7F)cc6)c(C(N)=O)c5N)C4)c(F)cc3N)ccc2CC1C(=O)NC1CCCc2ccccc21)C(C)(C)C

> <Shape>
0.205

> <Color>
0.083

> <Negative vol penalty>
0.000

$$$$

  -OEChem-04052304593D

 87 95  0     1  0  0  0  0  0999 V2000
  -30.4849  -24.2752   14.1003 C   0  0  0  0  0  0  0  0  0  0  0  0
  -29.3600  -25.0924   14.0564 C   0  0  0  0  0  0  0  0  0  0  0  0
  -28.0587  -14.9244   21.3990 C   0  0  0  0  0  0  0  0  0  0  0  0
  -25.7111  -15.4885   21.3130 C   0  0  0  0  0  0  0  0  0  0  0  0
  -30.7406  -23.5033   15.2329 C   0  0  0  0  0  0  0  0  0  0  0  0
  -28.4894  -25.1375   15.1447 C   0  0  0  0  0  0  0  0  0  0  0  0
  -24.1396  -29.6358   18.6320 C   0  0  0  0  0  0  0  0  0  0  0  0
  -27.7541  -13.6052   21.0639 C   0  0  0  0  0  0  0  0  0  0  0  0
  -25.4064  -14.1692   20.9779 C   0  0  0  0  0  0  0  0  0  0  0  0
  -22.8250  -29.7268   19.0873 C   0  0  0  0  0  0  0  0  0  0  0  0
  -25.0955  -11.2026   22.5696 C   0  0  0  0  0  0  0  0  0  0  0  0
  -24.0279  -10.5959   23.2313 C   0  0  0  0  0  0  0  0  0  0  0  0
  -23.4101  -28.4102   21.0220 C   0  0  0  0  0  0  0  0  0  0  0  0
  -22.9079  -10.2607   21.1169 C   0  0  0  0  0  0  0  0  0  0  0  0
  -27.0372  -15.8661   21.5236 C   0  0  0  0  0  0  0  0  0  0  0  0
  -28.1693  -18.1218   21.1524 C   0  0  0  0  0  0  0  0  0  0  0  0
  -29.8779  -23.5462   16.3395 C   0  0  0  0  0  0  0  0  0  0  0  0
  -25.0984  -28.9208   19.3641 C   0  0  0  0  0  0  0  0  0  0  0  0
  -28.7330  -24.3644   16.2926 C   0  0  0  0  0  0  0  0  0  0  0  0
  -24.7368  -28.3137   20.5752 C   0  0  0  0  0  0  0  0  0  0  0  0
  -26.4279  -13.2275   20.8533 C   0  0  0  0  0  0  0  0  0  0  0  0
  -22.4594  -29.1116   20.2810 C   0  0  0  0  0  0  0  0  0  0  0  0
  -25.0692  -11.3385   21.1816 C   0  0  0  0  0  0  0  0  0  0  0  0
  -22.9342  -10.1249   22.5050 C   0  0  0  0  0  0  0  0  0  0  0  0
  -23.9755  -10.8675   20.4553 C   0  0  0  0  0  0  0  0  0  0  0  0
  -27.3513  -17.2289   21.8703 C   0  0  0  0  0  0  0  0  0  0  0  0
  -22.7937  -24.0816   22.1674 C   0  0  0  0  0  0  0  0  0  0  0  0
  -28.1469  -19.2787   21.8925 C   0  0  0  0  0  0  0  0  0  0  0  0
  -23.1960  -23.6469   23.4129 C   0  0  0  0  0  0  0  0  0  0  0  0
  -21.2563  -25.0747   23.3758 C   0  0  0  0  0  0  0  0  0  0  0  0
  -28.8853  -17.9233   19.9262 C   0  0  0  0  0  0  0  0  0  0  0  0
  -26.9008  -26.3635   18.8026 C   0  0  0  0  0  0  0  0  0  0  0  0
  -20.0716  -27.8244   22.3636 C   0  0  0  0  0  0  0  0  0  0  0  0
  -28.2086  -27.1386   21.6681 C   0  0  0  0  0  0  0  0  0  0  0  0
  -27.8638  -28.7012   24.6824 C   0  0  0  0  0  0  0  0  0  0  0  0
  -24.5730  -22.4424   25.1449 C   0  0  0  0  0  0  0  0  0  0  0  0
  -30.1703  -22.6580   17.5228 C   0  0  0  0  0  0  0  0  0  0  0  0
  -26.5186  -28.8545   18.8729 C   0  0  0  0  0  0  0  0  0  0  0  0
  -25.7332  -27.5514   21.4087 C   0  0  0  0  0  0  0  0  0  0  0  0
  -29.3996  -23.0473   18.7817 C   0  0  0  0  0  0  0  0  0  0  0  0
  -27.0899  -20.3856   26.5979 C   0  0  0  0  0  0  0  0  0  0  0  0
  -27.9314  -23.2979   18.4527 C   0  0  0  0  0  0  0  0  0  0  0  0
  -27.4951  -19.4485   25.4578 C   0  0  0  0  0  0  0  0  0  0  0  0
  -25.5926  -20.6876   26.5788 C   0  0  0  0  0  0  0  0  0  0  0  0
  -25.4811  -20.2480   24.1573 C   0  0  0  0  0  0  0  0  0  0  0  0
  -27.7783  -24.4592   17.4630 C   0  0  1  0  0  0  0  0  0  0  0  0
  -27.2917  -27.6673   19.4389 C   0  0  1  0  0  0  0  0  0  0  0  0
  -26.9913  -19.9665   24.0964 C   0  0  2  0  0  0  0  0  0  0  0  0
  -17.9896  -26.8778   23.3718 C   0  0  0  0  0  0  0  0  0  0  0  0
  -19.2431  -28.0097   19.9972 C   0  0  0  0  0  0  0  0  0  0  0  0
  -28.5263  -29.5893   26.9341 C   0  0  0  0  0  0  0  0  0  0  0  0
  -27.6369  -24.2778   22.5618 C   0  0  0  0  0  0  0  0  0  0  0  0
  -27.9826  -25.0216   24.9272 C   0  0  0  0  0  0  0  0  0  0  0  0
  -29.8563  -25.1736   23.2874 C   0  0  0  0  0  0  0  0  0  0  0  0
  -28.7965  -31.2614   23.5271 C   0  0  0  0  0  0  0  0  0  0  0  0
  -19.3410  -26.5501   22.7590 C   0  0  2  0  0  0  0  0  0  0  0  0
  -20.4643  -27.9738   20.8982 C   0  0  1  0  0  0  0  0  0  1  0  0
  -27.9172  -26.7859   23.1067 C   0  0  1  0  0  0  0  0  0  0  0  0
  -28.7786  -29.6501   25.4356 C   0  0  2  0  0  0  0  0  0  0  0  0
  -23.4403  -23.7508   20.8808 C   0  0  0  0  0  0  0  0  0  0  0  0
  -28.3288  -25.3274   23.4543 C   0  0  0  0  0  0  0  0  0  0  0  0
  -26.8462  -17.7718   22.9813 N   0  0  0  0  0  0  0  0  0  0  0  0
  -21.6813  -24.9001   22.1441 N   0  0  0  0  0  0  0  0  0  0  0  0
  -27.3483  -19.0184   22.9670 N   0  0  0  0  0  0  0  0  0  0  0  0
  -27.1078  -27.5097   20.8831 N   0  0  0  0  0  0  0  0  0  0  0  0
  -25.1883  -21.1779   25.2593 N   0  0  0  0  0  0  0  0  0  0  0  0
  -28.7327  -20.4829   21.7225 N   0  0  0  0  0  0  0  0  0  0  0  0
  -28.2375  -18.2187   18.7189 N   0  0  0  0  0  0  0  0  0  0  0  0
  -24.2626  -22.8165   23.8378 N   0  0  0  0  0  0  0  0  0  0  0  0
  -20.1567  -25.8427   23.7201 N   0  0  0  0  0  0  0  0  0  0  0  0
  -27.9350  -25.7270   18.1432 N   0  0  0  0  0  0  0  0  0  0  0  0
  -28.5777  -27.8026   23.9182 N   0  0  0  0  0  0  0  0  0  0  0  0
  -28.5604  -31.0518   24.9788 N   0  3  0  0  0  0  0  0  0  0  0  0
  -30.0589  -17.4811   19.9010 O   0  0  0  0  0  0  0  0  0  0  0  0
  -25.7468  -25.9638   18.9037 O   0  0  0  0  0  0  0  0  0  0  0  0
  -20.3483  -28.6894   23.1968 O   0  0  0  0  0  0  0  0  0  0  0  0
  -29.3711  -27.0937   21.2580 O   0  0  0  0  0  0  0  0  0  0  0  0
  -26.6386  -28.7498   24.7668 O   0  0  0  0  0  0  0  0  0  0  0  0
  -24.3633  -23.1537   26.1308 O   0  0  0  0  0  0  0  0  0  0  0  0
  -26.1302  -11.9403   20.5261 O   0  0  0  0  0  0  0  0  0  0  0  0
  -21.1767  -29.1984   20.7273 O   0  0  0  0  0  0  0  0  0  1  0  0
  -21.9098   -9.5409   23.1404 F   0  0  0  0  0  0  0  0  0  0  0  0
  -23.9452  -10.9941   19.1215 F   0  0  0  0  0  0  0  0  0  0  0  0
  -24.5357  -22.9336   20.9967 F   0  0  0  0  0  0  0  0  0  0  0  0
  -22.6211  -23.1027   19.9919 F   0  0  0  0  0  0  0  0  0  0  0  0
  -23.8923  -24.8541   20.2053 F   0  0  0  0  0  0  0  0  0  0  0  0
  -22.1474  -24.2842   24.6111 S   0  0  0  0  0  0  0  0  0  0  0  0
  1  2  1  0  0  0  0
  1  5  2  0  0  0  0
  2  6  2  0  0  0  0
  3  8  2  0  0  0  0
  3 15  1  0  0  0  0
  4  9  1  0  0  0  0
  4 15  2  0  0  0  0
  5 17  1  0  0  0  0
  6 19  1  0  0  0  0
  7 10  2  0  0  0  0
  7 18  1  0  0  0  0
  8 21  1  0  0  0  0
  9 21  2  0  0  0  0
 10 22  1  0  0  0  0
 11 12  2  0  0  0  0
 11 23  1  0  0  0  0
 12 24  1  0  0  0  0
 13 20  1  0  0  0  0
 13 22  2  0  0  0  0
 14 24  2  0  0  0  0
 14 25  1  0  0  0  0
 15 26  1  0  0  0  0
 16 26  1  0  0  0  0
 16 28  2  0  0  0  0
 16 31  1  0  0  0  0
 17 19  2  0  0  0  0
 17 37  1  0  0  0  0
 18 20  2  0  0  0  0
 18 38  1  0  0  0  0
 19 46  1  0  0  0  0
 20 39  1  0  0  0  0
 21 80  1  0  0  0  0
 22 81  1  0  0  0  0
 23 25  2  0  0  0  0
 23 80  1  0  0  0  0
 24 82  1  0  0  0  0
 25 83  1  0  0  0  0
 26 62  2  0  0  0  0
 27 29  2  0  0  0  0
 27 60  1  0  0  0  0
 27 63  1  0  0  0  0
 28 64  1  0  0  0  0
 28 67  1  0  0  0  0
 29 69  1  0  0  0  0
 29 87  1  0  0  0  0
 30 63  2  0  0  0  0
 30 70  1  0  0  0  0
 30 87  1  0  0  0  0
 31 68  1  0  0  0  0
 31 74  2  0  0  0  0
 32 47  1  0  0  0  0
 32 71  1  0  0  0  0
 32 75  2  0  0  0  0
 33 56  1  0  0  0  0
 33 57  1  0  0  0  0
 33 76  2  0  0  0  0
 34 58  1  0  0  0  0
 34 65  1  0  0  0  0
 34 77  2  0  0  0  0
 35 59  1  0  0  0  0
 35 72  1  0  0  0  0
 35 78  2  0  0  0  0
 36 66  1  0  0  0  0
 36 69  1  0  0  0  0
 36 79  2  0  0  0  0
 37 40  1  0  0  0  0
 38 47  1  0  0  0  0
 39 65  1  0  0  0  0
 40 42  1  0  0  0  0
 41 43  1  0  0  0  0
 41 44  1  0  0  0  0
 42 46  1  0  0  0  0
 43 48  1  0  0  0  0
 44 66  1  0  0  0  0
 45 48  1  0  0  0  0
 45 66  1  0  0  0  0
 46 71  1  0  0  0  0
 47 65  1  0  0  0  0
 48 64  1  0  0  0  0
 49 56  1  0  0  0  0
 50 57  1  0  0  0  0
 51 59  1  0  0  0  0
 52 61  1  0  0  0  0
 53 61  1  0  0  0  0
 54 61  1  0  0  0  0
 55 73  1  0  0  0  0
 56 70  1  0  0  0  0
 57 81  1  0  0  0  0
 58 61  1  0  0  0  0
 58 72  1  0  0  0  0
 59 73  1  0  0  0  0
 60 84  1  0  0  0  0
 60 85  1  0  0  0  0
 60 86  1  0  0  0  0
 62 64  1  0  0  0  0
M  CHG  1  73   1
M  ISO  4  36 100  57 101  69 100  81 101
M  END
> <Batch ID>
0183

> <Smiles>
CNC(C)C(=O)NC(C(=O)N1Cc2cc([101O:1][101CH:1](C)C(=O)C(C)Nc3nc(C(F)(F)F)c([100NH:0][100C:0](=O)N4CCCC(n5nc(-c6ccc(Oc7ccc(F)cc7F)cc6)c(C(N)=O)c5N)C4)s3)ccc2CC1C(=O)NC1CCCc2ccccc21)C(C)(C)C

> <Shape>
0.214

> <Color>
0.054

> <Negative vol penalty>
0.000

$$$$

  -OEChem-04052304593D

 85 93  0     1  0  0  0  0  0999 V2000
  -31.6853  -28.0315   22.9550 C   0  0  0  0  0  0  0  0  0  0  0  0
  -32.0956  -26.7465   22.6148 C   0  0  0  0  0  0  0  0  0  0  0  0
  -23.0626   -9.8640   19.9678 C   0  0  0  0  0  0  0  0  0  0  0  0
  -23.8070   -9.9084   22.2658 C   0  0  0  0  0  0  0  0  0  0  0  0
  -30.4238  -28.4840   22.5705 C   0  0  0  0  0  0  0  0  0  0  0  0
  -31.2442  -25.9127   21.8908 C   0  0  0  0  0  0  0  0  0  0  0  0
  -33.6242  -23.5015   18.1269 C   0  0  0  0  0  0  0  0  0  0  0  0
  -22.3041   -8.7245   20.2354 C   0  0  0  0  0  0  0  0  0  0  0  0
  -23.0484   -8.7688   22.5335 C   0  0  0  0  0  0  0  0  0  0  0  0
  -34.4024  -22.3967   18.4701 C   0  0  0  0  0  0  0  0  0  0  0  0
  -19.8075   -8.0194   23.1292 C   0  0  0  0  0  0  0  0  0  0  0  0
  -19.0422   -8.0113   24.2953 C   0  0  0  0  0  0  0  0  0  0  0  0
  -32.6141  -20.9310   17.7825 C   0  0  0  0  0  0  0  0  0  0  0  0
  -20.2566   -6.0752   25.0789 C   0  0  0  0  0  0  0  0  0  0  0  0
  -29.8089  -17.6861   22.6380 C   0  0  0  0  0  0  0  0  0  0  0  0
  -23.8142  -10.4560   20.9829 C   0  0  0  0  0  0  0  0  0  0  0  0
  -24.1853  -12.9742   20.8151 C   0  0  0  0  0  0  0  0  0  0  0  0
  -29.5602  -27.6587   21.8331 C   0  0  0  0  0  0  0  0  0  0  0  0
  -32.3288  -23.3292   17.6184 C   0  0  0  0  0  0  0  0  0  0  0  0
  -29.9694  -26.3541   21.4972 C   0  0  0  0  0  0  0  0  0  0  0  0
  -31.8224  -22.0351   17.4313 C   0  0  0  0  0  0  0  0  0  0  0  0
  -22.2970   -8.1769   21.5183 C   0  0  0  0  0  0  0  0  0  0  0  0
  -33.8963  -21.1114   18.3006 C   0  0  0  0  0  0  0  0  0  0  0  0
  -20.7973   -7.0553   22.9378 C   0  0  0  0  0  0  0  0  0  0  0  0
  -19.2668   -7.0393   25.2702 C   0  0  0  0  0  0  0  0  0  0  0  0
  -21.0218   -6.0833   23.9127 C   0  0  0  0  0  0  0  0  0  0  0  0
  -30.2945  -18.9231   23.0469 C   0  0  0  0  0  0  0  0  0  0  0  0
  -31.5647  -19.3296   22.6538 C   0  0  0  0  0  0  0  0  0  0  0  0
  -24.5984  -11.6328   20.7069 C   0  0  0  0  0  0  0  0  0  0  0  0
  -30.6264  -16.8990   21.8430 C   0  0  0  0  0  0  0  0  0  0  0  0
  -32.3037  -18.4689   21.8582 C   0  0  0  0  0  0  0  0  0  0  0  0
  -25.2883  -13.7041   20.4446 C   0  0  0  0  0  0  0  0  0  0  0  0
  -22.9180  -13.5125   21.2147 C   0  0  0  0  0  0  0  0  0  0  0  0
  -29.4141  -24.1606   18.5760 C   0  0  0  0  0  0  0  0  0  0  0  0
  -28.5474  -22.9645   15.6880 C   0  0  0  0  0  0  0  0  0  0  0  0
  -29.2614  -20.8774   13.0840 C   0  0  0  0  0  0  0  0  0  0  0  0
  -34.4864  -18.1398   20.6524 C   0  0  0  0  0  0  0  0  0  0  0  0
  -30.7647  -14.6918   20.6366 C   0  0  0  0  0  0  0  0  0  0  0  0
  -28.1877  -28.1751   21.4808 C   0  0  0  0  0  0  0  0  0  0  0  0
  -31.5121  -24.5305   17.2280 C   0  0  0  0  0  0  0  0  0  0  0  0
  -30.4454  -21.7958   16.8700 C   0  0  0  0  0  0  0  0  0  0  0  0
  -27.4919  -27.3619   20.3922 C   0  0  0  0  0  0  0  0  0  0  0  0
  -29.6391  -12.2437   18.3092 C   0  0  0  0  0  0  0  0  0  0  0  0
  -27.6151  -25.8690   20.6801 C   0  0  0  0  0  0  0  0  0  0  0  0
  -28.1934  -11.9769   18.7344 C   0  0  0  0  0  0  0  0  0  0  0  0
  -30.5486  -12.4862   19.5124 C   0  0  0  0  0  0  0  0  0  0  0  0
  -28.6406  -13.2594   20.8656 C   0  0  0  0  0  0  0  0  0  0  0  0
  -29.0839  -25.4287   20.6912 C   0  0  1  0  0  0  0  0  0  0  0  0
  -30.0127  -24.2506   17.2008 C   0  0  1  0  0  0  0  0  0  0  0  0
  -27.6739  -13.0736   19.6847 C   0  0  2  0  0  0  0  0  0  0  0  0
  -28.3460  -20.0861   10.8855 C   0  0  0  0  0  0  0  0  0  0  0  0
  -26.5431  -21.1975   17.1613 C   0  0  0  0  0  0  0  0  0  0  0  0
  -26.3592  -19.8005   15.0918 C   0  0  0  0  0  0  0  0  0  0  0  0
  -25.6850  -22.2016   15.0376 C   0  0  0  0  0  0  0  0  0  0  0  0
  -31.6003  -21.9225   11.6020 C   0  0  0  0  0  0  0  0  0  0  0  0
  -35.5937  -20.2007   19.6954 C   0  0  0  0  0  0  0  0  0  1  0  0
  -28.1384  -21.6058   15.1727 C   0  0  1  0  0  0  0  0  0  0  0  0
  -29.2428  -21.0977   11.5822 C   0  0  2  0  0  0  0  0  0  0  0  0
  -35.7907  -18.8893   20.4413 C   0  0  2  0  0  0  0  0  0  0  0  0
  -26.7067  -21.2056   15.6283 C   0  0  0  0  0  0  0  0  0  0  0  0
  -25.8649  -11.5145   20.2995 N   0  0  0  0  0  0  0  0  0  0  0  0
  -31.8657  -17.2599   21.4411 N   0  0  0  0  0  0  0  0  0  0  0  0
  -26.2571  -12.7909   20.1483 N   0  0  0  0  0  0  0  0  0  0  0  0
  -29.6832  -23.0026   16.5092 N   0  0  0  0  0  0  0  0  0  0  0  0
  -29.9954  -13.5406   20.3651 N   0  0  0  0  0  0  0  0  0  0  0  0
  -25.5143  -15.0314   20.3465 N   0  0  0  0  0  0  0  0  0  0  0  0
  -21.8936  -12.6216   21.5630 N   0  0  0  0  0  0  0  0  0  0  0  0
  -33.5997  -18.8581   21.4445 N   0  0  0  0  0  0  0  0  0  0  0  0
  -30.1223  -15.6402   21.4319 N   0  0  0  0  0  0  0  0  0  0  0  0
  -29.5833  -25.3003   19.3389 N   0  0  0  0  0  0  0  0  0  0  0  0
  -28.3148  -21.6482   13.7251 N   0  0  0  0  0  0  0  0  0  0  0  0
  -30.6182  -20.9702   11.0228 N   0  3  0  0  0  0  0  0  0  0  0  0
  -22.6953  -14.7466   21.2459 O   0  0  0  0  0  0  0  0  0  0  0  0
  -28.8398  -23.1338   18.9190 O   0  0  0  0  0  0  0  0  0  0  0  0
  -27.8878  -23.9565   15.3677 O   0  0  0  0  0  0  0  0  0  0  0  0
  -30.0356  -20.0966   13.6331 O   0  0  0  0  0  0  0  0  0  0  0  0
  -34.3201  -17.0290   20.1570 O   0  0  0  0  0  0  0  0  0  0  0  0
  -31.8988  -14.8385   20.1737 O   0  0  0  0  0  0  0  0  0  0  0  0
  -21.5567   -7.0651   21.7799 O   0  0  0  0  0  0  0  0  0  0  0  0
  -34.6535  -20.0313   18.6353 O   0  0  0  0  0  0  0  0  0  1  0  0
  -18.5329   -7.0326   26.3907 F   0  0  0  0  0  0  0  0  0  0  0  0
  -21.9721   -5.1552   23.7350 F   0  0  0  0  0  0  0  0  0  0  0  0
  -29.5278  -19.7086   23.8168 F   0  0  0  0  0  0  0  0  0  0  0  0
  -36.6690  -18.1255   19.7297 F   0  0  0  0  0  0  0  0  0  0  0  0
  -32.1577  -20.8649   23.1662 Cl  0  0  0  0  0  0  0  0  0  0  0  0
  1  2  1  0  0  0  0
  1  5  2  0  0  0  0
  2  6  2  0  0  0  0
  3  8  2  0  0  0  0
  3 16  1  0  0  0  0
  4  9  1  0  0  0  0
  4 16  2  0  0  0  0
  5 18  1  0  0  0  0
  6 20  1  0  0  0  0
  7 10  2  0  0  0  0
  7 19  1  0  0  0  0
  8 22  1  0  0  0  0
  9 22  2  0  0  0  0
 10 23  1  0  0  0  0
 11 12  2  0  0  0  0
 11 24  1  0  0  0  0
 12 25  1  0  0  0  0
 13 21  1  0  0  0  0
 13 23  2  0  0  0  0
 14 25  2  0  0  0  0
 14 26  1  0  0  0  0
 15 27  2  0  0  0  0
 15 30  1  0  0  0  0
 16 29  1  0  0  0  0
 17 29  1  0  0  0  0
 17 32  2  0  0  0  0
 17 33  1  0  0  0  0
 18 20  2  0  0  0  0
 18 39  1  0  0  0  0
 19 21  2  0  0  0  0
 19 40  1  0  0  0  0
 20 48  1  0  0  0  0
 21 41  1  0  0  0  0
 22 79  1  0  0  0  0
 23 80  1  0  0  0  0
 24 26  2  0  0  0  0
 24 79  1  0  0  0  0
 25 81  1  0  0  0  0
 26 82  1  0  0  0  0
 27 28  1  0  0  0  0
 27 83  1  0  0  0  0
 28 31  2  0  0  0  0
 28 85  1  0  0  0  0
 29 61  2  0  0  0  0
 30 62  2  0  0  0  0
 30 69  1  0  0  0  0
 31 62  1  0  0  0  0
 31 68  1  0  0  0  0
 32 63  1  0  0  0  0
 32 66  1  0  0  0  0
 33 67  1  0  0  0  0
 33 73  2  0  0  0  0
 34 49  1  0  0  0  0
 34 70  1  0  0  0  0
 34 74  2  0  0  0  0
 35 57  1  0  0  0  0
 35 64  1  0  0  0  0
 35 75  2  0  0  0  0
 36 58  1  0  0  0  0
 36 71  1  0  0  0  0
 36 76  2  0  0  0  0
 37 59  1  0  0  0  0
 37 68  1  0  0  0  0
 37 77  2  0  0  0  0
 38 65  1  0  0  0  0
 38 69  1  0  0  0  0
 38 78  2  0  0  0  0
 39 42  1  0  0  0  0
 40 49  1  0  0  0  0
 41 64  1  0  0  0  0
 42 44  1  0  0  0  0
 43 45  1  0  0  0  0
 43 46  1  0  0  0  0
 44 48  1  0  0  0  0
 45 50  1  0  0  0  0
 46 65  1  0  0  0  0
 47 50  1  0  0  0  0
 47 65  1  0  0  0  0
 48 70  1  0  0  0  0
 49 64  1  0  0  0  0
 50 63  1  0  0  0  0
 51 58  1  0  0  0  0
 52 60  1  0  0  0  0
 53 60  1  0  0  0  0
 54 60  1  0  0  0  0
 55 72  1  0  0  0  0
 56 59  1  0  0  0  0
 56 80  1  0  0  0  0
 57 60  1  0  0  0  0
 57 71  1  0  0  0  0
 58 72  1  0  0  0  0
 59 84  1  0  0  0  0
 61 63  1  0  0  0  0
M  CHG  1  72   1
M  ISO  4  38 100  56 101  69 100  80 101
M  END
> <Batch ID>
0183

> <Smiles>
CNC(C)C(=O)NC(C(=O)N1Cc2cc([101O:1][101CH2:1]C(F)C(=O)Nc3nc([100NH:0][100C:0](=O)N4CCCC(n5nc(-c6ccc(Oc7ccc(F)cc7F)cc6)c(C(N)=O)c5N)C4)cc(F)c3Cl)ccc2CC1C(=O)NC1CCCc2ccccc21)C(C)(C)C

> <Shape>
0.239

> <Color>
0.211

> <Negative vol penalty>
0.000

$$$$

  -OEChem-04052304593D

 89 97  0     1  0  0  0  0  0999 V2000
  -20.3979  -34.6253   22.7100 C   0  0  0  0  0  0  0  0  0  0  0  0
  -21.6740  -34.1391   22.4446 C   0  0  0  0  0  0  0  0  0  0  0  0
  -22.9388  -13.0128   20.8008 C   0  0  0  0  0  0  0  0  0  0  0  0
  -24.1294  -13.2557   22.8890 C   0  0  0  0  0  0  0  0  0  0  0  0
  -19.4351  -33.7853   23.2680 C   0  0  0  0  0  0  0  0  0  0  0  0
  -21.9884  -32.8126   22.7380 C   0  0  0  0  0  0  0  0  0  0  0  0
  -25.7483  -29.1388   19.5959 C   0  0  0  0  0  0  0  0  0  0  0  0
  -22.4911  -11.7543   21.2024 C   0  0  0  0  0  0  0  0  0  0  0  0
  -23.6816  -11.9971   23.2906 C   0  0  0  0  0  0  0  0  0  0  0  0
  -27.0804  -28.7747   19.7874 C   0  0  0  0  0  0  0  0  0  0  0  0
  -21.3285   -8.3243   21.5292 C   0  0  0  0  0  0  0  0  0  0  0  0
  -21.3946   -7.2844   20.6019 C   0  0  0  0  0  0  0  0  0  0  0  0
  -26.3632  -26.7696   20.9207 C   0  0  0  0  0  0  0  0  0  0  0  0
  -29.8999  -24.0051   21.8324 C   0  0  0  0  0  0  0  0  0  0  0  0
  -23.7891   -7.5696   20.4528 C   0  0  0  0  0  0  0  0  0  0  0  0
  -23.7581  -13.7635   21.6441 C   0  0  0  0  0  0  0  0  0  0  0  0
  -23.5872  -16.3012   21.4475 C   0  0  0  0  0  0  0  0  0  0  0  0
  -19.7351  -32.4452   23.5594 C   0  0  0  0  0  0  0  0  0  0  0  0
  -24.7120  -28.3250   20.0758 C   0  0  0  0  0  0  0  0  0  0  0  0
  -21.0292  -31.9542   23.3016 C   0  0  0  0  0  0  0  0  0  0  0  0
  -25.0188  -27.1243   20.7317 C   0  0  0  0  0  0  0  0  0  0  0  0
  -28.8212  -23.3929   22.4632 C   0  0  0  0  0  0  0  0  0  0  0  0
  -22.8625  -11.2465   22.4473 C   0  0  0  0  0  0  0  0  0  0  0  0
  -27.3881  -27.5914   20.4524 C   0  0  0  0  0  0  0  0  0  0  0  0
  -22.4927   -8.9869   21.9183 C   0  0  0  0  0  0  0  0  0  0  0  0
  -22.6249   -6.9071   20.0637 C   0  0  0  0  0  0  0  0  0  0  0  0
  -23.7230   -8.6095   21.3801 C   0  0  0  0  0  0  0  0  0  0  0  0
  -28.4776  -22.0846   22.1362 C   0  0  0  0  0  0  0  0  0  0  0  0
  -24.2214  -15.0634   21.2296 C   0  0  0  0  0  0  0  0  0  0  0  0
  -24.4229  -17.2224   20.8648 C   0  0  0  0  0  0  0  0  0  0  0  0
  -30.6136  -23.2879   20.8827 C   0  0  0  0  0  0  0  0  0  0  0  0
  -29.2272  -21.4161   21.1788 C   0  0  0  0  0  0  0  0  0  0  0  0
  -22.3531  -16.5923   22.1167 C   0  0  0  0  0  0  0  0  0  0  0  0
  -22.3640  -28.6942   22.1863 C   0  0  0  0  0  0  0  0  0  0  0  0
  -31.2536  -26.1623   19.7273 C   0  0  0  0  0  0  0  0  0  0  0  0
  -21.4616  -25.7706   21.1091 C   0  0  0  0  0  0  0  0  0  0  0  0
  -22.3492  -22.8304   19.6211 C   0  0  0  0  0  0  0  0  0  0  0  0
  -29.5159  -19.2597   19.9088 C   0  0  0  0  0  0  0  0  0  0  0  0
  -18.6756  -31.5882   24.2058 C   0  0  0  0  0  0  0  0  0  0  0  0
  -23.2799  -28.7185   19.8376 C   0  0  0  0  0  0  0  0  0  0  0  0
  -23.9429  -26.2055   21.2483 C   0  0  0  0  0  0  0  0  0  0  0  0
  -18.9776  -30.0933   24.1400 C   0  0  0  0  0  0  0  0  0  0  0  0
  -28.4225  -16.5848   17.8287 C   0  0  0  0  0  0  0  0  0  0  0  0
  -20.4242  -29.8228   24.5413 C   0  0  0  0  0  0  0  0  0  0  0  0
  -27.1799  -16.0524   18.5459 C   0  0  0  0  0  0  0  0  0  0  0  0
  -29.5009  -17.0280   18.8158 C   0  0  0  0  0  0  0  0  0  0  0  0
  -27.8093  -17.4478   20.5569 C   0  0  0  0  0  0  0  0  0  0  0  0
  -21.4012  -30.5145   23.5829 C   0  0  1  0  0  0  0  0  0  0  0  0
  -22.3105  -28.0697   20.8208 C   0  0  1  0  0  0  0  0  0  0  0  0
  -26.6698  -17.0495   19.6047 C   0  0  2  0  0  0  0  0  0  0  0  0
  -22.0559  -20.5652   18.5818 C   0  0  0  0  0  0  0  0  0  0  0  0
  -21.4630  -24.8380   24.0143 C   0  0  0  0  0  0  0  0  0  0  0  0
  -21.4551  -22.4763   23.1833 C   0  0  0  0  0  0  0  0  0  0  0  0
  -19.5471  -23.9915   22.6479 C   0  0  0  0  0  0  0  0  0  0  0  0
  -21.9126  -23.9917   16.9341 C   0  0  0  0  0  0  0  0  0  0  0  0
  -31.0624  -27.5241   20.3831 C   0  0  0  0  0  0  0  0  0  0  0  0
  -29.6850  -28.1184   20.1320 C   0  0  0  0  0  0  0  0  0  1  0  0
  -32.1708  -25.1901   20.4561 C   0  0  2  0  0  0  0  0  0  0  0  0
  -21.7711  -24.3453   21.4987 C   0  0  1  0  0  0  0  0  0  0  0  0
  -21.7170  -22.0446   18.4864 C   0  0  2  0  0  0  0  0  0  0  0  0
  -21.0796  -23.9308   22.8281 C   0  0  0  0  0  0  0  0  0  0  0  0
  -33.5963  -25.3248   19.9650 C   0  0  0  0  0  0  0  0  0  0  0  0
  -25.3712  -15.1837   20.5607 N   0  0  0  0  0  0  0  0  0  0  0  0
  -25.4661  -16.5081   20.3531 N   0  0  0  0  0  0  0  0  0  0  0  0
  -30.2612  -22.0294   20.5868 N   0  3  0  0  0  0  0  0  0  0  0  0
  -22.5580  -26.6372   20.9964 N   0  0  0  0  0  0  0  0  0  0  0  0
  -28.9460  -17.9748   19.7856 N   0  0  0  0  0  0  0  0  0  0  0  0
  -28.0789  -24.0991   23.4322 N   0  0  0  0  0  0  0  0  0  0  0  0
  -24.3599  -18.5656   20.7454 N   0  0  0  0  0  0  0  0  0  0  0  0
  -21.6193  -15.5279   22.6579 N   0  0  0  0  0  0  0  0  0  0  0  0
  -28.8841  -20.0838   20.8395 N   0  0  0  0  0  0  0  0  0  0  0  0
  -31.6964  -23.8440   20.2233 N   0  0  0  0  0  0  0  0  0  0  0  0
  -21.5104  -29.7689   22.3473 N   0  0  0  0  0  0  0  0  0  0  0  0
  -21.4055  -23.5203   20.3524 N   0  0  0  0  0  0  0  0  0  0  0  0
  -22.2002  -22.5537   17.1717 N   0  3  0  0  0  0  0  0  0  0  0  0
  -21.9059  -17.7599   22.2170 O   0  0  0  0  0  0  0  0  0  0  0  0
  -23.1225  -28.2342   23.0318 O   0  0  0  0  0  0  0  0  0  0  0  0
  -30.7144  -25.8665   18.6606 O   0  0  0  0  0  0  0  0  0  0  0  0
  -20.2908  -26.1011   20.9051 O   0  0  0  0  0  0  0  0  0  0  0  0
  -23.5587  -22.8291   19.8393 O   0  0  0  0  0  0  0  0  0  0  0  0
  -30.4755  -19.6129   19.2185 O   0  0  0  0  0  0  0  0  0  0  0  0
  -22.4255  -10.0186   22.8396 O   0  0  0  0  0  0  0  0  0  0  0  0
  -28.6875  -27.2340   20.6413 O   0  0  0  0  0  0  0  0  0  1  0  0
  -22.6884   -5.9074   19.1744 F   0  0  0  0  0  0  0  0  0  0  0  0
  -24.8450   -9.2416   21.7509 F   0  0  0  0  0  0  0  0  0  0  0  0
  -27.4401  -21.4832   22.7361 F   0  0  0  0  0  0  0  0  0  0  0  0
  -34.4103  -24.4532   20.6031 F   0  0  0  0  0  0  0  0  0  0  0  0
  -34.0796  -26.5648   20.1980 F   0  0  0  0  0  0  0  0  0  0  0  0
  -33.6968  -25.0857   18.6396 F   0  0  0  0  0  0  0  0  0  0  0  0
  1  2  1  0  0  0  0
  1  5  2  0  0  0  0
  2  6  2  0  0  0  0
  3  8  2  0  0  0  0
  3 16  1  0  0  0  0
  4  9  1  0  0  0  0
  4 16  2  0  0  0  0
  5 18  1  0  0  0  0
  6 20  1  0  0  0  0
  7 10  2  0  0  0  0
  7 19  1  0  0  0  0
  8 23  1  0  0  0  0
  9 23  2  0  0  0  0
 10 24  1  0  0  0  0
 11 12  2  0  0  0  0
 11 25  1  0  0  0  0
 12 26  1  0  0  0  0
 13 21  1  0  0  0  0
 13 24  2  0  0  0  0
 14 22  2  0  0  0  0
 14 31  1  0  0  0  0
 15 26  2  0  0  0  0
 15 27  1  0  0  0  0
 16 29  1  0  0  0  0
 17 29  1  0  0  0  0
 17 30  2  0  0  0  0
 17 33  1  0  0  0  0
 18 20  2  0  0  0  0
 18 39  1  0  0  0  0
 19 21  2  0  0  0  0
 19 40  1  0  0  0  0
 20 48  1  0  0  0  0
 21 41  1  0  0  0  0
 22 28  1  0  0  0  0
 22 68  1  0  0  0  0
 23 82  1  0  0  0  0
 24 83  1  0  0  0  0
 25 27  2  0  0  0  0
 25 82  1  0  0  0  0
 26 84  1  0  0  0  0
 27 85  1  0  0  0  0
 28 32  2  0  0  0  0
 28 86  1  0  0  0  0
 29 63  2  0  0  0  0
 30 64  1  0  0  0  0
 30 69  1  0  0  0  0
 31 65  2  0  0  0  0
 31 72  1  0  0  0  0
 32 65  1  0  0  0  0
 32 71  1  0  0  0  0
 33 70  1  0  0  0  0
 33 76  2  0  0  0  0
 34 49  1  0  0  0  0
 34 73  1  0  0  0  0
 34 77  2  0  0  0  0
 35 56  1  0  0  0  0
 35 58  1  0  0  0  0
 35 78  2  0  0  0  0
 36 59  1  0  0  0  0
 36 66  1  0  0  0  0
 36 79  2  0  0  0  0
 37 60  1  0  0  0  0
 37 74  1  0  0  0  0
 37 80  2  0  0  0  0
 38 67  1  0  0  0  0
 38 71  1  0  0  0  0
 38 81  2  0  0  0  0
 39 42  1  0  0  0  0
 40 49  1  0  0  0  0
 41 66  1  0  0  0  0
 42 44  1  0  0  0  0
 43 45  1  0  0  0  0
 43 46  1  0  0  0  0
 44 48  1  0  0  0  0
 45 50  1  0  0  0  0
 46 67  1  0  0  0  0
 47 50  1  0  0  0  0
 47 67  1  0  0  0  0
 48 73  1  0  0  0  0
 49 66  1  0  0  0  0
 50 64  1  0  0  0  0
 51 60  1  0  0  0  0
 52 61  1  0  0  0  0
 53 61  1  0  0  0  0
 54 61  1  0  0  0  0
 55 75  1  0  0  0  0
 56 57  1  0  0  0  0
 57 83  1  0  0  0  0
 58 62  1  0  0  0  0
 58 72  1  0  0  0  0
 59 61  1  0  0  0  0
 59 74  1  0  0  0  0
 60 75  1  0  0  0  0
 62 87  1  0  0  0  0
 62 88  1  0  0  0  0
 62 89  1  0  0  0  0
 63 64  1  0  0  0  0
M  CHG  2  65   1  75   1
M  ISO  4  38 100  57 101  71 100  83 101
M  END
> <Batch ID>
0183

> <Smiles>
CNC(C)C(=O)NC(C(=O)N1Cc2cc([101O:1][101CH2:1]CC(=O)C(Nc3cc(N)c(F)c([100NH:0][100C:0](=O)N4CCCC(n5nc(-c6ccc(Oc7ccc(F)cc7F)cc6)c(C(N)=O)c5N)C4)n3)C(F)(F)F)ccc2CC1C(=O)NC1CCCc2ccccc21)C(C)(C)C

> <Shape>
0.224

> <Color>
0.081

> <Negative vol penalty>
0.000

$$$$

  -OEChem-04052304593D

 93101  0     1  0  0  0  0  0999 V2000
  -27.2756  -33.8353   26.2341 C   0  0  0  0  0  0  0  0  0  0  0  0
  -27.6031  -32.6903   25.5150 C   0  0  0  0  0  0  0  0  0  0  0  0
  -26.2712  -11.4118   21.2625 C   0  0  0  0  0  0  0  0  0  0  0  0
  -25.1114  -12.4409   19.4098 C   0  0  0  0  0  0  0  0  0  0  0  0
  -25.9565  -34.0560   26.6281 C   0  0  0  0  0  0  0  0  0  0  0  0
  -26.6119  -31.7648   25.1904 C   0  0  0  0  0  0  0  0  0  0  0  0
  -26.9200  -30.1928   20.3863 C   0  0  0  0  0  0  0  0  0  0  0  0
  -25.1010  -10.7448   21.6247 C   0  0  0  0  0  0  0  0  0  0  0  0
  -23.9411  -11.7739   19.7719 C   0  0  0  0  0  0  0  0  0  0  0  0
  -27.8952  -29.2418   20.0889 C   0  0  0  0  0  0  0  0  0  0  0  0
  -23.3702   -8.0224   20.6117 C   0  0  0  0  0  0  0  0  0  0  0  0
  -23.4689   -6.6692   20.9351 C   0  0  0  0  0  0  0  0  0  0  0  0
  -26.2185  -27.5089   20.1600 C   0  0  0  0  0  0  0  0  0  0  0  0
  -22.6111   -7.1347   23.1452 C   0  0  0  0  0  0  0  0  0  0  0  0
  -26.2764  -12.2599   20.1551 C   0  0  0  0  0  0  0  0  0  0  0  0
  -28.4857  -12.4949   18.9014 C   0  0  0  0  0  0  0  0  0  0  0  0
  -24.9469  -33.1375   26.2998 C   0  0  0  0  0  0  0  0  0  0  0  0
  -25.5864  -29.8069   20.5840 C   0  0  0  0  0  0  0  0  0  0  0  0
  -25.2783  -31.9728   25.5815 C   0  0  0  0  0  0  0  0  0  0  0  0
  -25.2278  -28.4572   20.4574 C   0  0  0  0  0  0  0  0  0  0  0  0
  -23.9359  -10.9258   20.8794 C   0  0  0  0  0  0  0  0  0  0  0  0
  -27.5450  -27.8993   19.9785 C   0  0  0  0  0  0  0  0  0  0  0  0
  -22.8920   -8.9318   21.5551 C   0  0  0  0  0  0  0  0  0  0  0  0
  -23.0893   -6.2253   22.2018 C   0  0  0  0  0  0  0  0  0  0  0  0
  -22.5124   -8.4880   22.8218 C   0  0  0  0  0  0  0  0  0  0  0  0
  -27.4849  -12.9496   19.7808 C   0  0  0  0  0  0  0  0  0  0  0  0
  -27.8151  -22.2640   16.8466 C   0  0  0  0  0  0  0  0  0  0  0  0
  -29.4127  -13.5082   18.8828 C   0  0  0  0  0  0  0  0  0  0  0  0
  -26.9691  -21.5348   16.0375 C   0  0  0  0  0  0  0  0  0  0  0  0
  -27.9177  -20.3462   17.9055 C   0  0  0  0  0  0  0  0  0  0  0  0
  -28.5698  -11.2664   18.1669 C   0  0  0  0  0  0  0  0  0  0  0  0
  -29.1237  -25.6061   17.1771 C   0  0  0  0  0  0  0  0  0  0  0  0
  -29.2663  -24.1938   16.8633 C   0  0  0  0  0  0  0  0  0  0  0  0
  -23.5444  -29.9577   23.0153 C   0  0  0  0  0  0  0  0  0  0  0  0
  -32.1357  -22.0091   17.3800 C   0  0  0  0  0  0  0  0  0  0  0  0
  -21.4398  -28.8515   20.8086 C   0  0  0  0  0  0  0  0  0  0  0  0
  -20.9245  -27.1683   17.8849 C   0  0  0  0  0  0  0  0  0  0  0  0
  -29.0631  -19.3805   19.9309 C   0  0  0  0  0  0  0  0  0  0  0  0
  -23.5436  -33.3958   26.7885 C   0  0  0  0  0  0  0  0  0  0  0  0
  -24.5416  -30.8483   20.8779 C   0  0  0  0  0  0  0  0  0  0  0  0
  -23.8065  -27.9938   20.6402 C   0  0  0  0  0  0  0  0  0  0  0  0
  -22.4871  -32.5513   26.0808 C   0  0  0  0  0  0  0  0  0  0  0  0
  -31.1563  -17.0390   21.6080 C   0  0  0  0  0  0  0  0  0  0  0  0
  -22.9334  -31.0948   26.0012 C   0  0  0  0  0  0  0  0  0  0  0  0
  -30.5471  -15.6829   21.2448 C   0  0  0  0  0  0  0  0  0  0  0  0
  -30.0833  -18.1082   21.8058 C   0  0  0  0  0  0  0  0  0  0  0  0
  -28.5284  -16.8962   20.3284 C   0  0  0  0  0  0  0  0  0  0  0  0
  -24.2269  -30.9577   25.1890 C   0  0  1  0  0  0  0  0  0  0  0  0
  -23.3059  -30.2772   21.5666 C   0  0  1  0  0  0  0  0  0  0  0  0
  -29.5740  -15.8026   20.0555 C   0  0  2  0  0  0  0  0  0  0  0  0
  -31.1613  -22.1809   15.0704 C   0  0  0  0  0  0  0  0  0  0  0  0
  -19.0928  -26.3915   16.3555 C   0  0  0  0  0  0  0  0  0  0  0  0
  -20.7657  -26.6055   22.7607 C   0  0  0  0  0  0  0  0  0  0  0  0
  -19.6929  -25.3730   20.8638 C   0  0  0  0  0  0  0  0  0  0  0  0
  -18.7927  -27.5870   21.5783 C   0  0  0  0  0  0  0  0  0  0  0  0
  -21.9665  -28.7772   15.6300 C   0  0  0  0  0  0  0  0  0  0  0  0
  -30.1562  -26.2122   18.1172 C   0  0  0  0  0  0  0  0  0  0  0  0
  -32.6738  -20.5887   17.2928 C   0  0  0  0  0  0  0  0  0  0  0  0
  -29.6017  -27.3960   18.8956 C   0  0  0  0  0  0  0  0  0  1  0  0
  -30.8966  -22.3065   16.5573 C   0  0  2  0  0  0  0  0  0  0  0  0
  -20.9970  -27.4850   20.3443 C   0  0  1  0  0  0  0  0  0  0  0  0
  -20.0847  -27.5019   16.6651 C   0  0  2  0  0  0  0  0  0  0  0  0
  -20.0893  -26.7708   21.3852 C   0  0  0  0  0  0  0  0  0  0  0  0
  -33.3384  -20.1287   18.5700 C   0  0  0  0  0  0  0  0  0  0  0  0
  -27.7511  -14.1577   20.2845 N   0  0  0  0  0  0  0  0  0  0  0  0
  -28.3597  -21.5842   17.9185 N   0  0  0  0  0  0  0  0  0  0  0  0
  -28.9298  -14.4706   19.7199 N   0  0  0  0  0  0  0  0  0  0  0  0
  -22.8223  -29.0491   20.9325 N   0  0  0  0  0  0  0  0  0  0  0  0
  -29.2015  -18.1674   20.6380 N   0  0  0  0  0  0  0  0  0  0  0  0
  -30.5857  -13.6608   18.2323 N   0  0  0  0  0  0  0  0  0  0  0  0
  -27.5309  -10.3353   18.3011 N   0  0  0  0  0  0  0  0  0  0  0  0
  -28.1029  -23.5835   16.6089 N   0  0  0  0  0  0  0  0  0  0  0  0
  -28.2240  -19.3076   18.8195 N   0  0  0  0  0  0  0  0  0  0  0  0
  -23.9452  -31.0423   23.7720 N   0  0  0  0  0  0  0  0  0  0  0  0
  -20.3723  -27.6795   19.0404 N   0  0  0  0  0  0  0  0  0  0  0  0
  -30.5069  -23.6927   16.8457 N   0  3  0  0  0  0  0  0  0  0  0  0
  -20.9576  -27.6981   15.4732 N   0  3  0  0  0  0  0  0  0  0  0  0
  -29.5455  -10.9952   17.4267 O   0  0  0  0  0  0  0  0  0  0  0  0
  -28.1886  -26.2596   16.7224 O   0  0  0  0  0  0  0  0  0  0  0  0
  -23.3757  -28.8124   23.4171 O   0  0  0  0  0  0  0  0  0  0  0  0
  -32.6798  -22.8709   18.0705 O   0  0  0  0  0  0  0  0  0  0  0  0
  -20.5905  -29.7142   21.0456 O   0  0  0  0  0  0  0  0  0  0  0  0
  -21.9641  -26.5161   17.8198 O   0  0  0  0  0  0  0  0  0  0  0  0
  -29.6675  -20.4015   20.2692 O   0  0  0  0  0  0  0  0  0  0  0  0
  -22.7938  -10.2749   21.2323 O   0  0  0  0  0  0  0  0  0  0  0  0
  -28.4950  -26.9690   19.6889 O   0  0  0  0  0  0  0  0  0  1  0  0
  -23.1828   -4.9255   22.5116 F   0  0  0  0  0  0  0  0  0  0  0  0
  -22.0511   -9.3567   23.7319 F   0  0  0  0  0  0  0  0  0  0  0  0
  -26.3402  -22.0008   14.9554 F   0  0  0  0  0  0  0  0  0  0  0  0
  -34.3941  -20.9215   18.8619 F   0  0  0  0  0  0  0  0  0  0  0  0
  -33.7974  -18.8641   18.4612 F   0  0  0  0  0  0  0  0  0  0  0  0
  -32.4891  -20.1810   19.6177 F   0  0  0  0  0  0  0  0  0  0  0  0
  -26.8445  -19.9311   16.6324 S   0  0  0  0  0  0  0  0  0  0  0  0
  1  2  1  0  0  0  0
  1  5  2  0  0  0  0
  2  6  2  0  0  0  0
  3  8  2  0  0  0  0
  3 15  1  0  0  0  0
  4  9  1  0  0  0  0
  4 15  2  0  0  0  0
  5 17  1  0  0  0  0
  6 19  1  0  0  0  0
  7 10  2  0  0  0  0
  7 18  1  0  0  0  0
  8 21  1  0  0  0  0
  9 21  2  0  0  0  0
 10 22  1  0  0  0  0
 11 12  2  0  0  0  0
 11 23  1  0  0  0  0
 12 24  1  0  0  0  0
 13 20  1  0  0  0  0
 13 22  2  0  0  0  0
 14 24  2  0  0  0  0
 14 25  1  0  0  0  0
 15 26  1  0  0  0  0
 16 26  1  0  0  0  0
 16 28  2  0  0  0  0
 16 31  1  0  0  0  0
 17 19  2  0  0  0  0
 17 39  1  0  0  0  0
 18 20  2  0  0  0  0
 18 40  1  0  0  0  0
 19 48  1  0  0  0  0
 20 41  1  0  0  0  0
 21 85  1  0  0  0  0
 22 86  1  0  0  0  0
 23 25  2  0  0  0  0
 23 85  1  0  0  0  0
 24 87  1  0  0  0  0
 25 88  1  0  0  0  0
 26 65  2  0  0  0  0
 27 29  2  0  0  0  0
 27 66  1  0  0  0  0
 27 72  1  0  0  0  0
 28 67  1  0  0  0  0
 28 70  1  0  0  0  0
 29 89  1  0  0  0  0
 29 93  1  0  0  0  0
 30 66  2  0  0  0  0
 30 73  1  0  0  0  0
 30 93  1  0  0  0  0
 31 71  1  0  0  0  0
 31 78  2  0  0  0  0
 32 33  1  0  0  0  0
 32 57  1  0  0  0  0
 32 79  2  0  0  0  0
 33 72  1  0  0  0  0
 33 76  2  0  0  0  0
 34 49  1  0  0  0  0
 34 74  1  0  0  0  0
 34 80  2  0  0  0  0
 35 58  1  0  0  0  0
 35 60  1  0  0  0  0
 35 81  2  0  0  0  0
 36 61  1  0  0  0  0
 36 68  1  0  0  0  0
 36 82  2  0  0  0  0
 37 62  1  0  0  0  0
 37 75  1  0  0  0  0
 37 83  2  0  0  0  0
 38 69  1  0  0  0  0
 38 73  1  0  0  0  0
 38 84  2  0  0  0  0
 39 42  1  0  0  0  0
 40 49  1  0  0  0  0
 41 68  1  0  0  0  0
 42 44  1  0  0  0  0
 43 45  1  0  0  0  0
 43 46  1  0  0  0  0
 44 48  1  0  0  0  0
 45 50  1  0  0  0  0
 46 69  1  0  0  0  0
 47 50  1  0  0  0  0
 47 69  1  0  0  0  0
 48 74  1  0  0  0  0
 49 68  1  0  0  0  0
 50 67  1  0  0  0  0
 51 60  1  0  0  0  0
 52 62  1  0  0  0  0
 53 63  1  0  0  0  0
 54 63  1  0  0  0  0
 55 63  1  0  0  0  0
 56 77  1  0  0  0  0
 57 59  1  0  0  0  0
 58 64  1  0  0  0  0
 59 86  1  0  0  0  0
 60 76  1  0  0  0  0
 61 63  1  0  0  0  0
 61 75  1  0  0  0  0
 62 77  1  0  0  0  0
 64 90  1  0  0  0  0
 64 91  1  0  0  0  0
 64 92  1  0  0  0  0
 65 67  1  0  0  0  0
M  CHG  2  76   1  77   1
M  ISO  4  38 100  59 101  73 100  86 101
M  END
> <Batch ID>
0183

> <Smiles>
CNC(C)C(=O)NC(C(=O)N1Cc2cc([101O:1][101CH2:1]CC(=O)C(=NC(C)C(=O)CC(F)(F)F)Nc3nc([100NH:0][100C:0](=O)N4CCCC(n5nc(-c6ccc(Oc7ccc(F)cc7F)cc6)c(C(N)=O)c5N)C4)sc3F)ccc2CC1C(=O)NC1CCCc2ccccc21)C(C)(C)C

> <Shape>
0.334

> <Color>
0.079

> <Negative vol penalty>
0.000

$$$$

  -OEChem-04052304593D

 84 92  0     1  0  0  0  0  0999 V2000
  -24.4748  -24.6204   21.0242 C   0  0  0  0  0  0  0  0  0  0  0  0
  -25.2670  -24.0240   22.0000 C   0  0  0  0  0  0  0  0  0  0  0  0
  -23.0765   -9.8529   19.9487 C   0  0  0  0  0  0  0  0  0  0  0  0
  -23.8360   -9.8762   22.2421 C   0  0  0  0  0  0  0  0  0  0  0  0
  -24.8249  -24.5085   19.6793 C   0  0  0  0  0  0  0  0  0  0  0  0
  -26.4093  -23.3142   21.6312 C   0  0  0  0  0  0  0  0  0  0  0  0
  -30.4023  -24.4088   24.5472 C   0  0  0  0  0  0  0  0  0  0  0  0
  -22.3363   -8.6989   20.2055 C   0  0  0  0  0  0  0  0  0  0  0  0
  -23.0958   -8.7222   22.4989 C   0  0  0  0  0  0  0  0  0  0  0  0
  -30.4507  -23.8172   25.8087 C   0  0  0  0  0  0  0  0  0  0  0  0
  -19.8701   -7.9177   23.1058 C   0  0  0  0  0  0  0  0  0  0  0  0
  -19.1131   -7.8825   24.2768 C   0  0  0  0  0  0  0  0  0  0  0  0
  -31.9877  -22.1600   24.9659 C   0  0  0  0  0  0  0  0  0  0  0  0
  -20.3606   -5.9535   25.0252 C   0  0  0  0  0  0  0  0  0  0  0  0
  -23.8264  -10.4416   20.9669 C   0  0  0  0  0  0  0  0  0  0  0  0
  -24.1602  -12.9670   20.8317 C   0  0  0  0  0  0  0  0  0  0  0  0
  -25.9773  -23.8052   19.2946 C   0  0  0  0  0  0  0  0  0  0  0  0
  -31.1390  -23.8730   23.4810 C   0  0  0  0  0  0  0  0  0  0  0  0
  -26.7744  -23.1916   20.2798 C   0  0  0  0  0  0  0  0  0  0  0  0
  -31.9489  -22.7481   23.6924 C   0  0  0  0  0  0  0  0  0  0  0  0
  -22.3459   -8.1336   21.4806 C   0  0  0  0  0  0  0  0  0  0  0  0
  -31.2412  -22.6909   26.0175 C   0  0  0  0  0  0  0  0  0  0  0  0
  -20.8723   -6.9708   22.8944 C   0  0  0  0  0  0  0  0  0  0  0  0
  -19.3583   -6.9004   25.2365 C   0  0  0  0  0  0  0  0  0  0  0  0
  -21.1176   -5.9888   23.8541 C   0  0  0  0  0  0  0  0  0  0  0  0
  -24.5917  -11.6333   20.7021 C   0  0  0  0  0  0  0  0  0  0  0  0
  -29.9312  -17.7924   22.6938 C   0  0  0  0  0  0  0  0  0  0  0  0
  -25.2500  -13.7178   20.4640 C   0  0  0  0  0  0  0  0  0  0  0  0
  -28.7144  -18.3245   22.3218 C   0  0  0  0  0  0  0  0  0  0  0  0
  -29.4824  -18.9048   24.5299 C   0  0  0  0  0  0  0  0  0  0  0  0
  -22.8880  -13.4813   21.2473 C   0  0  0  0  0  0  0  0  0  0  0  0
  -30.4051  -22.6172   20.6547 C   0  0  0  0  0  0  0  0  0  0  0  0
  -33.6245  -22.6140   20.2569 C   0  0  0  0  0  0  0  0  0  0  0  0
  -30.5409  -19.3372   26.7743 C   0  0  0  0  0  0  0  0  0  0  0  0
  -36.7210  -22.6005   21.6915 C   0  0  0  0  0  0  0  0  0  0  0  0
  -30.7304  -14.7556   20.6470 C   0  0  0  0  0  0  0  0  0  0  0  0
  -26.2893  -23.6713   17.8251 C   0  0  0  0  0  0  0  0  0  0  0  0
  -31.0968  -24.5388   22.1329 C   0  0  0  0  0  0  0  0  0  0  0  0
  -32.7747  -22.1463   22.5859 C   0  0  0  0  0  0  0  0  0  0  0  0
  -27.7202  -23.2192   17.5449 C   0  0  0  0  0  0  0  0  0  0  0  0
  -29.6008  -12.3530   18.2745 C   0  0  0  0  0  0  0  0  0  0  0  0
  -28.0929  -22.0416   18.4401 C   0  0  0  0  0  0  0  0  0  0  0  0
  -28.1642  -12.0573   18.7090 C   0  0  0  0  0  0  0  0  0  0  0  0
  -30.5170  -12.5840   19.4742 C   0  0  0  0  0  0  0  0  0  0  0  0
  -28.6127  -13.3174   20.8560 C   0  0  0  0  0  0  0  0  0  0  0  0
  -28.0346  -22.4344   19.9212 C   0  0  1  0  0  0  0  0  0  0  0  0
  -31.4869  -23.6038   20.9923 C   0  0  1  0  0  0  0  0  0  0  0  0
  -27.6393  -13.1325   19.6794 C   0  0  2  0  0  0  0  0  0  0  0  0
  -39.1616  -22.5605   21.1093 C   0  0  0  0  0  0  0  0  0  0  0  0
  -29.7691  -22.3736   29.0803 C   0  0  0  0  0  0  0  0  0  0  0  0
  -33.4129  -19.6453   19.5845 C   0  0  0  0  0  0  0  0  0  0  0  0
  -35.8828  -19.4581   19.9489 C   0  0  0  0  0  0  0  0  0  0  0  0
  -34.9988  -20.9316   18.1406 C   0  0  0  0  0  0  0  0  0  0  0  0
  -37.1989  -25.2026   23.0179 C   0  0  0  0  0  0  0  0  0  0  0  0
  -30.7891  -16.9138   21.8708 C   0  0  0  0  0  0  0  0  0  0  0  0
  -30.1969  -20.1238   28.0354 C   0  0  0  0  0  0  0  0  0  0  0  0
  -34.7374  -21.6383   20.5539 C   0  0  1  0  0  0  0  0  0  0  0  0
  -37.9591  -23.4369   21.4232 C   0  0  2  0  0  0  0  0  0  0  0  0
  -30.0606  -21.6258   27.7860 C   0  0  2  0  0  0  0  0  0  1  0  0
  -34.7410  -20.4283   19.5775 C   0  0  0  0  0  0  0  0  0  0  0  0
  -25.8569  -11.5390   20.2846 N   0  0  0  0  0  0  0  0  0  0  0  0
  -30.3734  -18.1244   23.9596 N   0  0  0  0  0  0  0  0  0  0  0  0
  -26.2297  -12.8230   20.1485 N   0  0  0  0  0  0  0  0  0  0  0  0
  -32.6950  -22.8295   21.2843 N   0  0  0  0  0  0  0  0  0  0  0  0
  -29.9630  -13.6161   20.3538 N   0  0  0  0  0  0  0  0  0  0  0  0
  -25.4561  -15.0495   20.3830 N   0  0  0  0  0  0  0  0  0  0  0  0
  -28.0548  -18.1628   21.1490 N   0  0  0  0  0  0  0  0  0  0  0  0
  -21.8789  -12.5709   21.5899 N   0  0  0  0  0  0  0  0  0  0  0  0
  -29.5335  -19.4770   25.8232 N   0  0  0  0  0  0  0  0  0  0  0  0
  -29.2070  -23.1996   20.2877 N   0  0  0  0  0  0  0  0  0  0  0  0
  -35.9729  -22.4143   20.5483 N   0  0  0  0  0  0  0  0  0  0  0  0
  -30.1281  -15.6875   21.4833 N   0  0  0  0  0  0  0  0  0  0  0  0
  -38.2857  -24.2748   22.6116 N   0  3  0  0  0  0  0  0  0  0  0  0
  -22.6477  -14.7115   21.2971 O   0  0  0  0  0  0  0  0  0  0  0  0
  -30.6405  -21.4164   20.7207 O   0  0  0  0  0  0  0  0  0  0  0  0
  -33.5854  -23.1701   19.1565 O   0  0  0  0  0  0  0  0  0  0  0  0
  -31.5772  -18.6897   26.6702 O   0  0  0  0  0  0  0  0  0  0  0  0
  -36.4470  -22.1537   22.8032 O   0  0  0  0  0  0  0  0  0  0  0  0
  -31.8658  -14.9319   20.1924 O   0  0  0  0  0  0  0  0  0  0  0  0
  -21.6235   -7.0077   21.7317 O   0  0  0  0  0  0  0  0  0  0  0  0
  -31.2898  -22.1111   27.2477 O   0  0  0  0  0  0  0  0  0  1  0  0
  -18.6323   -6.8676   26.3617 F   0  0  0  0  0  0  0  0  0  0  0  0
  -22.0798   -5.0771   23.6572 F   0  0  0  0  0  0  0  0  0  0  0  0
  -28.0886  -19.2794   23.6015 S   0  0  0  0  0  0  0  0  0  0  0  0
  1  2  1  0  0  0  0
  1  5  2  0  0  0  0
  2  6  2  0  0  0  0
  3  8  2  0  0  0  0
  3 15  1  0  0  0  0
  4  9  1  0  0  0  0
  4 15  2  0  0  0  0
  5 17  1  0  0  0  0
  6 19  1  0  0  0  0
  7 10  2  0  0  0  0
  7 18  1  0  0  0  0
  8 21  1  0  0  0  0
  9 21  2  0  0  0  0
 10 22  1  0  0  0  0
 11 12  2  0  0  0  0
 11 23  1  0  0  0  0
 12 24  1  0  0  0  0
 13 20  1  0  0  0  0
 13 22  2  0  0  0  0
 14 24  2  0  0  0  0
 14 25  1  0  0  0  0
 15 26  1  0  0  0  0
 16 26  1  0  0  0  0
 16 28  2  0  0  0  0
 16 31  1  0  0  0  0
 17 19  2  0  0  0  0
 17 37  1  0  0  0  0
 18 20  2  0  0  0  0
 18 38  1  0  0  0  0
 19 46  1  0  0  0  0
 20 39  1  0  0  0  0
 21 80  1  0  0  0  0
 22 81  1  0  0  0  0
 23 25  2  0  0  0  0
 23 80  1  0  0  0  0
 24 82  1  0  0  0  0
 25 83  1  0  0  0  0
 26 61  2  0  0  0  0
 27 29  2  0  0  0  0
 27 55  1  0  0  0  0
 27 62  1  0  0  0  0
 28 63  1  0  0  0  0
 28 66  1  0  0  0  0
 29 67  1  0  0  0  0
 29 84  1  0  0  0  0
 30 62  2  0  0  0  0
 30 69  1  0  0  0  0
 30 84  1  0  0  0  0
 31 68  1  0  0  0  0
 31 74  2  0  0  0  0
 32 47  1  0  0  0  0
 32 70  1  0  0  0  0
 32 75  2  0  0  0  0
 33 57  1  0  0  0  0
 33 64  1  0  0  0  0
 33 76  2  0  0  0  0
 34 56  1  0  0  0  0
 34 69  1  0  0  0  0
 34 77  2  0  0  0  0
 35 58  1  0  0  0  0
 35 71  1  0  0  0  0
 35 78  2  0  0  0  0
 36 65  1  0  0  0  0
 36 72  1  0  0  0  0
 36 79  2  0  0  0  0
 37 40  1  0  0  0  0
 38 47  1  0  0  0  0
 39 64  1  0  0  0  0
 40 42  1  0  0  0  0
 41 43  1  0  0  0  0
 41 44  1  0  0  0  0
 42 46  1  0  0  0  0
 43 48  1  0  0  0  0
 44 65  1  0  0  0  0
 45 48  1  0  0  0  0
 45 65  1  0  0  0  0
 46 70  1  0  0  0  0
 47 64  1  0  0  0  0
 48 63  1  0  0  0  0
 49 58  1  0  0  0  0
 50 59  1  0  0  0  0
 51 60  1  0  0  0  0
 52 60  1  0  0  0  0
 53 60  1  0  0  0  0
 54 73  1  0  0  0  0
 55 72  1  0  0  0  0
 56 59  1  0  0  0  0
 57 60  1  0  0  0  0
 57 71  1  0  0  0  0
 58 73  1  0  0  0  0
 59 81  1  0  0  0  0
 61 63  1  0  0  0  0
M  CHG  1  73   1
M  ISO  4  36 100  59 101  72 100  81 101
M  END
> <Batch ID>
0183

> <Smiles>
CNC(C)C(=O)NC(C(=O)N1Cc2cc([101O:1][101CH:1](C)CC(=O)Nc3nc(C[100NH:0][100C:0](=O)N4CCCC(n5nc(-c6ccc(Oc7ccc(F)cc7F)cc6)c(C(N)=O)c5N)C4)c(N)s3)ccc2CC1C(=O)NC1CCCc2ccccc21)C(C)(C)C

> <Shape>
0.201

> <Color>
0.181

> <Negative vol penalty>
0.000

$$$$

  -OEChem-04052304593D

 87 95  0     1  0  0  0  0  0999 V2000
  -22.4841  -14.1550   35.6726 C   0  0  0  0  0  0  0  0  0  0  0  0
  -23.2308  -15.2541   35.2606 C   0  0  0  0  0  0  0  0  0  0  0  0
  -23.0755   -9.8658   19.9424 C   0  0  0  0  0  0  0  0  0  0  0  0
  -23.8353   -9.8757   22.2358 C   0  0  0  0  0  0  0  0  0  0  0  0
  -22.0817  -13.1984   34.7415 C   0  0  0  0  0  0  0  0  0  0  0  0
  -23.5765  -15.3968   33.9172 C   0  0  0  0  0  0  0  0  0  0  0  0
  -24.6945  -20.4304   28.9444 C   0  0  0  0  0  0  0  0  0  0  0  0
  -22.3321   -8.7126   20.1937 C   0  0  0  0  0  0  0  0  0  0  0  0
  -23.0918   -8.7225   22.4871 C   0  0  0  0  0  0  0  0  0  0  0  0
  -25.6486  -20.8262   28.0081 C   0  0  0  0  0  0  0  0  0  0  0  0
  -21.1079   -5.9862   23.8268 C   0  0  0  0  0  0  0  0  0  0  0  0
  -20.3516   -5.9437   24.9980 C   0  0  0  0  0  0  0  0  0  0  0  0
  -24.8307  -19.1522   26.4758 C   0  0  0  0  0  0  0  0  0  0  0  0
  -19.1063   -7.8797   24.2642 C   0  0  0  0  0  0  0  0  0  0  0  0
  -23.8272  -10.4473   20.9635 C   0  0  0  0  0  0  0  0  0  0  0  0
  -24.1681  -12.9724   20.8406 C   0  0  0  0  0  0  0  0  0  0  0  0
  -22.4144  -13.3344   33.3845 C   0  0  0  0  0  0  0  0  0  0  0  0
  -23.8069  -19.3834   28.6571 C   0  0  0  0  0  0  0  0  0  0  0  0
  -23.1793  -14.4404   32.9673 C   0  0  0  0  0  0  0  0  0  0  0  0
  -23.8646  -18.7466   27.4092 C   0  0  0  0  0  0  0  0  0  0  0  0
  -22.3402   -8.1410   21.4660 C   0  0  0  0  0  0  0  0  0  0  0  0
  -25.7187  -20.1852   26.7747 C   0  0  0  0  0  0  0  0  0  0  0  0
  -20.8635   -6.9755   22.8742 C   0  0  0  0  0  0  0  0  0  0  0  0
  -19.3508   -6.8904   25.2167 C   0  0  0  0  0  0  0  0  0  0  0  0
  -19.8627   -7.9222   23.0929 C   0  0  0  0  0  0  0  0  0  0  0  0
  -24.5959  -11.6381   20.7044 C   0  0  0  0  0  0  0  0  0  0  0  0
  -30.7062  -19.0988   22.9830 C   0  0  0  0  0  0  0  0  0  0  0  0
  -31.8082  -18.7301   22.2402 C   0  0  0  0  0  0  0  0  0  0  0  0
  -25.2600  -13.7219   20.4765 C   0  0  0  0  0  0  0  0  0  0  0  0
  -30.5705  -16.9520   21.8990 C   0  0  0  0  0  0  0  0  0  0  0  0
  -22.8974  -13.4882   21.2588 C   0  0  0  0  0  0  0  0  0  0  0  0
  -30.4373  -20.3273   23.7740 C   0  0  0  0  0  0  0  0  0  0  0  0
  -23.2327  -16.5209   29.9142 C   0  0  0  0  0  0  0  0  0  0  0  0
  -20.7869  -16.5069   27.7834 C   0  0  0  0  0  0  0  0  0  0  0  0
  -19.4876  -17.6866   24.8565 C   0  0  0  0  0  0  0  0  0  0  0  0
  -30.7258  -14.7696   20.6502 C   0  0  0  0  0  0  0  0  0  0  0  0
  -21.9973  -12.2502   32.4226 C   0  0  0  0  0  0  0  0  0  0  0  0
  -22.7660  -18.9861   29.6676 C   0  0  0  0  0  0  0  0  0  0  0  0
  -22.9214  -17.6306   27.0440 C   0  0  0  0  0  0  0  0  0  0  0  0
  -22.0852  -12.6690   30.9573 C   0  0  0  0  0  0  0  0  0  0  0  0
  -29.6123  -12.3528   18.2846 C   0  0  0  0  0  0  0  0  0  0  0  0
  -23.4142  -13.3645   30.6798 C   0  0  0  0  0  0  0  0  0  0  0  0
  -28.1728  -12.0612   18.7144 C   0  0  0  0  0  0  0  0  0  0  0  0
  -30.5273  -12.5832   19.4860 C   0  0  0  0  0  0  0  0  0  0  0  0
  -28.6201  -13.3085   20.8664 C   0  0  0  0  0  0  0  0  0  0  0  0
  -23.5528  -14.6431   31.5149 C   0  0  1  0  0  0  0  0  0  0  0  0
  -22.2494  -17.5649   29.4661 C   0  0  1  0  0  0  0  0  0  0  0  0
  -27.6473  -13.1337   19.6888 C   0  0  2  0  0  0  0  0  0  0  0  0
  -17.4880  -17.4625   23.3569 C   0  0  0  0  0  0  0  0  0  0  0  0
  -28.5244  -20.0647   27.2786 C   0  0  0  0  0  0  0  0  0  0  0  0
  -21.8474  -13.8301   26.7734 C   0  0  0  0  0  0  0  0  0  0  0  0
  -20.4384  -14.1240   24.7248 C   0  0  0  0  0  0  0  0  0  0  0  0
  -19.3574  -13.9597   26.9670 C   0  0  0  0  0  0  0  0  0  0  0  0
  -18.7818  -20.5428   25.1772 C   0  0  0  0  0  0  0  0  0  0  0  0
  -20.6198  -16.0618   26.3506 C   0  0  1  0  0  0  0  0  0  0  0  0
  -18.1129  -18.2303   24.5114 C   0  0  2  0  0  0  0  0  0  0  0  0
  -28.7891  -21.5174   25.1964 C   0  0  2  0  0  0  0  0  0  0  0  0
  -27.8759  -21.0976   26.3623 C   0  0  1  0  0  0  0  0  0  1  0  0
  -20.5849  -14.5136   26.2113 C   0  0  0  0  0  0  0  0  0  0  0  0
  -28.1364  -22.5501   24.2898 C   0  0  0  0  0  0  0  0  0  0  0  0
  -25.8608  -11.5423   20.2863 N   0  0  0  0  0  0  0  0  0  0  0  0
  -31.7323  -17.4992   21.6182 N   0  0  0  0  0  0  0  0  0  0  0  0
  -26.2372  -12.8259   20.1565 N   0  0  0  0  0  0  0  0  0  0  0  0
  -21.9254  -17.2742   28.0680 N   0  0  0  0  0  0  0  0  0  0  0  0
  -29.9680  -13.6148   20.3622 N   0  0  0  0  0  0  0  0  0  0  0  0
  -32.9162  -19.4970   22.1014 N   0  0  0  0  0  0  0  0  0  0  0  0
  -25.4699  -15.0533   20.4019 N   0  0  0  0  0  0  0  0  0  0  0  0
  -21.8858  -12.5791   21.5971 N   0  0  0  0  0  0  0  0  0  0  0  0
  -30.0781  -15.6953   21.4676 N   0  0  0  0  0  0  0  0  0  0  0  0
  -29.2074  -20.3787   24.4101 N   0  0  0  0  0  0  0  0  0  0  0  0
  -22.7694  -15.7129   30.9349 N   0  0  0  0  0  0  0  0  0  0  0  0
  -19.4250  -16.7337   25.8511 N   0  0  0  0  0  0  0  0  0  0  0  0
  -18.2059  -19.6666   24.1248 N   0  3  0  0  0  0  0  0  0  0  0  0
  -22.6607  -14.7188   21.3147 O   0  0  0  0  0  0  0  0  0  0  0  0
  -31.2834  -21.2171   23.8066 O   0  0  0  0  0  0  0  0  0  0  0  0
  -24.3300  -16.4525   29.3728 O   0  0  0  0  0  0  0  0  0  0  0  0
  -19.9349  -16.1917   28.6179 O   0  0  0  0  0  0  0  0  0  0  0  0
  -20.5138  -18.0664   24.2969 O   0  0  0  0  0  0  0  0  0  0  0  0
  -31.8549  -14.9382   20.1825 O   0  0  0  0  0  0  0  0  0  0  0  0
  -21.6147   -7.0159   21.7116 O   0  0  0  0  0  0  0  0  0  0  0  0
  -26.6495  -20.5692   25.8592 O   0  0  0  0  0  0  0  0  0  1  0  0
  -18.6236   -6.8485   26.3408 F   0  0  0  0  0  0  0  0  0  0  0  0
  -19.6224   -8.8743   22.1810 F   0  0  0  0  0  0  0  0  0  0  0  0
  -28.9632  -22.8952   23.2776 F   0  0  0  0  0  0  0  0  0  0  0  0
  -27.0062  -22.0573   23.7337 F   0  0  0  0  0  0  0  0  0  0  0  0
  -27.8070  -23.6775   24.9547 F   0  0  0  0  0  0  0  0  0  0  0  0
  -29.5200  -17.8627   22.9050 S   0  0  0  0  0  0  0  0  0  0  0  0
  1  2  1  0  0  0  0
  1  5  2  0  0  0  0
  2  6  2  0  0  0  0
  3  8  2  0  0  0  0
  3 15  1  0  0  0  0
  4  9  1  0  0  0  0
  4 15  2  0  0  0  0
  5 17  1  0  0  0  0
  6 19  1  0  0  0  0
  7 10  2  0  0  0  0
  7 18  1  0  0  0  0
  8 21  1  0  0  0  0
  9 21  2  0  0  0  0
 10 22  1  0  0  0  0
 11 12  2  0  0  0  0
 11 23  1  0  0  0  0
 12 24  1  0  0  0  0
 13 20  1  0  0  0  0
 13 22  2  0  0  0  0
 14 24  2  0  0  0  0
 14 25  1  0  0  0  0
 15 26  1  0  0  0  0
 16 26  1  0  0  0  0
 16 29  2  0  0  0  0
 16 31  1  0  0  0  0
 17 19  2  0  0  0  0
 17 37  1  0  0  0  0
 18 20  2  0  0  0  0
 18 38  1  0  0  0  0
 19 46  1  0  0  0  0
 20 39  1  0  0  0  0
 21 80  1  0  0  0  0
 22 81  1  0  0  0  0
 23 25  2  0  0  0  0
 23 80  1  0  0  0  0
 24 82  1  0  0  0  0
 25 83  1  0  0  0  0
 26 61  2  0  0  0  0
 27 28  2  0  0  0  0
 27 32  1  0  0  0  0
 27 87  1  0  0  0  0
 28 62  1  0  0  0  0
 28 66  1  0  0  0  0
 29 63  1  0  0  0  0
 29 67  1  0  0  0  0
 30 62  2  0  0  0  0
 30 69  1  0  0  0  0
 30 87  1  0  0  0  0
 31 68  1  0  0  0  0
 31 74  2  0  0  0  0
 32 70  1  0  0  0  0
 32 75  2  0  0  0  0
 33 47  1  0  0  0  0
 33 71  1  0  0  0  0
 33 76  2  0  0  0  0
 34 55  1  0  0  0  0
 34 64  1  0  0  0  0
 34 77  2  0  0  0  0
 35 56  1  0  0  0  0
 35 72  1  0  0  0  0
 35 78  2  0  0  0  0
 36 65  1  0  0  0  0
 36 69  1  0  0  0  0
 36 79  2  0  0  0  0
 37 40  1  0  0  0  0
 38 47  1  0  0  0  0
 39 64  1  0  0  0  0
 40 42  1  0  0  0  0
 41 43  1  0  0  0  0
 41 44  1  0  0  0  0
 42 46  1  0  0  0  0
 43 48  1  0  0  0  0
 44 65  1  0  0  0  0
 45 48  1  0  0  0  0
 45 65  1  0  0  0  0
 46 71  1  0  0  0  0
 47 64  1  0  0  0  0
 48 63  1  0  0  0  0
 49 56  1  0  0  0  0
 50 58  1  0  0  0  0
 51 59  1  0  0  0  0
 52 59  1  0  0  0  0
 53 59  1  0  0  0  0
 54 73  1  0  0  0  0
 55 59  1  0  0  0  0
 55 72  1  0  0  0  0
 56 73  1  0  0  0  0
 57 58  1  0  0  0  0
 57 60  1  0  0  0  0
 57 70  1  0  0  0  0
 58 81  1  0  0  0  0
 60 84  1  0  0  0  0
 60 85  1  0  0  0  0
 60 86  1  0  0  0  0
 61 63  1  0  0  0  0
M  CHG  1  73   1
M  ISO  4  36 100  58 101  69 100  81 101
M  END
> <Batch ID>
0183

> <Smiles>
CNC(C)C(=O)NC(C(=O)N1Cc2cc([101O:1][101CH:1](C)C(NC(=O)c3sc([100NH:0][100C:0](=O)N4CCCC(n5nc(-c6ccc(Oc7ccc(F)cc7F)cc6)c(C(N)=O)c5N)C4)nc3N)C(F)(F)F)ccc2CC1C(=O)NC1CCCc2ccccc21)C(C)(C)C

> <Shape>
0.161

> <Color>
0.180

> <Negative vol penalty>
0.000

$$$$

  -OEChem-04052304593D

 82 90  0     1  0  0  0  0  0999 V2000
  -22.1629  -30.4304   23.1607 C   0  0  0  0  0  0  0  0  0  0  0  0
  -21.7871  -29.1308   22.8361 C   0  0  0  0  0  0  0  0  0  0  0  0
  -24.2493  -13.7276   24.0671 C   0  0  0  0  0  0  0  0  0  0  0  0
  -23.4393  -15.3788   22.5004 C   0  0  0  0  0  0  0  0  0  0  0  0
  -23.3156  -30.9815   22.6025 C   0  0  0  0  0  0  0  0  0  0  0  0
  -22.5632  -28.3820   21.9521 C   0  0  0  0  0  0  0  0  0  0  0  0
  -23.5552  -22.3414   22.1328 C   0  0  0  0  0  0  0  0  0  0  0  0
  -23.6921  -14.4532   25.1200 C   0  0  0  0  0  0  0  0  0  0  0  0
  -22.8820  -16.1044   23.5533 C   0  0  0  0  0  0  0  0  0  0  0  0
  -22.9774  -21.2750   21.4452 C   0  0  0  0  0  0  0  0  0  0  0  0
  -21.5561  -18.5781   25.8626 C   0  0  0  0  0  0  0  0  0  0  0  0
  -21.7477  -19.9597   25.8707 C   0  0  0  0  0  0  0  0  0  0  0  0
  -24.7798  -21.3394   19.8431 C   0  0  0  0  0  0  0  0  0  0  0  0
  -24.1394  -19.6275   25.9520 C   0  0  0  0  0  0  0  0  0  0  0  0
  -27.5193  -17.6069   14.2550 C   0  0  0  0  0  0  0  0  0  0  0  0
  -24.1229  -14.1904   22.7573 C   0  0  0  0  0  0  0  0  0  0  0  0
  -24.0814  -12.4247   20.9166 C   0  0  0  0  0  0  0  0  0  0  0  0
  -24.1114  -30.2357   21.7188 C   0  0  0  0  0  0  0  0  0  0  0  0
  -24.7458  -22.9229   21.6737 C   0  0  0  0  0  0  0  0  0  0  0  0
  -23.7268  -28.9242   21.3805 C   0  0  0  0  0  0  0  0  0  0  0  0
  -25.3719  -22.4114   20.5281 C   0  0  0  0  0  0  0  0  0  0  0  0
  -23.0084  -15.6416   24.8631 C   0  0  0  0  0  0  0  0  0  0  0  0
  -23.5882  -20.7757   20.2985 C   0  0  0  0  0  0  0  0  0  0  0  0
  -22.6562  -17.7212   25.8992 C   0  0  0  0  0  0  0  0  0  0  0  0
  -23.0394  -20.4844   25.9154 C   0  0  0  0  0  0  0  0  0  0  0  0
  -23.9478  -18.2459   25.9439 C   0  0  0  0  0  0  0  0  0  0  0  0
  -24.6988  -13.4416   21.6693 C   0  0  0  0  0  0  0  0  0  0  0  0
  -27.8416  -17.2512   15.5480 C   0  0  0  0  0  0  0  0  0  0  0  0
  -25.0395  -12.0375   20.0118 C   0  0  0  0  0  0  0  0  0  0  0  0
  -25.9681  -18.3158   15.9561 C   0  0  0  0  0  0  0  0  0  0  0  0
  -22.7600  -11.8791   21.0254 C   0  0  0  0  0  0  0  0  0  0  0  0
  -25.5803  -25.8130   20.6468 C   0  0  0  0  0  0  0  0  0  0  0  0
  -28.5575  -24.5251   20.6432 C   0  0  0  0  0  0  0  0  0  0  0  0
  -30.5028  -21.7253   20.4890 C   0  0  0  0  0  0  0  0  0  0  0  0
  -24.5402  -18.9164   17.9409 C   0  0  0  0  0  0  0  0  0  0  0  0
  -29.7806  -14.8278   17.6481 C   0  0  0  0  0  0  0  0  0  0  0  0
  -25.3228  -30.8906   21.1039 C   0  0  0  0  0  0  0  0  0  0  0  0
  -25.3704  -24.0552   22.4419 C   0  0  0  0  0  0  0  0  0  0  0  0
  -26.6618  -22.9872   20.0054 C   0  0  0  0  0  0  0  0  0  0  0  0
  -26.2936  -29.8996   20.4669 C   0  0  0  0  0  0  0  0  0  0  0  0
  -29.7853  -11.7678   19.4683 C   0  0  0  0  0  0  0  0  0  0  0  0
  -25.5394  -28.8937   19.6031 C   0  0  0  0  0  0  0  0  0  0  0  0
  -28.4265  -11.7581   20.1709 C   0  0  0  0  0  0  0  0  0  0  0  0
  -30.3731  -13.1754   19.3959 C   0  0  0  0  0  0  0  0  0  0  0  0
  -28.1244  -14.1784   19.5006 C   0  0  0  0  0  0  0  0  0  0  0  0
  -24.5561  -28.0716   20.4448 C   0  0  1  0  0  0  0  0  0  0  0  0
  -26.3121  -24.9047   21.5939 C   0  0  1  0  0  0  0  0  0  0  0  0
  -27.4659  -12.7890   19.5483 C   0  0  2  0  0  0  0  0  0  0  0  0
  -32.9028  -20.9928   20.4703 C   0  0  0  0  0  0  0  0  0  0  0  0
  -22.0514  -19.0166   17.5465 C   0  0  0  0  0  0  0  0  0  0  0  0
  -28.8061  -25.4220   17.7374 C   0  0  0  0  0  0  0  0  0  0  0  0
  -30.7574  -23.8717   17.4987 C   0  0  0  0  0  0  0  0  0  0  0  0
  -30.8640  -25.7681   19.1157 C   0  0  0  0  0  0  0  0  0  0  0  0
  -30.1645  -20.1576   22.9763 C   0  0  0  0  0  0  0  0  0  0  0  0
  -29.0361  -16.4875   15.9598 C   0  0  0  0  0  0  0  0  0  0  0  0
  -29.3970  -23.7760   19.6367 C   0  0  1  0  0  0  0  0  0  0  0  0
  -31.6803  -21.2692   21.3315 C   0  0  2  0  0  0  0  0  0  0  0  0
  -23.2465  -19.6785   18.2164 C   0  0  1  0  0  0  0  0  0  1  0  0
  -29.9308  -24.6996   18.5056 C   0  0  0  0  0  0  0  0  0  0  0  0
  -25.9522  -13.6849   21.2770 N   0  0  0  0  0  0  0  0  0  0  0  0
  -26.9535  -17.6572   16.5248 N   0  0  0  0  0  0  0  0  0  0  0  0
  -26.1301  -12.8154   20.2678 N   0  0  0  0  0  0  0  0  0  0  0  0
  -27.2301  -24.0974   20.7878 N   0  0  0  0  0  0  0  0  0  0  0  0
  -29.4130  -14.1040   18.7944 N   0  0  0  0  0  0  0  0  0  0  0  0
  -25.0470  -11.1108   19.0301 N   0  0  0  0  0  0  0  0  0  0  0  0
  -21.9043  -12.3921   22.0097 N   0  0  0  0  0  0  0  0  0  0  0  0
  -24.8452  -18.9057   16.5838 N   0  0  0  0  0  0  0  0  0  0  0  0
  -25.2591  -27.0450   21.1840 N   0  0  0  0  0  0  0  0  0  0  0  0
  -30.4413  -23.0998   20.3988 N   0  0  0  0  0  0  0  0  0  0  0  0
  -28.8095  -15.6809   17.1383 N   0  0  0  0  0  0  0  0  0  0  0  0
  -31.3354  -20.0228   22.0721 N   0  3  0  0  0  0  0  0  0  0  0  0
  -22.3559  -10.9523   20.2829 O   0  0  0  0  0  0  0  0  0  0  0  0
  -25.3271  -25.4254   19.5122 O   0  0  0  0  0  0  0  0  0  0  0  0
  -29.0629  -25.4508   21.2828 O   0  0  0  0  0  0  0  0  0  0  0  0
  -29.7183  -20.9406   19.9604 O   0  0  0  0  0  0  0  0  0  0  0  0
  -25.1898  -18.4145   18.8536 O   0  0  0  0  0  0  0  0  0  0  0  0
  -30.8900  -14.7178   17.1152 O   0  0  0  0  0  0  0  0  0  0  0  0
  -22.4643  -16.3498   25.8902 O   0  0  0  0  0  0  0  0  0  0  0  0
  -23.0260  -19.7353   19.6251 O   0  0  0  0  0  0  0  0  0  1  0  0
  -23.2233  -21.8112   25.9217 F   0  0  0  0  0  0  0  0  0  0  0  0
  -25.0085  -17.4277   25.9780 F   0  0  0  0  0  0  0  0  0  0  0  0
  -26.0455  -18.4839   14.2501 S   0  0  0  0  0  0  0  0  0  0  0  0
  1  2  1  0  0  0  0
  1  5  2  0  0  0  0
  2  6  2  0  0  0  0
  3  8  2  0  0  0  0
  3 16  1  0  0  0  0
  4  9  1  0  0  0  0
  4 16  2  0  0  0  0
  5 18  1  0  0  0  0
  6 20  1  0  0  0  0
  7 10  2  0  0  0  0
  7 19  1  0  0  0  0
  8 22  1  0  0  0  0
  9 22  2  0  0  0  0
 10 23  1  0  0  0  0
 11 12  2  0  0  0  0
 11 24  1  0  0  0  0
 12 25  1  0  0  0  0
 13 21  1  0  0  0  0
 13 23  2  0  0  0  0
 14 25  2  0  0  0  0
 14 26  1  0  0  0  0
 15 28  2  0  0  0  0
 15 82  1  0  0  0  0
 16 27  1  0  0  0  0
 17 27  1  0  0  0  0
 17 29  2  0  0  0  0
 17 31  1  0  0  0  0
 18 20  2  0  0  0  0
 18 37  1  0  0  0  0
 19 21  2  0  0  0  0
 19 38  1  0  0  0  0
 20 46  1  0  0  0  0
 21 39  1  0  0  0  0
 22 78  1  0  0  0  0
 23 79  1  0  0  0  0
 24 26  2  0  0  0  0
 24 78  1  0  0  0  0
 25 80  1  0  0  0  0
 26 81  1  0  0  0  0
 27 60  2  0  0  0  0
 28 55  1  0  0  0  0
 28 61  1  0  0  0  0
 29 62  1  0  0  0  0
 29 65  1  0  0  0  0
 30 61  2  0  0  0  0
 30 67  1  0  0  0  0
 30 82  1  0  0  0  0
 31 66  1  0  0  0  0
 31 72  2  0  0  0  0
 32 47  1  0  0  0  0
 32 68  1  0  0  0  0
 32 73  2  0  0  0  0
 33 56  1  0  0  0  0
 33 63  1  0  0  0  0
 33 74  2  0  0  0  0
 34 57  1  0  0  0  0
 34 69  1  0  0  0  0
 34 75  2  0  0  0  0
 35 58  1  0  0  0  0
 35 67  1  0  0  0  0
 35 76  2  0  0  0  0
 36 64  1  0  0  0  0
 36 70  1  0  0  0  0
 36 77  2  0  0  0  0
 37 40  1  0  0  0  0
 38 47  1  0  0  0  0
 39 63  1  0  0  0  0
 40 42  1  0  0  0  0
 41 43  1  0  0  0  0
 41 44  1  0  0  0  0
 42 46  1  0  0  0  0
 43 48  1  0  0  0  0
 44 64  1  0  0  0  0
 45 48  1  0  0  0  0
 45 64  1  0  0  0  0
 46 68  1  0  0  0  0
 47 63  1  0  0  0  0
 48 62  1  0  0  0  0
 49 57  1  0  0  0  0
 50 58  1  0  0  0  0
 51 59  1  0  0  0  0
 52 59  1  0  0  0  0
 53 59  1  0  0  0  0
 54 71  1  0  0  0  0
 55 70  1  0  0  0  0
 56 59  1  0  0  0  0
 56 69  1  0  0  0  0
 57 71  1  0  0  0  0
 58 79  1  0  0  0  0
 60 62  1  0  0  0  0
M  CHG  1  71   1
M  ISO  4  36 100  58 101  70 100  79 101
M  END
> <Batch ID>
0183

> <Smiles>
CNC(C)C(=O)NC(C(=O)N1Cc2cc([101O:1][101CH:1](C)C(=O)Nc3nc(C[100NH:0][100C:0](=O)N4CCCC(n5nc(-c6ccc(Oc7ccc(F)cc7F)cc6)c(C(N)=O)c5N)C4)cs3)ccc2CC1C(=O)NC1CCCc2ccccc21)C(C)(C)C

> <Shape>
0.185

> <Color>
0.078

> <Negative vol penalty>
0.000

$$$$

  -OEChem-04052304593D

 87 95  0     1  0  0  0  0  0999 V2000
  -27.9173  -30.4277   26.4957 C   0  0  0  0  0  0  0  0  0  0  0  0
  -27.6836  -29.6559   25.3621 C   0  0  0  0  0  0  0  0  0  0  0  0
  -27.5936  -23.3753   20.3823 C   0  0  0  0  0  0  0  0  0  0  0  0
  -29.3156  -23.5720   18.6991 C   0  0  0  0  0  0  0  0  0  0  0  0
  -27.9448  -29.8265   27.7534 C   0  0  0  0  0  0  0  0  0  0  0  0
  -27.4784  -28.2822   25.4853 C   0  0  0  0  0  0  0  0  0  0  0  0
  -23.8443  -22.8886   22.4821 C   0  0  0  0  0  0  0  0  0  0  0  0
  -27.6074  -24.7589   20.5582 C   0  0  0  0  0  0  0  0  0  0  0  0
  -29.3293  -24.9557   18.8749 C   0  0  0  0  0  0  0  0  0  0  0  0
  -24.0483  -21.6141   21.9552 C   0  0  0  0  0  0  0  0  0  0  0  0
  -26.3787  -27.4832   18.9766 C   0  0  0  0  0  0  0  0  0  0  0  0
  -25.1502  -28.1399   19.0479 C   0  0  0  0  0  0  0  0  0  0  0  0
  -24.0394  -20.6968   24.1863 C   0  0  0  0  0  0  0  0  0  0  0  0
  -25.7023  -28.9326   21.2624 C   0  0  0  0  0  0  0  0  0  0  0  0
  -28.4478  -22.7818   19.4528 C   0  0  0  0  0  0  0  0  0  0  0  0
  -27.6394  -20.6173   18.3716 C   0  0  0  0  0  0  0  0  0  0  0  0
  -27.7303  -28.4462   27.8931 C   0  0  0  0  0  0  0  0  0  0  0  0
  -23.7471  -23.0786   23.8681 C   0  0  0  0  0  0  0  0  0  0  0  0
  -27.5044  -27.6618   26.7459 C   0  0  0  0  0  0  0  0  0  0  0  0
  -23.8316  -21.9745   24.7282 C   0  0  0  0  0  0  0  0  0  0  0  0
  -28.4752  -25.5491   19.8045 C   0  0  0  0  0  0  0  0  0  0  0  0
  -24.1488  -20.5183   22.8075 C   0  0  0  0  0  0  0  0  0  0  0  0
  -27.2691  -27.5512   20.0482 C   0  0  0  0  0  0  0  0  0  0  0  0
  -24.8120  -28.8646   20.1907 C   0  0  0  0  0  0  0  0  0  0  0  0
  -26.9309  -28.2759   21.1911 C   0  0  0  0  0  0  0  0  0  0  0  0
  -28.4344  -21.3525   19.2711 C   0  0  0  0  0  0  0  0  0  0  0  0
  -25.9203  -13.6198   20.7945 C   0  0  0  0  0  0  0  0  0  0  0  0
  -25.1422  -12.4927   20.6330 C   0  0  0  0  0  0  0  0  0  0  0  0
  -27.9992  -19.3091   18.5854 C   0  0  0  0  0  0  0  0  0  0  0  0
  -24.1262  -14.5732   19.9685 C   0  0  0  0  0  0  0  0  0  0  0  0
  -26.6631  -21.0759   17.4270 C   0  0  0  0  0  0  0  0  0  0  0  0
  -27.3027  -13.6106   21.3382 C   0  0  0  0  0  0  0  0  0  0  0  0
  -25.4198  -11.1232   20.9163 C   0  0  0  0  0  0  0  0  0  0  0  0
  -25.4219  -24.6938   26.0337 C   0  0  0  0  0  0  0  0  0  0  0  0
  -23.4596  -17.5439   20.8516 C   0  0  0  0  0  0  0  0  0  0  0  0
  -23.0256  -23.7624   28.0117 C   0  0  0  0  0  0  0  0  0  0  0  0
  -20.5270  -21.5387   28.6889 C   0  0  0  0  0  0  0  0  0  0  0  0
  -29.2044  -15.0725   21.9467 C   0  0  0  0  0  0  0  0  0  0  0  0
  -27.8164  -27.8338   29.2686 C   0  0  0  0  0  0  0  0  0  0  0  0
  -23.5003  -24.4563   24.4191 C   0  0  0  0  0  0  0  0  0  0  0  0
  -23.7137  -22.1223   26.2224 C   0  0  0  0  0  0  0  0  0  0  0  0
  -27.2175  -26.4320   29.3498 C   0  0  0  0  0  0  0  0  0  0  0  0
  -31.8287  -17.3359   21.2490 C   0  0  0  0  0  0  0  0  0  0  0  0
  -27.6994  -25.5771   28.1819 C   0  0  0  0  0  0  0  0  0  0  0  0
  -31.1178  -18.5212   20.5902 C   0  0  0  0  0  0  0  0  0  0  0  0
  -30.9958  -16.7310   22.3782 C   0  0  0  0  0  0  0  0  0  0  0  0
  -28.9129  -17.5559   21.3588 C   0  0  0  0  0  0  0  0  0  0  0  0
  -27.2528  -26.1726   26.8412 C   0  0  1  0  0  0  0  0  0  0  0  0
  -23.9305  -24.6032   25.8754 C   0  0  1  0  0  0  0  0  0  0  0  0
  -29.6801  -18.1557   20.1694 C   0  0  1  0  0  0  0  0  0  0  0  0
  -24.2682  -10.2175   21.3001 C   0  0  0  0  0  0  0  0  0  0  0  0
  -22.6527  -17.6586   18.4844 C   0  0  0  0  0  0  0  0  0  0  0  0
  -18.7654  -21.0152   30.3977 C   0  0  0  0  0  0  0  0  0  0  0  0
  -25.1665  -22.6328   29.8692 C   0  0  0  0  0  0  0  0  0  0  0  0
  -23.3729  -21.3254   31.0275 C   0  0  0  0  0  0  0  0  0  0  0  0
  -23.2968  -23.8188   31.0319 C   0  0  0  0  0  0  0  0  0  0  0  0
  -18.3471  -21.8819   26.7167 C   0  0  0  0  0  0  0  0  0  0  0  0
  -23.8171  -19.0116   20.9976 C   0  0  0  0  0  0  0  0  0  1  0  0
  -23.5871  -16.9544   19.4538 C   0  0  2  0  0  0  0  0  0  0  0  0
  -22.7750  -22.5666   28.8984 C   0  0  1  0  0  0  0  0  0  0  0  0
  -19.0802  -21.7437   29.1004 C   0  0  2  0  0  0  0  0  0  0  0  0
  -23.6570  -22.5830   30.1787 C   0  0  0  0  0  0  0  0  0  0  0  0
  -29.2385  -20.5759   20.0022 N   0  0  0  0  0  0  0  0  0  0  0  0
  -25.3395  -14.8138   20.4136 N   0  0  0  0  0  0  0  0  0  0  0  0
  -28.9505  -19.3391   19.5623 N   0  0  0  0  0  0  0  0  0  0  0  0
  -23.4790  -23.4903   26.7132 N   0  0  0  0  0  0  0  0  0  0  0  0
  -29.6527  -16.4040   21.8961 N   0  0  0  0  0  0  0  0  0  0  0  0
  -27.5913  -18.1476   18.0314 N   0  0  0  0  0  0  0  0  0  0  0  0
  -26.4162  -22.4525   17.3364 N   0  0  0  0  0  0  0  0  0  0  0  0
  -23.2588  -15.5466   19.5035 N   0  0  0  0  0  0  0  0  0  0  0  0
  -27.9247  -14.8565   21.4233 N   0  0  0  0  0  0  0  0  0  0  0  0
  -25.8570  -25.8781   26.5974 N   0  0  0  0  0  0  0  0  0  0  0  0
  -21.3402  -22.5469   29.1614 N   0  0  0  0  0  0  0  0  0  0  0  0
  -18.1634  -21.2350   28.0414 N   0  3  0  0  0  0  0  0  0  0  0  0
  -26.0167  -20.2869   16.6969 O   0  0  0  0  0  0  0  0  0  0  0  0
  -27.7926  -12.5473   21.7086 O   0  0  0  0  0  0  0  0  0  0  0  0
  -26.5441  -10.5793   20.8846 O   0  0  0  0  0  0  0  0  0  0  0  0
  -26.1258  -23.7579   25.6727 O   0  0  0  0  0  0  0  0  0  0  0  0
  -23.0787  -16.8763   21.8136 O   0  0  0  0  0  0  0  0  0  0  0  0
  -22.8195  -24.8959   28.4526 O   0  0  0  0  0  0  0  0  0  0  0  0
  -20.8991  -20.5780   28.0186 O   0  0  0  0  0  0  0  0  0  0  0  0
  -29.8979  -14.1493   22.3846 O   0  0  0  0  0  0  0  0  0  0  0  0
  -28.4887  -26.8994   19.9756 O   0  0  0  0  0  0  0  0  0  0  0  0
  -24.3486  -19.2733   22.2958 O   0  0  0  0  0  0  0  0  0  1  0  0
  -23.6328  -29.4964   20.2584 F   0  0  0  0  0  0  0  0  0  0  0  0
  -27.7826  -28.3457   22.2233 F   0  0  0  0  0  0  0  0  0  0  0  0
  -23.6188  -12.9339   19.9802 S   0  0  0  0  0  0  0  0  0  0  0  0
  1  2  1  0  0  0  0
  1  5  2  0  0  0  0
  2  6  2  0  0  0  0
  3  8  2  0  0  0  0
  3 15  1  0  0  0  0
  4  9  1  0  0  0  0
  4 15  2  0  0  0  0
  5 17  1  0  0  0  0
  6 19  1  0  0  0  0
  7 10  2  0  0  0  0
  7 18  1  0  0  0  0
  8 21  1  0  0  0  0
  9 21  2  0  0  0  0
 10 22  1  0  0  0  0
 11 12  2  0  0  0  0
 11 23  1  0  0  0  0
 12 24  1  0  0  0  0
 13 20  1  0  0  0  0
 13 22  2  0  0  0  0
 14 24  2  0  0  0  0
 14 25  1  0  0  0  0
 15 26  1  0  0  0  0
 16 26  1  0  0  0  0
 16 29  2  0  0  0  0
 16 31  1  0  0  0  0
 17 19  2  0  0  0  0
 17 39  1  0  0  0  0
 18 20  2  0  0  0  0
 18 40  1  0  0  0  0
 19 48  1  0  0  0  0
 20 41  1  0  0  0  0
 21 83  1  0  0  0  0
 22 84  1  0  0  0  0
 23 25  2  0  0  0  0
 23 83  1  0  0  0  0
 24 85  1  0  0  0  0
 25 86  1  0  0  0  0
 26 63  2  0  0  0  0
 27 28  2  0  0  0  0
 27 32  1  0  0  0  0
 27 64  1  0  0  0  0
 28 33  1  0  0  0  0
 28 87  1  0  0  0  0
 29 65  1  0  0  0  0
 29 68  1  0  0  0  0
 30 64  2  0  0  0  0
 30 70  1  0  0  0  0
 30 87  1  0  0  0  0
 31 69  1  0  0  0  0
 31 75  2  0  0  0  0
 32 71  1  0  0  0  0
 32 76  2  0  0  0  0
 33 51  1  0  0  0  0
 33 77  2  0  0  0  0
 34 49  1  0  0  0  0
 34 72  1  0  0  0  0
 34 78  2  0  0  0  0
 35 58  1  0  0  0  0
 35 59  1  0  0  0  0
 35 79  2  0  0  0  0
 36 60  1  0  0  0  0
 36 66  1  0  0  0  0
 36 80  2  0  0  0  0
 37 61  1  0  0  0  0
 37 73  1  0  0  0  0
 37 81  2  0  0  0  0
 38 67  1  0  0  0  0
 38 71  1  0  0  0  0
 38 82  2  0  0  0  0
 39 42  1  0  0  0  0
 40 49  1  0  0  0  0
 41 66  1  0  0  0  0
 42 44  1  0  0  0  0
 43 45  1  0  0  0  0
 43 46  1  0  0  0  0
 44 48  1  0  0  0  0
 45 50  1  0  0  0  0
 46 67  1  0  0  0  0
 47 50  1  0  0  0  0
 47 67  1  0  0  0  0
 48 72  1  0  0  0  0
 49 66  1  0  0  0  0
 50 65  1  0  0  0  0
 52 59  1  0  0  0  0
 53 61  1  0  0  0  0
 54 62  1  0  0  0  0
 55 62  1  0  0  0  0
 56 62  1  0  0  0  0
 57 74  1  0  0  0  0
 58 84  1  0  0  0  0
 59 70  1  0  0  0  0
 60 62  1  0  0  0  0
 60 73  1  0  0  0  0
 61 74  1  0  0  0  0
 63 65  1  0  0  0  0
M  CHG  1  74   1
M  ISO  4  38 100  58 101  71 100  84 101
M  END
> <Batch ID>
0183

> <Smiles>
CNC(C)C(=O)NC(C(=O)N1Cc2cc([101O:1][101CH2:1]C(=O)C(C)Nc3nc(C(=O)[100NH:0][100C:0](=O)N4CCCC(n5nc(-c6ccc(Oc7ccc(F)cc7F)cc6)c(C(N)=O)c5N)C4)c(C(C)=O)s3)ccc2CC1C(=O)NC1CCCc2ccccc21)C(C)(C)C

> <Shape>
0.186

> <Color>
0.078

> <Negative vol penalty>
0.000

$$$$

  -OEChem-04052304593D

 85 93  0     1  0  0  0  0  0999 V2000
  -17.3534  -26.0766   19.8447 C   0  0  0  0  0  0  0  0  0  0  0  0
  -18.6444  -26.1794   19.3367 C   0  0  0  0  0  0  0  0  0  0  0  0
  -25.7002  -14.0685   21.7351 C   0  0  0  0  0  0  0  0  0  0  0  0
  -25.5266  -14.7780   19.4322 C   0  0  0  0  0  0  0  0  0  0  0  0
  -17.0901  -26.4602   21.1590 C   0  0  0  0  0  0  0  0  0  0  0  0
  -19.6727  -26.6670   20.1424 C   0  0  0  0  0  0  0  0  0  0  0  0
  -25.5388  -24.9085   20.0911 C   0  0  0  0  0  0  0  0  0  0  0  0
  -24.6628  -13.1582   21.5329 C   0  0  0  0  0  0  0  0  0  0  0  0
  -24.4893  -13.8677   19.2299 C   0  0  0  0  0  0  0  0  0  0  0  0
  -26.6765  -25.4541   19.4979 C   0  0  0  0  0  0  0  0  0  0  0  0
  -24.2684  -10.0981   20.1497 C   0  0  0  0  0  0  0  0  0  0  0  0
  -24.4304   -8.8080   20.6546 C   0  0  0  0  0  0  0  0  0  0  0  0
  -27.2167  -26.5649   21.5700 C   0  0  0  0  0  0  0  0  0  0  0  0
  -22.4660   -9.0998   22.0306 C   0  0  0  0  0  0  0  0  0  0  0  0
  -33.5218  -22.4243   18.1358 C   0  0  0  0  0  0  0  0  0  0  0  0
  -26.1320  -14.8784   20.6848 C   0  0  0  0  0  0  0  0  0  0  0  0
  -28.5813  -15.5910   20.7188 C   0  0  0  0  0  0  0  0  0  0  0  0
  -18.1176  -26.9437   21.9843 C   0  0  0  0  0  0  0  0  0  0  0  0
  -25.2252  -25.1962   21.4272 C   0  0  0  0  0  0  0  0  0  0  0  0
  -19.4227  -27.0587   21.4686 C   0  0  0  0  0  0  0  0  0  0  0  0
  -26.0759  -26.0196   22.1785 C   0  0  0  0  0  0  0  0  0  0  0  0
  -24.0574  -13.0578   20.2803 C   0  0  0  0  0  0  0  0  0  0  0  0
  -27.5140  -26.2848   20.2365 C   0  0  0  0  0  0  0  0  0  0  0  0
  -23.2052  -10.8891   20.5853 C   0  0  0  0  0  0  0  0  0  0  0  0
  -23.5292   -8.3088   21.5950 C   0  0  0  0  0  0  0  0  0  0  0  0
  -22.3041  -10.3900   21.5257 C   0  0  0  0  0  0  0  0  0  0  0  0
  -32.3856  -21.7783   18.6100 C   0  0  0  0  0  0  0  0  0  0  0  0
  -33.7674  -23.7437   18.4997 C   0  0  0  0  0  0  0  0  0  0  0  0
  -27.2032  -15.8194   20.8933 C   0  0  0  0  0  0  0  0  0  0  0  0
  -31.5332  -22.4899   19.4388 C   0  0  0  0  0  0  0  0  0  0  0  0
  -32.8531  -24.3673   19.3332 C   0  0  0  0  0  0  0  0  0  0  0  0
  -29.1714  -16.7883   21.0424 C   0  0  0  0  0  0  0  0  0  0  0  0
  -29.2667  -14.4028   20.3016 C   0  0  0  0  0  0  0  0  0  0  0  0
  -22.7991  -26.6227   22.9047 C   0  0  0  0  0  0  0  0  0  0  0  0
  -31.0424  -26.9360   19.7486 C   0  0  0  0  0  0  0  0  0  0  0  0
  -24.3586  -25.6437   25.5753 C   0  0  0  0  0  0  0  0  0  0  0  0
  -26.9878  -24.3184   26.6895 C   0  0  0  0  0  0  0  0  0  0  0  0
  -29.3913  -22.3446   20.7570 C   0  0  0  0  0  0  0  0  0  0  0  0
  -17.7753  -27.3905   23.3835 C   0  0  0  0  0  0  0  0  0  0  0  0
  -24.0087  -24.5783   22.0602 C   0  0  0  0  0  0  0  0  0  0  0  0
  -25.7947  -26.3432   23.6223 C   0  0  0  0  0  0  0  0  0  0  0  0
  -18.9945  -27.5447   24.2891 C   0  0  0  0  0  0  0  0  0  0  0  0
  -27.2403  -20.9311   23.2171 C   0  0  0  0  0  0  0  0  0  0  0  0
  -20.0998  -28.3117   23.5703 C   0  0  0  0  0  0  0  0  0  0  0  0
  -27.1522  -19.4564   22.8175 C   0  0  0  0  0  0  0  0  0  0  0  0
  -27.2954  -21.8473   21.9959 C   0  0  0  0  0  0  0  0  0  0  0  0
  -28.2527  -20.0424   20.6191 C   0  0  0  0  0  0  0  0  0  0  0  0
  -20.5697  -27.5595   22.3193 C   0  0  1  0  0  0  0  0  0  0  0  0
  -23.5098  -25.3521   23.2766 C   0  0  1  0  0  0  0  0  0  0  0  0
  -28.2603  -19.0769   21.8155 C   0  0  2  0  0  0  0  0  0  0  0  0
  -33.0217  -27.6391   21.1109 C   0  0  0  0  0  0  0  0  0  0  0  0
  -28.9018  -23.3044   27.9567 C   0  0  0  0  0  0  0  0  0  0  0  0
  -24.2633  -28.5368   26.5401 C   0  0  0  0  0  0  0  0  0  0  0  0
  -26.0243  -27.9602   28.2237 C   0  0  0  0  0  0  0  0  0  0  0  0
  -23.8015  -26.8312   28.3099 C   0  0  0  0  0  0  0  0  0  0  0  0
  -25.6707  -21.6699   26.7886 C   0  0  0  0  0  0  0  0  0  0  0  0
  -29.7390  -27.0780   20.5129 C   0  0  0  0  0  0  0  0  0  1  0  0
  -32.2458  -26.4593   20.5499 C   0  0  2  0  0  0  0  0  0  0  0  0
  -25.4253  -26.2324   26.4668 C   0  0  1  0  0  0  0  0  0  0  0  0
  -27.4113  -23.2333   27.6630 C   0  0  2  0  0  0  0  0  0  0  0  0
  -24.8831  -27.3858   27.3574 C   0  0  0  0  0  0  0  0  0  0  0  0
  -26.9338  -17.0639   21.2965 N   0  0  0  0  0  0  0  0  0  0  0  0
  -31.7384  -23.7723   19.8139 N   0  0  0  0  0  0  0  0  0  0  0  0
  -28.1507  -17.6282   21.3782 N   0  0  0  0  0  0  0  0  0  0  0  0
  -24.5898  -25.7199   24.1945 N   0  0  0  0  0  0  0  0  0  0  0  0
  -28.3711  -21.4300   21.0938 N   0  0  0  0  0  0  0  0  0  0  0  0
  -30.4587  -17.1940   21.0696 N   0  0  0  0  0  0  0  0  0  0  0  0
  -28.5076  -13.2617   20.0080 N   0  0  0  0  0  0  0  0  0  0  0  0
  -30.3773  -21.8255   19.9185 N   0  0  0  0  0  0  0  0  0  0  0  0
  -33.1082  -25.6807   19.6885 N   0  0  0  0  0  0  0  0  0  0  0  0
  -21.4438  -26.4659   22.6857 N   0  0  0  0  0  0  0  0  0  0  0  0
  -25.9936  -25.1163   27.2150 N   0  0  0  0  0  0  0  0  0  0  0  0
  -27.1065  -21.8866   27.1023 N   0  3  0  0  0  0  0  0  0  0  0  0
  -30.5165  -14.3495   20.2081 O   0  0  0  0  0  0  0  0  0  0  0  0
  -23.4332  -27.6682   22.8240 O   0  0  0  0  0  0  0  0  0  0  0  0
  -31.1165  -27.2033   18.5489 O   0  0  0  0  0  0  0  0  0  0  0  0
  -23.3606  -25.1287   26.0855 O   0  0  0  0  0  0  0  0  0  0  0  0
  -27.4913  -24.4476   25.5758 O   0  0  0  0  0  0  0  0  0  0  0  0
  -29.4050  -23.4948   21.2029 O   0  0  0  0  0  0  0  0  0  0  0  0
  -23.0453  -12.1695   20.0825 O   0  0  0  0  0  0  0  0  0  0  0  0
  -28.6247  -26.8192   19.6598 O   0  0  0  0  0  0  0  0  0  1  0  0
  -23.6840   -7.0693   22.0786 F   0  0  0  0  0  0  0  0  0  0  0  0
  -21.2801  -11.1448   21.9470 F   0  0  0  0  0  0  0  0  0  0  0  0
  -32.1365  -20.5078   18.2676 F   0  0  0  0  0  0  0  0  0  0  0  0
  -34.8577  -24.3783   18.0505 F   0  0  0  0  0  0  0  0  0  0  0  0
  1  2  1  0  0  0  0
  1  5  2  0  0  0  0
  2  6  2  0  0  0  0
  3  8  2  0  0  0  0
  3 16  1  0  0  0  0
  4  9  1  0  0  0  0
  4 16  2  0  0  0  0
  5 18  1  0  0  0  0
  6 20  1  0  0  0  0
  7 10  2  0  0  0  0
  7 19  1  0  0  0  0
  8 22  1  0  0  0  0
  9 22  2  0  0  0  0
 10 23  1  0  0  0  0
 11 12  2  0  0  0  0
 11 24  1  0  0  0  0
 12 25  1  0  0  0  0
 13 21  1  0  0  0  0
 13 23  2  0  0  0  0
 14 25  2  0  0  0  0
 14 26  1  0  0  0  0
 15 27  2  0  0  0  0
 15 28  1  0  0  0  0
 16 29  1  0  0  0  0
 17 29  1  0  0  0  0
 17 32  2  0  0  0  0
 17 33  1  0  0  0  0
 18 20  2  0  0  0  0
 18 39  1  0  0  0  0
 19 21  2  0  0  0  0
 19 40  1  0  0  0  0
 20 48  1  0  0  0  0
 21 41  1  0  0  0  0
 22 80  1  0  0  0  0
 23 81  1  0  0  0  0
 24 26  2  0  0  0  0
 24 80  1  0  0  0  0
 25 82  1  0  0  0  0
 26 83  1  0  0  0  0
 27 30  1  0  0  0  0
 27 84  1  0  0  0  0
 28 31  2  0  0  0  0
 28 85  1  0  0  0  0
 29 62  2  0  0  0  0
 30 63  2  0  0  0  0
 30 69  1  0  0  0  0
 31 63  1  0  0  0  0
 31 70  1  0  0  0  0
 32 64  1  0  0  0  0
 32 67  1  0  0  0  0
 33 68  1  0  0  0  0
 33 74  2  0  0  0  0
 34 49  1  0  0  0  0
 34 71  1  0  0  0  0
 34 75  2  0  0  0  0
 35 57  1  0  0  0  0
 35 58  1  0  0  0  0
 35 76  2  0  0  0  0
 36 59  1  0  0  0  0
 36 65  1  0  0  0  0
 36 77  2  0  0  0  0
 37 60  1  0  0  0  0
 37 72  1  0  0  0  0
 37 78  2  0  0  0  0
 38 66  1  0  0  0  0
 38 69  1  0  0  0  0
 38 79  2  0  0  0  0
 39 42  1  0  0  0  0
 40 49  1  0  0  0  0
 41 65  1  0  0  0  0
 42 44  1  0  0  0  0
 43 45  1  0  0  0  0
 43 46  1  0  0  0  0
 44 48  1  0  0  0  0
 45 50  1  0  0  0  0
 46 66  1  0  0  0  0
 47 50  1  0  0  0  0
 47 66  1  0  0  0  0
 48 71  1  0  0  0  0
 49 65  1  0  0  0  0
 50 64  1  0  0  0  0
 51 58  1  0  0  0  0
 52 60  1  0  0  0  0
 53 61  1  0  0  0  0
 54 61  1  0  0  0  0
 55 61  1  0  0  0  0
 56 73  1  0  0  0  0
 57 81  1  0  0  0  0
 58 70  1  0  0  0  0
 59 61  1  0  0  0  0
 59 72  1  0  0  0  0
 60 73  1  0  0  0  0
 62 64  1  0  0  0  0
M  CHG  1  73   1
M  ISO  4  38 100  57 101  69 100  81 101
M  END
> <Batch ID>
0183

> <Smiles>
CNC(C)C(=O)NC(C(=O)N1Cc2cc([101O:1][101CH2:1]C(=O)C(C)Nc3nc([100NH:0][100C:0](=O)N4CCCC(n5nc(-c6ccc(Oc7ccc(F)cc7F)cc6)c(C(N)=O)c5N)C4)c(F)cc3F)ccc2CC1C(=O)NC1CCCc2ccccc21)C(C)(C)C

> <Shape>
0.225

> <Color>
0.063

> <Negative vol penalty>
0.000

$$$$

  -OEChem-04052304593D

 85 93  0     1  0  0  0  0  0999 V2000
  -29.0618  -31.2039   15.9146 C   0  0  0  0  0  0  0  0  0  0  0  0
  -29.1127  -31.0565   17.2971 C   0  0  0  0  0  0  0  0  0  0  0  0
  -22.9577   -9.8280   20.1058 C   0  0  0  0  0  0  0  0  0  0  0  0
  -23.6513  -10.0540   22.4090 C   0  0  0  0  0  0  0  0  0  0  0  0
  -29.2351  -30.0935   15.0895 C   0  0  0  0  0  0  0  0  0  0  0  0
  -29.3360  -29.7983   17.8552 C   0  0  0  0  0  0  0  0  0  0  0  0
  -32.4501  -26.6652   23.4946 C   0  0  0  0  0  0  0  0  0  0  0  0
  -22.1763   -8.7249   20.4493 C   0  0  0  0  0  0  0  0  0  0  0  0
  -22.8698   -8.9509   22.7526 C   0  0  0  0  0  0  0  0  0  0  0  0
  -32.1658  -25.7620   24.5179 C   0  0  0  0  0  0  0  0  0  0  0  0
  -23.0874   -5.5831   22.5485 C   0  0  0  0  0  0  0  0  0  0  0  0
  -23.6543   -4.6232   23.3869 C   0  0  0  0  0  0  0  0  0  0  0  0
  -32.5303  -23.9288   22.9929 C   0  0  0  0  0  0  0  0  0  0  0  0
  -21.9098   -5.0127   25.0124 C   0  0  0  0  0  0  0  0  0  0  0  0
  -23.6953  -10.4926   21.0856 C   0  0  0  0  0  0  0  0  0  0  0  0
  -24.1080  -12.9830   20.7179 C   0  0  0  0  0  0  0  0  0  0  0  0
  -29.4703  -28.8227   15.6376 C   0  0  0  0  0  0  0  0  0  0  0  0
  -32.7664  -26.2064   22.2078 C   0  0  0  0  0  0  0  0  0  0  0  0
  -29.5113  -28.6697   17.0366 C   0  0  0  0  0  0  0  0  0  0  0  0
  -32.8207  -24.8281   21.9557 C   0  0  0  0  0  0  0  0  0  0  0  0
  -22.1323   -8.2863   21.7727 C   0  0  0  0  0  0  0  0  0  0  0  0
  -32.2031  -24.3936   24.2665 C   0  0  0  0  0  0  0  0  0  0  0  0
  -21.9317   -6.2579   22.9421 C   0  0  0  0  0  0  0  0  0  0  0  0
  -23.0655   -4.3380   24.6188 C   0  0  0  0  0  0  0  0  0  0  0  0
  -21.3429   -5.9726   24.1740 C   0  0  0  0  0  0  0  0  0  0  0  0
  -24.5031  -11.6319   20.7313 C   0  0  0  0  0  0  0  0  0  0  0  0
  -31.8584  -18.6675   21.7670 C   0  0  0  0  0  0  0  0  0  0  0  0
  -25.2299  -13.6648   20.3140 C   0  0  0  0  0  0  0  0  0  0  0  0
  -30.7462  -19.1357   22.4347 C   0  0  0  0  0  0  0  0  0  0  0  0
  -30.5831  -16.8944   21.5672 C   0  0  0  0  0  0  0  0  0  0  0  0
  -22.8403  -13.5694   21.0416 C   0  0  0  0  0  0  0  0  0  0  0  0
  -29.3526  -22.1105   24.2704 C   0  0  0  0  0  0  0  0  0  0  0  0
  -29.2961  -20.7159   23.7165 C   0  0  0  0  0  0  0  0  0  0  0  0
  -31.4563  -26.5213   19.3289 C   0  0  0  0  0  0  0  0  0  0  0  0
  -34.1375  -24.9691   18.3676 C   0  0  0  0  0  0  0  0  0  0  0  0
  -36.7137  -22.8750   19.1579 C   0  0  0  0  0  0  0  0  0  0  0  0
  -30.7149  -14.5927   20.5519 C   0  0  0  0  0  0  0  0  0  0  0  0
  -29.6046  -27.6440   14.7063 C   0  0  0  0  0  0  0  0  0  0  0  0
  -33.0967  -27.1930   21.1215 C   0  0  0  0  0  0  0  0  0  0  0  0
  -33.1747  -24.2839   20.5967 C   0  0  0  0  0  0  0  0  0  0  0  0
  -30.2098  -26.4096   15.3696 C   0  0  0  0  0  0  0  0  0  0  0  0
  -29.6046  -11.9742   18.4099 C   0  0  0  0  0  0  0  0  0  0  0  0
  -29.5489  -26.1509   16.7199 C   0  0  0  0  0  0  0  0  0  0  0  0
  -28.1459  -11.7629   18.8218 C   0  0  0  0  0  0  0  0  0  0  0  0
  -30.4906  -12.3042   19.6098 C   0  0  0  0  0  0  0  0  0  0  0  0
  -28.5649  -13.2126   20.8490 C   0  0  0  0  0  0  0  0  0  0  0  0
  -29.7761  -27.3254   17.6793 C   0  0  1  0  0  0  0  0  0  0  0  0
  -32.9036  -26.6245   19.7191 C   0  0  1  0  0  0  0  0  0  0  0  0
  -27.6220  -12.9417   19.6653 C   0  0  2  0  0  0  0  0  0  0  0  0
  -33.1152  -19.4112   21.5437 C   0  0  0  0  0  0  0  0  0  0  0  0
  -38.7252  -21.7602   18.1536 C   0  0  0  0  0  0  0  0  0  0  0  0
  -30.8043  -23.9117   27.3432 C   0  0  0  0  0  0  0  0  0  0  0  0
  -32.3202  -22.9586   16.9657 C   0  0  0  0  0  0  0  0  0  0  0  0
  -34.2764  -21.4037   16.8110 C   0  0  0  0  0  0  0  0  0  0  0  0
  -34.3502  -23.6163   15.6615 C   0  0  0  0  0  0  0  0  0  0  0  0
  -38.5517  -24.2443   21.0303 C   0  0  0  0  0  0  0  0  0  0  0  0
  -29.9180  -22.2566   25.6670 C   0  0  0  0  0  0  0  0  0  0  0  0
  -34.5268  -23.5225   18.1818 C   0  0  1  0  0  0  0  0  0  0  0  0
  -38.2074  -22.9760   18.9063 C   0  0  2  0  0  0  0  0  0  0  0  0
  -30.6335  -23.5930   25.8638 C   0  0  2  0  0  0  0  0  0  1  0  0
  -33.8598  -22.8852   16.9302 C   0  0  0  0  0  0  0  0  0  0  0  0
  -25.7764  -11.4633   20.3649 N   0  0  0  0  0  0  0  0  0  0  0  0
  -31.7669  -17.3823   21.2692 N   0  0  0  0  0  0  0  0  0  0  0  0
  -26.1912  -12.7174   20.1174 N   0  0  0  0  0  0  0  0  0  0  0  0
  -33.4835  -25.2887   19.5659 N   0  0  0  0  0  0  0  0  0  0  0  0
  -29.9346  -13.4331   20.3589 N   0  0  0  0  0  0  0  0  0  0  0  0
  -25.4780  -14.9762   20.1114 N   0  0  0  0  0  0  0  0  0  0  0  0
  -21.7951  -12.7242   21.4385 N   0  0  0  0  0  0  0  0  0  0  0  0
  -30.4616  -20.3676   23.0685 N   0  0  0  0  0  0  0  0  0  0  0  0
  -30.0694  -15.6125   21.2504 N   0  0  0  0  0  0  0  0  0  0  0  0
  -31.1155  -27.2801   18.2254 N   0  0  0  0  0  0  0  0  0  0  0  0
  -35.9853  -23.4915   18.1626 N   0  0  0  0  0  0  0  0  0  0  0  0
  -38.9444  -23.0785   20.1975 N   0  3  0  0  0  0  0  0  0  0  0  0
  -22.6356  -14.8046   20.9649 O   0  0  0  0  0  0  0  0  0  0  0  0
  -28.9480  -23.0136   23.5542 O   0  0  0  0  0  0  0  0  0  0  0  0
  -28.2728  -20.0860   23.9267 O   0  0  0  0  0  0  0  0  0  0  0  0
  -30.7046  -25.8050   19.9798 O   0  0  0  0  0  0  0  0  0  0  0  0
  -34.4102  -25.7869   17.4852 O   0  0  0  0  0  0  0  0  0  0  0  0
  -36.2404  -22.3031   20.1374 O   0  0  0  0  0  0  0  0  0  0  0  0
  -31.8611  -14.6853   20.1050 O   0  0  0  0  0  0  0  0  0  0  0  0
  -21.3697   -7.2101   22.1084 O   0  0  0  0  0  0  0  0  0  0  0  0
  -31.9254  -23.5099   25.2634 O   0  0  0  0  0  0  0  0  0  1  0  0
  -23.6091   -3.4151   25.4230 F   0  0  0  0  0  0  0  0  0  0  0  0
  -20.2320   -6.6167   24.5571 F   0  0  0  0  0  0  0  0  0  0  0  0
  -29.5296  -17.9269   22.4441 S   0  0  0  0  0  0  0  0  0  0  0  0
  1  2  1  0  0  0  0
  1  5  2  0  0  0  0
  2  6  2  0  0  0  0
  3  8  2  0  0  0  0
  3 15  1  0  0  0  0
  4  9  1  0  0  0  0
  4 15  2  0  0  0  0
  5 17  1  0  0  0  0
  6 19  1  0  0  0  0
  7 10  2  0  0  0  0
  7 18  1  0  0  0  0
  8 21  1  0  0  0  0
  9 21  2  0  0  0  0
 10 22  1  0  0  0  0
 11 12  2  0  0  0  0
 11 23  1  0  0  0  0
 12 24  1  0  0  0  0
 13 20  1  0  0  0  0
 13 22  2  0  0  0  0
 14 24  2  0  0  0  0
 14 25  1  0  0  0  0
 15 26  1  0  0  0  0
 16 26  1  0  0  0  0
 16 28  2  0  0  0  0
 16 31  1  0  0  0  0
 17 19  2  0  0  0  0
 17 38  1  0  0  0  0
 18 20  2  0  0  0  0
 18 39  1  0  0  0  0
 19 47  1  0  0  0  0
 20 40  1  0  0  0  0
 21 81  1  0  0  0  0
 22 82  1  0  0  0  0
 23 25  2  0  0  0  0
 23 81  1  0  0  0  0
 24 83  1  0  0  0  0
 25 84  1  0  0  0  0
 26 62  2  0  0  0  0
 27 29  2  0  0  0  0
 27 50  1  0  0  0  0
 27 63  1  0  0  0  0
 28 64  1  0  0  0  0
 28 67  1  0  0  0  0
 29 69  1  0  0  0  0
 29 85  1  0  0  0  0
 30 63  2  0  0  0  0
 30 70  1  0  0  0  0
 30 85  1  0  0  0  0
 31 68  1  0  0  0  0
 31 74  2  0  0  0  0
 32 33  1  0  0  0  0
 32 57  1  0  0  0  0
 32 75  2  0  0  0  0
 33 69  1  0  0  0  0
 33 76  2  0  0  0  0
 34 48  1  0  0  0  0
 34 71  1  0  0  0  0
 34 77  2  0  0  0  0
 35 58  1  0  0  0  0
 35 65  1  0  0  0  0
 35 78  2  0  0  0  0
 36 59  1  0  0  0  0
 36 72  1  0  0  0  0
 36 79  2  0  0  0  0
 37 66  1  0  0  0  0
 37 70  1  0  0  0  0
 37 80  2  0  0  0  0
 38 41  1  0  0  0  0
 39 48  1  0  0  0  0
 40 65  1  0  0  0  0
 41 43  1  0  0  0  0
 42 44  1  0  0  0  0
 42 45  1  0  0  0  0
 43 47  1  0  0  0  0
 44 49  1  0  0  0  0
 45 66  1  0  0  0  0
 46 49  1  0  0  0  0
 46 66  1  0  0  0  0
 47 71  1  0  0  0  0
 48 65  1  0  0  0  0
 49 64  1  0  0  0  0
 51 59  1  0  0  0  0
 52 60  1  0  0  0  0
 53 61  1  0  0  0  0
 54 61  1  0  0  0  0
 55 61  1  0  0  0  0
 56 73  1  0  0  0  0
 57 60  1  0  0  0  0
 58 61  1  0  0  0  0
 58 72  1  0  0  0  0
 59 73  1  0  0  0  0
 60 82  1  0  0  0  0
 62 64  1  0  0  0  0
M  CHG  1  73   1
M  ISO  4  37 100  60 101  70 100  82 101
M  END
> <Batch ID>
0183

> <Smiles>
CNC(C)C(=O)NC(C(=O)N1Cc2cc([101O:1][101CH:1](C)CC(=O)C(=O)Nc3sc([100NH:0][100C:0](=O)N4CCCC(n5nc(-c6ccc(Oc7ccc(F)cc7F)cc6)c(C(N)=O)c5N)C4)nc3C)ccc2CC1C(=O)NC1CCCc2ccccc21)C(C)(C)C

> <Shape>
0.200

> <Color>
0.195

> <Negative vol penalty>
0.000

$$$$

  -OEChem-04052304593D

 85 93  0     1  0  0  0  0  0999 V2000
  -24.0998  -32.1810   21.9488 C   0  0  0  0  0  0  0  0  0  0  0  0
  -25.2432  -31.4202   22.1703 C   0  0  0  0  0  0  0  0  0  0  0  0
  -23.0556   -9.8498   19.9970 C   0  0  0  0  0  0  0  0  0  0  0  0
  -23.7908   -9.9282   22.2971 C   0  0  0  0  0  0  0  0  0  0  0  0
  -23.0969  -31.7014   21.1074 C   0  0  0  0  0  0  0  0  0  0  0  0
  -25.3839  -30.1786   21.5513 C   0  0  0  0  0  0  0  0  0  0  0  0
  -30.5768  -27.6425   19.5246 C   0  0  0  0  0  0  0  0  0  0  0  0
  -22.2908   -8.7181   20.2800 C   0  0  0  0  0  0  0  0  0  0  0  0
  -23.0260   -8.7965   22.5801 C   0  0  0  0  0  0  0  0  0  0  0  0
  -31.4348  -26.6926   20.0773 C   0  0  0  0  0  0  0  0  0  0  0  0
  -19.7793   -8.0712   23.1745 C   0  0  0  0  0  0  0  0  0  0  0  0
  -19.0093   -8.0854   24.3374 C   0  0  0  0  0  0  0  0  0  0  0  0
  -30.3144  -24.9613   18.8256 C   0  0  0  0  0  0  0  0  0  0  0  0
  -20.2118   -6.1570   25.1573 C   0  0  0  0  0  0  0  0  0  0  0  0
  -23.8056  -10.4548   21.0055 C   0  0  0  0  0  0  0  0  0  0  0  0
  -24.1888  -12.9683   20.7983 C   0  0  0  0  0  0  0  0  0  0  0  0
  -23.2296  -30.4576   20.4702 C   0  0  0  0  0  0  0  0  0  0  0  0
  -29.5725  -27.2568   18.6252 C   0  0  0  0  0  0  0  0  0  0  0  0
  -24.3812  -29.6812   20.7016 C   0  0  0  0  0  0  0  0  0  0  0  0
  -29.4466  -25.9086   18.2610 C   0  0  0  0  0  0  0  0  0  0  0  0
  -29.7448  -18.0379   22.0781 C   0  0  0  0  0  0  0  0  0  0  0  0
  -22.2760   -8.1915   21.5715 C   0  0  0  0  0  0  0  0  0  0  0  0
  -31.3018  -25.3514   19.7300 C   0  0  0  0  0  0  0  0  0  0  0  0
  -20.7656   -7.0997   23.0029 C   0  0  0  0  0  0  0  0  0  0  0  0
  -19.2256   -7.1284   25.3289 C   0  0  0  0  0  0  0  0  0  0  0  0
  -20.9818   -6.1427   23.9943 C   0  0  0  0  0  0  0  0  0  0  0  0
  -30.2460  -19.3174   21.7018 C   0  0  0  0  0  0  0  0  0  0  0  0
  -24.5963  -11.6235   20.7137 C   0  0  0  0  0  0  0  0  0  0  0  0
  -25.2966  -13.6871   20.4206 C   0  0  0  0  0  0  0  0  0  0  0  0
  -30.3281  -17.0206   21.3553 C   0  0  0  0  0  0  0  0  0  0  0  0
  -31.1936  -19.2293   20.7057 C   0  0  0  0  0  0  0  0  0  0  0  0
  -22.9223  -13.5186   21.1840 C   0  0  0  0  0  0  0  0  0  0  0  0
  -32.8268  -22.3478   19.3605 C   0  0  0  0  0  0  0  0  0  0  0  0
  -32.9174  -23.6889   19.4187 C   0  0  0  0  0  0  0  0  0  1  0  0
  -31.8811  -21.6063   20.2604 C   0  0  0  0  0  0  0  0  0  0  0  0
  -26.3968  -27.3919   18.6161 C   0  0  0  0  0  0  0  0  0  0  0  0
  -26.7478  -26.3050   15.5801 C   0  0  0  0  0  0  0  0  0  0  0  0
  -28.6706  -24.6444   13.3014 C   0  0  0  0  0  0  0  0  0  0  0  0
  -30.7765  -14.6534   20.6192 C   0  0  0  0  0  0  0  0  0  0  0  0
  -22.0977  -29.9599   19.6066 C   0  0  0  0  0  0  0  0  0  0  0  0
  -28.6723  -28.2972   18.0174 C   0  0  0  0  0  0  0  0  0  0  0  0
  -28.3978  -25.4456   17.2843 C   0  0  0  0  0  0  0  0  0  0  0  0
  -22.4918  -28.8016   18.6938 C   0  0  0  0  0  0  0  0  0  0  0  0
  -29.6493  -12.1731   18.3270 C   0  0  0  0  0  0  0  0  0  0  0  0
  -23.2792  -27.7524   19.4723 C   0  0  0  0  0  0  0  0  0  0  0  0
  -28.2007  -11.9196   18.7505 C   0  0  0  0  0  0  0  0  0  0  0  0
  -30.5550  -12.4310   19.5299 C   0  0  0  0  0  0  0  0  0  0  0  0
  -28.6451  -13.2345   20.8626 C   0  0  0  0  0  0  0  0  0  0  0  0
  -24.5815  -28.3406   20.0288 C   0  0  1  0  0  0  0  0  0  0  0  0
  -27.3546  -27.7226   17.5066 C   0  0  1  0  0  0  0  0  0  0  0  0
  -27.6823  -13.0338   19.6809 C   0  0  2  0  0  0  0  0  0  0  0  0
  -28.7157  -17.8367   23.1266 C   0  0  0  0  0  0  0  0  0  0  0  0
  -33.8456  -24.5020   18.5643 C   0  0  0  0  0  0  0  0  0  0  0  0
  -28.6749  -23.8814   10.9108 C   0  0  0  0  0  0  0  0  0  0  0  0
  -24.8283  -24.0452   16.3004 C   0  0  0  0  0  0  0  0  0  0  0  0
  -25.6034  -22.8283   14.2542 C   0  0  0  0  0  0  0  0  0  0  0  0
  -24.4671  -25.0380   14.0336 C   0  0  0  0  0  0  0  0  0  0  0  0
  -31.0615  -26.2689   12.6660 C   0  0  0  0  0  0  0  0  0  0  0  0
  -26.8273  -24.9425   14.9348 C   0  0  1  0  0  0  0  0  0  0  0  0
  -29.0674  -24.9882   11.8771 C   0  0  2  0  0  0  0  0  0  0  0  0
  -25.4501  -24.2216   14.9007 C   0  0  0  0  0  0  0  0  0  0  0  0
  -25.8638  -11.4930   20.3134 N   0  0  0  0  0  0  0  0  0  0  0  0
  -26.2625  -12.7650   20.1431 N   0  0  0  0  0  0  0  0  0  0  0  0
  -27.5376  -26.4998   16.7220 N   0  0  0  0  0  0  0  0  0  0  0  0
  -30.0031  -13.5014   20.3632 N   0  0  0  0  0  0  0  0  0  0  0  0
  -25.5289  -15.0117   20.3020 N   0  0  0  0  0  0  0  0  0  0  0  0
  -21.8925  -12.6381   21.5424 N   0  0  0  0  0  0  0  0  0  0  0  0
  -31.9389  -20.2360   20.0445 N   0  0  0  0  0  0  0  0  0  0  0  0
  -30.1353  -15.6174   21.3964 N   0  0  0  0  0  0  0  0  0  0  0  0
  -25.5774  -28.4422   18.9836 N   0  0  0  0  0  0  0  0  0  0  0  0
  -27.4272  -25.1475   13.6208 N   0  0  0  0  0  0  0  0  0  0  0  0
  -30.5408  -25.1922   11.7847 N   0  3  0  0  0  0  0  0  0  0  0  0
  -22.7050  -14.7540   21.1942 O   0  0  0  0  0  0  0  0  0  0  0  0
  -31.1742  -22.2080   21.0611 O   0  0  0  0  0  0  0  0  0  0  0  0
  -26.3998  -26.2668   19.1017 O   0  0  0  0  0  0  0  0  0  0  0  0
  -26.0174  -27.1669   15.0849 O   0  0  0  0  0  0  0  0  0  0  0  0
  -29.3900  -23.9914   14.0541 O   0  0  0  0  0  0  0  0  0  0  0  0
  -31.9131  -14.7876   20.1586 O   0  0  0  0  0  0  0  0  0  0  0  0
  -33.6033  -21.6149   18.4827 O   0  0  0  0  0  0  0  0  0  0  0  0
  -21.5297   -7.0874   21.8481 O   0  0  0  0  0  0  0  0  0  0  0  0
  -32.1375  -24.4221   20.2684 O   0  0  0  0  0  0  0  0  0  1  0  0
  -18.4871   -7.1431   26.4463 F   0  0  0  0  0  0  0  0  0  0  0  0
  -21.9286   -5.2077   23.8356 F   0  0  0  0  0  0  0  0  0  0  0  0
  -29.8450  -20.4669   22.2499 F   0  0  0  0  0  0  0  0  0  0  0  0
  -31.4751  -17.6091   20.2282 S   0  0  0  0  0  0  0  0  0  0  0  0
  1  2  1  0  0  0  0
  1  5  2  0  0  0  0
  2  6  2  0  0  0  0
  3  8  2  0  0  0  0
  3 15  1  0  0  0  0
  4  9  1  0  0  0  0
  4 15  2  0  0  0  0
  5 17  1  0  0  0  0
  6 19  1  0  0  0  0
  7 10  2  0  0  0  0
  7 18  1  0  0  0  0
  8 22  1  0  0  0  0
  9 22  2  0  0  0  0
 10 23  1  0  0  0  0
 11 12  2  0  0  0  0
 11 24  1  0  0  0  0
 12 25  1  0  0  0  0
 13 20  1  0  0  0  0
 13 23  2  0  0  0  0
 14 25  2  0  0  0  0
 14 26  1  0  0  0  0
 15 28  1  0  0  0  0
 16 28  1  0  0  0  0
 16 29  2  0  0  0  0
 16 32  1  0  0  0  0
 17 19  2  0  0  0  0
 17 40  1  0  0  0  0
 18 20  2  0  0  0  0
 18 41  1  0  0  0  0
 19 49  1  0  0  0  0
 20 42  1  0  0  0  0
 21 27  1  0  0  0  0
 21 30  2  0  0  0  0
 21 52  1  0  0  0  0
 22 80  1  0  0  0  0
 23 81  1  0  0  0  0
 24 26  2  0  0  0  0
 24 80  1  0  0  0  0
 25 82  1  0  0  0  0
 26 83  1  0  0  0  0
 27 31  2  0  0  0  0
 27 84  1  0  0  0  0
 28 62  2  0  0  0  0
 29 63  1  0  0  0  0
 29 66  1  0  0  0  0
 30 69  1  0  0  0  0
 30 85  1  0  0  0  0
 31 68  1  0  0  0  0
 31 85  1  0  0  0  0
 32 67  1  0  0  0  0
 32 73  2  0  0  0  0
 33 34  2  0  0  0  0
 33 35  1  0  0  0  0
 33 79  1  0  0  0  0
 34 53  1  0  0  0  0
 34 81  1  0  0  0  0
 35 68  1  0  0  0  0
 35 74  2  0  0  0  0
 36 50  1  0  0  0  0
 36 70  1  0  0  0  0
 36 75  2  0  0  0  0
 37 59  1  0  0  0  0
 37 64  1  0  0  0  0
 37 76  2  0  0  0  0
 38 60  1  0  0  0  0
 38 71  1  0  0  0  0
 38 77  2  0  0  0  0
 39 65  1  0  0  0  0
 39 69  1  0  0  0  0
 39 78  2  0  0  0  0
 40 43  1  0  0  0  0
 41 50  1  0  0  0  0
 42 64  1  0  0  0  0
 43 45  1  0  0  0  0
 44 46  1  0  0  0  0
 44 47  1  0  0  0  0
 45 49  1  0  0  0  0
 46 51  1  0  0  0  0
 47 65  1  0  0  0  0
 48 51  1  0  0  0  0
 48 65  1  0  0  0  0
 49 70  1  0  0  0  0
 50 64  1  0  0  0  0
 51 63  1  0  0  0  0
 54 60  1  0  0  0  0
 55 61  1  0  0  0  0
 56 61  1  0  0  0  0
 57 61  1  0  0  0  0
 58 72  1  0  0  0  0
 59 61  1  0  0  0  0
 59 71  1  0  0  0  0
 60 72  1  0  0  0  0
 62 63  1  0  0  0  0
M  CHG  1  72   1
M  ISO  4  34 101  39 100  69 100  81 101
M  END
> <Batch ID>
0183

> <Smiles>
CNC(C)C(=O)NC(C(=O)N1Cc2cc([101O:1][101CH:1](C)C(=O)C(=O)Nc3sc([100NH:0][100C:0](=O)N4CCCC(n5nc(-c6ccc(Oc7ccc(F)cc7F)cc6)c(C(N)=O)c5N)C4)c(C)c3F)ccc2CC1C(=O)NC1CCCc2ccccc21)C(C)(C)C

> <Shape>
0.293

> <Color>
0.195

> <Negative vol penalty>
0.000

$$$$

  -OEChem-04052304593D

 83 91  0     1  0  0  0  0  0999 V2000
  -28.1359  -23.3052   18.4022 C   0  0  0  0  0  0  0  0  0  0  0  0
  -26.9287  -23.6770   18.9852 C   0  0  0  0  0  0  0  0  0  0  0  0
  -26.9337  -14.7563   22.1320 C   0  0  0  0  0  0  0  0  0  0  0  0
  -25.5694  -15.2860   20.2097 C   0  0  0  0  0  0  0  0  0  0  0  0
  -29.3307  -23.8546   18.8652 C   0  0  0  0  0  0  0  0  0  0  0  0
  -26.9158  -24.5977   20.0324 C   0  0  0  0  0  0  0  0  0  0  0  0
  -23.2987  -28.1009   19.4948 C   0  0  0  0  0  0  0  0  0  0  0  0
  -26.8221  -13.3976   21.8369 C   0  0  0  0  0  0  0  0  0  0  0  0
  -25.4578  -13.9273   19.9146 C   0  0  0  0  0  0  0  0  0  0  0  0
  -21.9955  -27.7255   19.8183 C   0  0  0  0  0  0  0  0  0  0  0  0
  -27.1957   -9.8102   21.3829 C   0  0  0  0  0  0  0  0  0  0  0  0
  -28.3539   -9.0355   21.4464 C   0  0  0  0  0  0  0  0  0  0  0  0
  -22.2188  -28.8170   21.9580 C   0  0  0  0  0  0  0  0  0  0  0  0
  -29.3717  -10.4178   19.7462 C   0  0  0  0  0  0  0  0  0  0  0  0
  -19.2461  -22.8574   19.7852 C   0  0  0  0  0  0  0  0  0  0  0  0
  -26.3073  -15.7005   21.3185 C   0  0  0  0  0  0  0  0  0  0  0  0
  -27.4112  -17.9953   21.1662 C   0  0  0  0  0  0  0  0  0  0  0  0
  -29.3316  -24.7898   19.9122 C   0  0  0  0  0  0  0  0  0  0  0  0
  -24.0767  -28.8290   20.4062 C   0  0  0  0  0  0  0  0  0  0  0  0
  -28.1119  -25.1591   20.5108 C   0  0  0  0  0  0  0  0  0  0  0  0
  -23.5306  -29.2026   21.6425 C   0  0  0  0  0  0  0  0  0  0  0  0
  -26.0841  -12.9831   20.7282 C   0  0  0  0  0  0  0  0  0  0  0  0
  -21.4564  -28.0810   21.0512 C   0  0  0  0  0  0  0  0  0  0  0  0
  -27.1254  -10.8887   20.5011 C   0  0  0  0  0  0  0  0  0  0  0  0
  -29.4419   -9.3393   20.6281 C   0  0  0  0  0  0  0  0  0  0  0  0
  -28.2134  -11.1925   19.6828 C   0  0  0  0  0  0  0  0  0  0  0  0
  -26.4218  -17.1041   21.6231 C   0  0  0  0  0  0  0  0  0  0  0  0
  -19.0466  -23.4828   20.9981 C   0  0  0  0  0  0  0  0  0  0  0  0
  -27.0769  -19.2002   21.7344 C   0  0  0  0  0  0  0  0  0  0  0  0
  -20.6280  -22.0885   21.6022 C   0  0  0  0  0  0  0  0  0  0  0  0
  -28.5322  -17.7553   20.3051 C   0  0  0  0  0  0  0  0  0  0  0  0
  -26.8051  -28.3016   21.9494 C   0  0  0  0  0  0  0  0  0  0  0  0
  -26.4157  -31.3813   22.8908 C   0  0  0  0  0  0  0  0  0  0  0  0
  -24.2918  -33.9935   23.4496 C   0  0  0  0  0  0  0  0  0  0  0  0
  -21.9194  -21.5028   23.6845 C   0  0  0  0  0  0  0  0  0  0  0  0
  -30.6525  -25.3207   20.4102 C   0  0  0  0  0  0  0  0  0  0  0  0
  -25.4714  -29.2493   20.0313 C   0  0  0  0  0  0  0  0  0  0  0  0
  -24.3174  -30.0015   22.6481 C   0  0  0  0  0  0  0  0  0  0  0  0
  -30.5192  -26.5722   21.2740 C   0  0  0  0  0  0  0  0  0  0  0  0
  -24.9014  -21.0531   25.5773 C   0  0  0  0  0  0  0  0  0  0  0  0
  -29.4134  -26.3912   22.3090 C   0  0  0  0  0  0  0  0  0  0  0  0
  -25.7223  -20.0752   24.7335 C   0  0  0  0  0  0  0  0  0  0  0  0
  -23.4080  -20.7360   25.5205 C   0  0  0  0  0  0  0  0  0  0  0  0
  -23.6680  -19.6514   23.3238 C   0  0  0  0  0  0  0  0  0  0  0  0
  -28.0547  -26.1735   21.6323 C   0  0  1  0  0  0  0  0  0  0  0  0
  -26.3515  -29.5469   21.2415 C   0  0  1  0  0  0  0  0  0  0  0  0
  -25.1718  -19.9699   23.2977 C   0  0  2  0  0  0  0  0  0  0  0  0
  -24.2615  -36.3704   24.2538 C   0  0  0  0  0  0  0  0  0  0  0  0
  -26.7209  -30.4095   25.7669 C   0  0  0  0  0  0  0  0  0  0  0  0
  -25.7536  -32.5883   26.5321 C   0  0  0  0  0  0  0  0  0  0  0  0
  -27.8995  -32.5563   25.2606 C   0  0  0  0  0  0  0  0  0  0  0  0
  -23.2452  -34.9777   20.8621 C   0  0  0  0  0  0  0  0  0  0  0  0
  -19.6945  -26.5041   20.7965 C   0  0  0  0  0  0  0  0  0  1  0  0
  -25.7343  -32.0667   24.0505 C   0  0  1  0  0  0  0  0  0  0  0  0
  -24.3636  -35.4546   23.0440 C   0  0  2  0  0  0  0  0  0  0  0  0
  -18.0519  -24.5862   21.2682 C   0  0  0  0  0  0  0  0  0  0  0  0
  -26.5127  -31.8885   25.3846 C   0  0  0  0  0  0  0  0  0  0  0  0
  -18.6961  -25.8826   21.7577 C   0  0  0  0  0  0  0  0  0  0  0  0
  -25.5262  -17.6927   22.4203 N   0  0  0  0  0  0  0  0  0  0  0  0
  -19.8378  -23.0430   22.0413 N   0  0  0  0  0  0  0  0  0  0  0  0
  -25.9517  -18.9666   22.4688 N   0  0  0  0  0  0  0  0  0  0  0  0
  -25.6788  -30.3833   22.2375 N   0  0  0  0  0  0  0  0  0  0  0  0
  -22.9565  -20.6561   24.1296 N   0  0  0  0  0  0  0  0  0  0  0  0
  -27.6388  -20.4261   21.6726 N   0  0  0  0  0  0  0  0  0  0  0  0
  -28.7286  -16.4591   19.8095 N   0  0  0  0  0  0  0  0  0  0  0  0
  -21.5975  -21.3600   22.3352 N   0  0  0  0  0  0  0  0  0  0  0  0
  -27.5222  -27.4305   21.1517 N   0  0  0  0  0  0  0  0  0  0  0  0
  -25.5461  -33.4568   23.6497 N   0  0  0  0  0  0  0  0  0  0  0  0
  -23.2530  -35.7874   22.1076 N   0  3  0  0  0  0  0  0  0  0  0  0
  -29.3452  -18.6598   19.9978 O   0  0  0  0  0  0  0  0  0  0  0  0
  -26.5265  -28.1436   23.1323 O   0  0  0  0  0  0  0  0  0  0  0  0
  -27.5569  -31.7239   22.5716 O   0  0  0  0  0  0  0  0  0  0  0  0
  -23.2292  -33.3898   23.5798 O   0  0  0  0  0  0  0  0  0  0  0  0
  -21.3767  -22.3154   24.4376 O   0  0  0  0  0  0  0  0  0  0  0  0
  -25.9752  -11.6574   20.4398 O   0  0  0  0  0  0  0  0  0  0  0  0
  -20.1850  -27.7153   21.3699 O   0  0  0  0  0  0  0  0  0  1  0  0
  -30.5546   -8.5962   20.6902 F   0  0  0  0  0  0  0  0  0  0  0  0
  -28.1523  -12.2281   18.8344 F   0  0  0  0  0  0  0  0  0  0  0  0
  -17.1421  -24.2076   22.2176 F   0  0  0  0  0  0  0  0  0  0  0  0
  -17.3005  -24.8878   20.1671 F   0  0  0  0  0  0  0  0  0  0  0  0
  -19.2976  -25.6705   22.9566 F   0  0  0  0  0  0  0  0  0  0  0  0
  -17.6997  -26.7836   21.9858 F   0  0  0  0  0  0  0  0  0  0  0  0
  -20.4732  -21.6700   19.9452 S   0  0  0  0  0  0  0  0  0  0  0  0
  1  2  1  0  0  0  0
  1  5  2  0  0  0  0
  2  6  2  0  0  0  0
  3  8  2  0  0  0  0
  3 16  1  0  0  0  0
  4  9  1  0  0  0  0
  4 16  2  0  0  0  0
  5 18  1  0  0  0  0
  6 20  1  0  0  0  0
  7 10  2  0  0  0  0
  7 19  1  0  0  0  0
  8 22  1  0  0  0  0
  9 22  2  0  0  0  0
 10 23  1  0  0  0  0
 11 12  2  0  0  0  0
 11 24  1  0  0  0  0
 12 25  1  0  0  0  0
 13 21  1  0  0  0  0
 13 23  2  0  0  0  0
 14 25  2  0  0  0  0
 14 26  1  0  0  0  0
 15 28  2  0  0  0  0
 15 83  1  0  0  0  0
 16 27  1  0  0  0  0
 17 27  1  0  0  0  0
 17 29  2  0  0  0  0
 17 31  1  0  0  0  0
 18 20  2  0  0  0  0
 18 36  1  0  0  0  0
 19 21  2  0  0  0  0
 19 37  1  0  0  0  0
 20 45  1  0  0  0  0
 21 38  1  0  0  0  0
 22 75  1  0  0  0  0
 23 76  1  0  0  0  0
 24 26  2  0  0  0  0
 24 75  1  0  0  0  0
 25 77  1  0  0  0  0
 26 78  1  0  0  0  0
 27 59  2  0  0  0  0
 28 56  1  0  0  0  0
 28 60  1  0  0  0  0
 29 61  1  0  0  0  0
 29 64  1  0  0  0  0
 30 60  2  0  0  0  0
 30 66  1  0  0  0  0
 30 83  1  0  0  0  0
 31 65  1  0  0  0  0
 31 70  2  0  0  0  0
 32 46  1  0  0  0  0
 32 67  1  0  0  0  0
 32 71  2  0  0  0  0
 33 54  1  0  0  0  0
 33 62  1  0  0  0  0
 33 72  2  0  0  0  0
 34 55  1  0  0  0  0
 34 68  1  0  0  0  0
 34 73  2  0  0  0  0
 35 63  1  0  0  0  0
 35 66  1  0  0  0  0
 35 74  2  0  0  0  0
 36 39  1  0  0  0  0
 37 46  1  0  0  0  0
 38 62  1  0  0  0  0
 39 41  1  0  0  0  0
 40 42  1  0  0  0  0
 40 43  1  0  0  0  0
 41 45  1  0  0  0  0
 42 47  1  0  0  0  0
 43 63  1  0  0  0  0
 44 47  1  0  0  0  0
 44 63  1  0  0  0  0
 45 67  1  0  0  0  0
 46 62  1  0  0  0  0
 47 61  1  0  0  0  0
 48 55  1  0  0  0  0
 49 57  1  0  0  0  0
 50 57  1  0  0  0  0
 51 57  1  0  0  0  0
 52 69  1  0  0  0  0
 53 58  1  0  0  0  0
 53 76  1  0  0  0  0
 54 57  1  0  0  0  0
 54 68  1  0  0  0  0
 55 69  1  0  0  0  0
 56 58  1  0  0  0  0
 56 79  1  0  0  0  0
 56 80  1  0  0  0  0
 58 81  1  0  0  0  0
 58 82  1  0  0  0  0
 59 61  1  0  0  0  0
M  CHG  1  69   1
M  ISO  4  35 100  53 101  66 100  76 101
M  END
> <Batch ID>
0183

> <Smiles>
CNC(C)C(=O)NC(C(=O)N1Cc2cc([101O:1][101CH2:1]C(F)(F)C(F)(F)c3csc([100NH:0][100C:0](=O)N4CCCC(n5nc(-c6ccc(Oc7ccc(F)cc7F)cc6)c(C(N)=O)c5N)C4)n3)ccc2CC1C(=O)NC1CCCc2ccccc21)C(C)(C)C

> <Shape>
0.257

> <Color>
0.064

> <Negative vol penalty>
0.000

$$$$

  -OEChem-04052304593D

 83 91  0     1  0  0  0  0  0999 V2000
  -21.5383  -33.4721   23.8740 C   0  0  0  0  0  0  0  0  0  0  0  0
  -22.6971  -32.7229   23.6973 C   0  0  0  0  0  0  0  0  0  0  0  0
  -27.4224  -11.6668   20.7510 C   0  0  0  0  0  0  0  0  0  0  0  0
  -27.0609  -12.5481   18.5307 C   0  0  0  0  0  0  0  0  0  0  0  0
  -20.3031  -32.8321   23.9664 C   0  0  0  0  0  0  0  0  0  0  0  0
  -22.6215  -31.3331   23.6139 C   0  0  0  0  0  0  0  0  0  0  0  0
  -25.4565  -29.4548   19.8615 C   0  0  0  0  0  0  0  0  0  0  0  0
  -26.3761  -10.7638   20.5629 C   0  0  0  0  0  0  0  0  0  0  0  0
  -26.0146  -11.6450   18.3426 C   0  0  0  0  0  0  0  0  0  0  0  0
  -26.8290  -29.3594   20.0870 C   0  0  0  0  0  0  0  0  0  0  0  0
  -22.9975  -10.8143   20.6471 C   0  0  0  0  0  0  0  0  0  0  0  0
  -22.0793  -10.6619   21.6859 C   0  0  0  0  0  0  0  0  0  0  0  0
  -26.5791  -27.0106   20.5767 C   0  0  0  0  0  0  0  0  0  0  0  0
  -22.6453   -8.3183   21.8424 C   0  0  0  0  0  0  0  0  0  0  0  0
  -27.7648  -12.5590   19.7348 C   0  0  0  0  0  0  0  0  0  0  0  0
  -30.2057  -13.2924   19.6276 C   0  0  0  0  0  0  0  0  0  0  0  0
  -20.2112  -31.4343   23.8744 C   0  0  0  0  0  0  0  0  0  0  0  0
  -24.6320  -28.3294   20.0028 C   0  0  0  0  0  0  0  0  0  0  0  0
  -21.3840  -30.6736   23.7064 C   0  0  0  0  0  0  0  0  0  0  0  0
  -25.1968  -27.0938   20.3500 C   0  0  0  0  0  0  0  0  0  0  0  0
  -25.6722  -10.7529   19.3587 C   0  0  0  0  0  0  0  0  0  0  0  0
  -27.3901  -28.1378   20.4474 C   0  0  0  0  0  0  0  0  0  0  0  0
  -23.7395   -9.7186   20.2058 C   0  0  0  0  0  0  0  0  0  0  0  0
  -21.9032   -9.4139   22.2837 C   0  0  0  0  0  0  0  0  0  0  0  0
  -23.5634   -8.4707   20.8035 C   0  0  0  0  0  0  0  0  0  0  0  0
  -28.8452  -13.4924   19.9287 C   0  0  0  0  0  0  0  0  0  0  0  0
  -30.8148  -14.4677   19.9940 C   0  0  0  0  0  0  0  0  0  0  0  0
  -28.6803  -22.9902   17.4791 C   0  0  0  0  0  0  0  0  0  0  0  0
  -28.6024  -20.9214   18.1497 C   0  0  0  0  0  0  0  0  0  0  0  0
  -30.8604  -12.1468   19.0668 C   0  0  0  0  0  0  0  0  0  0  0  0
  -28.8004  -24.4705   17.4692 C   0  0  0  0  0  0  0  0  0  0  0  0
  -22.1873  -27.5615   21.8837 C   0  0  0  0  0  0  0  0  0  0  0  0
  -22.0642  -24.9288   19.9927 C   0  0  0  0  0  0  0  0  0  0  0  0
  -23.6954  -22.7952   17.8871 C   0  0  0  0  0  0  0  0  0  0  0  0
  -29.1326  -26.4424   18.9188 C   0  0  0  0  0  0  0  0  0  0  0  0
  -28.8592  -20.0900   20.5138 C   0  0  0  0  0  0  0  0  0  0  0  0
  -18.8590  -30.7841   24.0272 C   0  0  0  0  0  0  0  0  0  0  0  0
  -23.1572  -28.4430   19.7300 C   0  0  0  0  0  0  0  0  0  0  0  0
  -24.3582  -25.8512   20.4949 C   0  0  0  0  0  0  0  0  0  0  0  0
  -18.8238  -29.3333   23.5537 C   0  0  0  0  0  0  0  0  0  0  0  0
  -30.3712  -18.1171   23.0631 C   0  0  0  0  0  0  0  0  0  0  0  0
  -20.0246  -28.5652   24.0967 C   0  0  0  0  0  0  0  0  0  0  0  0
  -30.2807  -16.6898   22.5185 C   0  0  0  0  0  0  0  0  0  0  0  0
  -29.1376  -18.9419   22.7000 C   0  0  0  0  0  0  0  0  0  0  0  0
  -28.7100  -17.5310   20.7262 C   0  0  0  0  0  0  0  0  0  0  0  0
  -21.3402  -29.1657   23.5866 C   0  0  1  0  0  0  0  0  0  0  0  0
  -22.3386  -27.3464   20.4044 C   0  0  1  0  0  0  0  0  0  0  0  0
  -29.9590  -16.6810   21.0112 C   0  0  2  0  0  0  0  0  0  0  0  0
  -23.3422  -20.7152   16.5283 C   0  0  0  0  0  0  0  0  0  0  0  0
  -30.8268  -26.8997   20.7137 C   0  0  0  0  0  0  0  0  0  0  0  0
  -22.1836  -23.2491   22.5373 C   0  0  0  0  0  0  0  0  0  0  0  0
  -22.7815  -21.2728   21.1214 C   0  0  0  0  0  0  0  0  0  0  0  0
  -20.5837  -22.4104   20.8077 C   0  0  0  0  0  0  0  0  0  0  0  0
  -24.3228  -24.2006   15.3592 C   0  0  0  0  0  0  0  0  0  0  0  0
  -22.6963  -23.5583   20.0258 C   0  0  1  0  0  0  0  0  0  0  0  0
  -23.3164  -22.2358   16.5277 C   0  0  2  0  0  0  0  0  0  0  0  0
  -29.3461  -26.7864   20.3869 C   0  0  1  0  0  0  0  0  0  1  0  0
  -22.0771  -22.6463   21.1223 C   0  0  0  0  0  0  0  0  0  0  0  0
  -28.6037  -14.6997   20.4467 N   0  0  0  0  0  0  0  0  0  0  0  0
  -28.7666  -22.2358   18.5527 N   0  0  0  0  0  0  0  0  0  0  0  0
  -28.4019  -20.6210   16.8667 N   0  0  0  0  0  0  0  0  0  0  0  0
  -29.8208  -15.2688   20.4740 N   0  0  0  0  0  0  0  0  0  0  0  0
  -22.9204  -26.0148   20.2238 N   0  0  0  0  0  0  0  0  0  0  0  0
  -28.8972  -18.8908   21.2562 N   0  0  0  0  0  0  0  0  0  0  0  0
  -32.0984  -14.8836   19.9494 N   0  0  0  0  0  0  0  0  0  0  0  0
  -30.0851  -11.0236   18.7480 N   0  0  0  0  0  0  0  0  0  0  0  0
  -28.6563  -19.9147   19.1453 N   0  0  0  0  0  0  0  0  0  0  0  0
  -29.0206  -25.0666   18.7097 N   0  0  0  0  0  0  0  0  0  0  0  0
  -21.5848  -28.7589   22.2194 N   0  0  0  0  0  0  0  0  0  0  0  0
  -22.5856  -23.0249   18.6724 N   0  0  0  0  0  0  0  0  0  0  0  0
  -24.2641  -22.7215   15.4852 N   0  3  0  0  0  0  0  0  0  0  0  0
  -32.0988  -12.1138   18.8699 O   0  0  0  0  0  0  0  0  0  0  0  0
  -28.6772  -25.0732   16.4064 O   0  0  0  0  0  0  0  0  0  0  0  0
  -22.5863  -26.7040   22.6629 O   0  0  0  0  0  0  0  0  0  0  0  0
  -20.8567  -25.0324   19.7631 O   0  0  0  0  0  0  0  0  0  0  0  0
  -24.8599  -23.0038   18.2205 O   0  0  0  0  0  0  0  0  0  0  0  0
  -29.0527  -27.3027   18.0451 O   0  0  0  0  0  0  0  0  0  0  0  0
  -29.0238  -21.1896   21.0483 O   0  0  0  0  0  0  0  0  0  0  0  0
  -24.6513   -9.8717   19.1748 O   0  0  0  0  0  0  0  0  0  0  0  0
  -28.7294  -28.0420   20.6687 O   0  0  0  0  0  0  0  0  0  1  0  0
  -21.0225   -9.2681   23.2823 F   0  0  0  0  0  0  0  0  0  0  0  0
  -24.2743   -7.4147   20.3847 F   0  0  0  0  0  0  0  0  0  0  0  0
  -28.4088  -22.0812   16.0492 S   0  0  0  0  0  0  0  0  0  0  0  0
  1  2  1  0  0  0  0
  1  5  2  0  0  0  0
  2  6  2  0  0  0  0
  3  8  2  0  0  0  0
  3 15  1  0  0  0  0
  4  9  1  0  0  0  0
  4 15  2  0  0  0  0
  5 17  1  0  0  0  0
  6 19  1  0  0  0  0
  7 10  2  0  0  0  0
  7 18  1  0  0  0  0
  8 21  1  0  0  0  0
  9 21  2  0  0  0  0
 10 22  1  0  0  0  0
 11 12  2  0  0  0  0
 11 23  1  0  0  0  0
 12 24  1  0  0  0  0
 13 20  1  0  0  0  0
 13 22  2  0  0  0  0
 14 24  2  0  0  0  0
 14 25  1  0  0  0  0
 15 26  1  0  0  0  0
 16 26  1  0  0  0  0
 16 27  2  0  0  0  0
 16 30  1  0  0  0  0
 17 19  2  0  0  0  0
 17 37  1  0  0  0  0
 18 20  2  0  0  0  0
 18 38  1  0  0  0  0
 19 46  1  0  0  0  0
 20 39  1  0  0  0  0
 21 79  1  0  0  0  0
 22 80  1  0  0  0  0
 23 25  2  0  0  0  0
 23 79  1  0  0  0  0
 24 81  1  0  0  0  0
 25 82  1  0  0  0  0
 26 59  2  0  0  0  0
 27 62  1  0  0  0  0
 27 65  1  0  0  0  0
 28 31  1  0  0  0  0
 28 60  2  0  0  0  0
 28 83  1  0  0  0  0
 29 60  1  0  0  0  0
 29 61  2  0  0  0  0
 29 67  1  0  0  0  0
 30 66  1  0  0  0  0
 30 72  2  0  0  0  0
 31 68  1  0  0  0  0
 31 73  2  0  0  0  0
 32 47  1  0  0  0  0
 32 69  1  0  0  0  0
 32 74  2  0  0  0  0
 33 55  1  0  0  0  0
 33 63  1  0  0  0  0
 33 75  2  0  0  0  0
 34 56  1  0  0  0  0
 34 70  1  0  0  0  0
 34 76  2  0  0  0  0
 35 57  1  0  0  0  0
 35 68  1  0  0  0  0
 35 77  2  0  0  0  0
 36 64  1  0  0  0  0
 36 67  1  0  0  0  0
 36 78  2  0  0  0  0
 37 40  1  0  0  0  0
 38 47  1  0  0  0  0
 39 63  1  0  0  0  0
 40 42  1  0  0  0  0
 41 43  1  0  0  0  0
 41 44  1  0  0  0  0
 42 46  1  0  0  0  0
 43 48  1  0  0  0  0
 44 64  1  0  0  0  0
 45 48  1  0  0  0  0
 45 64  1  0  0  0  0
 46 69  1  0  0  0  0
 47 63  1  0  0  0  0
 48 62  1  0  0  0  0
 49 56  1  0  0  0  0
 50 57  1  0  0  0  0
 51 58  1  0  0  0  0
 52 58  1  0  0  0  0
 53 58  1  0  0  0  0
 54 71  1  0  0  0  0
 55 58  1  0  0  0  0
 55 70  1  0  0  0  0
 56 71  1  0  0  0  0
 57 80  1  0  0  0  0
 59 62  1  0  0  0  0
 61 83  1  0  0  0  0
M  CHG  1  71   1
M  ISO  4  36 100  57 101  67 100  80 101
M  END
> <Batch ID>
0183

> <Smiles>
CNC(C)C(=O)NC(C(=O)N1Cc2cc([101O:1][101CH:1](C)C(=O)NC(=O)c3nc([100NH:0][100C:0](=O)N4CCCC(n5nc(-c6ccc(Oc7ccc(F)cc7F)cc6)c(C(N)=O)c5N)C4)ns3)ccc2CC1C(=O)NC1CCCc2ccccc21)C(C)(C)C

> <Shape>
0.274

> <Color>
0.076

> <Negative vol penalty>
0.000

$$$$

  -OEChem-04052304593D

 85 93  0     1  0  0  0  0  0999 V2000
  -20.0448  -34.8716   21.4163 C   0  0  0  0  0  0  0  0  0  0  0  0
  -21.3031  -34.3798   21.0845 C   0  0  0  0  0  0  0  0  0  0  0  0
  -26.5065  -12.4016   21.3187 C   0  0  0  0  0  0  0  0  0  0  0  0
  -25.5599  -13.4770   19.3733 C   0  0  0  0  0  0  0  0  0  0  0  0
  -19.2708  -34.2149   22.3721 C   0  0  0  0  0  0  0  0  0  0  0  0
  -21.7887  -33.2316   21.7092 C   0  0  0  0  0  0  0  0  0  0  0  0
  -25.3369  -28.9061   19.2181 C   0  0  0  0  0  0  0  0  0  0  0  0
  -25.3056  -11.7238   21.5284 C   0  0  0  0  0  0  0  0  0  0  0  0
  -24.3590  -12.7991   19.5829 C   0  0  0  0  0  0  0  0  0  0  0  0
  -26.7116  -28.6787   19.2650 C   0  0  0  0  0  0  0  0  0  0  0  0
  -22.6076   -9.4362   22.3668 C   0  0  0  0  0  0  0  0  0  0  0  0
  -22.6747   -8.0760   22.6680 C   0  0  0  0  0  0  0  0  0  0  0  0
  -26.3850  -27.1139   21.0717 C   0  0  0  0  0  0  0  0  0  0  0  0
  -23.7802   -7.6636   20.5597 C   0  0  0  0  0  0  0  0  0  0  0  0
  -27.7441  -21.1503   17.2616 C   0  0  0  0  0  0  0  0  0  0  0  0
  -26.6336  -13.2783   20.2412 C   0  0  0  0  0  0  0  0  0  0  0  0
  -28.9699  -13.5488   19.2530 C   0  0  0  0  0  0  0  0  0  0  0  0
  -19.7431  -33.0525   23.0019 C   0  0  0  0  0  0  0  0  0  0  0  0
  -24.4756  -28.2461   20.1064 C   0  0  0  0  0  0  0  0  0  0  0  0
  -21.0209  -32.5595   22.6753 C   0  0  0  0  0  0  0  0  0  0  0  0
  -24.9995  -27.3327   21.0323 C   0  0  0  0  0  0  0  0  0  0  0  0
  -24.2318  -11.9225   20.6605 C   0  0  0  0  0  0  0  0  0  0  0  0
  -27.2362  -27.7847   20.1938 C   0  0  0  0  0  0  0  0  0  0  0  0
  -23.1267   -9.9102   21.1619 C   0  0  0  0  0  0  0  0  0  0  0  0
  -23.2610   -7.1897   21.7645 C   0  0  0  0  0  0  0  0  0  0  0  0
  -23.7130   -9.0239   20.2584 C   0  0  0  0  0  0  0  0  0  0  0  0
  -27.5375  -22.1856   16.3568 C   0  0  0  0  0  0  0  0  0  0  0  0
  -28.0703  -23.4437   16.6149 C   0  0  0  0  0  0  0  0  0  0  0  0
  -27.8737  -13.9792   20.0244 C   0  0  0  0  0  0  0  0  0  0  0  0
  -28.4847  -21.4225   18.4006 C   0  0  0  0  0  0  0  0  0  0  0  0
  -28.7961  -23.6133   17.7829 C   0  0  0  0  0  0  0  0  0  0  0  0
  -29.8886  -14.5636   19.3658 C   0  0  0  0  0  0  0  0  0  0  0  0
  -29.1421  -12.3400   18.5015 C   0  0  0  0  0  0  0  0  0  0  0  0
  -22.4718  -29.1731   22.3932 C   0  0  0  0  0  0  0  0  0  0  0  0
  -21.6986  -26.0233   22.4526 C   0  0  0  0  0  0  0  0  0  0  0  0
  -22.6192  -22.8013   21.8060 C   0  0  0  0  0  0  0  0  0  0  0  0
  -30.0964  -25.2922   19.1348 C   0  0  0  0  0  0  0  0  0  0  0  0
  -29.3969  -20.4062   20.5175 C   0  0  0  0  0  0  0  0  0  0  0  0
  -18.8900  -32.4040   24.0631 C   0  0  0  0  0  0  0  0  0  0  0  0
  -22.9923  -28.4823   20.0251 C   0  0  0  0  0  0  0  0  0  0  0  0
  -24.1155  -26.5835   21.9944 C   0  0  0  0  0  0  0  0  0  0  0  0
  -19.3223  -30.9809   24.4066 C   0  0  0  0  0  0  0  0  0  0  0  0
  -31.2962  -18.0249   22.3612 C   0  0  0  0  0  0  0  0  0  0  0  0
  -20.8339  -30.9140   24.5996 C   0  0  0  0  0  0  0  0  0  0  0  0
  -30.7380  -16.6778   21.8964 C   0  0  0  0  0  0  0  0  0  0  0  0
  -30.2030  -19.0871   22.4631 C   0  0  0  0  0  0  0  0  0  0  0  0
  -28.8312  -17.9117   20.7879 C   0  0  0  0  0  0  0  0  0  0  0  0
  -21.5721  -31.3027   23.3130 C   0  0  1  0  0  0  0  0  0  0  0  0
  -22.2613  -28.1424   21.3203 C   0  0  1  0  0  0  0  0  0  0  0  0
  -29.9058  -16.8270   20.6077 C   0  0  2  0  0  0  0  0  0  0  0  0
  -21.7910  -20.4401   21.9958 C   0  0  0  0  0  0  0  0  0  0  0  0
  -22.2572  -26.0712   25.4519 C   0  0  0  0  0  0  0  0  0  0  0  0
  -22.3470  -23.5696   25.4045 C   0  0  0  0  0  0  0  0  0  0  0  0
  -20.2390  -24.7521   24.7876 C   0  0  0  0  0  0  0  0  0  0  0  0
  -22.7656  -22.3917   18.8785 C   0  0  0  0  0  0  0  0  0  0  0  0
  -29.3027  -27.6939   19.0203 C   0  0  0  0  0  0  0  0  0  1  0  0
  -22.2044  -24.8122   23.1984 C   0  0  1  0  0  0  0  0  0  0  0  0
  -21.8931  -21.6678   21.1042 C   0  0  2  0  0  0  0  0  0  0  0  0
  -30.5081  -26.7599   19.0279 C   0  0  1  0  0  0  0  0  0  0  0  0
  -21.7790  -24.8167   24.6939 C   0  0  0  0  0  0  0  0  0  0  0  0
  -28.0758  -15.1741   20.5859 N   0  0  0  0  0  0  0  0  0  0  0  0
  -29.0179  -22.6317   18.6856 N   0  0  0  0  0  0  0  0  0  0  0  0
  -29.3096  -15.5033   20.1670 N   0  0  0  0  0  0  0  0  0  0  0  0
  -22.6727  -26.8533   21.8799 N   0  0  0  0  0  0  0  0  0  0  0  0
  -29.4592  -19.1754   21.2045 N   0  0  0  0  0  0  0  0  0  0  0  0
  -31.1272  -14.7347   18.8569 N   0  0  0  0  0  0  0  0  0  0  0  0
  -28.0988  -11.4042   18.4929 N   0  0  0  0  0  0  0  0  0  0  0  0
  -29.3356  -24.8961   18.0401 N   0  0  0  0  0  0  0  0  0  0  0  0
  -28.6897  -20.3610   19.3165 N   0  0  0  0  0  0  0  0  0  0  0  0
  -21.5542  -30.2059   22.3690 N   0  0  0  0  0  0  0  0  0  0  0  0
  -21.7421  -23.6489   22.4492 N   0  0  0  0  0  0  0  0  0  0  0  0
  -22.6138  -21.2845   19.8573 N   0  3  0  0  0  0  0  0  0  0  0  0
  -30.1967  -12.0894   17.8702 O   0  0  0  0  0  0  0  0  0  0  0  0
  -23.3974  -29.0403   23.1853 O   0  0  0  0  0  0  0  0  0  0  0  0
  -20.4836  -26.2217   22.3748 O   0  0  0  0  0  0  0  0  0  0  0  0
  -23.8423  -22.9207   21.7886 O   0  0  0  0  0  0  0  0  0  0  0  0
  -30.4450  -24.6017   20.0882 O   0  0  0  0  0  0  0  0  0  0  0  0
  -29.9545  -21.4189   20.9484 O   0  0  0  0  0  0  0  0  0  0  0  0
  -31.3404  -27.1009   20.1250 O   0  0  0  0  0  0  0  0  0  0  0  0
  -23.0599  -11.2610   20.8646 O   0  0  0  0  0  0  0  0  0  0  0  0
  -28.5777  -27.5614   20.2422 O   0  0  0  0  0  0  0  0  0  1  0  0
  -23.3268   -5.8836   22.0547 F   0  0  0  0  0  0  0  0  0  0  0  0
  -24.2144   -9.4734   19.0999 F   0  0  0  0  0  0  0  0  0  0  0  0
  -26.8277  -21.9721   15.2412 F   0  0  0  0  0  0  0  0  0  0  0  0
  -27.8792  -24.4501   15.7523 F   0  0  0  0  0  0  0  0  0  0  0  0
  1  2  1  0  0  0  0
  1  5  2  0  0  0  0
  2  6  2  0  0  0  0
  3  8  2  0  0  0  0
  3 16  1  0  0  0  0
  4  9  1  0  0  0  0
  4 16  2  0  0  0  0
  5 18  1  0  0  0  0
  6 20  1  0  0  0  0
  7 10  2  0  0  0  0
  7 19  1  0  0  0  0
  8 22  1  0  0  0  0
  9 22  2  0  0  0  0
 10 23  1  0  0  0  0
 11 12  2  0  0  0  0
 11 24  1  0  0  0  0
 12 25  1  0  0  0  0
 13 21  1  0  0  0  0
 13 23  2  0  0  0  0
 14 25  2  0  0  0  0
 14 26  1  0  0  0  0
 15 27  2  0  0  0  0
 15 30  1  0  0  0  0
 16 29  1  0  0  0  0
 17 29  1  0  0  0  0
 17 32  2  0  0  0  0
 17 33  1  0  0  0  0
 18 20  2  0  0  0  0
 18 39  1  0  0  0  0
 19 21  2  0  0  0  0
 19 40  1  0  0  0  0
 20 48  1  0  0  0  0
 21 41  1  0  0  0  0
 22 80  1  0  0  0  0
 23 81  1  0  0  0  0
 24 26  2  0  0  0  0
 24 80  1  0  0  0  0
 25 82  1  0  0  0  0
 26 83  1  0  0  0  0
 27 28  1  0  0  0  0
 27 84  1  0  0  0  0
 28 31  2  0  0  0  0
 28 85  1  0  0  0  0
 29 61  2  0  0  0  0
 30 62  2  0  0  0  0
 30 69  1  0  0  0  0
 31 62  1  0  0  0  0
 31 68  1  0  0  0  0
 32 63  1  0  0  0  0
 32 66  1  0  0  0  0
 33 67  1  0  0  0  0
 33 73  2  0  0  0  0
 34 49  1  0  0  0  0
 34 70  1  0  0  0  0
 34 74  2  0  0  0  0
 35 57  1  0  0  0  0
 35 64  1  0  0  0  0
 35 75  2  0  0  0  0
 36 58  1  0  0  0  0
 36 71  1  0  0  0  0
 36 76  2  0  0  0  0
 37 59  1  0  0  0  0
 37 68  1  0  0  0  0
 37 77  2  0  0  0  0
 38 65  1  0  0  0  0
 38 69  1  0  0  0  0
 38 78  2  0  0  0  0
 39 42  1  0  0  0  0
 40 49  1  0  0  0  0
 41 64  1  0  0  0  0
 42 44  1  0  0  0  0
 43 45  1  0  0  0  0
 43 46  1  0  0  0  0
 44 48  1  0  0  0  0
 45 50  1  0  0  0  0
 46 65  1  0  0  0  0
 47 50  1  0  0  0  0
 47 65  1  0  0  0  0
 48 70  1  0  0  0  0
 49 64  1  0  0  0  0
 50 63  1  0  0  0  0
 51 58  1  0  0  0  0
 52 60  1  0  0  0  0
 53 60  1  0  0  0  0
 54 60  1  0  0  0  0
 55 72  1  0  0  0  0
 56 59  1  0  0  0  0
 56 81  1  0  0  0  0
 57 60  1  0  0  0  0
 57 71  1  0  0  0  0
 58 72  1  0  0  0  0
 59 79  1  0  0  0  0
 61 63  1  0  0  0  0
M  CHG  1  72   1
M  ISO  4  38 100  56 101  69 100  81 101
M  END
> <Batch ID>
0183

> <Smiles>
CNC(C)C(=O)NC(C(=O)N1Cc2cc([101O:1][101CH2:1]C(O)C(=O)Nc3nc([100NH:0][100C:0](=O)N4CCCC(n5nc(-c6ccc(Oc7ccc(F)cc7F)cc6)c(C(N)=O)c5N)C4)cc(F)c3F)ccc2CC1C(=O)NC1CCCc2ccccc21)C(C)(C)C

> <Shape>
0.278

> <Color>
0.109

> <Negative vol penalty>
0.000

$$$$

  -OEChem-04052304593D

 83 91  0     1  0  0  0  0  0999 V2000
  -17.2766  -26.9256   29.0637 C   0  0  0  0  0  0  0  0  0  0  0  0
  -18.6487  -26.8159   28.8619 C   0  0  0  0  0  0  0  0  0  0  0  0
  -23.0738   -9.8665   19.9439 C   0  0  0  0  0  0  0  0  0  0  0  0
  -23.8314   -9.8794   22.2380 C   0  0  0  0  0  0  0  0  0  0  0  0
  -16.4331  -25.8779   28.6962 C   0  0  0  0  0  0  0  0  0  0  0  0
  -19.1783  -25.6579   28.2935 C   0  0  0  0  0  0  0  0  0  0  0  0
  -24.0024  -25.2733   24.5404 C   0  0  0  0  0  0  0  0  0  0  0  0
  -22.3297   -8.7140   20.1961 C   0  0  0  0  0  0  0  0  0  0  0  0
  -23.0873   -8.7269   22.4902 C   0  0  0  0  0  0  0  0  0  0  0  0
  -25.3400  -24.9488   24.7624 C   0  0  0  0  0  0  0  0  0  0  0  0
  -19.3800   -7.9212   21.6465 C   0  0  0  0  0  0  0  0  0  0  0  0
  -18.0736   -7.8738   21.1600 C   0  0  0  0  0  0  0  0  0  0  0  0
  -24.8874  -22.6685   24.1187 C   0  0  0  0  0  0  0  0  0  0  0  0
  -18.6346   -5.9273   19.8433 C   0  0  0  0  0  0  0  0  0  0  0  0
  -23.8248  -10.4492   20.9648 C   0  0  0  0  0  0  0  0  0  0  0  0
  -24.1668  -12.9740   20.8387 C   0  0  0  0  0  0  0  0  0  0  0  0
  -16.9517  -24.7105   28.1141 C   0  0  0  0  0  0  0  0  0  0  0  0
  -23.0933  -24.2937   24.1156 C   0  0  0  0  0  0  0  0  0  0  0  0
  -18.3411  -24.5931   27.9191 C   0  0  0  0  0  0  0  0  0  0  0  0
  -23.5393  -22.9837   23.8896 C   0  0  0  0  0  0  0  0  0  0  0  0
  -22.3364   -8.1442   21.4692 C   0  0  0  0  0  0  0  0  0  0  0  0
  -25.7820  -23.6456   24.5543 C   0  0  0  0  0  0  0  0  0  0  0  0
  -20.3137   -6.9718   21.2313 C   0  0  0  0  0  0  0  0  0  0  0  0
  -17.7008   -6.8768   20.2585 C   0  0  0  0  0  0  0  0  0  0  0  0
  -19.9410   -5.9748   20.3297 C   0  0  0  0  0  0  0  0  0  0  0  0
  -24.5941  -11.6394   20.7048 C   0  0  0  0  0  0  0  0  0  0  0  0
  -30.7048  -19.1015   22.9775 C   0  0  0  0  0  0  0  0  0  0  0  0
  -31.8076  -18.7309   22.2368 C   0  0  0  0  0  0  0  0  0  0  0  0
  -25.2593  -13.7225   20.4746 C   0  0  0  0  0  0  0  0  0  0  0  0
  -30.5697  -16.9526   21.8976 C   0  0  0  0  0  0  0  0  0  0  0  0
  -22.8959  -13.4909   21.2550 C   0  0  0  0  0  0  0  0  0  0  0  0
  -20.4460  -23.0153   25.3243 C   0  0  0  0  0  0  0  0  0  0  0  0
  -29.1193  -22.4973   23.7510 C   0  0  0  0  0  0  0  0  0  0  0  0
  -20.3089  -21.5374   22.4400 C   0  0  0  0  0  0  0  0  0  0  0  0
  -21.9684  -20.4219   19.6744 C   0  0  0  0  0  0  0  0  0  0  0  0
  -30.7254  -14.7684   20.6521 C   0  0  0  0  0  0  0  0  0  0  0  0
  -16.0054  -23.5855   27.7767 C   0  0  0  0  0  0  0  0  0  0  0  0
  -21.6595  -24.6659   23.8550 C   0  0  0  0  0  0  0  0  0  0  0  0
  -22.6078  -21.8998   23.4142 C   0  0  0  0  0  0  0  0  0  0  0  0
  -16.6073  -22.5448   26.8360 C   0  0  0  0  0  0  0  0  0  0  0  0
  -29.6132  -12.3487   18.2887 C   0  0  0  0  0  0  0  0  0  0  0  0
  -18.0076  -22.1542   27.2979 C   0  0  0  0  0  0  0  0  0  0  0  0
  -28.1731  -12.0582   18.7176 C   0  0  0  0  0  0  0  0  0  0  0  0
  -30.5271  -12.5804   19.4907 C   0  0  0  0  0  0  0  0  0  0  0  0
  -28.6189  -13.3084   20.8683 C   0  0  0  0  0  0  0  0  0  0  0  0
  -18.9509  -23.3631   27.2826 C   0  0  1  0  0  0  0  0  0  0  0  0
  -20.7114  -23.4723   23.9178 C   0  0  1  0  0  0  0  0  0  0  0  0
  -27.6472  -13.1323   19.6900 C   0  0  2  0  0  0  0  0  0  0  0  0
  -21.5939  -19.2196   17.5038 C   0  0  0  0  0  0  0  0  0  0  0  0
  -20.0887  -18.8928   23.9457 C   0  0  0  0  0  0  0  0  0  0  0  0
  -20.6715  -17.7120   21.8163 C   0  0  0  0  0  0  0  0  0  0  0  0
  -18.5931  -19.0849   21.9505 C   0  0  0  0  0  0  0  0  0  0  0  0
  -22.9104  -22.7402   18.0941 C   0  0  0  0  0  0  0  0  0  0  0  0
  -29.8405  -21.4636   22.9046 C   0  0  0  0  0  0  0  0  0  0  0  0
  -27.6384  -22.2750   23.9787 C   0  0  0  0  0  0  0  0  0  1  0  0
  -30.4395  -20.3571   23.7764 C   0  0  2  0  0  0  0  0  0  0  0  0
  -20.8401  -20.2416   21.8764 C   0  0  1  0  0  0  0  0  0  0  0  0
  -21.6728  -20.5729   18.1931 C   0  0  2  0  0  0  0  0  0  0  0  0
  -20.0657  -19.0026   22.4080 C   0  0  0  0  0  0  0  0  0  0  0  0
  -25.8594  -11.5424   20.2880 N   0  0  0  0  0  0  0  0  0  0  0  0
  -31.7321  -17.4988   21.6171 N   0  0  0  0  0  0  0  0  0  0  0  0
  -26.2365  -12.8257   20.1568 N   0  0  0  0  0  0  0  0  0  0  0  0
  -21.2140  -22.3118   23.1795 N   0  0  0  0  0  0  0  0  0  0  0  0
  -29.9673  -13.6135   20.3650 N   0  0  0  0  0  0  0  0  0  0  0  0
  -32.9156  -19.4982   22.1027 N   0  0  0  0  0  0  0  0  0  0  0  0
  -25.4698  -15.0538   20.3983 N   0  0  0  0  0  0  0  0  0  0  0  0
  -21.8836  -12.5826   21.5936 N   0  0  0  0  0  0  0  0  0  0  0  0
  -30.0772  -15.6955   21.4675 N   0  0  0  0  0  0  0  0  0  0  0  0
  -19.3802  -23.6521   25.9310 N   0  0  0  0  0  0  0  0  0  0  0  0
  -20.8123  -20.3860   20.4249 N   0  0  0  0  0  0  0  0  0  0  0  0
  -22.7394  -21.3761   17.5312 N   0  3  0  0  0  0  0  0  0  0  0  0
  -22.6596  -14.7217   21.3089 O   0  0  0  0  0  0  0  0  0  0  0  0
  -21.1546  -22.1481   25.8218 O   0  0  0  0  0  0  0  0  0  0  0  0
  -29.7155  -23.4664   24.2207 O   0  0  0  0  0  0  0  0  0  0  0  0
  -19.1362  -21.8544   22.2257 O   0  0  0  0  0  0  0  0  0  0  0  0
  -23.1106  -20.3401   20.1207 O   0  0  0  0  0  0  0  0  0  0  0  0
  -31.8549  -14.9359   20.1851 O   0  0  0  0  0  0  0  0  0  0  0  0
  -31.6754  -20.7989   24.3391 O   0  0  0  0  0  0  0  0  0  0  0  0
  -21.6102   -7.0198   21.7157 O   0  0  0  0  0  0  0  0  0  0  0  0
  -27.0870  -23.3261   24.7709 O   0  0  0  0  0  0  0  0  0  1  0  0
  -16.4459   -6.8304   19.7927 F   0  0  0  0  0  0  0  0  0  0  0  0
  -20.8333   -5.0592   19.9281 F   0  0  0  0  0  0  0  0  0  0  0  0
  -29.5183  -17.8656   22.9006 S   0  0  0  0  0  0  0  0  0  0  0  0
  1  2  1  0  0  0  0
  1  5  2  0  0  0  0
  2  6  2  0  0  0  0
  3  8  2  0  0  0  0
  3 15  1  0  0  0  0
  4  9  1  0  0  0  0
  4 15  2  0  0  0  0
  5 17  1  0  0  0  0
  6 19  1  0  0  0  0
  7 10  2  0  0  0  0
  7 18  1  0  0  0  0
  8 21  1  0  0  0  0
  9 21  2  0  0  0  0
 10 22  1  0  0  0  0
 11 12  2  0  0  0  0
 11 23  1  0  0  0  0
 12 24  1  0  0  0  0
 13 20  1  0  0  0  0
 13 22  2  0  0  0  0
 14 24  2  0  0  0  0
 14 25  1  0  0  0  0
 15 26  1  0  0  0  0
 16 26  1  0  0  0  0
 16 29  2  0  0  0  0
 16 31  1  0  0  0  0
 17 19  2  0  0  0  0
 17 37  1  0  0  0  0
 18 20  2  0  0  0  0
 18 38  1  0  0  0  0
 19 46  1  0  0  0  0
 20 39  1  0  0  0  0
 21 79  1  0  0  0  0
 22 80  1  0  0  0  0
 23 25  2  0  0  0  0
 23 79  1  0  0  0  0
 24 81  1  0  0  0  0
 25 82  1  0  0  0  0
 26 60  2  0  0  0  0
 27 28  2  0  0  0  0
 27 56  1  0  0  0  0
 27 83  1  0  0  0  0
 28 61  1  0  0  0  0
 28 65  1  0  0  0  0
 29 62  1  0  0  0  0
 29 66  1  0  0  0  0
 30 61  2  0  0  0  0
 30 68  1  0  0  0  0
 30 83  1  0  0  0  0
 31 67  1  0  0  0  0
 31 72  2  0  0  0  0
 32 47  1  0  0  0  0
 32 69  1  0  0  0  0
 32 73  2  0  0  0  0
 33 54  1  0  0  0  0
 33 55  1  0  0  0  0
 33 74  2  0  0  0  0
 34 57  1  0  0  0  0
 34 63  1  0  0  0  0
 34 75  2  0  0  0  0
 35 58  1  0  0  0  0
 35 70  1  0  0  0  0
 35 76  2  0  0  0  0
 36 64  1  0  0  0  0
 36 68  1  0  0  0  0
 36 77  2  0  0  0  0
 37 40  1  0  0  0  0
 38 47  1  0  0  0  0
 39 63  1  0  0  0  0
 40 42  1  0  0  0  0
 41 43  1  0  0  0  0
 41 44  1  0  0  0  0
 42 46  1  0  0  0  0
 43 48  1  0  0  0  0
 44 64  1  0  0  0  0
 45 48  1  0  0  0  0
 45 64  1  0  0  0  0
 46 69  1  0  0  0  0
 47 63  1  0  0  0  0
 48 62  1  0  0  0  0
 49 58  1  0  0  0  0
 50 59  1  0  0  0  0
 51 59  1  0  0  0  0
 52 59  1  0  0  0  0
 53 71  1  0  0  0  0
 54 56  1  0  0  0  0
 55 80  1  0  0  0  0
 56 78  1  0  0  0  0
 57 59  1  0  0  0  0
 57 70  1  0  0  0  0
 58 71  1  0  0  0  0
 60 62  1  0  0  0  0
M  CHG  1  71   1
M  ISO  4  36 100  55 101  68 100  80 101
M  END
> <Batch ID>
0183

> <Smiles>
CNC(C)C(=O)NC(C(=O)N1Cc2cc([101O:1][101CH2:1]C(=O)CC(O)c3sc([100NH:0][100C:0](=O)N4CCCC(n5nc(-c6ccc(Oc7ccc(F)cc7F)cc6)c(C(N)=O)c5N)C4)nc3N)ccc2CC1C(=O)NC1CCCc2ccccc21)C(C)(C)C

> <Shape>
0.151

> <Color>
0.177

> <Negative vol penalty>
0.000

$$$$

  -OEChem-04052304593D

 82 90  0     1  0  0  0  0  0999 V2000
  -21.9033  -13.3998   25.6139 C   0  0  0  0  0  0  0  0  0  0  0  0
  -22.4294  -14.6835   25.7169 C   0  0  0  0  0  0  0  0  0  0  0  0
  -22.9998   -9.8947   19.9817 C   0  0  0  0  0  0  0  0  0  0  0  0
  -23.7298   -9.9445   22.2842 C   0  0  0  0  0  0  0  0  0  0  0  0
  -21.0010  -12.9385   26.5716 C   0  0  0  0  0  0  0  0  0  0  0  0
  -22.0528  -15.5072   26.7772 C   0  0  0  0  0  0  0  0  0  0  0  0
  -25.9939  -17.8952   28.8771 C   0  0  0  0  0  0  0  0  0  0  0  0
  -22.2347   -8.7595   20.2487 C   0  0  0  0  0  0  0  0  0  0  0  0
  -22.9647   -8.8092   22.5513 C   0  0  0  0  0  0  0  0  0  0  0  0
  -26.4982  -19.0062   28.2026 C   0  0  0  0  0  0  0  0  0  0  0  0
  -21.4882   -5.7141   23.7554 C   0  0  0  0  0  0  0  0  0  0  0  0
  -22.0766   -4.6982   24.5086 C   0  0  0  0  0  0  0  0  0  0  0  0
  -25.2917  -20.4581   29.7045 C   0  0  0  0  0  0  0  0  0  0  0  0
  -23.7996   -4.4536   22.8327 C   0  0  0  0  0  0  0  0  0  0  0  0
  -28.7649  -18.3435   22.3511 C   0  0  0  0  0  0  0  0  0  0  0  0
  -23.7474  -10.4873   20.9994 C   0  0  0  0  0  0  0  0  0  0  0  0
  -24.1304  -13.0033   20.8245 C   0  0  0  0  0  0  0  0  0  0  0  0
  -20.6206  -13.7535   27.6494 C   0  0  0  0  0  0  0  0  0  0  0  0
  -25.1246  -18.0573   29.9654 C   0  0  0  0  0  0  0  0  0  0  0  0
  -21.1436  -15.0568   27.7494 C   0  0  0  0  0  0  0  0  0  0  0  0
  -24.7798  -19.3475   30.3927 C   0  0  0  0  0  0  0  0  0  0  0  0
  -22.2171   -8.2167   21.5335 C   0  0  0  0  0  0  0  0  0  0  0  0
  -26.1449  -20.2879   28.6144 C   0  0  0  0  0  0  0  0  0  0  0  0
  -22.0554   -6.0997   22.5408 C   0  0  0  0  0  0  0  0  0  0  0  0
  -23.2323   -4.0680   24.0472 C   0  0  0  0  0  0  0  0  0  0  0  0
  -23.2111   -5.4695   22.0795 C   0  0  0  0  0  0  0  0  0  0  0  0
  -24.5384  -11.6597   20.7240 C   0  0  0  0  0  0  0  0  0  0  0  0
  -29.9691  -17.7541   22.6747 C   0  0  0  0  0  0  0  0  0  0  0  0
  -25.2388  -13.7270   20.4583 C   0  0  0  0  0  0  0  0  0  0  0  0
  -29.0036  -19.1677   24.3694 C   0  0  0  0  0  0  0  0  0  0  0  0
  -22.8628  -13.5484   21.2141 C   0  0  0  0  0  0  0  0  0  0  0  0
  -22.1199  -17.2219   30.5800 C   0  0  0  0  0  0  0  0  0  0  0  0
  -22.8091  -18.3886   33.5272 C   0  0  0  0  0  0  0  0  0  0  0  0
  -24.7276  -20.4557   35.4491 C   0  0  0  0  0  0  0  0  0  0  0  0
  -27.7563  -20.6916   25.9382 C   0  0  0  0  0  0  0  0  0  0  0  0
  -30.7350  -14.6658   20.6959 C   0  0  0  0  0  0  0  0  0  0  0  0
  -19.6060  -13.2281   28.6339 C   0  0  0  0  0  0  0  0  0  0  0  0
  -24.6104  -16.8491   30.6991 C   0  0  0  0  0  0  0  0  0  0  0  0
  -23.8660  -19.5759   31.5680 C   0  0  0  0  0  0  0  0  0  0  0  0
  -19.5460  -14.0286   29.9324 C   0  0  0  0  0  0  0  0  0  0  0  0
  -29.5912  -12.2430   18.3510 C   0  0  0  0  0  0  0  0  0  0  0  0
  -19.5103  -15.5245   29.6361 C   0  0  0  0  0  0  0  0  0  0  0  0
  -28.1438  -11.9818   18.7715 C   0  0  0  0  0  0  0  0  0  0  0  0
  -30.4960  -12.4781   19.5585 C   0  0  0  0  0  0  0  0  0  0  0  0
  -28.5881  -13.2711   20.9019 C   0  0  0  0  0  0  0  0  0  0  0  0
  -20.7784  -15.9712   28.8986 C   0  0  1  0  0  0  0  0  0  0  0  0
  -23.3243  -17.1224   31.4728 C   0  0  1  0  0  0  0  0  0  0  0  0
  -27.6267  -13.0836   19.7158 C   0  0  2  0  0  0  0  0  0  0  0  0
  -25.0306  -21.2235   37.8189 C   0  0  0  0  0  0  0  0  0  0  0  0
  -28.6181  -22.5940   27.3515 C   0  0  0  0  0  0  0  0  0  0  0  0
  -20.3384  -20.1599   33.2666 C   0  0  0  0  0  0  0  0  0  0  0  0
  -21.2116  -21.5378   35.1659 C   0  0  0  0  0  0  0  0  0  0  0  0
  -20.6525  -19.1334   35.5254 C   0  0  0  0  0  0  0  0  0  0  0  0
  -27.4932  -19.4075   35.5575 C   0  0  0  0  0  0  0  0  0  0  0  0
  -30.8185  -16.8438   21.8826 C   0  0  0  0  0  0  0  0  0  0  0  0
  -22.7123  -19.7409   34.1912 C   0  0  1  0  0  0  0  0  0  0  0  0
  -25.4600  -20.2219   36.7581 C   0  0  2  0  0  0  0  0  0  0  0  0
  -27.9209  -21.2416   27.3526 C   0  0  1  0  0  0  0  0  0  1  0  0
  -21.2444  -20.1390   34.5139 C   0  0  0  0  0  0  0  0  0  0  0  0
  -28.2096  -19.1541   23.3218 N   0  0  0  0  0  0  0  0  0  0  0  0
  -25.8069  -11.5345   20.3250 N   0  0  0  0  0  0  0  0  0  0  0  0
  -26.2056  -12.8087   20.1715 N   0  0  0  0  0  0  0  0  0  0  0  0
  -23.3843  -18.3627   32.2488 N   0  0  0  0  0  0  0  0  0  0  0  0
  -29.9502  -13.5358   20.4126 N   0  0  0  0  0  0  0  0  0  0  0  0
  -25.4710  -15.0530   20.3568 N   0  0  0  0  0  0  0  0  0  0  0  0
  -21.8324  -12.6632   21.5592 N   0  0  0  0  0  0  0  0  0  0  0  0
  -28.8194  -19.8664   25.5863 N   0  0  0  0  0  0  0  0  0  0  0  0
  -21.8855  -16.0898   29.8232 N   0  0  0  0  0  0  0  0  0  0  0  0
  -23.5869  -19.6865   35.3577 N   0  0  0  0  0  0  0  0  0  0  0  0
  -30.1396  -15.6234   21.5078 N   0  0  0  0  0  0  0  0  0  0  0  0
  -26.9312  -20.3504   36.5586 N   0  3  0  0  0  0  0  0  0  0  0  0
  -22.6452  -14.7835   21.2393 O   0  0  0  0  0  0  0  0  0  0  0  0
  -21.4518  -18.2492   30.5790 O   0  0  0  0  0  0  0  0  0  0  0  0
  -22.3963  -17.3910   34.1239 O   0  0  0  0  0  0  0  0  0  0  0  0
  -25.1255  -21.2446   34.5948 O   0  0  0  0  0  0  0  0  0  0  0  0
  -26.7737  -20.9706   25.2572 O   0  0  0  0  0  0  0  0  0  0  0  0
  -31.8793  -14.8129   20.2535 O   0  0  0  0  0  0  0  0  0  0  0  0
  -21.4705   -7.1090   21.7946 O   0  0  0  0  0  0  0  0  0  0  0  0
  -26.6352  -21.3741   27.9574 O   0  0  0  0  0  0  0  0  0  1  0  0
  -23.7982   -3.0935   24.7714 F   0  0  0  0  0  0  0  0  0  0  0  0
  -23.7613   -5.8365   20.9139 F   0  0  0  0  0  0  0  0  0  0  0  0
  -30.4354  -18.2286   24.2554 S   0  0  0  0  0  0  0  0  0  0  0  0
  1  2  1  0  0  0  0
  1  5  2  0  0  0  0
  2  6  2  0  0  0  0
  3  8  2  0  0  0  0
  3 16  1  0  0  0  0
  4  9  1  0  0  0  0
  4 16  2  0  0  0  0
  5 18  1  0  0  0  0
  6 20  1  0  0  0  0
  7 10  2  0  0  0  0
  7 19  1  0  0  0  0
  8 22  1  0  0  0  0
  9 22  2  0  0  0  0
 10 23  1  0  0  0  0
 11 12  2  0  0  0  0
 11 24  1  0  0  0  0
 12 25  1  0  0  0  0
 13 21  1  0  0  0  0
 13 23  2  0  0  0  0
 14 25  2  0  0  0  0
 14 26  1  0  0  0  0
 15 28  2  0  0  0  0
 15 60  1  0  0  0  0
 16 27  1  0  0  0  0
 17 27  1  0  0  0  0
 17 29  2  0  0  0  0
 17 31  1  0  0  0  0
 18 20  2  0  0  0  0
 18 37  1  0  0  0  0
 19 21  2  0  0  0  0
 19 38  1  0  0  0  0
 20 46  1  0  0  0  0
 21 39  1  0  0  0  0
 22 78  1  0  0  0  0
 23 79  1  0  0  0  0
 24 26  2  0  0  0  0
 24 78  1  0  0  0  0
 25 80  1  0  0  0  0
 26 81  1  0  0  0  0
 27 61  2  0  0  0  0
 28 55  1  0  0  0  0
 28 82  1  0  0  0  0
 29 62  1  0  0  0  0
 29 65  1  0  0  0  0
 30 60  2  0  0  0  0
 30 67  1  0  0  0  0
 30 82  1  0  0  0  0
 31 66  1  0  0  0  0
 31 72  2  0  0  0  0
 32 47  1  0  0  0  0
 32 68  1  0  0  0  0
 32 73  2  0  0  0  0
 33 56  1  0  0  0  0
 33 63  1  0  0  0  0
 33 74  2  0  0  0  0
 34 57  1  0  0  0  0
 34 69  1  0  0  0  0
 34 75  2  0  0  0  0
 35 58  1  0  0  0  0
 35 67  1  0  0  0  0
 35 76  2  0  0  0  0
 36 64  1  0  0  0  0
 36 70  1  0  0  0  0
 36 77  2  0  0  0  0
 37 40  1  0  0  0  0
 38 47  1  0  0  0  0
 39 63  1  0  0  0  0
 40 42  1  0  0  0  0
 41 43  1  0  0  0  0
 41 44  1  0  0  0  0
 42 46  1  0  0  0  0
 43 48  1  0  0  0  0
 44 64  1  0  0  0  0
 45 48  1  0  0  0  0
 45 64  1  0  0  0  0
 46 68  1  0  0  0  0
 47 63  1  0  0  0  0
 48 62  1  0  0  0  0
 49 57  1  0  0  0  0
 50 58  1  0  0  0  0
 51 59  1  0  0  0  0
 52 59  1  0  0  0  0
 53 59  1  0  0  0  0
 54 71  1  0  0  0  0
 55 70  1  0  0  0  0
 56 59  1  0  0  0  0
 56 69  1  0  0  0  0
 57 71  1  0  0  0  0
 58 79  1  0  0  0  0
 61 62  1  0  0  0  0
M  CHG  1  71   1
M  ISO  4  36 100  58 101  70 100  79 101
M  END
> <Batch ID>
0183

> <Smiles>
CNC(C)C(=O)NC(C(=O)N1Cc2cc([101O:1][101CH:1](C)C(=O)Nc3ncc(C[100NH:0][100C:0](=O)N4CCCC(n5nc(-c6ccc(Oc7ccc(F)cc7F)cc6)c(C(N)=O)c5N)C4)s3)ccc2CC1C(=O)NC1CCCc2ccccc21)C(C)(C)C

> <Shape>
0.170

> <Color>
0.193

> <Negative vol penalty>
0.000

$$$$

  -OEChem-04052304593D

 84 92  0     1  0  0  0  0  0999 V2000
  -26.4736  -23.6134   17.5643 C   0  0  0  0  0  0  0  0  0  0  0  0
  -25.3497  -24.1951   18.1422 C   0  0  0  0  0  0  0  0  0  0  0  0
  -26.1170  -13.9204   20.4580 C   0  0  0  0  0  0  0  0  0  0  0  0
  -23.7328  -13.7902   20.8262 C   0  0  0  0  0  0  0  0  0  0  0  0
  -27.7335  -23.8308   18.1203 C   0  0  0  0  0  0  0  0  0  0  0  0
  -25.4851  -24.9937   19.2773 C   0  0  0  0  0  0  0  0  0  0  0  0
  -22.7781  -29.2634   18.9827 C   0  0  0  0  0  0  0  0  0  0  0  0
  -26.2604  -12.6137   20.9245 C   0  0  0  0  0  0  0  0  0  0  0  0
  -23.8762  -12.4835   21.2927 C   0  0  0  0  0  0  0  0  0  0  0  0
  -21.4082  -29.1667   19.2229 C   0  0  0  0  0  0  0  0  0  0  0  0
  -24.2923   -9.4006   19.9724 C   0  0  0  0  0  0  0  0  0  0  0  0
  -23.3878   -8.4455   19.5084 C   0  0  0  0  0  0  0  0  0  0  0  0
  -21.7511  -29.9760   21.4694 C   0  0  0  0  0  0  0  0  0  0  0  0
  -22.6622   -8.0313   21.7753 C   0  0  0  0  0  0  0  0  0  0  0  0
  -24.8532  -14.5086   20.4088 C   0  0  0  0  0  0  0  0  0  0  0  0
  -24.4769  -16.2675   18.5998 C   0  0  0  0  0  0  0  0  0  0  0  0
  -27.8855  -24.6403   19.2571 C   0  0  0  0  0  0  0  0  0  0  0  0
  -23.6476  -29.7076   19.9892 C   0  0  0  0  0  0  0  0  0  0  0  0
  -26.7481  -25.2210   19.8499 C   0  0  0  0  0  0  0  0  0  0  0  0
  -23.1313  -30.0799   21.2386 C   0  0  0  0  0  0  0  0  0  0  0  0
  -25.1401  -11.8953   21.3419 C   0  0  0  0  0  0  0  0  0  0  0  0
  -20.8948  -29.5202   20.4673 C   0  0  0  0  0  0  0  0  0  0  0  0
  -24.3817   -9.6710   21.3379 C   0  0  0  0  0  0  0  0  0  0  0  0
  -22.5728   -7.7608   20.4098 C   0  0  0  0  0  0  0  0  0  0  0  0
  -23.5667   -8.9864   22.2394 C   0  0  0  0  0  0  0  0  0  0  0  0
  -24.7044  -15.8586   19.9275 C   0  0  0  0  0  0  0  0  0  0  0  0
  -18.0236  -22.8457   20.3945 C   0  0  0  0  0  0  0  0  0  0  0  0
  -18.7096  -23.8126   21.0992 C   0  0  0  0  0  0  0  0  0  0  0  0
  -24.4119  -17.6377   18.6689 C   0  0  0  0  0  0  0  0  0  0  0  0
  -20.2126  -22.2174   21.1795 C   0  0  0  0  0  0  0  0  0  0  0  0
  -24.3367  -15.4792   17.4104 C   0  0  0  0  0  0  0  0  0  0  0  0
  -26.0994  -28.4319   21.5593 C   0  0  0  0  0  0  0  0  0  0  0  0
  -26.3568  -31.4187   22.7981 C   0  0  0  0  0  0  0  0  0  0  0  0
  -24.8431  -34.3832   23.5515 C   0  0  0  0  0  0  0  0  0  0  0  0
  -18.8232  -26.1319   22.0653 C   0  0  0  0  0  0  0  0  0  0  0  0
  -22.5195  -21.8597   22.1263 C   0  0  0  0  0  0  0  0  0  0  0  0
  -29.2621  -24.8078   19.8503 C   0  0  0  0  0  0  0  0  0  0  0  0
  -25.1196  -29.8317   19.7056 C   0  0  0  0  0  0  0  0  0  0  0  0
  -24.0199  -30.5820   22.3462 C   0  0  0  0  0  0  0  0  0  0  0  0
  -29.3644  -25.9714   20.8330 C   0  0  0  0  0  0  0  0  0  0  0  0
  -25.9775  -21.0423   21.9000 C   0  0  0  0  0  0  0  0  0  0  0  0
  -28.1905  -25.9524   21.8069 C   0  0  0  0  0  0  0  0  0  0  0  0
  -25.9813  -19.6623   21.2385 C   0  0  0  0  0  0  0  0  0  0  0  0
  -24.8018  -21.2072   22.8614 C   0  0  0  0  0  0  0  0  0  0  0  0
  -23.4873  -19.5300   21.6252 C   0  0  0  0  0  0  0  0  0  0  0  0
  -26.8571  -26.1136   21.0670 C   0  0  1  0  0  0  0  0  0  0  0  0
  -25.9755  -29.8077   20.9682 C   0  0  1  0  0  0  0  0  0  0  0  0
  -24.6164  -19.3401   20.5992 C   0  0  2  0  0  0  0  0  0  0  0  0
  -16.6820  -22.8845   19.7775 C   0  0  0  0  0  0  0  0  0  0  0  0
  -25.3005  -36.6196   24.5938 C   0  0  0  0  0  0  0  0  0  0  0  0
  -26.2774  -30.1414   25.5680 C   0  0  0  0  0  0  0  0  0  0  0  0
  -25.7809  -32.4030   26.5203 C   0  0  0  0  0  0  0  0  0  0  0  0
  -27.9323  -32.0004   25.3236 C   0  0  0  0  0  0  0  0  0  0  0  0
  -24.1879  -35.8148   21.0455 C   0  0  0  0  0  0  0  0  0  0  0  0
  -17.6168  -27.9746   20.7913 C   0  0  0  0  0  0  0  0  0  0  0  0
  -18.8419  -28.4169   19.9943 C   0  0  0  0  0  0  0  0  0  1  0  0
  -25.7828  -32.1312   23.9989 C   0  0  1  0  0  0  0  0  0  0  0  0
  -25.2621  -35.8205   23.3005 C   0  0  2  0  0  0  0  0  0  0  0  0
  -17.9459  -27.3686   22.1581 C   0  0  2  0  0  0  0  0  0  0  0  0
  -26.4266  -31.6578   25.3327 C   0  0  0  0  0  0  0  0  0  0  0  0
  -24.7792  -16.8859   20.7778 N   0  0  0  0  0  0  0  0  0  0  0  0
  -19.9648  -23.4540   21.5504 N   0  0  0  0  0  0  0  0  0  0  0  0
  -24.5976  -17.9539   19.9825 N   0  0  0  0  0  0  0  0  0  0  0  0
  -25.4527  -30.6797   22.0221 N   0  0  0  0  0  0  0  0  0  0  0  0
  -23.5421  -20.8894   22.1853 N   0  0  0  0  0  0  0  0  0  0  0  0
  -24.2146  -18.5908   17.7335 N   0  0  0  0  0  0  0  0  0  0  0  0
  -24.4302  -14.0849   17.5181 N   0  0  0  0  0  0  0  0  0  0  0  0
  -18.2005  -25.1053   21.3670 N   0  0  0  0  0  0  0  0  0  0  0  0
  -21.3808  -21.4558   21.4300 N   0  0  0  0  0  0  0  0  0  0  0  0
  -26.6466  -27.4978   20.7006 N   0  0  0  0  0  0  0  0  0  0  0  0
  -25.9326  -33.5586   23.7368 N   0  0  0  0  0  0  0  0  0  0  0  0
  -24.3076  -36.4828   22.3671 N   0  3  0  0  0  0  0  0  0  0  0  0
  -24.1508  -15.9968   16.2830 O   0  0  0  0  0  0  0  0  0  0  0  0
  -25.7275  -28.2329   22.7099 O   0  0  0  0  0  0  0  0  0  0  0  0
  -27.5616  -31.5202   22.5536 O   0  0  0  0  0  0  0  0  0  0  0  0
  -23.6669  -34.0282   23.5841 O   0  0  0  0  0  0  0  0  0  0  0  0
  -19.9351  -26.1188   22.5856 O   0  0  0  0  0  0  0  0  0  0  0  0
  -22.6553  -22.9772   22.6311 O   0  0  0  0  0  0  0  0  0  0  0  0
  -25.2796  -10.6201   21.7970 O   0  0  0  0  0  0  0  0  0  0  0  0
  -19.5582  -29.4261   20.7047 O   0  0  0  0  0  0  0  0  0  1  0  0
  -21.7032   -6.8448   19.9639 F   0  0  0  0  0  0  0  0  0  0  0  0
  -23.6473   -9.2427   23.5522 F   0  0  0  0  0  0  0  0  0  0  0  0
  -18.5420  -28.3208   22.9302 F   0  0  0  0  0  0  0  0  0  0  0  0
  -18.9802  -21.4264   20.2847 S   0  0  0  0  0  0  0  0  0  0  0  0
  1  2  1  0  0  0  0
  1  5  2  0  0  0  0
  2  6  2  0  0  0  0
  3  8  2  0  0  0  0
  3 15  1  0  0  0  0
  4  9  1  0  0  0  0
  4 15  2  0  0  0  0
  5 17  1  0  0  0  0
  6 19  1  0  0  0  0
  7 10  2  0  0  0  0
  7 18  1  0  0  0  0
  8 21  1  0  0  0  0
  9 21  2  0  0  0  0
 10 22  1  0  0  0  0
 11 12  2  0  0  0  0
 11 23  1  0  0  0  0
 12 24  1  0  0  0  0
 13 20  1  0  0  0  0
 13 22  2  0  0  0  0
 14 24  2  0  0  0  0
 14 25  1  0  0  0  0
 15 26  1  0  0  0  0
 16 26  1  0  0  0  0
 16 29  2  0  0  0  0
 16 31  1  0  0  0  0
 17 19  2  0  0  0  0
 17 37  1  0  0  0  0
 18 20  2  0  0  0  0
 18 38  1  0  0  0  0
 19 46  1  0  0  0  0
 20 39  1  0  0  0  0
 21 79  1  0  0  0  0
 22 80  1  0  0  0  0
 23 25  2  0  0  0  0
 23 79  1  0  0  0  0
 24 81  1  0  0  0  0
 25 82  1  0  0  0  0
 26 61  2  0  0  0  0
 27 28  2  0  0  0  0
 27 49  1  0  0  0  0
 27 84  1  0  0  0  0
 28 62  1  0  0  0  0
 28 68  1  0  0  0  0
 29 63  1  0  0  0  0
 29 66  1  0  0  0  0
 30 62  2  0  0  0  0
 30 69  1  0  0  0  0
 30 84  1  0  0  0  0
 31 67  1  0  0  0  0
 31 73  2  0  0  0  0
 32 47  1  0  0  0  0
 32 70  1  0  0  0  0
 32 74  2  0  0  0  0
 33 57  1  0  0  0  0
 33 64  1  0  0  0  0
 33 75  2  0  0  0  0
 34 58  1  0  0  0  0
 34 71  1  0  0  0  0
 34 76  2  0  0  0  0
 35 59  1  0  0  0  0
 35 68  1  0  0  0  0
 35 77  2  0  0  0  0
 36 65  1  0  0  0  0
 36 69  1  0  0  0  0
 36 78  2  0  0  0  0
 37 40  1  0  0  0  0
 38 47  1  0  0  0  0
 39 64  1  0  0  0  0
 40 42  1  0  0  0  0
 41 43  1  0  0  0  0
 41 44  1  0  0  0  0
 42 46  1  0  0  0  0
 43 48  1  0  0  0  0
 44 65  1  0  0  0  0
 45 48  1  0  0  0  0
 45 65  1  0  0  0  0
 46 70  1  0  0  0  0
 47 64  1  0  0  0  0
 48 63  1  0  0  0  0
 50 58  1  0  0  0  0
 51 60  1  0  0  0  0
 52 60  1  0  0  0  0
 53 60  1  0  0  0  0
 54 72  1  0  0  0  0
 55 56  1  0  0  0  0
 55 59  1  0  0  0  0
 56 80  1  0  0  0  0
 57 60  1  0  0  0  0
 57 71  1  0  0  0  0
 58 72  1  0  0  0  0
 59 83  1  0  0  0  0
 61 63  1  0  0  0  0
M  CHG  1  72   1
M  ISO  4  36 100  56 101  69 100  80 101
M  END
> <Batch ID>
0183

> <Smiles>
CNC(C)C(=O)NC(C(=O)N1Cc2cc([101O:1][101CH2:1]CC(F)C(=O)Nc3nc([100NH:0][100C:0](=O)N4CCCC(n5nc(-c6ccc(Oc7ccc(F)cc7F)cc6)c(C(N)=O)c5N)C4)sc3C)ccc2CC1C(=O)NC1CCCc2ccccc21)C(C)(C)C

> <Shape>
0.268

> <Color>
0.073

> <Negative vol penalty>
0.000

$$$$

  -OEChem-04052304593D

 86 94  0     1  0  0  0  0  0999 V2000
  -23.0707   -6.1037   23.3605 C   0  0  0  0  0  0  0  0  0  0  0  0
  -24.4309   -6.3938   23.3264 C   0  0  0  0  0  0  0  0  0  0  0  0
  -25.2392  -31.7102   21.1042 C   0  0  0  0  0  0  0  0  0  0  0  0
  -27.6329  -31.5114   21.3642 C   0  0  0  0  0  0  0  0  0  0  0  0
  -30.1234  -21.3158   17.6482 C   0  0  0  0  0  0  0  0  0  0  0  0
  -22.1711   -6.9018   22.6550 C   0  0  0  0  0  0  0  0  0  0  0  0
  -24.8924   -7.4814   22.5859 C   0  0  0  0  0  0  0  0  0  0  0  0
  -30.0129  -12.4910   22.6226 C   0  0  0  0  0  0  0  0  0  0  0  0
  -25.2951  -33.0170   21.5885 C   0  0  0  0  0  0  0  0  0  0  0  0
  -27.6889  -32.8183   21.8484 C   0  0  0  0  0  0  0  0  0  0  0  0
  -31.0065  -13.0216   21.8010 C   0  0  0  0  0  0  0  0  0  0  0  0
  -24.7617  -36.2834   23.0951 C   0  0  0  0  0  0  0  0  0  0  0  0
  -23.8096  -36.6682   24.0391 C   0  0  0  0  0  0  0  0  0  0  0  0
  -29.5598  -22.3358   18.4067 C   0  0  0  0  0  0  0  0  0  0  0  0
  -29.3519  -14.3774   20.6859 C   0  0  0  0  0  0  0  0  0  0  0  0
  -24.5935  -34.9398   25.5342 C   0  0  0  0  0  0  0  0  0  0  0  0
  -26.4081  -30.9573   20.9921 C   0  0  0  0  0  0  0  0  0  0  0  0
  -29.9934  -19.9952   18.0632 C   0  0  0  0  0  0  0  0  0  0  0  0
  -26.4621  -29.1911   19.1522 C   0  0  0  0  0  0  0  0  0  0  0  0
  -22.6208   -8.0055   21.9133 C   0  0  0  0  0  0  0  0  0  0  0  0
  -28.6774  -12.8922   22.4745 C   0  0  0  0  0  0  0  0  0  0  0  0
  -23.9981   -8.2942   21.8687 C   0  0  0  0  0  0  0  0  0  0  0  0
  -28.3437  -13.8523   21.5086 C   0  0  0  0  0  0  0  0  0  0  0  0
  -26.5199  -33.5711   21.9605 C   0  0  0  0  0  0  0  0  0  0  0  0
  -30.6757  -13.9628   20.8306 C   0  0  0  0  0  0  0  0  0  0  0  0
  -25.6297  -35.2268   23.3707 C   0  0  0  0  0  0  0  0  0  0  0  0
  -23.7255  -35.9964   25.2586 C   0  0  0  0  0  0  0  0  0  0  0  0
  -25.5456  -34.5550   24.5903 C   0  0  0  0  0  0  0  0  0  0  0  0
  -26.3509  -29.6070   20.4925 C   0  0  0  0  0  0  0  0  0  0  0  0
  -28.8815  -21.9852   19.5629 C   0  0  0  0  0  0  0  0  0  0  0  0
  -29.2959  -19.7494   19.2349 C   0  0  0  0  0  0  0  0  0  0  0  0
  -26.3436  -27.8238   19.2060 C   0  0  0  0  0  0  0  0  0  0  0  0
  -30.5821  -18.8928   17.2765 C   0  0  0  0  0  0  0  0  0  0  0  0
  -26.6554  -29.9709   17.9647 C   0  0  0  0  0  0  0  0  0  0  0  0
  -25.9634  -11.4197   21.7199 C   0  0  0  0  0  0  0  0  0  0  0  0
  -32.4247  -15.9317   18.2513 C   0  0  0  0  0  0  0  0  0  0  0  0
  -24.6574  -14.3047   22.4225 C   0  0  0  0  0  0  0  0  0  0  0  0
  -25.0716  -17.6801   22.7081 C   0  0  0  0  0  0  0  0  0  0  0  0
  -27.5905  -22.9137   21.5168 C   0  0  0  0  0  0  0  0  0  0  0  0
  -21.6157   -8.8110   21.1286 C   0  0  0  0  0  0  0  0  0  0  0  0
  -27.6215  -12.3302   23.3865 C   0  0  0  0  0  0  0  0  0  0  0  0
  -26.9279  -14.3314   21.3227 C   0  0  0  0  0  0  0  0  0  0  0  0
  -22.1456  -10.1677   20.6717 C   0  0  0  0  0  0  0  0  0  0  0  0
  -24.9542  -24.7851   23.0084 C   0  0  0  0  0  0  0  0  0  0  0  0
  -23.5373  -10.0205   20.0650 C   0  0  0  0  0  0  0  0  0  0  0  0
  -25.0917  -26.1722   22.3765 C   0  0  0  0  0  0  0  0  0  0  0  0
  -26.3155  -24.1399   23.2620 C   0  0  0  0  0  0  0  0  0  0  0  0
  -27.3417  -25.4732   21.4624 C   0  0  0  0  0  0  0  0  0  0  0  0
  -24.5347   -9.4802   21.0969 C   0  0  1  0  0  0  0  0  0  0  0  0
  -26.2149  -12.4290   22.8042 C   0  0  1  0  0  0  0  0  0  0  0  0
  -25.9953  -26.1359   21.1284 C   0  0  2  0  0  0  0  0  0  0  0  0
  -33.4069  -17.4662   16.5225 C   0  0  0  0  0  0  0  0  0  0  0  0
  -23.8134  -19.7792   23.2634 C   0  0  0  0  0  0  0  0  0  0  0  0
  -23.3292  -14.2320   19.6765 C   0  0  0  0  0  0  0  0  0  0  0  0
  -22.8957  -16.6879   19.8984 C   0  0  0  0  0  0  0  0  0  0  0  0
  -21.8714  -15.0910   21.5181 C   0  0  0  0  0  0  0  0  0  0  0  0
  -26.8290  -18.2609   25.0175 C   0  0  0  0  0  0  0  0  0  0  0  0
  -31.2338  -15.4419   19.0538 C   0  0  0  0  0  0  0  0  0  1  0  0
  -32.1379  -16.9772   17.1920 C   0  0  2  0  0  0  0  0  0  0  0  0
  -24.3529  -15.5594   21.6403 C   0  0  1  0  0  0  0  0  0  0  0  0
  -24.6807  -18.6536   23.8054 C   0  0  2  0  0  0  0  0  0  0  0  0
  -23.1388  -15.3823   20.6853 C   0  0  0  0  0  0  0  0  0  0  0  0
  -26.1750  -28.5865   21.3362 N   0  0  0  0  0  0  0  0  0  0  0  0
  -28.7345  -20.7137   19.9981 N   0  0  0  0  0  0  0  0  0  0  0  0
  -26.1748  -27.5159   20.5239 N   0  0  0  0  0  0  0  0  0  0  0  0
  -25.9303  -13.7476   22.2345 N   0  0  0  0  0  0  0  0  0  0  0  0
  -27.1147  -24.1369   22.0347 N   0  0  0  0  0  0  0  0  0  0  0  0
  -26.3682  -26.8669   18.2541 N   0  0  0  0  0  0  0  0  0  0  0  0
  -26.7568  -31.3633   18.0889 N   0  0  0  0  0  0  0  0  0  0  0  0
  -28.3107  -23.0320   20.3285 N   0  0  0  0  0  0  0  0  0  0  0  0
  -31.4994  -18.1072   17.8599 N   0  0  0  0  0  0  0  0  0  0  0  0
  -24.9433  -10.5316   22.0035 N   0  0  0  0  0  0  0  0  0  0  0  0
  -24.1890  -16.6241   22.6241 N   0  0  0  0  0  0  0  0  0  0  0  0
  -30.1739  -18.7316   16.0177 N   0  3  0  0  0  0  0  0  0  0  0  0
  -25.8971  -19.2534   24.4231 N   0  3  0  0  0  0  0  0  0  0  0  0
  -26.7194  -29.4499   16.8254 O   0  0  0  0  0  0  0  0  0  0  0  0
  -26.6434  -11.4456   20.7008 O   0  0  0  0  0  0  0  0  0  0  0  0
  -33.5590  -15.4987   18.4552 O   0  0  0  0  0  0  0  0  0  0  0  0
  -23.8002  -13.8401   23.1782 O   0  0  0  0  0  0  0  0  0  0  0  0
  -26.0589  -17.8423   21.9944 O   0  0  0  0  0  0  0  0  0  0  0  0
  -27.3519  -21.8376   22.0709 O   0  0  0  0  0  0  0  0  0  0  0  0
  -26.5749  -34.8465   22.4328 O   0  0  0  0  0  0  0  0  0  0  0  0
  -31.6434  -14.4818   20.0269 O   0  0  0  0  0  0  0  0  0  1  0  0
  -22.8122  -36.3671   26.1656 F   0  0  0  0  0  0  0  0  0  0  0  0
  -26.3775  -33.5399   24.8612 F   0  0  0  0  0  0  0  0  0  0  0  0
  -29.1573  -18.4813   19.6549 F   0  0  0  0  0  0  0  0  0  0  0  0
  1  2  1  0  0  0  0
  1  6  2  0  0  0  0
  2  7  2  0  0  0  0
  3  9  2  0  0  0  0
  3 17  1  0  0  0  0
  4 10  1  0  0  0  0
  4 17  2  0  0  0  0
  5 14  2  0  0  0  0
  5 18  1  0  0  0  0
  6 20  1  0  0  0  0
  7 22  1  0  0  0  0
  8 11  2  0  0  0  0
  8 21  1  0  0  0  0
  9 24  1  0  0  0  0
 10 24  2  0  0  0  0
 11 25  1  0  0  0  0
 12 13  2  0  0  0  0
 12 26  1  0  0  0  0
 13 27  1  0  0  0  0
 14 30  1  0  0  0  0
 15 23  1  0  0  0  0
 15 25  2  0  0  0  0
 16 27  2  0  0  0  0
 16 28  1  0  0  0  0
 17 29  1  0  0  0  0
 18 31  2  0  0  0  0
 18 33  1  0  0  0  0
 19 29  1  0  0  0  0
 19 32  2  0  0  0  0
 19 34  1  0  0  0  0
 20 22  2  0  0  0  0
 20 40  1  0  0  0  0
 21 23  2  0  0  0  0
 21 41  1  0  0  0  0
 22 49  1  0  0  0  0
 23 42  1  0  0  0  0
 24 82  1  0  0  0  0
 25 83  1  0  0  0  0
 26 28  2  0  0  0  0
 26 82  1  0  0  0  0
 27 84  1  0  0  0  0
 28 85  1  0  0  0  0
 29 63  2  0  0  0  0
 30 64  2  0  0  0  0
 30 70  1  0  0  0  0
 31 64  1  0  0  0  0
 31 86  1  0  0  0  0
 32 65  1  0  0  0  0
 32 68  1  0  0  0  0
 33 71  1  0  0  0  0
 33 74  2  0  0  0  0
 34 69  1  0  0  0  0
 34 76  2  0  0  0  0
 35 50  1  0  0  0  0
 35 72  1  0  0  0  0
 35 77  2  0  0  0  0
 36 58  1  0  0  0  0
 36 59  1  0  0  0  0
 36 78  2  0  0  0  0
 37 60  1  0  0  0  0
 37 66  1  0  0  0  0
 37 79  2  0  0  0  0
 38 61  1  0  0  0  0
 38 73  1  0  0  0  0
 38 80  2  0  0  0  0
 39 67  1  0  0  0  0
 39 70  1  0  0  0  0
 39 81  2  0  0  0  0
 40 43  1  0  0  0  0
 41 50  1  0  0  0  0
 42 66  1  0  0  0  0
 43 45  1  0  0  0  0
 44 46  1  0  0  0  0
 44 47  1  0  0  0  0
 45 49  1  0  0  0  0
 46 51  1  0  0  0  0
 47 67  1  0  0  0  0
 48 51  1  0  0  0  0
 48 67  1  0  0  0  0
 49 72  1  0  0  0  0
 50 66  1  0  0  0  0
 51 65  1  0  0  0  0
 52 59  1  0  0  0  0
 53 61  1  0  0  0  0
 54 62  1  0  0  0  0
 55 62  1  0  0  0  0
 56 62  1  0  0  0  0
 57 75  1  0  0  0  0
 58 83  1  0  0  0  0
 59 71  1  0  0  0  0
 60 62  1  0  0  0  0
 60 73  1  0  0  0  0
 61 75  1  0  0  0  0
 63 65  1  0  0  0  0
M  CHG  2  74   1  75   1
M  ISO  4  39 100  58 101  70 100  83 101
M  END
> <Batch ID>
0183

> <Smiles>
CNC(C)C(=O)NC(C(=O)N1Cc2cc([101O:1][101CH2:1]C(=O)C(C)NC(=N)c3ccc([100NH:0][100C:0](=O)N4CCCC(n5nc(-c6ccc(Oc7ccc(F)cc7F)cc6)c(C(N)=O)c5N)C4)nc3F)ccc2CC1C(=O)NC1CCCc2ccccc21)C(C)(C)C

> <Shape>
0.237

> <Color>
0.092

> <Negative vol penalty>
0.000

$$$$

  -OEChem-04052304593D

 85 93  0     1  0  0  0  0  0999 V2000
  -23.7405  -13.9776   15.5892 C   0  0  0  0  0  0  0  0  0  0  0  0
  -23.9714  -15.0763   16.4108 C   0  0  0  0  0  0  0  0  0  0  0  0
  -23.0555   -9.8801   19.9556 C   0  0  0  0  0  0  0  0  0  0  0  0
  -23.8678   -9.8728   22.2309 C   0  0  0  0  0  0  0  0  0  0  0  0
  -23.5144  -14.1633   14.2260 C   0  0  0  0  0  0  0  0  0  0  0  0
  -23.9774  -16.3613   15.8694 C   0  0  0  0  0  0  0  0  0  0  0  0
  -21.3834  -19.6705   18.6917 C   0  0  0  0  0  0  0  0  0  0  0  0
  -22.3171   -8.7256   20.2154 C   0  0  0  0  0  0  0  0  0  0  0  0
  -23.1293   -8.7183   22.4908 C   0  0  0  0  0  0  0  0  0  0  0  0
  -22.0097  -20.1583   19.8378 C   0  0  0  0  0  0  0  0  0  0  0  0
  -19.9154   -7.9179   23.1623 C   0  0  0  0  0  0  0  0  0  0  0  0
  -19.1855   -7.8710   24.3500 C   0  0  0  0  0  0  0  0  0  0  0  0
  -29.1597  -17.1604   19.9013 C   0  0  0  0  0  0  0  0  0  0  0  0
  -28.3918  -18.3603   19.8779 C   0  0  0  0  0  0  0  0  0  0  0  0
  -22.5845  -22.1809   18.6555 C   0  0  0  0  0  0  0  0  0  0  0  0
  -20.4425   -5.9287   25.0459 C   0  0  0  0  0  0  0  0  0  0  0  0
  -23.8309  -10.4536   20.9633 C   0  0  0  0  0  0  0  0  0  0  0  0
  -24.1711  -12.9793   20.8509 C   0  0  0  0  0  0  0  0  0  0  0  0
  -23.5080  -15.4519   13.6693 C   0  0  0  0  0  0  0  0  0  0  0  0
  -21.3624  -20.4310   17.5137 C   0  0  0  0  0  0  0  0  0  0  0  0
  -23.7522  -16.5643   14.4972 C   0  0  0  0  0  0  0  0  0  0  0  0
  -21.9551  -21.7016   17.4966 C   0  0  0  0  0  0  0  0  0  0  0  0
  -22.3539   -8.1448   21.4831 C   0  0  0  0  0  0  0  0  0  0  0  0
  -22.6128  -21.4124   19.8190 C   0  0  0  0  0  0  0  0  0  0  0  0
  -20.9089   -6.9701   22.9164 C   0  0  0  0  0  0  0  0  0  0  0  0
  -19.4490   -6.8765   25.2918 C   0  0  0  0  0  0  0  0  0  0  0  0
  -21.1724   -5.9756   23.8582 C   0  0  0  0  0  0  0  0  0  0  0  0
  -24.5945  -11.6458   20.6953 C   0  0  0  0  0  0  0  0  0  0  0  0
  -29.4327  -16.7457   21.1862 C   0  0  0  0  0  0  0  0  0  0  0  0
  -25.2550  -13.7307   20.4673 C   0  0  0  0  0  0  0  0  0  0  0  0
  -28.1067  -18.8169   21.1460 C   0  0  0  0  0  0  0  0  0  0  0  0
  -22.9108  -13.4930   21.3020 C   0  0  0  0  0  0  0  0  0  0  0  0
  -30.1665  -15.6016   21.6213 C   0  0  0  0  0  0  0  0  0  0  0  0
  -26.0938  -21.9682   21.5946 C   0  0  0  0  0  0  0  0  0  0  0  0
  -30.7696  -14.6489   20.6612 C   0  0  0  0  0  0  0  0  0  0  0  0
  -26.7732  -20.8989   20.7855 C   0  0  0  0  0  0  0  0  0  0  0  0
  -22.4937  -20.0375   14.5693 C   0  0  0  0  0  0  0  0  0  0  0  0
  -20.8601  -22.7804   13.9943 C   0  0  0  0  0  0  0  0  0  0  0  0
  -19.5000  -25.6559   15.2307 C   0  0  0  0  0  0  0  0  0  0  0  0
  -23.3057  -15.5992   12.1820 C   0  0  0  0  0  0  0  0  0  0  0  0
  -20.6595  -19.9018   16.2937 C   0  0  0  0  0  0  0  0  0  0  0  0
  -21.9425  -22.5660   16.2632 C   0  0  0  0  0  0  0  0  0  0  0  0
  -22.9567  -17.0219   11.7527 C   0  0  0  0  0  0  0  0  0  0  0  0
  -29.5410  -12.4039   18.1497 C   0  0  0  0  0  0  0  0  0  0  0  0
  -23.8870  -18.0261   12.4258 C   0  0  0  0  0  0  0  0  0  0  0  0
  -28.1230  -12.0863   18.6232 C   0  0  0  0  0  0  0  0  0  0  0  0
  -30.4923  -12.5972   19.3261 C   0  0  0  0  0  0  0  0  0  0  0  0
  -28.6191  -13.3212   20.7806 C   0  0  0  0  0  0  0  0  0  0  0  0
  -23.7419  -17.9757   13.9515 C   0  0  1  0  0  0  0  0  0  0  0  0
  -21.1457  -20.5443   14.9982 C   0  0  1  0  0  0  0  0  0  0  0  0
  -27.6234  -13.1466   19.6206 C   0  0  2  0  0  0  0  0  0  0  0  0
  -18.2629  -27.7176   14.5122 C   0  0  0  0  0  0  0  0  0  0  0  0
  -23.4491  -23.9392   12.8699 C   0  0  0  0  0  0  0  0  0  0  0  0
  -22.4296  -26.2180   13.0592 C   0  0  0  0  0  0  0  0  0  0  0  0
  -21.3956  -24.5114   11.5622 C   0  0  0  0  0  0  0  0  0  0  0  0
  -17.1680  -24.9881   16.9261 C   0  0  0  0  0  0  0  0  0  0  0  0
  -23.7997  -20.9315   21.8230 C   0  0  0  0  0  0  0  0  0  1  0  0
  -24.9906  -21.5489   22.5366 C   0  0  2  0  0  0  0  0  0  0  0  0
  -21.1839  -24.2531   14.0683 C   0  0  1  0  0  0  0  0  0  0  0  0
  -18.1370  -26.2931   15.0296 C   0  0  2  0  0  0  0  0  0  0  0  0
  -22.1166  -24.7135   12.9127 C   0  0  0  0  0  0  0  0  0  0  0  0
  -25.8494  -11.5521   20.2475 N   0  0  0  0  0  0  0  0  0  0  0  0
  -26.2238  -12.8363   20.1184 N   0  0  0  0  0  0  0  0  0  0  0  0
  -29.9711  -13.5829   20.2710 N   0  0  0  0  0  0  0  0  0  0  0  0
  -21.2482  -22.0019   15.0939 N   0  0  0  0  0  0  0  0  0  0  0  0
  -25.4643  -15.0625   20.3976 N   0  0  0  0  0  0  0  0  0  0  0  0
  -21.9064  -12.5821   21.6568 N   0  0  0  0  0  0  0  0  0  0  0  0
  -27.3832  -19.9520   21.5800 N   0  0  0  0  0  0  0  0  0  0  0  0
  -22.5433  -18.6713   14.3685 N   0  0  0  0  0  0  0  0  0  0  0  0
  -19.9034  -24.9506   14.1166 N   0  0  0  0  0  0  0  0  0  0  0  0
  -17.3853  -26.3251   16.3160 N   0  3  0  0  0  0  0  0  0  0  0  0
  -22.6765  -14.7233   21.3722 O   0  0  0  0  0  0  0  0  0  0  0  0
  -30.3780  -15.2841   22.8116 O   0  0  0  0  0  0  0  0  0  0  0  0
  -26.4893  -23.1168   21.4553 O   0  0  0  0  0  0  0  0  0  0  0  0
  -31.9147  -14.9050   20.3128 O   0  0  0  0  0  0  0  0  0  0  0  0
  -26.7221  -21.0171   19.5724 O   0  0  0  0  0  0  0  0  0  0  0  0
  -23.4198  -20.8278   14.4294 O   0  0  0  0  0  0  0  0  0  0  0  0
  -20.2778  -22.3384   13.0008 O   0  0  0  0  0  0  0  0  0  0  0  0
  -20.1443  -25.7753   16.2705 O   0  0  0  0  0  0  0  0  0  0  0  0
  -21.6332   -7.0184   21.7371 O   0  0  0  0  0  0  0  0  0  0  0  0
  -23.2254  -21.8907   20.9361 O   0  0  0  0  0  0  0  0  0  1  0  0
  -18.7490   -6.8325   26.4330 F   0  0  0  0  0  0  0  0  0  0  0  0
  -22.1264   -5.0630   23.6280 F   0  0  0  0  0  0  0  0  0  0  0  0
  -24.5442  -22.6260   23.2459 F   0  0  0  0  0  0  0  0  0  0  0  0
  -28.7641  -17.8009   22.3575 S   0  0  0  0  0  0  0  0  0  0  0  0
  1  2  1  0  0  0  0
  1  5  2  0  0  0  0
  2  6  2  0  0  0  0
  3  8  2  0  0  0  0
  3 17  1  0  0  0  0
  4  9  1  0  0  0  0
  4 17  2  0  0  0  0
  5 19  1  0  0  0  0
  6 21  1  0  0  0  0
  7 10  2  0  0  0  0
  7 20  1  0  0  0  0
  8 23  1  0  0  0  0
  9 23  2  0  0  0  0
 10 24  1  0  0  0  0
 11 12  2  0  0  0  0
 11 25  1  0  0  0  0
 12 26  1  0  0  0  0
 13 14  1  0  0  0  0
 13 29  2  0  0  0  0
 14 31  2  0  0  0  0
 15 22  1  0  0  0  0
 15 24  2  0  0  0  0
 16 26  2  0  0  0  0
 16 27  1  0  0  0  0
 17 28  1  0  0  0  0
 18 28  1  0  0  0  0
 18 30  2  0  0  0  0
 18 32  1  0  0  0  0
 19 21  2  0  0  0  0
 19 40  1  0  0  0  0
 20 22  2  0  0  0  0
 20 41  1  0  0  0  0
 21 49  1  0  0  0  0
 22 42  1  0  0  0  0
 23 80  1  0  0  0  0
 24 81  1  0  0  0  0
 25 27  2  0  0  0  0
 25 80  1  0  0  0  0
 26 82  1  0  0  0  0
 27 83  1  0  0  0  0
 28 62  2  0  0  0  0
 29 33  1  0  0  0  0
 29 85  1  0  0  0  0
 30 63  1  0  0  0  0
 30 66  1  0  0  0  0
 31 68  1  0  0  0  0
 31 85  1  0  0  0  0
 32 67  1  0  0  0  0
 32 72  2  0  0  0  0
 33 35  1  0  0  0  0
 33 73  2  0  0  0  0
 34 36  1  0  0  0  0
 34 58  1  0  0  0  0
 34 74  2  0  0  0  0
 35 64  1  0  0  0  0
 35 75  2  0  0  0  0
 36 68  1  0  0  0  0
 36 76  2  0  0  0  0
 37 50  1  0  0  0  0
 37 69  1  0  0  0  0
 37 77  2  0  0  0  0
 38 59  1  0  0  0  0
 38 65  1  0  0  0  0
 38 78  2  0  0  0  0
 39 60  1  0  0  0  0
 39 70  1  0  0  0  0
 39 79  2  0  0  0  0
 40 43  1  0  0  0  0
 41 50  1  0  0  0  0
 42 65  1  0  0  0  0
 43 45  1  0  0  0  0
 44 46  1  0  0  0  0
 44 47  1  0  0  0  0
 45 49  1  0  0  0  0
 46 51  1  0  0  0  0
 47 64  1  0  0  0  0
 48 51  1  0  0  0  0
 48 64  1  0  0  0  0
 49 69  1  0  0  0  0
 50 65  1  0  0  0  0
 51 63  1  0  0  0  0
 52 60  1  0  0  0  0
 53 61  1  0  0  0  0
 54 61  1  0  0  0  0
 55 61  1  0  0  0  0
 56 71  1  0  0  0  0
 57 58  1  0  0  0  0
 57 81  1  0  0  0  0
 58 84  1  0  0  0  0
 59 61  1  0  0  0  0
 59 70  1  0  0  0  0
 60 71  1  0  0  0  0
 62 63  1  0  0  0  0
M  CHG  1  71   1
M  ISO  4  33 100  35 100  57 101  81 101
M  END
> <Batch ID>
0183

> <Smiles>
CNC(C)C(=O)NC(C(=O)N1Cc2cc([101O:1][101CH2:1]C(F)C(=O)C(=O)Nc3ccc([100C:0](=O)[100C:0](=O)N4CCCC(n5nc(-c6ccc(Oc7ccc(F)cc7F)cc6)c(C(N)=O)c5N)C4)s3)ccc2CC1C(=O)NC1CCCc2ccccc21)C(C)(C)C

> <Shape>
0.189

> <Color>
0.185

> <Negative vol penalty>
0.000

$$$$

  -OEChem-04052304593D

 84 92  0     1  0  0  0  0  0999 V2000
  -16.8701  -29.5319   24.4337 C   0  0  0  0  0  0  0  0  0  0  0  0
  -17.2158  -28.5011   23.5656 C   0  0  0  0  0  0  0  0  0  0  0  0
  -28.1025  -16.7700   19.2199 C   0  0  0  0  0  0  0  0  0  0  0  0
  -29.1474  -17.1022   21.3727 C   0  0  0  0  0  0  0  0  0  0  0  0
  -17.6048  -30.7168   24.4345 C   0  0  0  0  0  0  0  0  0  0  0  0
  -18.2958  -28.6553   22.6971 C   0  0  0  0  0  0  0  0  0  0  0  0
  -22.2012  -24.3057   20.8708 C   0  0  0  0  0  0  0  0  0  0  0  0
  -27.8331  -15.4432   19.5553 C   0  0  0  0  0  0  0  0  0  0  0  0
  -28.8780  -15.7753   21.7082 C   0  0  0  0  0  0  0  0  0  0  0  0
  -22.2682  -23.5310   19.7136 C   0  0  0  0  0  0  0  0  0  0  0  0
  -25.5711  -13.7544   21.4165 C   0  0  0  0  0  0  0  0  0  0  0  0
  -24.2983  -13.2596   21.1322 C   0  0  0  0  0  0  0  0  0  0  0  0
  -23.8471  -25.0907   18.7682 C   0  0  0  0  0  0  0  0  0  0  0  0
  -28.4401  -26.7452   14.3408 C   0  0  0  0  0  0  0  0  0  0  0  0
  -25.2732  -11.5741   19.7017 C   0  0  0  0  0  0  0  0  0  0  0  0
  -28.7598  -17.5995   20.1286 C   0  0  0  0  0  0  0  0  0  0  0  0
  -28.2153  -20.0889   20.0098 C   0  0  0  0  0  0  0  0  0  0  0  0
  -18.7003  -30.8819   23.5724 C   0  0  0  0  0  0  0  0  0  0  0  0
  -22.9496  -25.4865   20.9812 C   0  0  0  0  0  0  0  0  0  0  0  0
  -19.0450  -29.8441   22.6855 C   0  0  0  0  0  0  0  0  0  0  0  0
  -23.7898  -25.8772   19.9288 C   0  0  0  0  0  0  0  0  0  0  0  0
  -27.0239  -26.7222   14.4956 C   0  0  0  0  0  0  0  0  0  0  0  0
  -28.2208  -14.9458   20.7994 C   0  0  0  0  0  0  0  0  0  0  0  0
  -23.0890  -23.9250   18.6609 C   0  0  0  0  0  0  0  0  0  0  0  0
  -26.6949  -13.1592   20.8433 C   0  0  0  0  0  0  0  0  0  0  0  0
  -24.1494  -12.1694   20.2749 C   0  0  0  0  0  0  0  0  0  0  0  0
  -26.5460  -12.0691   19.9860 C   0  0  0  0  0  0  0  0  0  0  0  0
  -29.0389  -18.9701   19.7824 C   0  0  0  0  0  0  0  0  0  0  0  0
  -29.0350  -25.6126   14.8516 C   0  0  0  0  0  0  0  0  0  0  0  0
  -28.9271  -21.1481   19.5019 C   0  0  0  0  0  0  0  0  0  0  0  0
  -26.5902  -25.5725   15.1185 C   0  0  0  0  0  0  0  0  0  0  0  0
  -26.9225  -20.1641   20.6252 C   0  0  0  0  0  0  0  0  0  0  0  0
  -30.4757  -25.2523   14.8875 C   0  0  0  0  0  0  0  0  0  0  0  0
  -22.2435  -28.5636   21.3502 C   0  0  0  0  0  0  0  0  0  0  0  0
  -25.4608  -28.8673   21.6303 C   0  0  0  0  0  0  0  0  0  0  0  0
  -28.5597  -27.6093   20.9513 C   0  0  0  0  0  0  0  0  0  0  0  0
  -24.9363  -23.9535   16.1098 C   0  0  0  0  0  0  0  0  0  0  0  0
  -32.0600  -23.4784   15.5708 C   0  0  0  0  0  0  0  0  0  0  0  0
  -19.4351  -32.1989   23.5762 C   0  0  0  0  0  0  0  0  0  0  0  0
  -22.8867  -26.2969   22.2468 C   0  0  0  0  0  0  0  0  0  0  0  0
  -24.6290  -27.1255   20.0057 C   0  0  0  0  0  0  0  0  0  0  0  0
  -20.7964  -32.1389   22.8881 C   0  0  0  0  0  0  0  0  0  0  0  0
  -33.7316  -21.4389   17.9252 C   0  0  0  0  0  0  0  0  0  0  0  0
  -20.6871  -31.4131   21.5509 C   0  0  0  0  0  0  0  0  0  0  0  0
  -32.5931  -20.7106   18.6449 C   0  0  0  0  0  0  0  0  0  0  0  0
  -33.4425  -21.6107   16.4346 C   0  0  0  0  0  0  0  0  0  0  0  0
  -31.0166  -21.5011   16.8355 C   0  0  0  0  0  0  0  0  0  0  0  0
  -20.2252  -29.9639   21.7459 C   0  0  1  0  0  0  0  0  0  0  0  0
  -23.2993  -27.7518   22.0458 C   0  0  1  0  0  0  0  0  0  0  0  0
  -31.2283  -21.3656   18.3521 C   0  0  1  0  0  0  0  0  0  0  0  0
  -26.1322  -27.8136   14.0347 C   0  0  0  0  0  0  0  0  0  0  0  0
  -30.9993  -28.0992   21.2766 C   0  0  0  0  0  0  0  0  0  0  0  0
  -22.7554  -23.1178   15.1585 C   0  0  0  0  0  0  0  0  0  0  0  0
  -25.3272  -30.9797   19.4326 C   0  0  0  0  0  0  0  0  0  0  0  0
  -27.8020  -30.7350   19.1433 C   0  0  0  0  0  0  0  0  0  0  0  0
  -26.8750  -31.5321   21.3177 C   0  0  0  0  0  0  0  0  0  0  0  0
  -28.9709  -25.1233   22.5037 C   0  0  0  0  0  0  0  0  0  0  0  0
  -26.6001  -29.1041   20.6686 C   0  0  1  0  0  0  0  0  0  0  0  0
  -29.7745  -27.3919   21.8354 C   0  0  2  0  0  0  0  0  0  0  0  0
  -23.4258  -23.8561   16.3077 C   0  0  1  0  0  0  0  0  0  1  0  0
  -26.6339  -30.5652   20.1380 C   0  0  0  0  0  0  0  0  0  0  0  0
  -30.1860  -19.2887   19.1771 N   0  0  0  0  0  0  0  0  0  0  0  0
  -30.0883  -20.6198   19.0196 N   0  0  0  0  0  0  0  0  0  0  0  0
  -24.5282  -27.8876   21.2613 N   0  0  0  0  0  0  0  0  0  0  0  0
  -32.1376  -22.2461   16.2429 N   0  0  0  0  0  0  0  0  0  0  0  0
  -28.6666  -22.4705   19.4251 N   0  0  0  0  0  0  0  0  0  0  0  0
  -26.3349  -18.9804   21.0921 N   0  0  0  0  0  0  0  0  0  0  0  0
  -25.2903  -25.1364   15.4692 N   0  0  0  0  0  0  0  0  0  0  0  0
  -30.7746  -24.0235   15.4766 N   0  0  0  0  0  0  0  0  0  0  0  0
  -21.3236  -29.1408   22.2047 N   0  0  0  0  0  0  0  0  0  0  0  0
  -27.8144  -28.6930   21.3650 N   0  0  0  0  0  0  0  0  0  0  0  0
  -30.0812  -25.9377   21.9458 N   0  3  0  0  0  0  0  0  0  0  0  0
  -26.2994  -21.2465   20.7423 O   0  0  0  0  0  0  0  0  0  0  0  0
  -31.2950  -26.0118   14.3778 O   0  0  0  0  0  0  0  0  0  0  0  0
  -22.2629  -28.6605   20.1287 O   0  0  0  0  0  0  0  0  0  0  0  0
  -25.4045  -29.5223   22.6741 O   0  0  0  0  0  0  0  0  0  0  0  0
  -28.3002  -26.8919   19.9877 O   0  0  0  0  0  0  0  0  0  0  0  0
  -25.6886  -23.0682   16.5068 O   0  0  0  0  0  0  0  0  0  0  0  0
  -33.0537  -24.0618   15.1265 O   0  0  0  0  0  0  0  0  0  0  0  0
  -27.9578  -13.6512   21.1272 O   0  0  0  0  0  0  0  0  0  0  0  0
  -23.1557  -23.1710   17.5300 O   0  0  0  0  0  0  0  0  0  1  0  0
  -22.9272  -11.6933   20.0032 F   0  0  0  0  0  0  0  0  0  0  0  0
  -27.6220  -11.4924   19.4333 F   0  0  0  0  0  0  0  0  0  0  0  0
  -27.8878  -24.5275   15.5142 S   0  0  0  0  0  0  0  0  0  0  0  0
  1  2  1  0  0  0  0
  1  5  2  0  0  0  0
  2  6  2  0  0  0  0
  3  8  2  0  0  0  0
  3 16  1  0  0  0  0
  4  9  1  0  0  0  0
  4 16  2  0  0  0  0
  5 18  1  0  0  0  0
  6 20  1  0  0  0  0
  7 10  2  0  0  0  0
  7 19  1  0  0  0  0
  8 23  1  0  0  0  0
  9 23  2  0  0  0  0
 10 24  1  0  0  0  0
 11 12  2  0  0  0  0
 11 25  1  0  0  0  0
 12 26  1  0  0  0  0
 13 21  1  0  0  0  0
 13 24  2  0  0  0  0
 14 22  1  0  0  0  0
 14 29  2  0  0  0  0
 15 26  2  0  0  0  0
 15 27  1  0  0  0  0
 16 28  1  0  0  0  0
 17 28  1  0  0  0  0
 17 30  2  0  0  0  0
 17 32  1  0  0  0  0
 18 20  2  0  0  0  0
 18 39  1  0  0  0  0
 19 21  2  0  0  0  0
 19 40  1  0  0  0  0
 20 48  1  0  0  0  0
 21 41  1  0  0  0  0
 22 31  2  0  0  0  0
 22 51  1  0  0  0  0
 23 80  1  0  0  0  0
 24 81  1  0  0  0  0
 25 27  2  0  0  0  0
 25 80  1  0  0  0  0
 26 82  1  0  0  0  0
 27 83  1  0  0  0  0
 28 62  2  0  0  0  0
 29 33  1  0  0  0  0
 29 84  1  0  0  0  0
 30 63  1  0  0  0  0
 30 66  1  0  0  0  0
 31 68  1  0  0  0  0
 31 84  1  0  0  0  0
 32 67  1  0  0  0  0
 32 73  2  0  0  0  0
 33 69  1  0  0  0  0
 33 74  2  0  0  0  0
 34 49  1  0  0  0  0
 34 70  1  0  0  0  0
 34 75  2  0  0  0  0
 35 58  1  0  0  0  0
 35 64  1  0  0  0  0
 35 76  2  0  0  0  0
 36 59  1  0  0  0  0
 36 71  1  0  0  0  0
 36 77  2  0  0  0  0
 37 60  1  0  0  0  0
 37 68  1  0  0  0  0
 37 78  2  0  0  0  0
 38 65  1  0  0  0  0
 38 69  1  0  0  0  0
 38 79  2  0  0  0  0
 39 42  1  0  0  0  0
 40 49  1  0  0  0  0
 41 64  1  0  0  0  0
 42 44  1  0  0  0  0
 43 45  1  0  0  0  0
 43 46  1  0  0  0  0
 44 48  1  0  0  0  0
 45 50  1  0  0  0  0
 46 65  1  0  0  0  0
 47 50  1  0  0  0  0
 47 65  1  0  0  0  0
 48 70  1  0  0  0  0
 49 64  1  0  0  0  0
 50 63  1  0  0  0  0
 52 59  1  0  0  0  0
 53 60  1  0  0  0  0
 54 61  1  0  0  0  0
 55 61  1  0  0  0  0
 56 61  1  0  0  0  0
 57 72  1  0  0  0  0
 58 61  1  0  0  0  0
 58 71  1  0  0  0  0
 59 72  1  0  0  0  0
 60 81  1  0  0  0  0
 62 63  1  0  0  0  0
M  CHG  1  72   1
M  ISO  4  38 100  60 101  69 100  81 101
M  END
> <Batch ID>
0183

> <Smiles>
CNC(C)C(=O)NC(C(=O)N1Cc2cc([101O:1][101CH:1](C)C(=O)Nc3sc(C(=O)[100NH:0][100C:0](=O)N4CCCC(n5nc(-c6ccc(Oc7ccc(F)cc7F)cc6)c(C(N)=O)c5N)C4)cc3C)ccc2CC1C(=O)NC1CCCc2ccccc21)C(C)(C)C

> <Shape>
0.220

> <Color>
0.083

> <Negative vol penalty>
0.000

$$$$

  -OEChem-04052304593D

 83 91  0     1  0  0  0  0  0999 V2000
  -26.7666  -17.8569   26.0280 C   0  0  0  0  0  0  0  0  0  0  0  0
  -27.3787  -18.9475   25.4187 C   0  0  0  0  0  0  0  0  0  0  0  0
  -25.7785  -13.8024   21.7718 C   0  0  0  0  0  0  0  0  0  0  0  0
  -26.4954  -12.3085   20.0136 C   0  0  0  0  0  0  0  0  0  0  0  0
  -25.4005  -17.6387   25.8543 C   0  0  0  0  0  0  0  0  0  0  0  0
  -26.6251  -19.8202   24.6344 C   0  0  0  0  0  0  0  0  0  0  0  0
  -27.6638  -24.6830   25.5930 C   0  0  0  0  0  0  0  0  0  0  0  0
  -24.5324  -13.1761   21.7959 C   0  0  0  0  0  0  0  0  0  0  0  0
  -25.2493  -11.6822   20.0377 C   0  0  0  0  0  0  0  0  0  0  0  0
  -28.8318  -25.2057   25.0395 C   0  0  0  0  0  0  0  0  0  0  0  0
  -23.6499   -9.3941   21.9422 C   0  0  0  0  0  0  0  0  0  0  0  0
  -23.6266   -7.9996   21.9175 C   0  0  0  0  0  0  0  0  0  0  0  0
  -27.5359  -26.2145   23.2726 C   0  0  0  0  0  0  0  0  0  0  0  0
  -22.3583   -8.0573   19.8620 C   0  0  0  0  0  0  0  0  0  0  0  0
  -31.2580  -21.8447   18.9865 C   0  0  0  0  0  0  0  0  0  0  0  0
  -26.7600  -13.3687   20.8806 C   0  0  0  0  0  0  0  0  0  0  0  0
  -29.1856  -13.6739   21.6092 C   0  0  0  0  0  0  0  0  0  0  0  0
  -24.6280  -18.5146   25.0754 C   0  0  0  0  0  0  0  0  0  0  0  0
  -26.4222  -24.9134   24.9833 C   0  0  0  0  0  0  0  0  0  0  0  0
  -25.2477  -19.6128   24.4491 C   0  0  0  0  0  0  0  0  0  0  0  0
  -26.3533  -25.6958   23.8217 C   0  0  0  0  0  0  0  0  0  0  0  0
  -24.2678  -12.1160   20.9289 C   0  0  0  0  0  0  0  0  0  0  0  0
  -28.7683  -25.9691   23.8775 C   0  0  0  0  0  0  0  0  0  0  0  0
  -23.0273  -10.1201   20.9268 C   0  0  0  0  0  0  0  0  0  0  0  0
  -22.9808   -7.3312   20.8774 C   0  0  0  0  0  0  0  0  0  0  0  0
  -22.3816   -9.4517   19.8867 C   0  0  0  0  0  0  0  0  0  0  0  0
  -28.0472  -14.0156   20.8549 C   0  0  0  0  0  0  0  0  0  0  0  0
  -30.1391  -14.5841   21.2234 C   0  0  0  0  0  0  0  0  0  0  0  0
  -30.8398  -23.1396   18.7923 C   0  0  0  0  0  0  0  0  0  0  0  0
  -29.3652  -12.6271   22.5724 C   0  0  0  0  0  0  0  0  0  0  0  0
  -24.1849  -23.0677   23.6827 C   0  0  0  0  0  0  0  0  0  0  0  0
  -22.5470  -25.8607   23.4855 C   0  0  0  0  0  0  0  0  0  0  0  0
  -22.6386  -29.2692   23.3423 C   0  0  0  0  0  0  0  0  0  0  0  0
  -30.7710  -25.6355   19.0935 C   0  0  0  0  0  0  0  0  0  0  0  0
  -29.6358  -20.0663   18.9777 C   0  0  0  0  0  0  0  0  0  0  0  0
  -23.1639  -18.2111   24.8780 C   0  0  0  0  0  0  0  0  0  0  0  0
  -25.1685  -24.3650   25.6077 C   0  0  0  0  0  0  0  0  0  0  0  0
  -25.0429  -25.9892   23.1398 C   0  0  0  0  0  0  0  0  0  0  0  0
  -22.3642  -19.3937   24.3373 C   0  0  0  0  0  0  0  0  0  0  0  0
  -31.4585  -17.2968   17.5166 C   0  0  0  0  0  0  0  0  0  0  0  0
  -23.0980  -20.0449   23.1693 C   0  0  0  0  0  0  0  0  0  0  0  0
  -30.8650  -16.1032   18.2654 C   0  0  0  0  0  0  0  0  0  0  0  0
  -30.4098  -18.3761   17.2639 C   0  0  0  0  0  0  0  0  0  0  0  0
  -29.1221  -17.6534   19.2546 C   0  0  0  0  0  0  0  0  0  0  0  0
  -24.4592  -20.5957   23.6111 C   0  0  1  0  0  0  0  0  0  0  0  0
  -24.0161  -24.2324   24.6169 C   0  0  1  0  0  0  0  0  0  0  0  0
  -30.1554  -16.5545   19.5549 C   0  0  1  0  0  0  0  0  0  0  0  0
  -21.1415  -31.2735   23.1464 C   0  0  0  0  0  0  0  0  0  0  0  0
  -22.1661  -25.2827   20.5138 C   0  0  0  0  0  0  0  0  0  0  0  0
  -21.5330  -27.6844   20.1991 C   0  0  0  0  0  0  0  0  0  0  0  0
  -20.1489  -26.2130   21.6626 C   0  0  0  0  0  0  0  0  0  0  0  0
  -23.5327  -30.3370   25.9537 C   0  0  0  0  0  0  0  0  0  0  0  0
  -29.9293  -26.6561   21.9189 C   0  0  0  0  0  0  0  0  0  1  0  0
  -22.4292  -26.9607   22.4583 C   0  0  1  0  0  0  0  0  0  0  0  0
  -21.8601  -30.3304   24.0987 C   0  0  2  0  0  0  0  0  0  0  0  0
  -31.3535  -26.4895   21.4091 C   0  0  1  0  0  0  0  0  0  0  0  0
  -31.4886  -26.6985   19.9064 C   0  0  0  0  0  0  0  0  0  0  0  0
  -21.5944  -26.5282   21.2200 C   0  0  0  0  0  0  0  0  0  0  0  0
  -28.2563  -15.0615   20.0508 N   0  0  0  0  0  0  0  0  0  0  0  0
  -30.2290  -21.1520   18.1762 N   0  0  0  0  0  0  0  0  0  0  0  0
  -29.5371  -15.3848   20.2978 N   0  0  0  0  0  0  0  0  0  0  0  0
  -23.8457  -25.4255   23.7852 N   0  0  0  0  0  0  0  0  0  0  0  0
  -29.7379  -18.7530   18.5105 N   0  0  0  0  0  0  0  0  0  0  0  0
  -31.4252  -14.7698   21.5891 N   0  0  0  0  0  0  0  0  0  0  0  0
  -28.2824  -11.7818   22.8502 N   0  0  0  0  0  0  0  0  0  0  0  0
  -31.2631  -24.3646   19.3591 N   0  0  0  0  0  0  0  0  0  0  0  0
  -24.2924  -21.8463   24.3201 N   0  0  0  0  0  0  0  0  0  0  0  0
  -21.8957  -28.1215   23.1628 N   0  0  0  0  0  0  0  0  0  0  0  0
  -22.7778  -31.1352   24.9538 N   0  3  0  0  0  0  0  0  0  0  0  0
  -30.4487  -12.4571   23.1812 O   0  0  0  0  0  0  0  0  0  0  0  0
  -24.2139  -23.2625   22.4732 O   0  0  0  0  0  0  0  0  0  0  0  0
  -21.5249  -25.4092   24.0081 O   0  0  0  0  0  0  0  0  0  0  0  0
  -23.7893  -29.4424   22.9468 O   0  0  0  0  0  0  0  0  0  0  0  0
  -29.8651  -25.9452   18.3254 O   0  0  0  0  0  0  0  0  0  0  0  0
  -29.0751  -20.3948   20.0209 O   0  0  0  0  0  0  0  0  0  0  0  0
  -23.0521  -11.5045   20.9523 O   0  0  0  0  0  0  0  0  0  0  0  0
  -29.9069  -26.4800   23.3348 O   0  0  0  0  0  0  0  0  0  1  0  0
  -22.9598   -5.9921   20.8530 F   0  0  0  0  0  0  0  0  0  0  0  0
  -21.7828  -10.1438   18.9078 F   0  0  0  0  0  0  0  0  0  0  0  0
  -32.1175  -27.4473   22.0185 F   0  0  0  0  0  0  0  0  0  0  0  0
  -32.8167  -26.7088   19.5984 F   0  0  0  0  0  0  0  0  0  0  0  0
  -31.0241  -27.9394   19.5923 F   0  0  0  0  0  0  0  0  0  0  0  0
  -29.4468  -22.6306   17.8698 S   0  0  0  0  0  0  0  0  0  0  0  0
  1  2  1  0  0  0  0
  1  5  2  0  0  0  0
  2  6  2  0  0  0  0
  3  8  2  0  0  0  0
  3 16  1  0  0  0  0
  4  9  1  0  0  0  0
  4 16  2  0  0  0  0
  5 18  1  0  0  0  0
  6 20  1  0  0  0  0
  7 10  2  0  0  0  0
  7 19  1  0  0  0  0
  8 22  1  0  0  0  0
  9 22  2  0  0  0  0
 10 23  1  0  0  0  0
 11 12  2  0  0  0  0
 11 24  1  0  0  0  0
 12 25  1  0  0  0  0
 13 21  1  0  0  0  0
 13 23  2  0  0  0  0
 14 25  2  0  0  0  0
 14 26  1  0  0  0  0
 15 29  2  0  0  0  0
 15 60  1  0  0  0  0
 16 27  1  0  0  0  0
 17 27  1  0  0  0  0
 17 28  2  0  0  0  0
 17 30  1  0  0  0  0
 18 20  2  0  0  0  0
 18 36  1  0  0  0  0
 19 21  2  0  0  0  0
 19 37  1  0  0  0  0
 20 45  1  0  0  0  0
 21 38  1  0  0  0  0
 22 76  1  0  0  0  0
 23 77  1  0  0  0  0
 24 26  2  0  0  0  0
 24 76  1  0  0  0  0
 25 78  1  0  0  0  0
 26 79  1  0  0  0  0
 27 59  2  0  0  0  0
 28 61  1  0  0  0  0
 28 64  1  0  0  0  0
 29 66  1  0  0  0  0
 29 83  1  0  0  0  0
 30 65  1  0  0  0  0
 30 70  2  0  0  0  0
 31 46  1  0  0  0  0
 31 67  1  0  0  0  0
 31 71  2  0  0  0  0
 32 54  1  0  0  0  0
 32 62  1  0  0  0  0
 32 72  2  0  0  0  0
 33 55  1  0  0  0  0
 33 68  1  0  0  0  0
 33 73  2  0  0  0  0
 34 57  1  0  0  0  0
 34 66  1  0  0  0  0
 34 74  2  0  0  0  0
 35 60  1  0  0  0  0
 35 63  1  0  0  0  0
 35 75  2  0  0  0  0
 36 39  1  0  0  0  0
 37 46  1  0  0  0  0
 38 62  1  0  0  0  0
 39 41  1  0  0  0  0
 40 42  1  0  0  0  0
 40 43  1  0  0  0  0
 41 45  1  0  0  0  0
 42 47  1  0  0  0  0
 43 63  1  0  0  0  0
 44 47  1  0  0  0  0
 44 63  1  0  0  0  0
 45 67  1  0  0  0  0
 46 62  1  0  0  0  0
 47 61  1  0  0  0  0
 48 55  1  0  0  0  0
 49 58  1  0  0  0  0
 50 58  1  0  0  0  0
 51 58  1  0  0  0  0
 52 69  1  0  0  0  0
 53 56  1  0  0  0  0
 53 77  1  0  0  0  0
 54 58  1  0  0  0  0
 54 68  1  0  0  0  0
 55 69  1  0  0  0  0
 56 57  1  0  0  0  0
 56 80  1  0  0  0  0
 57 81  1  0  0  0  0
 57 82  1  0  0  0  0
 59 61  1  0  0  0  0
 60 83  1  0  0  0  0
M  CHG  1  69   1
M  ISO  4  35 100  53 101  60 100  77 101
M  END
> <Batch ID>
0183

> <Smiles>
CNC(C)C(=O)NC(C(=O)N1Cc2cc([101O:1][101CH2:1]C(F)C(F)(F)C(=O)Nc3c[100n:0]([100C:0](=O)N4CCCC(n5nc(-c6ccc(Oc7ccc(F)cc7F)cc6)c(C(N)=O)c5N)C4)s3)ccc2CC1C(=O)NC1CCCc2ccccc21)C(C)(C)C

> <Shape>
0.212

> <Color>
0.064

> <Negative vol penalty>
0.000

$$$$

  -OEChem-04052304593D

 83 91  0     1  0  0  0  0  0999 V2000
  -24.1712  -31.2517   23.6650 C   0  0  0  0  0  0  0  0  0  0  0  0
  -23.9462  -30.6433   22.4343 C   0  0  0  0  0  0  0  0  0  0  0  0
  -23.0928  -10.0756   19.8284 C   0  0  0  0  0  0  0  0  0  0  0  0
  -23.6634   -9.7776   22.1571 C   0  0  0  0  0  0  0  0  0  0  0  0
  -25.4135  -31.1279   24.2858 C   0  0  0  0  0  0  0  0  0  0  0  0
  -24.9637  -29.9114   21.8232 C   0  0  0  0  0  0  0  0  0  0  0  0
  -24.3294  -24.8708   18.4033 C   0  0  0  0  0  0  0  0  0  0  0  0
  -22.2537   -8.9633   19.8916 C   0  0  0  0  0  0  0  0  0  0  0  0
  -22.8242   -8.6652   22.2203 C   0  0  0  0  0  0  0  0  0  0  0  0
  -24.2987  -24.6710   17.0238 C   0  0  0  0  0  0  0  0  0  0  0  0
  -19.1500   -8.2456   21.0251 C   0  0  0  0  0  0  0  0  0  0  0  0
  -17.8865   -8.3529   20.4439 C   0  0  0  0  0  0  0  0  0  0  0  0
  -26.6502  -24.1337   17.0553 C   0  0  0  0  0  0  0  0  0  0  0  0
  -18.4164   -6.5256   18.9548 C   0  0  0  0  0  0  0  0  0  0  0  0
  -23.7978  -10.4828   20.9611 C   0  0  0  0  0  0  0  0  0  0  0  0
  -24.3210  -12.9722   21.1525 C   0  0  0  0  0  0  0  0  0  0  0  0
  -26.4437  -30.3861   23.6865 C   0  0  0  0  0  0  0  0  0  0  0  0
  -25.5253  -24.7140   19.1187 C   0  0  0  0  0  0  0  0  0  0  0  0
  -26.2213  -29.7786   22.4359 C   0  0  0  0  0  0  0  0  0  0  0  0
  -26.6929  -24.3296   18.4441 C   0  0  0  0  0  0  0  0  0  0  0  0
  -22.1194   -8.2580   21.0876 C   0  0  0  0  0  0  0  0  0  0  0  0
  -25.4598  -24.3052   16.3492 C   0  0  0  0  0  0  0  0  0  0  0  0
  -20.0467   -7.2784   20.5711 C   0  0  0  0  0  0  0  0  0  0  0  0
  -17.5197   -7.4929   19.4088 C   0  0  0  0  0  0  0  0  0  0  0  0
  -19.6799   -6.4184   19.5360 C   0  0  0  0  0  0  0  0  0  0  0  0
  -24.6652  -11.6314   20.8963 C   0  0  0  0  0  0  0  0  0  0  0  0
  -28.5222  -17.7909   16.6323 C   0  0  0  0  0  0  0  0  0  0  0  0
  -27.1578  -17.8741   16.8149 C   0  0  0  0  0  0  0  0  0  0  0  0
  -25.4879  -13.6697   20.9567 C   0  0  0  0  0  0  0  0  0  0  0  0
  -27.4796  -19.8146   15.8449 C   0  0  0  0  0  0  0  0  0  0  0  0
  -29.4711  -16.7200   16.9855 C   0  0  0  0  0  0  0  0  0  0  0  0
  -23.0592  -13.5367   21.5334 C   0  0  0  0  0  0  0  0  0  0  0  0
  -27.3580  -26.6297   20.8721 C   0  0  0  0  0  0  0  0  0  0  0  0
  -28.9712  -23.8827   21.4835 C   0  0  0  0  0  0  0  0  0  0  0  0
  -29.7804  -20.7173   20.4975 C   0  0  0  0  0  0  0  0  0  0  0  0
  -26.1160  -21.8040   15.1223 C   0  0  0  0  0  0  0  0  0  0  0  0
  -30.0292  -14.6714   17.8705 C   0  0  0  0  0  0  0  0  0  0  0  0
  -27.7847  -30.3198   24.3734 C   0  0  0  0  0  0  0  0  0  0  0  0
  -25.5359  -24.9071   20.6103 C   0  0  0  0  0  0  0  0  0  0  0  0
  -27.9977  -24.1285   19.1689 C   0  0  0  0  0  0  0  0  0  0  0  0
  -28.6903  -29.2145   23.8363 C   0  0  0  0  0  0  0  0  0  0  0  0
  -30.2377  -12.0618   20.3506 C   0  0  0  0  0  0  0  0  0  0  0  0
  -28.6954  -29.2227   22.3109 C   0  0  0  0  0  0  0  0  0  0  0  0
  -28.7739  -11.8045   20.7076 C   0  0  0  0  0  0  0  0  0  0  0  0
  -30.4002  -12.4188   18.8763 C   0  0  0  0  0  0  0  0  0  0  0  0
  -28.0914  -13.3197   18.7950 C   0  0  0  0  0  0  0  0  0  0  0  0
  -27.2922  -28.9558   21.7530 C   0  0  1  0  0  0  0  0  0  0  0  0
  -26.9230  -25.2211   21.1623 C   0  0  1  0  0  0  0  0  0  0  0  0
  -27.8851  -12.9870   20.2826 C   0  0  1  0  0  0  0  0  0  0  0  0
  -26.2992  -16.8467   17.4394 C   0  0  0  0  0  0  0  0  0  0  0  0
  -31.1492  -18.7294   21.1845 C   0  0  0  0  0  0  0  0  0  0  0  0
  -26.1797  -23.0919   12.9551 C   0  0  0  0  0  0  0  0  0  0  0  0
  -31.5055  -25.3146   20.5687 C   0  0  0  0  0  0  0  0  0  0  0  0
  -32.6129  -23.0782   20.3677 C   0  0  0  0  0  0  0  0  0  0  0  0
  -31.7957  -23.8682   22.5882 C   0  0  0  0  0  0  0  0  0  0  0  0
  -27.3859  -18.9884   20.6875 C   0  0  0  0  0  0  0  0  0  0  0  0
  -30.1214  -23.1513   20.8346 C   0  0  1  0  0  0  0  0  0  0  0  0
  -29.7850  -19.3984   21.2490 C   0  0  2  0  0  0  0  0  0  0  0  0
  -26.3530  -23.1613   14.4652 C   0  0  1  0  0  0  0  0  0  1  0  0
  -31.4849  -23.8587   21.0756 C   0  0  0  0  0  0  0  0  0  0  0  0
  -25.9502  -11.4837   20.5631 N   0  0  0  0  0  0  0  0  0  0  0  0
  -26.5582  -19.0340   16.3644 N   0  0  0  0  0  0  0  0  0  0  0  0
  -29.0838  -15.6326   17.5676 N   0  0  0  0  0  0  0  0  0  0  0  0
  -26.4236  -12.7406   20.6084 N   0  0  0  0  0  0  0  0  0  0  0  0
  -27.9585  -24.3354   20.6260 N   0  0  0  0  0  0  0  0  0  0  0  0
  -29.5163  -13.5236   18.5021 N   0  0  0  0  0  0  0  0  0  0  0  0
  -25.7945  -14.9811   21.0502 N   0  0  0  0  0  0  0  0  0  0  0  0
  -21.9633  -12.6775   21.6912 N   0  0  0  0  0  0  0  0  0  0  0  0
  -27.3036  -21.0942   15.2665 N   0  0  0  0  0  0  0  0  0  0  0  0
  -26.9760  -27.5458   21.8336 N   0  0  0  0  0  0  0  0  0  0  0  0
  -30.0641  -21.7800   21.3291 N   0  0  0  0  0  0  0  0  0  0  0  0
  -28.7770  -18.4674   20.6675 N   0  3  0  0  0  0  0  0  0  0  0  0
  -22.9043  -14.7686   21.7121 O   0  0  0  0  0  0  0  0  0  0  0  0
  -27.9944  -26.8676   19.8523 O   0  0  0  0  0  0  0  0  0  0  0  0
  -28.9677  -24.0401   22.7070 O   0  0  0  0  0  0  0  0  0  0  0  0
  -29.5520  -20.7966   19.2925 O   0  0  0  0  0  0  0  0  0  0  0  0
  -24.9923  -21.4531   15.4707 O   0  0  0  0  0  0  0  0  0  0  0  0
  -31.2303  -14.7836   17.6136 O   0  0  0  0  0  0  0  0  0  0  0  0
  -21.3004   -7.1727   21.1497 O   0  0  0  0  0  0  0  0  0  0  0  0
  -25.4326  -24.1102   15.0026 O   0  0  0  0  0  0  0  0  0  1  0  0
  -16.3059   -7.5949   18.8518 F   0  0  0  0  0  0  0  0  0  0  0  0
  -20.5367   -5.4864   19.0964 F   0  0  0  0  0  0  0  0  0  0  0  0
  -29.0879  -19.2164   15.8646 S   0  0  0  0  0  0  0  0  0  0  0  0
  1  2  1  0  0  0  0
  1  5  2  0  0  0  0
  2  6  2  0  0  0  0
  3  8  2  0  0  0  0
  3 15  1  0  0  0  0
  4  9  1  0  0  0  0
  4 15  2  0  0  0  0
  5 17  1  0  0  0  0
  6 19  1  0  0  0  0
  7 10  2  0  0  0  0
  7 18  1  0  0  0  0
  8 21  1  0  0  0  0
  9 21  2  0  0  0  0
 10 22  1  0  0  0  0
 11 12  2  0  0  0  0
 11 23  1  0  0  0  0
 12 24  1  0  0  0  0
 13 20  1  0  0  0  0
 13 22  2  0  0  0  0
 14 24  2  0  0  0  0
 14 25  1  0  0  0  0
 15 26  1  0  0  0  0
 16 26  1  0  0  0  0
 16 29  2  0  0  0  0
 16 32  1  0  0  0  0
 17 19  2  0  0  0  0
 17 38  1  0  0  0  0
 18 20  2  0  0  0  0
 18 39  1  0  0  0  0
 19 47  1  0  0  0  0
 20 40  1  0  0  0  0
 21 79  1  0  0  0  0
 22 80  1  0  0  0  0
 23 25  2  0  0  0  0
 23 79  1  0  0  0  0
 24 81  1  0  0  0  0
 25 82  1  0  0  0  0
 26 61  2  0  0  0  0
 27 28  2  0  0  0  0
 27 31  1  0  0  0  0
 27 83  1  0  0  0  0
 28 50  1  0  0  0  0
 28 62  1  0  0  0  0
 29 64  1  0  0  0  0
 29 67  1  0  0  0  0
 30 62  2  0  0  0  0
 30 69  1  0  0  0  0
 30 83  1  0  0  0  0
 31 63  2  0  0  0  0
 32 68  1  0  0  0  0
 32 73  2  0  0  0  0
 33 48  1  0  0  0  0
 33 70  1  0  0  0  0
 33 74  2  0  0  0  0
 34 57  1  0  0  0  0
 34 65  1  0  0  0  0
 34 75  2  0  0  0  0
 35 58  1  0  0  0  0
 35 71  1  0  0  0  0
 35 76  2  0  0  0  0
 36 59  1  0  0  0  0
 36 69  1  0  0  0  0
 36 77  2  0  0  0  0
 37 63  1  0  0  0  0
 37 66  1  0  0  0  0
 37 78  2  0  0  0  0
 38 41  1  0  0  0  0
 39 48  1  0  0  0  0
 40 65  1  0  0  0  0
 41 43  1  0  0  0  0
 42 44  1  0  0  0  0
 42 45  1  0  0  0  0
 43 47  1  0  0  0  0
 44 49  1  0  0  0  0
 45 66  1  0  0  0  0
 46 49  1  0  0  0  0
 46 66  1  0  0  0  0
 47 70  1  0  0  0  0
 48 65  1  0  0  0  0
 49 64  1  0  0  0  0
 51 58  1  0  0  0  0
 52 59  1  0  0  0  0
 53 60  1  0  0  0  0
 54 60  1  0  0  0  0
 55 60  1  0  0  0  0
 56 72  1  0  0  0  0
 57 60  1  0  0  0  0
 57 71  1  0  0  0  0
 58 72  1  0  0  0  0
 59 80  1  0  0  0  0
 61 64  1  0  0  0  0
M  CHG  1  72   1
M  ISO  4  37 100  59 101  63 100  80 101
M  END
> <Batch ID>
0183

> <Smiles>
CNC(C)C(=O)NC(C(=O)N1Cc2cc([101O:1][101CH:1](C)C(=O)Nc3nc(C)c(C=[100N:0][100C:0](=O)N4CCCC(n5nc(-c6ccc(Oc7ccc(F)cc7F)cc6)c(C(N)=O)c5N)C4)s3)ccc2CC1C(=O)NC1CCCc2ccccc21)C(C)(C)C

> <Shape>
0.234

> <Color>
0.163

> <Negative vol penalty>
0.000

$$$$

  -OEChem-04052304593D

 86 94  0     1  0  0  0  0  0999 V2000
  -27.4244  -24.3524   17.0868 C   0  0  0  0  0  0  0  0  0  0  0  0
  -26.2442  -24.7251   17.7220 C   0  0  0  0  0  0  0  0  0  0  0  0
  -27.3563  -14.3379   19.6881 C   0  0  0  0  0  0  0  0  0  0  0  0
  -25.0061  -14.3937   19.1308 C   0  0  0  0  0  0  0  0  0  0  0  0
  -28.6542  -24.7125   17.6362 C   0  0  0  0  0  0  0  0  0  0  0  0
  -26.2930  -25.4573   18.9078 C   0  0  0  0  0  0  0  0  0  0  0  0
  -22.9945  -29.2995   18.9558 C   0  0  0  0  0  0  0  0  0  0  0  0
  -27.2245  -13.0155   20.1117 C   0  0  0  0  0  0  0  0  0  0  0  0
  -24.8743  -13.0712   19.5544 C   0  0  0  0  0  0  0  0  0  0  0  0
  -21.6594  -28.9893   19.2109 C   0  0  0  0  0  0  0  0  0  0  0  0
  -24.5993  -11.4101   22.4862 C   0  0  0  0  0  0  0  0  0  0  0  0
  -23.5045  -11.0932   23.2903 C   0  0  0  0  0  0  0  0  0  0  0  0
  -21.9411  -29.6881   21.5025 C   0  0  0  0  0  0  0  0  0  0  0  0
  -22.7446   -9.5094   21.6317 C   0  0  0  0  0  0  0  0  0  0  0  0
  -26.2471  -15.0270   19.1977 C   0  0  0  0  0  0  0  0  0  0  0  0
  -26.7002  -16.8438   17.4651 C   0  0  0  0  0  0  0  0  0  0  0  0
  -28.7180  -25.4578   18.8241 C   0  0  0  0  0  0  0  0  0  0  0  0
  -23.8173  -29.7969   19.9767 C   0  0  0  0  0  0  0  0  0  0  0  0
  -27.5249  -25.8266   19.4743 C   0  0  0  0  0  0  0  0  0  0  0  0
  -23.2857  -30.0062   21.2572 C   0  0  0  0  0  0  0  0  0  0  0  0
  -25.9835  -12.3822   20.0449 C   0  0  0  0  0  0  0  0  0  0  0  0
  -21.1333  -29.1809   20.4851 C   0  0  0  0  0  0  0  0  0  0  0  0
  -24.7667  -10.7766   21.2548 C   0  0  0  0  0  0  0  0  0  0  0  0
  -22.5771  -10.1429   22.8631 C   0  0  0  0  0  0  0  0  0  0  0  0
  -23.8394   -9.8263   20.8275 C   0  0  0  0  0  0  0  0  0  0  0  0
  -26.3825  -16.3933   18.7604 C   0  0  0  0  0  0  0  0  0  0  0  0
  -20.5169  -21.4569   19.9367 C   0  0  0  0  0  0  0  0  0  0  0  0
  -21.5894  -22.0716   20.5482 C   0  0  0  0  0  0  0  0  0  0  0  0
  -26.7069  -18.2132   17.5699 C   0  0  0  0  0  0  0  0  0  0  0  0
  -20.1025  -23.6619   20.8135 C   0  0  0  0  0  0  0  0  0  0  0  0
  -26.9653  -16.0916   16.2736 C   0  0  0  0  0  0  0  0  0  0  0  0
  -26.4669  -28.7882   21.4140 C   0  0  0  0  0  0  0  0  0  0  0  0
  -26.3252  -31.6914   22.8540 C   0  0  0  0  0  0  0  0  0  0  0  0
  -19.9742  -25.9655   21.8240 C   0  0  0  0  0  0  0  0  0  0  0  0
  -24.4218  -34.3481   23.8369 C   0  0  0  0  0  0  0  0  0  0  0  0
  -24.0000  -22.0370   21.2788 C   0  0  0  0  0  0  0  0  0  0  0  0
  -30.0713  -25.7831   19.4051 C   0  0  0  0  0  0  0  0  0  0  0  0
  -25.2482  -30.1517   19.6786 C   0  0  0  0  0  0  0  0  0  0  0  0
  -24.1216  -30.5568   22.3826 C   0  0  0  0  0  0  0  0  0  0  0  0
  -30.0311  -26.8811   20.4649 C   0  0  0  0  0  0  0  0  0  0  0  0
  -27.5038  -21.7233   20.7289 C   0  0  0  0  0  0  0  0  0  0  0  0
  -28.8980  -26.6271   21.4540 C   0  0  0  0  0  0  0  0  0  0  0  0
  -27.6421  -20.3646   20.0383 C   0  0  0  0  0  0  0  0  0  0  0  0
  -26.4088  -21.7092   21.7940 C   0  0  0  0  0  0  0  0  0  0  0  0
  -25.2373  -19.8742   20.6410 C   0  0  0  0  0  0  0  0  0  0  0  0
  -27.5364  -26.6424   20.7489 C   0  0  1  0  0  0  0  0  0  0  0  0
  -26.1314  -30.1678   20.9225 C   0  0  1  0  0  0  0  0  0  0  0  0
  -26.2840  -19.8575   19.5151 C   0  0  2  0  0  0  0  0  0  0  0  0
  -20.4134  -20.1285   19.2988 C   0  0  0  0  0  0  0  0  0  0  0  0
  -24.5806  -36.5526   25.0252 C   0  0  0  0  0  0  0  0  0  0  0  0
  -26.5023  -30.2341   25.5288 C   0  0  0  0  0  0  0  0  0  0  0  0
  -25.7113  -32.3312   26.6446 C   0  0  0  0  0  0  0  0  0  0  0  0
  -27.8663  -32.3255   25.3880 C   0  0  0  0  0  0  0  0  0  0  0  0
  -23.5027  -35.8336   21.4479 C   0  0  0  0  0  0  0  0  0  0  0  0
  -18.9149  -27.0502   21.9944 C   0  0  0  0  0  0  0  0  0  0  0  0
  -25.6864  -32.2314   24.1107 C   0  0  1  0  0  0  0  0  0  0  0  0
  -24.6234  -35.8445   23.6801 C   0  0  2  0  0  0  0  0  0  0  0  0
  -19.5057  -28.4585   22.0615 C   0  0  2  0  0  0  0  0  0  1  0  0
  -26.4261  -31.7683   25.3975 C   0  0  0  0  0  0  0  0  0  0  0  0
  -18.5208  -29.4488   22.6516 C   0  0  0  0  0  0  0  0  0  0  0  0
  -26.2008  -17.3953   19.6247 N   0  0  0  0  0  0  0  0  0  0  0  0
  -21.3538  -23.3362   21.0512 N   0  0  0  0  0  0  0  0  0  0  0  0
  -26.4050  -18.4890   18.8710 N   0  0  0  0  0  0  0  0  0  0  0  0
  -25.5166  -30.8826   22.0430 N   0  0  0  0  0  0  0  0  0  0  0  0
  -25.1504  -21.2218   21.2250 N   0  0  0  0  0  0  0  0  0  0  0  0
  -26.9417  -19.1964   16.6751 N   0  0  0  0  0  0  0  0  0  0  0  0
  -26.9167  -14.6926   16.3420 N   0  0  0  0  0  0  0  0  0  0  0  0
  -22.8713  -21.4818   20.6769 N   0  0  0  0  0  0  0  0  0  0  0  0
  -19.4415  -24.8649   21.1579 N   0  0  0  0  0  0  0  0  0  0  0  0
  -27.1199  -28.0027   20.4834 N   0  0  0  0  0  0  0  0  0  0  0  0
  -25.6229  -33.6797   23.9464 N   0  0  0  0  0  0  0  0  0  0  0  0
  -23.5597  -36.4221   22.8107 N   0  3  0  0  0  0  0  0  0  0  0  0
  -27.2535  -16.6434   15.1846 O   0  0  0  0  0  0  0  0  0  0  0  0
  -26.1576  -28.4610   22.5538 O   0  0  0  0  0  0  0  0  0  0  0  0
  -27.4961  -31.9825   22.5976 O   0  0  0  0  0  0  0  0  0  0  0  0
  -21.1203  -26.1004   22.2393 O   0  0  0  0  0  0  0  0  0  0  0  0
  -23.3100  -33.8249   23.8636 O   0  0  0  0  0  0  0  0  0  0  0  0
  -24.0221  -23.1573   21.7950 O   0  0  0  0  0  0  0  0  0  0  0  0
  -25.8545  -11.0917   20.4579 O   0  0  0  0  0  0  0  0  0  0  0  0
  -19.8306  -28.8783   20.7369 O   0  0  0  0  0  0  0  0  0  1  0  0
  -21.5267   -9.8376   23.6361 F   0  0  0  0  0  0  0  0  0  0  0  0
  -23.9955   -9.2135   19.6460 F   0  0  0  0  0  0  0  0  0  0  0  0
  -19.0348  -30.6987   22.6462 F   0  0  0  0  0  0  0  0  0  0  0  0
  -17.3639  -29.4746   21.9565 F   0  0  0  0  0  0  0  0  0  0  0  0
  -18.2272  -29.1376   23.9331 F   0  0  0  0  0  0  0  0  0  0  0  0
  -19.1523  -22.4944   19.9895 S   0  0  0  0  0  0  0  0  0  0  0  0
  1  2  1  0  0  0  0
  1  5  2  0  0  0  0
  2  6  2  0  0  0  0
  3  8  2  0  0  0  0
  3 15  1  0  0  0  0
  4  9  1  0  0  0  0
  4 15  2  0  0  0  0
  5 17  1  0  0  0  0
  6 19  1  0  0  0  0
  7 10  2  0  0  0  0
  7 18  1  0  0  0  0
  8 21  1  0  0  0  0
  9 21  2  0  0  0  0
 10 22  1  0  0  0  0
 11 12  2  0  0  0  0
 11 23  1  0  0  0  0
 12 24  1  0  0  0  0
 13 20  1  0  0  0  0
 13 22  2  0  0  0  0
 14 24  2  0  0  0  0
 14 25  1  0  0  0  0
 15 26  1  0  0  0  0
 16 26  1  0  0  0  0
 16 29  2  0  0  0  0
 16 31  1  0  0  0  0
 17 19  2  0  0  0  0
 17 37  1  0  0  0  0
 18 20  2  0  0  0  0
 18 38  1  0  0  0  0
 19 46  1  0  0  0  0
 20 39  1  0  0  0  0
 21 79  1  0  0  0  0
 22 80  1  0  0  0  0
 23 25  2  0  0  0  0
 23 79  1  0  0  0  0
 24 81  1  0  0  0  0
 25 82  1  0  0  0  0
 26 61  2  0  0  0  0
 27 28  2  0  0  0  0
 27 49  1  0  0  0  0
 27 86  1  0  0  0  0
 28 62  1  0  0  0  0
 28 68  1  0  0  0  0
 29 63  1  0  0  0  0
 29 66  1  0  0  0  0
 30 62  2  0  0  0  0
 30 69  1  0  0  0  0
 30 86  1  0  0  0  0
 31 67  1  0  0  0  0
 31 73  2  0  0  0  0
 32 47  1  0  0  0  0
 32 70  1  0  0  0  0
 32 74  2  0  0  0  0
 33 56  1  0  0  0  0
 33 64  1  0  0  0  0
 33 75  2  0  0  0  0
 34 55  1  0  0  0  0
 34 69  1  0  0  0  0
 34 76  2  0  0  0  0
 35 57  1  0  0  0  0
 35 71  1  0  0  0  0
 35 77  2  0  0  0  0
 36 65  1  0  0  0  0
 36 68  1  0  0  0  0
 36 78  2  0  0  0  0
 37 40  1  0  0  0  0
 38 47  1  0  0  0  0
 39 64  1  0  0  0  0
 40 42  1  0  0  0  0
 41 43  1  0  0  0  0
 41 44  1  0  0  0  0
 42 46  1  0  0  0  0
 43 48  1  0  0  0  0
 44 65  1  0  0  0  0
 45 48  1  0  0  0  0
 45 65  1  0  0  0  0
 46 70  1  0  0  0  0
 47 64  1  0  0  0  0
 48 63  1  0  0  0  0
 50 57  1  0  0  0  0
 51 59  1  0  0  0  0
 52 59  1  0  0  0  0
 53 59  1  0  0  0  0
 54 72  1  0  0  0  0
 55 58  1  0  0  0  0
 56 59  1  0  0  0  0
 56 71  1  0  0  0  0
 57 72  1  0  0  0  0
 58 60  1  0  0  0  0
 58 80  1  0  0  0  0
 60 83  1  0  0  0  0
 60 84  1  0  0  0  0
 60 85  1  0  0  0  0
 61 63  1  0  0  0  0
M  CHG  1  72   1
M  ISO  4  36 100  58 101  68 100  80 101
M  END
> <Batch ID>
0183

> <Smiles>
CNC(C)C(=O)NC(C(=O)N1Cc2cc([101O:1][101CH:1](CC(=O)Nc3nc([100NH:0][100C:0](=O)N4CCCC(n5nc(-c6ccc(Oc7ccc(F)cc7F)cc6)c(C(N)=O)c5N)C4)c(C)s3)C(F)(F)F)ccc2CC1C(=O)NC1CCCc2ccccc21)C(C)(C)C

> <Shape>
0.298

> <Color>
0.067

> <Negative vol penalty>
0.000

$$$$

  -OEChem-04052304593D

 85 93  0     1  0  0  0  0  0999 V2000
  -24.2030   -7.9767   21.0542 C   0  0  0  0  0  0  0  0  0  0  0  0
  -24.7623   -9.1681   20.6034 C   0  0  0  0  0  0  0  0  0  0  0  0
  -20.1242  -27.7073   23.7010 C   0  0  0  0  0  0  0  0  0  0  0  0
  -20.2093  -27.9626   21.3001 C   0  0  0  0  0  0  0  0  0  0  0  0
  -22.8711   -7.9449   21.4653 C   0  0  0  0  0  0  0  0  0  0  0  0
  -23.9897  -10.3282   20.5624 C   0  0  0  0  0  0  0  0  0  0  0  0
  -26.4445  -14.3627   22.3905 C   0  0  0  0  0  0  0  0  0  0  0  0
  -18.9017  -28.3783   23.7291 C   0  0  0  0  0  0  0  0  0  0  0  0
  -18.9868  -28.6336   21.3281 C   0  0  0  0  0  0  0  0  0  0  0  0
  -27.3842  -14.9677   21.5570 C   0  0  0  0  0  0  0  0  0  0  0  0
  -17.8110  -31.5740   23.5808 C   0  0  0  0  0  0  0  0  0  0  0  0
  -17.6328  -32.5542   24.5571 C   0  0  0  0  0  0  0  0  0  0  0  0
  -25.7728  -16.6695   20.9856 C   0  0  0  0  0  0  0  0  0  0  0  0
  -15.7551  -31.3235   25.4499 C   0  0  0  0  0  0  0  0  0  0  0  0
  -28.9093  -23.6715   18.7487 C   0  0  0  0  0  0  0  0  0  0  0  0
  -31.0970  -23.9359   18.7757 C   0  0  0  0  0  0  0  0  0  0  0  0
  -20.7780  -27.4994   22.4865 C   0  0  0  0  0  0  0  0  0  0  0  0
  -22.2480  -25.4214   22.3168 C   0  0  0  0  0  0  0  0  0  0  0  0
  -22.0845   -9.1073   21.4385 C   0  0  0  0  0  0  0  0  0  0  0  0
  -25.1562  -14.9013   22.5195 C   0  0  0  0  0  0  0  0  0  0  0  0
  -22.6457  -10.3116   20.9723 C   0  0  0  0  0  0  0  0  0  0  0  0
  -24.8194  -16.0709   21.8233 C   0  0  0  0  0  0  0  0  0  0  0  0
  -18.3330  -28.8414   22.5426 C   0  0  0  0  0  0  0  0  0  0  0  0
  -27.0475  -16.1197   20.8522 C   0  0  0  0  0  0  0  0  0  0  0  0
  -16.9612  -30.4687   23.5390 C   0  0  0  0  0  0  0  0  0  0  0  0
  -16.6049  -32.4289   25.4917 C   0  0  0  0  0  0  0  0  0  0  0  0
  -15.9333  -30.3434   24.4735 C   0  0  0  0  0  0  0  0  0  0  0  0
  -22.0412  -26.8068   22.4570 C   0  0  0  0  0  0  0  0  0  0  0  0
  -29.2710  -24.7996   19.4466 C   0  0  0  0  0  0  0  0  0  0  0  0
  -23.6130  -25.2731   22.3485 C   0  0  0  0  0  0  0  0  0  0  0  0
  -29.2316  -19.9468   18.7368 C   0  0  0  0  0  0  0  0  0  0  0  0
  -21.2916  -24.3632   22.1708 C   0  0  0  0  0  0  0  0  0  0  0  0
  -30.3347  -20.6231   18.3706 C   0  0  0  0  0  0  0  0  0  0  0  0
  -29.2298  -18.7196   19.5872 C   0  0  0  0  0  0  0  0  0  0  0  0
  -22.2184  -13.8665   21.8851 C   0  0  0  0  0  0  0  0  0  0  0  0
  -21.3503  -16.6375   23.3308 C   0  0  0  0  0  0  0  0  0  0  0  0
  -22.1830  -19.8247   24.2224 C   0  0  0  0  0  0  0  0  0  0  0  0
  -28.7218  -26.8536   20.7979 C   0  0  0  0  0  0  0  0  0  0  0  0
  -20.6361   -9.0134   21.8482 C   0  0  0  0  0  0  0  0  0  0  0  0
  -24.1626  -14.2518   23.4433 C   0  0  0  0  0  0  0  0  0  0  0  0
  -23.4563  -16.7003   21.9430 C   0  0  0  0  0  0  0  0  0  0  0  0
  -19.9929  -10.3693   22.1273 C   0  0  0  0  0  0  0  0  0  0  0  0
  -27.2580  -28.5733   23.5505 C   0  0  0  0  0  0  0  0  0  0  0  0
  -20.3340  -11.3603   21.0190 C   0  0  0  0  0  0  0  0  0  0  0  0
  -25.7873  -28.1531   23.4998 C   0  0  0  0  0  0  0  0  0  0  0  0
  -27.8472  -28.7451   22.1516 C   0  0  0  0  0  0  0  0  0  0  0  0
  -26.2027  -27.1719   21.2082 C   0  0  0  0  0  0  0  0  0  0  0  0
  -21.8469  -11.5964   20.9365 C   0  0  1  0  0  0  0  0  0  0  0  0
  -22.7159  -14.5950   23.1014 C   0  0  1  0  0  0  0  0  0  0  0  0
  -25.5834  -26.9234   22.5932 C   0  0  2  0  0  0  0  0  0  0  0  0
  -21.9525  -22.0731   25.3129 C   0  0  0  0  0  0  0  0  0  0  0  0
  -19.6955  -17.2693   20.8464 C   0  0  0  0  0  0  0  0  0  0  0  0
  -19.5788  -19.6493   21.6146 C   0  0  0  0  0  0  0  0  0  0  0  0
  -18.5837  -17.8390   23.0129 C   0  0  0  0  0  0  0  0  0  0  0  0
  -23.4152  -18.8615   26.7350 C   0  0  0  0  0  0  0  0  0  0  0  0
  -32.2261  -19.3950   17.8303 C   0  0  0  0  0  0  0  0  0  0  0  0
  -27.8658  -18.1259   19.8718 C   0  0  0  0  0  0  0  0  0  1  0  0
  -30.2531  -21.8625   17.5087 C   0  0  2  0  0  0  0  0  0  0  0  0
  -21.0988  -18.0520   22.8673 C   0  0  1  0  0  0  0  0  0  0  0  0
  -22.0448  -20.5717   25.5367 C   0  0  2  0  0  0  0  0  0  0  0  0
  -19.7643  -18.1897   22.0813 C   0  0  0  0  0  0  0  0  0  0  0  0
  -30.6341  -24.9587   19.4595 N   0  0  0  0  0  0  0  0  0  0  0  0
  -23.1835  -27.4899   22.5696 N   0  0  0  0  0  0  0  0  0  0  0  0
  -30.0895  -23.1291   18.3246 N   0  0  0  0  0  0  0  0  0  0  0  0
  -24.1211  -26.5296   22.5003 N   0  0  0  0  0  0  0  0  0  0  0  0
  -22.5176  -16.0245   22.8538 N   0  0  0  0  0  0  0  0  0  0  0  0
  -27.6201  -27.5397   21.3513 N   0  0  0  0  0  0  0  0  0  0  0  0
  -24.4163  -24.1916   22.2613 N   0  0  0  0  0  0  0  0  0  0  0  0
  -19.9290  -24.6912   22.1581 N   0  0  0  0  0  0  0  0  0  0  0  0
  -28.3856  -25.7037   20.0842 N   0  0  0  0  0  0  0  0  0  0  0  0
  -22.2772  -12.4899   21.9906 N   0  0  0  0  0  0  0  0  0  0  0  0
  -21.1809  -18.8922   24.0572 N   0  0  0  0  0  0  0  0  0  0  0  0
  -23.2183  -20.2985   26.4137 N   0  3  0  0  0  0  0  0  0  0  0  0
  -21.6346  -23.1607   22.0715 O   0  0  0  0  0  0  0  0  0  0  0  0
  -30.2644  -18.2255   20.0257 O   0  0  0  0  0  0  0  0  0  0  0  0
  -21.8100  -14.5059   20.9228 O   0  0  0  0  0  0  0  0  0  0  0  0
  -20.5445  -16.0989   24.0939 O   0  0  0  0  0  0  0  0  0  0  0  0
  -23.0872  -20.0489   23.4208 O   0  0  0  0  0  0  0  0  0  0  0  0
  -29.8804  -27.2414   20.9690 O   0  0  0  0  0  0  0  0  0  0  0  0
  -29.1761  -21.7348   16.5776 O   0  0  0  0  0  0  0  0  0  0  0  0
  -17.1399  -29.4961   22.5696 O   0  0  0  0  0  0  0  0  0  0  0  0
  -27.9627  -16.7119   20.0375 O   0  0  0  0  0  0  0  0  0  1  0  0
  -31.6183  -20.2760   18.7430 O   0  0  0  0  0  0  0  0  0  0  0  0
  -16.4348  -33.3694   26.4301 F   0  0  0  0  0  0  0  0  0  0  0  0
  -15.1145  -29.2831   24.4391 F   0  0  0  0  0  0  0  0  0  0  0  0
  1  2  1  0  0  0  0
  1  5  2  0  0  0  0
  2  6  2  0  0  0  0
  3  8  2  0  0  0  0
  3 17  1  0  0  0  0
  4  9  1  0  0  0  0
  4 17  2  0  0  0  0
  5 19  1  0  0  0  0
  6 21  1  0  0  0  0
  7 10  2  0  0  0  0
  7 20  1  0  0  0  0
  8 23  1  0  0  0  0
  9 23  2  0  0  0  0
 10 24  1  0  0  0  0
 11 12  2  0  0  0  0
 11 25  1  0  0  0  0
 12 26  1  0  0  0  0
 13 22  1  0  0  0  0
 13 24  2  0  0  0  0
 14 26  2  0  0  0  0
 14 27  1  0  0  0  0
 15 29  2  0  0  0  0
 15 64  1  0  0  0  0
 16 62  2  0  0  0  0
 16 64  1  0  0  0  0
 17 28  1  0  0  0  0
 18 28  1  0  0  0  0
 18 30  2  0  0  0  0
 18 32  1  0  0  0  0
 19 21  2  0  0  0  0
 19 39  1  0  0  0  0
 20 22  2  0  0  0  0
 20 40  1  0  0  0  0
 21 48  1  0  0  0  0
 22 41  1  0  0  0  0
 23 81  1  0  0  0  0
 24 82  1  0  0  0  0
 25 27  2  0  0  0  0
 25 81  1  0  0  0  0
 26 84  1  0  0  0  0
 27 85  1  0  0  0  0
 28 63  2  0  0  0  0
 29 62  1  0  0  0  0
 29 70  1  0  0  0  0
 30 65  1  0  0  0  0
 30 68  1  0  0  0  0
 31 33  2  0  0  0  0
 31 34  1  0  0  0  0
 32 69  1  0  0  0  0
 32 74  2  0  0  0  0
 33 58  1  0  0  0  0
 33 83  1  0  0  0  0
 34 57  1  0  0  0  0
 34 75  2  0  0  0  0
 35 49  1  0  0  0  0
 35 71  1  0  0  0  0
 35 76  2  0  0  0  0
 36 59  1  0  0  0  0
 36 66  1  0  0  0  0
 36 77  2  0  0  0  0
 37 60  1  0  0  0  0
 37 72  1  0  0  0  0
 37 78  2  0  0  0  0
 38 67  1  0  0  0  0
 38 70  1  0  0  0  0
 38 79  2  0  0  0  0
 39 42  1  0  0  0  0
 40 49  1  0  0  0  0
 41 66  1  0  0  0  0
 42 44  1  0  0  0  0
 43 45  1  0  0  0  0
 43 46  1  0  0  0  0
 44 48  1  0  0  0  0
 45 50  1  0  0  0  0
 46 67  1  0  0  0  0
 47 50  1  0  0  0  0
 47 67  1  0  0  0  0
 48 71  1  0  0  0  0
 49 66  1  0  0  0  0
 50 65  1  0  0  0  0
 51 60  1  0  0  0  0
 52 61  1  0  0  0  0
 53 61  1  0  0  0  0
 54 61  1  0  0  0  0
 55 73  1  0  0  0  0
 56 83  1  0  0  0  0
 57 82  1  0  0  0  0
 58 64  1  0  0  0  0
 58 80  1  0  0  0  0
 59 61  1  0  0  0  0
 59 72  1  0  0  0  0
 60 73  1  0  0  0  0
 63 65  1  0  0  0  0
M  CHG  1  73   1
M  ISO  4  38 100  57 101  70 100  82 101
M  END
> <Batch ID>
0183

> <Smiles>
CNC(C)C(=O)NC(C(=O)N1Cc2cc([101O:1][101CH2:1]C(=O)CC(OC)C(=O)n3cnc([100NH:0][100C:0](=O)N4CCCC(n5nc(-c6ccc(Oc7ccc(F)cc7F)cc6)c(C(N)=O)c5N)C4)c3)ccc2CC1C(=O)NC1CCCc2ccccc21)C(C)(C)C

> <Shape>
0.206

> <Color>
0.089

> <Negative vol penalty>
0.000

$$$$

  -OEChem-04052304593D

 86 94  0     1  0  0  0  0  0999 V2000
  -17.3672  -32.5020   21.9500 C   0  0  0  0  0  0  0  0  0  0  0  0
  -18.5088  -32.5470   21.1561 C   0  0  0  0  0  0  0  0  0  0  0  0
  -26.5213  -12.5117   21.5616 C   0  0  0  0  0  0  0  0  0  0  0  0
  -25.7011  -13.7998   19.6894 C   0  0  0  0  0  0  0  0  0  0  0  0
  -17.3871  -31.8076   23.1589 C   0  0  0  0  0  0  0  0  0  0  0  0
  -19.6713  -31.8985   21.5713 C   0  0  0  0  0  0  0  0  0  0  0  0
  -25.3622  -28.4215   18.9557 C   0  0  0  0  0  0  0  0  0  0  0  0
  -25.2736  -11.9011   21.6881 C   0  0  0  0  0  0  0  0  0  0  0  0
  -24.4534  -13.1892   19.8159 C   0  0  0  0  0  0  0  0  0  0  0  0
  -26.7545  -28.4279   19.0267 C   0  0  0  0  0  0  0  0  0  0  0  0
  -22.4107   -9.7393   22.2760 C   0  0  0  0  0  0  0  0  0  0  0  0
  -22.3811   -8.3579   22.4668 C   0  0  0  0  0  0  0  0  0  0  0  0
  -26.6485  -27.1927   21.0961 C   0  0  0  0  0  0  0  0  0  0  0  0
  -23.5159   -8.0423   20.3573 C   0  0  0  0  0  0  0  0  0  0  0  0
  -26.7351  -13.4611   20.5623 C   0  0  0  0  0  0  0  0  0  0  0  0
  -29.1106  -13.6530   19.6524 C   0  0  0  0  0  0  0  0  0  0  0  0
  -18.5476  -31.1422   23.5844 C   0  0  0  0  0  0  0  0  0  0  0  0
  -24.6009  -27.8091   19.9616 C   0  0  0  0  0  0  0  0  0  0  0  0
  -19.7072  -31.1957   22.7876 C   0  0  0  0  0  0  0  0  0  0  0  0
  -25.2467  -27.1777   21.0341 C   0  0  0  0  0  0  0  0  0  0  0  0
  -24.2397  -12.2398   20.8152 C   0  0  0  0  0  0  0  0  0  0  0  0
  -27.3978  -27.8159   20.0985 C   0  0  0  0  0  0  0  0  0  0  0  0
  -22.9928  -10.2723   21.1258 C   0  0  0  0  0  0  0  0  0  0  0  0
  -22.9337   -7.5094   21.5075 C   0  0  0  0  0  0  0  0  0  0  0  0
  -23.5455   -9.4237   20.1665 C   0  0  0  0  0  0  0  0  0  0  0  0
  -28.0235  -14.0927   20.4314 C   0  0  0  0  0  0  0  0  0  0  0  0
  -28.5587  -23.0176   17.5942 C   0  0  0  0  0  0  0  0  0  0  0  0
  -29.3236  -23.5992   18.5836 C   0  0  0  0  0  0  0  0  0  0  0  0
  -30.0897  -14.5918   19.8683 C   0  0  0  0  0  0  0  0  0  0  0  0
  -29.1605  -21.5844   19.4345 C   0  0  0  0  0  0  0  0  0  0  0  0
  -29.2251  -12.4992   18.8090 C   0  0  0  0  0  0  0  0  0  0  0  0
  -22.4364  -28.8130   22.0618 C   0  0  0  0  0  0  0  0  0  0  0  0
  -22.1706  -25.6466   22.7138 C   0  0  0  0  0  0  0  0  0  0  0  0
  -30.5267  -25.6101   19.5088 C   0  0  0  0  0  0  0  0  0  0  0  0
  -23.6006  -22.5483   22.6642 C   0  0  0  0  0  0  0  0  0  0  0  0
  -29.9456  -20.3435   21.4814 C   0  0  0  0  0  0  0  0  0  0  0  0
  -18.5353  -30.4443   24.9214 C   0  0  0  0  0  0  0  0  0  0  0  0
  -23.1006  -27.7876   19.8565 C   0  0  0  0  0  0  0  0  0  0  0  0
  -24.4759  -26.4887   22.1294 C   0  0  0  0  0  0  0  0  0  0  0  0
  -19.6948  -29.4697   25.1104 C   0  0  0  0  0  0  0  0  0  0  0  0
  -31.6345  -17.7008   23.1670 C   0  0  0  0  0  0  0  0  0  0  0  0
  -21.0089  -30.1134   24.6797 C   0  0  0  0  0  0  0  0  0  0  0  0
  -31.0034  -16.4356   22.5814 C   0  0  0  0  0  0  0  0  0  0  0  0
  -30.6100  -18.8222   23.3305 C   0  0  0  0  0  0  0  0  0  0  0  0
  -29.2122  -17.8788   21.5346 C   0  0  0  0  0  0  0  0  0  0  0  0
  -20.9801  -30.4841   23.1920 C   0  0  1  0  0  0  0  0  0  0  0  0
  -22.4103  -27.5816   21.2013 C   0  0  1  0  0  0  0  0  0  0  0  0
  -30.2188  -16.7426   21.2908 C   0  0  2  0  0  0  0  0  0  0  0  0
  -28.0182  -23.5895   16.3441 C   0  0  0  0  0  0  0  0  0  0  0  0
  -23.1536  -20.1619   23.2988 C   0  0  0  0  0  0  0  0  0  0  0  0
  -22.6626  -26.3365   25.6450 C   0  0  0  0  0  0  0  0  0  0  0  0
  -23.1481  -23.9159   26.0610 C   0  0  0  0  0  0  0  0  0  0  0  0
  -20.8905  -24.6139   25.2620 C   0  0  0  0  0  0  0  0  0  0  0  0
  -23.8606  -21.6327   19.8618 C   0  0  0  0  0  0  0  0  0  0  0  0
  -29.4726  -27.8389   18.9364 C   0  0  0  0  0  0  0  0  0  1  0  0
  -22.8488  -24.6902   23.6648 C   0  0  1  0  0  0  0  0  0  0  0  0
  -30.7858  -27.0685   19.1025 C   0  0  1  0  0  0  0  0  0  0  0  0
  -23.0754  -21.2039   22.1938 C   0  0  2  0  0  0  0  0  0  0  0  0
  -22.4023  -24.9037   25.1387 C   0  0  0  0  0  0  0  0  0  0  0  0
  -31.6704  -27.7403   20.1439 C   0  0  0  0  0  0  0  0  0  0  0  0
  -28.2869  -15.2227   21.0930 N   0  0  0  0  0  0  0  0  0  0  0  0
  -29.6693  -22.7790   19.6398 N   0  0  0  0  0  0  0  0  0  0  0  0
  -29.5507  -15.5010   20.7302 N   0  0  0  0  0  0  0  0  0  0  0  0
  -23.0108  -26.5002   21.9850 N   0  0  0  0  0  0  0  0  0  0  0  0
  -29.9089  -19.0603   22.0670 N   0  0  0  0  0  0  0  0  0  0  0  0
  -31.3505  -14.7198   19.4032 N   0  0  0  0  0  0  0  0  0  0  0  0
  -28.1239  -11.6390   18.7005 N   0  0  0  0  0  0  0  0  0  0  0  0
  -29.7521  -24.9476   18.5609 N   0  0  0  0  0  0  0  0  0  0  0  0
  -29.2707  -20.4417   20.2651 N   0  0  0  0  0  0  0  0  0  0  0  0
  -21.1846  -29.3079   22.3740 N   0  0  0  0  0  0  0  0  0  0  0  0
  -22.5895  -23.3500   23.1500 N   0  0  0  0  0  0  0  0  0  0  0  0
  -23.8691  -20.7159   21.0307 N   0  3  0  0  0  0  0  0  0  0  0  0
  -30.2784  -12.2300   18.1833 O   0  0  0  0  0  0  0  0  0  0  0  0
  -23.5126  -29.2788   22.4175 O   0  0  0  0  0  0  0  0  0  0  0  0
  -20.9410  -25.6317   22.6158 O   0  0  0  0  0  0  0  0  0  0  0  0
  -30.9832  -25.1398   20.5470 O   0  0  0  0  0  0  0  0  0  0  0  0
  -24.7895  -22.8550   22.6097 O   0  0  0  0  0  0  0  0  0  0  0  0
  -30.5554  -21.2789   22.0059 O   0  0  0  0  0  0  0  0  0  0  0  0
  -23.0221  -11.6440   20.9382 O   0  0  0  0  0  0  0  0  0  0  0  0
  -28.7568  -27.8213   20.1707 O   0  0  0  0  0  0  0  0  0  1  0  0
  -22.9066   -6.1829   21.6916 F   0  0  0  0  0  0  0  0  0  0  0  0
  -24.1072   -9.9299   19.0601 F   0  0  0  0  0  0  0  0  0  0  0  0
  -31.9628  -29.0134   19.8003 F   0  0  0  0  0  0  0  0  0  0  0  0
  -32.8398  -27.0750   20.2829 F   0  0  0  0  0  0  0  0  0  0  0  0
  -31.0813  -27.7648   21.3593 F   0  0  0  0  0  0  0  0  0  0  0  0
  -28.2556  -21.3769   17.9912 S   0  0  0  0  0  0  0  0  0  0  0  0
  1  2  1  0  0  0  0
  1  5  2  0  0  0  0
  2  6  2  0  0  0  0
  3  8  2  0  0  0  0
  3 15  1  0  0  0  0
  4  9  1  0  0  0  0
  4 15  2  0  0  0  0
  5 17  1  0  0  0  0
  6 19  1  0  0  0  0
  7 10  2  0  0  0  0
  7 18  1  0  0  0  0
  8 21  1  0  0  0  0
  9 21  2  0  0  0  0
 10 22  1  0  0  0  0
 11 12  2  0  0  0  0
 11 23  1  0  0  0  0
 12 24  1  0  0  0  0
 13 20  1  0  0  0  0
 13 22  2  0  0  0  0
 14 24  2  0  0  0  0
 14 25  1  0  0  0  0
 15 26  1  0  0  0  0
 16 26  1  0  0  0  0
 16 29  2  0  0  0  0
 16 31  1  0  0  0  0
 17 19  2  0  0  0  0
 17 37  1  0  0  0  0
 18 20  2  0  0  0  0
 18 38  1  0  0  0  0
 19 46  1  0  0  0  0
 20 39  1  0  0  0  0
 21 79  1  0  0  0  0
 22 80  1  0  0  0  0
 23 25  2  0  0  0  0
 23 79  1  0  0  0  0
 24 81  1  0  0  0  0
 25 82  1  0  0  0  0
 26 61  2  0  0  0  0
 27 28  2  0  0  0  0
 27 49  1  0  0  0  0
 27 86  1  0  0  0  0
 28 62  1  0  0  0  0
 28 68  1  0  0  0  0
 29 63  1  0  0  0  0
 29 66  1  0  0  0  0
 30 62  2  0  0  0  0
 30 69  1  0  0  0  0
 30 86  1  0  0  0  0
 31 67  1  0  0  0  0
 31 73  2  0  0  0  0
 32 47  1  0  0  0  0
 32 70  1  0  0  0  0
 32 74  2  0  0  0  0
 33 56  1  0  0  0  0
 33 64  1  0  0  0  0
 33 75  2  0  0  0  0
 34 57  1  0  0  0  0
 34 68  1  0  0  0  0
 34 76  2  0  0  0  0
 35 58  1  0  0  0  0
 35 71  1  0  0  0  0
 35 77  2  0  0  0  0
 36 65  1  0  0  0  0
 36 69  1  0  0  0  0
 36 78  2  0  0  0  0
 37 40  1  0  0  0  0
 38 47  1  0  0  0  0
 39 64  1  0  0  0  0
 40 42  1  0  0  0  0
 41 43  1  0  0  0  0
 41 44  1  0  0  0  0
 42 46  1  0  0  0  0
 43 48  1  0  0  0  0
 44 65  1  0  0  0  0
 45 48  1  0  0  0  0
 45 65  1  0  0  0  0
 46 70  1  0  0  0  0
 47 64  1  0  0  0  0
 48 63  1  0  0  0  0
 50 58  1  0  0  0  0
 51 59  1  0  0  0  0
 52 59  1  0  0  0  0
 53 59  1  0  0  0  0
 54 72  1  0  0  0  0
 55 57  1  0  0  0  0
 55 80  1  0  0  0  0
 56 59  1  0  0  0  0
 56 71  1  0  0  0  0
 57 60  1  0  0  0  0
 58 72  1  0  0  0  0
 60 83  1  0  0  0  0
 60 84  1  0  0  0  0
 60 85  1  0  0  0  0
 61 63  1  0  0  0  0
M  CHG  1  72   1
M  ISO  4  36 100  55 101  69 100  80 101
M  END
> <Batch ID>
0183

> <Smiles>
CNC(C)C(=O)NC(C(=O)N1Cc2cc([101O:1][101CH2:1]C(C(=O)Nc3nc([100NH:0][100C:0](=O)N4CCCC(n5nc(-c6ccc(Oc7ccc(F)cc7F)cc6)c(C(N)=O)c5N)C4)sc3C)C(F)(F)F)ccc2CC1C(=O)NC1CCCc2ccccc21)C(C)(C)C

> <Shape>
0.295

> <Color>
0.103

> <Negative vol penalty>
0.000

$$$$

  -OEChem-04052304593D

 86 94  0     1  0  0  0  0  0999 V2000
  -17.9525  -22.2949   24.4853 C   0  0  0  0  0  0  0  0  0  0  0  0
  -19.3220  -22.0652   24.5691 C   0  0  0  0  0  0  0  0  0  0  0  0
  -24.3467  -13.7527   21.9955 C   0  0  0  0  0  0  0  0  0  0  0  0
  -26.2380  -13.7691   20.4922 C   0  0  0  0  0  0  0  0  0  0  0  0
  -17.4595  -23.2447   23.5915 C   0  0  0  0  0  0  0  0  0  0  0  0
  -20.1994  -22.7844   23.7584 C   0  0  0  0  0  0  0  0  0  0  0  0
  -26.8083  -25.5482   23.7603 C   0  0  0  0  0  0  0  0  0  0  0  0
  -23.8440  -12.6227   21.3507 C   0  0  0  0  0  0  0  0  0  0  0  0
  -25.7353  -12.6390   19.8474 C   0  0  0  0  0  0  0  0  0  0  0  0
  -27.9750  -25.5505   22.9971 C   0  0  0  0  0  0  0  0  0  0  0  0
  -24.4343   -9.2934   21.3370 C   0  0  0  0  0  0  0  0  0  0  0  0
  -23.9619   -8.2495   22.1325 C   0  0  0  0  0  0  0  0  0  0  0  0
  -27.0158  -27.2225   21.5468 C   0  0  0  0  0  0  0  0  0  0  0  0
  -21.7760   -8.4732   21.1281 C   0  0  0  0  0  0  0  0  0  0  0  0
  -25.5437  -14.3260   21.5662 C   0  0  0  0  0  0  0  0  0  0  0  0
  -26.9390  -15.5253   23.3333 C   0  0  0  0  0  0  0  0  0  0  0  0
  -18.3320  -23.9828   22.7763 C   0  0  0  0  0  0  0  0  0  0  0  0
  -25.7306  -26.3765   23.4155 C   0  0  0  0  0  0  0  0  0  0  0  0
  -19.7176  -23.7440   22.8519 C   0  0  0  0  0  0  0  0  0  0  0  0
  -25.8375  -27.2307   22.3087 C   0  0  0  0  0  0  0  0  0  0  0  0
  -24.5382  -12.0658   20.2767 C   0  0  0  0  0  0  0  0  0  0  0  0
  -28.0779  -26.3856   21.8884 C   0  0  0  0  0  0  0  0  0  0  0  0
  -23.5775   -9.9272   20.4371 C   0  0  0  0  0  0  0  0  0  0  0  0
  -22.6328   -7.8394   22.0280 C   0  0  0  0  0  0  0  0  0  0  0  0
  -22.2484   -9.5171   20.3326 C   0  0  0  0  0  0  0  0  0  0  0  0
  -26.0633  -15.4937   22.2315 C   0  0  0  0  0  0  0  0  0  0  0  0
  -30.7437  -21.9571   17.3016 C   0  0  0  0  0  0  0  0  0  0  0  0
  -30.0740  -23.1192   17.6225 C   0  0  0  0  0  0  0  0  0  0  0  0
  -27.1276  -16.8625   23.5838 C   0  0  0  0  0  0  0  0  0  0  0  0
  -28.8069  -21.6973   18.7101 C   0  0  0  0  0  0  0  0  0  0  0  0
  -27.5293  -14.4427   24.0649 C   0  0  0  0  0  0  0  0  0  0  0  0
  -22.7129  -25.8857   22.5457 C   0  0  0  0  0  0  0  0  0  0  0  0
  -30.1403  -25.9716   18.9409 C   0  0  0  0  0  0  0  0  0  0  0  0
  -22.5397  -29.1190   22.7414 C   0  0  0  0  0  0  0  0  0  0  0  0
  -24.1667  -32.1178   22.6592 C   0  0  0  0  0  0  0  0  0  0  0  0
  -26.7510  -21.7489   20.1651 C   0  0  0  0  0  0  0  0  0  0  0  0
  -17.7489  -24.9652   21.7917 C   0  0  0  0  0  0  0  0  0  0  0  0
  -24.4892  -26.3818   24.2647 C   0  0  0  0  0  0  0  0  0  0  0  0
  -24.7168  -28.1539   21.9083 C   0  0  0  0  0  0  0  0  0  0  0  0
  -18.7733  -25.9511   21.2357 C   0  0  0  0  0  0  0  0  0  0  0  0
  -24.9340  -21.0981   23.1571 C   0  0  0  0  0  0  0  0  0  0  0  0
  -20.0427  -25.2194   20.8114 C   0  0  0  0  0  0  0  0  0  0  0  0
  -25.1022  -19.5910   23.3629 C   0  0  0  0  0  0  0  0  0  0  0  0
  -24.8015  -21.4573   21.6782 C   0  0  0  0  0  0  0  0  0  0  0  0
  -26.0379  -19.4305   21.0208 C   0  0  0  0  0  0  0  0  0  0  0  0
  -20.7030  -24.5218   22.0068 C   0  0  1  0  0  0  0  0  0  0  0  0
  -23.2584  -26.8906   23.5206 C   0  0  1  0  0  0  0  0  0  0  0  0
  -26.2404  -19.0266   22.4903 C   0  0  2  0  0  0  0  0  0  0  0  0
  -31.9502  -21.7454   16.4755 C   0  0  0  0  0  0  0  0  0  0  0  0
  -23.7529  -34.5883   22.8104 C   0  0  0  0  0  0  0  0  0  0  0  0
  -21.4459  -29.1077   19.8930 C   0  0  0  0  0  0  0  0  0  0  0  0
  -21.9486  -31.5570   19.7645 C   0  0  0  0  0  0  0  0  0  0  0  0
  -20.3079  -30.7085   21.4411 C   0  0  0  0  0  0  0  0  0  0  0  0
  -25.8735  -32.3740   25.0633 C   0  0  0  0  0  0  0  0  0  0  0  0
  -29.0799  -26.6932   19.7537 C   0  0  0  0  0  0  0  0  0  1  0  0
  -29.7567  -25.5918   17.5172 C   0  0  1  0  0  0  0  0  0  0  0  0
  -22.7728  -30.2620   21.7832 C   0  0  1  0  0  0  0  0  0  0  0  0
  -24.1034  -33.3237   23.5790 C   0  0  2  0  0  0  0  0  0  0  0  0
  -21.6393  -30.3901   20.7266 C   0  0  0  0  0  0  0  0  0  0  0  0
  -30.0960  -26.6748   16.5122 C   0  0  0  0  0  0  0  0  0  0  0  0
  -25.7192  -16.7140   21.8112 N   0  0  0  0  0  0  0  0  0  0  0  0
  -28.9628  -22.9722   18.4297 N   0  0  0  0  0  0  0  0  0  0  0  0
  -26.3821  -17.5248   22.6533 N   0  0  0  0  0  0  0  0  0  0  0  0
  -23.5211  -28.1180   22.7665 N   0  0  0  0  0  0  0  0  0  0  0  0
  -25.9166  -20.8929   20.9148 N   0  0  0  0  0  0  0  0  0  0  0  0
  -27.8566  -17.5247   24.5071 N   0  0  0  0  0  0  0  0  0  0  0  0
  -27.2294  -13.1305   23.6744 N   0  0  0  0  0  0  0  0  0  0  0  0
  -30.4580  -24.3752   17.1811 N   0  0  0  0  0  0  0  0  0  0  0  0
  -27.7972  -21.1031   19.5070 N   0  0  0  0  0  0  0  0  0  0  0  0
  -21.4202  -25.4812   22.8189 N   0  0  0  0  0  0  0  0  0  0  0  0
  -22.9603  -31.4524   22.6056 N   0  0  0  0  0  0  0  0  0  0  0  0
  -25.4167  -33.5315   24.2519 N   0  3  0  0  0  0  0  0  0  0  0  0
  -28.2869  -14.6332   25.0463 O   0  0  0  0  0  0  0  0  0  0  0  0
  -23.4126  -25.5066   21.6138 O   0  0  0  0  0  0  0  0  0  0  0  0
  -31.2455  -25.7092   19.4153 O   0  0  0  0  0  0  0  0  0  0  0  0
  -21.5278  -29.1180   23.4468 O   0  0  0  0  0  0  0  0  0  0  0  0
  -25.1836  -31.8002   22.0463 O   0  0  0  0  0  0  0  0  0  0  0  0
  -26.5684  -22.9685   20.1329 O   0  0  0  0  0  0  0  0  0  0  0  0
  -24.0481  -10.9629   19.6474 O   0  0  0  0  0  0  0  0  0  0  0  0
  -29.2153  -26.3893   21.1413 O   0  0  0  0  0  0  0  0  0  1  0  0
  -22.1798   -6.8359   22.7909 F   0  0  0  0  0  0  0  0  0  0  0  0
  -21.4208  -10.1214   19.4690 F   0  0  0  0  0  0  0  0  0  0  0  0
  -29.4511  -27.8258   16.8102 F   0  0  0  0  0  0  0  0  0  0  0  0
  -29.7522  -26.3266   15.2538 F   0  0  0  0  0  0  0  0  0  0  0  0
  -31.4206  -26.9449   16.5205 F   0  0  0  0  0  0  0  0  0  0  0  0
  -29.9604  -20.6200   18.0365 S   0  0  0  0  0  0  0  0  0  0  0  0
  1  2  1  0  0  0  0
  1  5  2  0  0  0  0
  2  6  2  0  0  0  0
  3  8  2  0  0  0  0
  3 15  1  0  0  0  0
  4  9  1  0  0  0  0
  4 15  2  0  0  0  0
  5 17  1  0  0  0  0
  6 19  1  0  0  0  0
  7 10  2  0  0  0  0
  7 18  1  0  0  0  0
  8 21  1  0  0  0  0
  9 21  2  0  0  0  0
 10 22  1  0  0  0  0
 11 12  2  0  0  0  0
 11 23  1  0  0  0  0
 12 24  1  0  0  0  0
 13 20  1  0  0  0  0
 13 22  2  0  0  0  0
 14 24  2  0  0  0  0
 14 25  1  0  0  0  0
 15 26  1  0  0  0  0
 16 26  1  0  0  0  0
 16 29  2  0  0  0  0
 16 31  1  0  0  0  0
 17 19  2  0  0  0  0
 17 37  1  0  0  0  0
 18 20  2  0  0  0  0
 18 38  1  0  0  0  0
 19 46  1  0  0  0  0
 20 39  1  0  0  0  0
 21 79  1  0  0  0  0
 22 80  1  0  0  0  0
 23 25  2  0  0  0  0
 23 79  1  0  0  0  0
 24 81  1  0  0  0  0
 25 82  1  0  0  0  0
 26 61  2  0  0  0  0
 27 28  2  0  0  0  0
 27 49  1  0  0  0  0
 27 86  1  0  0  0  0
 28 62  1  0  0  0  0
 28 68  1  0  0  0  0
 29 63  1  0  0  0  0
 29 66  1  0  0  0  0
 30 62  2  0  0  0  0
 30 69  1  0  0  0  0
 30 86  1  0  0  0  0
 31 67  1  0  0  0  0
 31 73  2  0  0  0  0
 32 47  1  0  0  0  0
 32 70  1  0  0  0  0
 32 74  2  0  0  0  0
 33 55  1  0  0  0  0
 33 56  1  0  0  0  0
 33 75  2  0  0  0  0
 34 57  1  0  0  0  0
 34 64  1  0  0  0  0
 34 76  2  0  0  0  0
 35 58  1  0  0  0  0
 35 71  1  0  0  0  0
 35 77  2  0  0  0  0
 36 65  1  0  0  0  0
 36 69  1  0  0  0  0
 36 78  2  0  0  0  0
 37 40  1  0  0  0  0
 38 47  1  0  0  0  0
 39 64  1  0  0  0  0
 40 42  1  0  0  0  0
 41 43  1  0  0  0  0
 41 44  1  0  0  0  0
 42 46  1  0  0  0  0
 43 48  1  0  0  0  0
 44 65  1  0  0  0  0
 45 48  1  0  0  0  0
 45 65  1  0  0  0  0
 46 70  1  0  0  0  0
 47 64  1  0  0  0  0
 48 63  1  0  0  0  0
 50 58  1  0  0  0  0
 51 59  1  0  0  0  0
 52 59  1  0  0  0  0
 53 59  1  0  0  0  0
 54 72  1  0  0  0  0
 55 80  1  0  0  0  0
 56 60  1  0  0  0  0
 56 68  1  0  0  0  0
 57 59  1  0  0  0  0
 57 71  1  0  0  0  0
 58 72  1  0  0  0  0
 60 83  1  0  0  0  0
 60 84  1  0  0  0  0
 60 85  1  0  0  0  0
 61 63  1  0  0  0  0
M  CHG  1  72   1
M  ISO  4  36 100  55 101  69 100  80 101
M  END
> <Batch ID>
0183

> <Smiles>
CNC(C)C(=O)NC(C(=O)N1Cc2cc([101O:1][101CH2:1]C(=O)C(Nc3nc([100NH:0][100C:0](=O)N4CCCC(n5nc(-c6ccc(Oc7ccc(F)cc7F)cc6)c(C(N)=O)c5N)C4)sc3C)C(F)(F)F)ccc2CC1C(=O)NC1CCCc2ccccc21)C(C)(C)C

> <Shape>
0.228

> <Color>
0.077

> <Negative vol penalty>
0.000

$$$$

  -OEChem-04052304593D

 87 95  0     1  0  0  0  0  0999 V2000
  -29.3824  -36.6231   21.9412 C   0  0  0  0  0  0  0  0  0  0  0  0
  -29.6177  -35.3089   21.5499 C   0  0  0  0  0  0  0  0  0  0  0  0
  -24.7735   -8.7731   21.5625 C   0  0  0  0  0  0  0  0  0  0  0  0
  -23.0946  -10.2135   20.5911 C   0  0  0  0  0  0  0  0  0  0  0  0
  -28.3930  -36.9022   22.8832 C   0  0  0  0  0  0  0  0  0  0  0  0
  -28.8644  -34.2730   22.1012 C   0  0  0  0  0  0  0  0  0  0  0  0
  -27.0548  -29.1396   19.2942 C   0  0  0  0  0  0  0  0  0  0  0  0
  -23.8222   -8.2581   22.4430 C   0  0  0  0  0  0  0  0  0  0  0  0
  -22.1432   -9.6984   21.4716 C   0  0  0  0  0  0  0  0  0  0  0  0
  -27.5652  -27.8422   19.2913 C   0  0  0  0  0  0  0  0  0  0  0  0
  -21.3010   -6.0069   22.3483 C   0  0  0  0  0  0  0  0  0  0  0  0
  -21.2654   -4.6242   22.5278 C   0  0  0  0  0  0  0  0  0  0  0  0
  -26.0022  -27.2299   21.0237 C   0  0  0  0  0  0  0  0  0  0  0  0
  -21.7158   -4.9184   24.8831 C   0  0  0  0  0  0  0  0  0  0  0  0
  -24.4097   -9.7509   20.6366 C   0  0  0  0  0  0  0  0  0  0  0  0
  -25.7164   -9.7982   18.4462 C   0  0  0  0  0  0  0  0  0  0  0  0
  -27.6208  -35.8701   23.4391 C   0  0  0  0  0  0  0  0  0  0  0  0
  -26.0198  -29.4953   20.1710 C   0  0  0  0  0  0  0  0  0  0  0  0
  -27.8648  -34.5385   23.0524 C   0  0  0  0  0  0  0  0  0  0  0  0
  -25.4786  -28.5317   21.0339 C   0  0  0  0  0  0  0  0  0  0  0  0
  -22.5070   -8.7207   22.3976 C   0  0  0  0  0  0  0  0  0  0  0  0
  -27.0409  -26.8879   20.1582 C   0  0  0  0  0  0  0  0  0  0  0  0
  -21.5441   -6.8455   23.4362 C   0  0  0  0  0  0  0  0  0  0  0  0
  -21.4728   -4.0799   23.7952 C   0  0  0  0  0  0  0  0  0  0  0  0
  -21.7515   -6.3012   24.7036 C   0  0  0  0  0  0  0  0  0  0  0  0
  -25.3921  -10.2838   19.7271 C   0  0  0  0  0  0  0  0  0  0  0  0
  -25.0834  -17.8338   17.6505 C   0  0  0  0  0  0  0  0  0  0  0  0
  -26.3582  -17.7015   18.1597 C   0  0  0  0  0  0  0  0  0  0  0  0
  -26.7008  -10.6444   17.9974 C   0  0  0  0  0  0  0  0  0  0  0  0
  -26.4893  -19.7822   17.4789 C   0  0  0  0  0  0  0  0  0  0  0  0
  -25.1761   -8.6822   17.7263 C   0  0  0  0  0  0  0  0  0  0  0  0
  -25.7162  -31.5735   22.5569 C   0  0  0  0  0  0  0  0  0  0  0  0
  -27.9119  -23.6218   18.8405 C   0  0  0  0  0  0  0  0  0  0  0  0
  -29.3033  -20.8582   16.5526 C   0  0  0  0  0  0  0  0  0  0  0  0
  -22.6169  -30.6195   22.4761 C   0  0  0  0  0  0  0  0  0  0  0  0
  -20.3475  -28.2118   21.6398 C   0  0  0  0  0  0  0  0  0  0  0  0
  -28.1223  -16.3025   19.2898 C   0  0  0  0  0  0  0  0  0  0  0  0
  -26.5947  -36.2160   24.4889 C   0  0  0  0  0  0  0  0  0  0  0  0
  -25.4621  -30.8920   20.1430 C   0  0  0  0  0  0  0  0  0  0  0  0
  -24.3533  -28.8575   21.9804 C   0  0  0  0  0  0  0  0  0  0  0  0
  -25.5867  -35.0990   24.7468 C   0  0  0  0  0  0  0  0  0  0  0  0
  -30.2370  -13.4538   19.5903 C   0  0  0  0  0  0  0  0  0  0  0  0
  -26.3008  -33.7592   24.8943 C   0  0  0  0  0  0  0  0  0  0  0  0
  -29.2646  -12.2732   19.5368 C   0  0  0  0  0  0  0  0  0  0  0  0
  -29.6436  -14.6436   20.3427 C   0  0  0  0  0  0  0  0  0  0  0  0
  -27.3540  -13.9043   19.8132 C   0  0  0  0  0  0  0  0  0  0  0  0
  -27.0518  -33.3899   23.6093 C   0  0  1  0  0  0  0  0  0  0  0  0
  -24.7564  -31.2796   21.4388 C   0  0  1  0  0  0  0  0  0  0  0  0
  -27.8824  -12.7051   19.0091 C   0  0  2  0  0  0  0  0  0  0  0  0
  -23.9735  -16.8606   17.5877 C   0  0  0  0  0  0  0  0  0  0  0  0
  -31.5862  -19.9231   15.9941 C   0  0  0  0  0  0  0  0  0  0  0  0
  -17.8920  -27.7023   21.7311 C   0  0  0  0  0  0  0  0  0  0  0  0
  -22.8557  -30.0149   25.4573 C   0  0  0  0  0  0  0  0  0  0  0  0
  -20.7589  -28.6584   25.2791 C   0  0  0  0  0  0  0  0  0  0  0  0
  -20.7072  -31.1024   24.7823 C   0  0  0  0  0  0  0  0  0  0  0  0
  -20.1588  -28.0231   18.6923 C   0  0  0  0  0  0  0  0  0  0  0  0
  -28.4491  -22.9781   17.5697 C   0  0  0  0  0  0  0  0  0  0  0  0
  -30.6819  -20.4850   17.0763 C   0  0  0  0  0  0  0  0  0  0  0  0
  -28.0605  -25.1286   18.9247 C   0  0  0  0  0  0  0  0  0  1  0  0
  -28.3391  -21.4543   17.5699 C   0  0  1  0  0  0  0  0  0  0  0  0
  -21.8165  -29.5279   23.1445 C   0  0  1  0  0  0  0  0  0  0  0  0
  -19.0235  -28.2885   20.9012 C   0  0  2  0  0  0  0  0  0  0  0  0
  -21.5571  -29.8199   24.6494 C   0  0  0  0  0  0  0  0  0  0  0  0
  -26.1121  -11.3552   20.0700 N   0  0  0  0  0  0  0  0  0  0  0  0
  -27.1660  -18.8177   18.0619 N   0  0  0  0  0  0  0  0  0  0  0  0
  -26.8988  -11.5498   18.9980 N   0  0  0  0  0  0  0  0  0  0  0  0
  -23.8462  -30.2384   21.9200 N   0  0  0  0  0  0  0  0  0  0  0  0
  -28.3368  -14.9989   19.7852 N   0  0  0  0  0  0  0  0  0  0  0  0
  -27.4078  -10.6948   16.8484 N   0  0  0  0  0  0  0  0  0  0  0  0
  -24.1703   -7.9186   18.3343 N   0  0  0  0  0  0  0  0  0  0  0  0
  -26.8521  -16.5141   18.7545 N   0  0  0  0  0  0  0  0  0  0  0  0
  -26.9949  -21.0442   17.2222 N   0  0  0  0  0  0  0  0  0  0  0  0
  -26.1305  -32.8907   22.6111 N   0  0  0  0  0  0  0  0  0  0  0  0
  -20.6040  -29.3657   22.3496 N   0  0  0  0  0  0  0  0  0  0  0  0
  -19.1025  -27.5368   19.6168 N   0  3  0  0  0  0  0  0  0  0  0  0
  -25.5850   -8.3614   16.5846 O   0  0  0  0  0  0  0  0  0  0  0  0
  -26.0546  -30.6723   23.3152 O   0  0  0  0  0  0  0  0  0  0  0  0
  -27.3925  -22.9717   19.7462 O   0  0  0  0  0  0  0  0  0  0  0  0
  -28.9891  -20.7055   15.3719 O   0  0  0  0  0  0  0  0  0  0  0  0
  -22.1646  -31.7667   22.4422 O   0  0  0  0  0  0  0  0  0  0  0  0
  -21.0792  -27.2253   21.5947 O   0  0  0  0  0  0  0  0  0  0  0  0
  -29.0095  -17.1594   19.3122 O   0  0  0  0  0  0  0  0  0  0  0  0
  -21.5784   -8.2181   23.2564 O   0  0  0  0  0  0  0  0  0  0  0  0
  -27.5377  -25.6210   20.1579 O   0  0  0  0  0  0  0  0  0  1  0  0
  -21.4370   -2.7520   23.9678 F   0  0  0  0  0  0  0  0  0  0  0  0
  -21.9844   -7.1017   25.7527 F   0  0  0  0  0  0  0  0  0  0  0  0
  -24.8759  -19.4163   17.0228 S   0  0  0  0  0  0  0  0  0  0  0  0
  1  2  1  0  0  0  0
  1  5  2  0  0  0  0
  2  6  2  0  0  0  0
  3  8  2  0  0  0  0
  3 15  1  0  0  0  0
  4  9  1  0  0  0  0
  4 15  2  0  0  0  0
  5 17  1  0  0  0  0
  6 19  1  0  0  0  0
  7 10  2  0  0  0  0
  7 18  1  0  0  0  0
  8 21  1  0  0  0  0
  9 21  2  0  0  0  0
 10 22  1  0  0  0  0
 11 12  2  0  0  0  0
 11 23  1  0  0  0  0
 12 24  1  0  0  0  0
 13 20  1  0  0  0  0
 13 22  2  0  0  0  0
 14 24  2  0  0  0  0
 14 25  1  0  0  0  0
 15 26  1  0  0  0  0
 16 26  1  0  0  0  0
 16 29  2  0  0  0  0
 16 31  1  0  0  0  0
 17 19  2  0  0  0  0
 17 38  1  0  0  0  0
 18 20  2  0  0  0  0
 18 39  1  0  0  0  0
 19 47  1  0  0  0  0
 20 40  1  0  0  0  0
 21 83  1  0  0  0  0
 22 84  1  0  0  0  0
 23 25  2  0  0  0  0
 23 83  1  0  0  0  0
 24 85  1  0  0  0  0
 25 86  1  0  0  0  0
 26 64  2  0  0  0  0
 27 28  2  0  0  0  0
 27 50  1  0  0  0  0
 27 87  1  0  0  0  0
 28 65  1  0  0  0  0
 28 71  1  0  0  0  0
 29 66  1  0  0  0  0
 29 69  1  0  0  0  0
 30 65  2  0  0  0  0
 30 72  1  0  0  0  0
 30 87  1  0  0  0  0
 31 70  1  0  0  0  0
 31 76  2  0  0  0  0
 32 48  1  0  0  0  0
 32 73  1  0  0  0  0
 32 77  2  0  0  0  0
 33 57  1  0  0  0  0
 33 59  1  0  0  0  0
 33 78  2  0  0  0  0
 34 58  1  0  0  0  0
 34 60  1  0  0  0  0
 34 79  2  0  0  0  0
 35 61  1  0  0  0  0
 35 67  1  0  0  0  0
 35 80  2  0  0  0  0
 36 62  1  0  0  0  0
 36 74  1  0  0  0  0
 36 81  2  0  0  0  0
 37 68  1  0  0  0  0
 37 71  1  0  0  0  0
 37 82  2  0  0  0  0
 38 41  1  0  0  0  0
 39 48  1  0  0  0  0
 40 67  1  0  0  0  0
 41 43  1  0  0  0  0
 42 44  1  0  0  0  0
 42 45  1  0  0  0  0
 43 47  1  0  0  0  0
 44 49  1  0  0  0  0
 45 68  1  0  0  0  0
 46 49  1  0  0  0  0
 46 68  1  0  0  0  0
 47 73  1  0  0  0  0
 48 67  1  0  0  0  0
 49 66  1  0  0  0  0
 51 58  1  0  0  0  0
 52 62  1  0  0  0  0
 53 63  1  0  0  0  0
 54 63  1  0  0  0  0
 55 63  1  0  0  0  0
 56 75  1  0  0  0  0
 57 60  1  0  0  0  0
 59 84  1  0  0  0  0
 60 72  1  0  0  0  0
 61 63  1  0  0  0  0
 61 74  1  0  0  0  0
 62 75  1  0  0  0  0
 64 66  1  0  0  0  0
M  CHG  1  75   1
M  ISO  4  37 100  59 101  71 100  84 101
M  END
> <Batch ID>
0183

> <Smiles>
CCC(=O)C(CC(=O)[101CH2:1][101O:1]c1ccc2c(c1)CN(C(=O)C(NC(=O)C(C)NC)C(C)(C)C)C(C(=O)NC1CCCc3ccccc31)C2)Nc1nc([100NH:0][100C:0](=O)N2CCCC(n3nc(-c4ccc(Oc5ccc(F)cc5F)cc4)c(C(N)=O)c3N)C2)c(C)s1

> <Shape>
0.289

> <Color>
0.099

> <Negative vol penalty>
0.000

$$$$

  -OEChem-04052304593D

 84 92  0     1  0  0  0  0  0999 V2000
  -32.7151  -33.5806   26.1520 C   0  0  0  0  0  0  0  0  0  0  0  0
  -32.4739  -32.3635   26.7811 C   0  0  0  0  0  0  0  0  0  0  0  0
  -23.0016   -9.8898   19.9800 C   0  0  0  0  0  0  0  0  0  0  0  0
  -23.7250   -9.9443   22.2846 C   0  0  0  0  0  0  0  0  0  0  0  0
  -32.7694  -33.6461   24.7604 C   0  0  0  0  0  0  0  0  0  0  0  0
  -32.2857  -31.2112   26.0187 C   0  0  0  0  0  0  0  0  0  0  0  0
  -34.0213  -25.5181   27.4618 C   0  0  0  0  0  0  0  0  0  0  0  0
  -22.2357   -8.7551   20.2472 C   0  0  0  0  0  0  0  0  0  0  0  0
  -22.9591   -8.8096   22.5518 C   0  0  0  0  0  0  0  0  0  0  0  0
  -33.3311  -24.4374   28.0091 C   0  0  0  0  0  0  0  0  0  0  0  0
  -21.4791   -5.7169   23.7580 C   0  0  0  0  0  0  0  0  0  0  0  0
  -22.0654   -4.7025   24.5150 C   0  0  0  0  0  0  0  0  0  0  0  0
  -32.9516  -23.5649   25.7923 C   0  0  0  0  0  0  0  0  0  0  0  0
  -23.7932   -4.4546   22.8445 C   0  0  0  0  0  0  0  0  0  0  0  0
  -23.7462  -10.4844   20.9987 C   0  0  0  0  0  0  0  0  0  0  0  0
  -24.1297  -13.0001   20.8197 C   0  0  0  0  0  0  0  0  0  0  0  0
  -32.5915  -32.4923   23.9809 C   0  0  0  0  0  0  0  0  0  0  0  0
  -34.1727  -25.6362   26.0727 C   0  0  0  0  0  0  0  0  0  0  0  0
  -32.3364  -31.2615   24.6153 C   0  0  0  0  0  0  0  0  0  0  0  0
  -33.6464  -24.6467   25.2301 C   0  0  0  0  0  0  0  0  0  0  0  0
  -22.2145   -8.2149   21.5331 C   0  0  0  0  0  0  0  0  0  0  0  0
  -32.7937  -23.4621   27.1742 C   0  0  0  0  0  0  0  0  0  0  0  0
  -22.0498   -6.1000   22.5443 C   0  0  0  0  0  0  0  0  0  0  0  0
  -23.2224   -4.0714   24.0583 C   0  0  0  0  0  0  0  0  0  0  0  0
  -23.2069   -5.4689   22.0875 C   0  0  0  0  0  0  0  0  0  0  0  0
  -24.5380  -11.6563   20.7231 C   0  0  0  0  0  0  0  0  0  0  0  0
  -30.7306  -19.0745   22.9167 C   0  0  0  0  0  0  0  0  0  0  0  0
  -31.8383  -18.6699   22.2017 C   0  0  0  0  0  0  0  0  0  0  0  0
  -25.2392  -13.7231   20.4552 C   0  0  0  0  0  0  0  0  0  0  0  0
  -30.5778  -16.9034   21.8846 C   0  0  0  0  0  0  0  0  0  0  0  0
  -22.8610  -13.5460   21.2046 C   0  0  0  0  0  0  0  0  0  0  0  0
  -33.2598  -27.7582   23.8893 C   0  0  0  0  0  0  0  0  0  0  0  0
  -35.0664  -25.9236   21.9163 C   0  0  0  0  0  0  0  0  0  0  0  0
  -36.4641  -22.8795   21.2634 C   0  0  0  0  0  0  0  0  0  0  0  0
  -31.0322  -21.1563   25.9654 C   0  0  0  0  0  0  0  0  0  0  0  0
  -30.7178  -14.6886   20.6922 C   0  0  0  0  0  0  0  0  0  0  0  0
  -32.6119  -32.6210   22.4783 C   0  0  0  0  0  0  0  0  0  0  0  0
  -34.9430  -26.7940   25.4996 C   0  0  0  0  0  0  0  0  0  0  0  0
  -33.7989  -24.7165   23.7333 C   0  0  0  0  0  0  0  0  0  0  0  0
  -32.7743  -31.2867   21.7548 C   0  0  0  0  0  0  0  0  0  0  0  0
  -29.6031  -12.2320   18.3684 C   0  0  0  0  0  0  0  0  0  0  0  0
  -31.8337  -30.2412   22.3455 C   0  0  0  0  0  0  0  0  0  0  0  0
  -28.1524  -11.9738   18.7818 C   0  0  0  0  0  0  0  0  0  0  0  0
  -30.5025  -12.4776   19.5786 C   0  0  0  0  0  0  0  0  0  0  0  0
  -28.5856  -13.2667   20.9097 C   0  0  0  0  0  0  0  0  0  0  0  0
  -32.1518  -29.9851   23.8236 C   0  0  1  0  0  0  0  0  0  0  0  0
  -34.5928  -27.0822   24.0430 C   0  0  1  0  0  0  0  0  0  0  0  0
  -27.6289  -13.0781   19.7210 C   0  0  2  0  0  0  0  0  0  0  0  0
  -30.5368  -21.5922   22.7917 C   0  0  0  0  0  0  0  0  0  0  0  0
  -37.8540  -21.6755   19.5557 C   0  0  0  0  0  0  0  0  0  0  0  0
  -32.0649  -20.0141   27.9592 C   0  0  0  0  0  0  0  0  0  0  0  0
  -32.6345  -25.7186   20.0849 C   0  0  0  0  0  0  0  0  0  0  0  0
  -33.7465  -23.7899   18.9397 C   0  0  0  0  0  0  0  0  0  0  0  0
  -34.8106  -26.0457   18.8967 C   0  0  0  0  0  0  0  0  0  0  0  0
  -38.6192  -22.3494   23.2213 C   0  0  0  0  0  0  0  0  0  0  0  0
  -30.4728  -20.3538   23.6833 C   0  0  2  0  0  0  0  0  0  0  0  0
  -34.8106  -24.7161   21.0471 C   0  0  1  0  0  0  0  0  0  0  0  0
  -37.8685  -22.4852   20.8429 C   0  0  2  0  0  0  0  0  0  0  0  0
  -32.1640  -21.1767   26.9834 C   0  0  2  0  0  0  0  0  0  1  0  0
  -33.9958  -25.0670   19.7701 C   0  0  0  0  0  0  0  0  0  0  0  0
  -25.8077  -11.5303   20.3281 N   0  0  0  0  0  0  0  0  0  0  0  0
  -31.7527  -17.4250   21.6094 N   0  0  0  0  0  0  0  0  0  0  0  0
  -26.2068  -12.8042   20.1731 N   0  0  0  0  0  0  0  0  0  0  0  0
  -34.5548  -25.8712   23.2206 N   0  0  0  0  0  0  0  0  0  0  0  0
  -29.9460  -13.5392   20.4202 N   0  0  0  0  0  0  0  0  0  0  0  0
  -32.9601  -19.4167   22.0669 N   0  0  0  0  0  0  0  0  0  0  0  0
  -25.4717  -15.0488   20.3516 N   0  0  0  0  0  0  0  0  0  0  0  0
  -21.8297  -12.6615   21.5485 N   0  0  0  0  0  0  0  0  0  0  0  0
  -30.0722  -15.6443   21.4761 N   0  0  0  0  0  0  0  0  0  0  0  0
  -33.3180  -29.1374   23.9500 N   0  0  0  0  0  0  0  0  0  0  0  0
  -31.3765  -20.4857   24.8019 N   0  0  0  0  0  0  0  0  0  0  0  0
  -36.1159  -24.1224   20.7786 N   0  0  0  0  0  0  0  0  0  0  0  0
  -38.5168  -21.6664   21.9060 N   0  3  0  0  0  0  0  0  0  0  0  0
  -22.6433  -14.7812   21.2266 O   0  0  0  0  0  0  0  0  0  0  0  0
  -32.2530  -27.0788   23.7260 O   0  0  0  0  0  0  0  0  0  0  0  0
  -35.7030  -26.8752   21.4572 O   0  0  0  0  0  0  0  0  0  0  0  0
  -35.7464  -22.1555   21.9498 O   0  0  0  0  0  0  0  0  0  0  0  0
  -29.9492  -21.6997   26.1717 O   0  0  0  0  0  0  0  0  0  0  0  0
  -31.8567  -14.8279   20.2388 O   0  0  0  0  0  0  0  0  0  0  0  0
  -21.4671   -7.1078   21.7943 O   0  0  0  0  0  0  0  0  0  0  0  0
  -32.1190  -22.4066   27.7057 O   0  0  0  0  0  0  0  0  0  1  0  0
  -23.7861   -3.0984   24.7860 F   0  0  0  0  0  0  0  0  0  0  0  0
  -23.7604   -5.8335   20.9229 F   0  0  0  0  0  0  0  0  0  0  0  0
  -29.5261  -17.8554   22.8501 S   0  0  0  0  0  0  0  0  0  0  0  0
  1  2  1  0  0  0  0
  1  5  2  0  0  0  0
  2  6  2  0  0  0  0
  3  8  2  0  0  0  0
  3 15  1  0  0  0  0
  4  9  1  0  0  0  0
  4 15  2  0  0  0  0
  5 17  1  0  0  0  0
  6 19  1  0  0  0  0
  7 10  2  0  0  0  0
  7 18  1  0  0  0  0
  8 21  1  0  0  0  0
  9 21  2  0  0  0  0
 10 22  1  0  0  0  0
 11 12  2  0  0  0  0
 11 23  1  0  0  0  0
 12 24  1  0  0  0  0
 13 20  1  0  0  0  0
 13 22  2  0  0  0  0
 14 24  2  0  0  0  0
 14 25  1  0  0  0  0
 15 26  1  0  0  0  0
 16 26  1  0  0  0  0
 16 29  2  0  0  0  0
 16 31  1  0  0  0  0
 17 19  2  0  0  0  0
 17 37  1  0  0  0  0
 18 20  2  0  0  0  0
 18 38  1  0  0  0  0
 19 46  1  0  0  0  0
 20 39  1  0  0  0  0
 21 80  1  0  0  0  0
 22 81  1  0  0  0  0
 23 25  2  0  0  0  0
 23 80  1  0  0  0  0
 24 82  1  0  0  0  0
 25 83  1  0  0  0  0
 26 61  2  0  0  0  0
 27 28  2  0  0  0  0
 27 56  1  0  0  0  0
 27 84  1  0  0  0  0
 28 62  1  0  0  0  0
 28 66  1  0  0  0  0
 29 63  1  0  0  0  0
 29 67  1  0  0  0  0
 30 62  2  0  0  0  0
 30 69  1  0  0  0  0
 30 84  1  0  0  0  0
 31 68  1  0  0  0  0
 31 74  2  0  0  0  0
 32 47  1  0  0  0  0
 32 70  1  0  0  0  0
 32 75  2  0  0  0  0
 33 57  1  0  0  0  0
 33 64  1  0  0  0  0
 33 76  2  0  0  0  0
 34 58  1  0  0  0  0
 34 72  1  0  0  0  0
 34 77  2  0  0  0  0
 35 59  1  0  0  0  0
 35 71  1  0  0  0  0
 35 78  2  0  0  0  0
 36 65  1  0  0  0  0
 36 69  1  0  0  0  0
 36 79  2  0  0  0  0
 37 40  1  0  0  0  0
 38 47  1  0  0  0  0
 39 64  1  0  0  0  0
 40 42  1  0  0  0  0
 41 43  1  0  0  0  0
 41 44  1  0  0  0  0
 42 46  1  0  0  0  0
 43 48  1  0  0  0  0
 44 65  1  0  0  0  0
 45 48  1  0  0  0  0
 45 65  1  0  0  0  0
 46 70  1  0  0  0  0
 47 64  1  0  0  0  0
 48 63  1  0  0  0  0
 49 56  1  0  0  0  0
 50 58  1  0  0  0  0
 51 59  1  0  0  0  0
 52 60  1  0  0  0  0
 53 60  1  0  0  0  0
 54 60  1  0  0  0  0
 55 73  1  0  0  0  0
 56 71  1  0  0  0  0
 57 60  1  0  0  0  0
 57 72  1  0  0  0  0
 58 73  1  0  0  0  0
 59 81  1  0  0  0  0
 61 63  1  0  0  0  0
M  CHG  1  73   1
M  ISO  4  36 100  59 101  69 100  81 101
M  END
> <Batch ID>
0183

> <Smiles>
CNC(C)C(=O)NC(C(=O)N1Cc2cc([101O:1][101CH:1](C)C(=O)NC(C)c3sc([100NH:0][100C:0](=O)N4CCCC(n5nc(-c6ccc(Oc7ccc(F)cc7F)cc6)c(C(N)=O)c5N)C4)nc3N)ccc2CC1C(=O)NC1CCCc2ccccc21)C(C)(C)C

> <Shape>
0.174

> <Color>
0.186

> <Negative vol penalty>
0.000

$$$$

  -OEChem-04052304593D

 86 94  0     1  0  0  0  0  0999 V2000
  -16.7792  -30.4569   23.8619 C   0  0  0  0  0  0  0  0  0  0  0  0
  -17.9818  -31.0261   24.2682 C   0  0  0  0  0  0  0  0  0  0  0  0
  -26.6495  -14.0880   18.3784 C   0  0  0  0  0  0  0  0  0  0  0  0
  -26.7915  -15.3941   16.3508 C   0  0  0  0  0  0  0  0  0  0  0  0
  -16.7741  -29.2057   23.2468 C   0  0  0  0  0  0  0  0  0  0  0  0
  -19.1801  -30.3437   24.0608 C   0  0  0  0  0  0  0  0  0  0  0  0
  -26.1015  -31.5216   22.6386 C   0  0  0  0  0  0  0  0  0  0  0  0
  -26.0740  -13.0386   17.6621 C   0  0  0  0  0  0  0  0  0  0  0  0
  -26.2161  -14.3447   15.6345 C   0  0  0  0  0  0  0  0  0  0  0  0
  -27.3700  -31.1945   23.1159 C   0  0  0  0  0  0  0  0  0  0  0  0
  -23.0355  -12.2500   16.4091 C   0  0  0  0  0  0  0  0  0  0  0  0
  -21.9223  -11.6202   16.9656 C   0  0  0  0  0  0  0  0  0  0  0  0
  -27.2471  -29.0743   21.9720 C   0  0  0  0  0  0  0  0  0  0  0  0
  -23.1209   -9.5226   16.9891 C   0  0  0  0  0  0  0  0  0  0  0  0
  -30.8286  -24.1546   19.3655 C   0  0  0  0  0  0  0  0  0  0  0  0
  -29.3476  -25.2782   20.5399 C   0  0  0  0  0  0  0  0  0  0  0  0
  -27.0082  -15.2658   17.7228 C   0  0  0  0  0  0  0  0  0  0  0  0
  -28.9728  -16.5682   18.6984 C   0  0  0  0  0  0  0  0  0  0  0  0
  -17.9738  -28.5119   23.0230 C   0  0  0  0  0  0  0  0  0  0  0  0
  -25.3906  -30.6213   21.8320 C   0  0  0  0  0  0  0  0  0  0  0  0
  -19.1909  -29.0814   23.4434 C   0  0  0  0  0  0  0  0  0  0  0  0
  -25.9709  -29.3933   21.4836 C   0  0  0  0  0  0  0  0  0  0  0  0
  -29.5382  -24.0668   19.9213 C   0  0  0  0  0  0  0  0  0  0  0  0
  -25.8573  -13.1669   16.2901 C   0  0  0  0  0  0  0  0  0  0  0  0
  -27.9418  -29.9695   22.7850 C   0  0  0  0  0  0  0  0  0  0  0  0
  -24.1914  -11.5161   16.1425 C   0  0  0  0  0  0  0  0  0  0  0  0
  -21.9650  -10.2565   17.2556 C   0  0  0  0  0  0  0  0  0  0  0  0
  -24.2341  -10.1524   16.4326 C   0  0  0  0  0  0  0  0  0  0  0  0
  -27.6022  -16.3504   18.4623 C   0  0  0  0  0  0  0  0  0  0  0  0
  -29.0140  -17.7215   19.4432 C   0  0  0  0  0  0  0  0  0  0  0  0
  -30.1074  -15.7970   18.2815 C   0  0  0  0  0  0  0  0  0  0  0  0
  -22.6338  -29.0622   22.1022 C   0  0  0  0  0  0  0  0  0  0  0  0
  -23.2829  -28.1771   19.0497 C   0  0  0  0  0  0  0  0  0  0  0  0
  -25.6198  -27.6703   16.6147 C   0  0  0  0  0  0  0  0  0  0  0  0
  -27.3453  -22.9395   20.4381 C   0  0  0  0  0  0  0  0  0  0  0  0
  -17.9137  -27.1410   22.3971 C   0  0  0  0  0  0  0  0  0  0  0  0
  -24.0344  -31.0003   21.3032 C   0  0  0  0  0  0  0  0  0  0  0  0
  -25.2575  -28.4003   20.6041 C   0  0  0  0  0  0  0  0  0  0  0  0
  -19.2617  -26.6499   21.8758 C   0  0  0  0  0  0  0  0  0  0  0  0
  -25.3031  -20.3140   21.7082 C   0  0  0  0  0  0  0  0  0  0  0  0
  -20.3542  -26.8879   22.9133 C   0  0  0  0  0  0  0  0  0  0  0  0
  -25.8320  -19.0667   20.9964 C   0  0  0  0  0  0  0  0  0  0  0  0
  -25.3239  -21.5393   20.7960 C   0  0  0  0  0  0  0  0  0  0  0  0
  -27.1476  -20.5727   19.4510 C   0  0  0  0  0  0  0  0  0  0  0  0
  -20.5137  -28.3832   23.2134 C   0  0  1  0  0  0  0  0  0  0  0  0
  -23.1871  -29.7935   20.9119 C   0  0  1  0  0  0  0  0  0  0  0  0
  -27.2068  -19.3270   20.3501 C   0  0  2  0  0  0  0  0  0  0  0  0
  -25.8517  -26.9089   14.2349 C   0  0  0  0  0  0  0  0  0  0  0  0
  -30.7147  -31.4356   22.8096 C   0  0  0  0  0  0  0  0  0  0  0  0
  -22.9089  -25.2833   19.9417 C   0  0  0  0  0  0  0  0  0  0  0  0
  -24.0578  -24.5596   17.8383 C   0  0  0  0  0  0  0  0  0  0  0  0
  -21.9118  -25.8251   17.7132 C   0  0  0  0  0  0  0  0  0  0  0  0
  -26.7347  -30.2776   15.7673 C   0  0  0  0  0  0  0  0  0  0  0  0
  -31.4517  -29.0283   22.6579 C   0  0  0  0  0  0  0  0  0  0  0  0
  -30.7780  -27.3933   20.8098 C   0  0  0  0  0  0  0  0  0  0  0  0
  -24.0237  -27.0315   18.4033 C   0  0  1  0  0  0  0  0  0  0  0  0
  -25.6687  -28.1018   15.1601 C   0  0  2  0  0  0  0  0  0  0  0  0
  -30.2943  -30.0173   22.4396 C   0  0  1  0  0  0  0  0  0  1  0  0
  -23.2384  -25.6926   18.4923 C   0  0  0  0  0  0  0  0  0  0  0  0
  -31.1695  -27.5392   22.3032 C   0  0  1  0  0  0  0  0  0  0  0  0
  -32.4045  -26.7143   22.6797 C   0  0  0  0  0  0  0  0  0  0  0  0
  -31.4162  -25.3290   19.6093 N   0  0  0  0  0  0  0  0  0  0  0  0
  -26.8286  -17.2899   19.0127 N   0  0  0  0  0  0  0  0  0  0  0  0
  -30.4908  -25.9904   20.3250 N   0  0  0  0  0  0  0  0  0  0  0  0
  -27.7160  -18.1091   19.6021 N   0  0  0  0  0  0  0  0  0  0  0  0
  -23.9312  -28.8142   20.1172 N   0  0  0  0  0  0  0  0  0  0  0  0
  -26.6589  -21.7257   20.2233 N   0  0  0  0  0  0  0  0  0  0  0  0
  -30.0335  -18.4316   19.9712 N   0  0  0  0  0  0  0  0  0  0  0  0
  -29.8863  -14.6402   17.5217 N   0  0  0  0  0  0  0  0  0  0  0  0
  -28.6193  -22.9893   19.8732 N   0  0  0  0  0  0  0  0  0  0  0  0
  -21.2532  -29.0353   22.1540 N   0  0  0  0  0  0  0  0  0  0  0  0
  -24.3258  -27.4576   17.0411 N   0  0  0  0  0  0  0  0  0  0  0  0
  -26.7995  -29.0468   14.9379 N   0  3  0  0  0  0  0  0  0  0  0  0
  -31.2814  -16.1151   18.5881 O   0  0  0  0  0  0  0  0  0  0  0  0
  -23.4025  -28.5584   22.9127 O   0  0  0  0  0  0  0  0  0  0  0  0
  -22.1730  -28.4996   18.6186 O   0  0  0  0  0  0  0  0  0  0  0  0
  -26.6287  -27.5320   17.3028 O   0  0  0  0  0  0  0  0  0  0  0  0
  -26.8511  -23.8564   21.0992 O   0  0  0  0  0  0  0  0  0  0  0  0
  -30.0996  -27.0667   23.1255 O   0  0  0  0  0  0  0  0  0  0  0  0
  -25.2960  -12.1430   15.5908 O   0  0  0  0  0  0  0  0  0  0  0  0
  -29.1795  -29.6475   23.2500 O   0  0  0  0  0  0  0  0  0  1  0  0
  -20.8964   -9.6521   17.7914 F   0  0  0  0  0  0  0  0  0  0  0  0
  -25.3421   -9.4423   16.1799 F   0  0  0  0  0  0  0  0  0  0  0  0
  -32.6742  -26.8152   24.0022 F   0  0  0  0  0  0  0  0  0  0  0  0
  -32.2434  -25.4004   22.4122 F   0  0  0  0  0  0  0  0  0  0  0  0
  -33.5001  -27.1375   22.0106 F   0  0  0  0  0  0  0  0  0  0  0  0
  1  2  1  0  0  0  0
  1  5  2  0  0  0  0
  2  6  2  0  0  0  0
  3  8  2  0  0  0  0
  3 17  1  0  0  0  0
  4  9  1  0  0  0  0
  4 17  2  0  0  0  0
  5 19  1  0  0  0  0
  6 21  1  0  0  0  0
  7 10  2  0  0  0  0
  7 20  1  0  0  0  0
  8 24  1  0  0  0  0
  9 24  2  0  0  0  0
 10 25  1  0  0  0  0
 11 12  2  0  0  0  0
 11 26  1  0  0  0  0
 12 27  1  0  0  0  0
 13 22  1  0  0  0  0
 13 25  2  0  0  0  0
 14 27  2  0  0  0  0
 14 28  1  0  0  0  0
 15 23  1  0  0  0  0
 15 62  2  0  0  0  0
 16 23  2  0  0  0  0
 16 64  1  0  0  0  0
 17 29  1  0  0  0  0
 18 29  1  0  0  0  0
 18 30  2  0  0  0  0
 18 31  1  0  0  0  0
 19 21  2  0  0  0  0
 19 36  1  0  0  0  0
 20 22  2  0  0  0  0
 20 37  1  0  0  0  0
 21 45  1  0  0  0  0
 22 38  1  0  0  0  0
 23 70  1  0  0  0  0
 24 80  1  0  0  0  0
 25 81  1  0  0  0  0
 26 28  2  0  0  0  0
 26 80  1  0  0  0  0
 27 82  1  0  0  0  0
 28 83  1  0  0  0  0
 29 63  2  0  0  0  0
 30 65  1  0  0  0  0
 30 68  1  0  0  0  0
 31 69  1  0  0  0  0
 31 74  2  0  0  0  0
 32 46  1  0  0  0  0
 32 71  1  0  0  0  0
 32 75  2  0  0  0  0
 33 56  1  0  0  0  0
 33 66  1  0  0  0  0
 33 76  2  0  0  0  0
 34 57  1  0  0  0  0
 34 72  1  0  0  0  0
 34 77  2  0  0  0  0
 35 67  1  0  0  0  0
 35 70  1  0  0  0  0
 35 78  2  0  0  0  0
 36 39  1  0  0  0  0
 37 46  1  0  0  0  0
 38 66  1  0  0  0  0
 39 41  1  0  0  0  0
 40 42  1  0  0  0  0
 40 43  1  0  0  0  0
 41 45  1  0  0  0  0
 42 47  1  0  0  0  0
 43 67  1  0  0  0  0
 44 47  1  0  0  0  0
 44 67  1  0  0  0  0
 45 71  1  0  0  0  0
 46 66  1  0  0  0  0
 47 65  1  0  0  0  0
 48 57  1  0  0  0  0
 49 58  1  0  0  0  0
 50 59  1  0  0  0  0
 51 59  1  0  0  0  0
 52 59  1  0  0  0  0
 53 73  1  0  0  0  0
 54 58  1  0  0  0  0
 54 60  1  0  0  0  0
 55 60  1  0  0  0  0
 55 64  1  0  0  0  0
 56 59  1  0  0  0  0
 56 72  1  0  0  0  0
 57 73  1  0  0  0  0
 58 81  1  0  0  0  0
 60 61  1  0  0  0  0
 60 79  1  0  0  0  0
 61 84  1  0  0  0  0
 61 85  1  0  0  0  0
 61 86  1  0  0  0  0
 62 64  1  0  0  0  0
 63 65  1  0  0  0  0
M  CHG  1  73   1
M  ISO  4  35 100  58 101  70 100  81 101
M  END
> <Batch ID>
0183

> <Smiles>
CNC(C)C(=O)NC(C(=O)N1Cc2cc([101O:1][101CH:1](C)CC(O)(Cn3cc([100NH:0][100C:0](=O)N4CCCC(n5nc(-c6ccc(Oc7ccc(F)cc7F)cc6)c(C(N)=O)c5N)C4)cn3)C(F)(F)F)ccc2CC1C(=O)NC1CCCc2ccccc21)C(C)(C)C

> <Shape>
0.220

> <Color>
0.105

> <Negative vol penalty>
0.000

$$$$

  -OEChem-04052304593D

 84 92  0     1  0  0  0  0  0999 V2000
  -45.6927  -20.3647   25.6893 C   0  0  0  0  0  0  0  0  0  0  0  0
  -44.4058  -20.8917   25.7281 C   0  0  0  0  0  0  0  0  0  0  0  0
  -23.0754   -9.8685   19.9401 C   0  0  0  0  0  0  0  0  0  0  0  0
  -23.8349   -9.8742   22.2336 C   0  0  0  0  0  0  0  0  0  0  0  0
  -46.0617  -19.5044   24.6561 C   0  0  0  0  0  0  0  0  0  0  0  0
  -43.4873  -20.5595   24.7328 C   0  0  0  0  0  0  0  0  0  0  0  0
  -37.4433  -19.8280   25.3966 C   0  0  0  0  0  0  0  0  0  0  0  0
  -22.3311   -8.7155   20.1894 C   0  0  0  0  0  0  0  0  0  0  0  0
  -23.0905   -8.7212   22.4830 C   0  0  0  0  0  0  0  0  0  0  0  0
  -36.3633  -20.6739   25.1484 C   0  0  0  0  0  0  0  0  0  0  0  0
  -21.1044   -5.9843   23.8181 C   0  0  0  0  0  0  0  0  0  0  0  0
  -20.3479   -5.9405   24.9891 C   0  0  0  0  0  0  0  0  0  0  0  0
  -36.0660  -19.6497   22.9847 C   0  0  0  0  0  0  0  0  0  0  0  0
  -19.1041   -7.8785   24.2582 C   0  0  0  0  0  0  0  0  0  0  0  0
  -31.7903  -17.5751   21.7299 C   0  0  0  0  0  0  0  0  0  0  0  0
  -23.8273  -10.4478   20.9622 C   0  0  0  0  0  0  0  0  0  0  0  0
  -24.1701  -12.9729   20.8433 C   0  0  0  0  0  0  0  0  0  0  0  0
  -45.1444  -19.1538   23.6530 C   0  0  0  0  0  0  0  0  0  0  0  0
  -37.8504  -18.8924   24.4347 C   0  0  0  0  0  0  0  0  0  0  0  0
  -43.8448  -19.6947   23.6844 C   0  0  0  0  0  0  0  0  0  0  0  0
  -37.1500  -18.7913   23.2242 C   0  0  0  0  0  0  0  0  0  0  0  0
  -22.3386   -8.1419   21.4609 C   0  0  0  0  0  0  0  0  0  0  0  0
  -35.6762  -20.5868   23.9412 C   0  0  0  0  0  0  0  0  0  0  0  0
  -20.8608   -6.9752   22.8671 C   0  0  0  0  0  0  0  0  0  0  0  0
  -19.3477   -6.8875   25.2092 C   0  0  0  0  0  0  0  0  0  0  0  0
  -19.8607   -7.9223   23.0871 C   0  0  0  0  0  0  0  0  0  0  0  0
  -24.5969  -11.6386   20.7051 C   0  0  0  0  0  0  0  0  0  0  0  0
  -25.2626  -13.7222   20.4805 C   0  0  0  0  0  0  0  0  0  0  0  0
  -30.5869  -16.9328   21.9333 C   0  0  0  0  0  0  0  0  0  0  0  0
  -30.8305  -19.0718   23.0138 C   0  0  0  0  0  0  0  0  0  0  0  0
  -22.8997  -13.4890   21.2622 C   0  0  0  0  0  0  0  0  0  0  0  0
  -30.6425  -20.3191   23.7977 C   0  0  0  0  0  0  0  0  0  0  0  0
  -40.5063  -18.4122   22.7556 C   0  0  0  0  0  0  0  0  0  0  0  0
  -38.9489  -15.7345   21.7929 C   0  0  0  0  0  0  0  0  0  0  0  0
  -31.7558  -22.4159   24.4846 C   0  0  0  0  0  0  0  0  0  0  0  0
  -35.9778  -14.1260   21.3113 C   0  0  0  0  0  0  0  0  0  0  0  0
  -30.7291  -14.7656   20.6567 C   0  0  0  0  0  0  0  0  0  0  0  0
  -45.6037  -18.2576   22.5303 C   0  0  0  0  0  0  0  0  0  0  0  0
  -39.0007  -17.9689   24.7286 C   0  0  0  0  0  0  0  0  0  0  0  0
  -37.5344  -17.7899   22.1668 C   0  0  0  0  0  0  0  0  0  0  0  0
  -44.4564  -17.6592   21.7204 C   0  0  0  0  0  0  0  0  0  0  0  0
  -29.6142  -12.3534   18.2871 C   0  0  0  0  0  0  0  0  0  0  0  0
  -43.4322  -18.7342   21.3708 C   0  0  0  0  0  0  0  0  0  0  0  0
  -28.1744  -12.0621   18.7163 C   0  0  0  0  0  0  0  0  0  0  0  0
  -30.5292  -12.5813   19.4890 C   0  0  0  0  0  0  0  0  0  0  0  0
  -28.6223  -13.3058   20.8703 C   0  0  0  0  0  0  0  0  0  0  0  0
  -42.8126  -19.3384   22.6367 C   0  0  1  0  0  0  0  0  0  0  0  0
  -39.6504  -17.4042   23.4691 C   0  0  1  0  0  0  0  0  0  0  0  0
  -27.6496  -13.1334   19.6922 C   0  0  2  0  0  0  0  0  0  0  0  0
  -33.0253  -24.4997   25.0144 C   0  0  0  0  0  0  0  0  0  0  0  0
  -35.0226  -11.9609   20.4762 C   0  0  0  0  0  0  0  0  0  0  0  0
  -39.4690  -16.6165   18.9186 C   0  0  0  0  0  0  0  0  0  0  0  0
  -37.7223  -14.9841   18.1753 C   0  0  0  0  0  0  0  0  0  0  0  0
  -39.7774  -14.1692   19.3308 C   0  0  0  0  0  0  0  0  0  0  0  0
  -34.7539  -13.5193   23.9367 C   0  0  0  0  0  0  0  0  0  0  0  0
  -34.2742  -22.3429   24.7200 C   0  0  0  0  0  0  0  0  0  1  0  0
  -38.0097  -15.3924   20.6616 C   0  0  1  0  0  0  0  0  0  0  0  0
  -33.0703  -23.1698   24.2633 C   0  0  1  0  0  0  0  0  0  0  0  0
  -35.5141  -12.7315   21.6917 C   0  0  2  0  0  0  0  0  0  0  0  0
  -38.7383  -15.3109   19.2905 C   0  0  0  0  0  0  0  0  0  0  0  0
  -31.9316  -18.8020   22.3484 N   0  0  0  0  0  0  0  0  0  0  0  0
  -25.8618  -11.5425   20.2870 N   0  0  0  0  0  0  0  0  0  0  0  0
  -26.2392  -12.8259   20.1593 N   0  0  0  0  0  0  0  0  0  0  0  0
  -38.6698  -16.9135   22.4986 N   0  0  0  0  0  0  0  0  0  0  0  0
  -29.9705  -13.6119   20.3668 N   0  0  0  0  0  0  0  0  0  0  0  0
  -25.4734  -15.0536   20.4081 N   0  0  0  0  0  0  0  0  0  0  0  0
  -21.8874  -12.5801   21.5989 N   0  0  0  0  0  0  0  0  0  0  0  0
  -30.0820  -15.6905   21.4754 N   0  0  0  0  0  0  0  0  0  0  0  0
  -31.7188  -21.2047   23.7887 N   0  0  0  0  0  0  0  0  0  0  0  0
  -41.8180  -18.4439   23.1891 N   0  0  0  0  0  0  0  0  0  0  0  0
  -37.3316  -14.1611   21.0522 N   0  0  0  0  0  0  0  0  0  0  0  0
  -34.4023  -12.8072   22.6812 N   0  3  0  0  0  0  0  0  0  0  0  0
  -22.6639  -14.7197   21.3200 O   0  0  0  0  0  0  0  0  0  0  0  0
  -29.5935  -20.4857   24.4138 O   0  0  0  0  0  0  0  0  0  0  0  0
  -40.0135  -19.1086   21.8759 O   0  0  0  0  0  0  0  0  0  0  0  0
  -39.8912  -14.9797   22.0458 O   0  0  0  0  0  0  0  0  0  0  0  0
  -30.8479  -22.8511   25.1893 O   0  0  0  0  0  0  0  0  0  0  0  0
  -35.2146  -15.0872   21.2465 O   0  0  0  0  0  0  0  0  0  0  0  0
  -31.8584  -14.9342   20.1893 O   0  0  0  0  0  0  0  0  0  0  0  0
  -21.6122   -7.0169   21.7046 O   0  0  0  0  0  0  0  0  0  0  0  0
  -34.6221  -21.4118   23.6961 O   0  0  0  0  0  0  0  0  0  1  0  0
  -18.6203   -6.8444   26.3331 F   0  0  0  0  0  0  0  0  0  0  0  0
  -19.6212   -8.8760   22.1766 F   0  0  0  0  0  0  0  0  0  0  0  0
  -29.5847  -17.8939   22.9398 S   0  0  0  0  0  0  0  0  0  0  0  0
  1  2  1  0  0  0  0
  1  5  2  0  0  0  0
  2  6  2  0  0  0  0
  3  8  2  0  0  0  0
  3 16  1  0  0  0  0
  4  9  1  0  0  0  0
  4 16  2  0  0  0  0
  5 18  1  0  0  0  0
  6 20  1  0  0  0  0
  7 10  2  0  0  0  0
  7 19  1  0  0  0  0
  8 22  1  0  0  0  0
  9 22  2  0  0  0  0
 10 23  1  0  0  0  0
 11 12  2  0  0  0  0
 11 24  1  0  0  0  0
 12 25  1  0  0  0  0
 13 21  1  0  0  0  0
 13 23  2  0  0  0  0
 14 25  2  0  0  0  0
 14 26  1  0  0  0  0
 15 29  2  0  0  0  0
 15 61  1  0  0  0  0
 16 27  1  0  0  0  0
 17 27  1  0  0  0  0
 17 28  2  0  0  0  0
 17 31  1  0  0  0  0
 18 20  2  0  0  0  0
 18 38  1  0  0  0  0
 19 21  2  0  0  0  0
 19 39  1  0  0  0  0
 20 47  1  0  0  0  0
 21 40  1  0  0  0  0
 22 80  1  0  0  0  0
 23 81  1  0  0  0  0
 24 26  2  0  0  0  0
 24 80  1  0  0  0  0
 25 82  1  0  0  0  0
 26 83  1  0  0  0  0
 27 62  2  0  0  0  0
 28 63  1  0  0  0  0
 28 66  1  0  0  0  0
 29 68  1  0  0  0  0
 29 84  1  0  0  0  0
 30 32  1  0  0  0  0
 30 61  2  0  0  0  0
 30 84  1  0  0  0  0
 31 67  1  0  0  0  0
 31 73  2  0  0  0  0
 32 69  1  0  0  0  0
 32 74  2  0  0  0  0
 33 48  1  0  0  0  0
 33 70  1  0  0  0  0
 33 75  2  0  0  0  0
 34 57  1  0  0  0  0
 34 64  1  0  0  0  0
 34 76  2  0  0  0  0
 35 58  1  0  0  0  0
 35 69  1  0  0  0  0
 35 77  2  0  0  0  0
 36 59  1  0  0  0  0
 36 71  1  0  0  0  0
 36 78  2  0  0  0  0
 37 65  1  0  0  0  0
 37 68  1  0  0  0  0
 37 79  2  0  0  0  0
 38 41  1  0  0  0  0
 39 48  1  0  0  0  0
 40 64  1  0  0  0  0
 41 43  1  0  0  0  0
 42 44  1  0  0  0  0
 42 45  1  0  0  0  0
 43 47  1  0  0  0  0
 44 49  1  0  0  0  0
 45 65  1  0  0  0  0
 46 49  1  0  0  0  0
 46 65  1  0  0  0  0
 47 70  1  0  0  0  0
 48 64  1  0  0  0  0
 49 63  1  0  0  0  0
 50 58  1  0  0  0  0
 51 59  1  0  0  0  0
 52 60  1  0  0  0  0
 53 60  1  0  0  0  0
 54 60  1  0  0  0  0
 55 72  1  0  0  0  0
 56 58  1  0  0  0  0
 56 81  1  0  0  0  0
 57 60  1  0  0  0  0
 57 71  1  0  0  0  0
 59 72  1  0  0  0  0
 62 63  1  0  0  0  0
M  CHG  1  72   1
M  ISO  4  37 100  56 101  68 100  81 101
M  END
> <Batch ID>
0183

> <Smiles>
CNC(C)C(=O)NC(C(=O)N1Cc2cc([101O:1][101CH2:1]C(C)C(=O)NC(=O)c3ncc([100NH:0][100C:0](=O)N4CCCC(n5nc(-c6ccc(Oc7ccc(F)cc7F)cc6)c(C(N)=O)c5N)C4)s3)ccc2CC1C(=O)NC1CCCc2ccccc21)C(C)(C)C

> <Shape>
0.161

> <Color>
0.180

> <Negative vol penalty>
0.000

$$$$

  -OEChem-04052304593D

 84 92  0     1  0  0  0  0  0999 V2000
  -31.7664  -27.5319   24.0943 C   0  0  0  0  0  0  0  0  0  0  0  0
  -32.4463  -26.3787   24.4728 C   0  0  0  0  0  0  0  0  0  0  0  0
  -23.2876   -9.7989   19.9115 C   0  0  0  0  0  0  0  0  0  0  0  0
  -23.7351   -9.9383   22.2816 C   0  0  0  0  0  0  0  0  0  0  0  0
  -30.5947  -27.4348   23.3450 C   0  0  0  0  0  0  0  0  0  0  0  0
  -31.9541  -25.1275   24.1030 C   0  0  0  0  0  0  0  0  0  0  0  0
  -35.2337  -20.1579   22.6700 C   0  0  0  0  0  0  0  0  0  0  0  0
  -22.5621   -8.6255   20.1174 C   0  0  0  0  0  0  0  0  0  0  0  0
  -23.0096   -8.7649   22.4876 C   0  0  0  0  0  0  0  0  0  0  0  0
  -35.5992  -19.0312   23.4053 C   0  0  0  0  0  0  0  0  0  0  0  0
  -23.2181   -5.3515   20.6413 C   0  0  0  0  0  0  0  0  0  0  0  0
  -23.4488   -4.2865   19.7706 C   0  0  0  0  0  0  0  0  0  0  0  0
  -33.7180  -17.8306   22.4894 C   0  0  0  0  0  0  0  0  0  0  0  0
  -21.1275   -4.3305   19.1019 C   0  0  0  0  0  0  0  0  0  0  0  0
  -23.8741  -10.4553   20.9935 C   0  0  0  0  0  0  0  0  0  0  0  0
  -24.1313  -12.9857   20.7970 C   0  0  0  0  0  0  0  0  0  0  0  0
  -30.0931  -26.1822   22.9577 C   0  0  0  0  0  0  0  0  0  0  0  0
  -34.0994  -20.1329   21.8459 C   0  0  0  0  0  0  0  0  0  0  0  0
  -30.7738  -25.0135   23.3490 C   0  0  0  0  0  0  0  0  0  0  0  0
  -33.3417  -18.9575   21.7427 C   0  0  0  0  0  0  0  0  0  0  0  0
  -22.4231   -8.1085   21.4055 C   0  0  0  0  0  0  0  0  0  0  0  0
  -34.8397  -17.8682   23.3173 C   0  0  0  0  0  0  0  0  0  0  0  0
  -21.9422   -5.9059   20.7425 C   0  0  0  0  0  0  0  0  0  0  0  0
  -22.4035   -3.7760   19.0008 C   0  0  0  0  0  0  0  0  0  0  0  0
  -20.8969   -5.3955   19.9728 C   0  0  0  0  0  0  0  0  0  0  0  0
  -24.6242  -11.6671   20.7813 C   0  0  0  0  0  0  0  0  0  0  0  0
  -33.0610  -13.7600   25.2434 C   0  0  0  0  0  0  0  0  0  0  0  0
  -25.2323  -13.7668   20.5441 C   0  0  0  0  0  0  0  0  0  0  0  0
  -32.0698  -13.5251   26.1732 C   0  0  0  0  0  0  0  0  0  0  0  0
  -31.4437  -13.2076   23.8689 C   0  0  0  0  0  0  0  0  0  0  0  0
  -22.7975  -13.4618   21.0205 C   0  0  0  0  0  0  0  0  0  0  0  0
  -34.4399  -14.1814   25.5780 C   0  0  0  0  0  0  0  0  0  0  0  0
  -31.3494  -21.7249   21.7656 C   0  0  0  0  0  0  0  0  0  0  0  0
  -30.9311  -20.0876   18.9967 C   0  0  0  0  0  0  0  0  0  0  0  0
  -31.6985  -17.3542   17.1030 C   0  0  0  0  0  0  0  0  0  0  0  0
  -31.0924  -12.9576   21.3869 C   0  0  0  0  0  0  0  0  0  0  0  0
  -28.7972  -26.1255   22.1883 C   0  0  0  0  0  0  0  0  0  0  0  0
  -33.7339  -21.3482   21.0386 C   0  0  0  0  0  0  0  0  0  0  0  0
  -32.1267  -18.8725   20.8567 C   0  0  0  0  0  0  0  0  0  0  0  0
  -28.5453  -24.7774   21.5179 C   0  0  0  0  0  0  0  0  0  0  0  0
  -29.4622  -13.6628   18.3010 C   0  0  0  0  0  0  0  0  0  0  0  0
  -28.8200  -23.6368   22.4928 C   0  0  0  0  0  0  0  0  0  0  0  0
  -27.9908  -13.3568   18.5901 C   0  0  0  0  0  0  0  0  0  0  0  0
  -30.3954  -12.6879   19.0169 C   0  0  0  0  0  0  0  0  0  0  0  0
  -28.7004  -12.2569   20.7519 C   0  0  0  0  0  0  0  0  0  0  0  0
  -30.2849  -23.6391   22.9460 C   0  0  1  0  0  0  0  0  0  0  0  0
  -32.2649  -21.3727   20.6274 C   0  0  1  0  0  0  0  0  0  0  0  0
  -27.7239  -13.2524   20.1045 C   0  0  2  0  0  0  0  0  0  0  0  0
  -35.5597  -13.0799   23.6288 C   0  0  0  0  0  0  0  0  0  0  0  0
  -31.1709  -16.2721   14.9012 C   0  0  0  0  0  0  0  0  0  0  0  0
  -28.2496  -19.1445   20.1056 C   0  0  0  0  0  0  0  0  0  0  0  0
  -28.2221  -17.3704   18.3392 C   0  0  0  0  0  0  0  0  0  0  0  0
  -28.2135  -19.7780   17.6865 C   0  0  0  0  0  0  0  0  0  0  0  0
  -34.5122  -17.5416   16.2049 C   0  0  0  0  0  0  0  0  0  0  0  0
  -36.6340  -14.9430   28.1384 C   0  0  0  0  0  0  0  0  0  0  0  0
  -34.8643  -15.4955   23.4773 C   0  0  0  0  0  0  0  0  0  1  0  0
  -35.3917  -14.3900   24.3946 C   0  0  1  0  0  0  0  0  0  0  0  0
  -30.3274  -18.7554   18.6233 C   0  0  1  0  0  0  0  0  0  0  0  0
  -32.0995  -17.2192   15.6451 C   0  0  2  0  0  0  0  0  0  0  0  0
  -28.7749  -18.7639   18.7069 C   0  0  0  0  0  0  0  0  0  0  0  0
  -25.9361  -11.6099   20.5375 N   0  0  0  0  0  0  0  0  0  0  0  0
  -32.7040  -13.5780   23.9216 N   0  0  0  0  0  0  0  0  0  0  0  0
  -34.8876  -14.3675   26.7847 N   0  0  0  0  0  0  0  0  0  0  0  0
  -26.2770  -12.9023   20.3975 N   0  0  0  0  0  0  0  0  0  0  0  0
  -31.8063  -20.0892   20.0921 N   0  0  0  0  0  0  0  0  0  0  0  0
  -30.0868  -12.6446   20.4479 N   0  0  0  0  0  0  0  0  0  0  0  0
  -25.3991  -15.1020   20.4348 N   0  0  0  0  0  0  0  0  0  0  0  0
  -32.1437  -13.6250   27.5232 N   0  0  0  0  0  0  0  0  0  0  0  0
  -21.7855  -12.5237   21.2659 N   0  0  0  0  0  0  0  0  0  0  0  0
  -30.6735  -12.9146   22.7162 N   0  0  0  0  0  0  0  0  0  0  0  0
  -31.1339  -23.0816   21.9151 N   0  0  0  0  0  0  0  0  0  0  0  0
  -30.8528  -18.4248   17.3031 N   0  0  0  0  0  0  0  0  0  0  0  0
  -33.4904  -16.6951   15.5369 N   0  3  0  0  0  0  0  0  0  0  0  0
  -22.5084  -14.6820   20.9866 O   0  0  0  0  0  0  0  0  0  0  0  0
  -30.8727  -20.8319   22.4561 O   0  0  0  0  0  0  0  0  0  0  0  0
  -30.6426  -21.0888   18.3363 O   0  0  0  0  0  0  0  0  0  0  0  0
  -32.0928  -16.5845   17.9763 O   0  0  0  0  0  0  0  0  0  0  0  0
  -32.2334  -13.2692   21.0362 O   0  0  0  0  0  0  0  0  0  0  0  0
  -21.7150   -6.9637   21.6069 O   0  0  0  0  0  0  0  0  0  0  0  0
  -35.1939  -16.7673   24.0345 O   0  0  0  0  0  0  0  0  0  1  0  0
  -36.2316  -14.7639   26.7893 O   0  0  0  0  0  0  0  0  0  0  0  0
  -22.6255   -2.7544   18.1635 F   0  0  0  0  0  0  0  0  0  0  0  0
  -19.6692   -5.9248   20.0647 F   0  0  0  0  0  0  0  0  0  0  0  0
  -30.6274  -13.0588   25.3710 S   0  0  0  0  0  0  0  0  0  0  0  0
  1  2  1  0  0  0  0
  1  5  2  0  0  0  0
  2  6  2  0  0  0  0
  3  8  2  0  0  0  0
  3 15  1  0  0  0  0
  4  9  1  0  0  0  0
  4 15  2  0  0  0  0
  5 17  1  0  0  0  0
  6 19  1  0  0  0  0
  7 10  2  0  0  0  0
  7 18  1  0  0  0  0
  8 21  1  0  0  0  0
  9 21  2  0  0  0  0
 10 22  1  0  0  0  0
 11 12  2  0  0  0  0
 11 23  1  0  0  0  0
 12 24  1  0  0  0  0
 13 20  1  0  0  0  0
 13 22  2  0  0  0  0
 14 24  2  0  0  0  0
 14 25  1  0  0  0  0
 15 26  1  0  0  0  0
 16 26  1  0  0  0  0
 16 28  2  0  0  0  0
 16 31  1  0  0  0  0
 17 19  2  0  0  0  0
 17 37  1  0  0  0  0
 18 20  2  0  0  0  0
 18 38  1  0  0  0  0
 19 46  1  0  0  0  0
 20 39  1  0  0  0  0
 21 79  1  0  0  0  0
 22 80  1  0  0  0  0
 23 25  2  0  0  0  0
 23 79  1  0  0  0  0
 24 82  1  0  0  0  0
 25 83  1  0  0  0  0
 26 61  2  0  0  0  0
 27 29  2  0  0  0  0
 27 32  1  0  0  0  0
 27 62  1  0  0  0  0
 28 64  1  0  0  0  0
 28 67  1  0  0  0  0
 29 68  1  0  0  0  0
 29 84  1  0  0  0  0
 30 62  2  0  0  0  0
 30 70  1  0  0  0  0
 30 84  1  0  0  0  0
 31 69  1  0  0  0  0
 31 74  2  0  0  0  0
 32 57  1  0  0  0  0
 32 63  2  0  0  0  0
 33 47  1  0  0  0  0
 33 71  1  0  0  0  0
 33 75  2  0  0  0  0
 34 58  1  0  0  0  0
 34 65  1  0  0  0  0
 34 76  2  0  0  0  0
 35 59  1  0  0  0  0
 35 72  1  0  0  0  0
 35 77  2  0  0  0  0
 36 66  1  0  0  0  0
 36 70  1  0  0  0  0
 36 78  2  0  0  0  0
 37 40  1  0  0  0  0
 38 47  1  0  0  0  0
 39 65  1  0  0  0  0
 40 42  1  0  0  0  0
 41 43  1  0  0  0  0
 41 44  1  0  0  0  0
 42 46  1  0  0  0  0
 43 48  1  0  0  0  0
 44 66  1  0  0  0  0
 45 48  1  0  0  0  0
 45 66  1  0  0  0  0
 46 71  1  0  0  0  0
 47 65  1  0  0  0  0
 48 64  1  0  0  0  0
 49 57  1  0  0  0  0
 50 59  1  0  0  0  0
 51 60  1  0  0  0  0
 52 60  1  0  0  0  0
 53 60  1  0  0  0  0
 54 73  1  0  0  0  0
 55 81  1  0  0  0  0
 56 57  1  0  0  0  0
 56 80  1  0  0  0  0
 58 60  1  0  0  0  0
 58 72  1  0  0  0  0
 59 73  1  0  0  0  0
 61 64  1  0  0  0  0
 63 81  1  0  0  0  0
M  CHG  1  73   1
M  ISO  4  36 100  56 101  70 100  80 101
M  END
> <Batch ID>
0183

> <Smiles>
CNC(C)C(=O)NC(C(=O)N1Cc2cc([101O:1][101CH2:1]C(C)C(=NOC)c3nc([100NH:0][100C:0](=O)N4CCCC(n5nc(-c6ccc(Oc7ccc(F)cc7F)cc6)c(C(N)=O)c5N)C4)sc3N)ccc2CC1C(=O)NC1CCCc2ccccc21)C(C)(C)C

> <Shape>
0.160

> <Color>
0.164

> <Negative vol penalty>
0.000

$$$$

  -OEChem-04052304593D

 84 92  0     1  0  0  0  0  0999 V2000
  -16.9422  -29.1540   24.4583 C   0  0  0  0  0  0  0  0  0  0  0  0
  -17.3348  -28.0669   23.6840 C   0  0  0  0  0  0  0  0  0  0  0  0
  -27.3239  -17.9101   19.8368 C   0  0  0  0  0  0  0  0  0  0  0  0
  -28.5738  -17.8854   21.9041 C   0  0  0  0  0  0  0  0  0  0  0  0
  -17.5988  -30.3767   24.3248 C   0  0  0  0  0  0  0  0  0  0  0  0
  -18.3836  -28.2021   22.7751 C   0  0  0  0  0  0  0  0  0  0  0  0
  -22.5208  -23.9458   21.2677 C   0  0  0  0  0  0  0  0  0  0  0  0
  -27.1139  -16.5356   19.9473 C   0  0  0  0  0  0  0  0  0  0  0  0
  -28.3639  -16.5109   22.0147 C   0  0  0  0  0  0  0  0  0  0  0  0
  -22.6125  -23.0674   20.1889 C   0  0  0  0  0  0  0  0  0  0  0  0
  -25.0820  -14.4570   21.6746 C   0  0  0  0  0  0  0  0  0  0  0  0
  -23.7964  -13.9756   21.4273 C   0  0  0  0  0  0  0  0  0  0  0  0
  -24.0668  -24.6221   19.0544 C   0  0  0  0  0  0  0  0  0  0  0  0
  -24.6532  -12.6131   19.6254 C   0  0  0  0  0  0  0  0  0  0  0  0
  -28.0539  -18.5850   20.8152 C   0  0  0  0  0  0  0  0  0  0  0  0
  -27.4546  -21.0334   21.2077 C   0  0  0  0  0  0  0  0  0  0  0  0
  -18.6625  -30.5244   23.4207 C   0  0  0  0  0  0  0  0  0  0  0  0
  -23.1938  -25.1758   21.2432 C   0  0  0  0  0  0  0  0  0  0  0  0
  -19.0541  -29.4283   22.6285 C   0  0  0  0  0  0  0  0  0  0  0  0
  -23.9841  -25.5132   20.1352 C   0  0  0  0  0  0  0  0  0  0  0  0
  -27.6339  -15.8360   21.0362 C   0  0  0  0  0  0  0  0  0  0  0  0
  -23.3833  -23.4068   19.0808 C   0  0  0  0  0  0  0  0  0  0  0  0
  -26.1532  -14.0165   20.8972 C   0  0  0  0  0  0  0  0  0  0  0  0
  -23.5820  -13.0537   20.4027 C   0  0  0  0  0  0  0  0  0  0  0  0
  -25.9388  -13.0946   19.8727 C   0  0  0  0  0  0  0  0  0  0  0  0
  -28.2715  -20.0048   20.7013 C   0  0  0  0  0  0  0  0  0  0  0  0
  -28.8151  -24.5660   14.3652 C   0  0  0  0  0  0  0  0  0  0  0  0
  -28.0921  -22.1921   20.8371 C   0  0  0  0  0  0  0  0  0  0  0  0
  -28.3350  -25.1445   13.2090 C   0  0  0  0  0  0  0  0  0  0  0  0
  -26.6696  -24.2835   14.7215 C   0  0  0  0  0  0  0  0  0  0  0  0
  -26.2291  -20.9490   21.9471 C   0  0  0  0  0  0  0  0  0  0  0  0
  -30.2550  -24.4517   14.7123 C   0  0  0  0  0  0  0  0  0  0  0  0
  -22.2989  -28.2245   21.3341 C   0  0  0  0  0  0  0  0  0  0  0  0
  -25.4953  -28.7532   21.4943 C   0  0  0  0  0  0  0  0  0  0  0  0
  -28.6534  -27.6296   20.8536 C   0  0  0  0  0  0  0  0  0  0  0  0
  -25.1693  -23.3005   16.4884 C   0  0  0  0  0  0  0  0  0  0  0  0
  -31.8202  -23.5848   16.4218 C   0  0  0  0  0  0  0  0  0  0  0  0
  -19.3108  -31.8786   23.2775 C   0  0  0  0  0  0  0  0  0  0  0  0
  -23.1061  -26.1005   22.4263 C   0  0  0  0  0  0  0  0  0  0  0  0
  -24.7425  -26.8128   20.0683 C   0  0  0  0  0  0  0  0  0  0  0  0
  -20.6580  -31.8362   22.5608 C   0  0  0  0  0  0  0  0  0  0  0  0
  -32.4582  -23.9250   19.8822 C   0  0  0  0  0  0  0  0  0  0  0  0
  -20.5668  -30.9779   21.3031 C   0  0  0  0  0  0  0  0  0  0  0  0
  -31.3732  -23.0647   20.5357 C   0  0  0  0  0  0  0  0  0  0  0  0
  -32.9820  -23.2946   18.5925 C   0  0  0  0  0  0  0  0  0  0  0  0
  -30.8710  -22.0714   18.2673 C   0  0  0  0  0  0  0  0  0  0  0  0
  -20.2036  -29.5288   21.6493 C   0  0  1  0  0  0  0  0  0  0  0  0
  -23.4196  -27.5516   22.0749 C   0  0  1  0  0  0  0  0  0  0  0  0
  -30.2616  -22.6975   19.5321 C   0  0  1  0  0  0  0  0  0  0  0  0
  -31.1626  -27.5975   20.8752 C   0  0  0  0  0  0  0  0  0  0  0  0
  -23.0268  -22.2422   15.6828 C   0  0  0  0  0  0  0  0  0  0  0  0
  -25.1782  -30.6284   19.1083 C   0  0  0  0  0  0  0  0  0  0  0  0
  -27.6568  -30.5107   18.7752 C   0  0  0  0  0  0  0  0  0  0  0  0
  -26.7276  -31.4572   20.8878 C   0  0  0  0  0  0  0  0  0  0  0  0
  -28.7284  -26.1912   23.4390 C   0  0  0  0  0  0  0  0  0  0  0  0
  -26.5959  -28.9651   20.4830 C   0  0  1  0  0  0  0  0  0  0  0  0
  -29.8985  -27.5754   21.7204 C   0  0  2  0  0  0  0  0  0  0  0  0
  -23.6729  -23.1293   16.7366 C   0  0  1  0  0  0  0  0  0  1  0  0
  -26.5239  -30.3666   19.8137 C   0  0  0  0  0  0  0  0  0  0  0  0
  -29.3459  -20.4692   20.0578 N   0  0  0  0  0  0  0  0  0  0  0  0
  -27.8616  -24.0721   15.2339 N   0  0  0  0  0  0  0  0  0  0  0  0
  -29.2085  -21.8023   20.1573 N   0  0  0  0  0  0  0  0  0  0  0  0
  -24.6200  -27.6861   21.2472 N   0  0  0  0  0  0  0  0  0  0  0  0
  -31.8691  -22.9860   17.6927 N   0  0  0  0  0  0  0  0  0  0  0  0
  -27.8011  -23.4962   21.0294 N   0  0  0  0  0  0  0  0  0  0  0  0
  -29.0391  -25.7040   12.1945 N   0  0  0  0  0  0  0  0  0  0  0  0
  -25.7134  -19.6798   22.2430 N   0  0  0  0  0  0  0  0  0  0  0  0
  -25.4144  -23.9389   15.2771 N   0  0  0  0  0  0  0  0  0  0  0  0
  -30.5334  -23.8316   15.9307 N   0  0  0  0  0  0  0  0  0  0  0  0
  -21.3624  -28.8242   22.1544 N   0  0  0  0  0  0  0  0  0  0  0  0
  -27.8489  -28.7002   21.1817 N   0  0  0  0  0  0  0  0  0  0  0  0
  -29.9040  -26.3319   22.5418 N   0  3  0  0  0  0  0  0  0  0  0  0
  -25.6013  -21.9690   22.3198 O   0  0  0  0  0  0  0  0  0  0  0  0
  -31.0963  -24.8596   13.9163 O   0  0  0  0  0  0  0  0  0  0  0  0
  -22.2856  -28.2026   20.1089 O   0  0  0  0  0  0  0  0  0  0  0  0
  -25.4194  -29.5023   22.4714 O   0  0  0  0  0  0  0  0  0  0  0  0
  -28.4199  -26.8067   19.9710 O   0  0  0  0  0  0  0  0  0  0  0  0
  -25.9985  -22.9140   17.3071 O   0  0  0  0  0  0  0  0  0  0  0  0
  -32.8342  -23.9071   15.7946 O   0  0  0  0  0  0  0  0  0  0  0  0
  -27.4291  -14.4948   21.1445 O   0  0  0  0  0  0  0  0  0  0  0  0
  -23.4740  -22.5515   18.0262 O   0  0  0  0  0  0  0  0  0  1  0  0
  -22.3477  -12.5903   20.1664 F   0  0  0  0  0  0  0  0  0  0  0  0
  -26.9641  -12.6668   19.1233 F   0  0  0  0  0  0  0  0  0  0  0  0
  -26.6215  -25.0710   13.1975 S   0  0  0  0  0  0  0  0  0  0  0  0
  1  2  1  0  0  0  0
  1  5  2  0  0  0  0
  2  6  2  0  0  0  0
  3  8  2  0  0  0  0
  3 15  1  0  0  0  0
  4  9  1  0  0  0  0
  4 15  2  0  0  0  0
  5 17  1  0  0  0  0
  6 19  1  0  0  0  0
  7 10  2  0  0  0  0
  7 18  1  0  0  0  0
  8 21  1  0  0  0  0
  9 21  2  0  0  0  0
 10 22  1  0  0  0  0
 11 12  2  0  0  0  0
 11 23  1  0  0  0  0
 12 24  1  0  0  0  0
 13 20  1  0  0  0  0
 13 22  2  0  0  0  0
 14 24  2  0  0  0  0
 14 25  1  0  0  0  0
 15 26  1  0  0  0  0
 16 26  1  0  0  0  0
 16 28  2  0  0  0  0
 16 31  1  0  0  0  0
 17 19  2  0  0  0  0
 17 38  1  0  0  0  0
 18 20  2  0  0  0  0
 18 39  1  0  0  0  0
 19 47  1  0  0  0  0
 20 40  1  0  0  0  0
 21 80  1  0  0  0  0
 22 81  1  0  0  0  0
 23 25  2  0  0  0  0
 23 80  1  0  0  0  0
 24 82  1  0  0  0  0
 25 83  1  0  0  0  0
 26 60  2  0  0  0  0
 27 29  2  0  0  0  0
 27 32  1  0  0  0  0
 27 61  1  0  0  0  0
 28 62  1  0  0  0  0
 28 65  1  0  0  0  0
 29 66  1  0  0  0  0
 29 84  1  0  0  0  0
 30 61  2  0  0  0  0
 30 68  1  0  0  0  0
 30 84  1  0  0  0  0
 31 67  1  0  0  0  0
 31 73  2  0  0  0  0
 32 69  1  0  0  0  0
 32 74  2  0  0  0  0
 33 48  1  0  0  0  0
 33 70  1  0  0  0  0
 33 75  2  0  0  0  0
 34 56  1  0  0  0  0
 34 63  1  0  0  0  0
 34 76  2  0  0  0  0
 35 57  1  0  0  0  0
 35 71  1  0  0  0  0
 35 77  2  0  0  0  0
 36 58  1  0  0  0  0
 36 68  1  0  0  0  0
 36 78  2  0  0  0  0
 37 64  1  0  0  0  0
 37 69  1  0  0  0  0
 37 79  2  0  0  0  0
 38 41  1  0  0  0  0
 39 48  1  0  0  0  0
 40 63  1  0  0  0  0
 41 43  1  0  0  0  0
 42 44  1  0  0  0  0
 42 45  1  0  0  0  0
 43 47  1  0  0  0  0
 44 49  1  0  0  0  0
 45 64  1  0  0  0  0
 46 49  1  0  0  0  0
 46 64  1  0  0  0  0
 47 70  1  0  0  0  0
 48 63  1  0  0  0  0
 49 62  1  0  0  0  0
 50 57  1  0  0  0  0
 51 58  1  0  0  0  0
 52 59  1  0  0  0  0
 53 59  1  0  0  0  0
 54 59  1  0  0  0  0
 55 72  1  0  0  0  0
 56 59  1  0  0  0  0
 56 71  1  0  0  0  0
 57 72  1  0  0  0  0
 58 81  1  0  0  0  0
 60 62  1  0  0  0  0
M  CHG  1  72   1
M  ISO  4  37 100  58 101  69 100  81 101
M  END
> <Batch ID>
0183

> <Smiles>
CNC(C)C(=O)NC(C(=O)N1Cc2cc([101O:1][101CH:1](C)C(=O)Nc3nc(C(=O)[100NH:0][100C:0](=O)N4CCCC(n5nc(-c6ccc(Oc7ccc(F)cc7F)cc6)c(C(N)=O)c5N)C4)c(N)s3)ccc2CC1C(=O)NC1CCCc2ccccc21)C(C)(C)C

> <Shape>
0.215

> <Color>
0.073

> <Negative vol penalty>
0.000

$$$$

  -OEChem-04052304593D

 84 92  0     1  0  0  0  0  0999 V2000
  -17.2180  -26.8686   21.8506 C   0  0  0  0  0  0  0  0  0  0  0  0
  -18.3137  -26.7118   21.0079 C   0  0  0  0  0  0  0  0  0  0  0  0
  -25.4631  -14.1552   21.5610 C   0  0  0  0  0  0  0  0  0  0  0  0
  -26.8365  -13.8943   19.5905 C   0  0  0  0  0  0  0  0  0  0  0  0
  -17.1624  -27.9528   22.7255 C   0  0  0  0  0  0  0  0  0  0  0  0
  -19.3541  -27.6397   21.0389 C   0  0  0  0  0  0  0  0  0  0  0  0
  -25.3151  -26.5167   20.1955 C   0  0  0  0  0  0  0  0  0  0  0  0
  -24.6116  -13.1510   21.1006 C   0  0  0  0  0  0  0  0  0  0  0  0
  -25.9850  -12.8899   19.1301 C   0  0  0  0  0  0  0  0  0  0  0  0
  -26.1474  -26.6530   19.0853 C   0  0  0  0  0  0  0  0  0  0  0  0
  -24.5824   -9.7720   20.9785 C   0  0  0  0  0  0  0  0  0  0  0  0
  -24.1737   -8.7998   21.8913 C   0  0  0  0  0  0  0  0  0  0  0  0
  -26.8544  -28.8151   19.8882 C   0  0  0  0  0  0  0  0  0  0  0  0
  -21.8695   -9.4309   21.5317 C   0  0  0  0  0  0  0  0  0  0  0  0
  -30.8107  -20.4564   16.1706 C   0  0  0  0  0  0  0  0  0  0  0  0
  -26.5755  -14.5269   20.8060 C   0  0  0  0  0  0  0  0  0  0  0  0
  -28.5932  -15.4080   22.0944 C   0  0  0  0  0  0  0  0  0  0  0  0
  -18.2072  -28.8892   22.7740 C   0  0  0  0  0  0  0  0  0  0  0  0
  -25.2379  -27.5351   21.1564 C   0  0  0  0  0  0  0  0  0  0  0  0
  -19.3119  -28.7382   21.9143 C   0  0  0  0  0  0  0  0  0  0  0  0
  -26.0223  -28.6882   21.0110 C   0  0  0  0  0  0  0  0  0  0  0  0
  -24.8726  -12.5183   19.8852 C   0  0  0  0  0  0  0  0  0  0  0  0
  -26.9150  -27.8035   18.9300 C   0  0  0  0  0  0  0  0  0  0  0  0
  -23.6347  -10.5738   20.3423 C   0  0  0  0  0  0  0  0  0  0  0  0
  -22.8172   -8.6292   22.1679 C   0  0  0  0  0  0  0  0  0  0  0  0
  -22.2782  -10.4032   20.6189 C   0  0  0  0  0  0  0  0  0  0  0  0
  -27.4552  -15.5647   21.2808 C   0  0  0  0  0  0  0  0  0  0  0  0
  -30.1590  -21.3138   17.0322 C   0  0  0  0  0  0  0  0  0  0  0  0
  -29.0750  -16.6835   22.2602 C   0  0  0  0  0  0  0  0  0  0  0  0
  -31.1692  -22.8067   15.7829 C   0  0  0  0  0  0  0  0  0  0  0  0
  -28.7162  -27.0135   17.6642 C   0  0  0  0  0  0  0  0  0  1  0  0
  -29.1640  -14.2161   22.6506 C   0  0  0  0  0  0  0  0  0  0  0  0
  -29.5718  -27.0486   16.6362 C   0  0  0  0  0  0  0  0  0  0  0  0
  -30.6263  -25.9969   16.5678 C   0  0  0  0  0  0  0  0  0  0  0  0
  -22.9268  -29.4343   22.2313 C   0  0  0  0  0  0  0  0  0  0  0  0
  -25.2001  -30.3474   24.3575 C   0  0  0  0  0  0  0  0  0  0  0  0
  -28.5169  -30.6369   25.1070 C   0  0  0  0  0  0  0  0  0  0  0  0
  -28.6284  -21.6717   19.0008 C   0  0  0  0  0  0  0  0  0  0  0  0
  -18.0804  -30.0707   23.7027 C   0  0  0  0  0  0  0  0  0  0  0  0
  -24.3554  -27.3612   22.3620 C   0  0  0  0  0  0  0  0  0  0  0  0
  -25.9909  -29.8017   22.0246 C   0  0  0  0  0  0  0  0  0  0  0  0
  -19.3984  -30.8035   23.9395 C   0  0  0  0  0  0  0  0  0  0  0  0
  -27.6260  -21.2462   22.3907 C   0  0  0  0  0  0  0  0  0  0  0  0
  -20.1234  -31.0385   22.6181 C   0  0  0  0  0  0  0  0  0  0  0  0
  -27.5779  -19.7267   22.5665 C   0  0  0  0  0  0  0  0  0  0  0  0
  -27.1543  -21.6716   21.0013 C   0  0  0  0  0  0  0  0  0  0  0  0
  -27.7855  -19.4844   20.0595 C   0  0  0  0  0  0  0  0  0  0  0  0
  -20.4717  -29.7100   21.9360 C   0  0  1  0  0  0  0  0  0  0  0  0
  -23.9673  -28.6845   23.0142 C   0  0  1  0  0  0  0  0  0  0  0  0
  -28.3130  -19.0033   21.4211 C   0  0  2  0  0  0  0  0  0  0  0  0
  -30.0665  -31.4560   26.9029 C   0  0  0  0  0  0  0  0  0  0  0  0
  -24.6659  -33.2271   23.5018 C   0  0  0  0  0  0  0  0  0  0  0  0
  -26.8295  -33.8758   24.5817 C   0  0  0  0  0  0  0  0  0  0  0  0
  -24.9882  -32.9125   25.9618 C   0  0  0  0  0  0  0  0  0  0  0  0
  -29.6317  -25.3014   14.3789 C   0  0  0  0  0  0  0  0  0  0  0  0
  -29.6725  -27.9410   25.5010 C   0  0  0  0  0  0  0  0  0  0  0  0
  -31.6257  -24.1303   15.2407 C   0  0  0  0  0  0  0  0  0  0  0  0
  -26.2725  -31.4096   24.3858 C   0  0  1  0  0  0  0  0  0  0  0  0
  -29.3055  -30.2616   26.3486 C   0  0  2  0  0  0  0  0  0  0  0  0
  -25.6884  -32.8363   24.5875 C   0  0  0  0  0  0  0  0  0  0  0  0
  -27.2274  -16.8392   20.9526 N   0  0  0  0  0  0  0  0  0  0  0  0
  -30.3637  -22.6619   16.8116 N   0  0  0  0  0  0  0  0  0  0  0  0
  -28.2289  -17.4951   21.5632 N   0  0  0  0  0  0  0  0  0  0  0  0
  -25.1076  -29.5875   23.1829 N   0  0  0  0  0  0  0  0  0  0  0  0
  -27.8977  -20.9485   19.9672 N   0  0  0  0  0  0  0  0  0  0  0  0
  -30.1355  -17.1789   22.9328 N   0  0  0  0  0  0  0  0  0  0  0  0
  -28.5426  -12.9891   22.3810 N   0  0  0  0  0  0  0  0  0  0  0  0
  -29.3216  -20.8769   18.0884 N   0  0  0  0  0  0  0  0  0  0  0  0
  -21.6267  -29.1063   22.5653 N   0  0  0  0  0  0  0  0  0  0  0  0
  -27.2234  -31.0023   25.4145 N   0  0  0  0  0  0  0  0  0  0  0  0
  -30.6288  -25.1741   15.4399 N   0  0  0  0  0  0  0  0  0  0  0  0
  -30.2862  -29.1846   26.0335 N   0  3  0  0  0  0  0  0  0  0  0  0
  -30.1849  -14.2403   23.3790 O   0  0  0  0  0  0  0  0  0  0  0  0
  -31.4495  -25.9199   17.4823 O   0  0  0  0  0  0  0  0  0  0  0  0
  -23.2776  -30.2510   21.3878 O   0  0  0  0  0  0  0  0  0  0  0  0
  -24.4759  -30.1928   25.3441 O   0  0  0  0  0  0  0  0  0  0  0  0
  -29.0011  -30.6123   23.9776 O   0  0  0  0  0  0  0  0  0  0  0  0
  -28.6605  -22.9050   19.0004 O   0  0  0  0  0  0  0  0  0  0  0  0
  -29.5608  -28.0352   15.6757 O   0  0  0  0  0  0  0  0  0  0  0  0
  -24.0420  -11.5381   19.4357 O   0  0  0  0  0  0  0  0  0  0  0  0
  -27.7277  -27.9393   17.8470 O   0  0  0  0  0  0  0  0  0  1  0  0
  -22.4248   -7.6944   23.0433 F   0  0  0  0  0  0  0  0  0  0  0  0
  -21.3630  -11.1696   20.0100 F   0  0  0  0  0  0  0  0  0  0  0  0
  -31.7181  -21.3640   15.0329 S   0  0  0  0  0  0  0  0  0  0  0  0
  1  2  1  0  0  0  0
  1  5  2  0  0  0  0
  2  6  2  0  0  0  0
  3  8  2  0  0  0  0
  3 16  1  0  0  0  0
  4  9  1  0  0  0  0
  4 16  2  0  0  0  0
  5 18  1  0  0  0  0
  6 20  1  0  0  0  0
  7 10  2  0  0  0  0
  7 19  1  0  0  0  0
  8 22  1  0  0  0  0
  9 22  2  0  0  0  0
 10 23  1  0  0  0  0
 11 12  2  0  0  0  0
 11 24  1  0  0  0  0
 12 25  1  0  0  0  0
 13 21  1  0  0  0  0
 13 23  2  0  0  0  0
 14 25  2  0  0  0  0
 14 26  1  0  0  0  0
 15 28  2  0  0  0  0
 15 84  1  0  0  0  0
 16 27  1  0  0  0  0
 17 27  1  0  0  0  0
 17 29  2  0  0  0  0
 17 32  1  0  0  0  0
 18 20  2  0  0  0  0
 18 39  1  0  0  0  0
 19 21  2  0  0  0  0
 19 40  1  0  0  0  0
 20 48  1  0  0  0  0
 21 41  1  0  0  0  0
 22 80  1  0  0  0  0
 23 81  1  0  0  0  0
 24 26  2  0  0  0  0
 24 80  1  0  0  0  0
 25 82  1  0  0  0  0
 26 83  1  0  0  0  0
 27 61  2  0  0  0  0
 28 62  1  0  0  0  0
 28 68  1  0  0  0  0
 29 63  1  0  0  0  0
 29 66  1  0  0  0  0
 30 57  1  0  0  0  0
 30 62  2  0  0  0  0
 30 84  1  0  0  0  0
 31 33  2  0  0  0  0
 31 81  1  0  0  0  0
 32 67  1  0  0  0  0
 32 73  2  0  0  0  0
 33 34  1  0  0  0  0
 33 79  1  0  0  0  0
 34 71  1  0  0  0  0
 34 74  2  0  0  0  0
 35 49  1  0  0  0  0
 35 69  1  0  0  0  0
 35 75  2  0  0  0  0
 36 58  1  0  0  0  0
 36 64  1  0  0  0  0
 36 76  2  0  0  0  0
 37 59  1  0  0  0  0
 37 70  1  0  0  0  0
 37 77  2  0  0  0  0
 38 65  1  0  0  0  0
 38 68  1  0  0  0  0
 38 78  2  0  0  0  0
 39 42  1  0  0  0  0
 40 49  1  0  0  0  0
 41 64  1  0  0  0  0
 42 44  1  0  0  0  0
 43 45  1  0  0  0  0
 43 46  1  0  0  0  0
 44 48  1  0  0  0  0
 45 50  1  0  0  0  0
 46 65  1  0  0  0  0
 47 50  1  0  0  0  0
 47 65  1  0  0  0  0
 48 69  1  0  0  0  0
 49 64  1  0  0  0  0
 50 63  1  0  0  0  0
 51 59  1  0  0  0  0
 52 60  1  0  0  0  0
 53 60  1  0  0  0  0
 54 60  1  0  0  0  0
 55 71  1  0  0  0  0
 56 72  1  0  0  0  0
 57 71  1  0  0  0  0
 58 60  1  0  0  0  0
 58 70  1  0  0  0  0
 59 72  1  0  0  0  0
 61 63  1  0  0  0  0
M  CHG  1  72   1
M  ISO  4  31 101  38 100  68 100  81 101
M  END
> <Batch ID>
0183

> <Smiles>
CNC(C)C(=O)NC(C(=O)N1Cc2cc([101O:1][101CH2:1]C(=O)C(=O)N(C)Cc3nc([100NH:0][100C:0](=O)N4CCCC(n5nc(-c6ccc(Oc7ccc(F)cc7F)cc6)c(C(N)=O)c5N)C4)cs3)ccc2CC1C(=O)NC1CCCc2ccccc21)C(C)(C)C

> <Shape>
0.312

> <Color>
0.075

> <Negative vol penalty>
0.000

$$$$

  -OEChem-04052304593D

 83 91  0     1  0  0  0  0  0999 V2000
  -28.3285  -17.6972   17.1015 C   0  0  0  0  0  0  0  0  0  0  0  0
  -28.6735  -17.9867   18.4177 C   0  0  0  0  0  0  0  0  0  0  0  0
  -23.0710   -9.9219   19.8892 C   0  0  0  0  0  0  0  0  0  0  0  0
  -23.8143   -9.8329   22.1863 C   0  0  0  0  0  0  0  0  0  0  0  0
  -28.5207  -18.6534   16.1052 C   0  0  0  0  0  0  0  0  0  0  0  0
  -29.2119  -19.2324   18.7383 C   0  0  0  0  0  0  0  0  0  0  0  0
  -27.1461  -21.2266   22.9097 C   0  0  0  0  0  0  0  0  0  0  0  0
  -22.3061   -8.7733   20.0922 C   0  0  0  0  0  0  0  0  0  0  0  0
  -23.0493   -8.6842   22.3893 C   0  0  0  0  0  0  0  0  0  0  0  0
  -27.5835  -20.7298   24.1368 C   0  0  0  0  0  0  0  0  0  0  0  0
  -20.4398   -5.6578   19.9072 C   0  0  0  0  0  0  0  0  0  0  0  0
  -20.4925   -4.6611   18.9329 C   0  0  0  0  0  0  0  0  0  0  0  0
  -29.0326  -22.6421   24.3875 C   0  0  0  0  0  0  0  0  0  0  0  0
  -22.8716   -4.4380   19.2901 C   0  0  0  0  0  0  0  0  0  0  0  0
  -23.8251  -10.4517   20.9363 C   0  0  0  0  0  0  0  0  0  0  0  0
  -24.2101  -12.9733   20.9104 C   0  0  0  0  0  0  0  0  0  0  0  0
  -29.0528  -19.9149   16.4153 C   0  0  0  0  0  0  0  0  0  0  0  0
  -27.6576  -22.4314   22.4064 C   0  0  0  0  0  0  0  0  0  0  0  0
  -29.4127  -20.2060   17.7450 C   0  0  0  0  0  0  0  0  0  0  0  0
  -28.5981  -23.1532   23.1550 C   0  0  0  0  0  0  0  0  0  0  0  0
  -22.2952   -8.1545   21.3422 C   0  0  0  0  0  0  0  0  0  0  0  0
  -28.5290  -21.4361   24.8745 C   0  0  0  0  0  0  0  0  0  0  0  0
  -21.6029   -6.0447   20.5730 C   0  0  0  0  0  0  0  0  0  0  0  0
  -21.7084   -4.0512   18.6243 C   0  0  0  0  0  0  0  0  0  0  0  0
  -22.8188   -5.4347   20.2644 C   0  0  0  0  0  0  0  0  0  0  0  0
  -24.6159  -11.6379   20.7272 C   0  0  0  0  0  0  0  0  0  0  0  0
  -32.3274  -18.1213   23.0869 C   0  0  0  0  0  0  0  0  0  0  0  0
  -25.3173  -13.7168   20.5819 C   0  0  0  0  0  0  0  0  0  0  0  0
  -31.6212  -18.0790   24.2709 C   0  0  0  0  0  0  0  0  0  0  0  0
  -31.1106  -16.3421   22.6819 C   0  0  0  0  0  0  0  0  0  0  0  0
  -22.9455  -13.4952   21.3394 C   0  0  0  0  0  0  0  0  0  0  0  0
  -29.3131  -23.2599   19.8225 C   0  0  0  0  0  0  0  0  0  0  0  0
  -28.8064  -26.2633   20.9386 C   0  0  0  0  0  0  0  0  0  0  0  0
  -28.1367  -28.2899   23.6015 C   0  0  0  0  0  0  0  0  0  0  0  0
  -30.7989  -14.6620   20.8308 C   0  0  0  0  0  0  0  0  0  0  0  0
  -29.2863  -20.8992   15.2966 C   0  0  0  0  0  0  0  0  0  0  0  0
  -27.1557  -22.9672   21.0936 C   0  0  0  0  0  0  0  0  0  0  0  0
  -29.1633  -24.4618   22.6685 C   0  0  0  0  0  0  0  0  0  0  0  0
  -29.5134  -22.3289   15.7809 C   0  0  0  0  0  0  0  0  0  0  0  0
  -29.6613  -12.3551   18.3689 C   0  0  0  0  0  0  0  0  0  0  0  0
  -30.5080  -22.3492   16.9372 C   0  0  0  0  0  0  0  0  0  0  0  0
  -28.2138  -12.0727   18.7780 C   0  0  0  0  0  0  0  0  0  0  0  0
  -30.5714  -12.5245   19.5841 C   0  0  0  0  0  0  0  0  0  0  0  0
  -28.6669  -13.2308   20.9782 C   0  0  0  0  0  0  0  0  0  0  0  0
  -29.9763  -21.5548   18.1363 C   0  0  1  0  0  0  0  0  0  0  0  0
  -28.1255  -23.9450   20.4373 C   0  0  1  0  0  0  0  0  0  0  0  0
  -27.6999  -13.1170   19.7884 C   0  0  2  0  0  0  0  0  0  0  0  0
  -33.3514  -19.1207   22.7154 C   0  0  0  0  0  0  0  0  0  0  0  0
  -27.8192  -30.7040   24.2090 C   0  0  0  0  0  0  0  0  0  0  0  0
  -31.5111  -17.6850   27.4028 C   0  0  0  0  0  0  0  0  0  0  0  0
  -31.8217  -26.6993   20.7719 C   0  0  0  0  0  0  0  0  0  0  0  0
  -31.5430  -28.7042   22.2453 C   0  0  0  0  0  0  0  0  0  0  0  0
  -30.4431  -28.6407   20.0073 C   0  0  0  0  0  0  0  0  0  0  0  0
  -25.3654  -27.8134   24.5243 C   0  0  0  0  0  0  0  0  0  0  0  0
  -30.2917  -21.2775   26.4632 C   0  0  0  0  0  0  0  0  0  1  0  0
  -29.5398  -27.1942   21.8737 C   0  0  1  0  0  0  0  0  0  0  0  0
  -27.1337  -29.4147   23.7841 C   0  0  2  0  0  0  0  0  0  0  0  0
  -30.9140  -18.8029   26.5515 C   0  0  1  0  0  0  0  0  0  0  0  0
  -30.8458  -20.1361   27.3144 C   0  0  1  0  0  0  0  0  0  0  0  0
  -30.8279  -27.7840   21.2331 C   0  0  0  0  0  0  0  0  0  0  0  0
  -25.8820  -11.5357   20.3141 N   0  0  0  0  0  0  0  0  0  0  0  0
  -32.0362  -17.1258   22.1747 N   0  0  0  0  0  0  0  0  0  0  0  0
  -26.2813  -12.8165   20.2350 N   0  0  0  0  0  0  0  0  0  0  0  0
  -28.6458  -24.9410   21.3762 N   0  0  0  0  0  0  0  0  0  0  0  0
  -30.0235  -13.5322   20.4947 N   0  0  0  0  0  0  0  0  0  0  0  0
  -25.5505  -15.0463   20.5587 N   0  0  0  0  0  0  0  0  0  0  0  0
  -21.9160  -12.5918   21.6367 N   0  0  0  0  0  0  0  0  0  0  0  0
  -31.7109  -18.9404   25.3486 N   0  0  0  0  0  0  0  0  0  0  0  0
  -30.5205  -15.1994   22.0871 N   0  0  0  0  0  0  0  0  0  0  0  0
  -28.9869  -22.3278   18.8560 N   0  0  0  0  0  0  0  0  0  0  0  0
  -28.5686  -28.1979   22.2952 N   0  0  0  0  0  0  0  0  0  0  0  0
  -26.1310  -29.0505   24.8248 N   0  3  0  0  0  0  0  0  0  0  0  0
  -22.7295  -14.7268   21.4399 O   0  0  0  0  0  0  0  0  0  0  0  0
  -30.4419  -23.5563   20.1963 O   0  0  0  0  0  0  0  0  0  0  0  0
  -28.3851  -26.6953   19.8627 O   0  0  0  0  0  0  0  0  0  0  0  0
  -28.5035  -27.5678   24.5259 O   0  0  0  0  0  0  0  0  0  0  0  0
  -31.6283  -15.1355   20.0498 O   0  0  0  0  0  0  0  0  0  0  0  0
  -32.1489  -20.4916   27.7797 O   0  0  0  0  0  0  0  0  0  0  0  0
  -21.5487   -7.0338   21.5406 O   0  0  0  0  0  0  0  0  0  0  0  0
  -28.9581  -20.9532   26.0722 O   0  0  0  0  0  0  0  0  0  1  0  0
  -21.7587   -3.0930   17.6897 F   0  0  0  0  0  0  0  0  0  0  0  0
  -23.9393   -5.8013   20.9015 F   0  0  0  0  0  0  0  0  0  0  0  0
  -30.5448  -16.7440   24.2513 S   0  0  0  0  0  0  0  0  0  0  0  0
  1  2  1  0  0  0  0
  1  5  2  0  0  0  0
  2  6  2  0  0  0  0
  3  8  2  0  0  0  0
  3 15  1  0  0  0  0
  4  9  1  0  0  0  0
  4 15  2  0  0  0  0
  5 17  1  0  0  0  0
  6 19  1  0  0  0  0
  7 10  2  0  0  0  0
  7 18  1  0  0  0  0
  8 21  1  0  0  0  0
  9 21  2  0  0  0  0
 10 22  1  0  0  0  0
 11 12  2  0  0  0  0
 11 23  1  0  0  0  0
 12 24  1  0  0  0  0
 13 20  1  0  0  0  0
 13 22  2  0  0  0  0
 14 24  2  0  0  0  0
 14 25  1  0  0  0  0
 15 26  1  0  0  0  0
 16 26  1  0  0  0  0
 16 28  2  0  0  0  0
 16 31  1  0  0  0  0
 17 19  2  0  0  0  0
 17 36  1  0  0  0  0
 18 20  2  0  0  0  0
 18 37  1  0  0  0  0
 19 45  1  0  0  0  0
 20 38  1  0  0  0  0
 21 79  1  0  0  0  0
 22 80  1  0  0  0  0
 23 25  2  0  0  0  0
 23 79  1  0  0  0  0
 24 81  1  0  0  0  0
 25 82  1  0  0  0  0
 26 61  2  0  0  0  0
 27 29  2  0  0  0  0
 27 48  1  0  0  0  0
 27 62  1  0  0  0  0
 28 63  1  0  0  0  0
 28 66  1  0  0  0  0
 29 68  1  0  0  0  0
 29 83  1  0  0  0  0
 30 62  2  0  0  0  0
 30 69  1  0  0  0  0
 30 83  1  0  0  0  0
 31 67  1  0  0  0  0
 31 73  2  0  0  0  0
 32 46  1  0  0  0  0
 32 70  1  0  0  0  0
 32 74  2  0  0  0  0
 33 56  1  0  0  0  0
 33 64  1  0  0  0  0
 33 75  2  0  0  0  0
 34 57  1  0  0  0  0
 34 71  1  0  0  0  0
 34 76  2  0  0  0  0
 35 65  1  0  0  0  0
 35 69  1  0  0  0  0
 35 77  2  0  0  0  0
 36 39  1  0  0  0  0
 37 46  1  0  0  0  0
 38 64  1  0  0  0  0
 39 41  1  0  0  0  0
 40 42  1  0  0  0  0
 40 43  1  0  0  0  0
 41 45  1  0  0  0  0
 42 47  1  0  0  0  0
 43 65  1  0  0  0  0
 44 47  1  0  0  0  0
 44 65  1  0  0  0  0
 45 70  1  0  0  0  0
 46 64  1  0  0  0  0
 47 63  1  0  0  0  0
 49 57  1  0  0  0  0
 50 58  1  0  0  0  0
 51 60  1  0  0  0  0
 52 60  1  0  0  0  0
 53 60  1  0  0  0  0
 54 72  1  0  0  0  0
 55 59  1  0  0  0  0
 55 80  1  0  0  0  0
 56 60  1  0  0  0  0
 56 71  1  0  0  0  0
 57 72  1  0  0  0  0
 58 59  1  0  0  0  0
 58 68  1  0  0  0  0
 59 78  1  0  0  0  0
 61 63  1  0  0  0  0
M  CHG  1  72   1
M  ISO  4  35 100  55 101  69 100  80 101
M  END
> <Batch ID>
0183

> <Smiles>
CNC(C)C(=O)NC(C(=O)N1Cc2cc([101O:1][101CH2:1]C(O)C(C)Nc3sc([100NH:0][100C:0](=O)N4CCCC(n5nc(-c6ccc(Oc7ccc(F)cc7F)cc6)c(C(N)=O)c5N)C4)nc3C)ccc2CC1C(=O)NC1CCCc2ccccc21)C(C)(C)C

> <Shape>
0.249

> <Color>
0.203

> <Negative vol penalty>
0.000

$$$$
