
  -OEChem-04052305023D

 82 90  0     1  0  0  0  0  0999 V2000
  -28.1976  -24.2935   18.2248 C   0  0  0  0  0  0  0  0  0  0  0  0
  -26.9560  -24.6604   18.7340 C   0  0  0  0  0  0  0  0  0  0  0  0
  -27.4184  -14.3187   21.8471 C   0  0  0  0  0  0  0  0  0  0  0  0
  -26.2141  -14.8089   19.8108 C   0  0  0  0  0  0  0  0  0  0  0  0
  -29.3634  -24.7764   18.8178 C   0  0  0  0  0  0  0  0  0  0  0  0
  -26.8796  -25.5096   19.8374 C   0  0  0  0  0  0  0  0  0  0  0  0
  -23.4008  -29.1433   19.2546 C   0  0  0  0  0  0  0  0  0  0  0  0
  -27.0523  -12.9770   21.7407 C   0  0  0  0  0  0  0  0  0  0  0  0
  -25.8480  -13.4671   19.7044 C   0  0  0  0  0  0  0  0  0  0  0  0
  -22.0673  -28.7849   19.4472 C   0  0  0  0  0  0  0  0  0  0  0  0
  -24.2956  -10.2389   19.0889 C   0  0  0  0  0  0  0  0  0  0  0  0
  -22.9691   -9.9524   18.7667 C   0  0  0  0  0  0  0  0  0  0  0  0
  -22.1414  -29.7254   21.6674 C   0  0  0  0  0  0  0  0  0  0  0  0
  -22.2362  -11.1034   20.7605 C   0  0  0  0  0  0  0  0  0  0  0  0
  -26.9992  -15.2347   20.8822 C   0  0  0  0  0  0  0  0  0  0  0  0
  -28.5266  -17.2337   20.4590 C   0  0  0  0  0  0  0  0  0  0  0  0
  -29.3010  -25.6397   19.9230 C   0  0  0  0  0  0  0  0  0  0  0  0
  -24.1191  -29.7868   20.2727 C   0  0  0  0  0  0  0  0  0  0  0  0
  -28.0456  -26.0035   20.4466 C   0  0  0  0  0  0  0  0  0  0  0  0
  -23.4832  -30.0932   21.4843 C   0  0  0  0  0  0  0  0  0  0  0  0
  -26.2671  -12.5512   20.6694 C   0  0  0  0  0  0  0  0  0  0  0  0
  -21.4383  -29.0733   20.6547 C   0  0  0  0  0  0  0  0  0  0  0  0
  -24.5925  -10.9576   20.2470 C   0  0  0  0  0  0  0  0  0  0  0  0
  -21.9394  -10.3847   19.6025 C   0  0  0  0  0  0  0  0  0  0  0  0
  -23.5628  -11.3899   21.0827 C   0  0  0  0  0  0  0  0  0  0  0  0
  -27.3766  -16.6210   20.9919 C   0  0  0  0  0  0  0  0  0  0  0  0
  -22.6521  -22.5487   20.0146 C   0  0  0  0  0  0  0  0  0  0  0  0
  -28.4209  -18.5498   20.8373 C   0  0  0  0  0  0  0  0  0  0  0  0
  -22.3820  -22.2038   18.7069 C   0  0  0  0  0  0  0  0  0  0  0  0
  -21.4022  -24.2672   19.4719 C   0  0  0  0  0  0  0  0  0  0  0  0
  -29.5947  -16.6641   19.6907 C   0  0  0  0  0  0  0  0  0  0  0  0
  -26.7000  -29.0800   21.9883 C   0  0  0  0  0  0  0  0  0  0  0  0
  -26.3073  -32.1005   23.1040 C   0  0  0  0  0  0  0  0  0  0  0  0
  -24.2065  -34.7299   23.6695 C   0  0  0  0  0  0  0  0  0  0  0  0
  -20.5190  -26.3649   20.5483 C   0  0  0  0  0  0  0  0  0  0  0  0
  -23.7710  -22.0410   22.2139 C   0  0  0  0  0  0  0  0  0  0  0  0
  -30.5891  -26.0982   20.5596 C   0  0  0  0  0  0  0  0  0  0  0  0
  -25.5490  -30.1907   20.0395 C   0  0  0  0  0  0  0  0  0  0  0  0
  -24.2041  -30.8007   22.6015 C   0  0  0  0  0  0  0  0  0  0  0  0
  -30.4153  -27.2930   21.4937 C   0  0  0  0  0  0  0  0  0  0  0  0
  -26.5781  -21.3197   24.2820 C   0  0  0  0  0  0  0  0  0  0  0  0
  -29.2251  -27.0757   22.4226 C   0  0  0  0  0  0  0  0  0  0  0  0
  -27.2096  -20.0923   23.6210 C   0  0  0  0  0  0  0  0  0  0  0  0
  -25.0529  -21.2843   24.2037 C   0  0  0  0  0  0  0  0  0  0  0  0
  -25.1363  -19.8613   22.1944 C   0  0  0  0  0  0  0  0  0  0  0  0
  -27.9212  -26.9425   21.6267 C   0  0  1  0  0  0  0  0  0  0  0  0
  -26.3345  -30.3820   21.3333 C   0  0  1  0  0  0  0  0  0  0  0  0
  -26.6735  -19.8840   22.1910 C   0  0  2  0  0  0  0  0  0  0  0  0
  -24.1664  -37.0482   24.6294 C   0  0  0  0  0  0  0  0  0  0  0  0
  -18.1975  -27.3477   20.4827 C   0  0  0  0  0  0  0  0  0  0  0  0
  -26.3550  -30.9319   25.9222 C   0  0  0  0  0  0  0  0  0  0  0  0
  -25.3798  -33.0821   26.7552 C   0  0  0  0  0  0  0  0  0  0  0  0
  -27.6206  -33.0727   25.6591 C   0  0  0  0  0  0  0  0  0  0  0  0
  -23.3969  -35.9131   21.0804 C   0  0  0  0  0  0  0  0  0  0  0  0
  -25.5501  -32.7269   24.2500 C   0  0  1  0  0  0  0  0  0  0  0  0
  -24.3451  -36.2120   23.3718 C   0  0  2  0  0  0  0  0  0  0  0  0
  -19.6666  -27.5681   20.1535 C   0  0  1  0  0  0  0  0  0  1  0  0
  -26.2131  -32.4383   25.6265 C   0  0  0  0  0  0  0  0  0  0  0  0
  -26.5977  -17.4774   21.6581 N   0  0  0  0  0  0  0  0  0  0  0  0
  -22.0915  -23.7317   20.4549 N   0  0  0  0  0  0  0  0  0  0  0  0
  -27.2595  -18.6418   21.5464 N   0  0  0  0  0  0  0  0  0  0  0  0
  -25.6028  -31.1695   22.3276 N   0  0  0  0  0  0  0  0  0  0  0  0
  -24.6180  -21.0885   22.8190 N   0  0  0  0  0  0  0  0  0  0  0  0
  -29.2091  -19.6258   20.6292 N   0  0  0  0  0  0  0  0  0  0  0  0
  -29.5463  -15.2958   19.3909 N   0  0  0  0  0  0  0  0  0  0  0  0
  -23.4505  -21.7658   20.8849 N   0  0  0  0  0  0  0  0  0  0  0  0
  -20.6692  -25.4777   19.4875 N   0  0  0  0  0  0  0  0  0  0  0  0
  -27.4590  -28.2434   21.1924 N   0  0  0  0  0  0  0  0  0  0  0  0
  -25.4275  -34.1453   23.9315 N   0  0  0  0  0  0  0  0  0  0  0  0
  -23.3223  -36.6379   22.3750 N   0  3  0  0  0  0  0  0  0  0  0  0
  -30.5717  -17.3448   19.2962 O   0  0  0  0  0  0  0  0  0  0  0  0
  -26.3226  -28.8520   23.1317 O   0  0  0  0  0  0  0  0  0  0  0  0
  -27.4783  -32.4305   22.9008 O   0  0  0  0  0  0  0  0  0  0  0  0
  -23.1231  -34.1497   23.6733 O   0  0  0  0  0  0  0  0  0  0  0  0
  -20.9956  -26.2649   21.6752 O   0  0  0  0  0  0  0  0  0  0  0  0
  -23.3823  -23.0423   22.8208 O   0  0  0  0  0  0  0  0  0  0  0  0
  -25.9099  -11.2419   20.5651 O   0  0  0  0  0  0  0  0  0  0  0  0
  -20.1369  -28.7240   20.8455 O   0  0  0  0  0  0  0  0  0  1  0  0
  -20.6655  -10.1108   19.2921 F   0  0  0  0  0  0  0  0  0  0  0  0
  -23.8417  -12.0818   22.1960 F   0  0  0  0  0  0  0  0  0  0  0  0
  -22.8242  -21.1067   18.0865 F   0  0  0  0  0  0  0  0  0  0  0  0
  -21.3849  -23.4012   17.9904 S   0  0  0  0  0  0  0  0  0  0  0  0
  1  2  1  0  0  0  0
  1  5  2  0  0  0  0
  2  6  2  0  0  0  0
  3  8  2  0  0  0  0
  3 15  1  0  0  0  0
  4  9  1  0  0  0  0
  4 15  2  0  0  0  0
  5 17  1  0  0  0  0
  6 19  1  0  0  0  0
  7 10  2  0  0  0  0
  7 18  1  0  0  0  0
  8 21  1  0  0  0  0
  9 21  2  0  0  0  0
 10 22  1  0  0  0  0
 11 12  2  0  0  0  0
 11 23  1  0  0  0  0
 12 24  1  0  0  0  0
 13 20  1  0  0  0  0
 13 22  2  0  0  0  0
 14 24  2  0  0  0  0
 14 25  1  0  0  0  0
 15 26  1  0  0  0  0
 16 26  1  0  0  0  0
 16 28  2  0  0  0  0
 16 31  1  0  0  0  0
 17 19  2  0  0  0  0
 17 37  1  0  0  0  0
 18 20  2  0  0  0  0
 18 38  1  0  0  0  0
 19 46  1  0  0  0  0
 20 39  1  0  0  0  0
 21 77  1  0  0  0  0
 22 78  1  0  0  0  0
 23 25  2  0  0  0  0
 23 77  1  0  0  0  0
 24 79  1  0  0  0  0
 25 80  1  0  0  0  0
 26 59  2  0  0  0  0
 27 29  2  0  0  0  0
 27 60  1  0  0  0  0
 27 66  1  0  0  0  0
 28 61  1  0  0  0  0
 28 64  1  0  0  0  0
 29 81  1  0  0  0  0
 29 82  1  0  0  0  0
 30 60  2  0  0  0  0
 30 67  1  0  0  0  0
 30 82  1  0  0  0  0
 31 65  1  0  0  0  0
 31 71  2  0  0  0  0
 32 47  1  0  0  0  0
 32 68  1  0  0  0  0
 32 72  2  0  0  0  0
 33 55  1  0  0  0  0
 33 62  1  0  0  0  0
 33 73  2  0  0  0  0
 34 56  1  0  0  0  0
 34 69  1  0  0  0  0
 34 74  2  0  0  0  0
 35 57  1  0  0  0  0
 35 67  1  0  0  0  0
 35 75  2  0  0  0  0
 36 63  1  0  0  0  0
 36 66  1  0  0  0  0
 36 76  2  0  0  0  0
 37 40  1  0  0  0  0
 38 47  1  0  0  0  0
 39 62  1  0  0  0  0
 40 42  1  0  0  0  0
 41 43  1  0  0  0  0
 41 44  1  0  0  0  0
 42 46  1  0  0  0  0
 43 48  1  0  0  0  0
 44 63  1  0  0  0  0
 45 48  1  0  0  0  0
 45 63  1  0  0  0  0
 46 68  1  0  0  0  0
 47 62  1  0  0  0  0
 48 61  1  0  0  0  0
 49 56  1  0  0  0  0
 50 57  1  0  0  0  0
 51 58  1  0  0  0  0
 52 58  1  0  0  0  0
 53 58  1  0  0  0  0
 54 70  1  0  0  0  0
 55 58  1  0  0  0  0
 55 69  1  0  0  0  0
 56 70  1  0  0  0  0
 57 78  1  0  0  0  0
 59 61  1  0  0  0  0
M  CHG  1  70   1
M  ISO  4  36 100  57 101  66 100  78 101
M  END
> <Batch ID>
0184

> <Smiles>
CNC(C)C(=O)NC(C(=O)N1Cc2cc([101O:1][101CH:1](C)C(=O)Nc3nc([100NH:0][100C:0](=O)N4CCCC(n5nc(-c6ccc(Oc7ccc(F)cc7F)cc6)c(C(N)=O)c5N)C4)c(F)s3)ccc2CC1C(=O)NC1CCCc2ccccc21)C(C)(C)C

> <Shape>
0.287

> <Color>
0.069

> <Negative vol penalty>
0.000

$$$$

  -OEChem-04052305023D

 87 95  0     1  0  0  0  0  0999 V2000
  -24.7087  -35.3509   16.6306 C   0  0  0  0  0  0  0  0  0  0  0  0
  -24.8419  -34.0591   16.1316 C   0  0  0  0  0  0  0  0  0  0  0  0
  -23.1241   -9.8138   21.5382 C   0  0  0  0  0  0  0  0  0  0  0  0
  -23.7722  -10.8986   23.5973 C   0  0  0  0  0  0  0  0  0  0  0  0
  -25.3527  -35.7097   17.8140 C   0  0  0  0  0  0  0  0  0  0  0  0
  -25.6202  -33.1256   16.8152 C   0  0  0  0  0  0  0  0  0  0  0  0
  -25.9810  -26.1085   18.2102 C   0  0  0  0  0  0  0  0  0  0  0  0
  -22.3975   -8.8700   22.2641 C   0  0  0  0  0  0  0  0  0  0  0  0
  -23.0456   -9.9549   24.3233 C   0  0  0  0  0  0  0  0  0  0  0  0
  -26.8749  -25.0409   18.1397 C   0  0  0  0  0  0  0  0  0  0  0  0
  -20.6661   -5.9626   23.5957 C   0  0  0  0  0  0  0  0  0  0  0  0
  -20.7997   -4.6218   23.2352 C   0  0  0  0  0  0  0  0  0  0  0  0
  -27.8768  -25.7505   20.2162 C   0  0  0  0  0  0  0  0  0  0  0  0
  -23.1684   -4.7336   23.6976 C   0  0  0  0  0  0  0  0  0  0  0  0
  -31.5584  -17.8339   19.8707 C   0  0  0  0  0  0  0  0  0  0  0  0
  -23.8115  -10.8281   22.2048 C   0  0  0  0  0  0  0  0  0  0  0  0
  -24.0967  -13.0332   20.9543 C   0  0  0  0  0  0  0  0  0  0  0  0
  -26.1315  -34.7773   18.5176 C   0  0  0  0  0  0  0  0  0  0  0  0
  -26.0355  -27.0129   19.2805 C   0  0  0  0  0  0  0  0  0  0  0  0
  -26.2763  -33.4727   18.0084 C   0  0  0  0  0  0  0  0  0  0  0  0
  -26.9808  -26.8272   20.2993 C   0  0  0  0  0  0  0  0  0  0  0  0
  -22.3582   -8.9405   23.6566 C   0  0  0  0  0  0  0  0  0  0  0  0
  -27.8249  -24.8634   19.1413 C   0  0  0  0  0  0  0  0  0  0  0  0
  -21.7836   -6.6890   24.0070 C   0  0  0  0  0  0  0  0  0  0  0  0
  -22.0509   -4.0073   23.2862 C   0  0  0  0  0  0  0  0  0  0  0  0
  -23.0348   -6.0745   24.0580 C   0  0  0  0  0  0  0  0  0  0  0  0
  -31.5829  -19.2585   19.8854 C   0  0  0  0  0  0  0  0  0  0  0  0
  -24.5626  -11.8030   21.4556 C   0  0  0  0  0  0  0  0  0  0  0  0
  -30.3957  -19.7917   20.3369 C   0  0  0  0  0  0  0  0  0  0  0  0
  -25.1863  -13.5817   20.3233 C   0  0  0  0  0  0  0  0  0  0  0  0
  -30.3534  -17.3326   20.3117 C   0  0  0  0  0  0  0  0  0  0  0  0
  -22.7952  -13.6270   21.0505 C   0  0  0  0  0  0  0  0  0  0  0  0
  -30.0179  -21.2191   20.5015 C   0  0  0  0  0  0  0  0  0  0  0  0
  -26.5846  -30.1316   19.5561 C   0  0  0  0  0  0  0  0  0  0  0  0
  -25.8078  -29.5984   22.6600 C   0  0  0  0  0  0  0  0  0  0  0  0
  -25.5731  -27.3876   25.2493 C   0  0  0  0  0  0  0  0  0  0  0  0
  -30.6105  -14.8304   20.1736 C   0  0  0  0  0  0  0  0  0  0  0  0
  -26.8470  -35.2251   19.7674 C   0  0  0  0  0  0  0  0  0  0  0  0
  -25.0468  -28.1439   19.3557 C   0  0  0  0  0  0  0  0  0  0  0  0
  -27.0676  -27.7584   21.4799 C   0  0  0  0  0  0  0  0  0  0  0  0
  -27.3489  -34.0694   20.6292 C   0  0  0  0  0  0  0  0  0  0  0  0
  -29.6710  -11.5562   19.1371 C   0  0  0  0  0  0  0  0  0  0  0  0
  -28.0529  -33.0268   19.7665 C   0  0  0  0  0  0  0  0  0  0  0  0
  -28.2199  -11.4297   19.6066 C   0  0  0  0  0  0  0  0  0  0  0  0
  -30.5213  -12.3474   20.1295 C   0  0  0  0  0  0  0  0  0  0  0  0
  -28.5328  -13.5375   20.9655 C   0  0  0  0  0  0  0  0  0  0  0  0
  -27.0918  -32.4247   18.7343 C   0  0  1  0  0  0  0  0  0  0  0  0
  -25.5273  -29.3008   20.2264 C   0  0  1  0  0  0  0  0  0  0  0  0
  -27.6224  -12.8040   19.9671 C   0  0  2  0  0  0  0  0  0  0  0  0
  -24.9419  -27.2540   27.6743 C   0  0  0  0  0  0  0  0  0  0  0  0
  -32.0117  -23.9232   23.1211 C   0  0  0  0  0  0  0  0  0  0  0  0
  -34.1658  -24.5412   22.0113 C   0  0  0  0  0  0  0  0  0  0  0  0
  -30.6541  -23.6653   17.6963 C   0  0  0  0  0  0  0  0  0  0  0  0
  -28.4511  -30.9205   23.4184 C   0  0  0  0  0  0  0  0  0  0  0  0
  -28.2137  -29.9244   25.7031 C   0  0  0  0  0  0  0  0  0  0  0  0
  -26.5150  -31.5506   24.8707 C   0  0  0  0  0  0  0  0  0  0  0  0
  -23.3993  -25.4569   24.6966 C   0  0  0  0  0  0  0  0  0  0  0  0
  -32.1051  -24.2921   20.5928 C   0  0  0  0  0  0  0  0  0  0  0  0
  -26.5738  -29.2155   23.9032 C   0  0  1  0  0  0  0  0  0  0  0  0
  -24.4567  -27.1117   26.2401 C   0  0  2  0  0  0  0  0  0  0  0  0
  -32.8464  -23.7806   21.8475 C   0  0  0  0  0  0  0  0  0  0  0  0
  -30.7817  -23.5695   20.2820 C   0  0  1  0  0  0  0  0  0  0  0  0
  -30.0887  -24.1434   19.0293 C   0  0  2  0  0  0  0  0  0  1  0  0
  -27.4383  -30.3861   24.4507 C   0  0  0  0  0  0  0  0  0  0  0  0
  -25.8481  -11.5825   21.1677 N   0  0  0  0  0  0  0  0  0  0  0  0
  -26.1992  -12.6816   20.4786 N   0  0  0  0  0  0  0  0  0  0  0  0
  -26.0832  -28.8528   21.5050 N   0  0  0  0  0  0  0  0  0  0  0  0
  -29.8956  -13.6392   20.4203 N   0  0  0  0  0  0  0  0  0  0  0  0
  -25.3673  -14.7413   19.6562 N   0  0  0  0  0  0  0  0  0  0  0  0
  -21.7908  -12.9282   21.7340 N   0  0  0  0  0  0  0  0  0  0  0  0
  -29.9020  -15.9974   20.4576 N   0  0  0  0  0  0  0  0  0  0  0  0
  -30.9893  -22.1437   20.1547 N   0  0  0  0  0  0  0  0  0  0  0  0
  -26.2233  -31.4509   19.3602 N   0  0  0  0  0  0  0  0  0  0  0  0
  -25.5873  -28.7074   24.8503 N   0  0  0  0  0  0  0  0  0  0  0  0
  -23.9313  -25.7292   26.0567 N   0  3  0  0  0  0  0  0  0  0  0  0
  -22.5264  -14.7368   20.5313 O   0  0  0  0  0  0  0  0  0  0  0  0
  -28.9061  -21.4985   20.9423 O   0  0  0  0  0  0  0  0  0  0  0  0
  -27.6500  -29.6144   19.2412 O   0  0  0  0  0  0  0  0  0  0  0  0
  -24.9899  -30.5202   22.7136 O   0  0  0  0  0  0  0  0  0  0  0  0
  -26.3568  -26.5201   24.8702 O   0  0  0  0  0  0  0  0  0  0  0  0
  -31.7564  -14.8167   19.7166 O   0  0  0  0  0  0  0  0  0  0  0  0
  -21.6491   -8.0199   24.3653 O   0  0  0  0  0  0  0  0  0  0  0  0
  -28.6990  -23.8226   19.0745 O   0  0  0  0  0  0  0  0  0  1  0  0
  -22.1788   -2.7193   22.9415 F   0  0  0  0  0  0  0  0  0  0  0  0
  -24.1118   -6.7668   24.4535 F   0  0  0  0  0  0  0  0  0  0  0  0
  -32.6354  -19.9853   19.5051 F   0  0  0  0  0  0  0  0  0  0  0  0
  -29.2582  -18.5771   20.7407 S   0  0  0  0  0  0  0  0  0  0  0  0
  1  2  1  0  0  0  0
  1  5  2  0  0  0  0
  2  6  2  0  0  0  0
  3  8  2  0  0  0  0
  3 16  1  0  0  0  0
  4  9  1  0  0  0  0
  4 16  2  0  0  0  0
  5 18  1  0  0  0  0
  6 20  1  0  0  0  0
  7 10  2  0  0  0  0
  7 19  1  0  0  0  0
  8 22  1  0  0  0  0
  9 22  2  0  0  0  0
 10 23  1  0  0  0  0
 11 12  2  0  0  0  0
 11 24  1  0  0  0  0
 12 25  1  0  0  0  0
 13 21  1  0  0  0  0
 13 23  2  0  0  0  0
 14 25  2  0  0  0  0
 14 26  1  0  0  0  0
 15 27  1  0  0  0  0
 15 31  2  0  0  0  0
 16 28  1  0  0  0  0
 17 28  1  0  0  0  0
 17 30  2  0  0  0  0
 17 32  1  0  0  0  0
 18 20  2  0  0  0  0
 18 38  1  0  0  0  0
 19 21  2  0  0  0  0
 19 39  1  0  0  0  0
 20 47  1  0  0  0  0
 21 40  1  0  0  0  0
 22 82  1  0  0  0  0
 23 83  1  0  0  0  0
 24 26  2  0  0  0  0
 24 82  1  0  0  0  0
 25 84  1  0  0  0  0
 26 85  1  0  0  0  0
 27 29  2  0  0  0  0
 27 86  1  0  0  0  0
 28 65  2  0  0  0  0
 29 33  1  0  0  0  0
 29 87  1  0  0  0  0
 30 66  1  0  0  0  0
 30 69  1  0  0  0  0
 31 71  1  0  0  0  0
 31 87  1  0  0  0  0
 32 70  1  0  0  0  0
 32 76  2  0  0  0  0
 33 72  1  0  0  0  0
 33 77  2  0  0  0  0
 34 48  1  0  0  0  0
 34 73  1  0  0  0  0
 34 78  2  0  0  0  0
 35 59  1  0  0  0  0
 35 67  1  0  0  0  0
 35 79  2  0  0  0  0
 36 60  1  0  0  0  0
 36 74  1  0  0  0  0
 36 80  2  0  0  0  0
 37 68  1  0  0  0  0
 37 71  1  0  0  0  0
 37 81  2  0  0  0  0
 38 41  1  0  0  0  0
 39 48  1  0  0  0  0
 40 67  1  0  0  0  0
 41 43  1  0  0  0  0
 42 44  1  0  0  0  0
 42 45  1  0  0  0  0
 43 47  1  0  0  0  0
 44 49  1  0  0  0  0
 45 68  1  0  0  0  0
 46 49  1  0  0  0  0
 46 68  1  0  0  0  0
 47 73  1  0  0  0  0
 48 67  1  0  0  0  0
 49 66  1  0  0  0  0
 50 60  1  0  0  0  0
 51 61  1  0  0  0  0
 52 61  1  0  0  0  0
 53 63  1  0  0  0  0
 54 64  1  0  0  0  0
 55 64  1  0  0  0  0
 56 64  1  0  0  0  0
 57 75  1  0  0  0  0
 58 61  1  0  0  0  0
 58 62  1  0  0  0  0
 59 64  1  0  0  0  0
 59 74  1  0  0  0  0
 60 75  1  0  0  0  0
 62 63  1  0  0  0  0
 62 72  1  0  0  0  0
 63 83  1  0  0  0  0
 65 66  1  0  0  0  0
M  CHG  1  75   1
M  ISO  4  37 100  63 101  71 100  83 101
M  END
> <Batch ID>
0184

> <Smiles>
CNC(C)C(=O)NC(C(=O)N1Cc2cc([101O:1][101CH:1](C)C(CC(C)C)NC(=O)c3sc([100NH:0][100C:0](=O)N4CCCC(n5nc(-c6ccc(Oc7ccc(F)cc7F)cc6)c(C(N)=O)c5N)C4)cc3F)ccc2CC1C(=O)NC1CCCc2ccccc21)C(C)(C)C

> <Shape>
0.286

> <Color>
0.175

> <Negative vol penalty>
0.000

$$$$

  -OEChem-04052305023D

 88 96  0     1  0  0  0  0  0999 V2000
  -35.0794  -24.1435   21.5348 C   0  0  0  0  0  0  0  0  0  0  0  0
  -33.7591  -24.2627   21.1129 C   0  0  0  0  0  0  0  0  0  0  0  0
  -24.4445   -9.6999   21.3550 C   0  0  0  0  0  0  0  0  0  0  0  0
  -24.9025  -10.7261   23.4937 C   0  0  0  0  0  0  0  0  0  0  0  0
  -35.4089  -24.3872   22.8674 C   0  0  0  0  0  0  0  0  0  0  0  0
  -32.7672  -24.6247   22.0238 C   0  0  0  0  0  0  0  0  0  0  0  0
  -29.6186  -28.1336   20.1748 C   0  0  0  0  0  0  0  0  0  0  0  0
  -24.1394   -8.4994   21.9963 C   0  0  0  0  0  0  0  0  0  0  0  0
  -24.5974   -9.5256   24.1351 C   0  0  0  0  0  0  0  0  0  0  0  0
  -28.6348  -27.7016   19.2864 C   0  0  0  0  0  0  0  0  0  0  0  0
  -22.8912   -5.2671   23.0959 C   0  0  0  0  0  0  0  0  0  0  0  0
  -21.7488   -4.5825   22.6813 C   0  0  0  0  0  0  0  0  0  0  0  0
  -27.0172  -27.7246   21.0757 C   0  0  0  0  0  0  0  0  0  0  0  0
  -20.3897   -6.4884   23.2791 C   0  0  0  0  0  0  0  0  0  0  0  0
  -24.8261  -10.8133   22.1037 C   0  0  0  0  0  0  0  0  0  0  0  0
  -24.2543  -13.1006   21.1296 C   0  0  0  0  0  0  0  0  0  0  0  0
  -34.4221  -24.7618   23.7930 C   0  0  0  0  0  0  0  0  0  0  0  0
  -29.3109  -28.3542   21.5251 C   0  0  0  0  0  0  0  0  0  0  0  0
  -33.0836  -24.8723   23.3703 C   0  0  0  0  0  0  0  0  0  0  0  0
  -27.9982  -28.1618   21.9787 C   0  0  0  0  0  0  0  0  0  0  0  0
  -24.2158   -8.4123   23.3863 C   0  0  0  0  0  0  0  0  0  0  0  0
  -27.3346  -27.4942   19.7373 C   0  0  0  0  0  0  0  0  0  0  0  0
  -22.7828   -6.5624   23.6021 C   0  0  0  0  0  0  0  0  0  0  0  0
  -20.4981   -5.1931   22.7729 C   0  0  0  0  0  0  0  0  0  0  0  0
  -21.5321   -7.1730   23.6937 C   0  0  0  0  0  0  0  0  0  0  0  0
  -25.1420  -12.0535   21.4417 C   0  0  0  0  0  0  0  0  0  0  0  0
  -27.9076  -21.5548   20.9430 C   0  0  0  0  0  0  0  0  0  0  0  0
  -29.1403  -21.4063   20.3425 C   0  0  0  0  0  0  0  0  0  0  0  0
  -25.0388  -14.0428   20.5105 C   0  0  0  0  0  0  0  0  0  0  0  0
  -28.6634  -19.2871   20.6448 C   0  0  0  0  0  0  0  0  0  0  0  0
  -22.8465  -13.2117   21.3773 C   0  0  0  0  0  0  0  0  0  0  0  0
  -30.2789  -27.0991   24.2803 C   0  0  0  0  0  0  0  0  0  0  0  0
  -28.4472  -29.4562   25.5497 C   0  0  0  0  0  0  0  0  0  0  0  0
  -25.5934  -24.2716   19.9770 C   0  0  0  0  0  0  0  0  0  0  0  0
  -25.8423  -31.6270   25.1635 C   0  0  0  0  0  0  0  0  0  0  0  0
  -29.7191  -17.0432   20.2014 C   0  0  0  0  0  0  0  0  0  0  0  0
  -34.8189  -24.9689   25.2332 C   0  0  0  0  0  0  0  0  0  0  0  0
  -30.3774  -28.8458   22.4650 C   0  0  0  0  0  0  0  0  0  0  0  0
  -27.6118  -28.4039   23.4142 C   0  0  0  0  0  0  0  0  0  0  0  0
  -33.7683  -25.7128   26.0536 C   0  0  0  0  0  0  0  0  0  0  0  0
  -29.7996  -13.7653   18.8135 C   0  0  0  0  0  0  0  0  0  0  0  0
  -32.3811  -25.1330   25.7961 C   0  0  0  0  0  0  0  0  0  0  0  0
  -28.5220  -13.1139   19.3478 C   0  0  0  0  0  0  0  0  0  0  0  0
  -30.4389  -14.6914   19.8467 C   0  0  0  0  0  0  0  0  0  0  0  0
  -28.2634  -15.0567   20.9433 C   0  0  0  0  0  0  0  0  0  0  0  0
  -31.9834  -25.2870   24.3231 C   0  0  1  0  0  0  0  0  0  0  0  0
  -30.0690  -28.5447   23.9284 C   0  0  1  0  0  0  0  0  0  0  0  0
  -27.5481  -14.1653   19.9150 C   0  0  2  0  0  0  0  0  0  0  0  0
  -24.5590  -33.4019   26.3883 C   0  0  0  0  0  0  0  0  0  0  0  0
  -26.6450  -26.0565   16.7194 C   0  0  0  0  0  0  0  0  0  0  0  0
  -27.0177  -27.3015   27.1695 C   0  0  0  0  0  0  0  0  0  0  0  0
  -25.1877  -28.9504   27.6172 C   0  0  0  0  0  0  0  0  0  0  0  0
  -27.5014  -29.4061   28.4309 C   0  0  0  0  0  0  0  0  0  0  0  0
  -28.1933  -23.1846   23.5934 C   0  0  0  0  0  0  0  0  0  0  0  0
  -26.5732  -33.6921   23.1735 C   0  0  0  0  0  0  0  0  0  0  0  0
  -25.4413  -24.8775   18.5894 C   0  0  0  0  0  0  0  0  0  0  0  0
  -27.1378  -22.8141   21.2803 C   0  0  1  0  0  0  0  0  0  0  0  0
  -26.9996  -29.5820   25.9592 C   0  0  1  0  0  0  0  0  0  0  0  0
  -25.7188  -33.1130   25.4480 C   0  0  2  0  0  0  0  0  0  0  0  0
  -26.5876  -25.8197   18.2228 C   0  0  2  0  0  0  0  0  0  1  0  0
  -26.6840  -28.8034   27.2675 C   0  0  0  0  0  0  0  0  0  0  0  0
  -27.8783  -23.7663   22.2280 C   0  0  0  0  0  0  0  0  0  0  0  0
  -26.3945  -12.3062   21.0528 N   0  0  0  0  0  0  0  0  0  0  0  0
  -29.5755  -20.1067   20.1711 N   0  0  0  0  0  0  0  0  0  0  0  0
  -26.2995  -13.5228   20.4898 N   0  0  0  0  0  0  0  0  0  0  0  0
  -28.6913  -28.8779   24.2959 N   0  0  0  0  0  0  0  0  0  0  0  0
  -29.4585  -15.6631   20.3361 N   0  0  0  0  0  0  0  0  0  0  0  0
  -24.7663  -15.2569   19.9870 N   0  0  0  0  0  0  0  0  0  0  0  0
  -22.1962  -12.1520   22.0242 N   0  0  0  0  0  0  0  0  0  0  0  0
  -28.7008  -17.8709   20.6730 N   0  0  0  0  0  0  0  0  0  0  0  0
  -31.5641  -26.6454   24.0522 N   0  0  0  0  0  0  0  0  0  0  0  0
  -26.7469  -23.5062   20.0734 N   0  0  0  0  0  0  0  0  0  0  0  0
  -26.7188  -31.0117   26.0321 N   0  0  0  0  0  0  0  0  0  0  0  0
  -25.4959  -33.8661   24.1815 N   0  3  0  0  0  0  0  0  0  0  0  0
  -22.1816  -14.2138   21.0204 O   0  0  0  0  0  0  0  0  0  0  0  0
  -29.3445  -26.4442   24.7272 O   0  0  0  0  0  0  0  0  0  0  0  0
  -29.3285  -29.8627   26.3110 O   0  0  0  0  0  0  0  0  0  0  0  0
  -24.7840  -24.4497   20.8830 O   0  0  0  0  0  0  0  0  0  0  0  0
  -25.2204  -31.0672   24.2633 O   0  0  0  0  0  0  0  0  0  0  0  0
  -30.7565  -17.4599   19.6796 O   0  0  0  0  0  0  0  0  0  0  0  0
  -23.9180   -7.2411   24.0125 O   0  0  0  0  0  0  0  0  0  0  0  0
  -26.3726  -27.0720   18.8724 O   0  0  0  0  0  0  0  0  0  1  0  0
  -19.4013   -4.5361   22.3734 F   0  0  0  0  0  0  0  0  0  0  0  0
  -21.4218   -8.4176   24.1780 F   0  0  0  0  0  0  0  0  0  0  0  0
  -29.8752  -22.4525   19.9496 F   0  0  0  0  0  0  0  0  0  0  0  0
  -27.1089  -24.8756   22.4166 F   0  0  0  0  0  0  0  0  0  0  0  0
  -29.0320  -24.2008   21.6590 F   0  0  0  0  0  0  0  0  0  0  0  0
  -27.2570  -20.0111   21.3104 S   0  0  0  0  0  0  0  0  0  0  0  0
  1  2  1  0  0  0  0
  1  5  2  0  0  0  0
  2  6  2  0  0  0  0
  3  8  2  0  0  0  0
  3 15  1  0  0  0  0
  4  9  1  0  0  0  0
  4 15  2  0  0  0  0
  5 17  1  0  0  0  0
  6 19  1  0  0  0  0
  7 10  2  0  0  0  0
  7 18  1  0  0  0  0
  8 21  1  0  0  0  0
  9 21  2  0  0  0  0
 10 22  1  0  0  0  0
 11 12  2  0  0  0  0
 11 23  1  0  0  0  0
 12 24  1  0  0  0  0
 13 20  1  0  0  0  0
 13 22  2  0  0  0  0
 14 24  2  0  0  0  0
 14 25  1  0  0  0  0
 15 26  1  0  0  0  0
 16 26  1  0  0  0  0
 16 29  2  0  0  0  0
 16 31  1  0  0  0  0
 17 19  2  0  0  0  0
 17 37  1  0  0  0  0
 18 20  2  0  0  0  0
 18 38  1  0  0  0  0
 19 46  1  0  0  0  0
 20 39  1  0  0  0  0
 21 81  1  0  0  0  0
 22 82  1  0  0  0  0
 23 25  2  0  0  0  0
 23 81  1  0  0  0  0
 24 83  1  0  0  0  0
 25 84  1  0  0  0  0
 26 63  2  0  0  0  0
 27 28  2  0  0  0  0
 27 57  1  0  0  0  0
 27 88  1  0  0  0  0
 28 64  1  0  0  0  0
 28 85  1  0  0  0  0
 29 65  1  0  0  0  0
 29 68  1  0  0  0  0
 30 64  2  0  0  0  0
 30 70  1  0  0  0  0
 30 88  1  0  0  0  0
 31 69  1  0  0  0  0
 31 75  2  0  0  0  0
 32 47  1  0  0  0  0
 32 71  1  0  0  0  0
 32 76  2  0  0  0  0
 33 58  1  0  0  0  0
 33 66  1  0  0  0  0
 33 77  2  0  0  0  0
 34 56  1  0  0  0  0
 34 72  1  0  0  0  0
 34 78  2  0  0  0  0
 35 59  1  0  0  0  0
 35 73  1  0  0  0  0
 35 79  2  0  0  0  0
 36 67  1  0  0  0  0
 36 70  1  0  0  0  0
 36 80  2  0  0  0  0
 37 40  1  0  0  0  0
 38 47  1  0  0  0  0
 39 66  1  0  0  0  0
 40 42  1  0  0  0  0
 41 43  1  0  0  0  0
 41 44  1  0  0  0  0
 42 46  1  0  0  0  0
 43 48  1  0  0  0  0
 44 67  1  0  0  0  0
 45 48  1  0  0  0  0
 45 67  1  0  0  0  0
 46 71  1  0  0  0  0
 47 66  1  0  0  0  0
 48 65  1  0  0  0  0
 49 59  1  0  0  0  0
 50 60  1  0  0  0  0
 51 61  1  0  0  0  0
 52 61  1  0  0  0  0
 53 61  1  0  0  0  0
 54 62  1  0  0  0  0
 55 74  1  0  0  0  0
 56 60  1  0  0  0  0
 57 62  1  0  0  0  0
 57 72  1  0  0  0  0
 58 61  1  0  0  0  0
 58 73  1  0  0  0  0
 59 74  1  0  0  0  0
 60 82  1  0  0  0  0
 62 86  1  0  0  0  0
 62 87  1  0  0  0  0
 63 65  1  0  0  0  0
M  CHG  1  74   1
M  ISO  4  36 100  60 101  70 100  82 101
M  END
> <Batch ID>
0184

> <Smiles>
CNC(C)C(=O)NC(C(=O)N1Cc2cc([101O:1][101CH:1](C)CC(=O)NC(c3sc([100NH:0][100C:0](=O)N4CCCC(n5nc(-c6ccc(Oc7ccc(F)cc7F)cc6)c(C(N)=O)c5N)C4)nc3F)C(C)(F)F)ccc2CC1C(=O)NC1CCCc2ccccc21)C(C)(C)C

> <Shape>
0.265

> <Color>
0.137

> <Negative vol penalty>
0.000

$$$$

  -OEChem-04052305023D

 86 94  0     1  0  0  0  0  0999 V2000
  -29.5042  -17.0737   17.6799 C   0  0  0  0  0  0  0  0  0  0  0  0
  -28.9153  -18.0734   18.4459 C   0  0  0  0  0  0  0  0  0  0  0  0
  -23.0824   -9.8673   19.9332 C   0  0  0  0  0  0  0  0  0  0  0  0
  -23.8438   -9.8666   22.2261 C   0  0  0  0  0  0  0  0  0  0  0  0
  -30.7015  -17.3258   17.0134 C   0  0  0  0  0  0  0  0  0  0  0  0
  -29.5172  -19.3289   18.5362 C   0  0  0  0  0  0  0  0  0  0  0  0
  -26.9950  -22.8543   20.8630 C   0  0  0  0  0  0  0  0  0  0  0  0
  -22.3428   -8.7104   20.1785 C   0  0  0  0  0  0  0  0  0  0  0  0
  -23.1041   -8.7098   22.4714 C   0  0  0  0  0  0  0  0  0  0  0  0
  -26.8141  -22.8643   22.2453 C   0  0  0  0  0  0  0  0  0  0  0  0
  -21.1297   -5.9598   23.7970 C   0  0  0  0  0  0  0  0  0  0  0  0
  -20.3743   -5.9083   24.9685 C   0  0  0  0  0  0  0  0  0  0  0  0
  -28.4942  -24.5835   22.4468 C   0  0  0  0  0  0  0  0  0  0  0  0
  -19.1225   -7.8444   24.2465 C   0  0  0  0  0  0  0  0  0  0  0  0
  -31.7691  -17.6002   21.7472 C   0  0  0  0  0  0  0  0  0  0  0  0
  -23.8330  -10.4454   20.9570 C   0  0  0  0  0  0  0  0  0  0  0  0
  -24.1659  -12.9722   20.8481 C   0  0  0  0  0  0  0  0  0  0  0  0
  -31.3242  -18.5814   17.1062 C   0  0  0  0  0  0  0  0  0  0  0  0
  -27.9363  -23.7026   20.2622 C   0  0  0  0  0  0  0  0  0  0  0  0
  -30.7133  -19.6103   17.8516 C   0  0  0  0  0  0  0  0  0  0  0  0
  -28.6834  -24.5842   21.0564 C   0  0  0  0  0  0  0  0  0  0  0  0
  -22.3536   -8.1317   21.4476 C   0  0  0  0  0  0  0  0  0  0  0  0
  -27.5658  -23.7269   23.0378 C   0  0  0  0  0  0  0  0  0  0  0  0
  -20.8815   -6.9536   22.8502 C   0  0  0  0  0  0  0  0  0  0  0  0
  -19.3707   -6.8506   25.1932 C   0  0  0  0  0  0  0  0  0  0  0  0
  -19.8779   -7.8959   23.0750 C   0  0  0  0  0  0  0  0  0  0  0  0
  -24.5977  -11.6401   20.7042 C   0  0  0  0  0  0  0  0  0  0  0  0
  -25.2552  -13.7272   20.4875 C   0  0  0  0  0  0  0  0  0  0  0  0
  -30.5683  -16.9524   21.9489 C   0  0  0  0  0  0  0  0  0  0  0  0
  -30.8046  -19.0880   23.0380 C   0  0  0  0  0  0  0  0  0  0  0  0
  -22.8939  -13.4817   21.2702 C   0  0  0  0  0  0  0  0  0  0  0  0
  -30.6116  -20.3367   23.8306 C   0  0  0  0  0  0  0  0  0  0  0  0
  -30.5741  -23.2662   18.5432 C   0  0  0  0  0  0  0  0  0  0  0  0
  -25.6084  -22.7143   25.6202 C   0  0  0  0  0  0  0  0  0  0  0  0
  -30.4527  -26.4949   18.2551 C   0  0  0  0  0  0  0  0  0  0  0  0
  -29.3758  -29.4776   19.5161 C   0  0  0  0  0  0  0  0  0  0  0  0
  -30.7178  -14.7910   20.6634 C   0  0  0  0  0  0  0  0  0  0  0  0
  -32.6152  -18.8023   16.3580 C   0  0  0  0  0  0  0  0  0  0  0  0
  -28.1005  -23.6987   18.7671 C   0  0  0  0  0  0  0  0  0  0  0  0
  -29.6924  -25.5291   20.4584 C   0  0  0  0  0  0  0  0  0  0  0  0
  -33.3997  -20.0065   16.8687 C   0  0  0  0  0  0  0  0  0  0  0  0
  -29.6102  -12.3841   18.2849 C   0  0  0  0  0  0  0  0  0  0  0  0
  -32.4851  -21.2181   16.9692 C   0  0  0  0  0  0  0  0  0  0  0  0
  -28.1719  -12.0856   18.7141 C   0  0  0  0  0  0  0  0  0  0  0  0
  -30.5253  -12.6107   19.4870 C   0  0  0  0  0  0  0  0  0  0  0  0
  -28.6168  -13.3222   20.8728 C   0  0  0  0  0  0  0  0  0  0  0  0
  -31.3656  -20.9741   17.9891 C   0  0  1  0  0  0  0  0  0  0  0  0
  -29.4529  -24.2396   18.3131 C   0  0  1  0  0  0  0  0  0  0  0  0
  -27.6438  -13.1509   19.6948 C   0  0  2  0  0  0  0  0  0  0  0  0
  -24.9561  -21.5113   26.2522 C   0  0  0  0  0  0  0  0  0  0  0  0
  -29.4649  -31.9475   19.0812 C   0  0  0  0  0  0  0  0  0  0  0  0
  -28.3098  -23.1301   27.1145 C   0  0  0  0  0  0  0  0  0  0  0  0
  -33.3256  -26.5692   19.2801 C   0  0  0  0  0  0  0  0  0  0  0  0
  -33.0306  -29.0156   19.7230 C   0  0  0  0  0  0  0  0  0  0  0  0
  -32.8500  -28.1409   17.3939 C   0  0  0  0  0  0  0  0  0  0  0  0
  -26.4341  -29.6532   19.2433 C   0  0  0  0  0  0  0  0  0  0  0  0
  -29.3021  -20.5337   24.5591 C   0  0  0  0  0  0  0  0  0  0  0  0
  -26.9880  -22.5144   25.0004 C   0  0  2  0  0  0  0  0  0  1  0  0
  -30.9973  -27.6600   19.0456 C   0  0  1  0  0  0  0  0  0  0  0  0
  -28.6873  -30.6598   18.8581 C   0  0  2  0  0  0  0  0  0  0  0  0
  -28.0232  -22.0824   26.0439 C   0  0  1  0  0  0  0  0  0  0  0  0
  -32.5333  -27.8274   18.8724 C   0  0  0  0  0  0  0  0  0  0  0  0
  -31.9062  -18.8251   22.3705 N   0  0  0  0  0  0  0  0  0  0  0  0
  -25.8626  -11.5506   20.2846 N   0  0  0  0  0  0  0  0  0  0  0  0
  -26.2350  -12.8360   20.1618 N   0  0  0  0  0  0  0  0  0  0  0  0
  -29.8211  -25.4834   18.9925 N   0  0  0  0  0  0  0  0  0  0  0  0
  -29.9634  -13.6355   20.3694 N   0  0  0  0  0  0  0  0  0  0  0  0
  -25.4609  -15.0597   20.4203 N   0  0  0  0  0  0  0  0  0  0  0  0
  -21.8854  -12.5675   21.6040 N   0  0  0  0  0  0  0  0  0  0  0  0
  -30.0678  -15.7101   21.4865 N   0  0  0  0  0  0  0  0  0  0  0  0
  -30.4059  -22.0528   17.9037 N   0  0  0  0  0  0  0  0  0  0  0  0
  -30.2198  -28.8265   18.6415 N   0  0  0  0  0  0  0  0  0  0  0  0
  -27.3162  -30.8362   19.4146 N   0  3  0  0  0  0  0  0  0  0  0  0
  -29.3075  -21.7991   25.3342 N   0  3  0  0  0  0  0  0  0  0  0  0
  -22.6534  -14.7112   21.3332 O   0  0  0  0  0  0  0  0  0  0  0  0
  -31.5132  -21.1706   23.8721 O   0  0  0  0  0  0  0  0  0  0  0  0
  -31.5225  -23.5924   19.2474 O   0  0  0  0  0  0  0  0  0  0  0  0
  -25.0388  -23.8060   25.6110 O   0  0  0  0  0  0  0  0  0  0  0  0
  -30.5766  -26.4861   17.0278 O   0  0  0  0  0  0  0  0  0  0  0  0
  -29.1868  -29.1655   20.6897 O   0  0  0  0  0  0  0  0  0  0  0  0
  -31.8460  -14.9658   20.1958 O   0  0  0  0  0  0  0  0  0  0  0  0
  -21.6317   -7.0030   21.6873 O   0  0  0  0  0  0  0  0  0  0  0  0
  -27.3916  -23.7382   24.3874 O   0  0  0  0  0  0  0  0  0  1  0  0
  -18.6444   -6.8001   26.3175 F   0  0  0  0  0  0  0  0  0  0  0  0
  -19.6340   -8.8524   22.1685 F   0  0  0  0  0  0  0  0  0  0  0  0
  -29.5632  -17.9055   22.9602 S   0  0  0  0  0  0  0  0  0  0  0  0
  1  2  1  0  0  0  0
  1  5  2  0  0  0  0
  2  6  2  0  0  0  0
  3  8  2  0  0  0  0
  3 16  1  0  0  0  0
  4  9  1  0  0  0  0
  4 16  2  0  0  0  0
  5 18  1  0  0  0  0
  6 20  1  0  0  0  0
  7 10  2  0  0  0  0
  7 19  1  0  0  0  0
  8 22  1  0  0  0  0
  9 22  2  0  0  0  0
 10 23  1  0  0  0  0
 11 12  2  0  0  0  0
 11 24  1  0  0  0  0
 12 25  1  0  0  0  0
 13 21  1  0  0  0  0
 13 23  2  0  0  0  0
 14 25  2  0  0  0  0
 14 26  1  0  0  0  0
 15 29  2  0  0  0  0
 15 63  1  0  0  0  0
 16 27  1  0  0  0  0
 17 27  1  0  0  0  0
 17 28  2  0  0  0  0
 17 31  1  0  0  0  0
 18 20  2  0  0  0  0
 18 38  1  0  0  0  0
 19 21  2  0  0  0  0
 19 39  1  0  0  0  0
 20 47  1  0  0  0  0
 21 40  1  0  0  0  0
 22 82  1  0  0  0  0
 23 83  1  0  0  0  0
 24 26  2  0  0  0  0
 24 82  1  0  0  0  0
 25 84  1  0  0  0  0
 26 85  1  0  0  0  0
 27 64  2  0  0  0  0
 28 65  1  0  0  0  0
 28 68  1  0  0  0  0
 29 70  1  0  0  0  0
 29 86  1  0  0  0  0
 30 32  1  0  0  0  0
 30 63  2  0  0  0  0
 30 86  1  0  0  0  0
 31 69  1  0  0  0  0
 31 75  2  0  0  0  0
 32 57  1  0  0  0  0
 32 76  2  0  0  0  0
 33 48  1  0  0  0  0
 33 71  1  0  0  0  0
 33 77  2  0  0  0  0
 34 50  1  0  0  0  0
 34 58  1  0  0  0  0
 34 78  2  0  0  0  0
 35 59  1  0  0  0  0
 35 66  1  0  0  0  0
 35 79  2  0  0  0  0
 36 60  1  0  0  0  0
 36 72  1  0  0  0  0
 36 80  2  0  0  0  0
 37 67  1  0  0  0  0
 37 70  1  0  0  0  0
 37 81  2  0  0  0  0
 38 41  1  0  0  0  0
 39 48  1  0  0  0  0
 40 66  1  0  0  0  0
 41 43  1  0  0  0  0
 42 44  1  0  0  0  0
 42 45  1  0  0  0  0
 43 47  1  0  0  0  0
 44 49  1  0  0  0  0
 45 67  1  0  0  0  0
 46 49  1  0  0  0  0
 46 67  1  0  0  0  0
 47 71  1  0  0  0  0
 48 66  1  0  0  0  0
 49 65  1  0  0  0  0
 51 60  1  0  0  0  0
 52 61  1  0  0  0  0
 53 62  1  0  0  0  0
 54 62  1  0  0  0  0
 55 62  1  0  0  0  0
 56 73  1  0  0  0  0
 57 74  1  0  0  0  0
 58 61  1  0  0  0  0
 58 83  1  0  0  0  0
 59 62  1  0  0  0  0
 59 72  1  0  0  0  0
 60 73  1  0  0  0  0
 61 74  1  0  0  0  0
 64 65  1  0  0  0  0
M  CHG  2  73   1  74   1
M  ISO  4  37 100  58 101  70 100  83 101
M  END
> <Batch ID>
0184

> <Smiles>
CNC(C)C(=O)NC(C(=O)N1Cc2cc([101O:1][101CH:1](C(C)=O)C(C)NCC(=O)c3ncc([100NH:0][100C:0](=O)N4CCCC(n5nc(-c6ccc(Oc7ccc(F)cc7F)cc6)c(C(N)=O)c5N)C4)s3)ccc2CC1C(=O)NC1CCCc2ccccc21)C(C)(C)C

> <Shape>
0.255

> <Color>
0.181

> <Negative vol penalty>
0.000

$$$$

  -OEChem-04052305023D

 83 91  0     1  0  0  0  0  0999 V2000
  -23.9779   -8.2701   22.9082 C   0  0  0  0  0  0  0  0  0  0  0  0
  -24.7489   -9.3841   22.5917 C   0  0  0  0  0  0  0  0  0  0  0  0
  -24.1359  -30.5527   21.2101 C   0  0  0  0  0  0  0  0  0  0  0  0
  -25.5146  -29.9944   23.1140 C   0  0  0  0  0  0  0  0  0  0  0  0
  -22.6253   -8.2413   22.5710 C   0  0  0  0  0  0  0  0  0  0  0  0
  -24.1679  -10.4695   21.9369 C   0  0  0  0  0  0  0  0  0  0  0  0
  -25.5265  -14.9105   23.9558 C   0  0  0  0  0  0  0  0  0  0  0  0
  -23.5616  -31.5985   21.9327 C   0  0  0  0  0  0  0  0  0  0  0  0
  -24.9403  -31.0402   23.8365 C   0  0  0  0  0  0  0  0  0  0  0  0
  -26.7907  -15.3988   23.6283 C   0  0  0  0  0  0  0  0  0  0  0  0
  -24.0963  -33.7889   26.0616 C   0  0  0  0  0  0  0  0  0  0  0  0
  -24.9473  -34.6145   26.7963 C   0  0  0  0  0  0  0  0  0  0  0  0
  -25.7937  -16.8667   21.9942 C   0  0  0  0  0  0  0  0  0  0  0  0
  -26.1054  -35.2272   24.7664 C   0  0  0  0  0  0  0  0  0  0  0  0
  -25.1124  -29.7506   21.8008 C   0  0  0  0  0  0  0  0  0  0  0  0
  -26.8529  -28.7275   20.2415 C   0  0  0  0  0  0  0  0  0  0  0  0
  -22.0253   -9.3309   21.9203 C   0  0  0  0  0  0  0  0  0  0  0  0
  -24.3855  -15.3897   23.2962 C   0  0  0  0  0  0  0  0  0  0  0  0
  -22.8064  -10.4546   21.5895 C   0  0  0  0  0  0  0  0  0  0  0  0
  -24.5159  -16.3848   22.3170 C   0  0  0  0  0  0  0  0  0  0  0  0
  -23.9638  -31.8423   23.2459 C   0  0  0  0  0  0  0  0  0  0  0  0
  -26.9247  -16.3749   22.6453 C   0  0  0  0  0  0  0  0  0  0  0  0
  -24.2499  -33.6823   24.6792 C   0  0  0  0  0  0  0  0  0  0  0  0
  -25.9518  -35.3336   26.1487 C   0  0  0  0  0  0  0  0  0  0  0  0
  -25.2545  -34.4015   24.0317 C   0  0  0  0  0  0  0  0  0  0  0  0
  -25.7056  -28.6698   21.0552 C   0  0  0  0  0  0  0  0  0  0  0  0
  -31.7544  -20.9512   19.6321 C   0  0  0  0  0  0  0  0  0  0  0  0
  -30.8218  -19.9381   19.5540 C   0  0  0  0  0  0  0  0  0  0  0  0
  -26.9986  -27.4487   19.7621 C   0  0  0  0  0  0  0  0  0  0  0  0
  -29.4769  -21.5832   20.0970 C   0  0  0  0  0  0  0  0  0  0  0  0
  -27.7104  -29.8379   19.9456 C   0  0  0  0  0  0  0  0  0  0  0  0
  -22.1491  -14.0880   21.4502 C   0  0  0  0  0  0  0  0  0  0  0  0
  -29.7985  -17.1116   20.5606 C   0  0  0  0  0  0  0  0  0  0  0  0
  -20.8003  -17.0292   21.6789 C   0  0  0  0  0  0  0  0  0  0  0  0
  -21.2126  -20.3698   22.2420 C   0  0  0  0  0  0  0  0  0  0  0  0
  -27.0193  -21.9333   20.5258 C   0  0  0  0  0  0  0  0  0  0  0  0
  -20.5707   -9.2343   21.5338 C   0  0  0  0  0  0  0  0  0  0  0  0
  -23.0264  -14.8720   23.6799 C   0  0  0  0  0  0  0  0  0  0  0  0
  -23.3205  -16.9470   21.5936 C   0  0  0  0  0  0  0  0  0  0  0  0
  -19.9450  -10.5798   21.1754 C   0  0  0  0  0  0  0  0  0  0  0  0
  -23.8629  -23.4801   19.9584 C   0  0  0  0  0  0  0  0  0  0  0  0
  -20.8587  -11.3600   20.2357 C   0  0  0  0  0  0  0  0  0  0  0  0
  -24.1553  -24.9729   20.1262 C   0  0  0  0  0  0  0  0  0  0  0  0
  -24.6700  -22.6304   20.9383 C   0  0  0  0  0  0  0  0  0  0  0  0
  -26.4104  -24.3671   21.0928 C   0  0  0  0  0  0  0  0  0  0  0  0
  -22.2067  -11.6618   20.9015 C   0  0  1  0  0  0  0  0  0  0  0  0
  -21.9834  -15.0613   22.5829 C   0  0  1  0  0  0  0  0  0  0  0  0
  -25.6692  -25.2589   20.0834 C   0  0  2  0  0  0  0  0  0  0  0  0
  -33.2152  -20.9254   19.4126 C   0  0  0  0  0  0  0  0  0  0  0  0
  -30.7223  -16.4153   18.3403 C   0  0  0  0  0  0  0  0  0  0  0  0
  -19.9322  -22.5265   22.3241 C   0  0  0  0  0  0  0  0  0  0  0  0
  -20.6998  -17.0828   18.6298 C   0  0  0  0  0  0  0  0  0  0  0  0
  -20.3234  -19.5548   18.7551 C   0  0  0  0  0  0  0  0  0  0  0  0
  -18.6596  -17.9893   19.7569 C   0  0  0  0  0  0  0  0  0  0  0  0
  -21.9049  -20.8071   25.0860 C   0  0  0  0  0  0  0  0  0  0  0  0
  -28.3519  -17.2960   20.9808 C   0  0  0  0  0  0  0  0  0  1  0  0
  -30.1552  -17.5674   19.1526 C   0  0  2  0  0  0  0  0  0  0  0  0
  -20.8958  -18.3134   20.8910 C   0  0  1  0  0  0  0  0  0  0  0  0
  -20.4537  -21.3437   23.1252 C   0  0  2  0  0  0  0  0  0  0  0  0
  -20.1676  -18.2233   19.5203 C   0  0  0  0  0  0  0  0  0  0  0  0
  -25.1609  -27.4507   21.0927 N   0  0  0  0  0  0  0  0  0  0  0  0
  -29.5154  -20.2986   19.8207 N   0  0  0  0  0  0  0  0  0  0  0  0
  -25.9696  -26.7307   20.2966 N   0  0  0  0  0  0  0  0  0  0  0  0
  -22.0136  -16.4042   21.9998 N   0  0  0  0  0  0  0  0  0  0  0  0
  -26.0952  -22.9527   20.8385 N   0  0  0  0  0  0  0  0  0  0  0  0
  -27.9053  -26.8796   18.9395 N   0  0  0  0  0  0  0  0  0  0  0  0
  -27.4166  -31.0812   20.5221 N   0  0  0  0  0  0  0  0  0  0  0  0
  -31.1351  -18.6283   19.2339 N   0  0  0  0  0  0  0  0  0  0  0  0
  -28.3416  -22.3647   20.4257 N   0  0  0  0  0  0  0  0  0  0  0  0
  -22.0755  -12.7621   21.8324 N   0  0  0  0  0  0  0  0  0  0  0  0
  -20.3941  -19.3674   21.7661 N   0  0  0  0  0  0  0  0  0  0  0  0
  -21.3398  -21.8619   24.2056 N   0  3  0  0  0  0  0  0  0  0  0  0
  -28.6982  -29.7345   19.1793 O   0  0  0  0  0  0  0  0  0  0  0  0
  -22.3289  -14.5088   20.3134 O   0  0  0  0  0  0  0  0  0  0  0  0
  -30.6293  -16.6110   21.3190 O   0  0  0  0  0  0  0  0  0  0  0  0
  -19.6903  -16.6004   22.0040 O   0  0  0  0  0  0  0  0  0  0  0  0
  -22.4109  -20.4887   21.9957 O   0  0  0  0  0  0  0  0  0  0  0  0
  -26.6603  -20.7690   20.3322 O   0  0  0  0  0  0  0  0  0  0  0  0
  -23.4038  -32.8629   23.9511 O   0  0  0  0  0  0  0  0  0  0  0  0
  -28.1575  -16.8527   22.3232 O   0  0  0  0  0  0  0  0  0  1  0  0
  -26.7679  -36.1276   26.8542 F   0  0  0  0  0  0  0  0  0  0  0  0
  -25.4062  -34.3041   22.7038 F   0  0  0  0  0  0  0  0  0  0  0  0
  -30.9748  -22.4194   20.0539 S   0  0  0  0  0  0  0  0  0  0  0  0
  1  2  1  0  0  0  0
  1  5  2  0  0  0  0
  2  6  2  0  0  0  0
  3  8  2  0  0  0  0
  3 15  1  0  0  0  0
  4  9  1  0  0  0  0
  4 15  2  0  0  0  0
  5 17  1  0  0  0  0
  6 19  1  0  0  0  0
  7 10  2  0  0  0  0
  7 18  1  0  0  0  0
  8 21  1  0  0  0  0
  9 21  2  0  0  0  0
 10 22  1  0  0  0  0
 11 12  2  0  0  0  0
 11 23  1  0  0  0  0
 12 24  1  0  0  0  0
 13 20  1  0  0  0  0
 13 22  2  0  0  0  0
 14 24  2  0  0  0  0
 14 25  1  0  0  0  0
 15 26  1  0  0  0  0
 16 26  1  0  0  0  0
 16 29  2  0  0  0  0
 16 31  1  0  0  0  0
 17 19  2  0  0  0  0
 17 37  1  0  0  0  0
 18 20  2  0  0  0  0
 18 38  1  0  0  0  0
 19 46  1  0  0  0  0
 20 39  1  0  0  0  0
 21 79  1  0  0  0  0
 22 80  1  0  0  0  0
 23 25  2  0  0  0  0
 23 79  1  0  0  0  0
 24 81  1  0  0  0  0
 25 82  1  0  0  0  0
 26 61  2  0  0  0  0
 27 28  2  0  0  0  0
 27 49  1  0  0  0  0
 27 83  1  0  0  0  0
 28 62  1  0  0  0  0
 28 68  1  0  0  0  0
 29 63  1  0  0  0  0
 29 66  1  0  0  0  0
 30 62  2  0  0  0  0
 30 69  1  0  0  0  0
 30 83  1  0  0  0  0
 31 67  1  0  0  0  0
 31 73  2  0  0  0  0
 32 47  1  0  0  0  0
 32 70  1  0  0  0  0
 32 74  2  0  0  0  0
 33 56  1  0  0  0  0
 33 57  1  0  0  0  0
 33 75  2  0  0  0  0
 34 58  1  0  0  0  0
 34 64  1  0  0  0  0
 34 76  2  0  0  0  0
 35 59  1  0  0  0  0
 35 71  1  0  0  0  0
 35 77  2  0  0  0  0
 36 65  1  0  0  0  0
 36 69  1  0  0  0  0
 36 78  2  0  0  0  0
 37 40  1  0  0  0  0
 38 47  1  0  0  0  0
 39 64  1  0  0  0  0
 40 42  1  0  0  0  0
 41 43  1  0  0  0  0
 41 44  1  0  0  0  0
 42 46  1  0  0  0  0
 43 48  1  0  0  0  0
 44 65  1  0  0  0  0
 45 48  1  0  0  0  0
 45 65  1  0  0  0  0
 46 70  1  0  0  0  0
 47 64  1  0  0  0  0
 48 63  1  0  0  0  0
 50 57  1  0  0  0  0
 51 59  1  0  0  0  0
 52 60  1  0  0  0  0
 53 60  1  0  0  0  0
 54 60  1  0  0  0  0
 55 72  1  0  0  0  0
 56 80  1  0  0  0  0
 57 68  1  0  0  0  0
 58 60  1  0  0  0  0
 58 71  1  0  0  0  0
 59 72  1  0  0  0  0
 61 63  1  0  0  0  0
M  CHG  1  72   1
M  ISO  4  36 100  56 101  69 100  80 101
M  END
> <Batch ID>
0184

> <Smiles>
CNC(C)C(=O)NC(C(=O)N1Cc2cc([101O:1][101CH2:1]C(=O)C(C)Nc3nc([100NH:0][100C:0](=O)N4CCCC(n5nc(-c6ccc(Oc7ccc(F)cc7F)cc6)c(C(N)=O)c5N)C4)sc3C)ccc2CC1C(=O)NC1CCCc2ccccc21)C(C)(C)C

> <Shape>
0.199

> <Color>
0.091

> <Negative vol penalty>
0.000

$$$$

  -OEChem-04052305023D

 84 92  0     1  0  0  0  0  0999 V2000
  -18.0370  -30.6143   23.9170 C   0  0  0  0  0  0  0  0  0  0  0  0
  -19.4246  -30.7139   23.9146 C   0  0  0  0  0  0  0  0  0  0  0  0
  -23.0105  -10.0634   19.8916 C   0  0  0  0  0  0  0  0  0  0  0  0
  -24.2255   -9.7328   21.9534 C   0  0  0  0  0  0  0  0  0  0  0  0
  -17.4216  -29.4556   23.4451 C   0  0  0  0  0  0  0  0  0  0  0  0
  -20.1978  -29.6544   23.4413 C   0  0  0  0  0  0  0  0  0  0  0  0
  -26.3528  -28.3240   20.0263 C   0  0  0  0  0  0  0  0  0  0  0  0
  -22.3841   -8.8289   20.0627 C   0  0  0  0  0  0  0  0  0  0  0  0
  -23.5992   -8.4982   22.1246 C   0  0  0  0  0  0  0  0  0  0  0  0
  -27.5128  -27.5613   20.1548 C   0  0  0  0  0  0  0  0  0  0  0  0
  -20.6016   -7.3537   23.1853 C   0  0  0  0  0  0  0  0  0  0  0  0
  -20.1045   -7.0511   24.4529 C   0  0  0  0  0  0  0  0  0  0  0  0
  -26.3381  -25.6399   19.2901 C   0  0  0  0  0  0  0  0  0  0  0  0
  -29.1883  -20.0479   19.0840 C   0  0  0  0  0  0  0  0  0  0  0  0
  -21.5529   -5.1202   24.5599 C   0  0  0  0  0  0  0  0  0  0  0  0
  -23.9312  -10.5153   20.8369 C   0  0  0  0  0  0  0  0  0  0  0  0
  -24.1325  -13.0421   21.1245 C   0  0  0  0  0  0  0  0  0  0  0  0
  -18.1873  -28.3851   22.9567 C   0  0  0  0  0  0  0  0  0  0  0  0
  -25.1718  -27.7466   19.5381 C   0  0  0  0  0  0  0  0  0  0  0  0
  -19.5921  -28.4797   22.9636 C   0  0  0  0  0  0  0  0  0  0  0  0
  -25.1652  -26.3981   19.1540 C   0  0  0  0  0  0  0  0  0  0  0  0
  -29.2434  -18.6245   19.1150 C   0  0  0  0  0  0  0  0  0  0  0  0
  -22.6785   -8.0463   21.1792 C   0  0  0  0  0  0  0  0  0  0  0  0
  -27.5048  -26.2184   19.7894 C   0  0  0  0  0  0  0  0  0  0  0  0
  -21.5742   -6.5395   22.6049 C   0  0  0  0  0  0  0  0  0  0  0  0
  -20.5802   -5.9344   25.1402 C   0  0  0  0  0  0  0  0  0  0  0  0
  -22.0499   -5.4228   23.2922 C   0  0  0  0  0  0  0  0  0  0  0  0
  -24.5790  -11.7902   20.6604 C   0  0  0  0  0  0  0  0  0  0  0  0
  -28.9510  -18.1224   20.3640 C   0  0  0  0  0  0  0  0  0  0  0  0
  -25.0933  -13.9277   20.7013 C   0  0  0  0  0  0  0  0  0  0  0  0
  -28.8556  -20.5796   20.3106 C   0  0  0  0  0  0  0  0  0  0  0  0
  -22.9547  -13.3746   21.8714 C   0  0  0  0  0  0  0  0  0  0  0  0
  -22.2590  -27.2619   20.7147 C   0  0  0  0  0  0  0  0  0  0  0  0
  -21.6320  -26.2508   17.6969 C   0  0  0  0  0  0  0  0  0  0  0  0
  -22.8221  -24.9858   14.7592 C   0  0  0  0  0  0  0  0  0  0  0  0
  -28.8290  -23.0713   19.9500 C   0  0  0  0  0  0  0  0  0  0  0  0
  -30.6705  -14.9663   20.3371 C   0  0  0  0  0  0  0  0  0  0  0  0
  -17.4787  -27.1343   22.5008 C   0  0  0  0  0  0  0  0  0  0  0  0
  -23.9361  -28.5896   19.3804 C   0  0  0  0  0  0  0  0  0  0  0  0
  -23.9287  -25.7359   18.6053 C   0  0  0  0  0  0  0  0  0  0  0  0
  -18.3582  -26.2052   21.6680 C   0  0  0  0  0  0  0  0  0  0  0  0
  -28.9461  -13.3470   17.4899 C   0  0  0  0  0  0  0  0  0  0  0  0
  -19.7207  -26.0247   22.3297 C   0  0  0  0  0  0  0  0  0  0  0  0
  -27.6529  -12.8419   18.1274 C   0  0  0  0  0  0  0  0  0  0  0  0
  -30.0853  -13.4231   18.5019 C   0  0  0  0  0  0  0  0  0  0  0  0
  -28.4698  -13.7214   20.3499 C   0  0  0  0  0  0  0  0  0  0  0  0
  -20.4643  -27.3616   22.4351 C   0  0  1  0  0  0  0  0  0  0  0  0
  -22.6512  -27.7676   19.3552 C   0  0  1  0  0  0  0  0  0  0  0  0
  -27.2898  -13.6772   19.3675 C   0  0  2  0  0  0  0  0  0  0  0  0
  -29.5775  -17.7923   17.9348 C   0  0  0  0  0  0  0  0  0  0  0  0
  -22.0644  -24.2279   12.4902 C   0  0  0  0  0  0  0  0  0  0  0  0
  -29.5832  -24.4883   21.8950 C   0  0  0  0  0  0  0  0  0  0  0  0
  -20.5700  -23.6642   18.9182 C   0  0  0  0  0  0  0  0  0  0  0  0
  -20.7245  -22.6124   16.6515 C   0  0  0  0  0  0  0  0  0  0  0  0
  -19.2079  -24.5582   17.0209 C   0  0  0  0  0  0  0  0  0  0  0  0
  -31.1997  -16.9756   21.6645 C   0  0  0  0  0  0  0  0  0  0  0  0
  -24.4596  -27.0412   13.3980 C   0  0  0  0  0  0  0  0  0  0  0  0
  -28.9006  -16.7116   20.8101 C   0  0  0  0  0  0  0  0  0  0  0  0
  -21.7087  -24.9270   16.9754 C   0  0  1  0  0  0  0  0  0  0  0  0
  -22.5837  -25.3940   13.3167 C   0  0  2  0  0  0  0  0  0  0  0  0
  -28.5698  -24.3320   20.7709 C   0  0  1  0  0  0  0  0  0  1  0  0
  -20.5757  -23.9521   17.4036 C   0  0  0  0  0  0  0  0  0  0  0  0
  -25.7334  -11.8694   19.9934 N   0  0  0  0  0  0  0  0  0  0  0  0
  -26.0205  -13.1816   20.0352 N   0  0  0  0  0  0  0  0  0  0  0  0
  -22.7441  -26.6004   18.4759 N   0  0  0  0  0  0  0  0  0  0  0  0
  -29.6988  -14.1860   19.6893 N   0  0  0  0  0  0  0  0  0  0  0  0
  -25.2269  -15.2641   20.8377 N   0  0  0  0  0  0  0  0  0  0  0  0
  -22.0738  -12.3431   22.2242 N   0  0  0  0  0  0  0  0  0  0  0  0
  -28.6924  -21.9234   20.7237 N   0  0  0  0  0  0  0  0  0  0  0  0
  -21.0340  -27.7253   21.1554 N   0  0  0  0  0  0  0  0  0  0  0  0
  -21.7215  -25.2391   15.5503 N   0  0  0  0  0  0  0  0  0  0  0  0
  -30.2282  -16.1277   20.9884 N   0  0  0  0  0  0  0  0  0  0  0  0
  -23.8503  -25.8801   12.6998 N   0  3  0  0  0  0  0  0  0  0  0  0
  -22.6828  -14.5538   22.2016 O   0  0  0  0  0  0  0  0  0  0  0  0
  -23.0113  -26.5061   21.3184 O   0  0  0  0  0  0  0  0  0  0  0  0
  -20.6254  -26.9523   17.5683 O   0  0  0  0  0  0  0  0  0  0  0  0
  -23.8777  -24.4883   15.1450 O   0  0  0  0  0  0  0  0  0  0  0  0
  -29.1031  -23.1351   18.7550 O   0  0  0  0  0  0  0  0  0  0  0  0
  -31.8666  -14.6483   20.3253 O   0  0  0  0  0  0  0  0  0  0  0  0
  -22.0673   -6.8417   21.3466 O   0  0  0  0  0  0  0  0  0  0  0  0
  -28.6355  -25.4715   19.9145 O   0  0  0  0  0  0  0  0  0  1  0  0
  -20.1039   -5.6448   26.3582 F   0  0  0  0  0  0  0  0  0  0  0  0
  -22.9851   -4.6377   22.7403 F   0  0  0  0  0  0  0  0  0  0  0  0
  -28.6116  -19.3648   21.4925 S   0  0  0  0  0  0  0  0  0  0  0  0
  1  2  1  0  0  0  0
  1  5  2  0  0  0  0
  2  6  2  0  0  0  0
  3  8  2  0  0  0  0
  3 16  1  0  0  0  0
  4  9  1  0  0  0  0
  4 16  2  0  0  0  0
  5 18  1  0  0  0  0
  6 20  1  0  0  0  0
  7 10  2  0  0  0  0
  7 19  1  0  0  0  0
  8 23  1  0  0  0  0
  9 23  2  0  0  0  0
 10 24  1  0  0  0  0
 11 12  2  0  0  0  0
 11 25  1  0  0  0  0
 12 26  1  0  0  0  0
 13 21  1  0  0  0  0
 13 24  2  0  0  0  0
 14 22  1  0  0  0  0
 14 31  2  0  0  0  0
 15 26  2  0  0  0  0
 15 27  1  0  0  0  0
 16 28  1  0  0  0  0
 17 28  1  0  0  0  0
 17 30  2  0  0  0  0
 17 32  1  0  0  0  0
 18 20  2  0  0  0  0
 18 38  1  0  0  0  0
 19 21  2  0  0  0  0
 19 39  1  0  0  0  0
 20 47  1  0  0  0  0
 21 40  1  0  0  0  0
 22 29  2  0  0  0  0
 22 50  1  0  0  0  0
 23 80  1  0  0  0  0
 24 81  1  0  0  0  0
 25 27  2  0  0  0  0
 25 80  1  0  0  0  0
 26 82  1  0  0  0  0
 27 83  1  0  0  0  0
 28 63  2  0  0  0  0
 29 58  1  0  0  0  0
 29 84  1  0  0  0  0
 30 64  1  0  0  0  0
 30 67  1  0  0  0  0
 31 69  1  0  0  0  0
 31 84  1  0  0  0  0
 32 68  1  0  0  0  0
 32 74  2  0  0  0  0
 33 48  1  0  0  0  0
 33 70  1  0  0  0  0
 33 75  2  0  0  0  0
 34 59  1  0  0  0  0
 34 65  1  0  0  0  0
 34 76  2  0  0  0  0
 35 60  1  0  0  0  0
 35 71  1  0  0  0  0
 35 77  2  0  0  0  0
 36 61  1  0  0  0  0
 36 69  1  0  0  0  0
 36 78  2  0  0  0  0
 37 66  1  0  0  0  0
 37 72  1  0  0  0  0
 37 79  2  0  0  0  0
 38 41  1  0  0  0  0
 39 48  1  0  0  0  0
 40 65  1  0  0  0  0
 41 43  1  0  0  0  0
 42 44  1  0  0  0  0
 42 45  1  0  0  0  0
 43 47  1  0  0  0  0
 44 49  1  0  0  0  0
 45 66  1  0  0  0  0
 46 49  1  0  0  0  0
 46 66  1  0  0  0  0
 47 70  1  0  0  0  0
 48 65  1  0  0  0  0
 49 64  1  0  0  0  0
 51 60  1  0  0  0  0
 52 61  1  0  0  0  0
 53 62  1  0  0  0  0
 54 62  1  0  0  0  0
 55 62  1  0  0  0  0
 56 72  1  0  0  0  0
 57 73  1  0  0  0  0
 58 72  1  0  0  0  0
 59 62  1  0  0  0  0
 59 71  1  0  0  0  0
 60 73  1  0  0  0  0
 61 81  1  0  0  0  0
 63 64  1  0  0  0  0
M  CHG  1  73   1
M  ISO  4  37 100  61 101  72 100  81 101
M  END
> <Batch ID>
0184

> <Smiles>
CNC(C)C(=O)NC(C(=O)N1Cc2cc([101O:1][101CH:1](C)C(=O)Nc3cc(C)c(C[100N:0](C)[100C:0](=O)N4CCCC(n5nc(-c6ccc(Oc7ccc(F)cc7F)cc6)c(C(N)=O)c5N)C4)s3)ccc2CC1C(=O)NC1CCCc2ccccc21)C(C)(C)C

> <Shape>
0.373

> <Color>
0.215

> <Negative vol penalty>
0.000

$$$$

  -OEChem-04052305023D

 83 91  0     1  0  0  0  0  0999 V2000
  -19.2775  -33.8003   21.0942 C   0  0  0  0  0  0  0  0  0  0  0  0
  -20.5633  -33.4371   20.7068 C   0  0  0  0  0  0  0  0  0  0  0  0
  -27.3266  -11.2263   20.8870 C   0  0  0  0  0  0  0  0  0  0  0  0
  -27.3325  -11.4403   18.4805 C   0  0  0  0  0  0  0  0  0  0  0  0
  -18.6756  -33.1727   22.1841 C   0  0  0  0  0  0  0  0  0  0  0  0
  -21.2485  -32.4468   21.4098 C   0  0  0  0  0  0  0  0  0  0  0  0
  -25.1640  -28.3384   19.1084 C   0  0  0  0  0  0  0  0  0  0  0  0
  -26.4227  -10.1684   20.7908 C   0  0  0  0  0  0  0  0  0  0  0  0
  -26.4286  -10.3823   18.3843 C   0  0  0  0  0  0  0  0  0  0  0  0
  -26.5566  -28.2971   19.0555 C   0  0  0  0  0  0  0  0  0  0  0  0
  -23.8360   -7.6451   21.1977 C   0  0  0  0  0  0  0  0  0  0  0  0
  -22.7486   -7.6377   22.0712 C   0  0  0  0  0  0  0  0  0  0  0  0
  -26.5860  -26.9385   21.0487 C   0  0  0  0  0  0  0  0  0  0  0  0
  -22.0133   -9.7569   21.1739 C   0  0  0  0  0  0  0  0  0  0  0  0
  -27.7815  -11.8623   19.7319 C   0  0  0  0  0  0  0  0  0  0  0  0
  -30.1204  -12.8763   19.8269 C   0  0  0  0  0  0  0  0  0  0  0  0
  -19.3501  -32.1675   22.8949 C   0  0  0  0  0  0  0  0  0  0  0  0
  -24.4713  -27.6882   20.1398 C   0  0  0  0  0  0  0  0  0  0  0  0
  -20.6557  -31.8061   22.5111 C   0  0  0  0  0  0  0  0  0  0  0  0
  -25.1845  -26.9710   21.1110 C   0  0  0  0  0  0  0  0  0  0  0  0
  -25.9736   -9.7464   19.5394 C   0  0  0  0  0  0  0  0  0  0  0  0
  -27.2679  -27.5995   20.0273 C   0  0  0  0  0  0  0  0  0  0  0  0
  -24.0121   -8.7085   20.3123 C   0  0  0  0  0  0  0  0  0  0  0  0
  -21.8372   -8.6936   22.0593 C   0  0  0  0  0  0  0  0  0  0  0  0
  -23.1007   -9.7643   20.3004 C   0  0  0  0  0  0  0  0  0  0  0  0
  -28.7149  -12.9555   19.8307 C   0  0  0  0  0  0  0  0  0  0  0  0
  -29.6807  -22.4233   24.1824 C   0  0  0  0  0  0  0  0  0  0  0  0
  -30.5381  -14.1796   19.9430 C   0  0  0  0  0  0  0  0  0  0  0  0
  -29.5510  -22.9426   25.4535 C   0  0  0  0  0  0  0  0  0  0  0  0
  -29.4932  -24.5437   23.6547 C   0  0  0  0  0  0  0  0  0  0  0  0
  -29.8402  -21.0529   23.8823 C   0  0  0  0  0  0  0  0  0  0  0  0
  -29.9943  -20.4930   22.6356 C   0  0  0  0  0  0  0  0  0  0  0  0
  -30.9723  -11.7274   19.7273 C   0  0  0  0  0  0  0  0  0  0  0  0
  -30.1611  -19.0335   22.4853 C   0  0  0  0  0  0  0  0  0  0  0  0
  -22.5358  -28.6254   22.4805 C   0  0  0  0  0  0  0  0  0  0  0  0
  -22.2123  -25.4341   22.9636 C   0  0  0  0  0  0  0  0  0  0  0  0
  -23.5186  -22.3020   22.6020 C   0  0  0  0  0  0  0  0  0  0  0  0
  -29.4715  -25.9699   21.5799 C   0  0  0  0  0  0  0  0  0  0  0  0
  -18.6769  -31.5509   24.0954 C   0  0  0  0  0  0  0  0  0  0  0  0
  -22.9678  -27.7200   20.1676 C   0  0  0  0  0  0  0  0  0  0  0  0
  -24.4873  -26.2391   22.2275 C   0  0  0  0  0  0  0  0  0  0  0  0
  -19.3264  -30.2484   24.5559 C   0  0  0  0  0  0  0  0  0  0  0  0
  -27.9853  -18.5136   19.5823 C   0  0  0  0  0  0  0  0  0  0  0  0
  -20.8429  -30.4006   24.6171 C   0  0  0  0  0  0  0  0  0  0  0  0
  -28.0651  -16.9977   19.4232 C   0  0  0  0  0  0  0  0  0  0  0  0
  -28.0535  -18.9391   21.0483 C   0  0  0  0  0  0  0  0  0  0  0  0
  -29.3241  -16.8872   21.6102 C   0  0  0  0  0  0  0  0  0  0  0  0
  -21.4217  -30.7190   23.2332 C   0  0  1  0  0  0  0  0  0  0  0  0
  -22.3900  -27.4517   21.5538 C   0  0  1  0  0  0  0  0  0  0  0  0
  -29.3047  -16.4397   20.1403 C   0  0  1  0  0  0  0  0  0  0  0  0
  -23.0416  -19.8957   23.1305 C   0  0  0  0  0  0  0  0  0  0  0  0
  -30.6686  -28.1393   21.1107 C   0  0  0  0  0  0  0  0  0  0  0  0
  -22.9822  -25.9234   25.8752 C   0  0  0  0  0  0  0  0  0  0  0  0
  -23.4134  -23.4675   26.1012 C   0  0  0  0  0  0  0  0  0  0  0  0
  -21.1218  -24.2842   25.5494 C   0  0  0  0  0  0  0  0  0  0  0  0
  -23.5003  -21.5562   19.7380 C   0  0  0  0  0  0  0  0  0  0  0  0
  -22.9353  -24.3994   23.7916 C   0  0  1  0  0  0  0  0  0  0  0  0
  -22.9058  -21.0067   22.1010 C   0  0  2  0  0  0  0  0  0  0  0  0
  -29.3188  -27.4459   21.2216 C   0  0  1  0  0  0  0  0  0  1  0  0
  -22.6267  -24.5339   25.3096 C   0  0  0  0  0  0  0  0  0  0  0  0
  -28.2694  -14.2099   19.9407 N   0  0  0  0  0  0  0  0  0  0  0  0
  -29.6474  -23.3398   23.1497 N   0  0  0  0  0  0  0  0  0  0  0  0
  -29.4016  -14.9309   20.0071 N   0  0  0  0  0  0  0  0  0  0  0  0
  -29.2151  -18.3456   21.7275 N   0  0  0  0  0  0  0  0  0  0  0  0
  -23.0165  -26.3052   22.2151 N   0  0  0  0  0  0  0  0  0  0  0  0
  -31.7629  -14.7447   19.9955 N   0  0  0  0  0  0  0  0  0  0  0  0
  -30.3783  -10.4630   19.6142 N   0  0  0  0  0  0  0  0  0  0  0  0
  -29.4091  -25.7712   22.9553 N   0  0  0  0  0  0  0  0  0  0  0  0
  -21.4849  -29.5208   22.4240 N   0  0  0  0  0  0  0  0  0  0  0  0
  -22.5835  -23.1028   23.2229 N   0  0  0  0  0  0  0  0  0  0  0  0
  -23.5769  -20.5681   20.8447 N   0  3  0  0  0  0  0  0  0  0  0  0
  -32.2231  -11.8178   19.7548 O   0  0  0  0  0  0  0  0  0  0  0  0
  -31.1268  -18.5109   23.0449 O   0  0  0  0  0  0  0  0  0  0  0  0
  -23.5276  -28.7114   23.1952 O   0  0  0  0  0  0  0  0  0  0  0  0
  -20.9791  -25.4636   22.9747 O   0  0  0  0  0  0  0  0  0  0  0  0
  -24.7086  -22.5745   22.4603 O   0  0  0  0  0  0  0  0  0  0  0  0
  -29.6118  -25.1150   20.7101 O   0  0  0  0  0  0  0  0  0  0  0  0
  -25.0917   -8.7140   19.4451 O   0  0  0  0  0  0  0  0  0  0  0  0
  -28.6273  -27.5580   19.9784 O   0  0  0  0  0  0  0  0  0  1  0  0
  -20.7922   -8.6856   22.8972 F   0  0  0  0  0  0  0  0  0  0  0  0
  -23.2640  -10.7881   19.4512 F   0  0  0  0  0  0  0  0  0  0  0  0
  -29.5557  -22.2360   26.5874 F   0  0  0  0  0  0  0  0  0  0  0  0
  -29.3817  -24.6469   25.3640 S   0  0  0  0  0  0  0  0  0  0  0  0
  1  2  1  0  0  0  0
  1  5  2  0  0  0  0
  2  6  2  0  0  0  0
  3  8  2  0  0  0  0
  3 15  1  0  0  0  0
  4  9  1  0  0  0  0
  4 15  2  0  0  0  0
  5 17  1  0  0  0  0
  6 19  1  0  0  0  0
  7 10  2  0  0  0  0
  7 18  1  0  0  0  0
  8 21  1  0  0  0  0
  9 21  2  0  0  0  0
 10 22  1  0  0  0  0
 11 12  2  0  0  0  0
 11 23  1  0  0  0  0
 12 24  1  0  0  0  0
 13 20  1  0  0  0  0
 13 22  2  0  0  0  0
 14 24  2  0  0  0  0
 14 25  1  0  0  0  0
 15 26  1  0  0  0  0
 16 26  1  0  0  0  0
 16 28  2  0  0  0  0
 16 33  1  0  0  0  0
 17 19  2  0  0  0  0
 17 39  1  0  0  0  0
 18 20  2  0  0  0  0
 18 40  1  0  0  0  0
 19 48  1  0  0  0  0
 20 41  1  0  0  0  0
 21 78  1  0  0  0  0
 22 79  1  0  0  0  0
 23 25  2  0  0  0  0
 23 78  1  0  0  0  0
 24 80  1  0  0  0  0
 25 81  1  0  0  0  0
 26 61  2  0  0  0  0
 27 29  2  0  0  0  0
 27 31  1  0  0  0  0
 27 62  1  0  0  0  0
 28 63  1  0  0  0  0
 28 66  1  0  0  0  0
 29 82  1  0  0  0  0
 29 83  1  0  0  0  0
 30 62  2  0  0  0  0
 30 68  1  0  0  0  0
 30 83  1  0  0  0  0
 31 32  2  0  0  0  0
 32 34  1  0  0  0  0
 33 67  1  0  0  0  0
 33 72  2  0  0  0  0
 34 64  1  0  0  0  0
 34 73  2  0  0  0  0
 35 49  1  0  0  0  0
 35 69  1  0  0  0  0
 35 74  2  0  0  0  0
 36 57  1  0  0  0  0
 36 65  1  0  0  0  0
 36 75  2  0  0  0  0
 37 58  1  0  0  0  0
 37 70  1  0  0  0  0
 37 76  2  0  0  0  0
 38 59  1  0  0  0  0
 38 68  1  0  0  0  0
 38 77  2  0  0  0  0
 39 42  1  0  0  0  0
 40 49  1  0  0  0  0
 41 65  1  0  0  0  0
 42 44  1  0  0  0  0
 43 45  1  0  0  0  0
 43 46  1  0  0  0  0
 44 48  1  0  0  0  0
 45 50  1  0  0  0  0
 46 64  1  0  0  0  0
 47 50  1  0  0  0  0
 47 64  1  0  0  0  0
 48 69  1  0  0  0  0
 49 65  1  0  0  0  0
 50 63  1  0  0  0  0
 51 58  1  0  0  0  0
 52 59  1  0  0  0  0
 53 60  1  0  0  0  0
 54 60  1  0  0  0  0
 55 60  1  0  0  0  0
 56 71  1  0  0  0  0
 57 60  1  0  0  0  0
 57 70  1  0  0  0  0
 58 71  1  0  0  0  0
 59 79  1  0  0  0  0
 61 63  1  0  0  0  0
M  CHG  1  71   1
M  ISO  4  32 100  34 100  59 101  79 101
M  END
> <Batch ID>
0184

> <Smiles>
CNC(C)C(=O)NC(C(=O)N1Cc2cc([101O:1][101CH:1](C)C(=O)Nc3nc(C=[100CH:0][100C:0](=O)N4CCCC(n5nc(-c6ccc(Oc7ccc(F)cc7F)cc6)c(C(N)=O)c5N)C4)c(F)s3)ccc2CC1C(=O)NC1CCCc2ccccc21)C(C)(C)C

> <Shape>
0.209

> <Color>
0.100

> <Negative vol penalty>
0.000

$$$$

  -OEChem-04052305023D

 87 95  0     1  0  0  0  0  0999 V2000
  -29.5941  -11.4568   19.5966 C   0  0  0  0  0  0  0  0  0  0  0  0
  -29.0357  -12.0475   20.7245 C   0  0  0  0  0  0  0  0  0  0  0  0
  -26.4315  -28.4442   19.0666 C   0  0  0  0  0  0  0  0  0  0  0  0
  -26.2227  -27.2838   21.1754 C   0  0  0  0  0  0  0  0  0  0  0  0
  -29.5436  -12.1176   18.3711 C   0  0  0  0  0  0  0  0  0  0  0  0
  -28.4162  -13.2938   20.6249 C   0  0  0  0  0  0  0  0  0  0  0  0
  -26.0592  -14.9434   24.6157 C   0  0  0  0  0  0  0  0  0  0  0  0
  -25.3975  -29.3039   19.4373 C   0  0  0  0  0  0  0  0  0  0  0  0
  -25.1887  -28.1436   21.5461 C   0  0  0  0  0  0  0  0  0  0  0  0
  -26.7274  -15.3894   25.7551 C   0  0  0  0  0  0  0  0  0  0  0  0
  -21.8887  -28.4951   20.9005 C   0  0  0  0  0  0  0  0  0  0  0  0
  -20.7507  -27.9299   21.4760 C   0  0  0  0  0  0  0  0  0  0  0  0
  -26.2756  -17.6721   25.1191 C   0  0  0  0  0  0  0  0  0  0  0  0
  -21.1120  -29.2380   23.4749 C   0  0  0  0  0  0  0  0  0  0  0  0
  -26.8440  -27.4341   19.9356 C   0  0  0  0  0  0  0  0  0  0  0  0
  -29.2888  -26.7210   19.7863 C   0  0  0  0  0  0  0  0  0  0  0  0
  -28.9340  -13.3781   18.2598 C   0  0  0  0  0  0  0  0  0  0  0  0
  -25.5027  -15.8602   23.7123 C   0  0  0  0  0  0  0  0  0  0  0  0
  -28.3339  -13.9659   19.3920 C   0  0  0  0  0  0  0  0  0  0  0  0
  -25.5986  -17.2351   23.9703 C   0  0  0  0  0  0  0  0  0  0  0  0
  -24.7762  -29.1537   20.6770 C   0  0  0  0  0  0  0  0  0  0  0  0
  -26.8382  -16.7540   26.0055 C   0  0  0  0  0  0  0  0  0  0  0  0
  -22.6383  -29.4317   21.6122 C   0  0  0  0  0  0  0  0  0  0  0  0
  -20.3624  -28.3013   22.7632 C   0  0  0  0  0  0  0  0  0  0  0  0
  -22.2500  -29.8032   22.8994 C   0  0  0  0  0  0  0  0  0  0  0  0
  -27.9116  -26.5453   19.5530 C   0  0  0  0  0  0  0  0  0  0  0  0
  -29.9290  -17.3417   22.5635 C   0  0  0  0  0  0  0  0  0  0  0  0
  -30.3576  -16.8813   21.3361 C   0  0  0  0  0  0  0  0  0  0  0  0
  -29.8753  -25.6089   19.2334 C   0  0  0  0  0  0  0  0  0  0  0  0
  -29.3762  -18.7266   20.6716 C   0  0  0  0  0  0  0  0  0  0  0  0
  -29.9764  -27.7936   20.4440 C   0  0  0  0  0  0  0  0  0  0  0  0
  -30.0847  -16.7647   23.9236 C   0  0  0  0  0  0  0  0  0  0  0  0
  -25.9800  -16.5623   20.6491 C   0  0  0  0  0  0  0  0  0  0  0  0
  -23.4137  -18.4956   21.0953 C   0  0  0  0  0  0  0  0  0  0  0  0
  -21.4728  -20.2803   23.2619 C   0  0  0  0  0  0  0  0  0  0  0  0
  -28.9520  -19.9531   18.5124 C   0  0  0  0  0  0  0  0  0  0  0  0
  -28.9007  -14.0453   16.9074 C   0  0  0  0  0  0  0  0  0  0  0  0
  -24.7618  -15.3622   22.5016 C   0  0  0  0  0  0  0  0  0  0  0  0
  -25.0010  -18.2597   23.0422 C   0  0  0  0  0  0  0  0  0  0  0  0
  -28.6225  -15.5426   16.9898 C   0  0  0  0  0  0  0  0  0  0  0  0
  -28.5121  -22.2704   15.8453 C   0  0  0  0  0  0  0  0  0  0  0  0
  -27.4131  -15.7986   17.8767 C   0  0  0  0  0  0  0  0  0  0  0  0
  -28.4469  -23.6270   16.5507 C   0  0  0  0  0  0  0  0  0  0  0  0
  -27.8302  -21.1736   16.6612 C   0  0  0  0  0  0  0  0  0  0  0  0
  -28.2290  -22.4095   18.7546 C   0  0  0  0  0  0  0  0  0  0  0  0
  -27.6818  -15.3345   19.3138 C   0  0  1  0  0  0  0  0  0  0  0  0
  -24.6797  -16.3972   21.3838 C   0  0  1  0  0  0  0  0  0  0  0  0
  -28.9595  -23.5331   18.0012 C   0  0  2  0  0  0  0  0  0  0  0  0
  -19.4686  -21.7891   23.3265 C   0  0  0  0  0  0  0  0  0  0  0  0
  -27.5185  -19.4030   28.0488 C   0  0  0  0  0  0  0  0  0  0  0  0
  -25.1047  -20.7849   19.9954 C   0  0  0  0  0  0  0  0  0  0  0  0
  -23.4351  -22.3859   20.9534 C   0  0  0  0  0  0  0  0  0  0  0  0
  -22.7353  -20.7603   19.1954 C   0  0  0  0  0  0  0  0  0  0  0  0
  -19.9791  -18.4137   25.0065 C   0  0  0  0  0  0  0  0  0  0  0  0
  -29.6427  -18.2712   27.2962 C   0  0  0  0  0  0  0  0  0  0  0  0
  -23.2167  -19.9268   21.5333 C   0  0  1  0  0  0  0  0  0  0  0  0
  -19.9668  -20.3565   23.4367 C   0  0  2  0  0  0  0  0  0  0  0  0
  -30.3179  -17.2735   26.3407 C   0  0  2  0  0  0  0  0  0  0  0  0
  -28.1429  -18.4583   27.0298 C   0  0  1  0  0  0  0  0  0  1  0  0
  -31.8020  -17.1406   26.6575 C   0  0  0  0  0  0  0  0  0  0  0  0
  -23.6360  -20.9455   20.4361 C   0  0  0  0  0  0  0  0  0  0  0  0
  -27.6395  -25.4110   18.9025 N   0  0  0  0  0  0  0  0  0  0  0  0
  -30.0412  -17.6739   20.2501 N   0  0  0  0  0  0  0  0  0  0  0  0
  -28.8537  -24.8639   18.7222 N   0  0  0  0  0  0  0  0  0  0  0  0
  -24.2919  -17.7233   21.8687 N   0  0  0  0  0  0  0  0  0  0  0  0
  -28.3694  -21.1411   18.0225 N   0  0  0  0  0  0  0  0  0  0  0  0
  -31.0496  -15.7299   21.1613 N   0  0  0  0  0  0  0  0  0  0  0  0
  -31.1601  -25.2055   19.1394 N   0  0  0  0  0  0  0  0  0  0  0  0
  -29.2209  -28.8582   20.9542 N   0  0  0  0  0  0  0  0  0  0  0  0
  -28.8613  -19.7940   19.8948 N   0  0  0  0  0  0  0  0  0  0  0  0
  -30.1436  -17.6779   24.9643 N   0  0  0  0  0  0  0  0  0  0  0  0
  -26.4500  -15.3996   20.0690 N   0  0  0  0  0  0  0  0  0  0  0  0
  -21.8232  -20.0378   21.9506 N   0  0  0  0  0  0  0  0  0  0  0  0
  -19.5725  -19.8231   24.7712 N   0  3  0  0  0  0  0  0  0  0  0  0
  -31.2251  -27.8154   20.5610 O   0  0  0  0  0  0  0  0  0  0  0  0
  -30.1716  -15.5463   24.0521 O   0  0  0  0  0  0  0  0  0  0  0  0
  -26.5163  -17.6635   20.6101 O   0  0  0  0  0  0  0  0  0  0  0  0
  -22.8052  -18.0763   20.1076 O   0  0  0  0  0  0  0  0  0  0  0  0
  -22.2598  -20.4254   24.1947 O   0  0  0  0  0  0  0  0  0  0  0  0
  -29.5156  -19.1502   17.7643 O   0  0  0  0  0  0  0  0  0  0  0  0
  -23.7674  -29.9925   21.0392 O   0  0  0  0  0  0  0  0  0  0  0  0
  -27.4905  -17.1921   27.1166 O   0  0  0  0  0  0  0  0  0  1  0  0
  -19.2687  -27.7596   23.3152 F   0  0  0  0  0  0  0  0  0  0  0  0
  -22.9655  -30.7033   23.5876 F   0  0  0  0  0  0  0  0  0  0  0  0
  -32.3828  -16.2704   25.7937 F   0  0  0  0  0  0  0  0  0  0  0  0
  -32.4286  -18.3324   26.4967 F   0  0  0  0  0  0  0  0  0  0  0  0
  -29.0966  -18.8276   22.3618 S   0  0  0  0  0  0  0  0  0  0  0  0
  1  2  1  0  0  0  0
  1  5  2  0  0  0  0
  2  6  2  0  0  0  0
  3  8  2  0  0  0  0
  3 15  1  0  0  0  0
  4  9  1  0  0  0  0
  4 15  2  0  0  0  0
  5 17  1  0  0  0  0
  6 19  1  0  0  0  0
  7 10  2  0  0  0  0
  7 18  1  0  0  0  0
  8 21  1  0  0  0  0
  9 21  2  0  0  0  0
 10 22  1  0  0  0  0
 11 12  2  0  0  0  0
 11 23  1  0  0  0  0
 12 24  1  0  0  0  0
 13 20  1  0  0  0  0
 13 22  2  0  0  0  0
 14 24  2  0  0  0  0
 14 25  1  0  0  0  0
 15 26  1  0  0  0  0
 16 26  1  0  0  0  0
 16 29  2  0  0  0  0
 16 31  1  0  0  0  0
 17 19  2  0  0  0  0
 17 37  1  0  0  0  0
 18 20  2  0  0  0  0
 18 38  1  0  0  0  0
 19 46  1  0  0  0  0
 20 39  1  0  0  0  0
 21 81  1  0  0  0  0
 22 82  1  0  0  0  0
 23 25  2  0  0  0  0
 23 81  1  0  0  0  0
 24 83  1  0  0  0  0
 25 84  1  0  0  0  0
 26 62  2  0  0  0  0
 27 28  2  0  0  0  0
 27 32  1  0  0  0  0
 27 87  1  0  0  0  0
 28 63  1  0  0  0  0
 28 67  1  0  0  0  0
 29 64  1  0  0  0  0
 29 68  1  0  0  0  0
 30 63  2  0  0  0  0
 30 70  1  0  0  0  0
 30 87  1  0  0  0  0
 31 69  1  0  0  0  0
 31 75  2  0  0  0  0
 32 71  1  0  0  0  0
 32 76  2  0  0  0  0
 33 47  1  0  0  0  0
 33 72  1  0  0  0  0
 33 77  2  0  0  0  0
 34 56  1  0  0  0  0
 34 65  1  0  0  0  0
 34 78  2  0  0  0  0
 35 57  1  0  0  0  0
 35 73  1  0  0  0  0
 35 79  2  0  0  0  0
 36 66  1  0  0  0  0
 36 70  1  0  0  0  0
 36 80  2  0  0  0  0
 37 40  1  0  0  0  0
 38 47  1  0  0  0  0
 39 65  1  0  0  0  0
 40 42  1  0  0  0  0
 41 43  1  0  0  0  0
 41 44  1  0  0  0  0
 42 46  1  0  0  0  0
 43 48  1  0  0  0  0
 44 66  1  0  0  0  0
 45 48  1  0  0  0  0
 45 66  1  0  0  0  0
 46 72  1  0  0  0  0
 47 65  1  0  0  0  0
 48 64  1  0  0  0  0
 49 57  1  0  0  0  0
 50 59  1  0  0  0  0
 51 61  1  0  0  0  0
 52 61  1  0  0  0  0
 53 61  1  0  0  0  0
 54 74  1  0  0  0  0
 55 58  1  0  0  0  0
 55 59  1  0  0  0  0
 56 61  1  0  0  0  0
 56 73  1  0  0  0  0
 57 74  1  0  0  0  0
 58 60  1  0  0  0  0
 58 71  1  0  0  0  0
 59 82  1  0  0  0  0
 60 85  1  0  0  0  0
 60 86  1  0  0  0  0
 62 64  1  0  0  0  0
M  CHG  1  74   1
M  ISO  4  36 100  59 101  70 100  82 101
M  END
> <Batch ID>
0184

> <Smiles>
CNC(C)C(=O)NC(C(=O)N1Cc2cc([101O:1][101CH:1](C)CC(NC(=O)c3sc([100NH:0][100C:0](=O)N4CCCC(n5nc(-c6ccc(Oc7ccc(F)cc7F)cc6)c(C(N)=O)c5N)C4)nc3N)C(F)F)ccc2CC1C(=O)NC1CCCc2ccccc21)C(C)(C)C

> <Shape>
0.227

> <Color>
0.071

> <Negative vol penalty>
0.000

$$$$

  -OEChem-04052305023D

 85 93  0     1  0  0  0  0  0999 V2000
  -16.6592  -30.0854   24.0918 C   0  0  0  0  0  0  0  0  0  0  0  0
  -17.8117  -30.3002   24.8408 C   0  0  0  0  0  0  0  0  0  0  0  0
  -25.5338  -14.0274   22.3440 C   0  0  0  0  0  0  0  0  0  0  0  0
  -27.0734  -14.1756   20.4880 C   0  0  0  0  0  0  0  0  0  0  0  0
  -16.7051  -29.2687   22.9627 C   0  0  0  0  0  0  0  0  0  0  0  0
  -19.0106  -29.6975   24.4618 C   0  0  0  0  0  0  0  0  0  0  0  0
  -26.0835  -30.8333   24.4899 C   0  0  0  0  0  0  0  0  0  0  0  0
  -25.3198  -12.6789   22.0589 C   0  0  0  0  0  0  0  0  0  0  0  0
  -26.8594  -12.8270   20.2029 C   0  0  0  0  0  0  0  0  0  0  0  0
  -27.2713  -30.2198   24.8853 C   0  0  0  0  0  0  0  0  0  0  0  0
  -23.5298  -10.8546   19.8471 C   0  0  0  0  0  0  0  0  0  0  0  0
  -22.2139  -10.3922   19.8549 C   0  0  0  0  0  0  0  0  0  0  0  0
  -27.2492  -28.8925   22.8711 C   0  0  0  0  0  0  0  0  0  0  0  0
  -22.7751   -8.8246   21.6056 C   0  0  0  0  0  0  0  0  0  0  0  0
  -26.4105  -14.7758   21.5585 C   0  0  0  0  0  0  0  0  0  0  0  0
  -27.6093  -16.7131   22.7064 C   0  0  0  0  0  0  0  0  0  0  0  0
  -17.9074  -28.6634   22.5641 C   0  0  0  0  0  0  0  0  0  0  0  0
  -25.4628  -30.4727   23.2853 C   0  0  0  0  0  0  0  0  0  0  0  0
  -19.0724  -28.8708   23.3271 C   0  0  0  0  0  0  0  0  0  0  0  0
  -26.0549  -29.5048   22.4614 C   0  0  0  0  0  0  0  0  0  0  0  0
  -25.9827  -12.0787   20.9884 C   0  0  0  0  0  0  0  0  0  0  0  0
  -27.8528  -29.2471   24.0773 C   0  0  0  0  0  0  0  0  0  0  0  0
  -24.4685  -10.3020   20.7185 C   0  0  0  0  0  0  0  0  0  0  0  0
  -21.8365   -9.3772   20.7342 C   0  0  0  0  0  0  0  0  0  0  0  0
  -24.0911   -9.2871   21.5977 C   0  0  0  0  0  0  0  0  0  0  0  0
  -26.6315  -16.1690   21.8521 C   0  0  0  0  0  0  0  0  0  0  0  0
  -30.6247  -25.1403   20.5255 C   0  0  0  0  0  0  0  0  0  0  0  0
  -29.5042  -25.8342   20.1194 C   0  0  0  0  0  0  0  0  0  0  0  0
  -27.4039  -18.0697   22.6433 C   0  0  0  0  0  0  0  0  0  0  0  0
  -28.6405  -23.8192   20.1790 C   0  0  0  0  0  0  0  0  0  0  0  0
  -28.6134  -16.0513   23.4871 C   0  0  0  0  0  0  0  0  0  0  0  0
  -22.6590  -29.1971   22.5007 C   0  0  0  0  0  0  0  0  0  0  0  0
  -32.0254  -26.5937   22.0253 C   0  0  0  0  0  0  0  0  0  0  0  0
  -23.6784  -29.7832   19.4776 C   0  0  0  0  0  0  0  0  0  0  0  0
  -26.2995  -30.2782   17.3487 C   0  0  0  0  0  0  0  0  0  0  0  0
  -26.4185  -22.7169   19.7389 C   0  0  0  0  0  0  0  0  0  0  0  0
  -17.8974  -27.7507   21.3634 C   0  0  0  0  0  0  0  0  0  0  0  0
  -24.1959  -31.1630   22.8601 C   0  0  0  0  0  0  0  0  0  0  0  0
  -25.4391  -29.0963   21.1490 C   0  0  0  0  0  0  0  0  0  0  0  0
  -19.2901  -27.4504   20.8152 C   0  0  0  0  0  0  0  0  0  0  0  0
  -23.5990  -20.7353   20.6337 C   0  0  0  0  0  0  0  0  0  0  0  0
  -20.2438  -27.0888   21.9494 C   0  0  0  0  0  0  0  0  0  0  0  0
  -24.2170  -19.4154   21.1008 C   0  0  0  0  0  0  0  0  0  0  0  0
  -24.3695  -21.3387   19.4608 C   0  0  0  0  0  0  0  0  0  0  0  0
  -26.4306  -20.1777   20.1489 C   0  0  0  0  0  0  0  0  0  0  0  0
  -20.3974  -28.2545   22.9338 C   0  0  1  0  0  0  0  0  0  0  0  0
  -23.3789  -30.3501   21.8605 C   0  0  1  0  0  0  0  0  0  0  0  0
  -25.7271  -19.5646   21.3708 C   0  0  2  0  0  0  0  0  0  0  0  0
  -32.6760  -26.2624   19.6034 C   0  0  0  0  0  0  0  0  0  0  0  0
  -26.8209  -30.6946   14.9296 C   0  0  0  0  0  0  0  0  0  0  0  0
  -23.1251  -26.8478   18.8556 C   0  0  0  0  0  0  0  0  0  0  0  0
  -24.5204  -27.0942   16.7915 C   0  0  0  0  0  0  0  0  0  0  0  0
  -22.4386  -28.4428   17.0559 C   0  0  0  0  0  0  0  0  0  0  0  0
  -27.5749  -32.8800   17.9515 C   0  0  0  0  0  0  0  0  0  0  0  0
  -31.4900  -26.0419   23.3394 C   0  0  0  0  0  0  0  0  0  0  0  0
  -29.5524  -27.6581   23.5849 C   0  0  0  0  0  0  0  0  0  1  0  0
  -32.0241  -25.6318   20.8356 C   0  0  2  0  0  0  0  0  0  0  0  0
  -24.4703  -29.0135   18.4482 C   0  0  1  0  0  0  0  0  0  0  0  0
  -26.5469  -31.3310   16.2834 C   0  0  2  0  0  0  0  0  0  0  0  0
  -30.8189  -27.0945   24.2127 C   0  0  1  0  0  0  0  0  0  0  0  0
  -23.6494  -27.8557   17.8134 C   0  0  0  0  0  0  0  0  0  0  0  0
  -25.8621  -17.1037   21.2878 N   0  0  0  0  0  0  0  0  0  0  0  0
  -28.3656  -25.0783   19.9198 N   0  0  0  0  0  0  0  0  0  0  0  0
  -26.3562  -18.2487   21.7886 N   0  0  0  0  0  0  0  0  0  0  0  0
  -24.1972  -29.7957   20.7801 N   0  0  0  0  0  0  0  0  0  0  0  0
  -25.7918  -21.4538   19.7905 N   0  0  0  0  0  0  0  0  0  0  0  0
  -29.4818  -27.1730   19.9159 N   0  0  0  0  0  0  0  0  0  0  0  0
  -28.0191  -19.1149   23.2361 N   0  0  0  0  0  0  0  0  0  0  0  0
  -28.6853  -14.6526   23.4360 N   0  0  0  0  0  0  0  0  0  0  0  0
  -27.7641  -22.7083   20.1046 N   0  0  0  0  0  0  0  0  0  0  0  0
  -21.2831  -29.2617   22.3902 N   0  0  0  0  0  0  0  0  0  0  0  0
  -24.9566  -29.9979   17.4876 N   0  0  0  0  0  0  0  0  0  0  0  0
  -27.7185  -32.1752   16.6516 N   0  3  0  0  0  0  0  0  0  0  0  0
  -29.4123  -16.6807   24.2213 O   0  0  0  0  0  0  0  0  0  0  0  0
  -23.3041  -28.3135   23.0528 O   0  0  0  0  0  0  0  0  0  0  0  0
  -32.4583  -27.7425   21.9316 O   0  0  0  0  0  0  0  0  0  0  0  0
  -22.6417  -30.3583   19.1369 O   0  0  0  0  0  0  0  0  0  0  0  0
  -27.2070  -29.7542   17.9907 O   0  0  0  0  0  0  0  0  0  0  0  0
  -25.7996  -23.7359   19.4217 O   0  0  0  0  0  0  0  0  0  0  0  0
  -25.7743  -10.7628   20.7100 O   0  0  0  0  0  0  0  0  0  0  0  0
  -29.0119  -28.6462   24.4612 O   0  0  0  0  0  0  0  0  0  1  0  0
  -20.5724   -8.9343   20.7427 F   0  0  0  0  0  0  0  0  0  0  0  0
  -24.9881   -8.7531   22.4380 F   0  0  0  0  0  0  0  0  0  0  0  0
  -30.4608  -26.4852   25.3828 F   0  0  0  0  0  0  0  0  0  0  0  0
  -30.2486  -23.4731   20.6684 S   0  0  0  0  0  0  0  0  0  0  0  0
  1  2  1  0  0  0  0
  1  5  2  0  0  0  0
  2  6  2  0  0  0  0
  3  8  2  0  0  0  0
  3 15  1  0  0  0  0
  4  9  1  0  0  0  0
  4 15  2  0  0  0  0
  5 17  1  0  0  0  0
  6 19  1  0  0  0  0
  7 10  2  0  0  0  0
  7 18  1  0  0  0  0
  8 21  1  0  0  0  0
  9 21  2  0  0  0  0
 10 22  1  0  0  0  0
 11 12  2  0  0  0  0
 11 23  1  0  0  0  0
 12 24  1  0  0  0  0
 13 20  1  0  0  0  0
 13 22  2  0  0  0  0
 14 24  2  0  0  0  0
 14 25  1  0  0  0  0
 15 26  1  0  0  0  0
 16 26  1  0  0  0  0
 16 29  2  0  0  0  0
 16 31  1  0  0  0  0
 17 19  2  0  0  0  0
 17 37  1  0  0  0  0
 18 20  2  0  0  0  0
 18 38  1  0  0  0  0
 19 46  1  0  0  0  0
 20 39  1  0  0  0  0
 21 80  1  0  0  0  0
 22 81  1  0  0  0  0
 23 25  2  0  0  0  0
 23 80  1  0  0  0  0
 24 82  1  0  0  0  0
 25 83  1  0  0  0  0
 26 62  2  0  0  0  0
 27 28  2  0  0  0  0
 27 57  1  0  0  0  0
 27 85  1  0  0  0  0
 28 63  1  0  0  0  0
 28 67  1  0  0  0  0
 29 64  1  0  0  0  0
 29 68  1  0  0  0  0
 30 63  2  0  0  0  0
 30 70  1  0  0  0  0
 30 85  1  0  0  0  0
 31 69  1  0  0  0  0
 31 74  2  0  0  0  0
 32 47  1  0  0  0  0
 32 71  1  0  0  0  0
 32 75  2  0  0  0  0
 33 55  1  0  0  0  0
 33 57  1  0  0  0  0
 33 76  2  0  0  0  0
 34 58  1  0  0  0  0
 34 65  1  0  0  0  0
 34 77  2  0  0  0  0
 35 59  1  0  0  0  0
 35 72  1  0  0  0  0
 35 78  2  0  0  0  0
 36 66  1  0  0  0  0
 36 70  1  0  0  0  0
 36 79  2  0  0  0  0
 37 40  1  0  0  0  0
 38 47  1  0  0  0  0
 39 65  1  0  0  0  0
 40 42  1  0  0  0  0
 41 43  1  0  0  0  0
 41 44  1  0  0  0  0
 42 46  1  0  0  0  0
 43 48  1  0  0  0  0
 44 66  1  0  0  0  0
 45 48  1  0  0  0  0
 45 66  1  0  0  0  0
 46 71  1  0  0  0  0
 47 65  1  0  0  0  0
 48 64  1  0  0  0  0
 49 57  1  0  0  0  0
 50 59  1  0  0  0  0
 51 61  1  0  0  0  0
 52 61  1  0  0  0  0
 53 61  1  0  0  0  0
 54 73  1  0  0  0  0
 55 60  1  0  0  0  0
 56 60  1  0  0  0  0
 56 81  1  0  0  0  0
 58 61  1  0  0  0  0
 58 72  1  0  0  0  0
 59 73  1  0  0  0  0
 60 84  1  0  0  0  0
 62 64  1  0  0  0  0
M  CHG  1  73   1
M  ISO  4  36 100  56 101  70 100  81 101
M  END
> <Batch ID>
0184

> <Smiles>
CNC(C)C(=O)NC(C(=O)N1Cc2cc([101O:1][101CH2:1]C(F)CC(=O)C(C)c3sc([100NH:0][100C:0](=O)N4CCCC(n5nc(-c6ccc(Oc7ccc(F)cc7F)cc6)c(C(N)=O)c5N)C4)nc3N)ccc2CC1C(=O)NC1CCCc2ccccc21)C(C)(C)C

> <Shape>
0.257

> <Color>
0.095

> <Negative vol penalty>
0.000

$$$$

  -OEChem-04052305023D

 83 91  0     1  0  0  0  0  0999 V2000
  -24.7060   -9.2293   23.7670 C   0  0  0  0  0  0  0  0  0  0  0  0
  -25.6480  -10.2291   23.9872 C   0  0  0  0  0  0  0  0  0  0  0  0
  -19.8117  -28.5727   23.5302 C   0  0  0  0  0  0  0  0  0  0  0  0
  -20.8731  -26.8990   22.1485 C   0  0  0  0  0  0  0  0  0  0  0  0
  -23.9477   -9.2331   22.5970 C   0  0  0  0  0  0  0  0  0  0  0  0
  -25.8329  -11.2327   23.0369 C   0  0  0  0  0  0  0  0  0  0  0  0
  -27.5264  -18.1728   22.5040 C   0  0  0  0  0  0  0  0  0  0  0  0
  -18.6085  -28.3668   22.8553 C   0  0  0  0  0  0  0  0  0  0  0  0
  -19.6699  -26.6930   21.4737 C   0  0  0  0  0  0  0  0  0  0  0  0
  -28.4140  -19.0168   21.8381 C   0  0  0  0  0  0  0  0  0  0  0  0
  -16.7864  -25.4690   19.6282 C   0  0  0  0  0  0  0  0  0  0  0  0
  -16.3916  -24.1522   19.3921 C   0  0  0  0  0  0  0  0  0  0  0  0
  -26.9914  -18.9664   19.8906 C   0  0  0  0  0  0  0  0  0  0  0  0
  -16.3682  -23.7327   21.7713 C   0  0  0  0  0  0  0  0  0  0  0  0
  -30.2100  -25.4824   21.0784 C   0  0  0  0  0  0  0  0  0  0  0  0
  -20.9441  -27.8389   23.1767 C   0  0  0  0  0  0  0  0  0  0  0  0
  -22.6400  -27.3852   25.0276 C   0  0  0  0  0  0  0  0  0  0  0  0
  -24.1166  -10.2427   21.6363 C   0  0  0  0  0  0  0  0  0  0  0  0
  -26.3681  -17.7097   21.8634 C   0  0  0  0  0  0  0  0  0  0  0  0
  -25.0771  -11.2492   21.8524 C   0  0  0  0  0  0  0  0  0  0  0  0
  -26.0894  -18.1187   20.5515 C   0  0  0  0  0  0  0  0  0  0  0  0
  -18.5375  -27.4269   21.8271 C   0  0  0  0  0  0  0  0  0  0  0  0
  -28.1481  -19.4114   20.5302 C   0  0  0  0  0  0  0  0  0  0  0  0
  -16.9723  -25.9177   20.9358 C   0  0  0  0  0  0  0  0  0  0  0  0
  -16.1825  -23.2841   20.4637 C   0  0  0  0  0  0  0  0  0  0  0  0
  -16.7631  -25.0495   22.0074 C   0  0  0  0  0  0  0  0  0  0  0  0
  -30.3027  -26.8936   21.2519 C   0  0  0  0  0  0  0  0  0  0  0  0
  -22.1874  -28.0516   23.8731 C   0  0  0  0  0  0  0  0  0  0  0  0
  -29.3451  -27.5681   20.5270 C   0  0  0  0  0  0  0  0  0  0  0  0
  -23.8663  -27.9458   25.2891 C   0  0  0  0  0  0  0  0  0  0  0  0
  -29.1848  -25.1320   20.2275 C   0  0  0  0  0  0  0  0  0  0  0  0
  -22.0083  -26.3518   25.7950 C   0  0  0  0  0  0  0  0  0  0  0  0
  -25.2506  -14.8499   21.0410 C   0  0  0  0  0  0  0  0  0  0  0  0
  -22.6182  -16.5506   20.2044 C   0  0  0  0  0  0  0  0  0  0  0  0
  -21.2824  -19.5483   19.2681 C   0  0  0  0  0  0  0  0  0  0  0  0
  -29.2608  -22.6176   20.1229 C   0  0  0  0  0  0  0  0  0  0  0  0
  -27.9139  -30.6925   21.8362 C   0  0  0  0  0  0  0  0  0  0  0  0
  -23.3071  -10.1783   20.3655 C   0  0  0  0  0  0  0  0  0  0  0  0
  -25.4071  -16.8212   22.6047 C   0  0  0  0  0  0  0  0  0  0  0  0
  -24.8495  -17.6658   19.8262 C   0  0  0  0  0  0  0  0  0  0  0  0
  -23.3003  -11.4876   19.5806 C   0  0  0  0  0  0  0  0  0  0  0  0
  -26.3186  -32.0158   24.7310 C   0  0  0  0  0  0  0  0  0  0  0  0
  -24.7133  -12.0518   19.4713 C   0  0  0  0  0  0  0  0  0  0  0  0
  -25.1198  -31.0898   24.9436 C   0  0  0  0  0  0  0  0  0  0  0  0
  -26.5980  -32.2459   23.2474 C   0  0  0  0  0  0  0  0  0  0  0  0
  -25.5577  -30.0899   22.6617 C   0  0  0  0  0  0  0  0  0  0  0  0
  -25.2894  -12.3689   20.8566 C   0  0  1  0  0  0  0  0  0  0  0  0
  -24.5187  -15.9972   21.6779 C   0  0  1  0  0  0  0  0  0  0  0  0
  -25.2714  -29.7832   24.1417 C   0  0  2  0  0  0  0  0  0  0  0  0
  -19.1082  -20.6185   18.6164 C   0  0  0  0  0  0  0  0  0  0  0  0
  -28.6329  -21.5731   17.9152 C   0  0  0  0  0  0  0  0  0  0  0  0
  -22.8043  -15.2469   17.4520 C   0  0  0  0  0  0  0  0  0  0  0  0
  -21.2542  -17.0129   16.5877 C   0  0  0  0  0  0  0  0  0  0  0  0
  -20.4823  -15.4375   18.3612 C   0  0  0  0  0  0  0  0  0  0  0  0
  -21.3882  -21.4260   21.5533 C   0  0  0  0  0  0  0  0  0  0  0  0
  -29.1130  -29.0262   20.4416 C   0  0  0  0  0  0  0  0  0  0  0  0
  -22.1488  -17.2456   18.9492 C   0  0  1  0  0  0  0  0  0  0  0  0
  -20.0609  -20.3041   19.7592 C   0  0  2  0  0  0  0  0  0  0  0  0
  -28.5024  -21.4892   19.4288 C   0  0  1  0  0  0  0  0  0  1  0  0
  -21.6968  -16.2429   17.8502 C   0  0  0  0  0  0  0  0  0  0  0  0
  -23.0555  -28.9657   23.4317 N   0  0  0  0  0  0  0  0  0  0  0  0
  -24.0658  -28.8778   24.3136 N   0  0  0  0  0  0  0  0  0  0  0  0
  -23.9439  -16.7928   20.5912 N   0  0  0  0  0  0  0  0  0  0  0  0
  -26.7327  -30.9676   22.5447 N   0  0  0  0  0  0  0  0  0  0  0  0
  -24.7825  -27.7275   26.2562 N   0  0  0  0  0  0  0  0  0  0  0  0
  -20.7491  -25.8914   25.3867 N   0  0  0  0  0  0  0  0  0  0  0  0
  -28.7432  -23.8631   19.7827 N   0  0  0  0  0  0  0  0  0  0  0  0
  -24.7375  -13.6076   21.3620 N   0  0  0  0  0  0  0  0  0  0  0  0
  -21.1116  -18.1835   19.3653 N   0  0  0  0  0  0  0  0  0  0  0  0
  -27.9621  -29.4560   21.2040 N   0  0  0  0  0  0  0  0  0  0  0  0
  -20.4682  -21.5875   20.3980 N   0  3  0  0  0  0  0  0  0  0  0  0
  -22.5374  -25.8631   26.8220 O   0  0  0  0  0  0  0  0  0  0  0  0
  -26.2089  -15.0750   20.3112 O   0  0  0  0  0  0  0  0  0  0  0  0
  -21.8352  -15.8254   20.8229 O   0  0  0  0  0  0  0  0  0  0  0  0
  -22.2860  -20.1120   18.8375 O   0  0  0  0  0  0  0  0  0  0  0  0
  -30.1919  -22.3823   20.8877 O   0  0  0  0  0  0  0  0  0  0  0  0
  -28.8580  -31.4875   21.7760 O   0  0  0  0  0  0  0  0  0  0  0  0
  -17.3635  -27.2255   21.1686 O   0  0  0  0  0  0  0  0  0  0  0  0
  -29.0131  -20.2347   19.8776 O   0  0  0  0  0  0  0  0  0  1  0  0
  -15.8018  -22.0200   20.2369 F   0  0  0  0  0  0  0  0  0  0  0  0
  -16.9389  -25.4752   23.2658 F   0  0  0  0  0  0  0  0  0  0  0  0
  -31.2116  -27.4881   22.0273 F   0  0  0  0  0  0  0  0  0  0  0  0
  -28.3397  -26.5014   19.6418 S   0  0  0  0  0  0  0  0  0  0  0  0
  1  2  1  0  0  0  0
  1  5  2  0  0  0  0
  2  6  2  0  0  0  0
  3  8  2  0  0  0  0
  3 16  1  0  0  0  0
  4  9  1  0  0  0  0
  4 16  2  0  0  0  0
  5 18  1  0  0  0  0
  6 20  1  0  0  0  0
  7 10  2  0  0  0  0
  7 19  1  0  0  0  0
  8 22  1  0  0  0  0
  9 22  2  0  0  0  0
 10 23  1  0  0  0  0
 11 12  2  0  0  0  0
 11 24  1  0  0  0  0
 12 25  1  0  0  0  0
 13 21  1  0  0  0  0
 13 23  2  0  0  0  0
 14 25  2  0  0  0  0
 14 26  1  0  0  0  0
 15 27  1  0  0  0  0
 15 31  2  0  0  0  0
 16 28  1  0  0  0  0
 17 28  1  0  0  0  0
 17 30  2  0  0  0  0
 17 32  1  0  0  0  0
 18 20  2  0  0  0  0
 18 38  1  0  0  0  0
 19 21  2  0  0  0  0
 19 39  1  0  0  0  0
 20 47  1  0  0  0  0
 21 40  1  0  0  0  0
 22 78  1  0  0  0  0
 23 79  1  0  0  0  0
 24 26  2  0  0  0  0
 24 78  1  0  0  0  0
 25 80  1  0  0  0  0
 26 81  1  0  0  0  0
 27 29  2  0  0  0  0
 27 82  1  0  0  0  0
 28 61  2  0  0  0  0
 29 56  1  0  0  0  0
 29 83  1  0  0  0  0
 30 62  1  0  0  0  0
 30 65  1  0  0  0  0
 31 67  1  0  0  0  0
 31 83  1  0  0  0  0
 32 66  1  0  0  0  0
 32 72  2  0  0  0  0
 33 48  1  0  0  0  0
 33 68  1  0  0  0  0
 33 73  2  0  0  0  0
 34 57  1  0  0  0  0
 34 63  1  0  0  0  0
 34 74  2  0  0  0  0
 35 58  1  0  0  0  0
 35 69  1  0  0  0  0
 35 75  2  0  0  0  0
 36 59  1  0  0  0  0
 36 67  1  0  0  0  0
 36 76  2  0  0  0  0
 37 64  1  0  0  0  0
 37 70  1  0  0  0  0
 37 77  2  0  0  0  0
 38 41  1  0  0  0  0
 39 48  1  0  0  0  0
 40 63  1  0  0  0  0
 41 43  1  0  0  0  0
 42 44  1  0  0  0  0
 42 45  1  0  0  0  0
 43 47  1  0  0  0  0
 44 49  1  0  0  0  0
 45 64  1  0  0  0  0
 46 49  1  0  0  0  0
 46 64  1  0  0  0  0
 47 68  1  0  0  0  0
 48 63  1  0  0  0  0
 49 62  1  0  0  0  0
 50 58  1  0  0  0  0
 51 59  1  0  0  0  0
 52 60  1  0  0  0  0
 53 60  1  0  0  0  0
 54 60  1  0  0  0  0
 55 71  1  0  0  0  0
 56 70  1  0  0  0  0
 57 60  1  0  0  0  0
 57 69  1  0  0  0  0
 58 71  1  0  0  0  0
 59 79  1  0  0  0  0
 61 62  1  0  0  0  0
M  CHG  1  71   1
M  ISO  4  37 100  59 101  70 100  79 101
M  END
> <Batch ID>
0184

> <Smiles>
CNC(C)C(=O)NC(C(=O)N1Cc2cc([101O:1][101CH:1](C)C(=O)Nc3cc(F)c(C[100NH:0][100C:0](=O)N4CCCC(n5nc(-c6ccc(Oc7ccc(F)cc7F)cc6)c(C(N)=O)c5N)C4)s3)ccc2CC1C(=O)NC1CCCc2ccccc21)C(C)(C)C

> <Shape>
0.230

> <Color>
0.063

> <Negative vol penalty>
0.000

$$$$

  -OEChem-04052305023D

 85 93  0     1  0  0  0  0  0999 V2000
  -27.9796  -26.1553   16.2493 C   0  0  0  0  0  0  0  0  0  0  0  0
  -28.2572  -25.7179   17.5404 C   0  0  0  0  0  0  0  0  0  0  0  0
  -23.0606   -9.8278   20.9952 C   0  0  0  0  0  0  0  0  0  0  0  0
  -23.8515  -10.4536   23.1907 C   0  0  0  0  0  0  0  0  0  0  0  0
  -27.6507  -27.4911   16.0226 C   0  0  0  0  0  0  0  0  0  0  0  0
  -28.2072  -26.6164   18.6056 C   0  0  0  0  0  0  0  0  0  0  0  0
  -25.7890  -24.7233   22.6322 C   0  0  0  0  0  0  0  0  0  0  0  0
  -22.3276   -8.7826   21.5572 C   0  0  0  0  0  0  0  0  0  0  0  0
  -23.1184   -9.4085   23.7527 C   0  0  0  0  0  0  0  0  0  0  0  0
  -26.4925  -23.8245   23.4329 C   0  0  0  0  0  0  0  0  0  0  0  0
  -20.5329   -5.7276   22.3757 C   0  0  0  0  0  0  0  0  0  0  0  0
  -20.5900   -4.4829   21.7488 C   0  0  0  0  0  0  0  0  0  0  0  0
  -26.9531  -25.5950   25.0053 C   0  0  0  0  0  0  0  0  0  0  0  0
  -22.9803   -4.4187   22.0942 C   0  0  0  0  0  0  0  0  0  0  0  0
  -23.8226  -10.6633   21.8119 C   0  0  0  0  0  0  0  0  0  0  0  0
  -24.1467  -13.0638   21.0118 C   0  0  0  0  0  0  0  0  0  0  0  0
  -27.5872  -28.4043   17.0869 C   0  0  0  0  0  0  0  0  0  0  0  0
  -25.6714  -26.0694   23.0073 C   0  0  0  0  0  0  0  0  0  0  0  0
  -27.8785  -27.9660   18.3928 C   0  0  0  0  0  0  0  0  0  0  0  0
  -26.2455  -26.5083   24.2089 C   0  0  0  0  0  0  0  0  0  0  0  0
  -22.3564   -8.5730   22.9359 C   0  0  0  0  0  0  0  0  0  0  0  0
  -27.0771  -24.2609   24.6181 C   0  0  0  0  0  0  0  0  0  0  0  0
  -21.6995   -6.3179   22.8618 C   0  0  0  0  0  0  0  0  0  0  0  0
  -21.8137   -3.8284   21.6080 C   0  0  0  0  0  0  0  0  0  0  0  0
  -22.9232   -5.6634   22.7211 C   0  0  0  0  0  0  0  0  0  0  0  0
  -24.5805  -11.7428   21.2319 C   0  0  0  0  0  0  0  0  0  0  0  0
  -30.6775  -19.5534   21.3412 C   0  0  0  0  0  0  0  0  0  0  0  0
  -31.7710  -19.0020   20.7068 C   0  0  0  0  0  0  0  0  0  0  0  0
  -25.2290  -13.6906   20.4442 C   0  0  0  0  0  0  0  0  0  0  0  0
  -30.5389  -17.1950   20.8707 C   0  0  0  0  0  0  0  0  0  0  0  0
  -22.8787  -13.6702   21.2953 C   0  0  0  0  0  0  0  0  0  0  0  0
  -30.5189  -20.9678   21.7371 C   0  0  0  0  0  0  0  0  0  0  0  0
  -26.5861  -28.8385   21.7426 C   0  0  0  0  0  0  0  0  0  0  0  0
  -24.8808  -30.0813   24.2063 C   0  0  0  0  0  0  0  0  0  0  0  0
  -30.1553  -22.5551   23.6149 C   0  0  0  0  0  0  0  0  0  0  0  0
  -23.5808  -29.6601   27.3335 C   0  0  0  0  0  0  0  0  0  0  0  0
  -30.6903  -14.7581   20.2503 C   0  0  0  0  0  0  0  0  0  0  0  0
  -27.2735  -29.8486   16.7863 C   0  0  0  0  0  0  0  0  0  0  0  0
  -24.8866  -27.0205   22.1460 C   0  0  0  0  0  0  0  0  0  0  0  0
  -26.1309  -27.9387   24.6666 C   0  0  0  0  0  0  0  0  0  0  0  0
  -26.8761  -30.6551   18.0200 C   0  0  0  0  0  0  0  0  0  0  0  0
  -29.5592  -11.7933   18.6354 C   0  0  0  0  0  0  0  0  0  0  0  0
  -27.8413  -30.3829   19.1694 C   0  0  0  0  0  0  0  0  0  0  0  0
  -28.1274  -11.6245   19.1489 C   0  0  0  0  0  0  0  0  0  0  0  0
  -30.4891  -12.3393   19.7176 C   0  0  0  0  0  0  0  0  0  0  0  0
  -28.5965  -13.4040   20.8811 C   0  0  0  0  0  0  0  0  0  0  0  0
  -27.8104  -28.9050   19.5776 C   0  0  1  0  0  0  0  0  0  0  0  0
  -25.2675  -28.4810   22.3681 C   0  0  1  0  0  0  0  0  0  0  0  0
  -27.6089  -12.9178   19.8078 C   0  0  2  0  0  0  0  0  0  0  0  0
  -22.2685  -30.8661   29.1001 C   0  0  0  0  0  0  0  0  0  0  0  0
  -29.3412  -23.8627   27.1416 C   0  0  0  0  0  0  0  0  0  0  0  0
  -27.3648  -31.6893   24.9504 C   0  0  0  0  0  0  0  0  0  0  0  0
  -26.3342  -32.1122   27.1926 C   0  0  0  0  0  0  0  0  0  0  0  0
  -25.2131  -32.9515   25.1282 C   0  0  0  0  0  0  0  0  0  0  0  0
  -21.3892  -27.6741   27.2255 C   0  0  0  0  0  0  0  0  0  0  0  0
  -29.9828  -22.5131   25.1172 C   0  0  0  0  0  0  0  0  0  0  0  0
  -25.1909  -30.4737   25.6306 C   0  0  1  0  0  0  0  0  0  0  0  0
  -22.1988  -29.9399   27.8960 C   0  0  2  0  0  0  0  0  0  0  0  0
  -29.1412  -23.6744   25.6436 C   0  0  1  0  0  0  0  0  0  1  0  0
  -26.0297  -31.7801   25.7161 C   0  0  0  0  0  0  0  0  0  0  0  0
  -25.8402  -11.5410   20.8362 N   0  0  0  0  0  0  0  0  0  0  0  0
  -31.6935  -17.6496   20.4366 N   0  0  0  0  0  0  0  0  0  0  0  0
  -26.2071  -12.7436   20.3617 N   0  0  0  0  0  0  0  0  0  0  0  0
  -25.3588  -28.8318   23.7869 N   0  0  0  0  0  0  0  0  0  0  0  0
  -29.9355  -13.5668   20.2935 N   0  0  0  0  0  0  0  0  0  0  0  0
  -32.8749  -19.7030   20.3517 N   0  0  0  0  0  0  0  0  0  0  0  0
  -25.4299  -14.9538   20.0125 N   0  0  0  0  0  0  0  0  0  0  0  0
  -21.8773  -12.8828   21.8797 N   0  0  0  0  0  0  0  0  0  0  0  0
  -30.0483  -15.8676   20.7992 N   0  0  0  0  0  0  0  0  0  0  0  0
  -30.3395  -21.2438   23.0362 N   0  0  0  0  0  0  0  0  0  0  0  0
  -26.6374  -28.6263   20.3781 N   0  0  0  0  0  0  0  0  0  0  0  0
  -23.9091  -30.5402   26.3241 N   0  0  0  0  0  0  0  0  0  0  0  0
  -30.5660  -21.8900   20.7761 N   0  3  0  0  0  0  0  0  0  0  0  0
  -21.5442  -28.6692   28.3176 N   0  3  0  0  0  0  0  0  0  0  0  0
  -22.6354  -14.8702   21.0229 O   0  0  0  0  0  0  0  0  0  0  0  0
  -27.4894  -29.2760   22.4456 O   0  0  0  0  0  0  0  0  0  0  0  0
  -24.2318  -30.8518   23.4944 O   0  0  0  0  0  0  0  0  0  0  0  0
  -30.1491  -23.5639   22.9248 O   0  0  0  0  0  0  0  0  0  0  0  0
  -24.2988  -28.7541   27.7506 O   0  0  0  0  0  0  0  0  0  0  0  0
  -31.8118  -14.7975   19.7379 O   0  0  0  0  0  0  0  0  0  0  0  0
  -21.6411   -7.5533   23.4847 O   0  0  0  0  0  0  0  0  0  0  0  0
  -27.7648  -23.3858   25.4012 O   0  0  0  0  0  0  0  0  0  1  0  0
  -21.8682   -2.6324   21.0074 F   0  0  0  0  0  0  0  0  0  0  0  0
  -24.0472   -6.2249   23.1872 F   0  0  0  0  0  0  0  0  0  0  0  0
  -29.4975  -18.3390   21.6135 S   0  0  0  0  0  0  0  0  0  0  0  0
  1  2  1  0  0  0  0
  1  5  2  0  0  0  0
  2  6  2  0  0  0  0
  3  8  2  0  0  0  0
  3 15  1  0  0  0  0
  4  9  1  0  0  0  0
  4 15  2  0  0  0  0
  5 17  1  0  0  0  0
  6 19  1  0  0  0  0
  7 10  2  0  0  0  0
  7 18  1  0  0  0  0
  8 21  1  0  0  0  0
  9 21  2  0  0  0  0
 10 22  1  0  0  0  0
 11 12  2  0  0  0  0
 11 23  1  0  0  0  0
 12 24  1  0  0  0  0
 13 20  1  0  0  0  0
 13 22  2  0  0  0  0
 14 24  2  0  0  0  0
 14 25  1  0  0  0  0
 15 26  1  0  0  0  0
 16 26  1  0  0  0  0
 16 29  2  0  0  0  0
 16 31  1  0  0  0  0
 17 19  2  0  0  0  0
 17 38  1  0  0  0  0
 18 20  2  0  0  0  0
 18 39  1  0  0  0  0
 19 47  1  0  0  0  0
 20 40  1  0  0  0  0
 21 81  1  0  0  0  0
 22 82  1  0  0  0  0
 23 25  2  0  0  0  0
 23 81  1  0  0  0  0
 24 83  1  0  0  0  0
 25 84  1  0  0  0  0
 26 61  2  0  0  0  0
 27 28  2  0  0  0  0
 27 32  1  0  0  0  0
 27 85  1  0  0  0  0
 28 62  1  0  0  0  0
 28 66  1  0  0  0  0
 29 63  1  0  0  0  0
 29 67  1  0  0  0  0
 30 62  2  0  0  0  0
 30 69  1  0  0  0  0
 30 85  1  0  0  0  0
 31 68  1  0  0  0  0
 31 75  2  0  0  0  0
 32 70  1  0  0  0  0
 32 73  2  0  0  0  0
 33 48  1  0  0  0  0
 33 71  1  0  0  0  0
 33 76  2  0  0  0  0
 34 57  1  0  0  0  0
 34 64  1  0  0  0  0
 34 77  2  0  0  0  0
 35 56  1  0  0  0  0
 35 70  1  0  0  0  0
 35 78  2  0  0  0  0
 36 58  1  0  0  0  0
 36 72  1  0  0  0  0
 36 79  2  0  0  0  0
 37 65  1  0  0  0  0
 37 69  1  0  0  0  0
 37 80  2  0  0  0  0
 38 41  1  0  0  0  0
 39 48  1  0  0  0  0
 40 64  1  0  0  0  0
 41 43  1  0  0  0  0
 42 44  1  0  0  0  0
 42 45  1  0  0  0  0
 43 47  1  0  0  0  0
 44 49  1  0  0  0  0
 45 65  1  0  0  0  0
 46 49  1  0  0  0  0
 46 65  1  0  0  0  0
 47 71  1  0  0  0  0
 48 64  1  0  0  0  0
 49 63  1  0  0  0  0
 50 58  1  0  0  0  0
 51 59  1  0  0  0  0
 52 60  1  0  0  0  0
 53 60  1  0  0  0  0
 54 60  1  0  0  0  0
 55 74  1  0  0  0  0
 56 59  1  0  0  0  0
 57 60  1  0  0  0  0
 57 72  1  0  0  0  0
 58 74  1  0  0  0  0
 59 82  1  0  0  0  0
 61 63  1  0  0  0  0
M  CHG  2  73   1  74   1
M  ISO  4  37 100  59 101  69 100  82 101
M  END
> <Batch ID>
0184

> <Smiles>
CNC(C)C(=O)NC(C(=O)N1Cc2cc([101O:1][101CH:1](C)CC(=O)NC(=N)c3sc([100NH:0][100C:0](=O)N4CCCC(n5nc(-c6ccc(Oc7ccc(F)cc7F)cc6)c(C(N)=O)c5N)C4)nc3N)ccc2CC1C(=O)NC1CCCc2ccccc21)C(C)(C)C

> <Shape>
0.248

> <Color>
0.156

> <Negative vol penalty>
0.000

$$$$

  -OEChem-04052305023D

 86 94  0     1  0  0  0  0  0999 V2000
  -20.0787  -26.5179   21.9323 C   0  0  0  0  0  0  0  0  0  0  0  0
  -20.6088  -25.3886   22.5481 C   0  0  0  0  0  0  0  0  0  0  0  0
  -23.0052   -9.8867   19.9815 C   0  0  0  0  0  0  0  0  0  0  0  0
  -23.7260   -9.9470   22.2867 C   0  0  0  0  0  0  0  0  0  0  0  0
  -20.9257  -27.5391   21.5039 C   0  0  0  0  0  0  0  0  0  0  0  0
  -21.9863  -25.2794   22.7348 C   0  0  0  0  0  0  0  0  0  0  0  0
  -26.8054  -22.5734   27.2922 C   0  0  0  0  0  0  0  0  0  0  0  0
  -22.2411   -8.7512   20.2500 C   0  0  0  0  0  0  0  0  0  0  0  0
  -22.9618   -8.8114   22.5553 C   0  0  0  0  0  0  0  0  0  0  0  0
  -27.9319  -21.7520   27.3063 C   0  0  0  0  0  0  0  0  0  0  0  0
  -23.2155   -5.4716   22.0946 C   0  0  0  0  0  0  0  0  0  0  0  0
  -23.8043   -4.4584   22.8511 C   0  0  0  0  0  0  0  0  0  0  0  0
  -29.2913  -23.6143   26.5970 C   0  0  0  0  0  0  0  0  0  0  0  0
  -22.0766   -4.7023   24.5223 C   0  0  0  0  0  0  0  0  0  0  0  0
  -23.7477  -10.4847   20.9998 C   0  0  0  0  0  0  0  0  0  0  0  0
  -24.1269  -13.0006   20.8163 C   0  0  0  0  0  0  0  0  0  0  0  0
  -22.3135  -27.4468   21.6941 C   0  0  0  0  0  0  0  0  0  0  0  0
  -26.9118  -23.9210   26.9192 C   0  0  0  0  0  0  0  0  0  0  0  0
  -22.8528  -26.2998   22.3072 C   0  0  0  0  0  0  0  0  0  0  0  0
  -28.1651  -24.4513   26.5814 C   0  0  0  0  0  0  0  0  0  0  0  0
  -22.2193   -8.2135   21.5369 C   0  0  0  0  0  0  0  0  0  0  0  0
  -29.1746  -22.2717   26.9559 C   0  0  0  0  0  0  0  0  0  0  0  0
  -22.0574   -6.1003   22.5520 C   0  0  0  0  0  0  0  0  0  0  0  0
  -23.2348   -4.0736   24.0649 C   0  0  0  0  0  0  0  0  0  0  0  0
  -21.4879   -5.7156   23.7658 C   0  0  0  0  0  0  0  0  0  0  0  0
  -24.5377  -11.6574   20.7228 C   0  0  0  0  0  0  0  0  0  0  0  0
  -31.8259  -18.6843   22.2015 C   0  0  0  0  0  0  0  0  0  0  0  0
  -25.2355  -13.7249   20.4517 C   0  0  0  0  0  0  0  0  0  0  0  0
  -30.7183  -19.0859   22.9185 C   0  0  0  0  0  0  0  0  0  0  0  0
  -30.5670  -16.9174   21.8807 C   0  0  0  0  0  0  0  0  0  0  0  0
  -22.8569  -13.5450   21.1987 C   0  0  0  0  0  0  0  0  0  0  0  0
  -25.7036  -25.7034   24.5810 C   0  0  0  0  0  0  0  0  0  0  0  0
  -27.1371  -28.1163   26.2074 C   0  0  0  0  0  0  0  0  0  0  0  0
  -29.5686  -29.0927   28.3941 C   0  0  0  0  0  0  0  0  0  0  0  0
  -30.7121  -14.7006   20.6928 C   0  0  0  0  0  0  0  0  0  0  0  0
  -23.1931  -28.5548   21.1715 C   0  0  0  0  0  0  0  0  0  0  0  0
  -25.6917  -24.8004   26.9349 C   0  0  0  0  0  0  0  0  0  0  0  0
  -28.3361  -25.8965   26.1931 C   0  0  0  0  0  0  0  0  0  0  0  0
  -24.6080  -28.5307   21.7441 C   0  0  0  0  0  0  0  0  0  0  0  0
  -29.6044  -12.2375   18.3726 C   0  0  0  0  0  0  0  0  0  0  0  0
  -25.1783  -27.1166   21.6985 C   0  0  0  0  0  0  0  0  0  0  0  0
  -28.1537  -11.9775   18.7849 C   0  0  0  0  0  0  0  0  0  0  0  0
  -30.5020  -12.4871   19.5832 C   0  0  0  0  0  0  0  0  0  0  0  0
  -28.5822  -13.2753   20.9107 C   0  0  0  0  0  0  0  0  0  0  0  0
  -24.3396  -26.1558   22.5499 C   0  0  1  0  0  0  0  0  0  0  0  0
  -25.8298  -26.0299   26.0422 C   0  0  1  0  0  0  0  0  0  0  0  0
  -27.6272  -13.0827   19.7213 C   0  0  2  0  0  0  0  0  0  0  0  0
  -33.0694  -19.4604   22.0244 C   0  0  0  0  0  0  0  0  0  0  0  0
  -30.5178  -31.1350   29.5011 C   0  0  0  0  0  0  0  0  0  0  0  0
  -28.5249  -28.8816   23.6001 C   0  0  0  0  0  0  0  0  0  0  0  0
  -30.1274  -30.2622   24.9396 C   0  0  0  0  0  0  0  0  0  0  0  0
  -27.6957  -30.8181   24.9479 C   0  0  0  0  0  0  0  0  0  0  0  0
  -28.9272  -28.0684   31.0956 C   0  0  0  0  0  0  0  0  0  0  0  0
  -31.5208  -20.5886   25.1212 C   0  0  0  0  0  0  0  0  0  0  0  0
  -28.5013  -28.7621   26.1791 C   0  0  1  0  0  0  0  0  0  0  0  0
  -29.5220  -29.9913   29.6166 C   0  0  2  0  0  0  0  0  0  0  0  0
  -31.3150  -21.7836   26.0415 C   0  0  2  0  0  0  0  0  0  1  0  0
  -28.7091  -29.6533   24.9221 C   0  0  0  0  0  0  0  0  0  0  0  0
  -32.5739  -22.1070   26.8212 C   0  0  0  0  0  0  0  0  0  0  0  0
  -25.8080  -11.5328   20.3294 N   0  0  0  0  0  0  0  0  0  0  0  0
  -31.7411  -17.4409   21.6061 N   0  0  0  0  0  0  0  0  0  0  0  0
  -26.2050  -12.8071   20.1724 N   0  0  0  0  0  0  0  0  0  0  0  0
  -27.1123  -26.7145   26.2176 N   0  0  0  0  0  0  0  0  0  0  0  0
  -29.9427  -13.5493   20.4221 N   0  0  0  0  0  0  0  0  0  0  0  0
  -25.4658  -15.0508   20.3457 N   0  0  0  0  0  0  0  0  0  0  0  0
  -21.8267  -12.6594   21.5432 N   0  0  0  0  0  0  0  0  0  0  0  0
  -30.0640  -15.6566   21.4741 N   0  0  0  0  0  0  0  0  0  0  0  0
  -24.6427  -26.3290   23.9543 N   0  0  0  0  0  0  0  0  0  0  0  0
  -28.6430  -29.4727   27.4454 N   0  0  0  0  0  0  0  0  0  0  0  0
  -29.8427  -29.2113   30.8453 N   0  3  0  0  0  0  0  0  0  0  0  0
  -22.6370  -14.7799   21.2181 O   0  0  0  0  0  0  0  0  0  0  0  0
  -26.5099  -24.9415   24.0603 O   0  0  0  0  0  0  0  0  0  0  0  0
  -26.1308  -28.8293   26.2273 O   0  0  0  0  0  0  0  0  0  0  0  0
  -30.3506  -28.1504   28.2894 O   0  0  0  0  0  0  0  0  0  0  0  0
  -31.8513  -14.8410   20.2404 O   0  0  0  0  0  0  0  0  0  0  0  0
  -30.4712  -21.6686   22.9749 O   0  0  0  0  0  0  0  0  0  0  0  0
  -29.0105  -20.2834   24.4893 O   0  0  0  0  0  0  0  0  0  0  0  0
  -21.4736   -7.1056   21.7994 O   0  0  0  0  0  0  0  0  0  0  0  0
  -30.2756  -21.4720   26.9682 O   0  0  0  0  0  0  0  0  0  1  0  0
  -23.7994   -3.0995   24.7905 F   0  0  0  0  0  0  0  0  0  0  0  0
  -20.3747   -6.3150   24.2098 F   0  0  0  0  0  0  0  0  0  0  0  0
  -32.3779  -23.1284   27.6819 F   0  0  0  0  0  0  0  0  0  0  0  0
  -32.9913  -21.0385   27.5348 F   0  0  0  0  0  0  0  0  0  0  0  0
  -33.5791  -22.4552   25.9877 F   0  0  0  0  0  0  0  0  0  0  0  0
  -29.5150  -17.8659   22.8496 S   0  0  0  0  0  0  0  0  0  0  0  0
  -30.2922  -20.5253   23.8515 S   0  0  0  0  0  0  0  0  0  0  0  0
  1  2  1  0  0  0  0
  1  5  2  0  0  0  0
  2  6  2  0  0  0  0
  3  8  2  0  0  0  0
  3 15  1  0  0  0  0
  4  9  1  0  0  0  0
  4 15  2  0  0  0  0
  5 17  1  0  0  0  0
  6 19  1  0  0  0  0
  7 10  2  0  0  0  0
  7 18  1  0  0  0  0
  8 21  1  0  0  0  0
  9 21  2  0  0  0  0
 10 22  1  0  0  0  0
 11 12  2  0  0  0  0
 11 23  1  0  0  0  0
 12 24  1  0  0  0  0
 13 20  1  0  0  0  0
 13 22  2  0  0  0  0
 14 24  2  0  0  0  0
 14 25  1  0  0  0  0
 15 26  1  0  0  0  0
 16 26  1  0  0  0  0
 16 28  2  0  0  0  0
 16 31  1  0  0  0  0
 17 19  2  0  0  0  0
 17 36  1  0  0  0  0
 18 20  2  0  0  0  0
 18 37  1  0  0  0  0
 19 45  1  0  0  0  0
 20 38  1  0  0  0  0
 21 78  1  0  0  0  0
 22 79  1  0  0  0  0
 23 25  2  0  0  0  0
 23 78  1  0  0  0  0
 24 80  1  0  0  0  0
 25 81  1  0  0  0  0
 26 60  2  0  0  0  0
 27 29  2  0  0  0  0
 27 48  1  0  0  0  0
 27 61  1  0  0  0  0
 28 62  1  0  0  0  0
 28 65  1  0  0  0  0
 29 85  1  0  0  0  0
 29 86  1  0  0  0  0
 30 61  2  0  0  0  0
 30 67  1  0  0  0  0
 30 85  1  0  0  0  0
 31 66  1  0  0  0  0
 31 71  2  0  0  0  0
 32 46  1  0  0  0  0
 32 68  1  0  0  0  0
 32 72  2  0  0  0  0
 33 55  1  0  0  0  0
 33 63  1  0  0  0  0
 33 73  2  0  0  0  0
 34 56  1  0  0  0  0
 34 69  1  0  0  0  0
 34 74  2  0  0  0  0
 35 64  1  0  0  0  0
 35 67  1  0  0  0  0
 35 75  2  0  0  0  0
 36 39  1  0  0  0  0
 37 46  1  0  0  0  0
 38 63  1  0  0  0  0
 39 41  1  0  0  0  0
 40 42  1  0  0  0  0
 40 43  1  0  0  0  0
 41 45  1  0  0  0  0
 42 47  1  0  0  0  0
 43 64  1  0  0  0  0
 44 47  1  0  0  0  0
 44 64  1  0  0  0  0
 45 68  1  0  0  0  0
 46 63  1  0  0  0  0
 47 62  1  0  0  0  0
 49 56  1  0  0  0  0
 50 58  1  0  0  0  0
 51 58  1  0  0  0  0
 52 58  1  0  0  0  0
 53 70  1  0  0  0  0
 54 57  1  0  0  0  0
 54 86  1  0  0  0  0
 55 58  1  0  0  0  0
 55 69  1  0  0  0  0
 56 70  1  0  0  0  0
 57 59  1  0  0  0  0
 57 79  1  0  0  0  0
 59 82  1  0  0  0  0
 59 83  1  0  0  0  0
 59 84  1  0  0  0  0
 60 62  1  0  0  0  0
 76 86  2  0  0  0  0
 77 86  2  0  0  0  0
M  CHG  1  70   1
M  ISO  4  35 100  57 101  67 100  79 101
M  END
> <Batch ID>
0184

> <Smiles>
CNC(C)C(=O)NC(C(=O)N1Cc2cc([101O:1][101CH:1](CS(=O)(=O)c3sc([100NH:0][100C:0](=O)N4CCCC(n5nc(-c6ccc(Oc7ccc(F)cc7F)cc6)c(C(N)=O)c5N)C4)nc3C)C(F)(F)F)ccc2CC1C(=O)NC1CCCc2ccccc21)C(C)(C)C

> <Shape>
0.225

> <Color>
0.194

> <Negative vol penalty>
0.000

$$$$

  -OEChem-04052305023D

 84 92  0     1  0  0  0  0  0999 V2000
  -37.2200   -8.8867   19.0988 C   0  0  0  0  0  0  0  0  0  0  0  0
  -35.8344   -8.7686   19.0587 C   0  0  0  0  0  0  0  0  0  0  0  0
  -26.6083  -28.3609   19.0450 C   0  0  0  0  0  0  0  0  0  0  0  0
  -26.4419  -27.5607   21.3186 C   0  0  0  0  0  0  0  0  0  0  0  0
  -37.8184   -9.7550   20.0109 C   0  0  0  0  0  0  0  0  0  0  0  0
  -35.0464   -9.5181   19.9316 C   0  0  0  0  0  0  0  0  0  0  0  0
  -29.5227  -11.8996   18.7814 C   0  0  0  0  0  0  0  0  0  0  0  0
  -26.3878  -29.6650   19.4878 C   0  0  0  0  0  0  0  0  0  0  0  0
  -26.2215  -28.8649   21.7614 C   0  0  0  0  0  0  0  0  0  0  0  0
  -28.2328  -11.4669   19.0859 C   0  0  0  0  0  0  0  0  0  0  0  0
  -28.0671  -31.6243   22.3939 C   0  0  0  0  0  0  0  0  0  0  0  0
  -28.7663  -32.0505   23.5231 C   0  0  0  0  0  0  0  0  0  0  0  0
  -28.2303  -12.8734   21.0458 C   0  0  0  0  0  0  0  0  0  0  0  0
  -26.6759  -32.4558   24.6645 C   0  0  0  0  0  0  0  0  0  0  0  0
  -26.6353  -27.3087   19.9604 C   0  0  0  0  0  0  0  0  0  0  0  0
  -28.1017  -25.3081   19.3646 C   0  0  0  0  0  0  0  0  0  0  0  0
  -37.0369  -10.5226   20.8887 C   0  0  0  0  0  0  0  0  0  0  0  0
  -30.1814  -12.8157   19.6141 C   0  0  0  0  0  0  0  0  0  0  0  0
  -35.6350  -10.3965   20.8571 C   0  0  0  0  0  0  0  0  0  0  0  0
  -29.5275  -13.3180   20.7482 C   0  0  0  0  0  0  0  0  0  0  0  0
  -26.1945  -29.9171   20.8460 C   0  0  0  0  0  0  0  0  0  0  0  0
  -27.5875  -11.9516   20.2198 C   0  0  0  0  0  0  0  0  0  0  0  0
  -26.6723  -31.6138   22.4000 C   0  0  0  0  0  0  0  0  0  0  0  0
  -28.0707  -32.4663   24.6584 C   0  0  0  0  0  0  0  0  0  0  0  0
  -25.9767  -32.0296   23.5353 C   0  0  0  0  0  0  0  0  0  0  0  0
  -26.8624  -25.9612   19.5035 C   0  0  0  0  0  0  0  0  0  0  0  0
  -24.6396  -16.5165   22.0397 C   0  0  0  0  0  0  0  0  0  0  0  0
  -27.7800  -24.0558   18.9012 C   0  0  0  0  0  0  0  0  0  0  0  0
  -25.5603  -17.0088   22.9409 C   0  0  0  0  0  0  0  0  0  0  0  0
  -24.7552  -18.5780   21.3001 C   0  0  0  0  0  0  0  0  0  0  0  0
  -29.4255  -25.7904   19.6307 C   0  0  0  0  0  0  0  0  0  0  0  0
  -32.8327  -12.7503   21.3663 C   0  0  0  0  0  0  0  0  0  0  0  0
  -32.1510  -15.8905   21.8104 C   0  0  0  0  0  0  0  0  0  0  0  0
  -23.2501  -14.5993   21.1805 C   0  0  0  0  0  0  0  0  0  0  0  0
  -29.8044  -18.3680   21.8524 C   0  0  0  0  0  0  0  0  0  0  0  0
  -23.7312  -19.9764   19.4720 C   0  0  0  0  0  0  0  0  0  0  0  0
  -37.7310  -11.4124   21.8893 C   0  0  0  0  0  0  0  0  0  0  0  0
  -31.5624  -13.2928   19.2572 C   0  0  0  0  0  0  0  0  0  0  0  0
  -30.1832  -14.3183   21.6636 C   0  0  0  0  0  0  0  0  0  0  0  0
  -36.8089  -12.4500   22.5244 C   0  0  0  0  0  0  0  0  0  0  0  0
  -23.8610  -22.0888   16.6087 C   0  0  0  0  0  0  0  0  0  0  0  0
  -35.5009  -11.8020   22.9672 C   0  0  0  0  0  0  0  0  0  0  0  0
  -24.7692  -23.2396   17.0481 C   0  0  0  0  0  0  0  0  0  0  0  0
  -22.9719  -21.6001   17.7509 C   0  0  0  0  0  0  0  0  0  0  0  0
  -24.5930  -22.3993   19.4251 C   0  0  0  0  0  0  0  0  0  0  0  0
  -34.7452  -11.2111   21.7708 C   0  0  1  0  0  0  0  0  0  0  0  0
  -32.3349  -13.8365   20.4551 C   0  0  1  0  0  0  0  0  0  0  0  0
  -25.5534  -22.8822   18.3260 C   0  0  2  0  0  0  0  0  0  0  0  0
  -21.5696  -12.7104   21.2281 C   0  0  0  0  0  0  0  0  0  0  0  0
  -29.5420  -20.8256   22.2867 C   0  0  0  0  0  0  0  0  0  0  0  0
  -32.3359  -15.3772   24.8125 C   0  0  0  0  0  0  0  0  0  0  0  0
  -31.1588  -17.5550   25.1868 C   0  0  0  0  0  0  0  0  0  0  0  0
  -33.3810  -17.5189   24.0540 C   0  0  0  0  0  0  0  0  0  0  0  0
  -28.8617  -18.8731   19.0928 C   0  0  0  0  0  0  0  0  0  0  0  0
  -24.0323  -12.2115   20.8145 C   0  0  0  0  0  0  0  0  0  0  0  0
  -25.4859  -12.4473   21.2165 C   0  0  0  0  0  0  0  0  0  1  0  0
  -31.3443  -16.6777   22.8146 C   0  0  1  0  0  0  0  0  0  0  0  0
  -23.0125  -13.1221   21.5197 C   0  0  1  0  0  0  0  0  0  0  0  0
  -29.7930  -19.7552   21.2360 C   0  0  2  0  0  0  0  0  0  0  0  0
  -32.0431  -16.7619   24.2010 C   0  0  0  0  0  0  0  0  0  0  0  0
  -25.8302  -25.1877   19.1563 N   0  0  0  0  0  0  0  0  0  0  0  0
  -24.1765  -17.4150   21.0984 N   0  0  0  0  0  0  0  0  0  0  0  0
  -26.4204  -24.0358   18.7946 N   0  0  0  0  0  0  0  0  0  0  0  0
  -31.5364  -14.7494   21.2755 N   0  0  0  0  0  0  0  0  0  0  0  0
  -23.7838  -21.2764   18.9261 N   0  0  0  0  0  0  0  0  0  0  0  0
  -28.5302  -22.9809   18.5786 N   0  0  0  0  0  0  0  0  0  0  0  0
  -29.5767  -27.1015   20.1023 N   0  0  0  0  0  0  0  0  0  0  0  0
  -24.1724  -15.1807   22.0456 N   0  0  0  0  0  0  0  0  0  0  0  0
  -24.5705  -19.7767   20.5675 N   0  0  0  0  0  0  0  0  0  0  0  0
  -34.0786  -12.2583   21.0270 N   0  0  0  0  0  0  0  0  0  0  0  0
  -31.0793  -17.9737   22.1994 N   0  0  0  0  0  0  0  0  0  0  0  0
  -28.7255  -19.8533   20.2008 N   0  3  0  0  0  0  0  0  0  0  0  0
  -30.4452  -25.0852   19.4398 O   0  0  0  0  0  0  0  0  0  0  0  0
  -32.1384  -12.3867   22.3083 O   0  0  0  0  0  0  0  0  0  0  0  0
  -33.2820  -16.2778   21.5063 O   0  0  0  0  0  0  0  0  0  0  0  0
  -22.6687  -15.1445   20.2465 O   0  0  0  0  0  0  0  0  0  0  0  0
  -28.7838  -17.7024   22.0136 O   0  0  0  0  0  0  0  0  0  0  0  0
  -23.0161  -19.0967   18.9854 O   0  0  0  0  0  0  0  0  0  0  0  0
  -25.9796  -31.1896   21.2785 O   0  0  0  0  0  0  0  0  0  0  0  0
  -26.3287  -11.5305   20.5197 O   0  0  0  0  0  0  0  0  0  1  0  0
  -28.7423  -32.8741   25.7432 F   0  0  0  0  0  0  0  0  0  0  0  0
  -24.6367  -32.0206   23.5476 F   0  0  0  0  0  0  0  0  0  0  0  0
  -26.1307  -16.3111   23.9267 F   0  0  0  0  0  0  0  0  0  0  0  0
  -25.8675  -18.6621   22.6042 S   0  0  0  0  0  0  0  0  0  0  0  0
  1  2  1  0  0  0  0
  1  5  2  0  0  0  0
  2  6  2  0  0  0  0
  3  8  2  0  0  0  0
  3 15  1  0  0  0  0
  4  9  1  0  0  0  0
  4 15  2  0  0  0  0
  5 17  1  0  0  0  0
  6 19  1  0  0  0  0
  7 10  2  0  0  0  0
  7 18  1  0  0  0  0
  8 21  1  0  0  0  0
  9 21  2  0  0  0  0
 10 22  1  0  0  0  0
 11 12  2  0  0  0  0
 11 23  1  0  0  0  0
 12 24  1  0  0  0  0
 13 20  1  0  0  0  0
 13 22  2  0  0  0  0
 14 24  2  0  0  0  0
 14 25  1  0  0  0  0
 15 26  1  0  0  0  0
 16 26  1  0  0  0  0
 16 28  2  0  0  0  0
 16 31  1  0  0  0  0
 17 19  2  0  0  0  0
 17 37  1  0  0  0  0
 18 20  2  0  0  0  0
 18 38  1  0  0  0  0
 19 46  1  0  0  0  0
 20 39  1  0  0  0  0
 21 79  1  0  0  0  0
 22 80  1  0  0  0  0
 23 25  2  0  0  0  0
 23 79  1  0  0  0  0
 24 81  1  0  0  0  0
 25 82  1  0  0  0  0
 26 61  2  0  0  0  0
 27 29  2  0  0  0  0
 27 62  1  0  0  0  0
 27 68  1  0  0  0  0
 28 63  1  0  0  0  0
 28 66  1  0  0  0  0
 29 83  1  0  0  0  0
 29 84  1  0  0  0  0
 30 62  2  0  0  0  0
 30 69  1  0  0  0  0
 30 84  1  0  0  0  0
 31 67  1  0  0  0  0
 31 73  2  0  0  0  0
 32 47  1  0  0  0  0
 32 70  1  0  0  0  0
 32 74  2  0  0  0  0
 33 57  1  0  0  0  0
 33 64  1  0  0  0  0
 33 75  2  0  0  0  0
 34 58  1  0  0  0  0
 34 68  1  0  0  0  0
 34 76  2  0  0  0  0
 35 59  1  0  0  0  0
 35 71  1  0  0  0  0
 35 77  2  0  0  0  0
 36 65  1  0  0  0  0
 36 69  1  0  0  0  0
 36 78  2  0  0  0  0
 37 40  1  0  0  0  0
 38 47  1  0  0  0  0
 39 64  1  0  0  0  0
 40 42  1  0  0  0  0
 41 43  1  0  0  0  0
 41 44  1  0  0  0  0
 42 46  1  0  0  0  0
 43 48  1  0  0  0  0
 44 65  1  0  0  0  0
 45 48  1  0  0  0  0
 45 65  1  0  0  0  0
 46 70  1  0  0  0  0
 47 64  1  0  0  0  0
 48 63  1  0  0  0  0
 49 58  1  0  0  0  0
 50 59  1  0  0  0  0
 51 60  1  0  0  0  0
 52 60  1  0  0  0  0
 53 60  1  0  0  0  0
 54 72  1  0  0  0  0
 55 56  1  0  0  0  0
 55 58  1  0  0  0  0
 56 80  1  0  0  0  0
 57 60  1  0  0  0  0
 57 71  1  0  0  0  0
 59 72  1  0  0  0  0
 61 63  1  0  0  0  0
M  CHG  1  72   1
M  ISO  4  36 100  56 101  69 100  80 101
M  END
> <Batch ID>
0184

> <Smiles>
CNC(C)C(=O)NC(C(=O)N1Cc2cc([101O:1][101CH2:1]CC(C)C(=O)Nc3nc([100NH:0][100C:0](=O)N4CCCC(n5nc(-c6ccc(Oc7ccc(F)cc7F)cc6)c(C(N)=O)c5N)C4)sc3F)ccc2CC1C(=O)NC1CCCc2ccccc21)C(C)(C)C

> <Shape>
0.237

> <Color>
0.084

> <Negative vol penalty>
0.000

$$$$

  -OEChem-04052305023D

 87 95  0     1  0  0  0  0  0999 V2000
  -38.8196  -31.3105   20.9633 C   0  0  0  0  0  0  0  0  0  0  0  0
  -37.9351  -30.6801   20.0940 C   0  0  0  0  0  0  0  0  0  0  0  0
  -23.1058   -9.9605   19.8812 C   0  0  0  0  0  0  0  0  0  0  0  0
  -23.9252   -9.8496   22.1513 C   0  0  0  0  0  0  0  0  0  0  0  0
  -39.2023  -30.6787   22.1458 C   0  0  0  0  0  0  0  0  0  0  0  0
  -37.4335  -29.4170   20.4062 C   0  0  0  0  0  0  0  0  0  0  0  0
  -31.8502  -27.2525   19.1230 C   0  0  0  0  0  0  0  0  0  0  0  0
  -22.3901   -8.7802   20.0818 C   0  0  0  0  0  0  0  0  0  0  0  0
  -23.2094   -8.6693   22.3519 C   0  0  0  0  0  0  0  0  0  0  0  0
  -31.3746  -26.4306   18.1022 C   0  0  0  0  0  0  0  0  0  0  0  0
  -20.0134   -7.7737   22.9874 C   0  0  0  0  0  0  0  0  0  0  0  0
  -19.2882   -7.6508   24.1725 C   0  0  0  0  0  0  0  0  0  0  0  0
  -31.5844  -24.5158   19.5543 C   0  0  0  0  0  0  0  0  0  0  0  0
  -20.5840   -5.6990   24.7630 C   0  0  0  0  0  0  0  0  0  0  0  0
  -23.8734  -10.4952   20.9159 C   0  0  0  0  0  0  0  0  0  0  0  0
  -24.1653  -13.0294   20.9353 C   0  0  0  0  0  0  0  0  0  0  0  0
  -38.6977  -29.4113   22.4773 C   0  0  0  0  0  0  0  0  0  0  0  0
  -32.2074  -26.7098   20.3657 C   0  0  0  0  0  0  0  0  0  0  0  0
  -37.8109  -28.7671   21.5936 C   0  0  0  0  0  0  0  0  0  0  0  0
  -32.0619  -25.3333   20.5901 C   0  0  0  0  0  0  0  0  0  0  0  0
  -22.4419   -8.1346   21.3171 C   0  0  0  0  0  0  0  0  0  0  0  0
  -31.2444  -25.0617   18.3168 C   0  0  0  0  0  0  0  0  0  0  0  0
  -21.0238   -6.8592   22.6900 C   0  0  0  0  0  0  0  0  0  0  0  0
  -19.5735   -6.6135   25.0604 C   0  0  0  0  0  0  0  0  0  0  0  0
  -21.3091   -5.8219   23.5778 C   0  0  0  0  0  0  0  0  0  0  0  0
  -24.6134  -11.7141   20.7091 C   0  0  0  0  0  0  0  0  0  0  0  0
  -29.2623  -18.8267   20.9755 C   0  0  0  0  0  0  0  0  0  0  0  0
  -30.4579  -18.1786   21.2049 C   0  0  0  0  0  0  0  0  0  0  0  0
  -25.2336  -13.8203   20.5892 C   0  0  0  0  0  0  0  0  0  0  0  0
  -30.5538  -20.0554   19.6979 C   0  0  0  0  0  0  0  0  0  0  0  0
  -22.8969  -13.4946   21.4153 C   0  0  0  0  0  0  0  0  0  0  0  0
  -34.8984  -26.5394   22.0489 C   0  0  0  0  0  0  0  0  0  0  0  0
  -32.9449  -25.2788   24.3110 C   0  0  0  0  0  0  0  0  0  0  0  0
  -30.0362  -23.6528   25.0477 C   0  0  0  0  0  0  0  0  0  0  0  0
  -30.3416  -22.0474   18.1728 C   0  0  0  0  0  0  0  0  0  0  0  0
  -30.7007  -14.9358   20.6995 C   0  0  0  0  0  0  0  0  0  0  0  0
  -39.1771  -28.7477   23.7440 C   0  0  0  0  0  0  0  0  0  0  0  0
  -32.6935  -27.6136   21.4652 C   0  0  0  0  0  0  0  0  0  0  0  0
  -32.4125  -24.7041   21.9128 C   0  0  0  0  0  0  0  0  0  0  0  0
  -38.3089  -27.5707   24.1812 C   0  0  0  0  0  0  0  0  0  0  0  0
  -29.5452  -12.6715   18.2066 C   0  0  0  0  0  0  0  0  0  0  0  0
  -38.0083  -26.6595   22.9953 C   0  0  0  0  0  0  0  0  0  0  0  0
  -28.1252  -12.3246   18.6574 C   0  0  0  0  0  0  0  0  0  0  0  0
  -30.4892  -12.8406   19.3950 C   0  0  0  0  0  0  0  0  0  0  0  0
  -28.6112  -13.4519   20.8691 C   0  0  0  0  0  0  0  0  0  0  0  0
  -37.2259  -27.4075   21.9092 C   0  0  1  0  0  0  0  0  0  0  0  0
  -33.5138  -26.8808   22.5223 C   0  0  1  0  0  0  0  0  0  0  0  0
  -27.6100  -13.3266   19.7081 C   0  0  2  0  0  0  0  0  0  0  0  0
  -27.9546  -18.4734   21.5646 C   0  0  0  0  0  0  0  0  0  0  0  0
  -28.7326  -22.7264   26.9815 C   0  0  0  0  0  0  0  0  0  0  0  0
  -31.2938  -22.4117   15.8662 C   0  0  0  0  0  0  0  0  0  0  0  0
  -34.8531  -22.9023   24.4559 C   0  0  0  0  0  0  0  0  0  0  0  0
  -33.0592  -21.6235   25.6453 C   0  0  0  0  0  0  0  0  0  0  0  0
  -34.0018  -23.6931   26.6704 C   0  0  0  0  0  0  0  0  0  0  0  0
  -27.7458  -25.4495   24.5143 C   0  0  0  0  0  0  0  0  0  0  0  0
  -30.7592  -17.0118   22.0581 C   0  0  1  0  0  0  0  0  0  0  0  0
  -32.4759  -23.8880   24.6640 C   0  0  1  0  0  0  0  0  0  0  0  0
  -28.9607  -23.9313   26.0821 C   0  0  2  0  0  0  0  0  0  0  0  0
  -31.2523  -22.9103   17.3032 C   0  0  1  0  0  0  0  0  0  1  0  0
  -33.5927  -23.0380   25.3332 C   0  0  0  0  0  0  0  0  0  0  0  0
  -30.4499  -17.2305   23.5471 C   0  0  0  0  0  0  0  0  0  0  0  0
  -25.8684  -11.6679   20.2544 N   0  0  0  0  0  0  0  0  0  0  0  0
  -29.3154  -19.9033   20.1119 N   0  0  0  0  0  0  0  0  0  0  0  0
  -26.2181  -12.9640   20.1919 N   0  0  0  0  0  0  0  0  0  0  0  0
  -32.8895  -25.6287   22.9545 N   0  0  0  0  0  0  0  0  0  0  0  0
  -29.9431  -13.8048   20.3531 N   0  0  0  0  0  0  0  0  0  0  0  0
  -25.4174  -15.1577   20.5890 N   0  0  0  0  0  0  0  0  0  0  0  0
  -21.9111  -12.5474   21.7241 N   0  0  0  0  0  0  0  0  0  0  0  0
  -31.0536  -21.0337   18.8056 N   0  0  0  0  0  0  0  0  0  0  0  0
  -35.8332  -27.5297   22.2830 N   0  0  0  0  0  0  0  0  0  0  0  0
  -31.2807  -24.0559   25.4836 N   0  0  0  0  0  0  0  0  0  0  0  0
  -30.1067  -15.8021   21.6092 N   0  0  0  0  0  0  0  0  0  0  0  0
  -27.6727  -24.2683   25.4123 N   0  3  0  0  0  0  0  0  0  0  0  0
  -22.6396  -14.7149   21.5505 O   0  0  0  0  0  0  0  0  0  0  0  0
  -35.1037  -25.4569   21.5124 O   0  0  0  0  0  0  0  0  0  0  0  0
  -33.3390  -26.0297   25.2069 O   0  0  0  0  0  0  0  0  0  0  0  0
  -29.7970  -23.1266   23.9630 O   0  0  0  0  0  0  0  0  0  0  0  0
  -29.1411  -22.2856   18.2691 O   0  0  0  0  0  0  0  0  0  0  0  0
  -31.8209  -15.1599   20.2286 O   0  0  0  0  0  0  0  0  0  0  0  0
  -21.7434   -6.9830   21.5133 O   0  0  0  0  0  0  0  0  0  0  0  0
  -30.7810  -24.2571   17.3219 O   0  0  0  0  0  0  0  0  0  1  0  0
  -18.8781   -6.4966   26.1992 F   0  0  0  0  0  0  0  0  0  0  0  0
  -22.2795   -4.9410   23.2982 F   0  0  0  0  0  0  0  0  0  0  0  0
  -31.1897  -18.2291   24.0733 F   0  0  0  0  0  0  0  0  0  0  0  0
  -29.1476  -17.5369   23.7522 F   0  0  0  0  0  0  0  0  0  0  0  0
  -30.7097  -16.1066   24.2524 F   0  0  0  0  0  0  0  0  0  0  0  0
  -31.7057  -18.9384   20.3066 S   0  0  0  0  0  0  0  0  0  0  0  0
  1  2  1  0  0  0  0
  1  5  2  0  0  0  0
  2  6  2  0  0  0  0
  3  8  2  0  0  0  0
  3 15  1  0  0  0  0
  4  9  1  0  0  0  0
  4 15  2  0  0  0  0
  5 17  1  0  0  0  0
  6 19  1  0  0  0  0
  7 10  2  0  0  0  0
  7 18  1  0  0  0  0
  8 21  1  0  0  0  0
  9 21  2  0  0  0  0
 10 22  1  0  0  0  0
 11 12  2  0  0  0  0
 11 23  1  0  0  0  0
 12 24  1  0  0  0  0
 13 20  1  0  0  0  0
 13 22  2  0  0  0  0
 14 24  2  0  0  0  0
 14 25  1  0  0  0  0
 15 26  1  0  0  0  0
 16 26  1  0  0  0  0
 16 29  2  0  0  0  0
 16 31  1  0  0  0  0
 17 19  2  0  0  0  0
 17 37  1  0  0  0  0
 18 20  2  0  0  0  0
 18 38  1  0  0  0  0
 19 46  1  0  0  0  0
 20 39  1  0  0  0  0
 21 80  1  0  0  0  0
 22 81  1  0  0  0  0
 23 25  2  0  0  0  0
 23 80  1  0  0  0  0
 24 82  1  0  0  0  0
 25 83  1  0  0  0  0
 26 62  2  0  0  0  0
 27 28  2  0  0  0  0
 27 49  1  0  0  0  0
 27 63  1  0  0  0  0
 28 56  1  0  0  0  0
 28 87  1  0  0  0  0
 29 64  1  0  0  0  0
 29 67  1  0  0  0  0
 30 63  2  0  0  0  0
 30 69  1  0  0  0  0
 30 87  1  0  0  0  0
 31 68  1  0  0  0  0
 31 74  2  0  0  0  0
 32 47  1  0  0  0  0
 32 70  1  0  0  0  0
 32 75  2  0  0  0  0
 33 57  1  0  0  0  0
 33 65  1  0  0  0  0
 33 76  2  0  0  0  0
 34 58  1  0  0  0  0
 34 71  1  0  0  0  0
 34 77  2  0  0  0  0
 35 59  1  0  0  0  0
 35 69  1  0  0  0  0
 35 78  2  0  0  0  0
 36 66  1  0  0  0  0
 36 72  1  0  0  0  0
 36 79  2  0  0  0  0
 37 40  1  0  0  0  0
 38 47  1  0  0  0  0
 39 65  1  0  0  0  0
 40 42  1  0  0  0  0
 41 43  1  0  0  0  0
 41 44  1  0  0  0  0
 42 46  1  0  0  0  0
 43 48  1  0  0  0  0
 44 66  1  0  0  0  0
 45 48  1  0  0  0  0
 45 66  1  0  0  0  0
 46 70  1  0  0  0  0
 47 65  1  0  0  0  0
 48 64  1  0  0  0  0
 50 58  1  0  0  0  0
 51 59  1  0  0  0  0
 52 60  1  0  0  0  0
 53 60  1  0  0  0  0
 54 60  1  0  0  0  0
 55 73  1  0  0  0  0
 56 61  1  0  0  0  0
 56 72  1  0  0  0  0
 57 60  1  0  0  0  0
 57 71  1  0  0  0  0
 58 73  1  0  0  0  0
 59 81  1  0  0  0  0
 61 84  1  0  0  0  0
 61 85  1  0  0  0  0
 61 86  1  0  0  0  0
 62 64  1  0  0  0  0
M  CHG  1  73   1
M  ISO  4  36 100  59 101  72 100  81 101
M  END
> <Batch ID>
0184

> <Smiles>
CNC(C)C(=O)NC(C(=O)N1Cc2cc([101O:1][101CH:1](C)C(=O)Nc3nc(C)c(C([100NH:0][100C:0](=O)N4CCCC(n5nc(-c6ccc(Oc7ccc(F)cc7F)cc6)c(C(N)=O)c5N)C4)C(F)(F)F)s3)ccc2CC1C(=O)NC1CCCc2ccccc21)C(C)(C)C

> <Shape>
0.236

> <Color>
0.210

> <Negative vol penalty>
0.000

$$$$

  -OEChem-04052305023D

 85 93  0     1  0  0  0  0  0999 V2000
  -19.3187  -28.0803   26.4121 C   0  0  0  0  0  0  0  0  0  0  0  0
  -20.6222  -27.6835   26.1310 C   0  0  0  0  0  0  0  0  0  0  0  0
  -24.3072   -9.8547   21.2045 C   0  0  0  0  0  0  0  0  0  0  0  0
  -24.8908  -10.7865   23.3558 C   0  0  0  0  0  0  0  0  0  0  0  0
  -18.4102  -28.2725   25.3721 C   0  0  0  0  0  0  0  0  0  0  0  0
  -21.0175  -27.4776   24.8097 C   0  0  0  0  0  0  0  0  0  0  0  0
  -25.5321  -29.5328   23.7901 C   0  0  0  0  0  0  0  0  0  0  0  0
  -23.9819   -8.6445   21.8169 C   0  0  0  0  0  0  0  0  0  0  0  0
  -24.5654   -9.5763   23.9682 C   0  0  0  0  0  0  0  0  0  0  0  0
  -26.6604  -28.8406   24.2280 C   0  0  0  0  0  0  0  0  0  0  0  0
  -21.3971   -7.3595   23.5777 C   0  0  0  0  0  0  0  0  0  0  0  0
  -20.2113   -6.7353   23.1906 C   0  0  0  0  0  0  0  0  0  0  0  0
  -26.9737  -27.9573   22.0052 C   0  0  0  0  0  0  0  0  0  0  0  0
  -21.4652   -4.7996   22.4707 C   0  0  0  0  0  0  0  0  0  0  0  0
  -24.7617  -10.9257   21.9739 C   0  0  0  0  0  0  0  0  0  0  0  0
  -24.2403  -13.2660   21.1027 C   0  0  0  0  0  0  0  0  0  0  0  0
  -18.7973  -28.0783   24.0368 C   0  0  0  0  0  0  0  0  0  0  0  0
  -25.1092  -29.4336   22.4568 C   0  0  0  0  0  0  0  0  0  0  0  0
  -20.1129  -27.6661   23.7510 C   0  0  0  0  0  0  0  0  0  0  0  0
  -25.8413  -28.6513   21.5523 C   0  0  0  0  0  0  0  0  0  0  0  0
  -24.1109   -8.5052   23.1987 C   0  0  0  0  0  0  0  0  0  0  0  0
  -27.3797  -28.0504   23.3362 C   0  0  0  0  0  0  0  0  0  0  0  0
  -22.6170   -6.7038   23.4112 C   0  0  0  0  0  0  0  0  0  0  0  0
  -20.2453   -5.4554   22.6371 C   0  0  0  0  0  0  0  0  0  0  0  0
  -22.6510   -5.4239   22.8578 C   0  0  0  0  0  0  0  0  0  0  0  0
  -25.0985  -12.1760   21.3418 C   0  0  0  0  0  0  0  0  0  0  0  0
  -28.2085  -21.5797   21.0453 C   0  0  0  0  0  0  0  0  0  0  0  0
  -29.4100  -21.4052   20.3912 C   0  0  0  0  0  0  0  0  0  0  0  0
  -25.0352  -14.1995   20.4837 C   0  0  0  0  0  0  0  0  0  0  0  0
  -28.8632  -19.2965   20.6446 C   0  0  0  0  0  0  0  0  0  0  0  0
  -22.8490  -13.4208   21.4125 C   0  0  0  0  0  0  0  0  0  0  0  0
  -22.4865  -28.3717   21.0085 C   0  0  0  0  0  0  0  0  0  0  0  0
  -23.9376  -29.5597   18.3618 C   0  0  0  0  0  0  0  0  0  0  0  0
  -27.6720  -24.3919   23.4044 C   0  0  0  0  0  0  0  0  0  0  0  0
  -26.8383  -30.4602   16.8055 C   0  0  0  0  0  0  0  0  0  0  0  0
  -29.8123  -17.0318   20.0818 C   0  0  0  0  0  0  0  0  0  0  0  0
  -17.7668  -28.2526   22.9495 C   0  0  0  0  0  0  0  0  0  0  0  0
  -23.9056  -30.2078   21.9939 C   0  0  0  0  0  0  0  0  0  0  0  0
  -25.4407  -28.5276   20.1057 C   0  0  0  0  0  0  0  0  0  0  0  0
  -18.3700  -28.3763   21.5527 C   0  0  0  0  0  0  0  0  0  0  0  0
  -29.7092  -13.8045   18.5813 C   0  0  0  0  0  0  0  0  0  0  0  0
  -19.4312  -27.3029   21.3325 C   0  0  0  0  0  0  0  0  0  0  0  0
  -28.4299  -13.1828   19.1460 C   0  0  0  0  0  0  0  0  0  0  0  0
  -30.4253  -14.6687   19.6177 C   0  0  0  0  0  0  0  0  0  0  0  0
  -28.3116  -15.0761   20.8159 C   0  0  0  0  0  0  0  0  0  0  0  0
  -20.5866  -27.4567   22.3290 C   0  0  1  0  0  0  0  0  0  0  0  0
  -23.2682  -29.6256   20.7360 C   0  0  1  0  0  0  0  0  0  0  0  0
  -27.5213  -14.2491   19.7887 C   0  0  2  0  0  0  0  0  0  0  0  0
  -27.1446  -23.7363   20.2645 C   0  0  0  0  0  0  0  0  0  0  0  0
  -27.7099  -31.3619   14.6319 C   0  0  0  0  0  0  0  0  0  0  0  0
  -29.1316  -26.8432   26.0053 C   0  0  0  0  0  0  0  0  0  0  0  0
  -23.5526  -26.8205   17.0740 C   0  0  0  0  0  0  0  0  0  0  0  0
  -25.2380  -27.4751   15.3421 C   0  0  0  0  0  0  0  0  0  0  0  0
  -23.1096  -28.7583   15.5564 C   0  0  0  0  0  0  0  0  0  0  0  0
  -27.9475  -32.8705   18.1166 C   0  0  0  0  0  0  0  0  0  0  0  0
  -28.7208  -25.0445   24.2929 C   0  0  0  0  0  0  0  0  0  0  0  0
  -27.4922  -22.8478   21.4572 C   0  0  2  0  0  0  0  0  0  0  0  0
  -24.8936  -29.0119   17.3298 C   0  0  1  0  0  0  0  0  0  0  0  0
  -27.2197  -31.7078   16.0293 C   0  0  2  0  0  0  0  0  0  0  0  0
  -28.2938  -26.4195   24.8060 C   0  0  2  0  0  0  0  0  0  1  0  0
  -24.2051  -28.0170   16.3532 C   0  0  0  0  0  0  0  0  0  0  0  0
  -26.3432  -12.3953   20.9098 N   0  0  0  0  0  0  0  0  0  0  0  0
  -29.7873  -20.0966   20.1610 N   0  0  0  0  0  0  0  0  0  0  0  0
  -26.2729  -13.6338   20.3929 N   0  0  0  0  0  0  0  0  0  0  0  0
  -24.2530  -29.2988   19.7028 N   0  0  0  0  0  0  0  0  0  0  0  0
  -29.5039  -15.6584   20.1802 N   0  0  0  0  0  0  0  0  0  0  0  0
  -30.2007  -22.4273   19.9858 N   0  0  0  0  0  0  0  0  0  0  0  0
  -24.7892  -15.4408   20.0136 N   0  0  0  0  0  0  0  0  0  0  0  0
  -22.1847  -12.3639   22.0496 N   0  0  0  0  0  0  0  0  0  0  0  0
  -28.8467  -17.8798   20.6232 N   0  0  0  0  0  0  0  0  0  0  0  0
  -21.4638  -28.5340   21.9235 N   0  0  0  0  0  0  0  0  0  0  0  0
  -28.2558  -23.5870   22.4365 N   0  0  0  0  0  0  0  0  0  0  0  0
  -25.4967  -30.1689   16.6772 N   0  0  0  0  0  0  0  0  0  0  0  0
  -28.3023  -32.4477   16.7373 N   0  3  0  0  0  0  0  0  0  0  0  0
  -22.2097  -14.4591   21.1178 O   0  0  0  0  0  0  0  0  0  0  0  0
  -22.7880  -27.3342   20.4303 O   0  0  0  0  0  0  0  0  0  0  0  0
  -22.9514  -30.2017   17.9920 O   0  0  0  0  0  0  0  0  0  0  0  0
  -26.4651  -24.5699   23.5434 O   0  0  0  0  0  0  0  0  0  0  0  0
  -27.6502  -29.8071   17.4573 O   0  0  0  0  0  0  0  0  0  0  0  0
  -30.8431  -17.4276   19.5316 O   0  0  0  0  0  0  0  0  0  0  0  0
  -23.7933   -7.3245   23.7967 O   0  0  0  0  0  0  0  0  0  0  0  0
  -28.4809  -27.3732   23.7611 O   0  0  0  0  0  0  0  0  0  1  0  0
  -19.1064   -4.8555   22.2669 F   0  0  0  0  0  0  0  0  0  0  0  0
  -23.8198   -4.7885   22.6965 F   0  0  0  0  0  0  0  0  0  0  0  0
  -27.5132  -20.0501   21.3892 S   0  0  0  0  0  0  0  0  0  0  0  0
  1  2  1  0  0  0  0
  1  5  2  0  0  0  0
  2  6  2  0  0  0  0
  3  8  2  0  0  0  0
  3 15  1  0  0  0  0
  4  9  1  0  0  0  0
  4 15  2  0  0  0  0
  5 17  1  0  0  0  0
  6 19  1  0  0  0  0
  7 10  2  0  0  0  0
  7 18  1  0  0  0  0
  8 21  1  0  0  0  0
  9 21  2  0  0  0  0
 10 22  1  0  0  0  0
 11 12  2  0  0  0  0
 11 23  1  0  0  0  0
 12 24  1  0  0  0  0
 13 20  1  0  0  0  0
 13 22  2  0  0  0  0
 14 24  2  0  0  0  0
 14 25  1  0  0  0  0
 15 26  1  0  0  0  0
 16 26  1  0  0  0  0
 16 29  2  0  0  0  0
 16 31  1  0  0  0  0
 17 19  2  0  0  0  0
 17 37  1  0  0  0  0
 18 20  2  0  0  0  0
 18 38  1  0  0  0  0
 19 46  1  0  0  0  0
 20 39  1  0  0  0  0
 21 81  1  0  0  0  0
 22 82  1  0  0  0  0
 23 25  2  0  0  0  0
 23 81  1  0  0  0  0
 24 83  1  0  0  0  0
 25 84  1  0  0  0  0
 26 62  2  0  0  0  0
 27 28  2  0  0  0  0
 27 57  1  0  0  0  0
 27 85  1  0  0  0  0
 28 63  1  0  0  0  0
 28 67  1  0  0  0  0
 29 64  1  0  0  0  0
 29 68  1  0  0  0  0
 30 63  2  0  0  0  0
 30 70  1  0  0  0  0
 30 85  1  0  0  0  0
 31 69  1  0  0  0  0
 31 75  2  0  0  0  0
 32 47  1  0  0  0  0
 32 71  1  0  0  0  0
 32 76  2  0  0  0  0
 33 58  1  0  0  0  0
 33 65  1  0  0  0  0
 33 77  2  0  0  0  0
 34 56  1  0  0  0  0
 34 72  1  0  0  0  0
 34 78  2  0  0  0  0
 35 59  1  0  0  0  0
 35 73  1  0  0  0  0
 35 79  2  0  0  0  0
 36 66  1  0  0  0  0
 36 70  1  0  0  0  0
 36 80  2  0  0  0  0
 37 40  1  0  0  0  0
 38 47  1  0  0  0  0
 39 65  1  0  0  0  0
 40 42  1  0  0  0  0
 41 43  1  0  0  0  0
 41 44  1  0  0  0  0
 42 46  1  0  0  0  0
 43 48  1  0  0  0  0
 44 66  1  0  0  0  0
 45 48  1  0  0  0  0
 45 66  1  0  0  0  0
 46 71  1  0  0  0  0
 47 65  1  0  0  0  0
 48 64  1  0  0  0  0
 49 57  1  0  0  0  0
 50 59  1  0  0  0  0
 51 60  1  0  0  0  0
 52 61  1  0  0  0  0
 53 61  1  0  0  0  0
 54 61  1  0  0  0  0
 55 74  1  0  0  0  0
 56 60  1  0  0  0  0
 57 72  1  0  0  0  0
 58 61  1  0  0  0  0
 58 73  1  0  0  0  0
 59 74  1  0  0  0  0
 60 82  1  0  0  0  0
 62 64  1  0  0  0  0
M  CHG  1  74   1
M  ISO  4  36 100  60 101  70 100  82 101
M  END
> <Batch ID>
0184

> <Smiles>
CNC(C)C(=O)NC(C(=O)N1Cc2cc([101O:1][101CH:1](C)CC(=O)NC(C)c3sc([100NH:0][100C:0](=O)N4CCCC(n5nc(-c6ccc(Oc7ccc(F)cc7F)cc6)c(C(N)=O)c5N)C4)nc3N)ccc2CC1C(=O)NC1CCCc2ccccc21)C(C)(C)C

> <Shape>
0.275

> <Color>
0.146

> <Negative vol penalty>
0.000

$$$$

  -OEChem-04052305023D

 82 90  0     1  0  0  0  0  0999 V2000
  -26.2116  -38.0640   23.6787 C   0  0  0  0  0  0  0  0  0  0  0  0
  -26.8907  -37.2547   22.7736 C   0  0  0  0  0  0  0  0  0  0  0  0
  -24.3941   -8.9773   21.3294 C   0  0  0  0  0  0  0  0  0  0  0  0
  -23.0300  -10.6936   20.3141 C   0  0  0  0  0  0  0  0  0  0  0  0
  -25.5277  -37.4893   24.7492 C   0  0  0  0  0  0  0  0  0  0  0  0
  -26.8871  -35.8701   22.9391 C   0  0  0  0  0  0  0  0  0  0  0  0
  -26.9838  -29.7941   19.1458 C   0  0  0  0  0  0  0  0  0  0  0  0
  -23.2511   -8.3896   21.8714 C   0  0  0  0  0  0  0  0  0  0  0  0
  -21.8870  -10.1058   20.8561 C   0  0  0  0  0  0  0  0  0  0  0  0
  -27.6867  -28.5937   19.0524 C   0  0  0  0  0  0  0  0  0  0  0  0
  -20.7351   -6.3942   20.8125 C   0  0  0  0  0  0  0  0  0  0  0  0
  -20.6096   -5.0086   20.7134 C   0  0  0  0  0  0  0  0  0  0  0  0
  -26.4052  -27.7070   20.8938 C   0  0  0  0  0  0  0  0  0  0  0  0
  -20.5300   -4.8435   23.1225 C   0  0  0  0  0  0  0  0  0  0  0  0
  -25.8890  -20.0608   19.0570 C   0  0  0  0  0  0  0  0  0  0  0  0
  -24.2835  -10.1294   20.5508 C   0  0  0  0  0  0  0  0  0  0  0  0
  -26.0497  -10.4635   18.7406 C   0  0  0  0  0  0  0  0  0  0  0  0
  -25.5077  -36.0963   24.9224 C   0  0  0  0  0  0  0  0  0  0  0  0
  -25.9921  -29.9641   20.1226 C   0  0  0  0  0  0  0  0  0  0  0  0
  -26.2034  -35.2763   24.0136 C   0  0  0  0  0  0  0  0  0  0  0  0
  -25.6893  -28.9096   20.9958 C   0  0  0  0  0  0  0  0  0  0  0  0
  -21.9976   -8.9538   21.6348 C   0  0  0  0  0  0  0  0  0  0  0  0
  -27.3995  -27.5510   19.9284 C   0  0  0  0  0  0  0  0  0  0  0  0
  -20.7582   -7.0045   22.0666 C   0  0  0  0  0  0  0  0  0  0  0  0
  -20.5070   -4.2332   21.8683 C   0  0  0  0  0  0  0  0  0  0  0  0
  -20.6556   -6.2291   23.2216 C   0  0  0  0  0  0  0  0  0  0  0  0
  -25.4639  -10.7373   19.9911 C   0  0  0  0  0  0  0  0  0  0  0  0
  -27.0706  -20.3710   19.6970 C   0  0  0  0  0  0  0  0  0  0  0  0
  -27.1400  -11.2968   18.6824 C   0  0  0  0  0  0  0  0  0  0  0  0
  -27.0275  -18.2176   20.1101 C   0  0  0  0  0  0  0  0  0  0  0  0
  -27.3763  -25.2368   19.5895 C   0  0  0  0  0  0  0  0  0  1  0  0
  -25.6445   -9.5387   17.7227 C   0  0  0  0  0  0  0  0  0  0  0  0
  -27.9469  -24.0307   19.4824 C   0  0  0  0  0  0  0  0  0  0  0  0
  -27.0810  -22.8384   19.2048 C   0  0  0  0  0  0  0  0  0  0  0  0
  -25.5927  -31.9187   22.5972 C   0  0  0  0  0  0  0  0  0  0  0  0
  -22.6848  -30.4900   22.7576 C   0  0  0  0  0  0  0  0  0  0  0  0
  -20.7486  -27.7724   22.0416 C   0  0  0  0  0  0  0  0  0  0  0  0
  -28.4405  -16.5069   21.3031 C   0  0  0  0  0  0  0  0  0  0  0  0
  -24.7941  -35.5241   26.1215 C   0  0  0  0  0  0  0  0  0  0  0  0
  -25.2244  -31.2556   20.1929 C   0  0  0  0  0  0  0  0  0  0  0  0
  -24.6199  -29.0343   22.0490 C   0  0  0  0  0  0  0  0  0  0  0  0
  -24.5270  -34.0250   26.0132 C   0  0  0  0  0  0  0  0  0  0  0  0
  -30.3283  -13.4945   21.4999 C   0  0  0  0  0  0  0  0  0  0  0  0
  -25.7785  -33.2925   25.5400 C   0  0  0  0  0  0  0  0  0  0  0  0
  -29.3504  -12.4215   21.0157 C   0  0  0  0  0  0  0  0  0  0  0  0
  -29.6250  -14.5740   22.3208 C   0  0  0  0  0  0  0  0  0  0  0  0
  -27.4874  -14.1210   21.1831 C   0  0  0  0  0  0  0  0  0  0  0  0
  -26.2022  -33.7687   24.1453 C   0  0  1  0  0  0  0  0  0  0  0  0
  -24.5905  -31.5003   21.5588 C   0  0  1  0  0  0  0  0  0  0  0  0
  -28.1385  -13.0465   20.2971 C   0  0  2  0  0  0  0  0  0  0  0  0
  -18.4210  -26.8805   22.3320 C   0  0  0  0  0  0  0  0  0  0  0  0
  -23.2903  -29.8691   25.6830 C   0  0  0  0  0  0  0  0  0  0  0  0
  -21.4219  -28.2031   25.6437 C   0  0  0  0  0  0  0  0  0  0  0  0
  -20.9459  -30.6181   25.2391 C   0  0  0  0  0  0  0  0  0  0  0  0
  -20.3186  -27.6172   19.1176 C   0  0  0  0  0  0  0  0  0  0  0  0
  -22.1290  -29.2723   23.4556 C   0  0  1  0  0  0  0  0  0  0  0  0
  -19.3659  -27.6548   21.4262 C   0  0  2  0  0  0  0  0  0  0  0  0
  -21.9683  -29.4886   24.9868 C   0  0  0  0  0  0  0  0  0  0  0  0
  -26.1272  -11.6714   20.6777 N   0  0  0  0  0  0  0  0  0  0  0  0
  -27.7246  -19.3154   20.3018 N   0  0  0  0  0  0  0  0  0  0  0  0
  -27.1411  -11.9917   19.8559 N   0  0  0  0  0  0  0  0  0  0  0  0
  -23.9014  -30.3189   22.0819 N   0  0  0  0  0  0  0  0  0  0  0  0
  -28.4906  -15.1233   21.5751 N   0  0  0  0  0  0  0  0  0  0  0  0
  -28.0883  -11.4954   17.7423 N   0  0  0  0  0  0  0  0  0  0  0  0
  -24.5006   -8.7598   17.9446 N   0  0  0  0  0  0  0  0  0  0  0  0
  -27.6095  -21.6789   19.7554 N   0  0  0  0  0  0  0  0  0  0  0  0
  -27.3316  -16.9085   20.5591 N   0  0  0  0  0  0  0  0  0  0  0  0
  -25.3606  -33.1722   23.1302 N   0  0  0  0  0  0  0  0  0  0  0  0
  -20.8878  -28.9374   22.7659 N   0  0  0  0  0  0  0  0  0  0  0  0
  -19.4409  -26.9516   20.1143 N   0  3  0  0  0  0  0  0  0  0  0  0
  -26.2873   -9.3951   16.6551 O   0  0  0  0  0  0  0  0  0  0  0  0
  -26.0432  -22.9497   18.5611 O   0  0  0  0  0  0  0  0  0  0  0  0
  -26.5078  -31.1597   22.8939 O   0  0  0  0  0  0  0  0  0  0  0  0
  -22.0590  -31.5519   22.8039 O   0  0  0  0  0  0  0  0  0  0  0  0
  -21.6170  -26.9147   21.8976 O   0  0  0  0  0  0  0  0  0  0  0  0
  -29.3308  -17.2745   21.6776 O   0  0  0  0  0  0  0  0  0  0  0  0
  -29.3069  -23.8385   19.6164 O   0  0  0  0  0  0  0  0  0  0  0  0
  -20.8821   -8.3804   22.1633 O   0  0  0  0  0  0  0  0  0  0  0  0
  -28.0846  -26.3785   19.8398 O   0  0  0  0  0  0  0  0  0  1  0  0
  -20.3849   -2.9027   21.7730 F   0  0  0  0  0  0  0  0  0  0  0  0
  -20.6759   -6.8099   24.4291 F   0  0  0  0  0  0  0  0  0  0  0  0
  -25.5752  -18.3817   19.2107 S   0  0  0  0  0  0  0  0  0  0  0  0
  1  2  1  0  0  0  0
  1  5  2  0  0  0  0
  2  6  2  0  0  0  0
  3  8  2  0  0  0  0
  3 16  1  0  0  0  0
  4  9  1  0  0  0  0
  4 16  2  0  0  0  0
  5 18  1  0  0  0  0
  6 20  1  0  0  0  0
  7 10  2  0  0  0  0
  7 19  1  0  0  0  0
  8 22  1  0  0  0  0
  9 22  2  0  0  0  0
 10 23  1  0  0  0  0
 11 12  2  0  0  0  0
 11 24  1  0  0  0  0
 12 25  1  0  0  0  0
 13 21  1  0  0  0  0
 13 23  2  0  0  0  0
 14 25  2  0  0  0  0
 14 26  1  0  0  0  0
 15 28  2  0  0  0  0
 15 82  1  0  0  0  0
 16 27  1  0  0  0  0
 17 27  1  0  0  0  0
 17 29  2  0  0  0  0
 17 32  1  0  0  0  0
 18 20  2  0  0  0  0
 18 39  1  0  0  0  0
 19 21  2  0  0  0  0
 19 40  1  0  0  0  0
 20 48  1  0  0  0  0
 21 41  1  0  0  0  0
 22 78  1  0  0  0  0
 23 79  1  0  0  0  0
 24 26  2  0  0  0  0
 24 78  1  0  0  0  0
 25 80  1  0  0  0  0
 26 81  1  0  0  0  0
 27 59  2  0  0  0  0
 28 60  1  0  0  0  0
 28 66  1  0  0  0  0
 29 61  1  0  0  0  0
 29 64  1  0  0  0  0
 30 60  2  0  0  0  0
 30 67  1  0  0  0  0
 30 82  1  0  0  0  0
 31 33  2  0  0  0  0
 31 79  1  0  0  0  0
 32 65  1  0  0  0  0
 32 71  2  0  0  0  0
 33 34  1  0  0  0  0
 33 77  1  0  0  0  0
 34 66  1  0  0  0  0
 34 72  2  0  0  0  0
 35 49  1  0  0  0  0
 35 68  1  0  0  0  0
 35 73  2  0  0  0  0
 36 56  1  0  0  0  0
 36 62  1  0  0  0  0
 36 74  2  0  0  0  0
 37 57  1  0  0  0  0
 37 69  1  0  0  0  0
 37 75  2  0  0  0  0
 38 63  1  0  0  0  0
 38 67  1  0  0  0  0
 38 76  2  0  0  0  0
 39 42  1  0  0  0  0
 40 49  1  0  0  0  0
 41 62  1  0  0  0  0
 42 44  1  0  0  0  0
 43 45  1  0  0  0  0
 43 46  1  0  0  0  0
 44 48  1  0  0  0  0
 45 50  1  0  0  0  0
 46 63  1  0  0  0  0
 47 50  1  0  0  0  0
 47 63  1  0  0  0  0
 48 68  1  0  0  0  0
 49 62  1  0  0  0  0
 50 61  1  0  0  0  0
 51 57  1  0  0  0  0
 52 58  1  0  0  0  0
 53 58  1  0  0  0  0
 54 58  1  0  0  0  0
 55 70  1  0  0  0  0
 56 58  1  0  0  0  0
 56 69  1  0  0  0  0
 57 70  1  0  0  0  0
 59 61  1  0  0  0  0
M  CHG  1  70   1
M  ISO  4  31 101  38 100  67 100  79 101
M  END
> <Batch ID>
0184

> <Smiles>
CNC(C)C(=O)NC(C(=O)N1Cc2cc([101O:1][101CH2:1]C(=O)C(=O)Nc3csc([100NH:0][100C:0](=O)N4CCCC(n5nc(-c6ccc(Oc7ccc(F)cc7F)cc6)c(C(N)=O)c5N)C4)n3)ccc2CC1C(=O)NC1CCCc2ccccc21)C(C)(C)C

> <Shape>
0.330

> <Color>
0.092

> <Negative vol penalty>
0.000

$$$$

  -OEChem-04052305023D

 87 95  0     1  0  0  0  0  0999 V2000
  -18.1165  -29.0175   22.7311 C   0  0  0  0  0  0  0  0  0  0  0  0
  -17.9660  -27.6385   22.6253 C   0  0  0  0  0  0  0  0  0  0  0  0
  -28.9548  -21.9613   20.2019 C   0  0  0  0  0  0  0  0  0  0  0  0
  -29.3739  -22.1635   17.8312 C   0  0  0  0  0  0  0  0  0  0  0  0
  -19.3919  -29.5808   22.7254 C   0  0  0  0  0  0  0  0  0  0  0  0
  -19.0908  -26.8221   22.5127 C   0  0  0  0  0  0  0  0  0  0  0  0
  -19.7961  -21.1891   24.8100 C   0  0  0  0  0  0  0  0  0  0  0  0
  -29.5255  -23.2169   20.4099 C   0  0  0  0  0  0  0  0  0  0  0  0
  -29.9446  -23.4192   18.0391 C   0  0  0  0  0  0  0  0  0  0  0  0
  -19.6712  -19.9220   24.2419 C   0  0  0  0  0  0  0  0  0  0  0  0
  -28.6139  -26.4550   20.0684 C   0  0  0  0  0  0  0  0  0  0  0  0
  -27.9443  -27.3395   20.9139 C   0  0  0  0  0  0  0  0  0  0  0  0
  -22.0521  -19.8664   23.8574 C   0  0  0  0  0  0  0  0  0  0  0  0
  -22.5631  -13.2192   21.9734 C   0  0  0  0  0  0  0  0  0  0  0  0
  -29.8735  -27.4116   22.3664 C   0  0  0  0  0  0  0  0  0  0  0  0
  -28.8790  -21.4346   18.9125 C   0  0  0  0  0  0  0  0  0  0  0  0
  -26.9372  -19.8511   18.4334 C   0  0  0  0  0  0  0  0  0  0  0  0
  -20.5333  -28.7701   22.6224 C   0  0  0  0  0  0  0  0  0  0  0  0
  -21.0505  -21.8099   24.8963 C   0  0  0  0  0  0  0  0  0  0  0  0
  -20.3826  -27.3752   22.5043 C   0  0  0  0  0  0  0  0  0  0  0  0
  -22.1905  -21.1403   24.4293 C   0  0  0  0  0  0  0  0  0  0  0  0
  -23.7465  -12.4420   21.8134 C   0  0  0  0  0  0  0  0  0  0  0  0
  -30.0204  -23.9459   19.3285 C   0  0  0  0  0  0  0  0  0  0  0  0
  -20.7989  -19.2616   23.7629 C   0  0  0  0  0  0  0  0  0  0  0  0
  -29.9134  -26.0488   20.3719 C   0  0  0  0  0  0  0  0  0  0  0  0
  -28.5741  -27.8178   22.0629 C   0  0  0  0  0  0  0  0  0  0  0  0
  -30.5432  -26.5271   21.5209 C   0  0  0  0  0  0  0  0  0  0  0  0
  -28.2901  -20.1373   18.6971 C   0  0  0  0  0  0  0  0  0  0  0  0
  -24.6695  -13.0655   21.0029 C   0  0  0  0  0  0  0  0  0  0  0  0
  -26.8935  -18.4840   18.3082 C   0  0  0  0  0  0  0  0  0  0  0  0
  -22.6268  -14.4074   21.2791 C   0  0  0  0  0  0  0  0  0  0  0  0
  -25.8198  -20.7414   18.3123 C   0  0  0  0  0  0  0  0  0  0  0  0
  -26.0178  -12.6030   20.5846 C   0  0  0  0  0  0  0  0  0  0  0  0
  -19.7281  -16.8159   21.3886 C   0  0  0  0  0  0  0  0  0  0  0  0
  -19.4826  -17.0651   20.0867 C   0  0  0  0  0  0  0  0  0  0  0  0
  -20.4348  -15.5413   21.7451 C   0  0  0  0  0  0  0  0  0  0  0  0
  -22.3223  -24.4713   23.7117 C   0  0  0  0  0  0  0  0  0  0  0  0
  -24.8293  -23.6496   25.5991 C   0  0  0  0  0  0  0  0  0  0  0  0
  -26.5375  -21.1926   27.2398 C   0  0  0  0  0  0  0  0  0  0  0  0
  -28.2856  -13.3891   19.9822 C   0  0  0  0  0  0  0  0  0  0  0  0
  -21.8893  -29.4285   22.5731 C   0  0  0  0  0  0  0  0  0  0  0  0
  -21.1721  -23.1658   25.5361 C   0  0  0  0  0  0  0  0  0  0  0  0
  -23.5628  -21.7548   24.5169 C   0  0  0  0  0  0  0  0  0  0  0  0
  -23.0445  -28.4636   22.8273 C   0  0  0  0  0  0  0  0  0  0  0  0
  -30.6313  -15.0846   17.9524 C   0  0  0  0  0  0  0  0  0  0  0  0
  -22.8656  -27.1891   22.0085 C   0  0  0  0  0  0  0  0  0  0  0  0
  -30.1178  -16.5270   17.9349 C   0  0  0  0  0  0  0  0  0  0  0  0
  -30.4359  -14.4293   19.3189 C   0  0  0  0  0  0  0  0  0  0  0  0
  -28.5620  -15.9386   19.8369 C   0  0  0  0  0  0  0  0  0  0  0  0
  -21.5794  -26.4544   22.4054 C   0  0  1  0  0  0  0  0  0  0  0  0
  -22.4266  -23.9194   25.1053 C   0  0  1  0  0  0  0  0  0  0  0  0
  -28.6721  -16.6192   18.4629 C   0  0  1  0  0  0  0  0  0  0  0  0
  -23.9471  -11.1183   22.4515 C   0  0  0  0  0  0  0  0  0  0  0  0
  -18.7835  -18.2807   19.5526 C   0  0  0  0  0  0  0  0  0  0  0  0
  -28.5687  -20.8209   28.6658 C   0  0  0  0  0  0  0  0  0  0  0  0
  -26.6032  -23.8747   23.1267 C   0  0  0  0  0  0  0  0  0  0  0  0
  -28.3690  -22.6016   24.3634 C   0  0  0  0  0  0  0  0  0  0  0  0
  -27.6024  -24.8167   25.2168 C   0  0  0  0  0  0  0  0  0  0  0  0
  -24.9086  -20.2124   29.5080 C   0  0  0  0  0  0  0  0  0  0  0  0
  -19.4498  -17.7246   22.5491 C   0  0  0  0  0  0  0  0  0  1  0  0
  -26.0734  -22.8135   25.4200 C   0  0  1  0  0  0  0  0  0  0  0  0
  -27.0766  -21.1146   28.6568 C   0  0  2  0  0  0  0  0  0  0  0  0
  -27.1360  -23.5156   24.5281 C   0  0  0  0  0  0  0  0  0  0  0  0
  -29.0508  -19.0402   18.7375 N   0  0  0  0  0  0  0  0  0  0  0  0
  -28.1730  -18.0513   18.4975 N   0  0  0  0  0  0  0  0  0  0  0  0
  -23.6291  -23.0847   25.1451 N   0  0  0  0  0  0  0  0  0  0  0  0
  -29.0399  -14.5510   19.7427 N   0  0  0  0  0  0  0  0  0  0  0  0
  -25.8858  -17.6219   18.0558 N   0  0  0  0  0  0  0  0  0  0  0  0
  -26.0411  -22.1164   18.4694 N   0  0  0  0  0  0  0  0  0  0  0  0
  -21.6903  -15.4619   21.1604 N   0  0  0  0  0  0  0  0  0  0  0  0
  -26.9513  -13.6108   20.3410 N   0  0  0  0  0  0  0  0  0  0  0  0
  -21.7702  -25.7364   23.6474 N   0  0  0  0  0  0  0  0  0  0  0  0
  -26.5419  -22.4861   26.7623 N   0  0  0  0  0  0  0  0  0  0  0  0
  -26.3811  -20.0379   29.4170 N   0  3  0  0  0  0  0  0  0  0  0  0
  -24.6568  -20.3284   18.0881 O   0  0  0  0  0  0  0  0  0  0  0  0
  -26.2423  -11.3977   20.5168 O   0  0  0  0  0  0  0  0  0  0  0  0
  -19.8654  -14.7124   22.4461 O   0  0  0  0  0  0  0  0  0  0  0  0
  -22.7151  -23.7997   22.7649 O   0  0  0  0  0  0  0  0  0  0  0  0
  -24.9181  -24.7600   26.1289 O   0  0  0  0  0  0  0  0  0  0  0  0
  -26.1545  -20.2045   26.6175 O   0  0  0  0  0  0  0  0  0  0  0  0
  -28.7489  -12.2518   19.8509 O   0  0  0  0  0  0  0  0  0  0  0  0
  -19.8780  -16.1637   19.1093 O   0  0  0  0  0  0  0  0  0  0  0  0
  -30.5772  -25.1712   19.5311 O   0  0  0  0  0  0  0  0  0  0  0  0
  -20.6797  -18.0251   23.2074 O   0  0  0  0  0  0  0  0  0  1  0  0
  -27.9314  -28.6683   22.8739 F   0  0  0  0  0  0  0  0  0  0  0  0
  -31.7919  -26.1413   21.8172 F   0  0  0  0  0  0  0  0  0  0  0  0
  -24.1085  -14.5818   20.4387 S   0  0  0  0  0  0  0  0  0  0  0  0
  1  2  1  0  0  0  0
  1  5  2  0  0  0  0
  2  6  2  0  0  0  0
  3  8  2  0  0  0  0
  3 16  1  0  0  0  0
  4  9  1  0  0  0  0
  4 16  2  0  0  0  0
  5 18  1  0  0  0  0
  6 20  1  0  0  0  0
  7 10  2  0  0  0  0
  7 19  1  0  0  0  0
  8 23  1  0  0  0  0
  9 23  2  0  0  0  0
 10 24  1  0  0  0  0
 11 12  2  0  0  0  0
 11 25  1  0  0  0  0
 12 26  1  0  0  0  0
 13 21  1  0  0  0  0
 13 24  2  0  0  0  0
 14 22  1  0  0  0  0
 14 31  2  0  0  0  0
 15 26  2  0  0  0  0
 15 27  1  0  0  0  0
 16 28  1  0  0  0  0
 17 28  1  0  0  0  0
 17 30  2  0  0  0  0
 17 32  1  0  0  0  0
 18 20  2  0  0  0  0
 18 41  1  0  0  0  0
 19 21  2  0  0  0  0
 19 42  1  0  0  0  0
 20 50  1  0  0  0  0
 21 43  1  0  0  0  0
 22 29  2  0  0  0  0
 22 53  1  0  0  0  0
 23 83  1  0  0  0  0
 24 84  1  0  0  0  0
 25 27  2  0  0  0  0
 25 83  1  0  0  0  0
 26 85  1  0  0  0  0
 27 86  1  0  0  0  0
 28 64  2  0  0  0  0
 29 33  1  0  0  0  0
 29 87  1  0  0  0  0
 30 65  1  0  0  0  0
 30 68  1  0  0  0  0
 31 70  1  0  0  0  0
 31 87  1  0  0  0  0
 32 69  1  0  0  0  0
 32 75  2  0  0  0  0
 33 71  1  0  0  0  0
 33 76  2  0  0  0  0
 34 35  2  0  0  0  0
 34 36  1  0  0  0  0
 34 60  1  0  0  0  0
 35 54  1  0  0  0  0
 35 82  1  0  0  0  0
 36 70  1  0  0  0  0
 36 77  2  0  0  0  0
 37 51  1  0  0  0  0
 37 72  1  0  0  0  0
 37 78  2  0  0  0  0
 38 61  1  0  0  0  0
 38 66  1  0  0  0  0
 38 79  2  0  0  0  0
 39 62  1  0  0  0  0
 39 73  1  0  0  0  0
 39 80  2  0  0  0  0
 40 67  1  0  0  0  0
 40 71  1  0  0  0  0
 40 81  2  0  0  0  0
 41 44  1  0  0  0  0
 42 51  1  0  0  0  0
 43 66  1  0  0  0  0
 44 46  1  0  0  0  0
 45 47  1  0  0  0  0
 45 48  1  0  0  0  0
 46 50  1  0  0  0  0
 47 52  1  0  0  0  0
 48 67  1  0  0  0  0
 49 52  1  0  0  0  0
 49 67  1  0  0  0  0
 50 72  1  0  0  0  0
 51 66  1  0  0  0  0
 52 65  1  0  0  0  0
 55 62  1  0  0  0  0
 56 63  1  0  0  0  0
 57 63  1  0  0  0  0
 58 63  1  0  0  0  0
 59 74  1  0  0  0  0
 60 84  1  0  0  0  0
 61 63  1  0  0  0  0
 61 73  1  0  0  0  0
 62 74  1  0  0  0  0
 64 65  1  0  0  0  0
M  CHG  1  74   1
M  ISO  4  40 100  60 101  71 100  84 101
M  END
> <Batch ID>
0184

> <Smiles>
CNC(C)C(=O)NC(C(=O)N1Cc2cc([101O:1][101CH2:1]C(C(C)=O)C(=O)Nc3cc(C)c(C(=O)[100NH:0][100C:0](=O)N4CCCC(n5nc(-c6ccc(Oc7ccc(F)cc7F)cc6)c(C(N)=O)c5N)C4)s3)ccc2CC1C(=O)NC1CCCc2ccccc21)C(C)(C)C

> <Shape>
0.212

> <Color>
0.046

> <Negative vol penalty>
0.000

$$$$

  -OEChem-04052305023D

 84 92  0     1  0  0  0  0  0999 V2000
  -16.5787  -28.8833   23.3351 C   0  0  0  0  0  0  0  0  0  0  0  0
  -17.1922  -29.2205   22.1329 C   0  0  0  0  0  0  0  0  0  0  0  0
  -23.9407  -14.4400   20.7951 C   0  0  0  0  0  0  0  0  0  0  0  0
  -26.1607  -14.5881   21.7366 C   0  0  0  0  0  0  0  0  0  0  0  0
  -17.2057  -29.1817   24.5442 C   0  0  0  0  0  0  0  0  0  0  0  0
  -18.4327  -29.8573   22.1391 C   0  0  0  0  0  0  0  0  0  0  0  0
  -25.1428  -27.7710   18.7261 C   0  0  0  0  0  0  0  0  0  0  0  0
  -24.1560  -13.0940   20.4990 C   0  0  0  0  0  0  0  0  0  0  0  0
  -26.3761  -13.2421   21.4406 C   0  0  0  0  0  0  0  0  0  0  0  0
  -26.4261  -27.4259   18.3014 C   0  0  0  0  0  0  0  0  0  0  0  0
  -24.1383  -10.1457   22.1544 C   0  0  0  0  0  0  0  0  0  0  0  0
  -23.1197   -9.2435   22.4611 C   0  0  0  0  0  0  0  0  0  0  0  0
  -27.3829  -28.7160   20.1092 C   0  0  0  0  0  0  0  0  0  0  0  0
  -22.9688   -8.6219   20.1312 C   0  0  0  0  0  0  0  0  0  0  0  0
  -31.7744  -22.1626   21.5006 C   0  0  0  0  0  0  0  0  0  0  0  0
  -24.9431  -15.1871   21.4138 C   0  0  0  0  0  0  0  0  0  0  0  0
  -24.1830  -17.1121   22.9051 C   0  0  0  0  0  0  0  0  0  0  0  0
  -18.4590  -29.8138   24.5650 C   0  0  0  0  0  0  0  0  0  0  0  0
  -24.9742  -28.5783   19.8545 C   0  0  0  0  0  0  0  0  0  0  0  0
  -19.0765  -30.1656   23.3496 C   0  0  0  0  0  0  0  0  0  0  0  0
  -26.0997  -29.0547   20.5467 C   0  0  0  0  0  0  0  0  0  0  0  0
  -25.3737  -12.4951   20.8218 C   0  0  0  0  0  0  0  0  0  0  0  0
  -27.5433  -27.8975   18.9911 C   0  0  0  0  0  0  0  0  0  0  0  0
  -24.5722  -10.2861   20.8361 C   0  0  0  0  0  0  0  0  0  0  0  0
  -22.5350   -8.4816   21.4495 C   0  0  0  0  0  0  0  0  0  0  0  0
  -23.9874   -9.5242   19.8246 C   0  0  0  0  0  0  0  0  0  0  0  0
  -30.5605  -21.5537   21.2023 C   0  0  0  0  0  0  0  0  0  0  0  0
  -32.0786  -23.4017   20.9480 C   0  0  0  0  0  0  0  0  0  0  0  0
  -24.7214  -16.5776   21.7193 C   0  0  0  0  0  0  0  0  0  0  0  0
  -29.6922  -22.2200   20.3527 C   0  0  0  0  0  0  0  0  0  0  0  0
  -31.1424  -23.9852   20.1096 C   0  0  0  0  0  0  0  0  0  0  0  0
  -24.1805  -18.4701   22.6995 C   0  0  0  0  0  0  0  0  0  0  0  0
  -23.7261  -16.4411   24.0869 C   0  0  0  0  0  0  0  0  0  0  0  0
  -22.5828  -30.2821   22.1899 C   0  0  0  0  0  0  0  0  0  0  0  0
  -24.8462  -29.1344   23.9134 C   0  0  0  0  0  0  0  0  0  0  0  0
  -27.2981  -27.3595   25.4866 C   0  0  0  0  0  0  0  0  0  0  0  0
  -27.4418  -22.0793   19.2292 C   0  0  0  0  0  0  0  0  0  0  0  0
  -19.0760  -30.1586   25.8973 C   0  0  0  0  0  0  0  0  0  0  0  0
  -23.6123  -29.0255   20.3117 C   0  0  0  0  0  0  0  0  0  0  0  0
  -25.8710  -29.9488   21.7346 C   0  0  0  0  0  0  0  0  0  0  0  0
  -20.5619  -30.4975   25.8109 C   0  0  0  0  0  0  0  0  0  0  0  0
  -23.8989  -21.7271   19.1999 C   0  0  0  0  0  0  0  0  0  0  0  0
  -20.8233  -31.4621   24.6585 C   0  0  0  0  0  0  0  0  0  0  0  0
  -23.6584  -20.4184   19.9559 C   0  0  0  0  0  0  0  0  0  0  0  0
  -25.1595  -21.6617   18.3395 C   0  0  0  0  0  0  0  0  0  0  0  0
  -26.1355  -19.9403   19.8069 C   0  0  0  0  0  0  0  0  0  0  0  0
  -20.4334  -30.8348   23.3146 C   0  0  1  0  0  0  0  0  0  0  0  0
  -23.4988  -29.1457   21.8420 C   0  0  1  0  0  0  0  0  0  0  0  0
  -24.9125  -19.9805   20.7376 C   0  0  2  0  0  0  0  0  0  0  0  0
  -28.1885  -26.8295   27.7722 C   0  0  0  0  0  0  0  0  0  0  0  0
  -26.1117  -31.9059   24.0591 C   0  0  0  0  0  0  0  0  0  0  0  0
  -27.6919  -31.0159   25.7850 C   0  0  0  0  0  0  0  0  0  0  0  0
  -25.2389  -31.0414   26.2374 C   0  0  0  0  0  0  0  0  0  0  0  0
  -26.7911  -24.4644   25.1397 C   0  0  0  0  0  0  0  0  0  0  0  0
  -30.5854  -25.9502   18.6763 C   0  0  0  0  0  0  0  0  0  0  0  0
  -26.1764  -29.3780   24.5802 C   0  0  1  0  0  0  0  0  0  0  0  0
  -27.2500  -26.3944   26.6574 C   0  0  2  0  0  0  0  0  0  0  0  0
  -26.3029  -30.8231   25.1398 C   0  0  0  0  0  0  0  0  0  0  0  0
  -29.6478  -26.8391   19.4709 C   0  0  0  0  0  0  0  0  0  1  0  0
  -25.0378  -17.5192   20.8264 N   0  0  0  0  0  0  0  0  0  0  0  0
  -29.9528  -23.4244   19.7967 N   0  0  0  0  0  0  0  0  0  0  0  0
  -24.6971  -18.6591   21.4515 N   0  0  0  0  0  0  0  0  0  0  0  0
  -24.7599  -29.4299   22.5475 N   0  0  0  0  0  0  0  0  0  0  0  0
  -26.3072  -21.2445   19.1478 N   0  0  0  0  0  0  0  0  0  0  0  0
  -23.7868  -19.5091   23.4663 N   0  0  0  0  0  0  0  0  0  0  0  0
  -23.7997  -15.0422   24.1317 N   0  0  0  0  0  0  0  0  0  0  0  0
  -28.4569  -21.5940   20.0529 N   0  0  0  0  0  0  0  0  0  0  0  0
  -31.4570  -25.2206   19.5645 N   0  0  0  0  0  0  0  0  0  0  0  0
  -21.4485  -29.8994   22.8800 N   0  0  0  0  0  0  0  0  0  0  0  0
  -26.3261  -28.3324   25.5865 N   0  0  0  0  0  0  0  0  0  0  0  0
  -27.6452  -25.0264   26.2176 N   0  3  0  0  0  0  0  0  0  0  0  0
  -23.2510  -17.0625   25.0675 O   0  0  0  0  0  0  0  0  0  0  0  0
  -22.8829  -31.4231   21.8586 O   0  0  0  0  0  0  0  0  0  0  0  0
  -23.9060  -28.6993   24.5841 O   0  0  0  0  0  0  0  0  0  0  0  0
  -28.1184  -27.2624   24.5766 O   0  0  0  0  0  0  0  0  0  0  0  0
  -27.4969  -23.1592   18.6351 O   0  0  0  0  0  0  0  0  0  0  0  0
  -25.5841  -11.1817   20.5334 O   0  0  0  0  0  0  0  0  0  0  0  0
  -28.7931  -27.5531   18.5737 O   0  0  0  0  0  0  0  0  0  1  0  0
  -21.5579   -7.6142   21.7444 F   0  0  0  0  0  0  0  0  0  0  0  0
  -24.4008   -9.6538   18.5565 F   0  0  0  0  0  0  0  0  0  0  0  0
  -30.2544  -20.3604   21.7275 F   0  0  0  0  0  0  0  0  0  0  0  0
  -33.2439  -23.9998   21.2265 F   0  0  0  0  0  0  0  0  0  0  0  0
  -28.8959  -26.0818   20.3062 F   0  0  0  0  0  0  0  0  0  0  0  0
  -30.3662  -27.7198   20.2090 F   0  0  0  0  0  0  0  0  0  0  0  0
  1  2  1  0  0  0  0
  1  5  2  0  0  0  0
  2  6  2  0  0  0  0
  3  8  2  0  0  0  0
  3 16  1  0  0  0  0
  4  9  1  0  0  0  0
  4 16  2  0  0  0  0
  5 18  1  0  0  0  0
  6 20  1  0  0  0  0
  7 10  2  0  0  0  0
  7 19  1  0  0  0  0
  8 22  1  0  0  0  0
  9 22  2  0  0  0  0
 10 23  1  0  0  0  0
 11 12  2  0  0  0  0
 11 24  1  0  0  0  0
 12 25  1  0  0  0  0
 13 21  1  0  0  0  0
 13 23  2  0  0  0  0
 14 25  2  0  0  0  0
 14 26  1  0  0  0  0
 15 27  2  0  0  0  0
 15 28  1  0  0  0  0
 16 29  1  0  0  0  0
 17 29  1  0  0  0  0
 17 32  2  0  0  0  0
 17 33  1  0  0  0  0
 18 20  2  0  0  0  0
 18 38  1  0  0  0  0
 19 21  2  0  0  0  0
 19 39  1  0  0  0  0
 20 47  1  0  0  0  0
 21 40  1  0  0  0  0
 22 77  1  0  0  0  0
 23 78  1  0  0  0  0
 24 26  2  0  0  0  0
 24 77  1  0  0  0  0
 25 79  1  0  0  0  0
 26 80  1  0  0  0  0
 27 30  1  0  0  0  0
 27 81  1  0  0  0  0
 28 31  2  0  0  0  0
 28 82  1  0  0  0  0
 29 60  2  0  0  0  0
 30 61  2  0  0  0  0
 30 67  1  0  0  0  0
 31 61  1  0  0  0  0
 31 68  1  0  0  0  0
 32 62  1  0  0  0  0
 32 65  1  0  0  0  0
 33 66  1  0  0  0  0
 33 72  2  0  0  0  0
 34 48  1  0  0  0  0
 34 69  1  0  0  0  0
 34 73  2  0  0  0  0
 35 56  1  0  0  0  0
 35 63  1  0  0  0  0
 35 74  2  0  0  0  0
 36 57  1  0  0  0  0
 36 70  1  0  0  0  0
 36 75  2  0  0  0  0
 37 64  1  0  0  0  0
 37 67  1  0  0  0  0
 37 76  2  0  0  0  0
 38 41  1  0  0  0  0
 39 48  1  0  0  0  0
 40 63  1  0  0  0  0
 41 43  1  0  0  0  0
 42 44  1  0  0  0  0
 42 45  1  0  0  0  0
 43 47  1  0  0  0  0
 44 49  1  0  0  0  0
 45 64  1  0  0  0  0
 46 49  1  0  0  0  0
 46 64  1  0  0  0  0
 47 69  1  0  0  0  0
 48 63  1  0  0  0  0
 49 62  1  0  0  0  0
 50 57  1  0  0  0  0
 51 58  1  0  0  0  0
 52 58  1  0  0  0  0
 53 58  1  0  0  0  0
 54 71  1  0  0  0  0
 55 59  1  0  0  0  0
 55 68  1  0  0  0  0
 56 58  1  0  0  0  0
 56 70  1  0  0  0  0
 57 71  1  0  0  0  0
 59 78  1  0  0  0  0
 59 83  1  0  0  0  0
 59 84  1  0  0  0  0
 60 62  1  0  0  0  0
M  CHG  1  71   1
M  ISO  4  37 100  59 101  67 100  78 101
M  END
> <Batch ID>
0184

> <Smiles>
CNC(C)C(=O)NC(C(=O)N1Cc2cc([101O:1][101C:1](F)(F)CNc3nc([100NH:0][100C:0](=O)N4CCCC(n5nc(-c6ccc(Oc7ccc(F)cc7F)cc6)c(C(N)=O)c5N)C4)c(F)cc3F)ccc2CC1C(=O)NC1CCCc2ccccc21)C(C)(C)C

> <Shape>
0.266

> <Color>
0.112

> <Negative vol penalty>
0.000

$$$$

  -OEChem-04052305023D

 83 91  0     1  0  0  0  0  0999 V2000
  -30.5899  -22.3114   25.2713 C   0  0  0  0  0  0  0  0  0  0  0  0
  -30.5289  -22.2087   23.8853 C   0  0  0  0  0  0  0  0  0  0  0  0
  -23.0573   -9.8421   20.0209 C   0  0  0  0  0  0  0  0  0  0  0  0
  -23.7121  -10.0226   22.3395 C   0  0  0  0  0  0  0  0  0  0  0  0
  -30.0096  -23.4039   25.9144 C   0  0  0  0  0  0  0  0  0  0  0  0
  -29.8866  -23.1980   23.1415 C   0  0  0  0  0  0  0  0  0  0  0  0
  -32.5392  -24.5885   19.0580 C   0  0  0  0  0  0  0  0  0  0  0  0
  -22.3066   -8.7056   20.3215 C   0  0  0  0  0  0  0  0  0  0  0  0
  -22.9613   -8.8861   22.6400 C   0  0  0  0  0  0  0  0  0  0  0  0
  -32.4973  -23.7402   17.9523 C   0  0  0  0  0  0  0  0  0  0  0  0
  -23.2879   -5.5341   22.3429 C   0  0  0  0  0  0  0  0  0  0  0  0
  -23.8734   -4.5684   23.1615 C   0  0  0  0  0  0  0  0  0  0  0  0
  -30.8577  -25.1771   16.9197 C   0  0  0  0  0  0  0  0  0  0  0  0
  -22.0956   -4.8559   24.7721 C   0  0  0  0  0  0  0  0  0  0  0  0
  -23.7602  -10.5006   21.0300 C   0  0  0  0  0  0  0  0  0  0  0  0
  -24.0990  -13.0122   20.7396 C   0  0  0  0  0  0  0  0  0  0  0  0
  -29.3682  -24.4120   25.1775 C   0  0  0  0  0  0  0  0  0  0  0  0
  -31.7312  -25.7335   19.1076 C   0  0  0  0  0  0  0  0  0  0  0  0
  -29.2960  -24.3043   23.7755 C   0  0  0  0  0  0  0  0  0  0  0  0
  -30.8931  -26.0396   18.0260 C   0  0  0  0  0  0  0  0  0  0  0  0
  -22.2585   -8.2276   21.6310 C   0  0  0  0  0  0  0  0  0  0  0  0
  -31.6543  -24.0329   16.8842 C   0  0  0  0  0  0  0  0  0  0  0  0
  -22.1063   -6.1608   22.7389 C   0  0  0  0  0  0  0  0  0  0  0  0
  -23.2773   -4.2293   24.3761 C   0  0  0  0  0  0  0  0  0  0  0  0
  -21.5101   -5.8217   23.9535 C   0  0  0  0  0  0  0  0  0  0  0  0
  -24.5364  -11.6743   20.7201 C   0  0  0  0  0  0  0  0  0  0  0  0
  -29.4269  -18.8350   20.4155 C   0  0  0  0  0  0  0  0  0  0  0  0
  -30.5197  -18.0649   20.7543 C   0  0  0  0  0  0  0  0  0  0  0  0
  -25.2041  -13.7401   20.3717 C   0  0  0  0  0  0  0  0  0  0  0  0
  -30.8422  -19.5964   18.9232 C   0  0  0  0  0  0  0  0  0  0  0  0
  -22.8091  -13.5491   21.0616 C   0  0  0  0  0  0  0  0  0  0  0  0
  -29.3901  -26.7464   21.0042 C   0  0  0  0  0  0  0  0  0  0  0  0
  -29.6507  -29.4503   19.2311 C   0  0  0  0  0  0  0  0  0  0  0  0
  -30.5995  -30.9097   16.2957 C   0  0  0  0  0  0  0  0  0  0  0  0
  -30.8768  -21.2836   17.0548 C   0  0  0  0  0  0  0  0  0  0  0  0
  -30.6704  -14.8061   20.7315 C   0  0  0  0  0  0  0  0  0  0  0  0
  -28.7144  -25.5501   25.9204 C   0  0  0  0  0  0  0  0  0  0  0  0
  -31.8078  -26.6526   20.2958 C   0  0  0  0  0  0  0  0  0  0  0  0
  -30.0208  -27.2674   18.0213 C   0  0  0  0  0  0  0  0  0  0  0  0
  -28.3791  -26.7449   25.0315 C   0  0  0  0  0  0  0  0  0  0  0  0
  -29.6501  -12.2452   18.4782 C   0  0  0  0  0  0  0  0  0  0  0  0
  -27.7024  -26.2805   23.7458 C   0  0  0  0  0  0  0  0  0  0  0  0
  -28.1954  -11.9747   18.8664 C   0  0  0  0  0  0  0  0  0  0  0  0
  -30.5110  -12.5597   19.6997 C   0  0  0  0  0  0  0  0  0  0  0  0
  -28.5458  -13.3783   20.9414 C   0  0  0  0  0  0  0  0  0  0  0  0
  -28.6297  -25.3697   22.9322 C   0  0  1  0  0  0  0  0  0  0  0  0
  -30.5618  -27.5166   20.4642 C   0  0  1  0  0  0  0  0  0  0  0  0
  -27.6268  -13.1112   19.7371 C   0  0  2  0  0  0  0  0  0  0  0  0
  -28.1023  -18.7999   21.0684 C   0  0  0  0  0  0  0  0  0  0  0  0
  -30.6535  -33.1295   15.1266 C   0  0  0  0  0  0  0  0  0  0  0  0
  -31.7923  -21.0690   14.7149 C   0  0  0  0  0  0  0  0  0  0  0  0
  -26.6544  -29.2382   18.6953 C   0  0  0  0  0  0  0  0  0  0  0  0
  -26.9466  -30.8633   16.8133 C   0  0  0  0  0  0  0  0  0  0  0  0
  -27.4711  -31.5576   19.1512 C   0  0  0  0  0  0  0  0  0  0  0  0
  -33.5509  -30.8564   16.0827 C   0  0  0  0  0  0  0  0  0  0  0  0
  -30.6730  -17.0422   21.8082 C   0  0  0  0  0  0  0  0  0  0  0  0
  -29.0214  -29.9575   17.9561 C   0  0  1  0  0  0  0  0  0  0  0  0
  -31.4186  -32.1551   16.0086 C   0  0  2  0  0  0  0  0  0  0  0  0
  -31.8754  -21.8229   16.0339 C   0  0  1  0  0  0  0  0  0  1  0  0
  -27.5383  -30.3799   18.1546 C   0  0  0  0  0  0  0  0  0  0  0  0
  -25.8192  -11.5562   20.3675 N   0  0  0  0  0  0  0  0  0  0  0  0
  -29.6101  -19.7140   19.3660 N   0  0  0  0  0  0  0  0  0  0  0  0
  -26.1975  -12.8293   20.1620 N   0  0  0  0  0  0  0  0  0  0  0  0
  -30.1265  -28.1316   19.2086 N   0  0  0  0  0  0  0  0  0  0  0  0
  -29.9174  -13.6470   20.4817 N   0  0  0  0  0  0  0  0  0  0  0  0
  -25.4134  -15.0640   20.2102 N   0  0  0  0  0  0  0  0  0  0  0  0
  -21.7859  -12.6606   21.4190 N   0  0  0  0  0  0  0  0  0  0  0  0
  -31.4511  -20.3064   17.8611 N   0  0  0  0  0  0  0  0  0  0  0  0
  -29.6226  -26.1556   22.2315 N   0  0  0  0  0  0  0  0  0  0  0  0
  -29.8873  -31.0265   17.4706 N   0  0  0  0  0  0  0  0  0  0  0  0
  -30.0306  -15.7904   21.4749 N   0  0  0  0  0  0  0  0  0  0  0  0
  -32.6879  -31.7923   15.3170 N   0  3  0  0  0  0  0  0  0  0  0  0
  -22.5666  -14.7791   21.0173 O   0  0  0  0  0  0  0  0  0  0  0  0
  -28.3515  -26.6934   20.3560 O   0  0  0  0  0  0  0  0  0  0  0  0
  -29.7242  -30.1990   20.2087 O   0  0  0  0  0  0  0  0  0  0  0  0
  -30.5894  -29.9326   15.5503 O   0  0  0  0  0  0  0  0  0  0  0  0
  -29.7293  -21.7162   17.1125 O   0  0  0  0  0  0  0  0  0  0  0  0
  -31.8252  -14.9552   20.3179 O   0  0  0  0  0  0  0  0  0  0  0  0
  -21.5258   -7.1188   21.9246 O   0  0  0  0  0  0  0  0  0  0  0  0
  -31.6110  -23.2063   15.8041 O   0  0  0  0  0  0  0  0  0  1  0  0
  -23.8388   -3.3008   25.1615 F   0  0  0  0  0  0  0  0  0  0  0  0
  -20.3743   -6.4194   24.3387 F   0  0  0  0  0  0  0  0  0  0  0  0
  -31.8351  -18.4472   19.7223 S   0  0  0  0  0  0  0  0  0  0  0  0
  1  2  1  0  0  0  0
  1  5  2  0  0  0  0
  2  6  2  0  0  0  0
  3  8  2  0  0  0  0
  3 15  1  0  0  0  0
  4  9  1  0  0  0  0
  4 15  2  0  0  0  0
  5 17  1  0  0  0  0
  6 19  1  0  0  0  0
  7 10  2  0  0  0  0
  7 18  1  0  0  0  0
  8 21  1  0  0  0  0
  9 21  2  0  0  0  0
 10 22  1  0  0  0  0
 11 12  2  0  0  0  0
 11 23  1  0  0  0  0
 12 24  1  0  0  0  0
 13 20  1  0  0  0  0
 13 22  2  0  0  0  0
 14 24  2  0  0  0  0
 14 25  1  0  0  0  0
 15 26  1  0  0  0  0
 16 26  1  0  0  0  0
 16 29  2  0  0  0  0
 16 31  1  0  0  0  0
 17 19  2  0  0  0  0
 17 37  1  0  0  0  0
 18 20  2  0  0  0  0
 18 38  1  0  0  0  0
 19 46  1  0  0  0  0
 20 39  1  0  0  0  0
 21 79  1  0  0  0  0
 22 80  1  0  0  0  0
 23 25  2  0  0  0  0
 23 79  1  0  0  0  0
 24 81  1  0  0  0  0
 25 82  1  0  0  0  0
 26 61  2  0  0  0  0
 27 28  2  0  0  0  0
 27 49  1  0  0  0  0
 27 62  1  0  0  0  0
 28 56  1  0  0  0  0
 28 83  1  0  0  0  0
 29 63  1  0  0  0  0
 29 66  1  0  0  0  0
 30 62  2  0  0  0  0
 30 68  1  0  0  0  0
 30 83  1  0  0  0  0
 31 67  1  0  0  0  0
 31 73  2  0  0  0  0
 32 47  1  0  0  0  0
 32 69  1  0  0  0  0
 32 74  2  0  0  0  0
 33 57  1  0  0  0  0
 33 64  1  0  0  0  0
 33 75  2  0  0  0  0
 34 58  1  0  0  0  0
 34 70  1  0  0  0  0
 34 76  2  0  0  0  0
 35 59  1  0  0  0  0
 35 68  1  0  0  0  0
 35 77  2  0  0  0  0
 36 65  1  0  0  0  0
 36 71  1  0  0  0  0
 36 78  2  0  0  0  0
 37 40  1  0  0  0  0
 38 47  1  0  0  0  0
 39 64  1  0  0  0  0
 40 42  1  0  0  0  0
 41 43  1  0  0  0  0
 41 44  1  0  0  0  0
 42 46  1  0  0  0  0
 43 48  1  0  0  0  0
 44 65  1  0  0  0  0
 45 48  1  0  0  0  0
 45 65  1  0  0  0  0
 46 69  1  0  0  0  0
 47 64  1  0  0  0  0
 48 63  1  0  0  0  0
 50 58  1  0  0  0  0
 51 59  1  0  0  0  0
 52 60  1  0  0  0  0
 53 60  1  0  0  0  0
 54 60  1  0  0  0  0
 55 72  1  0  0  0  0
 56 71  1  0  0  0  0
 57 60  1  0  0  0  0
 57 70  1  0  0  0  0
 58 72  1  0  0  0  0
 59 80  1  0  0  0  0
 61 63  1  0  0  0  0
M  CHG  1  72   1
M  ISO  4  36 100  59 101  71 100  80 101
M  END
> <Batch ID>
0184

> <Smiles>
CNC(C)C(=O)NC(C(=O)N1Cc2cc([101O:1][101CH:1](C)C(=O)Nc3nc(C)c(C[100NH:0][100C:0](=O)N4CCCC(n5nc(-c6ccc(Oc7ccc(F)cc7F)cc6)c(C(N)=O)c5N)C4)s3)ccc2CC1C(=O)NC1CCCc2ccccc21)C(C)(C)C

> <Shape>
0.256

> <Color>
0.223

> <Negative vol penalty>
0.000

$$$$

  -OEChem-04052305023D

 84 92  0     1  0  0  0  0  0999 V2000
  -27.3094  -26.0141   15.3953 C   0  0  0  0  0  0  0  0  0  0  0  0
  -26.1772  -26.1187   16.1968 C   0  0  0  0  0  0  0  0  0  0  0  0
  -29.8996  -18.4767   21.3335 C   0  0  0  0  0  0  0  0  0  0  0  0
  -28.2461  -17.8538   19.6857 C   0  0  0  0  0  0  0  0  0  0  0  0
  -28.5562  -26.3798   15.9009 C   0  0  0  0  0  0  0  0  0  0  0  0
  -26.2912  -26.5881   17.5049 C   0  0  0  0  0  0  0  0  0  0  0  0
  -22.7031  -29.9639   18.6773 C   0  0  0  0  0  0  0  0  0  0  0  0
  -30.5757  -17.2777   21.1083 C   0  0  0  0  0  0  0  0  0  0  0  0
  -28.9223  -16.6548   19.4604 C   0  0  0  0  0  0  0  0  0  0  0  0
  -21.4344  -29.4676   18.9737 C   0  0  0  0  0  0  0  0  0  0  0  0
  -30.0135  -13.2702   18.7098 C   0  0  0  0  0  0  0  0  0  0  0  0
  -29.2543  -12.1027   18.6305 C   0  0  0  0  0  0  0  0  0  0  0  0
  -21.9011  -29.6982   21.3292 C   0  0  0  0  0  0  0  0  0  0  0  0
  -28.4543  -12.4701   20.8804 C   0  0  0  0  0  0  0  0  0  0  0  0
  -19.8209  -23.8952   20.1477 C   0  0  0  0  0  0  0  0  0  0  0  0
  -28.7347  -18.7647   20.6223 C   0  0  0  0  0  0  0  0  0  0  0  0
  -28.2340  -21.2289   20.1920 C   0  0  0  0  0  0  0  0  0  0  0  0
  -28.6842  -26.8630   17.2127 C   0  0  0  0  0  0  0  0  0  0  0  0
  -23.5859  -30.3214   19.7066 C   0  0  0  0  0  0  0  0  0  0  0  0
  -27.5411  -26.9593   18.0290 C   0  0  0  0  0  0  0  0  0  0  0  0
  -23.1795  -30.2012   21.0432 C   0  0  0  0  0  0  0  0  0  0  0  0
  -30.0871  -16.3667   20.1717 C   0  0  0  0  0  0  0  0  0  0  0  0
  -21.0343  -29.3319   20.2998 C   0  0  0  0  0  0  0  0  0  0  0  0
  -29.9931  -14.0375   19.8745 C   0  0  0  0  0  0  0  0  0  0  0  0
  -28.4747  -11.7027   19.7157 C   0  0  0  0  0  0  0  0  0  0  0  0
  -29.2135  -13.6375   20.9598 C   0  0  0  0  0  0  0  0  0  0  0  0
  -20.6195  -22.8036   20.5959 C   0  0  0  0  0  0  0  0  0  0  0  0
  -28.0354  -20.0029   20.8549 C   0  0  0  0  0  0  0  0  0  0  0  0
  -19.8914  -21.9005   21.3387 C   0  0  0  0  0  0  0  0  0  0  0  0
  -27.3305  -22.0841   20.7741 C   0  0  0  0  0  0  0  0  0  0  0  0
  -18.5126  -23.7846   20.5649 C   0  0  0  0  0  0  0  0  0  0  0  0
  -29.1528  -21.5645   19.1438 C   0  0  0  0  0  0  0  0  0  0  0  0
  -26.4508  -29.3214   20.6529 C   0  0  0  0  0  0  0  0  0  0  0  0
  -18.3143  -26.9432   20.3827 C   0  0  0  0  0  0  0  0  0  0  0  0
  -26.2194  -31.8281   22.6986 C   0  0  0  0  0  0  0  0  0  0  0  0
  -24.2145  -34.0039   24.3996 C   0  0  0  0  0  0  0  0  0  0  0  0
  -22.1304  -21.2091   23.6102 C   0  0  0  0  0  0  0  0  0  0  0  0
  -30.0597  -27.2014   17.7307 C   0  0  0  0  0  0  0  0  0  0  0  0
  -24.9411  -30.8803   19.3698 C   0  0  0  0  0  0  0  0  0  0  0  0
  -24.0820  -30.5900   22.1845 C   0  0  0  0  0  0  0  0  0  0  0  0
  -30.0410  -28.0432   19.0040 C   0  0  0  0  0  0  0  0  0  0  0  0
  -25.0175  -22.8523   24.8912 C   0  0  0  0  0  0  0  0  0  0  0  0
  -29.0466  -27.4697   20.0085 C   0  0  0  0  0  0  0  0  0  0  0  0
  -26.1363  -22.4190   23.9422 C   0  0  0  0  0  0  0  0  0  0  0  0
  -24.0147  -21.7263   25.1328 C   0  0  0  0  0  0  0  0  0  0  0  0
  -24.5623  -20.6992   22.9605 C   0  0  0  0  0  0  0  0  0  0  0  0
  -27.6206  -27.4875   19.4449 C   0  0  1  0  0  0  0  0  0  0  0  0
  -25.9485  -30.7298   20.5055 C   0  0  1  0  0  0  0  0  0  0  0  0
  -25.5678  -21.8190   22.6422 C   0  0  2  0  0  0  0  0  0  0  0  0
  -16.2990  -26.3543   19.0190 C   0  0  0  0  0  0  0  0  0  0  0  0
  -24.3128  -35.9158   26.0220 C   0  0  0  0  0  0  0  0  0  0  0  0
  -26.8065  -29.8714   24.9651 C   0  0  0  0  0  0  0  0  0  0  0  0
  -25.9654  -31.5934   26.5761 C   0  0  0  0  0  0  0  0  0  0  0  0
  -27.9651  -32.0787   25.1660 C   0  0  0  0  0  0  0  0  0  0  0  0
  -22.9207  -35.8497   22.4817 C   0  0  0  0  0  0  0  0  0  0  0  0
  -20.3526  -20.6464   21.9725 C   0  0  0  0  0  0  0  0  0  0  0  0
  -19.2265  -27.9223   19.6668 C   0  0  0  0  0  0  0  0  0  1  0  0
  -17.6539  -25.8796   19.5165 C   0  0  2  0  0  0  0  0  0  0  0  0
  -25.6762  -32.0230   24.0936 C   0  0  1  0  0  0  0  0  0  0  0  0
  -24.2704  -35.5128   24.5562 C   0  0  2  0  0  0  0  0  0  0  0  0
  -26.5868  -31.3824   25.1790 C   0  0  0  0  0  0  0  0  0  0  0  0
  -27.0810  -20.0693   21.7869 N   0  0  0  0  0  0  0  0  0  0  0  0
  -26.6717  -21.3473   21.7138 N   0  0  0  0  0  0  0  0  0  0  0  0
  -25.3996  -31.1254   21.8041 N   0  0  0  0  0  0  0  0  0  0  0  0
  -23.5126  -21.2022   23.8604 N   0  0  0  0  0  0  0  0  0  0  0  0
  -27.0434  -23.3871   20.5686 N   0  0  0  0  0  0  0  0  0  0  0  0
  -30.0103  -20.5661   18.6619 N   0  0  0  0  0  0  0  0  0  0  0  0
  -17.4857  -24.6731   20.2965 N   0  0  0  0  0  0  0  0  0  0  0  0
  -27.0641  -28.8213   19.5201 N   0  0  0  0  0  0  0  0  0  0  0  0
  -25.4727  -33.4585   24.2556 N   0  0  0  0  0  0  0  0  0  0  0  0
  -21.7396  -20.7004   22.3776 N   0  0  0  0  0  0  0  0  0  0  0  0
  -23.0740  -36.1433   23.9299 N   0  3  0  0  0  0  0  0  0  0  0  0
  -29.2231  -22.7199   18.6605 O   0  0  0  0  0  0  0  0  0  0  0  0
  -26.2950  -28.7325   21.7162 O   0  0  0  0  0  0  0  0  0  0  0  0
  -18.1166  -27.0179   21.5958 O   0  0  0  0  0  0  0  0  0  0  0  0
  -27.3269  -32.2888   22.4111 O   0  0  0  0  0  0  0  0  0  0  0  0
  -23.1605  -33.3719   24.4081 O   0  0  0  0  0  0  0  0  0  0  0  0
  -21.3061  -21.6417   24.4229 O   0  0  0  0  0  0  0  0  0  0  0  0
  -30.7468  -15.1967   19.9515 O   0  0  0  0  0  0  0  0  0  0  0  0
  -19.7967  -28.8472   20.5919 O   0  0  0  0  0  0  0  0  0  1  0  0
  -27.7445  -10.5824   19.6388 F   0  0  0  0  0  0  0  0  0  0  0  0
  -29.1889  -14.3712   22.0809 F   0  0  0  0  0  0  0  0  0  0  0  0
  -21.9200  -22.6758   20.3252 F   0  0  0  0  0  0  0  0  0  0  0  0
  -18.2517  -22.3695   21.4932 S   0  0  0  0  0  0  0  0  0  0  0  0
  1  2  1  0  0  0  0
  1  5  2  0  0  0  0
  2  6  2  0  0  0  0
  3  8  2  0  0  0  0
  3 16  1  0  0  0  0
  4  9  1  0  0  0  0
  4 16  2  0  0  0  0
  5 18  1  0  0  0  0
  6 20  1  0  0  0  0
  7 10  2  0  0  0  0
  7 19  1  0  0  0  0
  8 22  1  0  0  0  0
  9 22  2  0  0  0  0
 10 23  1  0  0  0  0
 11 12  2  0  0  0  0
 11 24  1  0  0  0  0
 12 25  1  0  0  0  0
 13 21  1  0  0  0  0
 13 23  2  0  0  0  0
 14 25  2  0  0  0  0
 14 26  1  0  0  0  0
 15 27  1  0  0  0  0
 15 31  2  0  0  0  0
 16 28  1  0  0  0  0
 17 28  1  0  0  0  0
 17 30  2  0  0  0  0
 17 32  1  0  0  0  0
 18 20  2  0  0  0  0
 18 38  1  0  0  0  0
 19 21  2  0  0  0  0
 19 39  1  0  0  0  0
 20 47  1  0  0  0  0
 21 40  1  0  0  0  0
 22 79  1  0  0  0  0
 23 80  1  0  0  0  0
 24 26  2  0  0  0  0
 24 79  1  0  0  0  0
 25 81  1  0  0  0  0
 26 82  1  0  0  0  0
 27 29  2  0  0  0  0
 27 83  1  0  0  0  0
 28 62  2  0  0  0  0
 29 56  1  0  0  0  0
 29 84  1  0  0  0  0
 30 63  1  0  0  0  0
 30 66  1  0  0  0  0
 31 68  1  0  0  0  0
 31 84  1  0  0  0  0
 32 67  1  0  0  0  0
 32 73  2  0  0  0  0
 33 48  1  0  0  0  0
 33 69  1  0  0  0  0
 33 74  2  0  0  0  0
 34 57  1  0  0  0  0
 34 58  1  0  0  0  0
 34 75  2  0  0  0  0
 35 59  1  0  0  0  0
 35 64  1  0  0  0  0
 35 76  2  0  0  0  0
 36 60  1  0  0  0  0
 36 70  1  0  0  0  0
 36 77  2  0  0  0  0
 37 65  1  0  0  0  0
 37 71  1  0  0  0  0
 37 78  2  0  0  0  0
 38 41  1  0  0  0  0
 39 48  1  0  0  0  0
 40 64  1  0  0  0  0
 41 43  1  0  0  0  0
 42 44  1  0  0  0  0
 42 45  1  0  0  0  0
 43 47  1  0  0  0  0
 44 49  1  0  0  0  0
 45 65  1  0  0  0  0
 46 49  1  0  0  0  0
 46 65  1  0  0  0  0
 47 69  1  0  0  0  0
 48 64  1  0  0  0  0
 49 63  1  0  0  0  0
 50 58  1  0  0  0  0
 51 60  1  0  0  0  0
 52 61  1  0  0  0  0
 53 61  1  0  0  0  0
 54 61  1  0  0  0  0
 55 72  1  0  0  0  0
 56 71  1  0  0  0  0
 57 80  1  0  0  0  0
 58 68  1  0  0  0  0
 59 61  1  0  0  0  0
 59 70  1  0  0  0  0
 60 72  1  0  0  0  0
 62 63  1  0  0  0  0
M  CHG  1  72   1
M  ISO  4  37 100  57 101  71 100  80 101
M  END
> <Batch ID>
0184

> <Smiles>
CNC(C)C(=O)NC(C(=O)N1Cc2cc([101O:1][101CH2:1]C(=O)C(C)Nc3cc(F)c(C[100NH:0][100C:0](=O)N4CCCC(n5nc(-c6ccc(Oc7ccc(F)cc7F)cc6)c(C(N)=O)c5N)C4)s3)ccc2CC1C(=O)NC1CCCc2ccccc21)C(C)(C)C

> <Shape>
0.281

> <Color>
0.089

> <Negative vol penalty>
0.000

$$$$

  -OEChem-04052305023D

 83 91  0     1  0  0  0  0  0999 V2000
  -16.7488  -30.8885   23.5329 C   0  0  0  0  0  0  0  0  0  0  0  0
  -17.9455  -31.4591   23.9543 C   0  0  0  0  0  0  0  0  0  0  0  0
  -26.7009  -14.2924   18.3338 C   0  0  0  0  0  0  0  0  0  0  0  0
  -26.5672  -15.0465   20.6252 C   0  0  0  0  0  0  0  0  0  0  0  0
  -16.7360  -29.5861   23.0352 C   0  0  0  0  0  0  0  0  0  0  0  0
  -19.1301  -30.7273   23.8794 C   0  0  0  0  0  0  0  0  0  0  0  0
  -26.1542  -31.5747   22.7570 C   0  0  0  0  0  0  0  0  0  0  0  0
  -26.5078  -12.9770   18.7554 C   0  0  0  0  0  0  0  0  0  0  0  0
  -26.3739  -13.7310   21.0469 C   0  0  0  0  0  0  0  0  0  0  0  0
  -27.3831  -31.2582   23.3344 C   0  0  0  0  0  0  0  0  0  0  0  0
  -25.4853  -10.6131   22.6922 C   0  0  0  0  0  0  0  0  0  0  0  0
  -24.4846  -10.3735   23.6339 C   0  0  0  0  0  0  0  0  0  0  0  0
  -27.2531  -29.0451   22.3834 C   0  0  0  0  0  0  0  0  0  0  0  0
  -22.8353  -11.2597   22.1070 C   0  0  0  0  0  0  0  0  0  0  0  0
  -26.7307  -15.3272   19.2687 C   0  0  0  0  0  0  0  0  0  0  0  0
  -25.9393  -17.6170   18.4699 C   0  0  0  0  0  0  0  0  0  0  0  0
  -17.9226  -28.8414   22.9451 C   0  0  0  0  0  0  0  0  0  0  0  0
  -25.4592  -30.6236   21.9962 C   0  0  0  0  0  0  0  0  0  0  0  0
  -19.1330  -29.4133   23.3813 C   0  0  0  0  0  0  0  0  0  0  0  0
  -26.0168  -29.3528   21.7952 C   0  0  0  0  0  0  0  0  0  0  0  0
  -26.3442  -12.6962   20.1119 C   0  0  0  0  0  0  0  0  0  0  0  0
  -27.9314  -29.9923   23.1501 C   0  0  0  0  0  0  0  0  0  0  0  0
  -25.1610  -11.1762   21.4579 C   0  0  0  0  0  0  0  0  0  0  0  0
  -23.1597  -10.6968   23.3413 C   0  0  0  0  0  0  0  0  0  0  0  0
  -23.8360  -11.4994   21.1652 C   0  0  0  0  0  0  0  0  0  0  0  0
  -26.9308  -16.6863   18.8339 C   0  0  0  0  0  0  0  0  0  0  0  0
  -29.7306  -25.5688   19.0716 C   0  0  0  0  0  0  0  0  0  0  0  0
  -29.6110  -24.5280   19.9686 C   0  0  0  0  0  0  0  0  0  0  0  0
  -26.6387  -18.7516   18.1382 C   0  0  0  0  0  0  0  0  0  0  0  0
  -29.8869  -26.7181   20.9329 C   0  0  0  0  0  0  0  0  0  0  0  0
  -24.5136  -17.4693   18.4348 C   0  0  0  0  0  0  0  0  0  0  0  0
  -22.6417  -29.1738   22.2480 C   0  0  0  0  0  0  0  0  0  0  0  0
  -30.7077  -22.4150   19.2841 C   0  0  0  0  0  0  0  0  0  0  0  0
  -23.4276  -27.9912   19.3314 C   0  0  0  0  0  0  0  0  0  0  0  0
  -25.8764  -27.1956   17.0916 C   0  0  0  0  0  0  0  0  0  0  0  0
  -30.1861  -29.1157   21.6447 C   0  0  0  0  0  0  0  0  0  0  0  0
  -17.8516  -27.4205   22.4444 C   0  0  0  0  0  0  0  0  0  0  0  0
  -24.1473  -30.9894   21.3578 C   0  0  0  0  0  0  0  0  0  0  0  0
  -25.3204  -28.3027   20.9703 C   0  0  0  0  0  0  0  0  0  0  0  0
  -19.2092  -26.8457   22.0485 C   0  0  0  0  0  0  0  0  0  0  0  0
  -31.5822  -19.4879   17.4113 C   0  0  0  0  0  0  0  0  0  0  0  0
  -20.2505  -27.1485   23.1213 C   0  0  0  0  0  0  0  0  0  0  0  0
  -30.3820  -18.5630   17.6095 C   0  0  0  0  0  0  0  0  0  0  0  0
  -31.8600  -20.3178   18.6608 C   0  0  0  0  0  0  0  0  0  0  0  0
  -29.4838  -20.1855   19.3375 C   0  0  0  0  0  0  0  0  0  0  0  0
  -20.4426  -28.6602   23.2925 C   0  0  1  0  0  0  0  0  0  0  0  0
  -23.2834  -29.7756   21.0299 C   0  0  1  0  0  0  0  0  0  0  0  0
  -29.1499  -19.3512   18.0882 C   0  0  2  0  0  0  0  0  0  0  0  0
  -29.7041  -25.4550   17.5991 C   0  0  0  0  0  0  0  0  0  0  0  0
  -26.2132  -26.2102   14.8084 C   0  0  0  0  0  0  0  0  0  0  0  0
  -31.4952  -29.4954   23.7768 C   0  0  0  0  0  0  0  0  0  0  0  0
  -30.3520  -31.4420   22.6498 C   0  0  0  0  0  0  0  0  0  0  0  0
  -22.9098  -25.2043   20.4605 C   0  0  0  0  0  0  0  0  0  0  0  0
  -24.1478  -24.2566   18.5015 C   0  0  0  0  0  0  0  0  0  0  0  0
  -22.0548  -25.5644   18.1381 C   0  0  0  0  0  0  0  0  0  0  0  0
  -27.1217  -29.6807   16.0756 C   0  0  0  0  0  0  0  0  0  0  0  0
  -29.4308  -23.0821   19.7297 C   0  0  0  0  0  0  0  0  0  0  0  0
  -24.1645  -26.7704   18.8359 C   0  0  1  0  0  0  0  0  0  0  0  0
  -26.0193  -27.4886   15.6089 C   0  0  2  0  0  0  0  0  0  0  0  0
  -30.2996  -29.9422   22.9380 C   0  0  0  0  0  0  0  0  0  1  0  0
  -23.3317  -25.4678   19.0012 C   0  0  0  0  0  0  0  0  0  0  0  0
  -28.1660  -17.1862   18.7420 N   0  0  0  0  0  0  0  0  0  0  0  0
  -29.8885  -26.8254   19.6227 N   0  0  0  0  0  0  0  0  0  0  0  0
  -27.9553  -18.4434   18.3164 N   0  0  0  0  0  0  0  0  0  0  0  0
  -24.0372  -28.7064   20.3720 N   0  0  0  0  0  0  0  0  0  0  0  0
  -30.6594  -21.0335   19.0964 N   0  0  0  0  0  0  0  0  0  0  0  0
  -26.2498  -19.9729   17.7143 N   0  0  0  0  0  0  0  0  0  0  0  0
  -23.9603  -16.2367   18.8073 N   0  0  0  0  0  0  0  0  0  0  0  0
  -30.0221  -27.7560   21.8862 N   0  0  0  0  0  0  0  0  0  0  0  0
  -21.2602  -29.1902   22.2225 N   0  0  0  0  0  0  0  0  0  0  0  0
  -24.5547  -27.0595   17.4603 N   0  0  0  0  0  0  0  0  0  0  0  0
  -27.1912  -28.3769   15.3670 N   0  3  0  0  0  0  0  0  0  0  0  0
  -23.7538  -18.3975   18.0677 O   0  0  0  0  0  0  0  0  0  0  0  0
  -23.3478  -28.7262   23.1440 O   0  0  0  0  0  0  0  0  0  0  0  0
  -31.7161  -23.1032   19.1059 O   0  0  0  0  0  0  0  0  0  0  0  0
  -22.3543  -28.3031   18.8095 O   0  0  0  0  0  0  0  0  0  0  0  0
  -26.8410  -27.0936   17.8464 O   0  0  0  0  0  0  0  0  0  0  0  0
  -30.2430  -29.6611   20.5445 O   0  0  0  0  0  0  0  0  0  0  0  0
  -26.1555  -11.4127   20.5237 O   0  0  0  0  0  0  0  0  0  0  0  0
  -29.1304  -29.6805   23.7131 O   0  0  0  0  0  0  0  0  0  1  0  0
  -22.1986  -10.4652   24.2452 F   0  0  0  0  0  0  0  0  0  0  0  0
  -23.5182  -12.0394   19.9807 F   0  0  0  0  0  0  0  0  0  0  0  0
  -29.7003  -25.1355   21.5699 S   0  0  0  0  0  0  0  0  0  0  0  0
  1  2  1  0  0  0  0
  1  5  2  0  0  0  0
  2  6  2  0  0  0  0
  3  8  2  0  0  0  0
  3 15  1  0  0  0  0
  4  9  1  0  0  0  0
  4 15  2  0  0  0  0
  5 17  1  0  0  0  0
  6 19  1  0  0  0  0
  7 10  2  0  0  0  0
  7 18  1  0  0  0  0
  8 21  1  0  0  0  0
  9 21  2  0  0  0  0
 10 22  1  0  0  0  0
 11 12  2  0  0  0  0
 11 23  1  0  0  0  0
 12 24  1  0  0  0  0
 13 20  1  0  0  0  0
 13 22  2  0  0  0  0
 14 24  2  0  0  0  0
 14 25  1  0  0  0  0
 15 26  1  0  0  0  0
 16 26  1  0  0  0  0
 16 29  2  0  0  0  0
 16 31  1  0  0  0  0
 17 19  2  0  0  0  0
 17 37  1  0  0  0  0
 18 20  2  0  0  0  0
 18 38  1  0  0  0  0
 19 46  1  0  0  0  0
 20 39  1  0  0  0  0
 21 79  1  0  0  0  0
 22 80  1  0  0  0  0
 23 25  2  0  0  0  0
 23 79  1  0  0  0  0
 24 81  1  0  0  0  0
 25 82  1  0  0  0  0
 26 62  2  0  0  0  0
 27 28  2  0  0  0  0
 27 49  1  0  0  0  0
 27 63  1  0  0  0  0
 28 57  1  0  0  0  0
 28 83  1  0  0  0  0
 29 64  1  0  0  0  0
 29 67  1  0  0  0  0
 30 63  2  0  0  0  0
 30 69  1  0  0  0  0
 30 83  1  0  0  0  0
 31 68  1  0  0  0  0
 31 73  2  0  0  0  0
 32 47  1  0  0  0  0
 32 70  1  0  0  0  0
 32 74  2  0  0  0  0
 33 57  1  0  0  0  0
 33 66  1  0  0  0  0
 33 75  2  0  0  0  0
 34 58  1  0  0  0  0
 34 65  1  0  0  0  0
 34 76  2  0  0  0  0
 35 59  1  0  0  0  0
 35 71  1  0  0  0  0
 35 77  2  0  0  0  0
 36 60  1  0  0  0  0
 36 69  1  0  0  0  0
 36 78  2  0  0  0  0
 37 40  1  0  0  0  0
 38 47  1  0  0  0  0
 39 65  1  0  0  0  0
 40 42  1  0  0  0  0
 41 43  1  0  0  0  0
 41 44  1  0  0  0  0
 42 46  1  0  0  0  0
 43 48  1  0  0  0  0
 44 66  1  0  0  0  0
 45 48  1  0  0  0  0
 45 66  1  0  0  0  0
 46 70  1  0  0  0  0
 47 65  1  0  0  0  0
 48 64  1  0  0  0  0
 50 59  1  0  0  0  0
 51 60  1  0  0  0  0
 52 60  1  0  0  0  0
 53 61  1  0  0  0  0
 54 61  1  0  0  0  0
 55 61  1  0  0  0  0
 56 72  1  0  0  0  0
 58 61  1  0  0  0  0
 58 71  1  0  0  0  0
 59 72  1  0  0  0  0
 60 80  1  0  0  0  0
 62 64  1  0  0  0  0
M  CHG  1  72   1
M  ISO  4  33 100  57 100  60 101  80 101
M  END
> <Batch ID>
0184

> <Smiles>
CNC(C)C(=O)NC(C(=O)N1Cc2cc([101O:1][101C:1](C)(C)C(=O)Nc3nc(C)c([100CH2:0][100C:0](=O)N4CCCC(n5nc(-c6ccc(Oc7ccc(F)cc7F)cc6)c(C(N)=O)c5N)C4)s3)ccc2CC1C(=O)NC1CCCc2ccccc21)C(C)(C)C

> <Shape>
0.279

> <Color>
0.096

> <Negative vol penalty>
0.000

$$$$

  -OEChem-04052305023D

 82 90  0     1  0  0  0  0  0999 V2000
  -28.1883  -24.3019   18.1891 C   0  0  0  0  0  0  0  0  0  0  0  0
  -26.9483  -24.6664   18.7038 C   0  0  0  0  0  0  0  0  0  0  0  0
  -27.4231  -14.3245   21.8414 C   0  0  0  0  0  0  0  0  0  0  0  0
  -26.2160  -14.8093   19.8055 C   0  0  0  0  0  0  0  0  0  0  0  0
  -29.3558  -24.7842   18.7793 C   0  0  0  0  0  0  0  0  0  0  0  0
  -26.8751  -25.5126   19.8097 C   0  0  0  0  0  0  0  0  0  0  0  0
  -23.3913  -29.1449   19.2494 C   0  0  0  0  0  0  0  0  0  0  0  0
  -27.0576  -12.9823   21.7385 C   0  0  0  0  0  0  0  0  0  0  0  0
  -25.8506  -13.4670   19.7025 C   0  0  0  0  0  0  0  0  0  0  0  0
  -22.0588  -28.7849   19.4457 C   0  0  0  0  0  0  0  0  0  0  0  0
  -23.5705  -11.3923   21.0910 C   0  0  0  0  0  0  0  0  0  0  0  0
  -22.2429  -11.1045   20.7746 C   0  0  0  0  0  0  0  0  0  0  0  0
  -22.1401  -29.7194   21.6682 C   0  0  0  0  0  0  0  0  0  0  0  0
  -22.9684   -9.9482   18.7813 C   0  0  0  0  0  0  0  0  0  0  0  0
  -27.0022  -15.2380   20.8749 C   0  0  0  0  0  0  0  0  0  0  0  0
  -28.5278  -17.2369   20.4453 C   0  0  0  0  0  0  0  0  0  0  0  0
  -29.2967  -25.6444   19.8870 C   0  0  0  0  0  0  0  0  0  0  0  0
  -24.1126  -29.7862   20.2666 C   0  0  0  0  0  0  0  0  0  0  0  0
  -28.0429  -26.0057   20.4161 C   0  0  0  0  0  0  0  0  0  0  0  0
  -23.4809  -30.0888   21.4813 C   0  0  0  0  0  0  0  0  0  0  0  0
  -26.2714  -12.5536   20.6691 C   0  0  0  0  0  0  0  0  0  0  0  0
  -21.4338  -29.0695   20.6563 C   0  0  0  0  0  0  0  0  0  0  0  0
  -24.5972  -10.9581   20.2524 C   0  0  0  0  0  0  0  0  0  0  0  0
  -21.9418  -10.3824   19.6198 C   0  0  0  0  0  0  0  0  0  0  0  0
  -24.2961  -10.2360   19.0976 C   0  0  0  0  0  0  0  0  0  0  0  0
  -27.3789  -16.6247   20.9809 C   0  0  0  0  0  0  0  0  0  0  0  0
  -22.3748  -22.2045   18.6888 C   0  0  0  0  0  0  0  0  0  0  0  0
  -22.6497  -22.5474   19.9960 C   0  0  0  0  0  0  0  0  0  0  0  0
  -28.4219  -18.5538   20.8207 C   0  0  0  0  0  0  0  0  0  0  0  0
  -21.3975  -24.2665   19.4606 C   0  0  0  0  0  0  0  0  0  0  0  0
  -29.5954  -16.6661   19.6770 C   0  0  0  0  0  0  0  0  0  0  0  0
  -26.7003  -29.0770   21.9710 C   0  0  0  0  0  0  0  0  0  0  0  0
  -26.3091  -32.0941   23.0963 C   0  0  0  0  0  0  0  0  0  0  0  0
  -24.2082  -34.7202   23.6764 C   0  0  0  0  0  0  0  0  0  0  0  0
  -20.5164  -26.3605   20.5458 C   0  0  0  0  0  0  0  0  0  0  0  0
  -23.7717  -22.0455   22.1950 C   0  0  0  0  0  0  0  0  0  0  0  0
  -30.5867  -26.1023   20.5202 C   0  0  0  0  0  0  0  0  0  0  0  0
  -25.5414  -30.1920   20.0294 C   0  0  0  0  0  0  0  0  0  0  0  0
  -24.2052  -30.7939   22.5978 C   0  0  0  0  0  0  0  0  0  0  0  0
  -30.4153  -27.2945   21.4581 C   0  0  0  0  0  0  0  0  0  0  0  0
  -26.5817  -21.3305   24.2613 C   0  0  0  0  0  0  0  0  0  0  0  0
  -29.2286  -27.0736   22.3908 C   0  0  0  0  0  0  0  0  0  0  0  0
  -27.2131  -20.1020   23.6024 C   0  0  0  0  0  0  0  0  0  0  0  0
  -25.0564  -21.2941   24.1850 C   0  0  0  0  0  0  0  0  0  0  0  0
  -25.1382  -19.8665   22.1789 C   0  0  0  0  0  0  0  0  0  0  0  0
  -27.9219  -26.9415   21.5992 C   0  0  1  0  0  0  0  0  0  0  0  0
  -26.3314  -30.3804   21.3208 C   0  0  1  0  0  0  0  0  0  0  0  0
  -26.6754  -19.8901   22.1735 C   0  0  2  0  0  0  0  0  0  0  0  0
  -22.8013  -21.0314   17.8989 C   0  0  0  0  0  0  0  0  0  0  0  0
  -24.1697  -37.0358   24.6428 C   0  0  0  0  0  0  0  0  0  0  0  0
  -18.1939  -27.3416   20.4913 C   0  0  0  0  0  0  0  0  0  0  0  0
  -26.3679  -30.9178   25.9111 C   0  0  0  0  0  0  0  0  0  0  0  0
  -25.3940  -33.0650   26.7534 C   0  0  0  0  0  0  0  0  0  0  0  0
  -27.6308  -33.0605   25.6492 C   0  0  0  0  0  0  0  0  0  0  0  0
  -23.3884  -35.9097   21.0935 C   0  0  0  0  0  0  0  0  0  0  0  0
  -25.5555  -32.7167   24.2467 C   0  0  1  0  0  0  0  0  0  0  0  0
  -24.3445  -36.2032   23.3822 C   0  0  2  0  0  0  0  0  0  0  0  0
  -19.6616  -27.5641   20.1573 C   0  0  1  0  0  0  0  0  0  1  0  0
  -26.2237  -32.4250   25.6200 C   0  0  0  0  0  0  0  0  0  0  0  0
  -26.6003  -17.4823   21.6461 N   0  0  0  0  0  0  0  0  0  0  0  0
  -22.0905  -23.7297   20.4402 N   0  0  0  0  0  0  0  0  0  0  0  0
  -27.2613  -18.6467   21.5310 N   0  0  0  0  0  0  0  0  0  0  0  0
  -25.6026  -31.1646   22.3198 N   0  0  0  0  0  0  0  0  0  0  0  0
  -24.6200  -21.0948   22.8013 N   0  0  0  0  0  0  0  0  0  0  0  0
  -29.2092  -19.6298   20.6092 N   0  0  0  0  0  0  0  0  0  0  0  0
  -29.5474  -15.2972   19.3804 N   0  0  0  0  0  0  0  0  0  0  0  0
  -23.4497  -21.7670   20.8671 N   0  0  0  0  0  0  0  0  0  0  0  0
  -20.6636  -25.4764   19.4821 N   0  0  0  0  0  0  0  0  0  0  0  0
  -27.4571  -28.2431   21.1701 N   0  0  0  0  0  0  0  0  0  0  0  0
  -25.4306  -34.1359   23.9324 N   0  0  0  0  0  0  0  0  0  0  0  0
  -23.3178  -36.6310   22.3903 N   0  3  0  0  0  0  0  0  0  0  0  0
  -30.5715  -17.3465   19.2796 O   0  0  0  0  0  0  0  0  0  0  0  0
  -26.3272  -28.8455   23.1151 O   0  0  0  0  0  0  0  0  0  0  0  0
  -27.4792  -32.4256   22.8897 O   0  0  0  0  0  0  0  0  0  0  0  0
  -23.1253  -34.1391   23.6825 O   0  0  0  0  0  0  0  0  0  0  0  0
  -20.9972  -26.2579   21.6708 O   0  0  0  0  0  0  0  0  0  0  0  0
  -23.3831  -23.0479   22.8002 O   0  0  0  0  0  0  0  0  0  0  0  0
  -25.9149  -11.2439   20.5682 O   0  0  0  0  0  0  0  0  0  0  0  0
  -20.1335  -28.7186   20.8508 O   0  0  0  0  0  0  0  0  0  1  0  0
  -20.6669  -10.1048   19.3170 F   0  0  0  0  0  0  0  0  0  0  0  0
  -25.2782   -9.8152   18.2887 F   0  0  0  0  0  0  0  0  0  0  0  0
  -21.3749  -23.4028   17.9778 S   0  0  0  0  0  0  0  0  0  0  0  0
  1  2  1  0  0  0  0
  1  5  2  0  0  0  0
  2  6  2  0  0  0  0
  3  8  2  0  0  0  0
  3 15  1  0  0  0  0
  4  9  1  0  0  0  0
  4 15  2  0  0  0  0
  5 17  1  0  0  0  0
  6 19  1  0  0  0  0
  7 10  2  0  0  0  0
  7 18  1  0  0  0  0
  8 21  1  0  0  0  0
  9 21  2  0  0  0  0
 10 22  1  0  0  0  0
 11 12  2  0  0  0  0
 11 23  1  0  0  0  0
 12 24  1  0  0  0  0
 13 20  1  0  0  0  0
 13 22  2  0  0  0  0
 14 24  2  0  0  0  0
 14 25  1  0  0  0  0
 15 26  1  0  0  0  0
 16 26  1  0  0  0  0
 16 29  2  0  0  0  0
 16 31  1  0  0  0  0
 17 19  2  0  0  0  0
 17 37  1  0  0  0  0
 18 20  2  0  0  0  0
 18 38  1  0  0  0  0
 19 46  1  0  0  0  0
 20 39  1  0  0  0  0
 21 78  1  0  0  0  0
 22 79  1  0  0  0  0
 23 25  2  0  0  0  0
 23 78  1  0  0  0  0
 24 80  1  0  0  0  0
 25 81  1  0  0  0  0
 26 60  2  0  0  0  0
 27 28  2  0  0  0  0
 27 49  1  0  0  0  0
 27 82  1  0  0  0  0
 28 61  1  0  0  0  0
 28 67  1  0  0  0  0
 29 62  1  0  0  0  0
 29 65  1  0  0  0  0
 30 61  2  0  0  0  0
 30 68  1  0  0  0  0
 30 82  1  0  0  0  0
 31 66  1  0  0  0  0
 31 72  2  0  0  0  0
 32 47  1  0  0  0  0
 32 69  1  0  0  0  0
 32 73  2  0  0  0  0
 33 56  1  0  0  0  0
 33 63  1  0  0  0  0
 33 74  2  0  0  0  0
 34 57  1  0  0  0  0
 34 70  1  0  0  0  0
 34 75  2  0  0  0  0
 35 58  1  0  0  0  0
 35 68  1  0  0  0  0
 35 76  2  0  0  0  0
 36 64  1  0  0  0  0
 36 67  1  0  0  0  0
 36 77  2  0  0  0  0
 37 40  1  0  0  0  0
 38 47  1  0  0  0  0
 39 63  1  0  0  0  0
 40 42  1  0  0  0  0
 41 43  1  0  0  0  0
 41 44  1  0  0  0  0
 42 46  1  0  0  0  0
 43 48  1  0  0  0  0
 44 64  1  0  0  0  0
 45 48  1  0  0  0  0
 45 64  1  0  0  0  0
 46 69  1  0  0  0  0
 47 63  1  0  0  0  0
 48 62  1  0  0  0  0
 50 57  1  0  0  0  0
 51 58  1  0  0  0  0
 52 59  1  0  0  0  0
 53 59  1  0  0  0  0
 54 59  1  0  0  0  0
 55 71  1  0  0  0  0
 56 59  1  0  0  0  0
 56 70  1  0  0  0  0
 57 71  1  0  0  0  0
 58 79  1  0  0  0  0
 60 62  1  0  0  0  0
M  CHG  1  71   1
M  ISO  4  36 100  58 101  67 100  79 101
M  END
> <Batch ID>
0184

> <Smiles>
CNC(C)C(=O)NC(C(=O)N1Cc2cc([101O:1][101CH:1](C)C(=O)Nc3nc([100NH:0][100C:0](=O)N4CCCC(n5nc(-c6ccc(Oc7ccc(F)cc7F)cc6)c(C(N)=O)c5N)C4)c(C)s3)ccc2CC1C(=O)NC1CCCc2ccccc21)C(C)(C)C

> <Shape>
0.284

> <Color>
0.070

> <Negative vol penalty>
0.000

$$$$

  -OEChem-04052305023D

 84 92  0     1  0  0  0  0  0999 V2000
  -23.3590  -19.0367   27.5687 C   0  0  0  0  0  0  0  0  0  0  0  0
  -24.2233  -20.0969   27.3201 C   0  0  0  0  0  0  0  0  0  0  0  0
  -25.1597  -13.4141   22.0731 C   0  0  0  0  0  0  0  0  0  0  0  0
  -26.1425  -13.6107   19.8748 C   0  0  0  0  0  0  0  0  0  0  0  0
  -22.2561  -18.8330   26.7420 C   0  0  0  0  0  0  0  0  0  0  0  0
  -23.9785  -20.9607   26.2520 C   0  0  0  0  0  0  0  0  0  0  0  0
  -27.2477  -25.6345   24.1081 C   0  0  0  0  0  0  0  0  0  0  0  0
  -24.2472  -12.4805   21.5817 C   0  0  0  0  0  0  0  0  0  0  0  0
  -25.2301  -12.6771   19.3834 C   0  0  0  0  0  0  0  0  0  0  0  0
  -28.2387  -25.8434   23.1500 C   0  0  0  0  0  0  0  0  0  0  0  0
  -24.2298   -9.1939   20.7876 C   0  0  0  0  0  0  0  0  0  0  0  0
  -24.0089   -8.0430   21.5441 C   0  0  0  0  0  0  0  0  0  0  0  0
  -26.5540  -26.5296   21.5657 C   0  0  0  0  0  0  0  0  0  0  0  0
  -21.6718   -8.6224   21.7431 C   0  0  0  0  0  0  0  0  0  0  0  0
  -26.1073  -13.9792   21.2197 C   0  0  0  0  0  0  0  0  0  0  0  0
  -28.3215  -14.6849   22.2718 C   0  0  0  0  0  0  0  0  0  0  0  0
  -22.0054  -19.6878   25.6560 C   0  0  0  0  0  0  0  0  0  0  0  0
  -25.8990  -25.8615   23.7983 C   0  0  0  0  0  0  0  0  0  0  0  0
  -22.8575  -20.7860   25.4206 C   0  0  0  0  0  0  0  0  0  0  0  0
  -25.5480  -26.3253   22.5224 C   0  0  0  0  0  0  0  0  0  0  0  0
  -24.2824  -12.1120   20.2369 C   0  0  0  0  0  0  0  0  0  0  0  0
  -27.8917  -26.2882   21.8777 C   0  0  0  0  0  0  0  0  0  0  0  0
  -23.1717  -10.0591   20.5089 C   0  0  0  0  0  0  0  0  0  0  0  0
  -22.7300   -7.7572   22.0218 C   0  0  0  0  0  0  0  0  0  0  0  0
  -21.8927   -9.7733   20.9866 C   0  0  0  0  0  0  0  0  0  0  0  0
  -27.0498  -14.9441   21.7266 C   0  0  0  0  0  0  0  0  0  0  0  0
  -31.1248  -22.1471   17.0831 C   0  0  0  0  0  0  0  0  0  0  0  0
  -30.2916  -23.1849   17.4447 C   0  0  0  0  0  0  0  0  0  0  0  0
  -28.8129  -15.9244   22.6014 C   0  0  0  0  0  0  0  0  0  0  0  0
  -29.5044  -21.6448   18.7932 C   0  0  0  0  0  0  0  0  0  0  0  0
  -28.9982  -13.4354   22.4631 C   0  0  0  0  0  0  0  0  0  0  0  0
  -23.2879  -24.0522   23.6860 C   0  0  0  0  0  0  0  0  0  0  0  0
  -29.6782  -25.8039   18.7689 C   0  0  0  0  0  0  0  0  0  0  0  0
  -21.8166  -26.8916   23.1422 C   0  0  0  0  0  0  0  0  0  0  0  0
  -22.0507  -30.1103   22.0323 C   0  0  0  0  0  0  0  0  0  0  0  0
  -27.7136  -21.4286   20.5518 C   0  0  0  0  0  0  0  0  0  0  0  0
  -20.7928  -19.4258   24.7980 C   0  0  0  0  0  0  0  0  0  0  0  0
  -24.8445  -25.6570   24.8512 C   0  0  0  0  0  0  0  0  0  0  0  0
  -24.1164  -26.6033   22.1458 C   0  0  0  0  0  0  0  0  0  0  0  0
  -20.8639  -20.1181   23.4409 C   0  0  0  0  0  0  0  0  0  0  0  0
  -27.3681  -20.2986   23.9105 C   0  0  0  0  0  0  0  0  0  0  0  0
  -21.2335  -21.5826   23.6232 C   0  0  0  0  0  0  0  0  0  0  0  0
  -27.3691  -18.7736   23.7818 C   0  0  0  0  0  0  0  0  0  0  0  0
  -26.6403  -20.9656   22.7447 C   0  0  0  0  0  0  0  0  0  0  0  0
  -27.1060  -19.0385   21.2823 C   0  0  0  0  0  0  0  0  0  0  0  0
  -22.6283  -21.7203   24.2464 C   0  0  1  0  0  0  0  0  0  0  0  0
  -23.4538  -25.4277   24.2675 C   0  0  1  0  0  0  0  0  0  0  0  0
  -27.8839  -18.3249   22.4000 C   0  0  2  0  0  0  0  0  0  0  0  0
  -32.2158  -22.0988   16.0880 C   0  0  0  0  0  0  0  0  0  0  0  0
  -20.6712  -32.1758   21.6744 C   0  0  0  0  0  0  0  0  0  0  0  0
  -28.0315  -25.1004   16.9692 C   0  0  0  0  0  0  0  0  0  0  0  0
  -29.8458  -26.7772   16.4669 C   0  0  0  0  0  0  0  0  0  0  0  0
  -20.5812  -25.6322   20.6527 C   0  0  0  0  0  0  0  0  0  0  0  0
  -20.0176  -27.9364   19.8518 C   0  0  0  0  0  0  0  0  0  0  0  0
  -19.0244  -27.0773   21.9727 C   0  0  0  0  0  0  0  0  0  0  0  0
  -23.7027  -31.6810   23.9197 C   0  0  0  0  0  0  0  0  0  0  0  0
  -28.4883  -26.2986   19.5756 C   0  0  0  0  0  0  0  0  0  1  0  0
  -21.4740  -27.7003   21.9144 C   0  0  1  0  0  0  0  0  0  0  0  0
  -21.5767  -31.4205   22.6348 C   0  0  2  0  0  0  0  0  0  0  0  0
  -29.4659  -25.5331   17.2707 C   0  0  0  0  0  0  0  0  0  0  0  0
  -20.3012  -27.0795   21.1041 C   0  0  0  0  0  0  0  0  0  0  0  0
  -26.7517  -16.2460   21.7092 N   0  0  0  0  0  0  0  0  0  0  0  0
  -29.3614  -22.8986   18.4249 N   0  0  0  0  0  0  0  0  0  0  0  0
  -27.8432  -16.8159   22.2477 N   0  0  0  0  0  0  0  0  0  0  0  0
  -23.1212  -26.3822   23.2079 N   0  0  0  0  0  0  0  0  0  0  0  0
  -27.1841  -20.4959   21.4685 N   0  0  0  0  0  0  0  0  0  0  0  0
  -29.9754  -16.3278   23.1565 N   0  0  0  0  0  0  0  0  0  0  0  0
  -28.3498  -12.2572   22.0687 N   0  0  0  0  0  0  0  0  0  0  0  0
  -30.3498  -24.4448   16.8846 N   0  0  0  0  0  0  0  0  0  0  0  0
  -28.7599  -20.9391   19.7707 N   0  0  0  0  0  0  0  0  0  0  0  0
  -22.8551  -23.1056   24.5948 N   0  0  0  0  0  0  0  0  0  0  0  0
  -21.2256  -29.0610   22.3781 N   0  0  0  0  0  0  0  0  0  0  0  0
  -22.7411  -32.2900   22.9650 N   0  3  0  0  0  0  0  0  0  0  0  0
  -30.1372  -13.3646   22.9839 O   0  0  0  0  0  0  0  0  0  0  0  0
  -23.5331  -23.8640   22.5001 O   0  0  0  0  0  0  0  0  0  0  0  0
  -30.7809  -25.6583   19.3019 O   0  0  0  0  0  0  0  0  0  0  0  0
  -20.9604  -26.7241   24.0143 O   0  0  0  0  0  0  0  0  0  0  0  0
  -23.0506  -30.0266   21.3226 O   0  0  0  0  0  0  0  0  0  0  0  0
  -27.2895  -22.5852   20.4848 O   0  0  0  0  0  0  0  0  0  0  0  0
  -23.3924  -11.2009   19.7571 O   0  0  0  0  0  0  0  0  0  0  0  0
  -28.8570  -26.4923   20.9405 O   0  0  0  0  0  0  0  0  0  1  0  0
  -22.5177   -6.6512   22.7469 F   0  0  0  0  0  0  0  0  0  0  0  0
  -20.8720  -10.6000   20.7211 F   0  0  0  0  0  0  0  0  0  0  0  0
  -30.7383  -20.7519   18.0025 S   0  0  0  0  0  0  0  0  0  0  0  0
  1  2  1  0  0  0  0
  1  5  2  0  0  0  0
  2  6  2  0  0  0  0
  3  8  2  0  0  0  0
  3 15  1  0  0  0  0
  4  9  1  0  0  0  0
  4 15  2  0  0  0  0
  5 17  1  0  0  0  0
  6 19  1  0  0  0  0
  7 10  2  0  0  0  0
  7 18  1  0  0  0  0
  8 21  1  0  0  0  0
  9 21  2  0  0  0  0
 10 22  1  0  0  0  0
 11 12  2  0  0  0  0
 11 23  1  0  0  0  0
 12 24  1  0  0  0  0
 13 20  1  0  0  0  0
 13 22  2  0  0  0  0
 14 24  2  0  0  0  0
 14 25  1  0  0  0  0
 15 26  1  0  0  0  0
 16 26  1  0  0  0  0
 16 29  2  0  0  0  0
 16 31  1  0  0  0  0
 17 19  2  0  0  0  0
 17 37  1  0  0  0  0
 18 20  2  0  0  0  0
 18 38  1  0  0  0  0
 19 46  1  0  0  0  0
 20 39  1  0  0  0  0
 21 80  1  0  0  0  0
 22 81  1  0  0  0  0
 23 25  2  0  0  0  0
 23 80  1  0  0  0  0
 24 82  1  0  0  0  0
 25 83  1  0  0  0  0
 26 62  2  0  0  0  0
 27 28  2  0  0  0  0
 27 49  1  0  0  0  0
 27 84  1  0  0  0  0
 28 63  1  0  0  0  0
 28 69  1  0  0  0  0
 29 64  1  0  0  0  0
 29 67  1  0  0  0  0
 30 63  2  0  0  0  0
 30 70  1  0  0  0  0
 30 84  1  0  0  0  0
 31 68  1  0  0  0  0
 31 74  2  0  0  0  0
 32 47  1  0  0  0  0
 32 71  1  0  0  0  0
 32 75  2  0  0  0  0
 33 57  1  0  0  0  0
 33 60  1  0  0  0  0
 33 76  2  0  0  0  0
 34 58  1  0  0  0  0
 34 65  1  0  0  0  0
 34 77  2  0  0  0  0
 35 59  1  0  0  0  0
 35 72  1  0  0  0  0
 35 78  2  0  0  0  0
 36 66  1  0  0  0  0
 36 70  1  0  0  0  0
 36 79  2  0  0  0  0
 37 40  1  0  0  0  0
 38 47  1  0  0  0  0
 39 65  1  0  0  0  0
 40 42  1  0  0  0  0
 41 43  1  0  0  0  0
 41 44  1  0  0  0  0
 42 46  1  0  0  0  0
 43 48  1  0  0  0  0
 44 66  1  0  0  0  0
 45 48  1  0  0  0  0
 45 66  1  0  0  0  0
 46 71  1  0  0  0  0
 47 65  1  0  0  0  0
 48 64  1  0  0  0  0
 50 59  1  0  0  0  0
 51 60  1  0  0  0  0
 52 60  1  0  0  0  0
 53 61  1  0  0  0  0
 54 61  1  0  0  0  0
 55 61  1  0  0  0  0
 56 73  1  0  0  0  0
 57 81  1  0  0  0  0
 58 61  1  0  0  0  0
 58 72  1  0  0  0  0
 59 73  1  0  0  0  0
 60 69  1  0  0  0  0
 62 64  1  0  0  0  0
M  CHG  1  73   1
M  ISO  4  36 100  57 101  70 100  81 101
M  END
> <Batch ID>
0184

> <Smiles>
CNC(C)C(=O)NC(C(=O)N1Cc2cc([101O:1][101CH2:1]C(=O)C(C)(C)Nc3nc([100NH:0][100C:0](=O)N4CCCC(n5nc(-c6ccc(Oc7ccc(F)cc7F)cc6)c(C(N)=O)c5N)C4)sc3C)ccc2CC1C(=O)NC1CCCc2ccccc21)C(C)(C)C

> <Shape>
0.221

> <Color>
0.084

> <Negative vol penalty>
0.000

$$$$

  -OEChem-04052305023D

 86 94  0     1  0  0  0  0  0999 V2000
  -17.6583  -26.6395   22.7457 C   0  0  0  0  0  0  0  0  0  0  0  0
  -18.8117  -26.2190   22.0913 C   0  0  0  0  0  0  0  0  0  0  0  0
  -22.5765  -10.2220   20.1380 C   0  0  0  0  0  0  0  0  0  0  0  0
  -24.3835   -9.4520   21.5448 C   0  0  0  0  0  0  0  0  0  0  0  0
  -17.4594  -27.9951   23.0036 C   0  0  0  0  0  0  0  0  0  0  0  0
  -19.7665  -27.1542   21.6935 C   0  0  0  0  0  0  0  0  0  0  0  0
  -24.4910  -25.6888   22.7785 C   0  0  0  0  0  0  0  0  0  0  0  0
  -21.9295   -8.9968   20.2984 C   0  0  0  0  0  0  0  0  0  0  0  0
  -23.7364   -8.2267   21.7052 C   0  0  0  0  0  0  0  0  0  0  0  0
  -25.0744  -24.7448   21.9346 C   0  0  0  0  0  0  0  0  0  0  0  0
  -21.1839   -6.9807   23.5363 C   0  0  0  0  0  0  0  0  0  0  0  0
  -21.1219   -6.4459   24.8230 C   0  0  0  0  0  0  0  0  0  0  0  0
  -26.2751  -26.5058   20.8048 C   0  0  0  0  0  0  0  0  0  0  0  0
  -22.3254   -4.4915   24.0687 C   0  0  0  0  0  0  0  0  0  0  0  0
  -23.8036  -10.4496   20.7612 C   0  0  0  0  0  0  0  0  0  0  0  0
  -24.3348  -12.8614   21.4006 C   0  0  0  0  0  0  0  0  0  0  0  0
  -18.4168  -28.9464   22.6174 C   0  0  0  0  0  0  0  0  0  0  0  0
  -24.7873  -27.0518   22.6346 C   0  0  0  0  0  0  0  0  0  0  0  0
  -19.5797  -28.5240   21.9453 C   0  0  0  0  0  0  0  0  0  0  0  0
  -25.6960  -27.4648   21.6498 C   0  0  0  0  0  0  0  0  0  0  0  0
  -22.5094   -7.9992   21.0820 C   0  0  0  0  0  0  0  0  0  0  0  0
  -25.9644  -25.1535   20.9457 C   0  0  0  0  0  0  0  0  0  0  0  0
  -21.8167   -6.2709   22.5157 C   0  0  0  0  0  0  0  0  0  0  0  0
  -21.6926   -5.2013   25.0893 C   0  0  0  0  0  0  0  0  0  0  0  0
  -22.3875   -5.0263   22.7820 C   0  0  0  0  0  0  0  0  0  0  0  0
  -24.4728  -11.7148   20.5954 C   0  0  0  0  0  0  0  0  0  0  0  0
  -30.8294  -19.0399   19.1862 C   0  0  0  0  0  0  0  0  0  0  0  0
  -30.4421  -18.0306   20.0425 C   0  0  0  0  0  0  0  0  0  0  0  0
  -25.1749  -13.7855   20.8289 C   0  0  0  0  0  0  0  0  0  0  0  0
  -29.1191  -20.0419   20.1246 C   0  0  0  0  0  0  0  0  0  0  0  0
  -23.5203  -13.0722   22.5615 C   0  0  0  0  0  0  0  0  0  0  0  0
  -23.0977  -29.6537   21.9425 C   0  0  0  0  0  0  0  0  0  0  0  0
  -25.8929  -31.1668   22.5903 C   0  0  0  0  0  0  0  0  0  0  0  0
  -27.9317  -22.2565   19.9847 C   0  0  0  0  0  0  0  0  0  0  0  0
  -29.2958  -31.0051   22.7922 C   0  0  0  0  0  0  0  0  0  0  0  0
  -30.0819  -15.1451   18.5445 C   0  0  0  0  0  0  0  0  0  0  0  0
  -18.1357  -30.4055   22.8758 C   0  0  0  0  0  0  0  0  0  0  0  0
  -24.1700  -28.0548   23.5702 C   0  0  0  0  0  0  0  0  0  0  0  0
  -26.0630  -28.9141   21.4671 C   0  0  0  0  0  0  0  0  0  0  0  0
  -19.3708  -31.2944   22.7552 C   0  0  0  0  0  0  0  0  0  0  0  0
  -27.6229  -13.7154   16.4030 C   0  0  0  0  0  0  0  0  0  0  0  0
  -20.1511  -30.9552   21.4891 C   0  0  0  0  0  0  0  0  0  0  0  0
  -26.5766  -13.1569   17.3691 C   0  0  0  0  0  0  0  0  0  0  0  0
  -29.0390  -13.5591   16.9527 C   0  0  0  0  0  0  0  0  0  0  0  0
  -28.1977  -13.5572   19.2692 C   0  0  0  0  0  0  0  0  0  0  0  0
  -20.6501  -29.5056   21.5203 C   0  0  1  0  0  0  0  0  0  0  0  0
  -24.1490  -29.4697   23.0001 C   0  0  1  0  0  0  0  0  0  0  0  0
  -26.7500  -13.7426   18.7833 C   0  0  2  0  0  0  0  0  0  0  0  0
  -31.9645  -18.9916   18.2421 C   0  0  0  0  0  0  0  0  0  0  0  0
  -31.3075  -32.4128   23.3107 C   0  0  0  0  0  0  0  0  0  0  0  0
  -25.6545  -32.5088   19.8604 C   0  0  0  0  0  0  0  0  0  0  0  0
  -28.0756  -33.1237   20.0288 C   0  0  0  0  0  0  0  0  0  0  0  0
  -26.4462  -34.0115   21.6960 C   0  0  0  0  0  0  0  0  0  0  0  0
  -32.6510  -17.2726   22.1486 C   0  0  0  0  0  0  0  0  0  0  0  0
  -30.0623  -29.2770   25.0693 C   0  0  0  0  0  0  0  0  0  0  0  0
  -26.7441  -22.9261   20.6508 C   0  0  0  0  0  0  0  0  0  1  0  0
  -31.0166  -16.6864   20.2503 C   0  0  1  0  0  0  0  0  0  0  0  0
  -27.1020  -31.5713   21.7819 C   0  0  1  0  0  0  0  0  0  0  0  0
  -30.2636  -31.4588   23.8702 C   0  0  2  0  0  0  0  0  0  0  0  0
  -26.8114  -32.7767   20.8437 C   0  0  0  0  0  0  0  0  0  0  0  0
  -31.5064  -16.3886   21.6902 C   0  0  0  0  0  0  0  0  0  0  0  0
  -25.3326  -11.8921   19.5888 N   0  0  0  0  0  0  0  0  0  0  0  0
  -30.0717  -20.1938   19.2315 N   0  0  0  0  0  0  0  0  0  0  0  0
  -25.7425  -13.1608   19.7576 N   0  0  0  0  0  0  0  0  0  0  0  0
  -25.4283  -29.8573   22.4025 N   0  0  0  0  0  0  0  0  0  0  0  0
  -29.1365  -14.1364   18.2956 N   0  0  0  0  0  0  0  0  0  0  0  0
  -25.4759  -15.0634   21.1430 N   0  0  0  0  0  0  0  0  0  0  0  0
  -22.7168  -12.0169   23.0145 N   0  0  0  0  0  0  0  0  0  0  0  0
  -28.1205  -20.9751   20.4912 N   0  0  0  0  0  0  0  0  0  0  0  0
  -21.8122  -29.3894   22.3750 N   0  0  0  0  0  0  0  0  0  0  0  0
  -28.1749  -31.8065   22.7420 N   0  0  0  0  0  0  0  0  0  0  0  0
  -30.1038  -15.6419   19.8420 N   0  0  0  0  0  0  0  0  0  0  0  0
  -30.9676  -30.2858   24.4613 N   0  3  0  0  0  0  0  0  0  0  0  0
  -23.4929  -14.1692   23.1691 O   0  0  0  0  0  0  0  0  0  0  0  0
  -23.4282  -30.0106   20.8177 O   0  0  0  0  0  0  0  0  0  0  0  0
  -25.3839  -31.9804   23.3653 O   0  0  0  0  0  0  0  0  0  0  0  0
  -28.5916  -22.8280   19.1230 O   0  0  0  0  0  0  0  0  0  0  0  0
  -29.5142  -30.0388   22.0648 O   0  0  0  0  0  0  0  0  0  0  0  0
  -30.8458  -15.5750   17.6736 O   0  0  0  0  0  0  0  0  0  0  0  0
  -21.8782   -6.8035   21.2389 O   0  0  0  0  0  0  0  0  0  0  0  0
  -26.5349  -24.2342   20.1202 O   0  0  0  0  0  0  0  0  0  1  0  0
  -21.6343   -4.6885   26.3253 F   0  0  0  0  0  0  0  0  0  0  0  0
  -22.9977   -4.3403   21.8059 F   0  0  0  0  0  0  0  0  0  0  0  0
  -31.9209  -15.0931   21.7787 F   0  0  0  0  0  0  0  0  0  0  0  0
  -30.4762  -16.5148   22.5656 F   0  0  0  0  0  0  0  0  0  0  0  0
  -29.0759  -18.5366   20.9475 S   0  0  0  0  0  0  0  0  0  0  0  0
  1  2  1  0  0  0  0
  1  5  2  0  0  0  0
  2  6  2  0  0  0  0
  3  8  2  0  0  0  0
  3 15  1  0  0  0  0
  4  9  1  0  0  0  0
  4 15  2  0  0  0  0
  5 17  1  0  0  0  0
  6 19  1  0  0  0  0
  7 10  2  0  0  0  0
  7 18  1  0  0  0  0
  8 21  1  0  0  0  0
  9 21  2  0  0  0  0
 10 22  1  0  0  0  0
 11 12  2  0  0  0  0
 11 23  1  0  0  0  0
 12 24  1  0  0  0  0
 13 20  1  0  0  0  0
 13 22  2  0  0  0  0
 14 24  2  0  0  0  0
 14 25  1  0  0  0  0
 15 26  1  0  0  0  0
 16 26  1  0  0  0  0
 16 29  2  0  0  0  0
 16 31  1  0  0  0  0
 17 19  2  0  0  0  0
 17 37  1  0  0  0  0
 18 20  2  0  0  0  0
 18 38  1  0  0  0  0
 19 46  1  0  0  0  0
 20 39  1  0  0  0  0
 21 80  1  0  0  0  0
 22 81  1  0  0  0  0
 23 25  2  0  0  0  0
 23 80  1  0  0  0  0
 24 82  1  0  0  0  0
 25 83  1  0  0  0  0
 26 62  2  0  0  0  0
 27 28  2  0  0  0  0
 27 49  1  0  0  0  0
 27 63  1  0  0  0  0
 28 57  1  0  0  0  0
 28 86  1  0  0  0  0
 29 64  1  0  0  0  0
 29 67  1  0  0  0  0
 30 63  2  0  0  0  0
 30 69  1  0  0  0  0
 30 86  1  0  0  0  0
 31 68  1  0  0  0  0
 31 74  2  0  0  0  0
 32 47  1  0  0  0  0
 32 70  1  0  0  0  0
 32 75  2  0  0  0  0
 33 58  1  0  0  0  0
 33 65  1  0  0  0  0
 33 76  2  0  0  0  0
 34 56  1  0  0  0  0
 34 69  1  0  0  0  0
 34 77  2  0  0  0  0
 35 59  1  0  0  0  0
 35 71  1  0  0  0  0
 35 78  2  0  0  0  0
 36 66  1  0  0  0  0
 36 72  1  0  0  0  0
 36 79  2  0  0  0  0
 37 40  1  0  0  0  0
 38 47  1  0  0  0  0
 39 65  1  0  0  0  0
 40 42  1  0  0  0  0
 41 43  1  0  0  0  0
 41 44  1  0  0  0  0
 42 46  1  0  0  0  0
 43 48  1  0  0  0  0
 44 66  1  0  0  0  0
 45 48  1  0  0  0  0
 45 66  1  0  0  0  0
 46 70  1  0  0  0  0
 47 65  1  0  0  0  0
 48 64  1  0  0  0  0
 50 59  1  0  0  0  0
 51 60  1  0  0  0  0
 52 60  1  0  0  0  0
 53 60  1  0  0  0  0
 54 61  1  0  0  0  0
 55 73  1  0  0  0  0
 56 81  1  0  0  0  0
 57 61  1  0  0  0  0
 57 72  1  0  0  0  0
 58 60  1  0  0  0  0
 58 71  1  0  0  0  0
 59 73  1  0  0  0  0
 61 84  1  0  0  0  0
 61 85  1  0  0  0  0
 62 64  1  0  0  0  0
M  CHG  1  73   1
M  ISO  4  36 100  56 101  72 100  81 101
M  END
> <Batch ID>
0184

> <Smiles>
CNC(C)C(=O)NC(C(=O)N1Cc2cc([101O:1][101CH2:1]C(=O)Nc3nc(C)c(C([100NH:0][100C:0](=O)N4CCCC(n5nc(-c6ccc(Oc7ccc(F)cc7F)cc6)c(C(N)=O)c5N)C4)C(C)(F)F)s3)ccc2CC1C(=O)NC1CCCc2ccccc21)C(C)(C)C

> <Shape>
0.336

> <Color>
0.153

> <Negative vol penalty>
0.000

$$$$

  -OEChem-04052305023D

 87 95  0     1  0  0  0  0  0999 V2000
  -25.2200  -18.6714   25.6285 C   0  0  0  0  0  0  0  0  0  0  0  0
  -25.9168  -19.8737   25.5849 C   0  0  0  0  0  0  0  0  0  0  0  0
  -27.4611  -11.7389   20.8952 C   0  0  0  0  0  0  0  0  0  0  0  0
  -26.9177  -13.0651   18.9503 C   0  0  0  0  0  0  0  0  0  0  0  0
  -24.1272  -18.4727   24.7873 C   0  0  0  0  0  0  0  0  0  0  0  0
  -25.5138  -20.8821   24.7087 C   0  0  0  0  0  0  0  0  0  0  0  0
  -28.0115  -26.3054   23.4934 C   0  0  0  0  0  0  0  0  0  0  0  0
  -26.4468  -10.8400   20.5657 C   0  0  0  0  0  0  0  0  0  0  0  0
  -25.9034  -12.1662   18.6207 C   0  0  0  0  0  0  0  0  0  0  0  0
  -28.9274  -26.8365   22.5863 C   0  0  0  0  0  0  0  0  0  0  0  0
  -23.7637   -8.3890   20.4329 C   0  0  0  0  0  0  0  0  0  0  0  0
  -22.9220   -7.9547   21.4569 C   0  0  0  0  0  0  0  0  0  0  0  0
  -27.1058  -27.5627   21.1815 C   0  0  0  0  0  0  0  0  0  0  0  0
  -22.2382  -10.2362   21.8624 C   0  0  0  0  0  0  0  0  0  0  0  0
  -27.6966  -12.8515   20.0876 C   0  0  0  0  0  0  0  0  0  0  0  0
  -30.0898  -13.7319   20.0182 C   0  0  0  0  0  0  0  0  0  0  0  0
  -23.7189  -19.4749   23.8919 C   0  0  0  0  0  0  0  0  0  0  0  0
  -26.6338  -26.3895   23.2456 C   0  0  0  0  0  0  0  0  0  0  0  0
  -24.3987  -20.7097   23.8688 C   0  0  0  0  0  0  0  0  0  0  0  0
  -26.1744  -27.0342   22.0882 C   0  0  0  0  0  0  0  0  0  0  0  0
  -25.6679  -11.0536   19.4284 C   0  0  0  0  0  0  0  0  0  0  0  0
  -28.4747  -27.4627   21.4288 C   0  0  0  0  0  0  0  0  0  0  0  0
  -23.8427   -9.7470   20.1237 C   0  0  0  0  0  0  0  0  0  0  0  0
  -22.1592   -8.8783   22.1716 C   0  0  0  0  0  0  0  0  0  0  0  0
  -23.0799  -10.6705   20.8385 C   0  0  0  0  0  0  0  0  0  0  0  0
  -28.7439  -13.7808   20.4278 C   0  0  0  0  0  0  0  0  0  0  0  0
  -28.3556  -21.4870   18.9064 C   0  0  0  0  0  0  0  0  0  0  0  0
  -30.6675  -14.8311   20.6053 C   0  0  0  0  0  0  0  0  0  0  0  0
  -28.5753  -21.2605   20.2490 C   0  0  0  0  0  0  0  0  0  0  0  0
  -29.4758  -23.3146   19.3701 C   0  0  0  0  0  0  0  0  0  0  0  0
  -30.7582  -12.7783   19.1818 C   0  0  0  0  0  0  0  0  0  0  0  0
  -24.3011  -24.2760   22.8035 C   0  0  0  0  0  0  0  0  0  0  0  0
  -22.4257  -26.9226   22.8387 C   0  0  0  0  0  0  0  0  0  0  0  0
  -30.2952  -25.3740   18.1735 C   0  0  0  0  0  0  0  0  0  0  0  0
  -22.1635  -30.2939   22.3785 C   0  0  0  0  0  0  0  0  0  0  0  0
  -28.4969  -20.0763   22.4711 C   0  0  0  0  0  0  0  0  0  0  0  0
  -22.5246  -19.2097   23.0096 C   0  0  0  0  0  0  0  0  0  0  0  0
  -25.6580  -25.8352   24.2471 C   0  0  0  0  0  0  0  0  0  0  0  0
  -24.7051  -27.1686   21.7856 C   0  0  0  0  0  0  0  0  0  0  0  0
  -22.4477  -20.1532   21.8137 C   0  0  0  0  0  0  0  0  0  0  0  0
  -30.2582  -17.6821   24.4313 C   0  0  0  0  0  0  0  0  0  0  0  0
  -22.6138  -21.5930   22.2761 C   0  0  0  0  0  0  0  0  0  0  0  0
  -30.1975  -16.4071   23.5871 C   0  0  0  0  0  0  0  0  0  0  0  0
  -28.9677  -18.4930   24.3275 C   0  0  0  0  0  0  0  0  0  0  0  0
  -28.4778  -17.5292   22.1139 C   0  0  0  0  0  0  0  0  0  0  0  0
  -23.9974  -21.8093   22.9022 C   0  0  1  0  0  0  0  0  0  0  0  0
  -24.2929  -25.5231   23.6416 C   0  0  1  0  0  0  0  0  0  0  0  0
  -29.7798  -16.7119   22.1351 C   0  0  2  0  0  0  0  0  0  0  0  0
  -32.3999  -26.7083   17.7439 C   0  0  0  0  0  0  0  0  0  0  0  0
  -20.4948  -32.1671   22.4436 C   0  0  0  0  0  0  0  0  0  0  0  0
  -21.2894  -26.0001   20.1615 C   0  0  0  0  0  0  0  0  0  0  0  0
  -20.3780  -28.3086   19.8320 C   0  0  0  0  0  0  0  0  0  0  0  0
  -19.5942  -26.9224   21.7521 C   0  0  0  0  0  0  0  0  0  0  0  0
  -23.6461  -31.6950   24.5227 C   0  0  0  0  0  0  0  0  0  0  0  0
  -30.2209  -27.9096   18.2854 C   0  0  0  0  0  0  0  0  0  0  0  0
  -28.9790  -28.0026   19.1682 C   0  0  0  0  0  0  0  0  0  1  0  0
  -21.9279  -27.8940   21.7960 C   0  0  1  0  0  0  0  0  0  0  0  0
  -31.0770  -26.6511   18.5076 C   0  0  1  0  0  0  0  0  0  0  0  0
  -21.5322  -31.3807   23.2299 C   0  0  2  0  0  0  0  0  0  0  0  0
  -27.6295  -20.5926   17.9814 C   0  0  0  0  0  0  0  0  0  0  0  0
  -20.8252  -27.2772   20.8899 C   0  0  0  0  0  0  0  0  0  0  0  0
  -28.4820  -14.8280   21.2145 N   0  0  0  0  0  0  0  0  0  0  0  0
  -28.8709  -22.6646   18.4008 N   0  0  0  0  0  0  0  0  0  0  0  0
  -29.6713  -15.4473   21.3039 N   0  0  0  0  0  0  0  0  0  0  0  0
  -23.7906  -26.6051   22.7923 N   0  0  0  0  0  0  0  0  0  0  0  0
  -28.6370  -18.7473   22.9237 N   0  0  0  0  0  0  0  0  0  0  0  0
  -31.9254  -15.3209   20.5870 N   0  0  0  0  0  0  0  0  0  0  0  0
  -30.0155  -11.7097   18.6615 N   0  0  0  0  0  0  0  0  0  0  0  0
  -28.2141  -20.1954   21.1108 N   0  0  0  0  0  0  0  0  0  0  0  0
  -30.1389  -24.5625   19.2933 N   0  0  0  0  0  0  0  0  0  0  0  0
  -24.0395  -23.1196   23.5132 N   0  0  0  0  0  0  0  0  0  0  0  0
  -21.5075  -29.0893   22.5192 N   0  0  0  0  0  0  0  0  0  0  0  0
  -22.5740  -32.3301   23.7140 N   0  3  0  0  0  0  0  0  0  0  0  0
  -31.9815  -12.8620   18.9174 O   0  0  0  0  0  0  0  0  0  0  0  0
  -24.5266  -24.3572   21.6018 O   0  0  0  0  0  0  0  0  0  0  0  0
  -21.6343  -26.4679   23.6685 O   0  0  0  0  0  0  0  0  0  0  0  0
  -29.8826  -25.1530   17.0384 O   0  0  0  0  0  0  0  0  0  0  0  0
  -23.1385  -30.4946   21.6576 O   0  0  0  0  0  0  0  0  0  0  0  0
  -28.6456  -21.0388   23.2283 O   0  0  0  0  0  0  0  0  0  0  0  0
  -24.6782  -10.1765   19.1063 O   0  0  0  0  0  0  0  0  0  0  0  0
  -29.3666  -27.9814   20.5414 O   0  0  0  0  0  0  0  0  0  1  0  0
  -21.3498   -8.4609   23.1539 F   0  0  0  0  0  0  0  0  0  0  0  0
  -23.1507  -11.9762   20.5452 F   0  0  0  0  0  0  0  0  0  0  0  0
  -27.1524  -19.4474   18.5665 F   0  0  0  0  0  0  0  0  0  0  0  0
  -26.5278  -21.1644   17.3978 F   0  0  0  0  0  0  0  0  0  0  0  0
  -28.3998  -20.1598   16.9340 F   0  0  0  0  0  0  0  0  0  0  0  0
  -29.4637  -22.5676   20.9151 S   0  0  0  0  0  0  0  0  0  0  0  0
  1  2  1  0  0  0  0
  1  5  2  0  0  0  0
  2  6  2  0  0  0  0
  3  8  2  0  0  0  0
  3 15  1  0  0  0  0
  4  9  1  0  0  0  0
  4 15  2  0  0  0  0
  5 17  1  0  0  0  0
  6 19  1  0  0  0  0
  7 10  2  0  0  0  0
  7 18  1  0  0  0  0
  8 21  1  0  0  0  0
  9 21  2  0  0  0  0
 10 22  1  0  0  0  0
 11 12  2  0  0  0  0
 11 23  1  0  0  0  0
 12 24  1  0  0  0  0
 13 20  1  0  0  0  0
 13 22  2  0  0  0  0
 14 24  2  0  0  0  0
 14 25  1  0  0  0  0
 15 26  1  0  0  0  0
 16 26  1  0  0  0  0
 16 28  2  0  0  0  0
 16 31  1  0  0  0  0
 17 19  2  0  0  0  0
 17 37  1  0  0  0  0
 18 20  2  0  0  0  0
 18 38  1  0  0  0  0
 19 46  1  0  0  0  0
 20 39  1  0  0  0  0
 21 80  1  0  0  0  0
 22 81  1  0  0  0  0
 23 25  2  0  0  0  0
 23 80  1  0  0  0  0
 24 82  1  0  0  0  0
 25 83  1  0  0  0  0
 26 62  2  0  0  0  0
 27 29  2  0  0  0  0
 27 60  1  0  0  0  0
 27 63  1  0  0  0  0
 28 64  1  0  0  0  0
 28 67  1  0  0  0  0
 29 69  1  0  0  0  0
 29 87  1  0  0  0  0
 30 63  2  0  0  0  0
 30 70  1  0  0  0  0
 30 87  1  0  0  0  0
 31 68  1  0  0  0  0
 31 74  2  0  0  0  0
 32 47  1  0  0  0  0
 32 71  1  0  0  0  0
 32 75  2  0  0  0  0
 33 57  1  0  0  0  0
 33 65  1  0  0  0  0
 33 76  2  0  0  0  0
 34 58  1  0  0  0  0
 34 70  1  0  0  0  0
 34 77  2  0  0  0  0
 35 59  1  0  0  0  0
 35 72  1  0  0  0  0
 35 78  2  0  0  0  0
 36 66  1  0  0  0  0
 36 69  1  0  0  0  0
 36 79  2  0  0  0  0
 37 40  1  0  0  0  0
 38 47  1  0  0  0  0
 39 65  1  0  0  0  0
 40 42  1  0  0  0  0
 41 43  1  0  0  0  0
 41 44  1  0  0  0  0
 42 46  1  0  0  0  0
 43 48  1  0  0  0  0
 44 66  1  0  0  0  0
 45 48  1  0  0  0  0
 45 66  1  0  0  0  0
 46 71  1  0  0  0  0
 47 65  1  0  0  0  0
 48 64  1  0  0  0  0
 49 58  1  0  0  0  0
 50 59  1  0  0  0  0
 51 61  1  0  0  0  0
 52 61  1  0  0  0  0
 53 61  1  0  0  0  0
 54 73  1  0  0  0  0
 55 56  1  0  0  0  0
 55 58  1  0  0  0  0
 56 81  1  0  0  0  0
 57 61  1  0  0  0  0
 57 72  1  0  0  0  0
 59 73  1  0  0  0  0
 60 84  1  0  0  0  0
 60 85  1  0  0  0  0
 60 86  1  0  0  0  0
 62 64  1  0  0  0  0
M  CHG  1  73   1
M  ISO  4  36 100  56 101  69 100  81 101
M  END
> <Batch ID>
0184

> <Smiles>
CNC(C)C(=O)NC(C(=O)N1Cc2cc([101O:1][101CH2:1]CC(C)C(=O)Nc3nc(C(F)(F)F)c([100NH:0][100C:0](=O)N4CCCC(n5nc(-c6ccc(Oc7ccc(F)cc7F)cc6)c(C(N)=O)c5N)C4)s3)ccc2CC1C(=O)NC1CCCc2ccccc21)C(C)(C)C

> <Shape>
0.257

> <Color>
0.059

> <Negative vol penalty>
0.000

$$$$

  -OEChem-04052305023D

 84 92  0     1  0  0  0  0  0999 V2000
  -18.7269  -33.4597   24.2858 C   0  0  0  0  0  0  0  0  0  0  0  0
  -20.0508  -33.5231   23.8630 C   0  0  0  0  0  0  0  0  0  0  0  0
  -21.4155  -14.6971   19.9224 C   0  0  0  0  0  0  0  0  0  0  0  0
  -22.7024  -14.3286   21.9337 C   0  0  0  0  0  0  0  0  0  0  0  0
  -18.1558  -32.2279   24.6026 C   0  0  0  0  0  0  0  0  0  0  0  0
  -20.8047  -32.3548   23.7579 C   0  0  0  0  0  0  0  0  0  0  0  0
  -26.0583  -29.4321   19.8624 C   0  0  0  0  0  0  0  0  0  0  0  0
  -21.0769  -13.3444   19.8912 C   0  0  0  0  0  0  0  0  0  0  0  0
  -22.3637  -12.9758   21.9025 C   0  0  0  0  0  0  0  0  0  0  0  0
  -27.2960  -28.8096   20.0181 C   0  0  0  0  0  0  0  0  0  0  0  0
  -23.3381  -10.2016   20.2337 C   0  0  0  0  0  0  0  0  0  0  0  0
  -24.3544   -9.2737   20.4611 C   0  0  0  0  0  0  0  0  0  0  0  0
  -26.1805  -26.7295   20.5161 C   0  0  0  0  0  0  0  0  0  0  0  0
  -23.1526   -8.4273   22.3785 C   0  0  0  0  0  0  0  0  0  0  0  0
  -29.7923  -20.6836   24.2471 C   0  0  0  0  0  0  0  0  0  0  0  0
  -22.2283  -15.1892   20.9437 C   0  0  0  0  0  0  0  0  0  0  0  0
  -21.8760  -17.6246   21.6164 C   0  0  0  0  0  0  0  0  0  0  0  0
  -18.9002  -31.0428   24.4921 C   0  0  0  0  0  0  0  0  0  0  0  0
  -24.8703  -28.7094   20.0434 C   0  0  0  0  0  0  0  0  0  0  0  0
  -20.2434  -31.1061   24.0749 C   0  0  0  0  0  0  0  0  0  0  0  0
  -24.9289  -27.3446   20.3596 C   0  0  0  0  0  0  0  0  0  0  0  0
  -21.5509  -12.4837   20.8813 C   0  0  0  0  0  0  0  0  0  0  0  0
  -27.3573  -27.4588   20.3478 C   0  0  0  0  0  0  0  0  0  0  0  0
  -22.2290  -10.2424   21.0788 C   0  0  0  0  0  0  0  0  0  0  0  0
  -24.2617   -8.3865   21.5335 C   0  0  0  0  0  0  0  0  0  0  0  0
  -22.1363   -9.3553   22.1511 C   0  0  0  0  0  0  0  0  0  0  0  0
  -22.5789  -16.5864   20.9762 C   0  0  0  0  0  0  0  0  0  0  0  0
  -29.6856  -20.5967   22.8749 C   0  0  0  0  0  0  0  0  0  0  0  0
  -22.6137  -18.7526   21.3521 C   0  0  0  0  0  0  0  0  0  0  0  0
  -29.4264  -22.7639   23.0891 C   0  0  0  0  0  0  0  0  0  0  0  0
  -20.6646  -17.5738   22.3816 C   0  0  0  0  0  0  0  0  0  0  0  0
  -22.4082  -28.9053   22.0443 C   0  0  0  0  0  0  0  0  0  0  0  0
  -21.1901  -26.5644   20.1578 C   0  0  0  0  0  0  0  0  0  0  0  0
  -21.7711  -24.0112   17.9691 C   0  0  0  0  0  0  0  0  0  0  0  0
  -29.0422  -24.7671   21.6132 C   0  0  0  0  0  0  0  0  0  0  0  0
  -28.3891  -19.6331   20.0406 C   0  0  0  0  0  0  0  0  0  0  0  0
  -18.2540  -29.7398   24.8910 C   0  0  0  0  0  0  0  0  0  0  0  0
  -23.5431  -29.3891   19.8457 C   0  0  0  0  0  0  0  0  0  0  0  0
  -23.6828  -26.5192   20.5449 C   0  0  0  0  0  0  0  0  0  0  0  0
  -19.0077  -28.5088   24.3940 C   0  0  0  0  0  0  0  0  0  0  0  0
  -25.5772  -20.6087   18.0867 C   0  0  0  0  0  0  0  0  0  0  0  0
  -20.5016  -28.6510   24.6677 C   0  0  0  0  0  0  0  0  0  0  0  0
  -24.4265  -19.7822   18.6634 C   0  0  0  0  0  0  0  0  0  0  0  0
  -26.8875  -19.8243   18.0798 C   0  0  0  0  0  0  0  0  0  0  0  0
  -26.1233  -18.4264   19.9601 C   0  0  0  0  0  0  0  0  0  0  0  0
  -21.0862  -29.8582   23.9245 C   0  0  1  0  0  0  0  0  0  0  0  0
  -22.3963  -28.6795   20.5588 C   0  0  1  0  0  0  0  0  0  0  0  0
  -24.7929  -19.1945   20.0395 C   0  0  2  0  0  0  0  0  0  0  0  0
  -20.5793  -22.2577   16.6266 C   0  0  0  0  0  0  0  0  0  0  0  0
  -20.7679  -24.9159   22.6904 C   0  0  0  0  0  0  0  0  0  0  0  0
  -20.4896  -22.8920   21.2430 C   0  0  0  0  0  0  0  0  0  0  0  0
  -18.8905  -24.7960   21.0426 C   0  0  0  0  0  0  0  0  0  0  0  0
  -22.7759  -25.1182   15.4149 C   0  0  0  0  0  0  0  0  0  0  0  0
  -29.7761  -19.3559   22.0799 C   0  0  0  0  0  0  0  0  0  0  0  0
  -21.2441  -25.0557   20.1567 C   0  0  1  0  0  0  0  0  0  0  0  0
  -21.1432  -23.6700   16.6297 C   0  0  2  0  0  0  0  0  0  0  0  0
  -28.8426  -26.2710   21.7756 C   0  0  1  0  0  0  0  0  0  1  0  0
  -30.0667  -26.9395   22.3741 C   0  0  0  0  0  0  0  0  0  0  0  0
  -20.3717  -24.4306   21.2817 C   0  0  0  0  0  0  0  0  0  0  0  0
  -23.6786  -17.0167   20.3520 N   0  0  0  0  0  0  0  0  0  0  0  0
  -29.4753  -21.7885   22.2092 N   0  0  0  0  0  0  0  0  0  0  0  0
  -23.6722  -18.3377   20.5987 N   0  0  0  0  0  0  0  0  0  0  0  0
  -22.4092  -27.2307   20.3470 N   0  0  0  0  0  0  0  0  0  0  0  0
  -27.1778  -19.2955   19.4147 N   0  0  0  0  0  0  0  0  0  0  0  0
  -22.4536  -20.0490   21.6929 N   0  0  0  0  0  0  0  0  0  0  0  0
  -20.0358  -16.3334   22.5557 N   0  0  0  0  0  0  0  0  0  0  0  0
  -29.2283  -24.1433   22.8425 N   0  0  0  0  0  0  0  0  0  0  0  0
  -21.2813  -29.5443   22.5252 N   0  0  0  0  0  0  0  0  0  0  0  0
  -20.8737  -24.6350   18.8098 N   0  0  0  0  0  0  0  0  0  0  0  0
  -28.5824  -19.0947   21.3069 N   0  0  0  0  0  0  0  0  0  0  0  0
  -22.1560  -23.7741   15.5414 N   0  3  0  0  0  0  0  0  0  0  0  0
  -20.1460  -18.6006   22.8819 O   0  0  0  0  0  0  0  0  0  0  0  0
  -23.3679  -28.5264   22.7053 O   0  0  0  0  0  0  0  0  0  0  0  0
  -20.1073  -27.1308   19.9896 O   0  0  0  0  0  0  0  0  0  0  0  0
  -22.9397  -23.7471   18.2435 O   0  0  0  0  0  0  0  0  0  0  0  0
  -29.0144  -24.2372   20.5062 O   0  0  0  0  0  0  0  0  0  0  0  0
  -29.2333  -20.3647   19.5125 O   0  0  0  0  0  0  0  0  0  0  0  0
  -21.2205  -11.1637   20.8512 O   0  0  0  0  0  0  0  0  0  0  0  0
  -28.5641  -26.8489   20.5009 O   0  0  0  0  0  0  0  0  0  1  0  0
  -25.2370   -7.4945   21.7508 F   0  0  0  0  0  0  0  0  0  0  0  0
  -21.0728   -9.3889   22.9657 F   0  0  0  0  0  0  0  0  0  0  0  0
  -29.8507  -28.2758   22.4709 F   0  0  0  0  0  0  0  0  0  0  0  0
  -31.1336  -26.7754   21.5519 F   0  0  0  0  0  0  0  0  0  0  0  0
  -29.6261  -22.3195   24.7346 S   0  0  0  0  0  0  0  0  0  0  0  0
  1  2  1  0  0  0  0
  1  5  2  0  0  0  0
  2  6  2  0  0  0  0
  3  8  2  0  0  0  0
  3 16  1  0  0  0  0
  4  9  1  0  0  0  0
  4 16  2  0  0  0  0
  5 18  1  0  0  0  0
  6 20  1  0  0  0  0
  7 10  2  0  0  0  0
  7 19  1  0  0  0  0
  8 22  1  0  0  0  0
  9 22  2  0  0  0  0
 10 23  1  0  0  0  0
 11 12  2  0  0  0  0
 11 24  1  0  0  0  0
 12 25  1  0  0  0  0
 13 21  1  0  0  0  0
 13 23  2  0  0  0  0
 14 25  2  0  0  0  0
 14 26  1  0  0  0  0
 15 28  2  0  0  0  0
 15 84  1  0  0  0  0
 16 27  1  0  0  0  0
 17 27  1  0  0  0  0
 17 29  2  0  0  0  0
 17 31  1  0  0  0  0
 18 20  2  0  0  0  0
 18 37  1  0  0  0  0
 19 21  2  0  0  0  0
 19 38  1  0  0  0  0
 20 46  1  0  0  0  0
 21 39  1  0  0  0  0
 22 78  1  0  0  0  0
 23 79  1  0  0  0  0
 24 26  2  0  0  0  0
 24 78  1  0  0  0  0
 25 80  1  0  0  0  0
 26 81  1  0  0  0  0
 27 60  2  0  0  0  0
 28 54  1  0  0  0  0
 28 61  1  0  0  0  0
 29 62  1  0  0  0  0
 29 65  1  0  0  0  0
 30 61  2  0  0  0  0
 30 67  1  0  0  0  0
 30 84  1  0  0  0  0
 31 66  1  0  0  0  0
 31 72  2  0  0  0  0
 32 47  1  0  0  0  0
 32 68  1  0  0  0  0
 32 73  2  0  0  0  0
 33 55  1  0  0  0  0
 33 63  1  0  0  0  0
 33 74  2  0  0  0  0
 34 56  1  0  0  0  0
 34 69  1  0  0  0  0
 34 75  2  0  0  0  0
 35 57  1  0  0  0  0
 35 67  1  0  0  0  0
 35 76  2  0  0  0  0
 36 64  1  0  0  0  0
 36 70  1  0  0  0  0
 36 77  2  0  0  0  0
 37 40  1  0  0  0  0
 38 47  1  0  0  0  0
 39 63  1  0  0  0  0
 40 42  1  0  0  0  0
 41 43  1  0  0  0  0
 41 44  1  0  0  0  0
 42 46  1  0  0  0  0
 43 48  1  0  0  0  0
 44 64  1  0  0  0  0
 45 48  1  0  0  0  0
 45 64  1  0  0  0  0
 46 68  1  0  0  0  0
 47 63  1  0  0  0  0
 48 62  1  0  0  0  0
 49 56  1  0  0  0  0
 50 59  1  0  0  0  0
 51 59  1  0  0  0  0
 52 59  1  0  0  0  0
 53 71  1  0  0  0  0
 54 70  1  0  0  0  0
 55 59  1  0  0  0  0
 55 69  1  0  0  0  0
 56 71  1  0  0  0  0
 57 58  1  0  0  0  0
 57 79  1  0  0  0  0
 58 82  1  0  0  0  0
 58 83  1  0  0  0  0
 60 62  1  0  0  0  0
M  CHG  1  71   1
M  ISO  4  36 100  57 101  70 100  79 101
M  END
> <Batch ID>
0184

> <Smiles>
CNC(C)C(=O)NC(C(=O)N1Cc2cc([101O:1][101CH:1](C(=O)Nc3nc(C[100NH:0][100C:0](=O)N4CCCC(n5nc(-c6ccc(Oc7ccc(F)cc7F)cc6)c(C(N)=O)c5N)C4)cs3)C(F)F)ccc2CC1C(=O)NC1CCCc2ccccc21)C(C)(C)C

> <Shape>
0.191

> <Color>
0.099

> <Negative vol penalty>
0.000

$$$$

  -OEChem-04052305023D

 85 93  0     1  0  0  0  0  0999 V2000
  -30.4744  -21.3903   16.6069 C   0  0  0  0  0  0  0  0  0  0  0  0
  -29.9440  -21.4631   17.8910 C   0  0  0  0  0  0  0  0  0  0  0  0
  -22.6098  -11.9906   18.9122 C   0  0  0  0  0  0  0  0  0  0  0  0
  -22.9581   -9.9125   20.0943 C   0  0  0  0  0  0  0  0  0  0  0  0
  -30.8574  -22.5560   15.9450 C   0  0  0  0  0  0  0  0  0  0  0  0
  -29.7974  -22.7018   18.5143 C   0  0  0  0  0  0  0  0  0  0  0  0
  -25.3079  -23.2060   20.8023 C   0  0  0  0  0  0  0  0  0  0  0  0
  -21.5106  -11.4343   18.2582 C   0  0  0  0  0  0  0  0  0  0  0  0
  -21.8587   -9.3562   19.4404 C   0  0  0  0  0  0  0  0  0  0  0  0
  -25.1470  -22.5748   22.0349 C   0  0  0  0  0  0  0  0  0  0  0  0
  -18.4912   -9.4600   19.7038 C   0  0  0  0  0  0  0  0  0  0  0  0
  -17.5842   -8.7292   20.4711 C   0  0  0  0  0  0  0  0  0  0  0  0
  -25.5380  -24.6754   23.1548 C   0  0  0  0  0  0  0  0  0  0  0  0
  -29.6360  -20.0325   22.8665 C   0  0  0  0  0  0  0  0  0  0  0  0
  -18.0175   -6.7733   19.1206 C   0  0  0  0  0  0  0  0  0  0  0  0
  -23.3337  -11.2296   19.8303 C   0  0  0  0  0  0  0  0  0  0  0  0
  -24.4688  -12.4992   21.7296 C   0  0  0  0  0  0  0  0  0  0  0  0
  -30.7064  -23.8105   16.5567 C   0  0  0  0  0  0  0  0  0  0  0  0
  -25.5963  -24.5768   20.7368 C   0  0  0  0  0  0  0  0  0  0  0  0
  -30.1800  -23.8854   17.8604 C   0  0  0  0  0  0  0  0  0  0  0  0
  -25.6996  -25.3221   21.9200 C   0  0  0  0  0  0  0  0  0  0  0  0
  -30.5819  -19.1937   22.2094 C   0  0  0  0  0  0  0  0  0  0  0  0
  -21.1350  -10.1172   18.5223 C   0  0  0  0  0  0  0  0  0  0  0  0
  -25.2649  -23.3089   23.2115 C   0  0  0  0  0  0  0  0  0  0  0  0
  -19.1614   -8.8475   18.6448 C   0  0  0  0  0  0  0  0  0  0  0  0
  -17.3473   -7.3859   20.1795 C   0  0  0  0  0  0  0  0  0  0  0  0
  -18.9245   -7.5042   18.3532 C   0  0  0  0  0  0  0  0  0  0  0  0
  -24.4697  -11.8034   20.5058 C   0  0  0  0  0  0  0  0  0  0  0  0
  -30.0060  -18.0347   21.7378 C   0  0  0  0  0  0  0  0  0  0  0  0
  -25.7846  -12.8353   21.9344 C   0  0  0  0  0  0  0  0  0  0  0  0
  -28.3728  -19.4826   22.8718 C   0  0  0  0  0  0  0  0  0  0  0  0
  -30.6268  -16.9142   21.0091 C   0  0  0  0  0  0  0  0  0  0  0  0
  -23.3761  -12.8136   22.6031 C   0  0  0  0  0  0  0  0  0  0  0  0
  -28.0168  -26.3089   19.6211 C   0  0  0  0  0  0  0  0  0  0  0  0
  -26.0688  -28.7950   20.3608 C   0  0  0  0  0  0  0  0  0  0  0  0
  -23.4710  -29.9844   22.2271 C   0  0  0  0  0  0  0  0  0  0  0  0
  -26.9388  -21.1665   24.0737 C   0  0  0  0  0  0  0  0  0  0  0  0
  -30.5904  -14.8698   19.9553 C   0  0  0  0  0  0  0  0  0  0  0  0
  -31.1785  -25.0389   15.8200 C   0  0  0  0  0  0  0  0  0  0  0  0
  -25.7405  -25.2482   19.3986 C   0  0  0  0  0  0  0  0  0  0  0  0
  -25.9881  -26.8003   21.9035 C   0  0  0  0  0  0  0  0  0  0  0  0
  -30.6423  -26.3432   16.4044 C   0  0  0  0  0  0  0  0  0  0  0  0
  -29.9863  -11.3360   19.5653 C   0  0  0  0  0  0  0  0  0  0  0  0
  -30.7909  -26.3489   17.9226 C   0  0  0  0  0  0  0  0  0  0  0  0
  -28.4885  -11.2074   19.8420 C   0  0  0  0  0  0  0  0  0  0  0  0
  -30.3144  -12.6469   18.8571 C   0  0  0  0  0  0  0  0  0  0  0  0
  -28.3231  -13.7357   19.8560 C   0  0  0  0  0  0  0  0  0  0  0  0
  -29.9823  -25.2125   18.5602 C   0  0  1  0  0  0  0  0  0  0  0  0
  -26.5413  -26.5451   19.4640 C   0  0  1  0  0  0  0  0  0  0  0  0
  -27.9582  -12.4386   20.5982 C   0  0  1  0  0  0  0  0  0  0  0  0
  -32.0158  -19.5414   22.0583 C   0  0  0  0  0  0  0  0  0  0  0  0
  -22.1311  -32.0662   22.6375 C   0  0  0  0  0  0  0  0  0  0  0  0
  -26.0681  -21.5066   26.9765 C   0  0  0  0  0  0  0  0  0  0  0  0
  -23.7405  -20.9112   26.2859 C   0  0  0  0  0  0  0  0  0  0  0  0
  -28.3757  -29.9567   21.9851 C   0  0  0  0  0  0  0  0  0  0  0  0
  -26.7300  -31.4737   23.1070 C   0  0  0  0  0  0  0  0  0  0  0  0
  -27.0948  -31.6349   20.6445 C   0  0  0  0  0  0  0  0  0  0  0  0
  -20.9608  -28.6793   21.3586 C   0  0  0  0  0  0  0  0  0  0  0  0
  -25.8437  -29.6493   21.5849 C   0  0  1  0  0  0  0  0  0  0  0  0
  -22.2327  -30.7738   21.8424 C   0  0  2  0  0  0  0  0  0  0  0  0
  -25.4763  -21.3185   24.4959 C   0  0  1  0  0  0  0  0  0  1  0  0
  -25.2231  -20.7843   25.9212 C   0  0  0  0  0  0  0  0  0  0  0  0
  -27.0075  -30.6504   21.8311 C   0  0  0  0  0  0  0  0  0  0  0  0
  -25.6894  -11.7029   19.9707 N   0  0  0  0  0  0  0  0  0  0  0  0
  -29.9419  -15.8840   20.6337 N   0  0  0  0  0  0  0  0  0  0  0  0
  -26.4671  -12.3400   20.8625 N   0  0  0  0  0  0  0  0  0  0  0  0
  -26.1270  -27.4099   20.5706 N   0  0  0  0  0  0  0  0  0  0  0  0
  -29.7661  -13.7907   19.5871 N   0  0  0  0  0  0  0  0  0  0  0  0
  -26.4129  -13.5033   22.9251 N   0  0  0  0  0  0  0  0  0  0  0  0
  -22.0891  -12.3929   22.2413 N   0  0  0  0  0  0  0  0  0  0  0  0
  -27.1549  -19.9656   23.4064 N   0  0  0  0  0  0  0  0  0  0  0  0
  -28.5773  -25.5564   18.6067 N   0  0  0  0  0  0  0  0  0  0  0  0
  -24.5401  -30.2802   21.4082 N   0  0  0  0  0  0  0  0  0  0  0  0
  -21.0051  -29.9679   22.0964 N   0  3  0  0  0  0  0  0  0  0  0  0
  -23.5340  -13.4629   23.6647 O   0  0  0  0  0  0  0  0  0  0  0  0
  -28.6036  -26.7761   20.5901 O   0  0  0  0  0  0  0  0  0  0  0  0
  -26.1815  -29.3361   19.2580 O   0  0  0  0  0  0  0  0  0  0  0  0
  -23.4891  -29.1880   23.1631 O   0  0  0  0  0  0  0  0  0  0  0  0
  -27.7635  -22.0447   24.3104 O   0  0  0  0  0  0  0  0  0  0  0  0
  -31.7919  -14.8873   19.6775 O   0  0  0  0  0  0  0  0  0  0  0  0
  -20.0622   -9.5742   17.8845 O   0  0  0  0  0  0  0  0  0  0  0  0
  -25.1089  -22.6951   24.4160 O   0  0  0  0  0  0  0  0  0  1  0  0
  -16.4774   -6.6838   20.9174 F   0  0  0  0  0  0  0  0  0  0  0  0
  -19.5662   -6.9100   17.3378 F   0  0  0  0  0  0  0  0  0  0  0  0
  -28.3313  -17.9611   22.0873 S   0  0  0  0  0  0  0  0  0  0  0  0
  1  2  1  0  0  0  0
  1  5  2  0  0  0  0
  2  6  2  0  0  0  0
  3  8  2  0  0  0  0
  3 16  1  0  0  0  0
  4  9  1  0  0  0  0
  4 16  2  0  0  0  0
  5 18  1  0  0  0  0
  6 20  1  0  0  0  0
  7 10  2  0  0  0  0
  7 19  1  0  0  0  0
  8 23  1  0  0  0  0
  9 23  2  0  0  0  0
 10 24  1  0  0  0  0
 11 12  2  0  0  0  0
 11 25  1  0  0  0  0
 12 26  1  0  0  0  0
 13 21  1  0  0  0  0
 13 24  2  0  0  0  0
 14 22  1  0  0  0  0
 14 31  2  0  0  0  0
 15 26  2  0  0  0  0
 15 27  1  0  0  0  0
 16 28  1  0  0  0  0
 17 28  1  0  0  0  0
 17 30  2  0  0  0  0
 17 33  1  0  0  0  0
 18 20  2  0  0  0  0
 18 39  1  0  0  0  0
 19 21  2  0  0  0  0
 19 40  1  0  0  0  0
 20 48  1  0  0  0  0
 21 41  1  0  0  0  0
 22 29  2  0  0  0  0
 22 51  1  0  0  0  0
 23 81  1  0  0  0  0
 24 82  1  0  0  0  0
 25 27  2  0  0  0  0
 25 81  1  0  0  0  0
 26 83  1  0  0  0  0
 27 84  1  0  0  0  0
 28 64  2  0  0  0  0
 29 32  1  0  0  0  0
 29 85  1  0  0  0  0
 30 66  1  0  0  0  0
 30 69  1  0  0  0  0
 31 71  1  0  0  0  0
 31 85  1  0  0  0  0
 32 65  2  0  0  0  0
 33 70  1  0  0  0  0
 33 75  2  0  0  0  0
 34 49  1  0  0  0  0
 34 72  1  0  0  0  0
 34 76  2  0  0  0  0
 35 59  1  0  0  0  0
 35 67  1  0  0  0  0
 35 77  2  0  0  0  0
 36 60  1  0  0  0  0
 36 73  1  0  0  0  0
 36 78  2  0  0  0  0
 37 61  1  0  0  0  0
 37 71  1  0  0  0  0
 37 79  2  0  0  0  0
 38 65  1  0  0  0  0
 38 68  1  0  0  0  0
 38 80  2  0  0  0  0
 39 42  1  0  0  0  0
 40 49  1  0  0  0  0
 41 67  1  0  0  0  0
 42 44  1  0  0  0  0
 43 45  1  0  0  0  0
 43 46  1  0  0  0  0
 44 48  1  0  0  0  0
 45 50  1  0  0  0  0
 46 68  1  0  0  0  0
 47 50  1  0  0  0  0
 47 68  1  0  0  0  0
 48 72  1  0  0  0  0
 49 67  1  0  0  0  0
 50 66  1  0  0  0  0
 52 60  1  0  0  0  0
 53 62  1  0  0  0  0
 54 62  1  0  0  0  0
 55 63  1  0  0  0  0
 56 63  1  0  0  0  0
 57 63  1  0  0  0  0
 58 74  1  0  0  0  0
 59 63  1  0  0  0  0
 59 73  1  0  0  0  0
 60 74  1  0  0  0  0
 61 62  1  0  0  0  0
 61 82  1  0  0  0  0
 64 66  1  0  0  0  0
M  CHG  1  74   1
M  ISO  4  38 100  61 101  65 100  82 101
M  END
> <Batch ID>
0184

> <Smiles>
CNC(C)C(=O)NC(C(=O)N1Cc2cc([101O:1][101CH:1](C(=O)Nc3cc(C)c(C=[100N:0][100C:0](=O)N4CCCC(n5nc(-c6ccc(Oc7ccc(F)cc7F)cc6)c(C(N)=O)c5N)C4)s3)C(C)C)ccc2CC1C(=O)NC1CCCc2ccccc21)C(C)(C)C

> <Shape>
0.242

> <Color>
0.116

> <Negative vol penalty>
0.000

$$$$

  -OEChem-04052305023D

 85 93  0     1  0  0  0  0  0999 V2000
  -20.9329  -21.1312   20.2128 C   0  0  0  0  0  0  0  0  0  0  0  0
  -22.3139  -21.2523   20.3298 C   0  0  0  0  0  0  0  0  0  0  0  0
  -25.7337  -13.7465   21.3168 C   0  0  0  0  0  0  0  0  0  0  0  0
  -25.1512  -14.3307   19.0460 C   0  0  0  0  0  0  0  0  0  0  0  0
  -20.1546  -22.2592   19.9562 C   0  0  0  0  0  0  0  0  0  0  0  0
  -22.9175  -22.5014   20.1891 C   0  0  0  0  0  0  0  0  0  0  0  0
  -27.8567  -24.5599   23.1678 C   0  0  0  0  0  0  0  0  0  0  0  0
  -24.7036  -12.8063   21.3391 C   0  0  0  0  0  0  0  0  0  0  0  0
  -24.1211  -13.3904   19.0683 C   0  0  0  0  0  0  0  0  0  0  0  0
  -29.2025  -24.6364   22.8118 C   0  0  0  0  0  0  0  0  0  0  0  0
  -22.4572   -9.9979   21.8698 C   0  0  0  0  0  0  0  0  0  0  0  0
  -22.7383   -8.7406   22.4045 C   0  0  0  0  0  0  0  0  0  0  0  0
  -28.8851  -26.9277   22.1273 C   0  0  0  0  0  0  0  0  0  0  0  0
  -24.4492   -8.4113   20.7307 C   0  0  0  0  0  0  0  0  0  0  0  0
  -32.5401  -22.6915   19.2312 C   0  0  0  0  0  0  0  0  0  0  0  0
  -25.9574  -14.5088   20.1702 C   0  0  0  0  0  0  0  0  0  0  0  0
  -28.3554  -15.2711   19.7503 C   0  0  0  0  0  0  0  0  0  0  0  0
  -20.7481  -23.5243   19.8219 C   0  0  0  0  0  0  0  0  0  0  0  0
  -27.0110  -25.6652   22.9957 C   0  0  0  0  0  0  0  0  0  0  0  0
  -22.1466  -23.6472   19.9291 C   0  0  0  0  0  0  0  0  0  0  0  0
  -27.5295  -26.8634   22.4842 C   0  0  0  0  0  0  0  0  0  0  0  0
  -23.8974  -12.6282   20.2149 C   0  0  0  0  0  0  0  0  0  0  0  0
  -29.7162  -25.8195   22.2888 C   0  0  0  0  0  0  0  0  0  0  0  0
  -23.1720  -10.4618   20.7655 C   0  0  0  0  0  0  0  0  0  0  0  0
  -23.7343   -7.9473   21.8350 C   0  0  0  0  0  0  0  0  0  0  0  0
  -24.1680   -9.6685   20.1960 C   0  0  0  0  0  0  0  0  0  0  0  0
  -27.0209  -15.4806   20.1467 C   0  0  0  0  0  0  0  0  0  0  0  0
  -31.5162  -23.2931   18.4753 C   0  0  0  0  0  0  0  0  0  0  0  0
  -28.9572  -16.4953   19.9099 C   0  0  0  0  0  0  0  0  0  0  0  0
  -33.0844  -23.7240   19.9551 C   0  0  0  0  0  0  0  0  0  0  0  0
  -28.9938  -14.0767   19.2797 C   0  0  0  0  0  0  0  0  0  0  0  0
  -24.4001  -26.2460   21.2783 C   0  0  0  0  0  0  0  0  0  0  0  0
  -24.4185  -29.0461   22.9159 C   0  0  0  0  0  0  0  0  0  0  0  0
  -28.8474  -22.0469   19.2331 C   0  0  0  0  0  0  0  0  0  0  0  0
  -26.2086  -31.3732   24.6557 C   0  0  0  0  0  0  0  0  0  0  0  0
  -19.8703  -24.7072   19.4979 C   0  0  0  0  0  0  0  0  0  0  0  0
  -25.5678  -25.5749   23.4095 C   0  0  0  0  0  0  0  0  0  0  0  0
  -26.6681  -28.0849   22.2987 C   0  0  0  0  0  0  0  0  0  0  0  0
  -20.5503  -26.0532   19.7344 C   0  0  0  0  0  0  0  0  0  0  0  0
  -27.3333  -20.7001   22.1884 C   0  0  0  0  0  0  0  0  0  0  0  0
  -21.9555  -26.0530   19.1408 C   0  0  0  0  0  0  0  0  0  0  0  0
  -27.1991  -19.2102   21.8760 C   0  0  0  0  0  0  0  0  0  0  0  0
  -27.1282  -21.5530   20.9404 C   0  0  0  0  0  0  0  0  0  0  0  0
  -27.8948  -19.7020   19.4886 C   0  0  0  0  0  0  0  0  0  0  0  0
  -22.8358  -24.9889   19.8074 C   0  0  1  0  0  0  0  0  0  0  0  0
  -24.6806  -26.6009   22.7111 C   0  0  1  0  0  0  0  0  0  0  0  0
  -28.1253  -18.8030   20.7163 C   0  0  2  0  0  0  0  0  0  0  0  0
  -25.9562  -33.5719   25.8385 C   0  0  0  0  0  0  0  0  0  0  0  0
  -33.0103  -27.1996   19.0054 C   0  0  0  0  0  0  0  0  0  0  0  0
  -24.2923  -30.4769   20.2240 C   0  0  0  0  0  0  0  0  0  0  0  0
  -24.9934  -32.5800   21.3876 C   0  0  0  0  0  0  0  0  0  0  0  0
  -22.8446  -31.4727   22.0035 C   0  0  0  0  0  0  0  0  0  0  0  0
  -27.0741  -30.2153   27.2382 C   0  0  0  0  0  0  0  0  0  0  0  0
  -31.3668  -26.7812   20.8723 C   0  0  0  0  0  0  0  0  0  1  0  0
  -25.0306  -30.4086   22.6971 C   0  0  1  0  0  0  0  0  0  0  0  0
  -25.9466  -32.0583   25.9848 C   0  0  2  0  0  0  0  0  0  0  0  0
  -32.6002  -26.2466   20.1316 C   0  0  1  0  0  0  0  0  0  0  0  0
  -30.6053  -22.6406   17.5198 C   0  0  0  0  0  0  0  0  0  0  0  0
  -29.7293  -21.5258   18.1264 C   0  0  0  0  0  0  0  0  0  0  0  0
  -24.3063  -31.2111   21.5796 C   0  0  0  0  0  0  0  0  0  0  0  0
  -26.7883  -16.7389   20.5295 N   0  0  0  0  0  0  0  0  0  0  0  0
  -31.4139  -24.6060   18.6985 N   0  0  0  0  0  0  0  0  0  0  0  0
  -27.9847  -17.3311   20.3745 N   0  0  0  0  0  0  0  0  0  0  0  0
  -32.3806  -24.8379   19.6028 N   0  0  0  0  0  0  0  0  0  0  0  0
  -25.2621  -27.9448   22.7122 N   0  0  0  0  0  0  0  0  0  0  0  0
  -28.0102  -21.1204   19.8549 N   0  0  0  0  0  0  0  0  0  0  0  0
  -30.2182  -16.9277   19.6969 N   0  0  0  0  0  0  0  0  0  0  0  0
  -28.2289  -12.9068   19.1758 N   0  0  0  0  0  0  0  0  0  0  0  0
  -23.2869  -25.4462   21.1043 N   0  0  0  0  0  0  0  0  0  0  0  0
  -25.0355  -31.0677   23.9986 N   0  0  0  0  0  0  0  0  0  0  0  0
  -26.9887  -31.6756   26.9791 N   0  3  0  0  0  0  0  0  0  0  0  0
  -30.2105  -14.0436   18.9765 O   0  0  0  0  0  0  0  0  0  0  0  0
  -25.1382  -26.6680   20.3957 O   0  0  0  0  0  0  0  0  0  0  0  0
  -23.2375  -28.9622   23.2620 O   0  0  0  0  0  0  0  0  0  0  0  0
  -28.9046  -23.2414   19.5365 O   0  0  0  0  0  0  0  0  0  0  0  0
  -27.3407  -31.1363   24.2401 O   0  0  0  0  0  0  0  0  0  0  0  0
  -22.8923  -11.7106   20.2363 O   0  0  0  0  0  0  0  0  0  0  0  0
  -31.0293  -25.8966   21.9400 O   0  0  0  0  0  0  0  0  0  1  0  0
  -24.0052   -6.7407   22.3496 F   0  0  0  0  0  0  0  0  0  0  0  0
  -24.8590  -10.1093   19.1357 F   0  0  0  0  0  0  0  0  0  0  0  0
  -34.0929  -23.6524   20.8235 F   0  0  0  0  0  0  0  0  0  0  0  0
  -31.2734  -22.0511   16.4627 F   0  0  0  0  0  0  0  0  0  0  0  0
  -29.7365  -23.5137   16.8934 F   0  0  0  0  0  0  0  0  0  0  0  0
  -28.9615  -20.9716   17.1472 F   0  0  0  0  0  0  0  0  0  0  0  0
  -30.5330  -20.5277   18.5800 F   0  0  0  0  0  0  0  0  0  0  0  0
  1  2  1  0  0  0  0
  1  5  2  0  0  0  0
  2  6  2  0  0  0  0
  3  8  2  0  0  0  0
  3 16  1  0  0  0  0
  4  9  1  0  0  0  0
  4 16  2  0  0  0  0
  5 18  1  0  0  0  0
  6 20  1  0  0  0  0
  7 10  2  0  0  0  0
  7 19  1  0  0  0  0
  8 22  1  0  0  0  0
  9 22  2  0  0  0  0
 10 23  1  0  0  0  0
 11 12  2  0  0  0  0
 11 24  1  0  0  0  0
 12 25  1  0  0  0  0
 13 21  1  0  0  0  0
 13 23  2  0  0  0  0
 14 25  2  0  0  0  0
 14 26  1  0  0  0  0
 15 28  1  0  0  0  0
 15 30  2  0  0  0  0
 16 27  1  0  0  0  0
 17 27  1  0  0  0  0
 17 29  2  0  0  0  0
 17 31  1  0  0  0  0
 18 20  2  0  0  0  0
 18 36  1  0  0  0  0
 19 21  2  0  0  0  0
 19 37  1  0  0  0  0
 20 45  1  0  0  0  0
 21 38  1  0  0  0  0
 22 77  1  0  0  0  0
 23 78  1  0  0  0  0
 24 26  2  0  0  0  0
 24 77  1  0  0  0  0
 25 79  1  0  0  0  0
 26 80  1  0  0  0  0
 27 61  2  0  0  0  0
 28 58  1  0  0  0  0
 28 62  2  0  0  0  0
 29 63  1  0  0  0  0
 29 67  1  0  0  0  0
 30 64  1  0  0  0  0
 30 81  1  0  0  0  0
 31 68  1  0  0  0  0
 31 72  2  0  0  0  0
 32 46  1  0  0  0  0
 32 69  1  0  0  0  0
 32 73  2  0  0  0  0
 33 55  1  0  0  0  0
 33 65  1  0  0  0  0
 33 74  2  0  0  0  0
 34 59  1  0  0  0  0
 34 66  1  0  0  0  0
 34 75  2  0  0  0  0
 35 56  1  0  0  0  0
 35 70  1  0  0  0  0
 35 76  2  0  0  0  0
 36 39  1  0  0  0  0
 37 46  1  0  0  0  0
 38 65  1  0  0  0  0
 39 41  1  0  0  0  0
 40 42  1  0  0  0  0
 40 43  1  0  0  0  0
 41 45  1  0  0  0  0
 42 47  1  0  0  0  0
 43 66  1  0  0  0  0
 44 47  1  0  0  0  0
 44 66  1  0  0  0  0
 45 69  1  0  0  0  0
 46 65  1  0  0  0  0
 47 63  1  0  0  0  0
 48 56  1  0  0  0  0
 49 57  1  0  0  0  0
 50 60  1  0  0  0  0
 51 60  1  0  0  0  0
 52 60  1  0  0  0  0
 53 71  1  0  0  0  0
 54 57  1  0  0  0  0
 54 78  1  0  0  0  0
 55 60  1  0  0  0  0
 55 70  1  0  0  0  0
 56 71  1  0  0  0  0
 57 64  1  0  0  0  0
 58 59  1  0  0  0  0
 58 82  1  0  0  0  0
 58 83  1  0  0  0  0
 59 84  1  0  0  0  0
 59 85  1  0  0  0  0
 61 63  1  0  0  0  0
 62 64  1  0  0  0  0
M  CHG  1  71   1
M  ISO  4  34 100  54 101  59 100  78 101
M  END
> <Batch ID>
0184

> <Smiles>
CNC(C)C(=O)NC(C(=O)N1Cc2cc([101O:1][101CH2:1]C(C)n3nc(C(F)(F)[100C:0](F)(F)[100C:0](=O)N4CCCC(n5nc(-c6ccc(Oc7ccc(F)cc7F)cc6)c(C(N)=O)c5N)C4)cc3F)ccc2CC1C(=O)NC1CCCc2ccccc21)C(C)(C)C

> <Shape>
0.247

> <Color>
0.070

> <Negative vol penalty>
0.000

$$$$

  -OEChem-04052305023D

 85 93  0     1  0  0  0  0  0999 V2000
  -17.0144  -28.4560   23.0844 C   0  0  0  0  0  0  0  0  0  0  0  0
  -16.6382  -27.1495   22.7893 C   0  0  0  0  0  0  0  0  0  0  0  0
  -27.7110  -23.2228   20.4298 C   0  0  0  0  0  0  0  0  0  0  0  0
  -29.2847  -23.4238   18.6078 C   0  0  0  0  0  0  0  0  0  0  0  0
  -18.3621  -28.8128   23.0677 C   0  0  0  0  0  0  0  0  0  0  0  0
  -17.6096  -26.1993   22.4764 C   0  0  0  0  0  0  0  0  0  0  0  0
  -18.9989  -19.2044   23.1529 C   0  0  0  0  0  0  0  0  0  0  0  0
  -27.7096  -24.6093   20.5816 C   0  0  0  0  0  0  0  0  0  0  0  0
  -29.2833  -24.8104   18.7595 C   0  0  0  0  0  0  0  0  0  0  0  0
  -19.3630  -18.0994   22.3847 C   0  0  0  0  0  0  0  0  0  0  0  0
  -26.2978  -27.2800   19.0628 C   0  0  0  0  0  0  0  0  0  0  0  0
  -25.0655  -27.9132   19.2243 C   0  0  0  0  0  0  0  0  0  0  0  0
  -21.6667  -18.8107   22.4643 C   0  0  0  0  0  0  0  0  0  0  0  0
  -24.1357  -12.7626   20.5727 C   0  0  0  0  0  0  0  0  0  0  0  0
  -25.7801  -28.7560   21.3728 C   0  0  0  0  0  0  0  0  0  0  0  0
  -28.4986  -22.6300   19.4429 C   0  0  0  0  0  0  0  0  0  0  0  0
  -27.6507  -20.4309   18.4668 C   0  0  0  0  0  0  0  0  0  0  0  0
  -19.3512  -27.8641   22.7639 C   0  0  0  0  0  0  0  0  0  0  0  0
  -19.9661  -20.1283   23.5741 C   0  0  0  0  0  0  0  0  0  0  0  0
  -18.9717  -26.5440   22.4544 C   0  0  0  0  0  0  0  0  0  0  0  0
  -21.3127  -19.9252   23.2399 C   0  0  0  0  0  0  0  0  0  0  0  0
  -25.4308  -12.3704   21.0187 C   0  0  0  0  0  0  0  0  0  0  0  0
  -28.4957  -25.4031   19.7465 C   0  0  0  0  0  0  0  0  0  0  0  0
  -20.6966  -17.9039   22.0378 C   0  0  0  0  0  0  0  0  0  0  0  0
  -27.2712  -27.3848   20.0564 C   0  0  0  0  0  0  0  0  0  0  0  0
  -24.8066  -28.6513   20.3792 C   0  0  0  0  0  0  0  0  0  0  0  0
  -27.0124  -28.1228   21.2113 C   0  0  0  0  0  0  0  0  0  0  0  0
  -28.5009  -21.1977   19.2860 C   0  0  0  0  0  0  0  0  0  0  0  0
  -26.2854  -13.4446   21.1346 C   0  0  0  0  0  0  0  0  0  0  0  0
  -28.0546  -19.1342   18.6714 C   0  0  0  0  0  0  0  0  0  0  0  0
  -24.0497  -14.1218   20.3648 C   0  0  0  0  0  0  0  0  0  0  0  0
  -26.5908  -20.8531   17.5985 C   0  0  0  0  0  0  0  0  0  0  0  0
  -27.7076  -13.4726   21.5630 C   0  0  0  0  0  0  0  0  0  0  0  0
  -20.4744  -23.2266   23.0787 C   0  0  0  0  0  0  0  0  0  0  0  0
  -22.8288  -22.7921   25.2674 C   0  0  0  0  0  0  0  0  0  0  0  0
  -21.6821  -14.5115   19.5965 C   0  0  0  0  0  0  0  0  0  0  0  0
  -24.9882  -20.6483   26.8128 C   0  0  0  0  0  0  0  0  0  0  0  0
  -29.6210  -14.9828   21.9897 C   0  0  0  0  0  0  0  0  0  0  0  0
  -20.7916  -28.3082   22.7121 C   0  0  0  0  0  0  0  0  0  0  0  0
  -19.5609  -21.3007   24.4248 C   0  0  0  0  0  0  0  0  0  0  0  0
  -22.3922  -20.8768   23.6842 C   0  0  0  0  0  0  0  0  0  0  0  0
  -21.7871  -27.1512   22.7372 C   0  0  0  0  0  0  0  0  0  0  0  0
  -32.1305  -17.2854   21.0426 C   0  0  0  0  0  0  0  0  0  0  0  0
  -21.3646  -26.0622   21.7561 C   0  0  0  0  0  0  0  0  0  0  0  0
  -31.3429  -18.4443   20.4255 C   0  0  0  0  0  0  0  0  0  0  0  0
  -31.4058  -16.6840   22.2459 C   0  0  0  0  0  0  0  0  0  0  0  0
  -29.2294  -17.4490   21.3880 C   0  0  0  0  0  0  0  0  0  0  0  0
  -19.9979  -25.4788   22.1344 C   0  0  1  0  0  0  0  0  0  0  0  0
  -20.5568  -22.4548   24.3652 C   0  0  1  0  0  0  0  0  0  0  0  0
  -29.8838  -18.0428   20.1301 C   0  0  1  0  0  0  0  0  0  0  0  0
  -25.8008  -10.9661   21.3196 C   0  0  0  0  0  0  0  0  0  0  0  0
  -19.7893  -15.2282   18.1294 C   0  0  0  0  0  0  0  0  0  0  0  0
  -26.8163  -20.5925   28.5310 C   0  0  0  0  0  0  0  0  0  0  0  0
  -24.7601  -24.0192   23.2489 C   0  0  0  0  0  0  0  0  0  0  0  0
  -26.6521  -23.0825   24.5947 C   0  0  0  0  0  0  0  0  0  0  0  0
  -25.1109  -24.7597   25.6117 C   0  0  0  0  0  0  0  0  0  0  0  0
  -23.4613  -18.7982   28.5461 C   0  0  0  0  0  0  0  0  0  0  0  0
  -20.0869  -16.3266   20.3657 C   0  0  0  0  0  0  0  0  0  1  0  0
  -24.2865  -22.4042   25.2069 C   0  0  1  0  0  0  0  0  0  0  0  0
  -20.8057  -15.6973   19.1698 C   0  0  1  0  0  0  0  0  0  0  0  0
  -25.3244  -20.4400   28.2784 C   0  0  2  0  0  0  0  0  0  0  0  0
  -25.1820  -23.5493   24.6554 C   0  0  0  0  0  0  0  0  0  0  0  0
  -29.3784  -20.4504   19.9608 N   0  0  0  0  0  0  0  0  0  0  0  0
  -29.0818  -19.2005   19.5661 N   0  0  0  0  0  0  0  0  0  0  0  0
  -21.9450  -22.0114   24.5089 N   0  0  0  0  0  0  0  0  0  0  0  0
  -30.0351  -16.3218   21.8811 N   0  0  0  0  0  0  0  0  0  0  0  0
  -27.6275  -17.9551   18.1716 N   0  0  0  0  0  0  0  0  0  0  0  0
  -26.3080  -22.2227   17.5063 N   0  0  0  0  0  0  0  0  0  0  0  0
  -22.9693  -14.9254   19.9287 N   0  0  0  0  0  0  0  0  0  0  0  0
  -28.3077  -14.7320   21.5768 N   0  0  0  0  0  0  0  0  0  0  0  0
  -20.1313  -24.5553   23.2407 N   0  0  0  0  0  0  0  0  0  0  0  0
  -24.6461  -21.9577   26.5484 N   0  0  0  0  0  0  0  0  0  0  0  0
  -24.9105  -19.0769   28.7161 N   0  3  0  0  0  0  0  0  0  0  0  0
  -25.9037  -20.0384   16.9368 O   0  0  0  0  0  0  0  0  0  0  0  0
  -28.2487  -12.4260   21.9089 O   0  0  0  0  0  0  0  0  0  0  0  0
  -20.7065  -22.6591   22.0176 O   0  0  0  0  0  0  0  0  0  0  0  0
  -22.4859  -23.7479   25.9677 O   0  0  0  0  0  0  0  0  0  0  0  0
  -21.2489  -13.3630   19.6136 O   0  0  0  0  0  0  0  0  0  0  0  0
  -25.0288  -19.7412   25.9846 O   0  0  0  0  0  0  0  0  0  0  0  0
  -30.3676  -14.0815   22.3839 O   0  0  0  0  0  0  0  0  0  0  0  0
  -28.4944  -26.7562   19.8942 O   0  0  0  0  0  0  0  0  0  0  0  0
  -21.0546  -16.8265   21.2875 O   0  0  0  0  0  0  0  0  0  1  0  0
  -23.6238  -29.2605   20.5335 F   0  0  0  0  0  0  0  0  0  0  0  0
  -27.9441  -28.2280   22.1687 F   0  0  0  0  0  0  0  0  0  0  0  0
  -25.5263  -14.9187   20.7067 S   0  0  0  0  0  0  0  0  0  0  0  0
  1  2  1  0  0  0  0
  1  5  2  0  0  0  0
  2  6  2  0  0  0  0
  3  8  2  0  0  0  0
  3 16  1  0  0  0  0
  4  9  1  0  0  0  0
  4 16  2  0  0  0  0
  5 18  1  0  0  0  0
  6 20  1  0  0  0  0
  7 10  2  0  0  0  0
  7 19  1  0  0  0  0
  8 23  1  0  0  0  0
  9 23  2  0  0  0  0
 10 24  1  0  0  0  0
 11 12  2  0  0  0  0
 11 25  1  0  0  0  0
 12 26  1  0  0  0  0
 13 21  1  0  0  0  0
 13 24  2  0  0  0  0
 14 22  1  0  0  0  0
 14 31  2  0  0  0  0
 15 26  2  0  0  0  0
 15 27  1  0  0  0  0
 16 28  1  0  0  0  0
 17 28  1  0  0  0  0
 17 30  2  0  0  0  0
 17 32  1  0  0  0  0
 18 20  2  0  0  0  0
 18 39  1  0  0  0  0
 19 21  2  0  0  0  0
 19 40  1  0  0  0  0
 20 48  1  0  0  0  0
 21 41  1  0  0  0  0
 22 29  2  0  0  0  0
 22 51  1  0  0  0  0
 23 81  1  0  0  0  0
 24 82  1  0  0  0  0
 25 27  2  0  0  0  0
 25 81  1  0  0  0  0
 26 83  1  0  0  0  0
 27 84  1  0  0  0  0
 28 63  2  0  0  0  0
 29 33  1  0  0  0  0
 29 85  1  0  0  0  0
 30 64  1  0  0  0  0
 30 67  1  0  0  0  0
 31 69  1  0  0  0  0
 31 85  1  0  0  0  0
 32 68  1  0  0  0  0
 32 74  2  0  0  0  0
 33 70  1  0  0  0  0
 33 75  2  0  0  0  0
 34 49  1  0  0  0  0
 34 71  1  0  0  0  0
 34 76  2  0  0  0  0
 35 59  1  0  0  0  0
 35 65  1  0  0  0  0
 35 77  2  0  0  0  0
 36 60  1  0  0  0  0
 36 69  1  0  0  0  0
 36 78  2  0  0  0  0
 37 61  1  0  0  0  0
 37 72  1  0  0  0  0
 37 79  2  0  0  0  0
 38 66  1  0  0  0  0
 38 70  1  0  0  0  0
 38 80  2  0  0  0  0
 39 42  1  0  0  0  0
 40 49  1  0  0  0  0
 41 65  1  0  0  0  0
 42 44  1  0  0  0  0
 43 45  1  0  0  0  0
 43 46  1  0  0  0  0
 44 48  1  0  0  0  0
 45 50  1  0  0  0  0
 46 66  1  0  0  0  0
 47 50  1  0  0  0  0
 47 66  1  0  0  0  0
 48 71  1  0  0  0  0
 49 65  1  0  0  0  0
 50 64  1  0  0  0  0
 52 60  1  0  0  0  0
 53 61  1  0  0  0  0
 54 62  1  0  0  0  0
 55 62  1  0  0  0  0
 56 62  1  0  0  0  0
 57 73  1  0  0  0  0
 58 60  1  0  0  0  0
 58 82  1  0  0  0  0
 59 62  1  0  0  0  0
 59 72  1  0  0  0  0
 61 73  1  0  0  0  0
 63 64  1  0  0  0  0
M  CHG  1  73   1
M  ISO  4  38 100  58 101  70 100  82 101
M  END
> <Batch ID>
0184

> <Smiles>
CNC(C)C(=O)NC(C(=O)N1Cc2cc([101O:1][101CH2:1]C(C)C(=O)Nc3cc(C)c(C(=O)[100NH:0][100C:0](=O)N4CCCC(n5nc(-c6ccc(Oc7ccc(F)cc7F)cc6)c(C(N)=O)c5N)C4)s3)ccc2CC1C(=O)NC1CCCc2ccccc21)C(C)(C)C

> <Shape>
0.236

> <Color>
0.069

> <Negative vol penalty>
0.000

$$$$

  -OEChem-04052305023D

 82 90  0     1  0  0  0  0  0999 V2000
  -17.2117  -26.9570   21.2360 C   0  0  0  0  0  0  0  0  0  0  0  0
  -18.4970  -26.5344   20.9123 C   0  0  0  0  0  0  0  0  0  0  0  0
  -24.2873   -9.0547   21.9383 C   0  0  0  0  0  0  0  0  0  0  0  0
  -24.2683   -8.2730   19.6523 C   0  0  0  0  0  0  0  0  0  0  0  0
  -16.9290  -28.3192   21.3266 C   0  0  0  0  0  0  0  0  0  0  0  0
  -19.5002  -27.4741   20.6778 C   0  0  0  0  0  0  0  0  0  0  0  0
  -25.4428  -26.9369   22.0573 C   0  0  0  0  0  0  0  0  0  0  0  0
  -23.1902   -8.2425   22.2252 C   0  0  0  0  0  0  0  0  0  0  0  0
  -23.1712   -7.4607   19.9392 C   0  0  0  0  0  0  0  0  0  0  0  0
  -26.5541  -26.5797   21.2950 C   0  0  0  0  0  0  0  0  0  0  0  0
  -22.6121   -4.9747   22.8738 C   0  0  0  0  0  0  0  0  0  0  0  0
  -22.6494   -4.2269   24.0506 C   0  0  0  0  0  0  0  0  0  0  0  0
  -27.0389  -28.9127   20.9193 C   0  0  0  0  0  0  0  0  0  0  0  0
  -20.6581   -5.3522   24.8288 C   0  0  0  0  0  0  0  0  0  0  0  0
  -26.9531  -20.7576   18.8929 C   0  0  0  0  0  0  0  0  0  0  0  0
  -24.8263   -9.0700   20.6518 C   0  0  0  0  0  0  0  0  0  0  0  0
  -27.3209   -9.5679   20.4599 C   0  0  0  0  0  0  0  0  0  0  0  0
  -17.9316  -29.2759   21.1025 C   0  0  0  0  0  0  0  0  0  0  0  0
  -25.1144  -28.2869   22.2476 C   0  0  0  0  0  0  0  0  0  0  0  0
  -19.2304  -28.8505   20.7641 C   0  0  0  0  0  0  0  0  0  0  0  0
  -25.9244  -29.2845   21.6866 C   0  0  0  0  0  0  0  0  0  0  0  0
  -22.6322   -7.4455   21.2257 C   0  0  0  0  0  0  0  0  0  0  0  0
  -27.3507  -27.5675   20.7235 C   0  0  0  0  0  0  0  0  0  0  0  0
  -21.5979   -5.9114   22.6745 C   0  0  0  0  0  0  0  0  0  0  0  0
  -21.6724   -4.4156   25.0281 C   0  0  0  0  0  0  0  0  0  0  0  0
  -20.6209   -6.1001   23.6520 C   0  0  0  0  0  0  0  0  0  0  0  0
  -25.9592   -9.9093   20.3547 C   0  0  0  0  0  0  0  0  0  0  0  0
  -27.2955  -20.0925   20.0516 C   0  0  0  0  0  0  0  0  0  0  0  0
  -27.9903  -10.7007   20.0661 C   0  0  0  0  0  0  0  0  0  0  0  0
  -27.9197  -22.4169   19.9522 C   0  0  0  0  0  0  0  0  0  0  0  0
  -27.0783  -18.7504   20.4205 C   0  0  0  0  0  0  0  0  0  0  0  0
  -26.4719  -17.7709   19.6659 C   0  0  0  0  0  0  0  0  0  0  0  0
  -27.9265   -8.3368   20.8763 C   0  0  0  0  0  0  0  0  0  0  0  0
  -26.3266  -16.3988   20.1922 C   0  0  0  0  0  0  0  0  0  0  0  0
  -22.6219  -30.1151   21.5064 C   0  0  0  0  0  0  0  0  0  0  0  0
  -24.2228  -32.3306   23.2532 C   0  0  0  0  0  0  0  0  0  0  0  0
  -27.2015  -33.4427   24.4931 C   0  0  0  0  0  0  0  0  0  0  0  0
  -28.4399  -24.8494   19.5628 C   0  0  0  0  0  0  0  0  0  0  0  0
  -17.5669  -30.7380   21.1654 C   0  0  0  0  0  0  0  0  0  0  0  0
  -23.9276  -28.6562   23.0948 C   0  0  0  0  0  0  0  0  0  0  0  0
  -25.6265  -30.7485   21.8778 C   0  0  0  0  0  0  0  0  0  0  0  0
  -18.7764  -31.6635   21.2697 C   0  0  0  0  0  0  0  0  0  0  0  0
  -27.5476  -14.5446   17.2762 C   0  0  0  0  0  0  0  0  0  0  0  0
  -19.8452  -31.2613   20.2584 C   0  0  0  0  0  0  0  0  0  0  0  0
  -27.3530  -13.1040   17.7417 C   0  0  0  0  0  0  0  0  0  0  0  0
  -26.4607  -15.4721   17.8174 C   0  0  0  0  0  0  0  0  0  0  0  0
  -26.1235  -13.9800   19.7669 C   0  0  0  0  0  0  0  0  0  0  0  0
  -20.3514  -29.8390   20.5269 C   0  0  1  0  0  0  0  0  0  0  0  0
  -23.3913  -30.0527   22.7956 C   0  0  1  0  0  0  0  0  0  0  0  0
  -27.2325  -13.0382   19.2725 C   0  0  1  0  0  0  0  0  0  0  0  0
  -28.1985  -35.3012   25.8530 C   0  0  0  0  0  0  0  0  0  0  0  0
  -30.5753  -26.1221   19.9870 C   0  0  0  0  0  0  0  0  0  0  0  0
  -23.9899  -34.2054   20.8572 C   0  0  0  0  0  0  0  0  0  0  0  0
  -25.7741  -35.6289   21.8860 C   0  0  0  0  0  0  0  0  0  0  0  0
  -23.6070  -35.2950   23.0755 C   0  0  0  0  0  0  0  0  0  0  0  0
  -28.1626  -31.5645   26.5686 C   0  0  0  0  0  0  0  0  0  0  0  0
  -25.2594  -33.3855   22.9506 C   0  0  1  0  0  0  0  0  0  0  0  0
  -27.6061  -33.9009   25.8826 C   0  0  2  0  0  0  0  0  0  0  0  0
  -29.0951  -26.0026   20.3185 C   0  0  1  0  0  0  0  0  0  1  0  0
  -24.6624  -34.6012   22.1869 C   0  0  0  0  0  0  0  0  0  0  0  0
  -27.3098  -22.0906   18.8343 N   0  0  0  0  0  0  0  0  0  0  0  0
  -25.7730  -11.1611   19.9277 N   0  0  0  0  0  0  0  0  0  0  0  0
  -27.0264  -11.6162   19.7612 N   0  0  0  0  0  0  0  0  0  0  0  0
  -26.3247  -15.3481   19.2765 N   0  0  0  0  0  0  0  0  0  0  0  0
  -24.4517  -31.0589   22.7091 N   0  0  0  0  0  0  0  0  0  0  0  0
  -29.3035  -10.9930   19.9545 N   0  0  0  0  0  0  0  0  0  0  0  0
  -27.0920   -7.2737   21.2475 N   0  0  0  0  0  0  0  0  0  0  0  0
  -28.4495  -23.6785   20.3137 N   0  0  0  0  0  0  0  0  0  0  0  0
  -21.2758  -29.8334   21.6405 N   0  0  0  0  0  0  0  0  0  0  0  0
  -25.8788  -33.7270   24.2265 N   0  0  0  0  0  0  0  0  0  0  0  0
  -28.6204  -32.9735   26.4589 N   0  3  0  0  0  0  0  0  0  0  0  0
  -29.1709   -8.1894   20.9336 O   0  0  0  0  0  0  0  0  0  0  0  0
  -26.2108  -16.2670   21.4120 O   0  0  0  0  0  0  0  0  0  0  0  0
  -23.2061  -30.3993   20.4673 O   0  0  0  0  0  0  0  0  0  0  0  0
  -23.2495  -32.6223   23.9528 O   0  0  0  0  0  0  0  0  0  0  0  0
  -27.9818  -32.8913   23.7200 O   0  0  0  0  0  0  0  0  0  0  0  0
  -27.9683  -25.0101   18.4408 O   0  0  0  0  0  0  0  0  0  0  0  0
  -21.5618   -6.6526   21.5053 O   0  0  0  0  0  0  0  0  0  0  0  0
  -28.4356  -27.2216   19.9784 O   0  0  0  0  0  0  0  0  0  1  0  0
  -21.7074   -3.6962   26.1575 F   0  0  0  0  0  0  0  0  0  0  0  0
  -19.6434   -6.9976   23.4657 F   0  0  0  0  0  0  0  0  0  0  0  0
  -28.0989  -21.1697   21.1172 S   0  0  0  0  0  0  0  0  0  0  0  0
  1  2  1  0  0  0  0
  1  5  2  0  0  0  0
  2  6  2  0  0  0  0
  3  8  2  0  0  0  0
  3 16  1  0  0  0  0
  4  9  1  0  0  0  0
  4 16  2  0  0  0  0
  5 18  1  0  0  0  0
  6 20  1  0  0  0  0
  7 10  2  0  0  0  0
  7 19  1  0  0  0  0
  8 22  1  0  0  0  0
  9 22  2  0  0  0  0
 10 23  1  0  0  0  0
 11 12  2  0  0  0  0
 11 24  1  0  0  0  0
 12 25  1  0  0  0  0
 13 21  1  0  0  0  0
 13 23  2  0  0  0  0
 14 25  2  0  0  0  0
 14 26  1  0  0  0  0
 15 28  2  0  0  0  0
 15 61  1  0  0  0  0
 16 27  1  0  0  0  0
 17 27  1  0  0  0  0
 17 29  2  0  0  0  0
 17 33  1  0  0  0  0
 18 20  2  0  0  0  0
 18 39  1  0  0  0  0
 19 21  2  0  0  0  0
 19 40  1  0  0  0  0
 20 48  1  0  0  0  0
 21 41  1  0  0  0  0
 22 78  1  0  0  0  0
 23 79  1  0  0  0  0
 24 26  2  0  0  0  0
 24 78  1  0  0  0  0
 25 80  1  0  0  0  0
 26 81  1  0  0  0  0
 27 62  2  0  0  0  0
 28 31  1  0  0  0  0
 28 82  1  0  0  0  0
 29 63  1  0  0  0  0
 29 66  1  0  0  0  0
 30 61  2  0  0  0  0
 30 68  1  0  0  0  0
 30 82  1  0  0  0  0
 31 32  2  0  0  0  0
 32 34  1  0  0  0  0
 33 67  1  0  0  0  0
 33 72  2  0  0  0  0
 34 64  1  0  0  0  0
 34 73  2  0  0  0  0
 35 49  1  0  0  0  0
 35 69  1  0  0  0  0
 35 74  2  0  0  0  0
 36 57  1  0  0  0  0
 36 65  1  0  0  0  0
 36 75  2  0  0  0  0
 37 58  1  0  0  0  0
 37 70  1  0  0  0  0
 37 76  2  0  0  0  0
 38 59  1  0  0  0  0
 38 68  1  0  0  0  0
 38 77  2  0  0  0  0
 39 42  1  0  0  0  0
 40 49  1  0  0  0  0
 41 65  1  0  0  0  0
 42 44  1  0  0  0  0
 43 45  1  0  0  0  0
 43 46  1  0  0  0  0
 44 48  1  0  0  0  0
 45 50  1  0  0  0  0
 46 64  1  0  0  0  0
 47 50  1  0  0  0  0
 47 64  1  0  0  0  0
 48 69  1  0  0  0  0
 49 65  1  0  0  0  0
 50 63  1  0  0  0  0
 51 58  1  0  0  0  0
 52 59  1  0  0  0  0
 53 60  1  0  0  0  0
 54 60  1  0  0  0  0
 55 60  1  0  0  0  0
 56 71  1  0  0  0  0
 57 60  1  0  0  0  0
 57 70  1  0  0  0  0
 58 71  1  0  0  0  0
 59 79  1  0  0  0  0
 62 63  1  0  0  0  0
M  CHG  1  71   1
M  ISO  4  32 100  34 100  59 101  79 101
M  END
> <Batch ID>
0184

> <Smiles>
CNC(C)C(=O)NC(C(=O)N1Cc2cc([101O:1][101CH:1](C)C(=O)Nc3ncc(C=[100CH:0][100C:0](=O)N4CCCC(n5nc(-c6ccc(Oc7ccc(F)cc7F)cc6)c(C(N)=O)c5N)C4)s3)ccc2CC1C(=O)NC1CCCc2ccccc21)C(C)(C)C

> <Shape>
0.293

> <Color>
0.116

> <Negative vol penalty>
0.000

$$$$

  -OEChem-04052305023D

 84 92  0     1  0  0  0  0  0999 V2000
  -30.3761  -23.2968   14.2534 C   0  0  0  0  0  0  0  0  0  0  0  0
  -30.0318  -22.7955   15.5046 C   0  0  0  0  0  0  0  0  0  0  0  0
  -31.9837  -18.0858   20.0922 C   0  0  0  0  0  0  0  0  0  0  0  0
  -30.5174  -17.3131   21.8499 C   0  0  0  0  0  0  0  0  0  0  0  0
  -30.5358  -24.6702   14.0737 C   0  0  0  0  0  0  0  0  0  0  0  0
  -29.8481  -23.6673   16.5773 C   0  0  0  0  0  0  0  0  0  0  0  0
  -25.8315  -23.0690   21.1614 C   0  0  0  0  0  0  0  0  0  0  0  0
  -32.1413  -16.7735   19.6466 C   0  0  0  0  0  0  0  0  0  0  0  0
  -30.6750  -16.0007   21.4044 C   0  0  0  0  0  0  0  0  0  0  0  0
  -25.9601  -22.5912   22.4649 C   0  0  0  0  0  0  0  0  0  0  0  0
  -29.4629  -14.0517   18.9239 C   0  0  0  0  0  0  0  0  0  0  0  0
  -28.3179  -13.2618   18.8217 C   0  0  0  0  0  0  0  0  0  0  0  0
  -26.2525  -24.8505   23.2579 C   0  0  0  0  0  0  0  0  0  0  0  0
  -29.2558  -11.6974   20.4061 C   0  0  0  0  0  0  0  0  0  0  0  0
  -30.3622  -19.6815   28.8648 C   0  0  0  0  0  0  0  0  0  0  0  0
  -30.4745  -18.6849   30.8152 C   0  0  0  0  0  0  0  0  0  0  0  0
  -31.1718  -18.3556   21.1939 C   0  0  0  0  0  0  0  0  0  0  0  0
  -30.0304  -20.6365   21.2456 C   0  0  0  0  0  0  0  0  0  0  0  0
  -30.3445  -25.5601   15.1425 C   0  0  0  0  0  0  0  0  0  0  0  0
  -25.9235  -24.4426   20.8946 C   0  0  0  0  0  0  0  0  0  0  0  0
  -30.0067  -25.0538   16.4121 C   0  0  0  0  0  0  0  0  0  0  0  0
  -26.1221  -25.3435   21.9506 C   0  0  0  0  0  0  0  0  0  0  0  0
  -31.4869  -15.7309   20.3027 C   0  0  0  0  0  0  0  0  0  0  0  0
  -26.1735  -23.4817   23.5130 C   0  0  0  0  0  0  0  0  0  0  0  0
  -30.5045  -13.6645   19.7671 C   0  0  0  0  0  0  0  0  0  0  0  0
  -28.2143  -12.0846   19.5628 C   0  0  0  0  0  0  0  0  0  0  0  0
  -30.4008  -12.4874   20.5083 C   0  0  0  0  0  0  0  0  0  0  0  0
  -31.0091  -19.7110   21.6549 C   0  0  0  0  0  0  0  0  0  0  0  0
  -31.0564  -20.6533   29.5546 C   0  0  0  0  0  0  0  0  0  0  0  0
  -30.3037  -21.7693   21.9727 C   0  0  0  0  0  0  0  0  0  0  0  0
  -27.4659  -23.2745   25.4514 C   0  0  0  0  0  0  0  0  0  1  0  0
  -28.9692  -20.4856   20.2934 C   0  0  0  0  0  0  0  0  0  0  0  0
  -27.7742  -22.9018   26.7034 C   0  0  0  0  0  0  0  0  0  0  0  0
  -29.1163  -23.2927   27.2419 C   0  0  0  0  0  0  0  0  0  0  0  0
  -27.8791  -26.2682   19.1782 C   0  0  0  0  0  0  0  0  0  0  0  0
  -25.7717  -28.6011   19.9774 C   0  0  0  0  0  0  0  0  0  0  0  0
  -23.3845  -29.7331   22.1377 C   0  0  0  0  0  0  0  0  0  0  0  0
  -33.0525  -22.6871   27.2122 C   0  0  0  0  0  0  0  0  0  0  0  0
  -30.5746  -27.0326   14.9111 C   0  0  0  0  0  0  0  0  0  0  0  0
  -25.7559  -24.9444   19.4866 C   0  0  0  0  0  0  0  0  0  0  0  0
  -26.2081  -26.8293   21.7197 C   0  0  0  0  0  0  0  0  0  0  0  0
  -29.9952  -27.9196   16.0101 C   0  0  0  0  0  0  0  0  0  0  0  0
  -33.9257  -24.0954   24.0609 C   0  0  0  0  0  0  0  0  0  0  0  0
  -30.3597  -27.3716   17.3862 C   0  0  0  0  0  0  0  0  0  0  0  0
  -33.1889  -23.2150   23.0500 C   0  0  0  0  0  0  0  0  0  0  0  0
  -34.4391  -23.2834   25.2480 C   0  0  0  0  0  0  0  0  0  0  0  0
  -32.6788  -21.5900   24.9203 C   0  0  0  0  0  0  0  0  0  0  0  0
  -29.7746  -25.9695   17.5943 C   0  0  1  0  0  0  0  0  0  0  0  0
  -26.3798  -26.3185   19.2637 C   0  0  1  0  0  0  0  0  0  0  0  0
  -32.0939  -22.3733   23.7326 C   0  0  2  0  0  0  0  0  0  0  0  0
  -21.8701  -31.6911   22.5503 C   0  0  0  0  0  0  0  0  0  0  0  0
  -28.1430  -30.2118   21.0227 C   0  0  0  0  0  0  0  0  0  0  0  0
  -26.5209  -31.6732   22.2480 C   0  0  0  0  0  0  0  0  0  0  0  0
  -26.4501  -31.5490   19.7576 C   0  0  0  0  0  0  0  0  0  0  0  0
  -20.9579  -28.0580   21.8835 C   0  0  0  0  0  0  0  0  0  0  0  0
  -30.5343  -23.1053   29.2812 C   0  0  0  0  0  0  0  0  0  0  0  0
  -31.5733  -21.9958   29.0812 C   0  0  2  0  0  0  0  0  0  0  0  0
  -25.6419  -29.5788   21.1203 C   0  0  1  0  0  0  0  0  0  0  0  0
  -22.0073  -30.3245   21.8971 C   0  0  2  0  0  0  0  0  0  0  0  0
  -26.6893  -30.7251   21.0416 C   0  0  0  0  0  0  0  0  0  0  0  0
  -30.0280  -18.5518   29.5860 N   0  0  0  0  0  0  0  0  0  0  0  0
  -31.8420  -20.2125   22.5708 N   0  0  0  0  0  0  0  0  0  0  0  0
  -31.3874  -21.4654   22.7430 N   0  0  0  0  0  0  0  0  0  0  0  0
  -26.0444  -27.2704   20.3247 N   0  0  0  0  0  0  0  0  0  0  0  0
  -33.3514  -22.5096   25.8513 N   0  0  0  0  0  0  0  0  0  0  0  0
  -29.7203  -22.9857   22.0218 N   0  0  0  0  0  0  0  0  0  0  0  0
  -28.8310  -19.2554   19.6363 N   0  0  0  0  0  0  0  0  0  0  0  0
  -29.3195  -22.8537   28.5389 N   0  0  0  0  0  0  0  0  0  0  0  0
  -28.3629  -26.0515   17.9021 N   0  0  0  0  0  0  0  0  0  0  0  0
  -24.2559  -30.0343   21.1124 N   0  0  0  0  0  0  0  0  0  0  0  0
  -32.0032  -21.9196   27.7028 N   0  0  0  0  0  0  0  0  0  0  0  0
  -20.9544  -29.4293   22.4548 N   0  3  0  0  0  0  0  0  0  0  0  0
  -28.1773  -21.4195   20.0210 O   0  0  0  0  0  0  0  0  0  0  0  0
  -29.9257  -23.9352   26.5787 O   0  0  0  0  0  0  0  0  0  0  0  0
  -28.5476  -26.4166   20.1945 O   0  0  0  0  0  0  0  0  0  0  0  0
  -25.6292  -29.0020   18.8196 O   0  0  0  0  0  0  0  0  0  0  0  0
  -23.6608  -29.0732   23.1371 O   0  0  0  0  0  0  0  0  0  0  0  0
  -33.6712  -23.4754   27.9352 O   0  0  0  0  0  0  0  0  0  0  0  0
  -26.9364  -22.1835   27.5280 O   0  0  0  0  0  0  0  0  0  0  0  0
  -31.6403  -14.4503   19.8681 O   0  0  0  0  0  0  0  0  0  0  0  0
  -26.3001  -23.0179   24.7860 O   0  0  0  0  0  0  0  0  0  1  0  0
  -27.1140  -11.3269   19.4658 F   0  0  0  0  0  0  0  0  0  0  0  0
  -31.3976  -12.1108   21.3210 F   0  0  0  0  0  0  0  0  0  0  0  0
  -31.3047  -20.1435   31.1732 S   0  0  0  0  0  0  0  0  0  0  0  0
  1  2  1  0  0  0  0
  1  5  2  0  0  0  0
  2  6  2  0  0  0  0
  3  8  2  0  0  0  0
  3 17  1  0  0  0  0
  4  9  1  0  0  0  0
  4 17  2  0  0  0  0
  5 19  1  0  0  0  0
  6 21  1  0  0  0  0
  7 10  2  0  0  0  0
  7 20  1  0  0  0  0
  8 23  1  0  0  0  0
  9 23  2  0  0  0  0
 10 24  1  0  0  0  0
 11 12  2  0  0  0  0
 11 25  1  0  0  0  0
 12 26  1  0  0  0  0
 13 22  1  0  0  0  0
 13 24  2  0  0  0  0
 14 26  2  0  0  0  0
 14 27  1  0  0  0  0
 15 29  2  0  0  0  0
 15 61  1  0  0  0  0
 16 61  2  0  0  0  0
 16 84  1  0  0  0  0
 17 28  1  0  0  0  0
 18 28  1  0  0  0  0
 18 30  2  0  0  0  0
 18 32  1  0  0  0  0
 19 21  2  0  0  0  0
 19 39  1  0  0  0  0
 20 22  2  0  0  0  0
 20 40  1  0  0  0  0
 21 48  1  0  0  0  0
 22 41  1  0  0  0  0
 23 80  1  0  0  0  0
 24 81  1  0  0  0  0
 25 27  2  0  0  0  0
 25 80  1  0  0  0  0
 26 82  1  0  0  0  0
 27 83  1  0  0  0  0
 28 62  2  0  0  0  0
 29 57  1  0  0  0  0
 29 84  1  0  0  0  0
 30 63  1  0  0  0  0
 30 66  1  0  0  0  0
 31 33  2  0  0  0  0
 31 81  1  0  0  0  0
 32 67  1  0  0  0  0
 32 73  2  0  0  0  0
 33 34  1  0  0  0  0
 33 79  1  0  0  0  0
 34 68  1  0  0  0  0
 34 74  2  0  0  0  0
 35 49  1  0  0  0  0
 35 69  1  0  0  0  0
 35 75  2  0  0  0  0
 36 58  1  0  0  0  0
 36 64  1  0  0  0  0
 36 76  2  0  0  0  0
 37 59  1  0  0  0  0
 37 70  1  0  0  0  0
 37 77  2  0  0  0  0
 38 65  1  0  0  0  0
 38 71  1  0  0  0  0
 38 78  2  0  0  0  0
 39 42  1  0  0  0  0
 40 49  1  0  0  0  0
 41 64  1  0  0  0  0
 42 44  1  0  0  0  0
 43 45  1  0  0  0  0
 43 46  1  0  0  0  0
 44 48  1  0  0  0  0
 45 50  1  0  0  0  0
 46 65  1  0  0  0  0
 47 50  1  0  0  0  0
 47 65  1  0  0  0  0
 48 69  1  0  0  0  0
 49 64  1  0  0  0  0
 50 63  1  0  0  0  0
 51 59  1  0  0  0  0
 52 60  1  0  0  0  0
 53 60  1  0  0  0  0
 54 60  1  0  0  0  0
 55 72  1  0  0  0  0
 56 57  1  0  0  0  0
 56 68  1  0  0  0  0
 57 71  1  0  0  0  0
 58 60  1  0  0  0  0
 58 70  1  0  0  0  0
 59 72  1  0  0  0  0
 62 63  1  0  0  0  0
M  CHG  1  72   1
M  ISO  4  31 101  38 100  71 100  81 101
M  END
> <Batch ID>
0184

> <Smiles>
CNC(C)C(=O)NC(C(=O)N1Cc2cc([101O:1][101CH2:1]C(=O)C(=O)NCC([100NH:0][100C:0](=O)N3CCCC(n4nc(-c5ccc(Oc6ccc(F)cc6F)cc5)c(C(N)=O)c4N)C3)c3cncs3)ccc2CC1C(=O)NC1CCCc2ccccc21)C(C)(C)C

> <Shape>
0.194

> <Color>
0.082

> <Negative vol penalty>
0.000

$$$$

  -OEChem-04052305023D

 87 95  0     1  0  0  0  0  0999 V2000
  -18.6472  -26.6487   22.5253 C   0  0  0  0  0  0  0  0  0  0  0  0
  -19.8784  -26.6238   21.8782 C   0  0  0  0  0  0  0  0  0  0  0  0
  -26.7857  -11.0998   21.0440 C   0  0  0  0  0  0  0  0  0  0  0  0
  -25.8144  -13.0183   19.9425 C   0  0  0  0  0  0  0  0  0  0  0  0
  -18.1429  -27.8525   23.0157 C   0  0  0  0  0  0  0  0  0  0  0  0
  -20.6056  -27.8031   21.7199 C   0  0  0  0  0  0  0  0  0  0  0  0
  -25.5164  -27.2183   22.8097 C   0  0  0  0  0  0  0  0  0  0  0  0
  -25.5228  -10.7225   21.5005 C   0  0  0  0  0  0  0  0  0  0  0  0
  -24.5515  -12.6409   20.3990 C   0  0  0  0  0  0  0  0  0  0  0  0
  -26.3142  -26.6053   21.8445 C   0  0  0  0  0  0  0  0  0  0  0  0
  -22.7813   -9.1840   20.2556 C   0  0  0  0  0  0  0  0  0  0  0  0
  -22.4254   -7.8401   20.1411 C   0  0  0  0  0  0  0  0  0  0  0  0
  -27.1091  -28.7698   21.1357 C   0  0  0  0  0  0  0  0  0  0  0  0
  -22.1478   -7.7095   22.5376 C   0  0  0  0  0  0  0  0  0  0  0  0
  -30.4706  -22.1221   21.1410 C   0  0  0  0  0  0  0  0  0  0  0  0
  -26.9315  -12.2477   20.2650 C   0  0  0  0  0  0  0  0  0  0  0  0
  -28.8527  -12.2579   18.5868 C   0  0  0  0  0  0  0  0  0  0  0  0
  -18.8687  -29.0455   22.8719 C   0  0  0  0  0  0  0  0  0  0  0  0
  -25.5007  -28.6146   22.9381 C   0  0  0  0  0  0  0  0  0  0  0  0
  -20.1099  -29.0242   22.2076 C   0  0  0  0  0  0  0  0  0  0  0  0
  -26.3122  -29.3979   22.1051 C   0  0  0  0  0  0  0  0  0  0  0  0
  -29.7248  -20.4031   19.7658 C   0  0  0  0  0  0  0  0  0  0  0  0
  -29.6126  -21.7788   20.1195 C   0  0  0  0  0  0  0  0  0  0  0  0
  -24.4057  -11.4930   21.1780 C   0  0  0  0  0  0  0  0  0  0  0  0
  -27.1085  -27.3812   21.0054 C   0  0  0  0  0  0  0  0  0  0  0  0
  -22.8205   -9.7906   21.5111 C   0  0  0  0  0  0  0  0  0  0  0  0
  -22.1087   -7.1029   21.2821 C   0  0  0  0  0  0  0  0  0  0  0  0
  -22.5037   -9.0533   22.6520 C   0  0  0  0  0  0  0  0  0  0  0  0
  -28.2358  -12.6383   19.7937 C   0  0  0  0  0  0  0  0  0  0  0  0
  -30.0720  -12.8898   18.6103 C   0  0  0  0  0  0  0  0  0  0  0  0
  -30.6646  -19.7473   20.5305 C   0  0  0  0  0  0  0  0  0  0  0  0
  -28.3669  -11.4094   17.5382 C   0  0  0  0  0  0  0  0  0  0  0  0
  -27.5577  -24.7171   18.9599 C   0  0  0  0  0  0  0  0  0  0  0  0
  -27.2737  -26.0239   19.1078 C   0  0  0  0  0  0  0  0  0  1  0  0
  -28.5926  -24.0578   19.8247 C   0  0  0  0  0  0  0  0  0  0  0  0
  -23.2822  -30.8705   22.6329 C   0  0  0  0  0  0  0  0  0  0  0  0
  -25.6511  -32.8004   23.7219 C   0  0  0  0  0  0  0  0  0  0  0  0
  -28.9983  -33.3464   24.1030 C   0  0  0  0  0  0  0  0  0  0  0  0
  -32.0645  -17.8166   21.3421 C   0  0  0  0  0  0  0  0  0  0  0  0
  -18.2610  -30.3302   23.3766 C   0  0  0  0  0  0  0  0  0  0  0  0
  -24.6549  -29.2589   24.0021 C   0  0  0  0  0  0  0  0  0  0  0  0
  -26.3468  -30.8995   22.2158 C   0  0  0  0  0  0  0  0  0  0  0  0
  -19.2661  -31.4725   23.4993 C   0  0  0  0  0  0  0  0  0  0  0  0
  -33.3843  -14.5249   21.6582 C   0  0  0  0  0  0  0  0  0  0  0  0
  -20.1276  -31.5627   22.2437 C   0  0  0  0  0  0  0  0  0  0  0  0
  -32.2724  -13.6333   21.1005 C   0  0  0  0  0  0  0  0  0  0  0  0
  -32.8218  -15.7158   22.4321 C   0  0  0  0  0  0  0  0  0  0  0  0
  -30.7241  -15.6304   21.1431 C   0  0  0  0  0  0  0  0  0  0  0  0
  -20.9398  -30.2783   22.0385 C   0  0  1  0  0  0  0  0  0  0  0  0
  -24.3268  -30.7183   23.7022 C   0  0  1  0  0  0  0  0  0  0  0  0
  -31.2409  -14.4529   20.3004 C   0  0  2  0  0  0  0  0  0  0  0  0
  -26.2639  -26.7594   18.2758 C   0  0  0  0  0  0  0  0  0  0  0  0
  -30.6303  -35.0302   24.9967 C   0  0  0  0  0  0  0  0  0  0  0  0
  -25.1705  -34.5607   21.2765 C   0  0  0  0  0  0  0  0  0  0  0  0
  -27.3869  -35.6428   21.7064 C   0  0  0  0  0  0  0  0  0  0  0  0
  -25.5667  -35.8153   23.4034 C   0  0  0  0  0  0  0  0  0  0  0  0
  -30.0894  -31.4191   26.0661 C   0  0  0  0  0  0  0  0  0  0  0  0
  -26.7537  -33.6067   23.0791 C   0  0  1  0  0  0  0  0  0  0  0  0
  -29.8174  -33.7823   25.3044 C   0  0  2  0  0  0  0  0  0  0  0  0
  -28.9251  -19.7505   18.6986 C   0  0  0  0  0  0  0  0  0  0  0  0
  -26.2175  -34.8782   22.3627 C   0  0  0  0  0  0  0  0  0  0  0  0
  -29.0003  -13.4489   20.5303 N   0  0  0  0  0  0  0  0  0  0  0  0
  -30.1100  -13.5830   19.7843 N   0  0  0  0  0  0  0  0  0  0  0  0
  -25.4974  -31.4829   23.2674 N   0  0  0  0  0  0  0  0  0  0  0  0
  -31.8552  -16.4472   21.6102 N   0  0  0  0  0  0  0  0  0  0  0  0
  -31.1046  -12.9145   17.7411 N   0  0  0  0  0  0  0  0  0  0  0  0
  -27.0928  -10.8415   17.6744 N   0  0  0  0  0  0  0  0  0  0  0  0
  -28.7355  -22.7120   19.5147 N   0  0  0  0  0  0  0  0  0  0  0  0
  -31.0972  -18.3981   20.5230 N   0  0  0  0  0  0  0  0  0  0  0  0
  -22.0810  -30.2544   22.9281 N   0  0  0  0  0  0  0  0  0  0  0  0
  -27.7268  -33.8792   24.1313 N   0  0  0  0  0  0  0  0  0  0  0  0
  -30.7559  -32.6987   25.7122 N   0  3  0  0  0  0  0  0  0  0  0  0
  -29.0494  -11.1488   16.5184 O   0  0  0  0  0  0  0  0  0  0  0  0
  -29.1948  -24.6959   20.6809 O   0  0  0  0  0  0  0  0  0  0  0  0
  -23.5459  -31.5014   21.6161 O   0  0  0  0  0  0  0  0  0  0  0  0
  -24.9566  -33.3180   24.6002 O   0  0  0  0  0  0  0  0  0  0  0  0
  -29.4432  -32.6102   23.2251 O   0  0  0  0  0  0  0  0  0  0  0  0
  -33.0452  -18.4216   21.7826 O   0  0  0  0  0  0  0  0  0  0  0  0
  -26.9164  -23.9482   18.0069 O   0  0  0  0  0  0  0  0  0  0  0  0
  -23.1732  -11.1250   21.6230 O   0  0  0  0  0  0  0  0  0  0  0  0
  -27.8877  -26.7856   20.0620 O   0  0  0  0  0  0  0  0  0  1  0  0
  -21.7655   -5.8129   21.1718 F   0  0  0  0  0  0  0  0  0  0  0  0
  -22.5385   -9.6309   23.8608 F   0  0  0  0  0  0  0  0  0  0  0  0
  -28.0515  -20.5935   18.0667 F   0  0  0  0  0  0  0  0  0  0  0  0
  -29.6802  -19.2110   17.6927 F   0  0  0  0  0  0  0  0  0  0  0  0
  -28.1569  -18.7196   19.1648 F   0  0  0  0  0  0  0  0  0  0  0  0
  -31.4065  -20.7889   21.6694 S   0  0  0  0  0  0  0  0  0  0  0  0
  1  2  1  0  0  0  0
  1  5  2  0  0  0  0
  2  6  2  0  0  0  0
  3  8  2  0  0  0  0
  3 16  1  0  0  0  0
  4  9  1  0  0  0  0
  4 16  2  0  0  0  0
  5 18  1  0  0  0  0
  6 20  1  0  0  0  0
  7 10  2  0  0  0  0
  7 19  1  0  0  0  0
  8 24  1  0  0  0  0
  9 24  2  0  0  0  0
 10 25  1  0  0  0  0
 11 12  2  0  0  0  0
 11 26  1  0  0  0  0
 12 27  1  0  0  0  0
 13 21  1  0  0  0  0
 13 25  2  0  0  0  0
 14 27  2  0  0  0  0
 14 28  1  0  0  0  0
 15 23  2  0  0  0  0
 15 87  1  0  0  0  0
 16 29  1  0  0  0  0
 17 29  1  0  0  0  0
 17 30  2  0  0  0  0
 17 32  1  0  0  0  0
 18 20  2  0  0  0  0
 18 40  1  0  0  0  0
 19 21  2  0  0  0  0
 19 41  1  0  0  0  0
 20 49  1  0  0  0  0
 21 42  1  0  0  0  0
 22 23  1  0  0  0  0
 22 31  2  0  0  0  0
 22 60  1  0  0  0  0
 23 68  1  0  0  0  0
 24 80  1  0  0  0  0
 25 81  1  0  0  0  0
 26 28  2  0  0  0  0
 26 80  1  0  0  0  0
 27 82  1  0  0  0  0
 28 83  1  0  0  0  0
 29 62  2  0  0  0  0
 30 63  1  0  0  0  0
 30 66  1  0  0  0  0
 31 69  1  0  0  0  0
 31 87  1  0  0  0  0
 32 67  1  0  0  0  0
 32 73  2  0  0  0  0
 33 34  2  0  0  0  0
 33 35  1  0  0  0  0
 33 79  1  0  0  0  0
 34 52  1  0  0  0  0
 34 81  1  0  0  0  0
 35 68  1  0  0  0  0
 35 74  2  0  0  0  0
 36 50  1  0  0  0  0
 36 70  1  0  0  0  0
 36 75  2  0  0  0  0
 37 58  1  0  0  0  0
 37 64  1  0  0  0  0
 37 76  2  0  0  0  0
 38 59  1  0  0  0  0
 38 71  1  0  0  0  0
 38 77  2  0  0  0  0
 39 65  1  0  0  0  0
 39 69  1  0  0  0  0
 39 78  2  0  0  0  0
 40 43  1  0  0  0  0
 41 50  1  0  0  0  0
 42 64  1  0  0  0  0
 43 45  1  0  0  0  0
 44 46  1  0  0  0  0
 44 47  1  0  0  0  0
 45 49  1  0  0  0  0
 46 51  1  0  0  0  0
 47 65  1  0  0  0  0
 48 51  1  0  0  0  0
 48 65  1  0  0  0  0
 49 70  1  0  0  0  0
 50 64  1  0  0  0  0
 51 63  1  0  0  0  0
 53 59  1  0  0  0  0
 54 61  1  0  0  0  0
 55 61  1  0  0  0  0
 56 61  1  0  0  0  0
 57 72  1  0  0  0  0
 58 61  1  0  0  0  0
 58 71  1  0  0  0  0
 59 72  1  0  0  0  0
 60 84  1  0  0  0  0
 60 85  1  0  0  0  0
 60 86  1  0  0  0  0
 62 63  1  0  0  0  0
M  CHG  1  72   1
M  ISO  4  34 101  39 100  69 100  81 101
M  END
> <Batch ID>
0184

> <Smiles>
CNC(C)C(=O)NC(C(=O)N1Cc2cc([101O:1][101CH:1](C)C(=O)C(=O)Nc3csc([100NH:0][100C:0](=O)N4CCCC(n5nc(-c6ccc(Oc7ccc(F)cc7F)cc6)c(C(N)=O)c5N)C4)c3C(F)(F)F)ccc2CC1C(=O)NC1CCCc2ccccc21)C(C)(C)C

> <Shape>
0.362

> <Color>
0.069

> <Negative vol penalty>
0.000

$$$$

  -OEChem-04052305023D

 82 90  0     1  0  0  0  0  0999 V2000
  -18.1355  -27.2144   23.3215 C   0  0  0  0  0  0  0  0  0  0  0  0
  -18.5122  -26.4523   22.2203 C   0  0  0  0  0  0  0  0  0  0  0  0
  -26.1738  -12.9361   21.7810 C   0  0  0  0  0  0  0  0  0  0  0  0
  -25.7949  -13.8891   19.5935 C   0  0  0  0  0  0  0  0  0  0  0  0
  -18.9515  -28.2572   23.7581 C   0  0  0  0  0  0  0  0  0  0  0  0
  -19.7047  -26.7333   21.5543 C   0  0  0  0  0  0  0  0  0  0  0  0
  -24.9877  -23.4963   17.9588 C   0  0  0  0  0  0  0  0  0  0  0  0
  -24.9761  -12.2283   21.6802 C   0  0  0  0  0  0  0  0  0  0  0  0
  -24.5972  -13.1813   19.4926 C   0  0  0  0  0  0  0  0  0  0  0  0
  -25.6705  -23.5746   16.7458 C   0  0  0  0  0  0  0  0  0  0  0  0
  -23.8610   -9.4233   20.1566 C   0  0  0  0  0  0  0  0  0  0  0  0
  -23.8680   -8.0803   20.5331 C   0  0  0  0  0  0  0  0  0  0  0  0
  -27.0393  -25.3494   17.6377 C   0  0  0  0  0  0  0  0  0  0  0  0
  -22.2039   -8.5452   22.2219 C   0  0  0  0  0  0  0  0  0  0  0  0
  -29.9650  -20.5367   18.3275 C   0  0  0  0  0  0  0  0  0  0  0  0
  -28.9111  -22.1774   19.3282 C   0  0  0  0  0  0  0  0  0  0  0  0
  -26.5832  -13.7665   20.7377 C   0  0  0  0  0  0  0  0  0  0  0  0
  -29.0977  -14.0706   20.4336 C   0  0  0  0  0  0  0  0  0  0  0  0
  -20.1593  -28.5450   23.1031 C   0  0  0  0  0  0  0  0  0  0  0  0
  -25.3188  -24.3529   19.0186 C   0  0  0  0  0  0  0  0  0  0  0  0
  -20.5369  -27.7818   21.9818 C   0  0  0  0  0  0  0  0  0  0  0  0
  -26.3609  -25.2783   18.8640 C   0  0  0  0  0  0  0  0  0  0  0  0
  -29.4828  -21.8378   18.1275 C   0  0  0  0  0  0  0  0  0  0  0  0
  -24.1878  -12.3509   20.5360 C   0  0  0  0  0  0  0  0  0  0  0  0
  -26.6946  -24.5032   16.5842 C   0  0  0  0  0  0  0  0  0  0  0  0
  -23.0255  -10.3273   20.8127 C   0  0  0  0  0  0  0  0  0  0  0  0
  -23.0394   -7.6412   21.5658 C   0  0  0  0  0  0  0  0  0  0  0  0
  -22.1970   -9.8882   21.8453 C   0  0  0  0  0  0  0  0  0  0  0  0
  -27.8200  -14.4983   20.8415 C   0  0  0  0  0  0  0  0  0  0  0  0
  -29.9271  -15.1198   20.7461 C   0  0  0  0  0  0  0  0  0  0  0  0
  -29.4989  -12.8352   19.8264 C   0  0  0  0  0  0  0  0  0  0  0  0
  -23.7757  -26.6017   20.6511 C   0  0  0  0  0  0  0  0  0  0  0  0
  -26.4731  -26.5958   22.4529 C   0  0  0  0  0  0  0  0  0  0  0  0
  -30.0517  -26.4385   22.8845 C   0  0  0  0  0  0  0  0  0  0  0  0
  -30.1549  -22.3322   15.7549 C   0  0  0  0  0  0  0  0  0  0  0  0
  -28.6698  -21.0232   21.5092 C   0  0  0  0  0  0  0  0  0  0  0  0
  -20.9851  -29.7123   23.5828 C   0  0  0  0  0  0  0  0  0  0  0  0
  -24.5905  -24.2377   20.3296 C   0  0  0  0  0  0  0  0  0  0  0  0
  -26.7685  -26.2068   19.9776 C   0  0  0  0  0  0  0  0  0  0  0  0
  -22.4159  -29.7056   23.0508 C   0  0  0  0  0  0  0  0  0  0  0  0
  -30.3676  -18.7678   23.8140 C   0  0  0  0  0  0  0  0  0  0  0  0
  -22.4270  -29.4215   21.5522 C   0  0  0  0  0  0  0  0  0  0  0  0
  -29.9832  -17.3805   23.2969 C   0  0  0  0  0  0  0  0  0  0  0  0
  -29.2742  -19.7995   23.5469 C   0  0  0  0  0  0  0  0  0  0  0  0
  -28.4447  -18.4877   21.6310 C   0  0  0  0  0  0  0  0  0  0  0  0
  -21.8351  -28.0399   21.2482 C   0  0  1  0  0  0  0  0  0  0  0  0
  -24.6673  -25.5090   21.1694 C   0  0  1  0  0  0  0  0  0  0  0  0
  -29.5482  -17.4366   21.8203 C   0  0  2  0  0  0  0  0  0  0  0  0
  -31.4449  -26.4391   24.9717 C   0  0  0  0  0  0  0  0  0  0  0  0
  -26.6339  -29.6086   21.9976 C   0  0  0  0  0  0  0  0  0  0  0  0
  -29.0159  -29.5270   22.7643 C   0  0  0  0  0  0  0  0  0  0  0  0
  -27.1822  -28.8745   24.3246 C   0  0  0  0  0  0  0  0  0  0  0  0
  -31.4024  -23.9177   22.1227 C   0  0  0  0  0  0  0  0  0  0  0  0
  -28.7965  -23.3667   13.8684 C   0  0  0  0  0  0  0  0  0  0  0  0
  -27.4787  -23.3808   14.6395 C   0  0  0  0  0  0  0  0  0  1  0  0
  -27.7880  -27.3364   22.4116 C   0  0  1  0  0  0  0  0  0  0  0  0
  -30.8097  -25.5852   23.8853 C   0  0  2  0  0  0  0  0  0  0  0  0
  -30.0405  -23.4700   14.7548 C   0  0  2  0  0  0  0  0  0  0  0  0
  -27.6462  -28.8206   22.8527 C   0  0  0  0  0  0  0  0  0  0  0  0
  -29.7236  -20.0792   19.5567 N   0  0  0  0  0  0  0  0  0  0  0  0
  -27.8318  -15.7238   21.3727 N   0  0  0  0  0  0  0  0  0  0  0  0
  -29.0318  -21.0796   20.1566 N   0  0  0  0  0  0  0  0  0  0  0  0
  -29.1270  -16.0749   21.3009 N   0  0  0  0  0  0  0  0  0  0  0  0
  -26.0222  -26.0600   21.2382 N   0  0  0  0  0  0  0  0  0  0  0  0
  -28.8880  -19.7975   22.1368 N   0  0  0  0  0  0  0  0  0  0  0  0
  -31.2554  -15.3094   20.5978 N   0  0  0  0  0  0  0  0  0  0  0  0
  -28.5191  -11.8653   19.5745 N   0  0  0  0  0  0  0  0  0  0  0  0
  -29.5657  -22.6500   16.9718 N   0  0  0  0  0  0  0  0  0  0  0  0
  -22.7988  -27.0012   21.5430 N   0  0  0  0  0  0  0  0  0  0  0  0
  -28.7200  -26.5589   23.2210 N   0  0  0  0  0  0  0  0  0  0  0  0
  -31.8880  -24.8178   23.2001 N   0  3  0  0  0  0  0  0  0  0  0  0
  -30.6937  -12.5919   19.5316 O   0  0  0  0  0  0  0  0  0  0  0  0
  -23.9613  -27.0503   19.5260 O   0  0  0  0  0  0  0  0  0  0  0  0
  -25.8719  -26.4903   23.5248 O   0  0  0  0  0  0  0  0  0  0  0  0
  -30.5882  -26.9504   21.9043 O   0  0  0  0  0  0  0  0  0  0  0  0
  -30.7287  -21.2912   15.4482 O   0  0  0  0  0  0  0  0  0  0  0  0
  -28.2658  -22.0569   22.0280 O   0  0  0  0  0  0  0  0  0  0  0  0
  -23.0191  -11.6602   20.4371 O   0  0  0  0  0  0  0  0  0  0  0  0
  -27.3623  -24.5821   15.4010 O   0  0  0  0  0  0  0  0  0  1  0  0
  -23.0451   -6.3512   21.9262 F   0  0  0  0  0  0  0  0  0  0  0  0
  -21.3913  -10.7518   22.4785 F   0  0  0  0  0  0  0  0  0  0  0  0
  -31.1458  -23.5196   13.9586 F   0  0  0  0  0  0  0  0  0  0  0  0
  1  2  1  0  0  0  0
  1  5  2  0  0  0  0
  2  6  2  0  0  0  0
  3  8  2  0  0  0  0
  3 17  1  0  0  0  0
  4  9  1  0  0  0  0
  4 17  2  0  0  0  0
  5 19  1  0  0  0  0
  6 21  1  0  0  0  0
  7 10  2  0  0  0  0
  7 20  1  0  0  0  0
  8 24  1  0  0  0  0
  9 24  2  0  0  0  0
 10 25  1  0  0  0  0
 11 12  2  0  0  0  0
 11 26  1  0  0  0  0
 12 27  1  0  0  0  0
 13 22  1  0  0  0  0
 13 25  2  0  0  0  0
 14 27  2  0  0  0  0
 14 28  1  0  0  0  0
 15 23  1  0  0  0  0
 15 60  2  0  0  0  0
 16 23  2  0  0  0  0
 16 62  1  0  0  0  0
 17 29  1  0  0  0  0
 18 29  1  0  0  0  0
 18 30  2  0  0  0  0
 18 31  1  0  0  0  0
 19 21  2  0  0  0  0
 19 37  1  0  0  0  0
 20 22  2  0  0  0  0
 20 38  1  0  0  0  0
 21 46  1  0  0  0  0
 22 39  1  0  0  0  0
 23 68  1  0  0  0  0
 24 78  1  0  0  0  0
 25 79  1  0  0  0  0
 26 28  2  0  0  0  0
 26 78  1  0  0  0  0
 27 80  1  0  0  0  0
 28 81  1  0  0  0  0
 29 61  2  0  0  0  0
 30 63  1  0  0  0  0
 30 66  1  0  0  0  0
 31 67  1  0  0  0  0
 31 72  2  0  0  0  0
 32 47  1  0  0  0  0
 32 69  1  0  0  0  0
 32 73  2  0  0  0  0
 33 56  1  0  0  0  0
 33 64  1  0  0  0  0
 33 74  2  0  0  0  0
 34 57  1  0  0  0  0
 34 70  1  0  0  0  0
 34 75  2  0  0  0  0
 35 58  1  0  0  0  0
 35 68  1  0  0  0  0
 35 76  2  0  0  0  0
 36 62  1  0  0  0  0
 36 65  1  0  0  0  0
 36 77  2  0  0  0  0
 37 40  1  0  0  0  0
 38 47  1  0  0  0  0
 39 64  1  0  0  0  0
 40 42  1  0  0  0  0
 41 43  1  0  0  0  0
 41 44  1  0  0  0  0
 42 46  1  0  0  0  0
 43 48  1  0  0  0  0
 44 65  1  0  0  0  0
 45 48  1  0  0  0  0
 45 65  1  0  0  0  0
 46 69  1  0  0  0  0
 47 64  1  0  0  0  0
 48 63  1  0  0  0  0
 49 57  1  0  0  0  0
 50 59  1  0  0  0  0
 51 59  1  0  0  0  0
 52 59  1  0  0  0  0
 53 71  1  0  0  0  0
 54 55  1  0  0  0  0
 54 58  1  0  0  0  0
 55 79  1  0  0  0  0
 56 59  1  0  0  0  0
 56 70  1  0  0  0  0
 57 71  1  0  0  0  0
 58 82  1  0  0  0  0
 60 62  1  0  0  0  0
 61 63  1  0  0  0  0
M  CHG  1  71   1
M  ISO  4  36 100  55 101  62 100  79 101
M  END
> <Batch ID>
0184

> <Smiles>
CNC(C)C(=O)NC(C(=O)N1Cc2cc([101O:1][101CH2:1]CC(F)C(=O)Nc3cn[100n:0]([100C:0](=O)N4CCCC(n5nc(-c6ccc(Oc7ccc(F)cc7F)cc6)c(C(N)=O)c5N)C4)c3)ccc2CC1C(=O)NC1CCCc2ccccc21)C(C)(C)C

> <Shape>
0.256

> <Color>
0.072

> <Negative vol penalty>
0.000

$$$$

  -OEChem-04052305023D

 86 94  0     1  0  0  0  0  0999 V2000
  -21.5366  -35.1638   23.3199 C   0  0  0  0  0  0  0  0  0  0  0  0
  -22.7128  -34.5132   22.9609 C   0  0  0  0  0  0  0  0  0  0  0  0
  -26.9549  -10.1603   21.4604 C   0  0  0  0  0  0  0  0  0  0  0  0
  -25.6038  -11.5694   20.0370 C   0  0  0  0  0  0  0  0  0  0  0  0
  -20.4780  -34.4378   23.8641 C   0  0  0  0  0  0  0  0  0  0  0  0
  -22.8314  -33.1364   23.1470 C   0  0  0  0  0  0  0  0  0  0  0  0
  -25.8672  -29.1878   19.5835 C   0  0  0  0  0  0  0  0  0  0  0  0
  -25.8063   -9.5003   21.8973 C   0  0  0  0  0  0  0  0  0  0  0  0
  -24.4552  -10.9094   20.4738 C   0  0  0  0  0  0  0  0  0  0  0  0
  -27.1342  -28.6150   19.6855 C   0  0  0  0  0  0  0  0  0  0  0  0
  -23.7202   -7.1025   20.7433 C   0  0  0  0  0  0  0  0  0  0  0  0
  -23.7581   -5.7097   20.8083 C   0  0  0  0  0  0  0  0  0  0  0  0
  -26.1612  -26.6604   20.7112 C   0  0  0  0  0  0  0  0  0  0  0  0
  -23.3027   -5.8080   23.1790 C   0  0  0  0  0  0  0  0  0  0  0  0
  -26.8536  -11.1950   20.5303 C   0  0  0  0  0  0  0  0  0  0  0  0
  -28.8477  -11.5394   18.9771 C   0  0  0  0  0  0  0  0  0  0  0  0
  -20.5802  -33.0498   24.0481 C   0  0  0  0  0  0  0  0  0  0  0  0
  -24.7371  -28.5046   20.0552 C   0  0  0  0  0  0  0  0  0  0  0  0
  -21.7737  -32.3913   23.6955 C   0  0  0  0  0  0  0  0  0  0  0  0
  -24.8807  -27.2256   20.6116 C   0  0  0  0  0  0  0  0  0  0  0  0
  -24.5565   -9.8748   21.4039 C   0  0  0  0  0  0  0  0  0  0  0  0
  -27.2817  -27.3523   20.2521 C   0  0  0  0  0  0  0  0  0  0  0  0
  -23.4737   -7.8481   21.8961 C   0  0  0  0  0  0  0  0  0  0  0  0
  -23.5493   -5.0625   22.0261 C   0  0  0  0  0  0  0  0  0  0  0  0
  -23.2649   -7.2009   23.1140 C   0  0  0  0  0  0  0  0  0  0  0  0
  -28.0396  -11.8775   20.0791 C   0  0  0  0  0  0  0  0  0  0  0  0
  -27.6396  -21.0169   18.0062 C   0  0  0  0  0  0  0  0  0  0  0  0
  -28.6600  -21.5410   18.7718 C   0  0  0  0  0  0  0  0  0  0  0  0
  -29.8397  -12.4894   18.9745 C   0  0  0  0  0  0  0  0  0  0  0  0
  -28.7723  -19.4593   19.4531 C   0  0  0  0  0  0  0  0  0  0  0  0
  -28.7136  -10.4630   18.0396 C   0  0  0  0  0  0  0  0  0  0  0  0
  -22.5526  -29.0615   22.2961 C   0  0  0  0  0  0  0  0  0  0  0  0
  -29.9054  -24.9216   19.6866 C   0  0  0  0  0  0  0  0  0  0  0  0
  -21.1748  -26.3954   21.0648 C   0  0  0  0  0  0  0  0  0  0  0  0
  -21.5472  -23.4758   19.3374 C   0  0  0  0  0  0  0  0  0  0  0  0
  -30.1417  -18.0819   21.0573 C   0  0  0  0  0  0  0  0  0  0  0  0
  -19.4268  -32.3150   24.6839 C   0  0  0  0  0  0  0  0  0  0  0  0
  -23.3742  -29.1250   19.9135 C   0  0  0  0  0  0  0  0  0  0  0  0
  -23.6969  -26.4421   21.1147 C   0  0  0  0  0  0  0  0  0  0  0  0
  -19.4941  -30.8009   24.5011 C   0  0  0  0  0  0  0  0  0  0  0  0
  -32.2761  -15.3678   21.9263 C   0  0  0  0  0  0  0  0  0  0  0  0
  -20.8962  -30.2874   24.8132 C   0  0  0  0  0  0  0  0  0  0  0  0
  -31.5082  -14.1344   21.4454 C   0  0  0  0  0  0  0  0  0  0  0  0
  -31.3389  -16.4373   22.4845 C   0  0  0  0  0  0  0  0  0  0  0  0
  -29.4757  -15.5981   21.1086 C   0  0  0  0  0  0  0  0  0  0  0  0
  -21.9314  -30.8952   23.8590 C   0  0  1  0  0  0  0  0  0  0  0  0
  -22.3539  -28.5565   20.8950 C   0  0  1  0  0  0  0  0  0  0  0  0
  -30.3719  -14.5197   20.4780 C   0  0  2  0  0  0  0  0  0  0  0  0
  -31.4436  -23.1163   18.8850 C   0  0  0  0  0  0  0  0  0  0  0  0
  -20.2475  -21.4902   18.5213 C   0  0  0  0  0  0  0  0  0  0  0  0
  -27.5526  -22.3023   15.8415 C   0  0  0  0  0  0  0  0  0  0  0  0
  -25.9109  -22.8199   17.6780 C   0  0  0  0  0  0  0  0  0  0  0  0
  -25.6858  -20.7373   16.3388 C   0  0  0  0  0  0  0  0  0  0  0  0
  -21.1409  -25.2572   23.8956 C   0  0  0  0  0  0  0  0  0  0  0  0
  -20.7415  -22.9926   22.9054 C   0  0  0  0  0  0  0  0  0  0  0  0
  -19.0690  -24.8124   22.5674 C   0  0  0  0  0  0  0  0  0  0  0  0
  -22.1731  -24.0823   16.5091 C   0  0  0  0  0  0  0  0  0  0  0  0
  -28.5903  -25.3671   20.2995 C   0  0  0  0  0  0  0  0  0  1  0  0
  -30.1088  -23.4197   19.5446 C   0  0  2  0  0  0  0  0  0  0  0  0
  -21.2771  -24.9146   21.3402 C   0  0  1  0  0  0  0  0  0  0  0  0
  -20.7610  -22.8811   18.1829 C   0  0  2  0  0  0  0  0  0  0  0  0
  -26.7477  -21.6692   17.0254 C   0  0  0  0  0  0  0  0  0  0  0  0
  -20.5798  -24.5095   22.6695 C   0  0  0  0  0  0  0  0  0  0  0  0
  -28.4802  -12.9578   20.7295 N   0  0  0  0  0  0  0  0  0  0  0  0
  -29.3104  -20.6494   19.6024 N   0  0  0  0  0  0  0  0  0  0  0  0
  -29.5760  -13.3067   20.0340 N   0  0  0  0  0  0  0  0  0  0  0  0
  -22.3859  -27.0940   20.9597 N   0  0  0  0  0  0  0  0  0  0  0  0
  -30.2909  -16.7546   21.5120 N   0  0  0  0  0  0  0  0  0  0  0  0
  -30.9032  -12.6969   18.1693 N   0  0  0  0  0  0  0  0  0  0  0  0
  -27.6366   -9.5784   18.1875 N   0  0  0  0  0  0  0  0  0  0  0  0
  -29.0382  -22.8722   18.7406 N   0  0  0  0  0  0  0  0  0  0  0  0
  -29.1338  -18.2569   20.1096 N   0  0  0  0  0  0  0  0  0  0  0  0
  -21.8797  -30.2367   22.5713 N   0  0  0  0  0  0  0  0  0  0  0  0
  -20.7476  -24.2422   20.1587 N   0  0  0  0  0  0  0  0  0  0  0  0
  -21.6188  -22.7828   16.9683 N   0  3  0  0  0  0  0  0  0  0  0  0
  -29.5341  -10.2810   17.1083 O   0  0  0  0  0  0  0  0  0  0  0  0
  -23.2625  -28.4308   23.0707 O   0  0  0  0  0  0  0  0  0  0  0  0
  -30.7595  -25.7361   19.3355 O   0  0  0  0  0  0  0  0  0  0  0  0
  -20.0616  -26.9119   20.9402 O   0  0  0  0  0  0  0  0  0  0  0  0
  -22.7495  -23.2770   19.4969 O   0  0  0  0  0  0  0  0  0  0  0  0
  -30.8734  -18.9910   21.4574 O   0  0  0  0  0  0  0  0  0  0  0  0
  -23.4356   -9.2308   21.8298 O   0  0  0  0  0  0  0  0  0  0  0  0
  -28.5173  -26.7912   20.3535 O   0  0  0  0  0  0  0  0  0  1  0  0
  -23.5842   -3.7249   22.0881 F   0  0  0  0  0  0  0  0  0  0  0  0
  -23.0263   -7.9117   24.2246 F   0  0  0  0  0  0  0  0  0  0  0  0
  -27.4804  -19.3402   18.3298 S   0  0  0  0  0  0  0  0  0  0  0  0
  1  2  1  0  0  0  0
  1  5  2  0  0  0  0
  2  6  2  0  0  0  0
  3  8  2  0  0  0  0
  3 15  1  0  0  0  0
  4  9  1  0  0  0  0
  4 15  2  0  0  0  0
  5 17  1  0  0  0  0
  6 19  1  0  0  0  0
  7 10  2  0  0  0  0
  7 18  1  0  0  0  0
  8 21  1  0  0  0  0
  9 21  2  0  0  0  0
 10 22  1  0  0  0  0
 11 12  2  0  0  0  0
 11 23  1  0  0  0  0
 12 24  1  0  0  0  0
 13 20  1  0  0  0  0
 13 22  2  0  0  0  0
 14 24  2  0  0  0  0
 14 25  1  0  0  0  0
 15 26  1  0  0  0  0
 16 26  1  0  0  0  0
 16 29  2  0  0  0  0
 16 31  1  0  0  0  0
 17 19  2  0  0  0  0
 17 37  1  0  0  0  0
 18 20  2  0  0  0  0
 18 38  1  0  0  0  0
 19 46  1  0  0  0  0
 20 39  1  0  0  0  0
 21 82  1  0  0  0  0
 22 83  1  0  0  0  0
 23 25  2  0  0  0  0
 23 82  1  0  0  0  0
 24 84  1  0  0  0  0
 25 85  1  0  0  0  0
 26 64  2  0  0  0  0
 27 28  2  0  0  0  0
 27 62  1  0  0  0  0
 27 86  1  0  0  0  0
 28 65  1  0  0  0  0
 28 71  1  0  0  0  0
 29 66  1  0  0  0  0
 29 69  1  0  0  0  0
 30 65  2  0  0  0  0
 30 72  1  0  0  0  0
 30 86  1  0  0  0  0
 31 70  1  0  0  0  0
 31 76  2  0  0  0  0
 32 47  1  0  0  0  0
 32 73  1  0  0  0  0
 32 77  2  0  0  0  0
 33 58  1  0  0  0  0
 33 59  1  0  0  0  0
 33 78  2  0  0  0  0
 34 60  1  0  0  0  0
 34 67  1  0  0  0  0
 34 79  2  0  0  0  0
 35 61  1  0  0  0  0
 35 74  1  0  0  0  0
 35 80  2  0  0  0  0
 36 68  1  0  0  0  0
 36 72  1  0  0  0  0
 36 81  2  0  0  0  0
 37 40  1  0  0  0  0
 38 47  1  0  0  0  0
 39 67  1  0  0  0  0
 40 42  1  0  0  0  0
 41 43  1  0  0  0  0
 41 44  1  0  0  0  0
 42 46  1  0  0  0  0
 43 48  1  0  0  0  0
 44 68  1  0  0  0  0
 45 48  1  0  0  0  0
 45 68  1  0  0  0  0
 46 73  1  0  0  0  0
 47 67  1  0  0  0  0
 48 66  1  0  0  0  0
 49 59  1  0  0  0  0
 50 61  1  0  0  0  0
 51 62  1  0  0  0  0
 52 62  1  0  0  0  0
 53 62  1  0  0  0  0
 54 63  1  0  0  0  0
 55 63  1  0  0  0  0
 56 63  1  0  0  0  0
 57 75  1  0  0  0  0
 58 83  1  0  0  0  0
 59 71  1  0  0  0  0
 60 63  1  0  0  0  0
 60 74  1  0  0  0  0
 61 75  1  0  0  0  0
 64 66  1  0  0  0  0
M  CHG  1  75   1
M  ISO  4  36 100  58 101  72 100  83 101
M  END
> <Batch ID>
0184

> <Smiles>
CNC(C)C(=O)NC(C(=O)N1Cc2cc([101O:1][101CH2:1]C(=O)C(C)Nc3nc([100NH:0][100C:0](=O)N4CCCC(n5nc(-c6ccc(Oc7ccc(F)cc7F)cc6)c(C(N)=O)c5N)C4)sc3C(C)(C)C)ccc2CC1C(=O)NC1CCCc2ccccc21)C(C)(C)C

> <Shape>
0.279

> <Color>
0.104

> <Negative vol penalty>
0.000

$$$$

  -OEChem-04052305023D

 86 94  0     1  0  0  0  0  0999 V2000
  -24.6546  -28.4046   16.3365 C   0  0  0  0  0  0  0  0  0  0  0  0
  -25.8653  -27.7499   16.1340 C   0  0  0  0  0  0  0  0  0  0  0  0
  -19.1748  -24.8469   21.4280 C   0  0  0  0  0  0  0  0  0  0  0  0
  -21.1348  -24.4392   22.7806 C   0  0  0  0  0  0  0  0  0  0  0  0
  -24.2554  -28.7457   17.6281 C   0  0  0  0  0  0  0  0  0  0  0  0
  -26.6781  -27.4369   17.2230 C   0  0  0  0  0  0  0  0  0  0  0  0
  -28.5536  -20.6221   18.6129 C   0  0  0  0  0  0  0  0  0  0  0  0
  -18.7062  -25.7523   22.3799 C   0  0  0  0  0  0  0  0  0  0  0  0
  -20.6662  -25.3447   23.7325 C   0  0  0  0  0  0  0  0  0  0  0  0
  -29.1283  -19.3684   18.8227 C   0  0  0  0  0  0  0  0  0  0  0  0
  -17.1683  -28.4413   24.2824 C   0  0  0  0  0  0  0  0  0  0  0  0
  -16.6585  -29.6566   23.8257 C   0  0  0  0  0  0  0  0  0  0  0  0
  -30.2562  -20.2030   20.7922 C   0  0  0  0  0  0  0  0  0  0  0  0
  -18.7932  -30.1738   22.8193 C   0  0  0  0  0  0  0  0  0  0  0  0
  -20.3891  -24.1903   21.6283 C   0  0  0  0  0  0  0  0  0  0  0  0
  -21.6962  -23.5343   19.5381 C   0  0  0  0  0  0  0  0  0  0  0  0
  -25.0592  -28.4282   18.7344 C   0  0  0  0  0  0  0  0  0  0  0  0
  -28.8161  -21.6682   19.5019 C   0  0  0  0  0  0  0  0  0  0  0  0
  -26.2899  -27.7753   18.5305 C   0  0  0  0  0  0  0  0  0  0  0  0
  -29.6735  -21.4576   20.5943 C   0  0  0  0  0  0  0  0  0  0  0  0
  -19.4519  -26.0012   23.5321 C   0  0  0  0  0  0  0  0  0  0  0  0
  -29.9776  -19.1594   19.9095 C   0  0  0  0  0  0  0  0  0  0  0  0
  -18.4906  -28.0922   24.0076 C   0  0  0  0  0  0  0  0  0  0  0  0
  -17.4709  -30.5229   23.0941 C   0  0  0  0  0  0  0  0  0  0  0  0
  -19.3030  -28.9585   23.2761 C   0  0  0  0  0  0  0  0  0  0  0  0
  -20.8734  -23.2544   20.6457 C   0  0  0  0  0  0  0  0  0  0  0  0
  -27.0733  -15.6114   21.6356 C   0  0  0  0  0  0  0  0  0  0  0  0
  -26.4235  -14.7845   20.7433 C   0  0  0  0  0  0  0  0  0  0  0  0
  -21.8690  -22.3186   18.9228 C   0  0  0  0  0  0  0  0  0  0  0  0
  -24.8438  -16.2811   21.0164 C   0  0  0  0  0  0  0  0  0  0  0  0
  -22.2544  -24.7817   19.1044 C   0  0  0  0  0  0  0  0  0  0  0  0
  -28.2037  -25.2508   20.4323 C   0  0  0  0  0  0  0  0  0  0  0  0
  -28.2064  -23.6401   23.0431 C   0  0  0  0  0  0  0  0  0  0  0  0
  -27.8648  -21.4525   25.6383 C   0  0  0  0  0  0  0  0  0  0  0  0
  -22.5081  -16.7174   20.1793 C   0  0  0  0  0  0  0  0  0  0  0  0
  -24.6078  -28.8593   20.1073 C   0  0  0  0  0  0  0  0  0  0  0  0
  -28.2679  -23.0517   19.2805 C   0  0  0  0  0  0  0  0  0  0  0  0
  -29.9548  -22.6214   21.5050 C   0  0  0  0  0  0  0  0  0  0  0  0
  -25.3514  -28.1580   21.2411 C   0  0  0  0  0  0  0  0  0  0  0  0
  -19.4257  -18.0159   18.9588 C   0  0  0  0  0  0  0  0  0  0  0  0
  -26.8536  -28.1600   20.9759 C   0  0  0  0  0  0  0  0  0  0  0  0
  -19.5636  -19.5267   19.1603 C   0  0  0  0  0  0  0  0  0  0  0  0
  -20.0782  -17.2303   20.0949 C   0  0  0  0  0  0  0  0  0  0  0  0
  -21.6136  -19.0963   20.5743 C   0  0  0  0  0  0  0  0  0  0  0  0
  -27.1875  -27.3967   19.6885 C   0  0  1  0  0  0  0  0  0  0  0  0
  -27.9304  -23.7840   20.5916 C   0  0  1  0  0  0  0  0  0  0  0  0
  -21.0283  -19.9290   19.4220 C   0  0  2  0  0  0  0  0  0  0  0  0
  -27.4206  -21.3790   28.1070 C   0  0  0  0  0  0  0  0  0  0  0  0
  -30.2718  -15.5973   19.7171 C   0  0  0  0  0  0  0  0  0  0  0  0
  -28.1919  -14.0927   25.9896 C   0  0  0  0  0  0  0  0  0  0  0  0
  -26.8052  -13.4668   23.9973 C   0  0  0  0  0  0  0  0  0  0  0  0
  -29.2659  -13.0427   24.0092 C   0  0  0  0  0  0  0  0  0  0  0  0
  -31.0652  -24.5575   23.5810 C   0  0  0  0  0  0  0  0  0  0  0  0
  -30.8730  -23.5756   25.8761 C   0  0  0  0  0  0  0  0  0  0  0  0
  -29.3657  -25.4408   25.1891 C   0  0  0  0  0  0  0  0  0  0  0  0
  -25.3964  -19.8631   25.2643 C   0  0  0  0  0  0  0  0  0  0  0  0
  -29.3347  -16.7204   21.8136 C   0  0  0  0  0  0  0  0  0  0  0  0
  -28.4673  -15.4048   23.7906 C   0  0  0  0  0  0  0  0  0  0  0  0
  -28.4630  -15.5083   22.2387 C   0  0  1  0  0  0  0  0  0  0  0  0
  -29.0066  -23.1348   24.2168 C   0  0  1  0  0  0  0  0  0  0  0  0
  -26.8046  -21.3273   26.7176 C   0  0  2  0  0  0  0  0  0  0  0  0
  -29.6247  -16.8414   20.3090 C   0  0  1  0  0  0  0  0  0  1  0  0
  -28.1612  -14.0277   24.4545 C   0  0  0  0  0  0  0  0  0  0  0  0
  -30.0733  -24.1610   24.6927 C   0  0  0  0  0  0  0  0  0  0  0  0
  -20.5462  -21.9623   20.7314 N   0  0  0  0  0  0  0  0  0  0  0  0
  -25.1448  -15.1667   20.3874 N   0  0  0  0  0  0  0  0  0  0  0  0
  -21.1663  -21.4195   19.6699 N   0  0  0  0  0  0  0  0  0  0  0  0
  -28.7132  -23.3659   21.7670 N   0  0  0  0  0  0  0  0  0  0  0  0
  -21.4651  -17.6619   20.2823 N   0  0  0  0  0  0  0  0  0  0  0  0
  -26.9702  -13.6580   20.2272 N   0  0  0  0  0  0  0  0  0  0  0  0
  -22.5518  -21.9416   17.8210 N   0  0  0  0  0  0  0  0  0  0  0  0
  -21.9769  -25.9339   19.8525 N   0  0  0  0  0  0  0  0  0  0  0  0
  -23.6366  -17.0192   20.9408 N   0  0  0  0  0  0  0  0  0  0  0  0
  -27.1398  -25.9690   19.9207 N   0  0  0  0  0  0  0  0  0  0  0  0
  -28.0374  -22.7617   25.2414 N   0  0  0  0  0  0  0  0  0  0  0  0
  -26.0714  -20.0376   26.5762 N   0  3  0  0  0  0  0  0  0  0  0  0
  -22.9643  -24.8746   18.0744 O   0  0  0  0  0  0  0  0  0  0  0  0
  -29.2985  -25.6995   20.7513 O   0  0  0  0  0  0  0  0  0  0  0  0
  -27.1629  -24.2661   23.2493 O   0  0  0  0  0  0  0  0  0  0  0  0
  -28.4810  -20.4861   25.1945 O   0  0  0  0  0  0  0  0  0  0  0  0
  -22.4183  -15.7287   19.4468 O   0  0  0  0  0  0  0  0  0  0  0  0
  -18.9950  -26.8849   24.4611 O   0  0  0  0  0  0  0  0  0  0  0  0
  -30.5343  -17.9261   20.1118 O   0  0  0  0  0  0  0  0  0  1  0  0
  -16.9807  -31.6893   22.6542 F   0  0  0  0  0  0  0  0  0  0  0  0
  -20.5737  -28.6281   23.0080 F   0  0  0  0  0  0  0  0  0  0  0  0
  -26.0519  -16.9250   22.0512 S   0  0  0  0  0  0  0  0  0  0  0  0
  1  2  1  0  0  0  0
  1  5  2  0  0  0  0
  2  6  2  0  0  0  0
  3  8  2  0  0  0  0
  3 15  1  0  0  0  0
  4  9  1  0  0  0  0
  4 15  2  0  0  0  0
  5 17  1  0  0  0  0
  6 19  1  0  0  0  0
  7 10  2  0  0  0  0
  7 18  1  0  0  0  0
  8 21  1  0  0  0  0
  9 21  2  0  0  0  0
 10 22  1  0  0  0  0
 11 12  2  0  0  0  0
 11 23  1  0  0  0  0
 12 24  1  0  0  0  0
 13 20  1  0  0  0  0
 13 22  2  0  0  0  0
 14 24  2  0  0  0  0
 14 25  1  0  0  0  0
 15 26  1  0  0  0  0
 16 26  1  0  0  0  0
 16 29  2  0  0  0  0
 16 31  1  0  0  0  0
 17 19  2  0  0  0  0
 17 36  1  0  0  0  0
 18 20  2  0  0  0  0
 18 37  1  0  0  0  0
 19 45  1  0  0  0  0
 20 38  1  0  0  0  0
 21 82  1  0  0  0  0
 22 83  1  0  0  0  0
 23 25  2  0  0  0  0
 23 82  1  0  0  0  0
 24 84  1  0  0  0  0
 25 85  1  0  0  0  0
 26 65  2  0  0  0  0
 27 28  2  0  0  0  0
 27 59  1  0  0  0  0
 27 86  1  0  0  0  0
 28 66  1  0  0  0  0
 28 70  1  0  0  0  0
 29 67  1  0  0  0  0
 29 71  1  0  0  0  0
 30 66  2  0  0  0  0
 30 73  1  0  0  0  0
 30 86  1  0  0  0  0
 31 72  1  0  0  0  0
 31 77  2  0  0  0  0
 32 46  1  0  0  0  0
 32 74  1  0  0  0  0
 32 78  2  0  0  0  0
 33 60  1  0  0  0  0
 33 68  1  0  0  0  0
 33 79  2  0  0  0  0
 34 61  1  0  0  0  0
 34 75  1  0  0  0  0
 34 80  2  0  0  0  0
 35 69  1  0  0  0  0
 35 73  1  0  0  0  0
 35 81  2  0  0  0  0
 36 39  1  0  0  0  0
 37 46  1  0  0  0  0
 38 68  1  0  0  0  0
 39 41  1  0  0  0  0
 40 42  1  0  0  0  0
 40 43  1  0  0  0  0
 41 45  1  0  0  0  0
 42 47  1  0  0  0  0
 43 69  1  0  0  0  0
 44 47  1  0  0  0  0
 44 69  1  0  0  0  0
 45 74  1  0  0  0  0
 46 68  1  0  0  0  0
 47 67  1  0  0  0  0
 48 61  1  0  0  0  0
 49 62  1  0  0  0  0
 50 63  1  0  0  0  0
 51 63  1  0  0  0  0
 52 63  1  0  0  0  0
 53 64  1  0  0  0  0
 54 64  1  0  0  0  0
 55 64  1  0  0  0  0
 56 76  1  0  0  0  0
 57 59  1  0  0  0  0
 57 62  1  0  0  0  0
 58 59  1  0  0  0  0
 58 63  1  0  0  0  0
 60 64  1  0  0  0  0
 60 75  1  0  0  0  0
 61 76  1  0  0  0  0
 62 83  1  0  0  0  0
 65 67  1  0  0  0  0
M  CHG  1  76   1
M  ISO  4  35 100  62 101  73 100  83 101
M  END
> <Batch ID>
0184

> <Smiles>
CNC(C)C(=O)NC(C(=O)N1Cc2cc([101O:1][101CH:1](C)CC(CC(C)(C)C)c3sc([100NH:0][100C:0](=O)N4CCCC(n5nc(-c6ccc(Oc7ccc(F)cc7F)cc6)c(C(N)=O)c5N)C4)nc3N)ccc2CC1C(=O)NC1CCCc2ccccc21)C(C)(C)C

> <Shape>
0.172

> <Color>
0.070

> <Negative vol penalty>
0.000

$$$$

  -OEChem-04052305023D

 83 91  0     1  0  0  0  0  0999 V2000
  -17.6059  -25.8875   22.3957 C   0  0  0  0  0  0  0  0  0  0  0  0
  -18.8828  -25.5585   21.9523 C   0  0  0  0  0  0  0  0  0  0  0  0
  -23.6780  -13.9700   18.6165 C   0  0  0  0  0  0  0  0  0  0  0  0
  -25.1914  -15.1599   20.0762 C   0  0  0  0  0  0  0  0  0  0  0  0
  -17.2114  -27.2236   22.4517 C   0  0  0  0  0  0  0  0  0  0  0  0
  -19.7656  -26.5654   21.5634 C   0  0  0  0  0  0  0  0  0  0  0  0
  -25.8451  -26.6182   22.3007 C   0  0  0  0  0  0  0  0  0  0  0  0
  -24.1124  -12.7583   19.1538 C   0  0  0  0  0  0  0  0  0  0  0  0
  -25.6258  -13.9482   20.6136 C   0  0  0  0  0  0  0  0  0  0  0  0
  -26.8972  -26.3139   21.4381 C   0  0  0  0  0  0  0  0  0  0  0  0
  -24.5623   -9.3714   20.3954 C   0  0  0  0  0  0  0  0  0  0  0  0
  -23.5934   -8.4238   20.7253 C   0  0  0  0  0  0  0  0  0  0  0  0
  -27.1247  -28.6544   20.8998 C   0  0  0  0  0  0  0  0  0  0  0  0
  -22.5959   -9.9840   22.2770 C   0  0  0  0  0  0  0  0  0  0  0  0
  -28.9392  -23.1303   15.5417 C   0  0  0  0  0  0  0  0  0  0  0  0
  -28.9017  -22.3570   17.5997 C   0  0  0  0  0  0  0  0  0  0  0  0
  -24.2175  -15.1708   19.0776 C   0  0  0  0  0  0  0  0  0  0  0  0
  -22.7033  -17.2213   18.9775 C   0  0  0  0  0  0  0  0  0  0  0  0
  -18.0932  -28.2480   22.0725 C   0  0  0  0  0  0  0  0  0  0  0  0
  -25.4169  -27.9438   22.4614 C   0  0  0  0  0  0  0  0  0  0  0  0
  -19.3821  -27.9164   21.6131 C   0  0  0  0  0  0  0  0  0  0  0  0
  -26.0685  -28.9731   21.7671 C   0  0  0  0  0  0  0  0  0  0  0  0
  -28.3639  -22.1360   16.3554 C   0  0  0  0  0  0  0  0  0  0  0  0
  -25.0863  -12.7474   20.1524 C   0  0  0  0  0  0  0  0  0  0  0  0
  -27.5353  -27.3318   20.7353 C   0  0  0  0  0  0  0  0  0  0  0  0
  -24.5481  -10.6253   21.0063 C   0  0  0  0  0  0  0  0  0  0  0  0
  -22.6102   -8.7301   21.6660 C   0  0  0  0  0  0  0  0  0  0  0  0
  -23.5648  -10.9316   21.9471 C   0  0  0  0  0  0  0  0  0  0  0  0
  -23.7696  -16.4227   18.5225 C   0  0  0  0  0  0  0  0  0  0  0  0
  -22.6878  -18.2943   18.1202 C   0  0  0  0  0  0  0  0  0  0  0  0
  -21.8069  -17.0119   20.0768 C   0  0  0  0  0  0  0  0  0  0  0  0
  -22.7037  -29.5067   21.9141 C   0  0  0  0  0  0  0  0  0  0  0  0
  -30.0744  -25.5007   18.7883 C   0  0  0  0  0  0  0  0  0  0  0  0
  -24.2720  -31.9476   23.3649 C   0  0  0  0  0  0  0  0  0  0  0  0
  -27.2515  -33.3796   24.2128 C   0  0  0  0  0  0  0  0  0  0  0  0
  -26.8842  -20.8844   14.7459 C   0  0  0  0  0  0  0  0  0  0  0  0
  -17.6054  -29.6748   22.1053 C   0  0  0  0  0  0  0  0  0  0  0  0
  -24.2980  -28.2584   23.4161 C   0  0  0  0  0  0  0  0  0  0  0  0
  -25.6604  -30.4148   21.9198 C   0  0  0  0  0  0  0  0  0  0  0  0
  -18.7297  -30.7047   22.0307 C   0  0  0  0  0  0  0  0  0  0  0  0
  -23.7973  -19.5107   13.6231 C   0  0  0  0  0  0  0  0  0  0  0  0
  -19.7174  -30.3378   20.9277 C   0  0  0  0  0  0  0  0  0  0  0  0
  -23.3398  -18.6404   14.7959 C   0  0  0  0  0  0  0  0  0  0  0  0
  -25.3135  -19.4673   13.4422 C   0  0  0  0  0  0  0  0  0  0  0  0
  -25.6343  -18.9098   15.8203 C   0  0  0  0  0  0  0  0  0  0  0  0
  -20.3769  -28.9818   21.2063 C   0  0  1  0  0  0  0  0  0  0  0  0
  -23.6079  -29.5845   23.1116 C   0  0  1  0  0  0  0  0  0  0  0  0
  -24.1207  -18.9727   16.0825 C   0  0  2  0  0  0  0  0  0  0  0  0
  -28.2134  -35.3915   25.3634 C   0  0  0  0  0  0  0  0  0  0  0  0
  -32.8879  -24.6253   19.4641 C   0  0  0  0  0  0  0  0  0  0  0  0
  -32.6034  -22.5935   18.0520 C   0  0  0  0  0  0  0  0  0  0  0  0
  -23.6164  -33.6549   20.9225 C   0  0  0  0  0  0  0  0  0  0  0  0
  -25.3624  -35.2823   21.6781 C   0  0  0  0  0  0  0  0  0  0  0  0
  -23.3732  -34.8334   23.1148 C   0  0  0  0  0  0  0  0  0  0  0  0
  -28.5945  -31.7128   26.2566 C   0  0  0  0  0  0  0  0  0  0  0  0
  -28.9338  -25.6647   19.7756 C   0  0  0  0  0  0  0  0  0  1  0  0
  -30.5714  -24.0676   18.5568 C   0  0  2  0  0  0  0  0  0  0  0  0
  -25.1701  -33.0681   22.8992 C   0  0  1  0  0  0  0  0  0  0  0  0
  -27.7577  -33.9497   25.5254 C   0  0  2  0  0  0  0  0  0  0  0  0
  -32.1030  -24.0256   18.2875 C   0  0  0  0  0  0  0  0  0  0  0  0
  -24.3872  -34.1824   22.1491 C   0  0  0  0  0  0  0  0  0  0  0  0
  -29.7780  -23.9241   16.2127 N   0  0  0  0  0  0  0  0  0  0  0  0
  -24.3867  -16.9438   17.4587 N   0  0  0  0  0  0  0  0  0  0  0  0
  -29.7337  -23.4288   17.4612 N   0  0  0  0  0  0  0  0  0  0  0  0
  -23.7059  -18.0813   17.2380 N   0  0  0  0  0  0  0  0  0  0  0  0
  -24.5569  -30.6709   22.8602 N   0  0  0  0  0  0  0  0  0  0  0  0
  -25.9866  -19.7967   14.7005 N   0  0  0  0  0  0  0  0  0  0  0  0
  -21.9026  -19.3897   18.0424 N   0  0  0  0  0  0  0  0  0  0  0  0
  -21.9628  -15.8571   20.8554 N   0  0  0  0  0  0  0  0  0  0  0  0
  -27.4385  -21.1224   16.0032 N   0  0  0  0  0  0  0  0  0  0  0  0
  -21.4107  -29.1192   22.2097 N   0  0  0  0  0  0  0  0  0  0  0  0
  -25.8877  -33.5340   24.0809 N   0  0  0  0  0  0  0  0  0  0  0  0
  -28.9077  -33.1471   26.0296 N   0  3  0  0  0  0  0  0  0  0  0  0
  -20.8844  -17.8168   20.3501 O   0  0  0  0  0  0  0  0  0  0  0  0
  -23.1460  -29.7796   20.8043 O   0  0  0  0  0  0  0  0  0  0  0  0
  -30.5496  -26.4628   18.1845 O   0  0  0  0  0  0  0  0  0  0  0  0
  -23.3559  -32.1948   24.1531 O   0  0  0  0  0  0  0  0  0  0  0  0
  -27.9924  -32.8534   23.3853 O   0  0  0  0  0  0  0  0  0  0  0  0
  -27.1214  -21.5721   13.7495 O   0  0  0  0  0  0  0  0  0  0  0  0
  -25.5102  -11.5653   20.6771 O   0  0  0  0  0  0  0  0  0  0  0  0
  -28.5621  -27.0375   19.8921 O   0  0  0  0  0  0  0  0  0  1  0  0
  -21.6789   -7.8205   21.9816 F   0  0  0  0  0  0  0  0  0  0  0  0
  -23.5453  -12.1349   22.5365 F   0  0  0  0  0  0  0  0  0  0  0  0
  1  2  1  0  0  0  0
  1  5  2  0  0  0  0
  2  6  2  0  0  0  0
  3  8  2  0  0  0  0
  3 17  1  0  0  0  0
  4  9  1  0  0  0  0
  4 17  2  0  0  0  0
  5 19  1  0  0  0  0
  6 21  1  0  0  0  0
  7 10  2  0  0  0  0
  7 20  1  0  0  0  0
  8 24  1  0  0  0  0
  9 24  2  0  0  0  0
 10 25  1  0  0  0  0
 11 12  2  0  0  0  0
 11 26  1  0  0  0  0
 12 27  1  0  0  0  0
 13 22  1  0  0  0  0
 13 25  2  0  0  0  0
 14 27  2  0  0  0  0
 14 28  1  0  0  0  0
 15 23  1  0  0  0  0
 15 62  2  0  0  0  0
 16 23  2  0  0  0  0
 16 64  1  0  0  0  0
 17 29  1  0  0  0  0
 18 29  1  0  0  0  0
 18 30  2  0  0  0  0
 18 31  1  0  0  0  0
 19 21  2  0  0  0  0
 19 37  1  0  0  0  0
 20 22  2  0  0  0  0
 20 38  1  0  0  0  0
 21 46  1  0  0  0  0
 22 39  1  0  0  0  0
 23 70  1  0  0  0  0
 24 80  1  0  0  0  0
 25 81  1  0  0  0  0
 26 28  2  0  0  0  0
 26 80  1  0  0  0  0
 27 82  1  0  0  0  0
 28 83  1  0  0  0  0
 29 63  2  0  0  0  0
 30 65  1  0  0  0  0
 30 68  1  0  0  0  0
 31 69  1  0  0  0  0
 31 74  2  0  0  0  0
 32 47  1  0  0  0  0
 32 71  1  0  0  0  0
 32 75  2  0  0  0  0
 33 56  1  0  0  0  0
 33 57  1  0  0  0  0
 33 76  2  0  0  0  0
 34 58  1  0  0  0  0
 34 66  1  0  0  0  0
 34 77  2  0  0  0  0
 35 59  1  0  0  0  0
 35 72  1  0  0  0  0
 35 78  2  0  0  0  0
 36 67  1  0  0  0  0
 36 70  1  0  0  0  0
 36 79  2  0  0  0  0
 37 40  1  0  0  0  0
 38 47  1  0  0  0  0
 39 66  1  0  0  0  0
 40 42  1  0  0  0  0
 41 43  1  0  0  0  0
 41 44  1  0  0  0  0
 42 46  1  0  0  0  0
 43 48  1  0  0  0  0
 44 67  1  0  0  0  0
 45 48  1  0  0  0  0
 45 67  1  0  0  0  0
 46 71  1  0  0  0  0
 47 66  1  0  0  0  0
 48 65  1  0  0  0  0
 49 59  1  0  0  0  0
 50 60  1  0  0  0  0
 51 60  1  0  0  0  0
 52 61  1  0  0  0  0
 53 61  1  0  0  0  0
 54 61  1  0  0  0  0
 55 73  1  0  0  0  0
 56 81  1  0  0  0  0
 57 60  1  0  0  0  0
 57 64  1  0  0  0  0
 58 61  1  0  0  0  0
 58 72  1  0  0  0  0
 59 73  1  0  0  0  0
 62 64  1  0  0  0  0
 63 65  1  0  0  0  0
M  CHG  1  73   1
M  ISO  4  36 100  56 101  70 100  81 101
M  END
> <Batch ID>
0184

> <Smiles>
CNC(C)C(=O)NC(C(=O)N1Cc2cc([101O:1][101CH2:1]C(=O)C(C(C)C)n3cc([100NH:0][100C:0](=O)N4CCCC(n5nc(-c6ccc(Oc7ccc(F)cc7F)cc6)c(C(N)=O)c5N)C4)cn3)ccc2CC1C(=O)NC1CCCc2ccccc21)C(C)(C)C

> <Shape>
0.253

> <Color>
0.104

> <Negative vol penalty>
0.000

$$$$

  -OEChem-04052305023D

 83 91  0     1  0  0  0  0  0999 V2000
  -26.8378  -18.6660   18.5071 C   0  0  0  0  0  0  0  0  0  0  0  0
  -25.9524  -19.7315   18.3797 C   0  0  0  0  0  0  0  0  0  0  0  0
  -22.7233  -17.3382   20.3843 C   0  0  0  0  0  0  0  0  0  0  0  0
  -24.2046  -18.3888   21.9778 C   0  0  0  0  0  0  0  0  0  0  0  0
  -27.8918  -18.7419   19.4167 C   0  0  0  0  0  0  0  0  0  0  0  0
  -26.1198  -20.8731   19.1627 C   0  0  0  0  0  0  0  0  0  0  0  0
  -25.1876  -27.9726   18.9529 C   0  0  0  0  0  0  0  0  0  0  0  0
  -23.6695  -16.3372   20.1647 C   0  0  0  0  0  0  0  0  0  0  0  0
  -25.1508  -17.3877   21.7582 C   0  0  0  0  0  0  0  0  0  0  0  0
  -24.5906  -29.0025   19.6787 C   0  0  0  0  0  0  0  0  0  0  0  0
  -24.7261  -13.5247   21.7159 C   0  0  0  0  0  0  0  0  0  0  0  0
  -24.2772  -12.2046   21.6818 C   0  0  0  0  0  0  0  0  0  0  0  0
  -26.4940  -29.0538   21.1598 C   0  0  0  0  0  0  0  0  0  0  0  0
  -25.0976  -11.9840   19.4201 C   0  0  0  0  0  0  0  0  0  0  0  0
  -22.9908  -18.3641   21.2908 C   0  0  0  0  0  0  0  0  0  0  0  0
  -20.9830  -19.3990   22.4762 C   0  0  0  0  0  0  0  0  0  0  0  0
  -28.0779  -19.8889   20.2043 C   0  0  0  0  0  0  0  0  0  0  0  0
  -26.4395  -27.4674   19.3322 C   0  0  0  0  0  0  0  0  0  0  0  0
  -27.1765  -20.9639   20.0847 C   0  0  0  0  0  0  0  0  0  0  0  0
  -27.1059  -28.0193   20.4356 C   0  0  0  0  0  0  0  0  0  0  0  0
  -24.8832  -16.3619   20.8516 C   0  0  0  0  0  0  0  0  0  0  0  0
  -25.2425  -29.5412   20.7841 C   0  0  0  0  0  0  0  0  0  0  0  0
  -25.3608  -14.0746   20.6020 C   0  0  0  0  0  0  0  0  0  0  0  0
  -24.4629  -11.4342   20.5339 C   0  0  0  0  0  0  0  0  0  0  0  0
  -25.5465  -13.3042   19.4542 C   0  0  0  0  0  0  0  0  0  0  0  0
  -22.0141  -19.3987   21.5177 C   0  0  0  0  0  0  0  0  0  0  0  0
  -20.7709  -29.0530   24.1249 C   0  0  0  0  0  0  0  0  0  0  0  0
  -20.3385  -20.5970   22.2868 C   0  0  0  0  0  0  0  0  0  0  0  0
  -20.4141  -28.2837   25.2126 C   0  0  0  0  0  0  0  0  0  0  0  0
  -20.8838  -27.0761   23.1820 C   0  0  0  0  0  0  0  0  0  0  0  0
  -20.6387  -18.4053   23.4507 C   0  0  0  0  0  0  0  0  0  0  0  0
  -27.5174  -24.6370   20.2970 C   0  0  0  0  0  0  0  0  0  0  0  0
  -22.7463  -31.1724   22.8384 C   0  0  0  0  0  0  0  0  0  0  0  0
  -30.4025  -26.1077   20.1091 C   0  0  0  0  0  0  0  0  0  0  0  0
  -32.1757  -29.0235   20.1416 C   0  0  0  0  0  0  0  0  0  0  0  0
  -21.4338  -26.1020   20.9247 C   0  0  0  0  0  0  0  0  0  0  0  0
  -29.2039  -19.9058   21.2076 C   0  0  0  0  0  0  0  0  0  0  0  0
  -27.0820  -26.3745   18.5228 C   0  0  0  0  0  0  0  0  0  0  0  0
  -28.4604  -27.5260   20.8720 C   0  0  0  0  0  0  0  0  0  0  0  0
  -29.5320  -21.3016   21.7315 C   0  0  0  0  0  0  0  0  0  0  0  0
  -20.0318  -23.8384   18.5609 C   0  0  0  0  0  0  0  0  0  0  0  0
  -28.2546  -22.0419   22.1147 C   0  0  0  0  0  0  0  0  0  0  0  0
  -20.2983  -22.4621   19.1748 C   0  0  0  0  0  0  0  0  0  0  0  0
  -21.1846  -24.8072   18.8185 C   0  0  0  0  0  0  0  0  0  0  0  0
  -21.8468  -23.5648   20.8401 C   0  0  0  0  0  0  0  0  0  0  0  0
  -27.3395  -22.2292   20.8986 C   0  0  1  0  0  0  0  0  0  0  0  0
  -28.1280  -25.5871   19.3060 C   0  0  1  0  0  0  0  0  0  0  0  0
  -20.6848  -22.5739   20.6626 C   0  0  2  0  0  0  0  0  0  0  0  0
  -20.7886  -32.6768   23.2528 C   0  0  0  0  0  0  0  0  0  0  0  0
  -34.5216  -29.9040   20.0053 C   0  0  0  0  0  0  0  0  0  0  0  0
  -30.8953  -25.2342   22.9908 C   0  0  0  0  0  0  0  0  0  0  0  0
  -32.7577  -26.9035   23.1048 C   0  0  0  0  0  0  0  0  0  0  0  0
  -32.8766  -25.0139   21.4806 C   0  0  0  0  0  0  0  0  0  0  0  0
  -31.5791  -30.5618   17.6847 C   0  0  0  0  0  0  0  0  0  0  0  0
  -23.2355  -30.5752   21.5317 C   0  0  0  0  0  0  0  0  0  1  0  0
  -21.2370  -31.2432   23.0243 C   0  0  2  0  0  0  0  0  0  0  0  0
  -31.2576  -26.9098   21.0602 C   0  0  1  0  0  0  0  0  0  0  0  0
  -33.2651  -29.5502   19.2250 C   0  0  2  0  0  0  0  0  0  0  0  0
  -31.9204  -26.0236   22.1523 C   0  0  0  0  0  0  0  0  0  0  0  0
  -22.0274  -20.5084   20.7745 N   0  0  0  0  0  0  0  0  0  0  0  0
  -21.0410  -28.3622   22.9597 N   0  0  0  0  0  0  0  0  0  0  0  0
  -20.9968  -21.2171   21.2659 N   0  0  0  0  0  0  0  0  0  0  0  0
  -29.0445  -26.4517   20.0522 N   0  0  0  0  0  0  0  0  0  0  0  0
  -21.4921  -24.8647   20.2492 N   0  0  0  0  0  0  0  0  0  0  0  0
  -19.2785  -21.1699   22.8956 N   0  0  0  0  0  0  0  0  0  0  0  0
  -21.4053  -17.2334   23.5096 N   0  0  0  0  0  0  0  0  0  0  0  0
  -20.8632  -30.4336   24.1632 N   0  0  0  0  0  0  0  0  0  0  0  0
  -21.0575  -26.0105   22.2644 N   0  0  0  0  0  0  0  0  0  0  0  0
  -27.8219  -23.3093   20.0647 N   0  0  0  0  0  0  0  0  0  0  0  0
  -32.2059  -27.6480   20.2330 N   0  0  0  0  0  0  0  0  0  0  0  0
  -32.7958  -30.7712   18.5110 N   0  3  0  0  0  0  0  0  0  0  0  0
  -19.6696  -18.5449   24.2348 O   0  0  0  0  0  0  0  0  0  0  0  0
  -26.8227  -25.0761   21.2060 O   0  0  0  0  0  0  0  0  0  0  0  0
  -23.5331  -31.5837   23.6916 O   0  0  0  0  0  0  0  0  0  0  0  0
  -30.9218  -25.2139   19.4361 O   0  0  0  0  0  0  0  0  0  0  0  0
  -31.3800  -29.7590   20.7217 O   0  0  0  0  0  0  0  0  0  0  0  0
  -21.6718  -27.1672   20.3496 O   0  0  0  0  0  0  0  0  0  0  0  0
  -25.8066  -15.3852   20.6377 O   0  0  0  0  0  0  0  0  0  0  0  0
  -24.6618  -30.5461   21.4947 O   0  0  0  0  0  0  0  0  0  1  0  0
  -24.0331  -10.1660   20.5018 F   0  0  0  0  0  0  0  0  0  0  0  0
  -26.1565  -13.8266   18.3814 F   0  0  0  0  0  0  0  0  0  0  0  0
  -20.1142  -28.7494   26.4282 F   0  0  0  0  0  0  0  0  0  0  0  0
  -20.4117  -26.6269   24.7695 S   0  0  0  0  0  0  0  0  0  0  0  0
  1  2  1  0  0  0  0
  1  5  2  0  0  0  0
  2  6  2  0  0  0  0
  3  8  2  0  0  0  0
  3 15  1  0  0  0  0
  4  9  1  0  0  0  0
  4 15  2  0  0  0  0
  5 17  1  0  0  0  0
  6 19  1  0  0  0  0
  7 10  2  0  0  0  0
  7 18  1  0  0  0  0
  8 21  1  0  0  0  0
  9 21  2  0  0  0  0
 10 22  1  0  0  0  0
 11 12  2  0  0  0  0
 11 23  1  0  0  0  0
 12 24  1  0  0  0  0
 13 20  1  0  0  0  0
 13 22  2  0  0  0  0
 14 24  2  0  0  0  0
 14 25  1  0  0  0  0
 15 26  1  0  0  0  0
 16 26  1  0  0  0  0
 16 28  2  0  0  0  0
 16 31  1  0  0  0  0
 17 19  2  0  0  0  0
 17 37  1  0  0  0  0
 18 20  2  0  0  0  0
 18 38  1  0  0  0  0
 19 46  1  0  0  0  0
 20 39  1  0  0  0  0
 21 78  1  0  0  0  0
 22 79  1  0  0  0  0
 23 25  2  0  0  0  0
 23 78  1  0  0  0  0
 24 80  1  0  0  0  0
 25 81  1  0  0  0  0
 26 60  2  0  0  0  0
 27 29  2  0  0  0  0
 27 61  1  0  0  0  0
 27 67  1  0  0  0  0
 28 62  1  0  0  0  0
 28 65  1  0  0  0  0
 29 82  1  0  0  0  0
 29 83  1  0  0  0  0
 30 61  2  0  0  0  0
 30 68  1  0  0  0  0
 30 83  1  0  0  0  0
 31 66  1  0  0  0  0
 31 72  2  0  0  0  0
 32 47  1  0  0  0  0
 32 69  1  0  0  0  0
 32 73  2  0  0  0  0
 33 55  1  0  0  0  0
 33 56  1  0  0  0  0
 33 74  2  0  0  0  0
 34 57  1  0  0  0  0
 34 63  1  0  0  0  0
 34 75  2  0  0  0  0
 35 58  1  0  0  0  0
 35 70  1  0  0  0  0
 35 76  2  0  0  0  0
 36 64  1  0  0  0  0
 36 68  1  0  0  0  0
 36 77  2  0  0  0  0
 37 40  1  0  0  0  0
 38 47  1  0  0  0  0
 39 63  1  0  0  0  0
 40 42  1  0  0  0  0
 41 43  1  0  0  0  0
 41 44  1  0  0  0  0
 42 46  1  0  0  0  0
 43 48  1  0  0  0  0
 44 64  1  0  0  0  0
 45 48  1  0  0  0  0
 45 64  1  0  0  0  0
 46 69  1  0  0  0  0
 47 63  1  0  0  0  0
 48 62  1  0  0  0  0
 49 56  1  0  0  0  0
 50 58  1  0  0  0  0
 51 59  1  0  0  0  0
 52 59  1  0  0  0  0
 53 59  1  0  0  0  0
 54 71  1  0  0  0  0
 55 79  1  0  0  0  0
 56 67  1  0  0  0  0
 57 59  1  0  0  0  0
 57 70  1  0  0  0  0
 58 71  1  0  0  0  0
 60 62  1  0  0  0  0
M  CHG  1  71   1
M  ISO  4  36 100  55 101  68 100  79 101
M  END
> <Batch ID>
0184

> <Smiles>
CNC(C)C(=O)NC(C(=O)N1Cc2cc([101O:1][101CH2:1]C(=O)C(C)Nc3nc([100NH:0][100C:0](=O)N4CCCC(n5nc(-c6ccc(Oc7ccc(F)cc7F)cc6)c(C(N)=O)c5N)C4)sc3F)ccc2CC1C(=O)NC1CCCc2ccccc21)C(C)(C)C

> <Shape>
0.210

> <Color>
0.081

> <Negative vol penalty>
0.000

$$$$

  -OEChem-04052305023D

 87 95  0     1  0  0  0  0  0999 V2000
  -25.3170  -31.2679   20.4170 C   0  0  0  0  0  0  0  0  0  0  0  0
  -26.1412  -30.3533   21.0628 C   0  0  0  0  0  0  0  0  0  0  0  0
  -29.3083  -21.0733   20.2884 C   0  0  0  0  0  0  0  0  0  0  0  0
  -31.4972  -20.3154   20.9750 C   0  0  0  0  0  0  0  0  0  0  0  0
  -23.9392  -31.0626   20.3925 C   0  0  0  0  0  0  0  0  0  0  0  0
  -25.5892  -29.2270   21.6739 C   0  0  0  0  0  0  0  0  0  0  0  0
  -23.9248  -21.6860   24.7987 C   0  0  0  0  0  0  0  0  0  0  0  0
  -29.4323  -22.1855   21.1209 C   0  0  0  0  0  0  0  0  0  0  0  0
  -31.6212  -21.4276   21.8075 C   0  0  0  0  0  0  0  0  0  0  0  0
  -22.7858  -20.8855   24.8750 C   0  0  0  0  0  0  0  0  0  0  0  0
  -29.3231  -25.4121   22.7919 C   0  0  0  0  0  0  0  0  0  0  0  0
  -28.9495  -26.6531   22.2762 C   0  0  0  0  0  0  0  0  0  0  0  0
  -22.1753  -21.5518   22.6383 C   0  0  0  0  0  0  0  0  0  0  0  0
  -30.6113  -26.4304   20.5366 C   0  0  0  0  0  0  0  0  0  0  0  0
  -30.3408  -20.1381   20.2154 C   0  0  0  0  0  0  0  0  0  0  0  0
  -30.0314  -18.9870   17.9600 C   0  0  0  0  0  0  0  0  0  0  0  0
  -23.3696  -29.9395   21.0146 C   0  0  0  0  0  0  0  0  0  0  0  0
  -24.1923  -22.4351   23.6439 C   0  0  0  0  0  0  0  0  0  0  0  0
  -24.2031  -28.9896   21.6394 C   0  0  0  0  0  0  0  0  0  0  0  0
  -23.3196  -22.3589   22.5490 C   0  0  0  0  0  0  0  0  0  0  0  0
  -30.5887  -22.3627   21.8805 C   0  0  0  0  0  0  0  0  0  0  0  0
  -21.9093  -20.8206   23.7958 C   0  0  0  0  0  0  0  0  0  0  0  0
  -30.3408  -24.6803   22.1801 C   0  0  0  0  0  0  0  0  0  0  0  0
  -29.5935  -27.1622   21.1485 C   0  0  0  0  0  0  0  0  0  0  0  0
  -30.9849  -25.1894   21.0524 C   0  0  0  0  0  0  0  0  0  0  0  0
  -30.2131  -18.9887   19.3560 C   0  0  0  0  0  0  0  0  0  0  0  0
  -24.7544  -13.6751   20.7561 C   0  0  0  0  0  0  0  0  0  0  0  0
  -23.4616  -13.4858   20.3148 C   0  0  0  0  0  0  0  0  0  0  0  0
  -29.9695  -17.6568   17.6235 C   0  0  0  0  0  0  0  0  0  0  0  0
  -23.2406  -15.5123   21.1237 C   0  0  0  0  0  0  0  0  0  0  0  0
  -29.9279  -20.0893   17.0490 C   0  0  0  0  0  0  0  0  0  0  0  0
  -25.9344  -12.7743   20.6989 C   0  0  0  0  0  0  0  0  0  0  0  0
  -24.4806  -25.5338   22.9970 C   0  0  0  0  0  0  0  0  0  0  0  0
  -25.3533  -24.4431   20.0693 C   0  0  0  0  0  0  0  0  0  0  0  0
  -21.4408  -17.2523   21.3661 C   0  0  0  0  0  0  0  0  0  0  0  0
  -24.2723  -21.8632   17.7905 C   0  0  0  0  0  0  0  0  0  0  0  0
  -28.4064  -12.7486   20.5898 C   0  0  0  0  0  0  0  0  0  0  0  0
  -21.8730  -29.7623   20.9509 C   0  0  0  0  0  0  0  0  0  0  0  0
  -25.4392  -23.2729   23.5674 C   0  0  0  0  0  0  0  0  0  0  0  0
  -23.5721  -23.1278   21.2787 C   0  0  0  0  0  0  0  0  0  0  0  0
  -21.3447  -28.7865   21.9973 C   0  0  0  0  0  0  0  0  0  0  0  0
  -31.5304  -13.3551   19.0502 C   0  0  0  0  0  0  0  0  0  0  0  0
  -22.1585  -27.5015   21.9674 C   0  0  0  0  0  0  0  0  0  0  0  0
  -31.5274  -14.8673   18.8107 C   0  0  0  0  0  0  0  0  0  0  0  0
  -30.8645  -12.9893   20.3760 C   0  0  0  0  0  0  0  0  0  0  0  0
  -29.5187  -15.0496   20.3326 C   0  0  0  0  0  0  0  0  0  0  0  0
  -23.6222  -27.7732   22.3373 C   0  0  1  0  0  0  0  0  0  0  0  0
  -25.3438  -24.3934   22.5365 C   0  0  1  0  0  0  0  0  0  0  0  0
  -30.1154  -15.4637   18.9777 C   0  0  1  0  0  0  0  0  0  0  0  0
  -23.3547  -12.1796   18.1773 C   0  0  0  0  0  0  0  0  0  0  0  0
  -25.5417  -20.6065   16.0280 C   0  0  0  0  0  0  0  0  0  0  0  0
  -24.2903  -26.5922   18.1822 C   0  0  0  0  0  0  0  0  0  0  0  0
  -23.9915  -24.8176   16.4416 C   0  0  0  0  0  0  0  0  0  0  0  0
  -26.2698  -25.3315   17.3181 C   0  0  0  0  0  0  0  0  0  0  0  0
  -21.9851  -18.0145   24.2964 C   0  0  0  0  0  0  0  0  0  0  0  0
  -19.5676  -18.0046   23.6477 C   0  0  0  0  0  0  0  0  0  0  0  0
  -23.5276  -19.2465   18.9555 C   0  0  0  0  0  0  0  0  0  0  0  0
  -22.9380  -12.2757   19.6483 C   0  0  0  0  0  0  0  0  0  0  0  0
  -21.2805  -18.6576   21.9316 C   0  0  0  0  0  0  0  0  0  0  0  0
  -24.6220  -24.1056   18.7925 C   0  0  1  0  0  0  0  0  0  0  0  0
  -25.0112  -20.5808   17.4530 C   0  0  2  0  0  0  0  0  0  0  0  0
  -24.7808  -25.2093   17.7090 C   0  0  0  0  0  0  0  0  0  0  0  0
  -20.9214  -18.6887   23.4283 C   0  0  0  0  0  0  0  0  0  1  0  0
  -30.2632  -17.7573   19.8710 N   0  0  0  0  0  0  0  0  0  0  0  0
  -22.5920  -14.5381   20.5251 N   0  0  0  0  0  0  0  0  0  0  0  0
  -30.1119  -16.9694   18.7928 N   0  0  0  0  0  0  0  0  0  0  0  0
  -24.8013  -23.9377   21.2550 N   0  0  0  0  0  0  0  0  0  0  0  0
  -29.5288  -13.5838   20.4516 N   0  0  0  0  0  0  0  0  0  0  0  0
  -29.8075  -17.0198   16.4443 N   0  0  0  0  0  0  0  0  0  0  0  0
  -31.1013  -20.5862   16.4654 N   0  0  0  0  0  0  0  0  0  0  0  0
  -22.7341  -16.7719   21.5217 N   0  0  0  0  0  0  0  0  0  0  0  0
  -27.1733  -13.4097   20.6096 N   0  0  0  0  0  0  0  0  0  0  0  0
  -24.3999  -26.5780   22.0955 N   0  0  0  0  0  0  0  0  0  0  0  0
  -25.1034  -22.7912   18.3816 N   0  0  0  0  0  0  0  0  0  0  0  0
  -24.1038  -19.4073   17.5956 N   0  3  0  0  0  0  0  0  0  0  0  0
  -28.8293  -20.6285   16.7736 O   0  0  0  0  0  0  0  0  0  0  0  0
  -25.7641  -11.5604   20.7713 O   0  0  0  0  0  0  0  0  0  0  0  0
  -23.9275  -25.4704   24.0886 O   0  0  0  0  0  0  0  0  0  0  0  0
  -26.3805  -25.1240   20.0159 O   0  0  0  0  0  0  0  0  0  0  0  0
  -20.4841  -16.6781   20.8528 O   0  0  0  0  0  0  0  0  0  0  0  0
  -23.0781  -22.0269   17.5502 O   0  0  0  0  0  0  0  0  0  0  0  0
  -28.4917  -11.5181   20.6517 O   0  0  0  0  0  0  0  0  0  0  0  0
  -30.7101  -23.4480   22.6928 O   0  0  0  0  0  0  0  0  0  0  0  0
  -20.7965  -20.0406   23.8678 O   0  0  0  0  0  0  0  0  0  1  0  0
  -29.2336  -28.3532   20.6524 F   0  0  0  0  0  0  0  0  0  0  0  0
  -31.9625  -24.4904   20.4596 F   0  0  0  0  0  0  0  0  0  0  0  0
  -24.8991  -15.2309   21.4630 S   0  0  0  0  0  0  0  0  0  0  0  0
  1  2  1  0  0  0  0
  1  5  2  0  0  0  0
  2  6  2  0  0  0  0
  3  8  2  0  0  0  0
  3 15  1  0  0  0  0
  4  9  1  0  0  0  0
  4 15  2  0  0  0  0
  5 17  1  0  0  0  0
  6 19  1  0  0  0  0
  7 10  2  0  0  0  0
  7 18  1  0  0  0  0
  8 21  1  0  0  0  0
  9 21  2  0  0  0  0
 10 22  1  0  0  0  0
 11 12  2  0  0  0  0
 11 23  1  0  0  0  0
 12 24  1  0  0  0  0
 13 20  1  0  0  0  0
 13 22  2  0  0  0  0
 14 24  2  0  0  0  0
 14 25  1  0  0  0  0
 15 26  1  0  0  0  0
 16 26  1  0  0  0  0
 16 29  2  0  0  0  0
 16 31  1  0  0  0  0
 17 19  2  0  0  0  0
 17 38  1  0  0  0  0
 18 20  2  0  0  0  0
 18 39  1  0  0  0  0
 19 47  1  0  0  0  0
 20 40  1  0  0  0  0
 21 83  1  0  0  0  0
 22 84  1  0  0  0  0
 23 25  2  0  0  0  0
 23 83  1  0  0  0  0
 24 85  1  0  0  0  0
 25 86  1  0  0  0  0
 26 64  2  0  0  0  0
 27 28  2  0  0  0  0
 27 32  1  0  0  0  0
 27 87  1  0  0  0  0
 28 58  1  0  0  0  0
 28 65  1  0  0  0  0
 29 66  1  0  0  0  0
 29 69  1  0  0  0  0
 30 65  2  0  0  0  0
 30 71  1  0  0  0  0
 30 87  1  0  0  0  0
 31 70  1  0  0  0  0
 31 76  2  0  0  0  0
 32 72  1  0  0  0  0
 32 77  2  0  0  0  0
 33 48  1  0  0  0  0
 33 73  1  0  0  0  0
 33 78  2  0  0  0  0
 34 60  1  0  0  0  0
 34 67  1  0  0  0  0
 34 79  2  0  0  0  0
 35 59  1  0  0  0  0
 35 71  1  0  0  0  0
 35 80  2  0  0  0  0
 36 61  1  0  0  0  0
 36 74  1  0  0  0  0
 36 81  2  0  0  0  0
 37 68  1  0  0  0  0
 37 72  1  0  0  0  0
 37 82  2  0  0  0  0
 38 41  1  0  0  0  0
 39 48  1  0  0  0  0
 40 67  1  0  0  0  0
 41 43  1  0  0  0  0
 42 44  1  0  0  0  0
 42 45  1  0  0  0  0
 43 47  1  0  0  0  0
 44 49  1  0  0  0  0
 45 68  1  0  0  0  0
 46 49  1  0  0  0  0
 46 68  1  0  0  0  0
 47 73  1  0  0  0  0
 48 67  1  0  0  0  0
 49 66  1  0  0  0  0
 50 58  1  0  0  0  0
 51 61  1  0  0  0  0
 52 62  1  0  0  0  0
 53 62  1  0  0  0  0
 54 62  1  0  0  0  0
 55 63  1  0  0  0  0
 56 63  1  0  0  0  0
 57 75  1  0  0  0  0
 59 63  1  0  0  0  0
 60 62  1  0  0  0  0
 60 74  1  0  0  0  0
 61 75  1  0  0  0  0
 63 84  1  0  0  0  0
 64 66  1  0  0  0  0
M  CHG  1  75   1
M  ISO  4  37 100  63 101  72 100  84 101
M  END
> <Batch ID>
0184

> <Smiles>
CCc1nc(NC(=O)C[101C:1](C)(C)[101O:1]c2ccc3c(c2)CN(C(=O)C(NC(=O)C(C)NC)C(C)(C)C)C(C(=O)NC2CCCc4ccccc42)C3)sc1C(=O)[100NH:0][100C:0](=O)N1CCCC(n2nc(-c3ccc(Oc4ccc(F)cc4F)cc3)c(C(N)=O)c2N)C1

> <Shape>
0.185

> <Color>
0.069

> <Negative vol penalty>
0.000

$$$$

  -OEChem-04052305023D

 87 95  0     1  0  0  0  0  0999 V2000
  -24.4480  -30.5632   24.0314 C   0  0  0  0  0  0  0  0  0  0  0  0
  -24.8590  -29.3037   24.4557 C   0  0  0  0  0  0  0  0  0  0  0  0
  -21.4168  -22.7049   23.0885 C   0  0  0  0  0  0  0  0  0  0  0  0
  -20.4250  -23.3580   20.9845 C   0  0  0  0  0  0  0  0  0  0  0  0
  -24.3636  -30.8453   22.6686 C   0  0  0  0  0  0  0  0  0  0  0  0
  -25.1848  -28.3251   23.5173 C   0  0  0  0  0  0  0  0  0  0  0  0
  -29.5877  -22.7564   22.5574 C   0  0  0  0  0  0  0  0  0  0  0  0
  -21.5489  -24.0474   23.4431 C   0  0  0  0  0  0  0  0  0  0  0  0
  -20.5570  -24.7006   21.3391 C   0  0  0  0  0  0  0  0  0  0  0  0
  -29.5581  -21.4091   22.2002 C   0  0  0  0  0  0  0  0  0  0  0  0
  -20.3023  -28.2921   21.8431 C   0  0  0  0  0  0  0  0  0  0  0  0
  -19.2141  -29.1341   21.6141 C   0  0  0  0  0  0  0  0  0  0  0  0
  -29.4511  -22.0347   19.8729 C   0  0  0  0  0  0  0  0  0  0  0  0
  -17.8530  -27.7720   23.0734 C   0  0  0  0  0  0  0  0  0  0  0  0
  -26.4282  -15.8627   21.4698 C   0  0  0  0  0  0  0  0  0  0  0  0
  -20.8550  -22.3601   21.8592 C   0  0  0  0  0  0  0  0  0  0  0  0
  -19.6209  -20.1303   21.7478 C   0  0  0  0  0  0  0  0  0  0  0  0
  -24.6978  -29.8727   21.7131 C   0  0  0  0  0  0  0  0  0  0  0  0
  -29.5381  -23.7548   21.5739 C   0  0  0  0  0  0  0  0  0  0  0  0
  -25.1035  -28.5940   22.1404 C   0  0  0  0  0  0  0  0  0  0  0  0
  -29.4827  -23.3939   20.2201 C   0  0  0  0  0  0  0  0  0  0  0  0
  -21.1189  -25.0453   22.5684 C   0  0  0  0  0  0  0  0  0  0  0  0
  -29.4869  -21.0480   20.8579 C   0  0  0  0  0  0  0  0  0  0  0  0
  -20.1659  -27.1900   22.6872 C   0  0  0  0  0  0  0  0  0  0  0  0
  -17.9895  -28.8741   22.2292 C   0  0  0  0  0  0  0  0  0  0  0  0
  -18.9413  -26.9300   23.3023 C   0  0  0  0  0  0  0  0  0  0  0  0
  -20.7188  -20.9735   21.4922 C   0  0  0  0  0  0  0  0  0  0  0  0
  -19.9812  -18.9224   21.2020 C   0  0  0  0  0  0  0  0  0  0  0  0
  -26.1033  -14.7923   20.6631 C   0  0  0  0  0  0  0  0  0  0  0  0
  -28.4486  -15.3220   20.8098 C   0  0  0  0  0  0  0  0  0  0  0  0
  -18.3857  -20.4135   22.4185 C   0  0  0  0  0  0  0  0  0  0  0  0
  -27.5218  -26.1079   20.8660 C   0  0  0  0  0  0  0  0  0  0  0  0
  -30.6313  -17.6164   20.5698 C   0  0  0  0  0  0  0  0  0  0  0  0
  -29.8054  -26.8879   18.6982 C   0  0  0  0  0  0  0  0  0  0  0  0
  -24.7627  -12.8001   20.0256 C   0  0  0  0  0  0  0  0  0  0  0  0
  -32.4358  -25.8806   16.7714 C   0  0  0  0  0  0  0  0  0  0  0  0
  -23.6610  -14.9280   20.5178 C   0  0  0  0  0  0  0  0  0  0  0  0
  -24.5456  -30.2093   20.2508 C   0  0  0  0  0  0  0  0  0  0  0  0
  -29.5978  -25.2034   21.9743 C   0  0  0  0  0  0  0  0  0  0  0  0
  -29.4478  -24.4271   19.1248 C   0  0  0  0  0  0  0  0  0  0  0  0
  -25.2682  -29.2357   19.3233 C   0  0  0  0  0  0  0  0  0  0  0  0
  -23.8166  -17.6815   18.1617 C   0  0  0  0  0  0  0  0  0  0  0  0
  -24.9813  -27.7948   19.7337 C   0  0  0  0  0  0  0  0  0  0  0  0
  -22.9507  -18.7279   18.8614 C   0  0  0  0  0  0  0  0  0  0  0  0
  -24.6318  -16.8608   19.1589 C   0  0  0  0  0  0  0  0  0  0  0  0
  -22.9456  -17.2710   20.9276 C   0  0  0  0  0  0  0  0  0  0  0  0
  -25.4892  -27.5139   21.1531 C   0  0  1  0  0  0  0  0  0  0  0  0
  -29.0232  -26.1400   20.9159 C   0  0  1  0  0  0  0  0  0  0  0  0
  -22.0782  -18.0821   19.9519 C   0  0  1  0  0  0  0  0  0  0  0  0
  -32.1061  -15.7404   21.3271 C   0  0  0  0  0  0  0  0  0  0  0  0
  -23.3760  -13.0098   17.9586 C   0  0  0  0  0  0  0  0  0  0  0  0
  -23.4800  -10.8204   19.1843 C   0  0  0  0  0  0  0  0  0  0  0  0
  -34.0754  -26.7344   15.0743 C   0  0  0  0  0  0  0  0  0  0  0  0
  -27.6230  -26.8346   16.5665 C   0  0  0  0  0  0  0  0  0  0  0  0
  -29.4213  -26.7442   14.8270 C   0  0  0  0  0  0  0  0  0  0  0  0
  -29.2534  -28.7178   16.3434 C   0  0  0  0  0  0  0  0  0  0  0  0
  -34.7439  -25.2515   18.5137 C   0  0  0  0  0  0  0  0  0  0  0  0
  -30.1214  -18.8106   21.3553 C   0  0  0  0  0  0  0  0  0  1  0  0
  -30.6904  -16.2921   21.3183 C   0  0  2  0  0  0  0  0  0  0  0  0
  -30.0886  -26.5157   17.2629 C   0  0  1  0  0  0  0  0  0  0  0  0
  -23.4755  -12.3395   19.3285 C   0  0  0  0  0  0  0  0  0  0  0  0
  -33.8117  -26.4828   16.5507 C   0  0  2  0  0  0  0  0  0  0  0  0
  -29.0953  -27.1834   16.2704 C   0  0  0  0  0  0  0  0  0  0  0  0
  -27.7727  -16.1677   21.5554 N   0  0  0  0  0  0  0  0  0  0  0  0
  -21.7030  -20.3538   20.8353 N   0  0  0  0  0  0  0  0  0  0  0  0
  -21.2247  -19.1083   20.6736 N   0  0  0  0  0  0  0  0  0  0  0  0
  -29.5020  -25.8303   19.5672 N   0  0  0  0  0  0  0  0  0  0  0  0
  -23.7690  -16.2980   20.2068 N   0  0  0  0  0  0  0  0  0  0  0  0
  -19.3525  -17.7302   21.1275 N   0  0  0  0  0  0  0  0  0  0  0  0
  -18.1781  -21.7062   22.9185 N   0  0  0  0  0  0  0  0  0  0  0  0
  -29.8004  -15.3373   20.6675 N   0  0  0  0  0  0  0  0  0  0  0  0
  -26.9235  -27.3212   21.1477 N   0  0  0  0  0  0  0  0  0  0  0  0
  -31.4883  -26.8501   17.0230 N   0  0  0  0  0  0  0  0  0  0  0  0
  -24.8347  -14.1749   20.3269 N   0  0  0  0  0  0  0  0  0  0  0  0
  -34.8672  -25.5662   17.0671 N   0  3  0  0  0  0  0  0  0  0  0  0
  -17.4994  -19.5414   22.5843 O   0  0  0  0  0  0  0  0  0  0  0  0
  -26.9487  -25.0604   20.5907 O   0  0  0  0  0  0  0  0  0  0  0  0
  -30.9853  -17.7232   19.3953 O   0  0  0  0  0  0  0  0  0  0  0  0
  -29.8586  -28.0727   19.0375 O   0  0  0  0  0  0  0  0  0  0  0  0
  -25.6136  -11.9642   20.3423 O   0  0  0  0  0  0  0  0  0  0  0  0
  -32.2222  -24.6713   16.7215 O   0  0  0  0  0  0  0  0  0  0  0  0
  -22.6343  -14.4080   20.9666 O   0  0  0  0  0  0  0  0  0  0  0  0
  -21.2474  -26.3554   22.9141 O   0  0  0  0  0  0  0  0  0  0  0  0
  -29.4569  -19.7204   20.5030 O   0  0  0  0  0  0  0  0  0  1  0  0
  -16.9450  -29.6837   22.0105 F   0  0  0  0  0  0  0  0  0  0  0  0
  -18.8045  -25.8734   24.1152 F   0  0  0  0  0  0  0  0  0  0  0  0
  -27.5310  -14.1345   19.9774 S   0  0  0  0  0  0  0  0  0  0  0  0
  1  2  1  0  0  0  0
  1  5  2  0  0  0  0
  2  6  2  0  0  0  0
  3  8  2  0  0  0  0
  3 16  1  0  0  0  0
  4  9  1  0  0  0  0
  4 16  2  0  0  0  0
  5 18  1  0  0  0  0
  6 20  1  0  0  0  0
  7 10  2  0  0  0  0
  7 19  1  0  0  0  0
  8 22  1  0  0  0  0
  9 22  2  0  0  0  0
 10 23  1  0  0  0  0
 11 12  2  0  0  0  0
 11 24  1  0  0  0  0
 12 25  1  0  0  0  0
 13 21  1  0  0  0  0
 13 23  2  0  0  0  0
 14 25  2  0  0  0  0
 14 26  1  0  0  0  0
 15 29  2  0  0  0  0
 15 64  1  0  0  0  0
 16 27  1  0  0  0  0
 17 27  1  0  0  0  0
 17 28  2  0  0  0  0
 17 31  1  0  0  0  0
 18 20  2  0  0  0  0
 18 38  1  0  0  0  0
 19 21  2  0  0  0  0
 19 39  1  0  0  0  0
 20 47  1  0  0  0  0
 21 40  1  0  0  0  0
 22 83  1  0  0  0  0
 23 84  1  0  0  0  0
 24 26  2  0  0  0  0
 24 83  1  0  0  0  0
 25 85  1  0  0  0  0
 26 86  1  0  0  0  0
 27 65  2  0  0  0  0
 28 66  1  0  0  0  0
 28 69  1  0  0  0  0
 29 74  1  0  0  0  0
 29 87  1  0  0  0  0
 30 64  2  0  0  0  0
 30 71  1  0  0  0  0
 30 87  1  0  0  0  0
 31 70  1  0  0  0  0
 31 76  2  0  0  0  0
 32 48  1  0  0  0  0
 32 72  1  0  0  0  0
 32 77  2  0  0  0  0
 33 58  1  0  0  0  0
 33 59  1  0  0  0  0
 33 78  2  0  0  0  0
 34 60  1  0  0  0  0
 34 67  1  0  0  0  0
 34 79  2  0  0  0  0
 35 61  1  0  0  0  0
 35 74  1  0  0  0  0
 35 80  2  0  0  0  0
 36 62  1  0  0  0  0
 36 73  1  0  0  0  0
 36 81  2  0  0  0  0
 37 68  1  0  0  0  0
 37 74  1  0  0  0  0
 37 82  2  0  0  0  0
 38 41  1  0  0  0  0
 39 48  1  0  0  0  0
 40 67  1  0  0  0  0
 41 43  1  0  0  0  0
 42 44  1  0  0  0  0
 42 45  1  0  0  0  0
 43 47  1  0  0  0  0
 44 49  1  0  0  0  0
 45 68  1  0  0  0  0
 46 49  1  0  0  0  0
 46 68  1  0  0  0  0
 47 72  1  0  0  0  0
 48 67  1  0  0  0  0
 49 66  1  0  0  0  0
 50 59  1  0  0  0  0
 51 61  1  0  0  0  0
 52 61  1  0  0  0  0
 53 62  1  0  0  0  0
 54 63  1  0  0  0  0
 55 63  1  0  0  0  0
 56 63  1  0  0  0  0
 57 75  1  0  0  0  0
 58 84  1  0  0  0  0
 59 71  1  0  0  0  0
 60 63  1  0  0  0  0
 60 73  1  0  0  0  0
 62 75  1  0  0  0  0
 65 66  1  0  0  0  0
M  CHG  1  75   1
M  ISO  4  37 100  58 101  74 100  84 101
M  END
> <Batch ID>
0184

> <Smiles>
CNC(C)C(=O)NC(C(=O)N1Cc2cc([101O:1][101CH2:1]C(=O)C(C)Nc3ncc([100N:0](C(=O)C(C)C)[100C:0](=O)N4CCCC(n5nc(-c6ccc(Oc7ccc(F)cc7F)cc6)c(C(N)=O)c5N)C4)s3)ccc2CC1C(=O)NC1CCCc2ccccc21)C(C)(C)C

> <Shape>
0.230

> <Color>
0.068

> <Negative vol penalty>
0.000

$$$$

  -OEChem-04052305023D

 86 94  0     1  0  0  0  0  0999 V2000
  -35.6787  -30.1732   11.4161 C   0  0  0  0  0  0  0  0  0  0  0  0
  -35.4691  -29.4642   12.5946 C   0  0  0  0  0  0  0  0  0  0  0  0
  -23.0737   -9.9262   19.9590 C   0  0  0  0  0  0  0  0  0  0  0  0
  -23.7636   -9.9888   22.2736 C   0  0  0  0  0  0  0  0  0  0  0  0
  -34.6121  -30.8215   10.7949 C   0  0  0  0  0  0  0  0  0  0  0  0
  -34.1929  -29.4039   13.1531 C   0  0  0  0  0  0  0  0  0  0  0  0
  -31.7127  -24.6855   16.1682 C   0  0  0  0  0  0  0  0  0  0  0  0
  -22.3178   -8.7823   20.2153 C   0  0  0  0  0  0  0  0  0  0  0  0
  -23.0076   -8.8449   22.5299 C   0  0  0  0  0  0  0  0  0  0  0  0
  -31.5700  -24.4119   17.5278 C   0  0  0  0  0  0  0  0  0  0  0  0
  -23.3016   -5.5089   22.0658 C   0  0  0  0  0  0  0  0  0  0  0  0
  -23.8907   -4.5000   22.8279 C   0  0  0  0  0  0  0  0  0  0  0  0
  -29.3336  -25.3144   17.4686 C   0  0  0  0  0  0  0  0  0  0  0  0
  -22.1389   -4.7227   24.4768 C   0  0  0  0  0  0  0  0  0  0  0  0
  -23.7967  -10.5294   20.9882 C   0  0  0  0  0  0  0  0  0  0  0  0
  -24.1525  -13.0495   20.8149 C   0  0  0  0  0  0  0  0  0  0  0  0
  -33.3203  -30.7611   11.3409 C   0  0  0  0  0  0  0  0  0  0  0  0
  -30.6691  -25.2867   15.4498 C   0  0  0  0  0  0  0  0  0  0  0  0
  -33.1082  -30.0532   12.5393 C   0  0  0  0  0  0  0  0  0  0  0  0
  -29.4647  -25.5923   16.0994 C   0  0  0  0  0  0  0  0  0  0  0  0
  -22.2847   -8.2416   21.5007 C   0  0  0  0  0  0  0  0  0  0  0  0
  -30.3814  -24.7290   18.1789 C   0  0  0  0  0  0  0  0  0  0  0  0
  -22.1311   -6.1247   22.5092 C   0  0  0  0  0  0  0  0  0  0  0  0
  -23.3094   -4.1069   24.0333 C   0  0  0  0  0  0  0  0  0  0  0  0
  -21.5498   -5.7315   23.7147 C   0  0  0  0  0  0  0  0  0  0  0  0
  -24.5782  -11.7108   20.7240 C   0  0  0  0  0  0  0  0  0  0  0  0
  -25.2583  -13.7859   20.4663 C   0  0  0  0  0  0  0  0  0  0  0  0
  -30.4978  -17.4779   19.0714 C   0  0  0  0  0  0  0  0  0  0  0  0
  -30.9015  -18.5278   18.3360 C   0  0  0  0  0  0  0  0  0  0  0  0
  -29.0764  -18.8326   20.4663 C   0  0  0  0  0  0  0  0  0  0  0  0
  -29.5554  -17.6090   20.1775 C   0  0  0  0  0  0  0  0  0  0  0  0
  -30.3432  -19.8792   18.6904 C   0  0  0  0  0  0  0  0  0  0  0  0
  -22.8720  -13.5801   21.1817 C   0  0  0  0  0  0  0  0  0  0  0  0
  -30.3220  -28.0177   13.8609 C   0  0  0  0  0  0  0  0  0  0  0  0
  -27.4584  -26.7288   13.0478 C   0  0  0  0  0  0  0  0  0  0  0  0
  -24.9545  -24.5319   13.7903 C   0  0  0  0  0  0  0  0  0  0  0  0
  -29.6359  -21.9617   20.9733 C   0  0  0  0  0  0  0  0  0  0  0  0
  -30.8458  -14.4952   21.2368 C   0  0  0  0  0  0  0  0  0  0  0  0
  -32.2078  -31.5174   10.6588 C   0  0  0  0  0  0  0  0  0  0  0  0
  -30.8291  -25.5509   13.9777 C   0  0  0  0  0  0  0  0  0  0  0  0
  -28.3068  -26.2200   15.3688 C   0  0  0  0  0  0  0  0  0  0  0  0
  -30.8141  -31.0924   11.1139 C   0  0  0  0  0  0  0  0  0  0  0  0
  -29.6635  -12.3834   18.4360 C   0  0  0  0  0  0  0  0  0  0  0  0
  -30.7544  -30.9998   12.6353 C   0  0  0  0  0  0  0  0  0  0  0  0
  -28.2210  -12.0775   18.8354 C   0  0  0  0  0  0  0  0  0  0  0  0
  -30.5502  -12.6247   19.6539 C   0  0  0  0  0  0  0  0  0  0  0  0
  -28.5960  -13.3721   20.9717 C   0  0  0  0  0  0  0  0  0  0  0  0
  -31.7336  -29.9440   13.1626 C   0  0  1  0  0  0  0  0  0  0  0  0
  -29.8897  -26.6357   13.4598 C   0  0  1  0  0  0  0  0  0  0  0  0
  -27.6660  -13.1698   19.7660 C   0  0  2  0  0  0  0  0  0  0  0  0
  -22.7265  -23.7303   12.9592 C   0  0  0  0  0  0  0  0  0  0  0  0
  -26.1545  -29.2846   14.0857 C   0  0  0  0  0  0  0  0  0  0  0  0
  -23.9649  -28.0711   14.1192 C   0  0  0  0  0  0  0  0  0  0  0  0
  -25.1731  -28.4010   11.9619 C   0  0  0  0  0  0  0  0  0  0  0  0
  -31.2417  -16.7161   22.2319 C   0  0  0  0  0  0  0  0  0  0  0  0
  -25.9461  -21.7639   13.4527 C   0  0  0  0  0  0  0  0  0  0  0  0
  -29.1772  -16.3719   20.9262 C   0  0  0  0  0  0  0  0  0  0  0  0
  -28.9227  -24.1752   19.9737 C   0  0  0  0  0  0  0  0  0  1  0  0
  -26.0719  -26.7421   13.6448 C   0  0  1  0  0  0  0  0  0  0  0  0
  -24.2303  -23.5048   12.9388 C   0  0  2  0  0  0  0  0  0  0  0  0
  -28.9761  -23.3032   21.2197 C   0  0  2  0  0  0  0  0  0  0  0  0
  -25.3634  -28.1147   13.4674 C   0  0  0  0  0  0  0  0  0  0  0  0
  -25.8547  -11.6001   20.3471 N   0  0  0  0  0  0  0  0  0  0  0  0
  -30.7448  -20.8874   17.9677 N   0  0  0  0  0  0  0  0  0  0  0  0
  -26.2407  -12.8787   20.1979 N   0  0  0  0  0  0  0  0  0  0  0  0
  -29.4460  -19.9550   19.7550 N   0  0  0  0  0  0  0  0  0  0  0  0
  -28.5141  -26.4647   13.9319 N   0  0  0  0  0  0  0  0  0  0  0  0
  -29.9777  -13.6361   20.5430 N   0  0  0  0  0  0  0  0  0  0  0  0
  -25.4763  -15.1143   20.3661 N   0  0  0  0  0  0  0  0  0  0  0  0
  -21.8465  -12.6832   21.5108 N   0  0  0  0  0  0  0  0  0  0  0  0
  -31.1947  -28.6146   12.9711 N   0  0  0  0  0  0  0  0  0  0  0  0
  -25.3586  -25.6195   13.0452 N   0  0  0  0  0  0  0  0  0  0  0  0
  -28.9502  -21.1920   20.0578 N   0  0  0  0  0  0  0  0  0  0  0  0
  -30.3743  -15.7850   21.5245 N   0  0  0  0  0  0  0  0  0  0  0  0
  -24.5061  -22.1289   13.4405 N   0  3  0  0  0  0  0  0  0  0  0  0
  -22.6392  -14.8126   21.2007 O   0  0  0  0  0  0  0  0  0  0  0  0
  -29.8942  -28.5069   14.8998 O   0  0  0  0  0  0  0  0  0  0  0  0
  -27.5989  -26.9376   11.8403 O   0  0  0  0  0  0  0  0  0  0  0  0
  -25.1398  -24.3858   14.9964 O   0  0  0  0  0  0  0  0  0  0  0  0
  -30.6647  -21.6324   21.5603 O   0  0  0  0  0  0  0  0  0  0  0  0
  -31.9812  -14.1333   21.5710 O   0  0  0  0  0  0  0  0  0  0  0  0
  -21.5470   -7.1255   21.7511 O   0  0  0  0  0  0  0  0  0  0  0  0
  -30.2397  -24.4636   19.5060 O   0  0  0  0  0  0  0  0  0  1  0  0
  -23.8744   -3.1370   24.7643 F   0  0  0  0  0  0  0  0  0  0  0  0
  -20.4248   -6.3186   24.1453 F   0  0  0  0  0  0  0  0  0  0  0  0
  -29.6399  -23.9910   22.1925 F   0  0  0  0  0  0  0  0  0  0  0  0
  1  2  1  0  0  0  0
  1  5  2  0  0  0  0
  2  6  2  0  0  0  0
  3  8  2  0  0  0  0
  3 15  1  0  0  0  0
  4  9  1  0  0  0  0
  4 15  2  0  0  0  0
  5 17  1  0  0  0  0
  6 19  1  0  0  0  0
  7 10  2  0  0  0  0
  7 18  1  0  0  0  0
  8 21  1  0  0  0  0
  9 21  2  0  0  0  0
 10 22  1  0  0  0  0
 11 12  2  0  0  0  0
 11 23  1  0  0  0  0
 12 24  1  0  0  0  0
 13 20  1  0  0  0  0
 13 22  2  0  0  0  0
 14 24  2  0  0  0  0
 14 25  1  0  0  0  0
 15 26  1  0  0  0  0
 16 26  1  0  0  0  0
 16 27  2  0  0  0  0
 16 33  1  0  0  0  0
 17 19  2  0  0  0  0
 17 39  1  0  0  0  0
 18 20  2  0  0  0  0
 18 40  1  0  0  0  0
 19 48  1  0  0  0  0
 20 41  1  0  0  0  0
 21 82  1  0  0  0  0
 22 83  1  0  0  0  0
 23 25  2  0  0  0  0
 23 82  1  0  0  0  0
 24 84  1  0  0  0  0
 25 85  1  0  0  0  0
 26 63  2  0  0  0  0
 27 65  1  0  0  0  0
 27 69  1  0  0  0  0
 28 29  2  0  0  0  0
 28 31  1  0  0  0  0
 29 32  1  0  0  0  0
 30 31  2  0  0  0  0
 30 66  1  0  0  0  0
 31 57  1  0  0  0  0
 32 64  2  0  0  0  0
 32 66  1  0  0  0  0
 33 70  1  0  0  0  0
 33 76  2  0  0  0  0
 34 49  1  0  0  0  0
 34 71  1  0  0  0  0
 34 77  2  0  0  0  0
 35 59  1  0  0  0  0
 35 67  1  0  0  0  0
 35 78  2  0  0  0  0
 36 60  1  0  0  0  0
 36 72  1  0  0  0  0
 36 79  2  0  0  0  0
 37 61  1  0  0  0  0
 37 73  1  0  0  0  0
 37 80  2  0  0  0  0
 38 68  1  0  0  0  0
 38 74  1  0  0  0  0
 38 81  2  0  0  0  0
 39 42  1  0  0  0  0
 40 49  1  0  0  0  0
 41 67  1  0  0  0  0
 42 44  1  0  0  0  0
 43 45  1  0  0  0  0
 43 46  1  0  0  0  0
 44 48  1  0  0  0  0
 45 50  1  0  0  0  0
 46 68  1  0  0  0  0
 47 50  1  0  0  0  0
 47 68  1  0  0  0  0
 48 71  1  0  0  0  0
 49 67  1  0  0  0  0
 50 65  1  0  0  0  0
 51 60  1  0  0  0  0
 52 62  1  0  0  0  0
 53 62  1  0  0  0  0
 54 62  1  0  0  0  0
 55 74  1  0  0  0  0
 56 75  1  0  0  0  0
 57 74  1  0  0  0  0
 58 61  1  0  0  0  0
 58 83  1  0  0  0  0
 59 62  1  0  0  0  0
 59 72  1  0  0  0  0
 60 75  1  0  0  0  0
 61 86  1  0  0  0  0
 63 65  1  0  0  0  0
 66 73  1  0  0  0  0
M  CHG  1  75   1
M  ISO  4  38 100  58 101  74 100  83 101
M  END
> <Batch ID>
0184

> <Smiles>
CNC(C)C(=O)NC(C(=O)N1Cc2cc([101O:1][101CH2:1]C(F)C(=O)Nn3cc(C[100N:0](C)[100C:0](=O)N4CCCC(n5nc(-c6ccc(Oc7ccc(F)cc7F)cc6)c(C(N)=O)c5N)C4)ccc3=N)ccc2CC1C(=O)NC1CCCc2ccccc21)C(C)(C)C

> <Shape>
0.250

> <Color>
0.190

> <Negative vol penalty>
0.000

$$$$

  -OEChem-04052305023D

 84 92  0     1  0  0  0  0  0999 V2000
  -19.6388  -33.7207   21.2953 C   0  0  0  0  0  0  0  0  0  0  0  0
  -20.9141  -33.2904   20.9432 C   0  0  0  0  0  0  0  0  0  0  0  0
  -24.2119   -9.0828   20.6933 C   0  0  0  0  0  0  0  0  0  0  0  0
  -22.5847  -10.7799   21.2493 C   0  0  0  0  0  0  0  0  0  0  0  0
  -18.9316  -33.0558   22.2962 C   0  0  0  0  0  0  0  0  0  0  0  0
  -21.4834  -32.1956   21.5926 C   0  0  0  0  0  0  0  0  0  0  0  0
  -25.2079  -27.9934   19.1480 C   0  0  0  0  0  0  0  0  0  0  0  0
  -23.2956   -8.0903   21.0410 C   0  0  0  0  0  0  0  0  0  0  0  0
  -21.6683   -9.7874   21.5970 C   0  0  0  0  0  0  0  0  0  0  0  0
  -26.5943  -27.8474   19.1615 C   0  0  0  0  0  0  0  0  0  0  0  0
  -21.5062   -5.1157   22.1245 C   0  0  0  0  0  0  0  0  0  0  0  0
  -21.9629   -4.0542   22.9056 C   0  0  0  0  0  0  0  0  0  0  0  0
  -26.4106  -26.3333   21.0305 C   0  0  0  0  0  0  0  0  0  0  0  0
  -22.5744   -5.6045   24.6548 C   0  0  0  0  0  0  0  0  0  0  0  0
  -27.3960  -19.3452   19.5188 C   0  0  0  0  0  0  0  0  0  0  0  0
  -23.8565  -10.4276   20.7975 C   0  0  0  0  0  0  0  0  0  0  0  0
  -24.9814  -12.0399   19.1719 C   0  0  0  0  0  0  0  0  0  0  0  0
  -19.4887  -31.9463   22.9515 C   0  0  0  0  0  0  0  0  0  0  0  0
  -24.4118  -27.3179   20.0842 C   0  0  0  0  0  0  0  0  0  0  0  0
  -20.7835  -31.5161   22.6041 C   0  0  0  0  0  0  0  0  0  0  0  0
  -25.0141  -26.4705   21.0251 C   0  0  0  0  0  0  0  0  0  0  0  0
  -22.0238   -8.4426   21.4928 C   0  0  0  0  0  0  0  0  0  0  0  0
  -27.1961  -27.0195   20.1047 C   0  0  0  0  0  0  0  0  0  0  0  0
  -21.5838   -6.4217   22.6084 C   0  0  0  0  0  0  0  0  0  0  0  0
  -22.4969   -4.2986   24.1708 C   0  0  0  0  0  0  0  0  0  0  0  0
  -22.1178   -6.6661   23.8736 C   0  0  0  0  0  0  0  0  0  0  0  0
  -24.8028  -11.4533   20.4391 C   0  0  0  0  0  0  0  0  0  0  0  0
  -28.0690  -18.8467   20.6145 C   0  0  0  0  0  0  0  0  0  0  0  0
  -25.9928  -12.9510   19.3547 C   0  0  0  0  0  0  0  0  0  0  0  0
  -29.1150  -20.7655   20.4300 C   0  0  0  0  0  0  0  0  0  0  0  0
  -24.2943  -11.7842   17.9397 C   0  0  0  0  0  0  0  0  0  0  0  0
  -30.0751  -21.8639   20.7198 C   0  0  0  0  0  0  0  0  0  0  0  0
  -22.4219  -28.2107   22.3965 C   0  0  0  0  0  0  0  0  0  0  0  0
  -30.3780  -25.3034   19.8943 C   0  0  0  0  0  0  0  0  0  0  0  0
  -21.8364  -25.0260   22.5886 C   0  0  0  0  0  0  0  0  0  0  0  0
  -22.9258  -21.8409   22.0271 C   0  0  0  0  0  0  0  0  0  0  0  0
  -28.4236  -17.0053   22.2968 C   0  0  0  0  0  0  0  0  0  0  0  0
  -18.7050  -31.2889   24.0598 C   0  0  0  0  0  0  0  0  0  0  0  0
  -22.9156  -27.4651   20.0393 C   0  0  0  0  0  0  0  0  0  0  0  0
  -24.2027  -25.7072   22.0388 C   0  0  0  0  0  0  0  0  0  0  0  0
  -19.2293  -29.9065   24.4394 C   0  0  0  0  0  0  0  0  0  0  0  0
  -29.1267  -13.6526   23.2673 C   0  0  0  0  0  0  0  0  0  0  0  0
  -20.7471  -29.9338   24.5892 C   0  0  0  0  0  0  0  0  0  0  0  0
  -28.0791  -12.8298   22.5138 C   0  0  0  0  0  0  0  0  0  0  0  0
  -28.5622  -14.9898   23.7437 C   0  0  0  0  0  0  0  0  0  0  0  0
  -26.8780  -14.9796   21.9458 C   0  0  0  0  0  0  0  0  0  0  0  0
  -21.4250  -30.3171   23.2683 C   0  0  1  0  0  0  0  0  0  0  0  0
  -22.2422  -27.1312   21.3669 C   0  0  1  0  0  0  0  0  0  0  0  0
  -27.4185  -13.6520   21.3899 C   0  0  2  0  0  0  0  0  0  0  0  0
  -32.2942  -23.7419   19.4741 C   0  0  0  0  0  0  0  0  0  0  0  0
  -22.2431  -19.4444   22.3237 C   0  0  0  0  0  0  0  0  0  0  0  0
  -22.4749  -25.2152   25.5663 C   0  0  0  0  0  0  0  0  0  0  0  0
  -22.7098  -22.7229   25.6032 C   0  0  0  0  0  0  0  0  0  0  0  0
  -20.5197  -23.7588   25.0091 C   0  0  0  0  0  0  0  0  0  0  0  0
  -23.0141  -21.3339   19.1126 C   0  0  0  0  0  0  0  0  0  0  0  0
  -29.0644  -25.6274   20.5816 C   0  0  0  0  0  0  0  0  0  1  0  0
  -31.0293  -23.9835   20.2764 C   0  0  2  0  0  0  0  0  0  0  0  0
  -22.4331  -23.8739   23.3606 C   0  0  1  0  0  0  0  0  0  0  0  0
  -22.2481  -20.6426   21.3873 C   0  0  2  0  0  0  0  0  0  0  0  0
  -22.0501  -23.9085   24.8671 C   0  0  0  0  0  0  0  0  0  0  0  0
  -25.6343  -11.9499   21.3589 N   0  0  0  0  0  0  0  0  0  0  0  0
  -29.0554  -19.6595   21.1381 N   0  0  0  0  0  0  0  0  0  0  0  0
  -30.0712  -22.9151   19.9799 N   0  0  0  0  0  0  0  0  0  0  0  0
  -26.3452  -12.8581   20.6690 N   0  0  0  0  0  0  0  0  0  0  0  0
  -22.7439  -25.8892   21.9584 N   0  0  0  0  0  0  0  0  0  0  0  0
  -27.9564  -15.7150   22.6248 N   0  0  0  0  0  0  0  0  0  0  0  0
  -26.6064  -13.8144   18.5177 N   0  0  0  0  0  0  0  0  0  0  0  0
  -23.2813  -10.8157   17.9281 N   0  0  0  0  0  0  0  0  0  0  0  0
  -30.9275  -21.6538   21.7848 N   0  0  0  0  0  0  0  0  0  0  0  0
  -27.7947  -17.5833   21.1945 N   0  0  0  0  0  0  0  0  0  0  0  0
  -21.4450  -29.1874   22.3639 N   0  0  0  0  0  0  0  0  0  0  0  0
  -22.0189  -22.6594   22.6664 N   0  0  0  0  0  0  0  0  0  0  0  0
  -22.9548  -20.2562   20.1334 N   0  3  0  0  0  0  0  0  0  0  0  0
  -24.5817  -12.3848   16.8766 O   0  0  0  0  0  0  0  0  0  0  0  0
  -23.3754  -28.1604   23.1646 O   0  0  0  0  0  0  0  0  0  0  0  0
  -30.8834  -26.0744   19.0781 O   0  0  0  0  0  0  0  0  0  0  0  0
  -20.6102  -25.1511   22.5405 O   0  0  0  0  0  0  0  0  0  0  0  0
  -24.1388  -22.0298   21.9689 O   0  0  0  0  0  0  0  0  0  0  0  0
  -29.3345  -17.5459   22.9292 O   0  0  0  0  0  0  0  0  0  0  0  0
  -21.1293   -7.4744   21.8319 O   0  0  0  0  0  0  0  0  0  0  0  0
  -28.5492  -26.8757   20.1205 O   0  0  0  0  0  0  0  0  0  1  0  0
  -22.9339   -3.2790   24.9215 F   0  0  0  0  0  0  0  0  0  0  0  0
  -22.1938   -7.9184   24.3444 F   0  0  0  0  0  0  0  0  0  0  0  0
  -28.0136  -20.8948   19.1203 S   0  0  0  0  0  0  0  0  0  0  0  0
  1  2  1  0  0  0  0
  1  5  2  0  0  0  0
  2  6  2  0  0  0  0
  3  8  2  0  0  0  0
  3 16  1  0  0  0  0
  4  9  1  0  0  0  0
  4 16  2  0  0  0  0
  5 18  1  0  0  0  0
  6 20  1  0  0  0  0
  7 10  2  0  0  0  0
  7 19  1  0  0  0  0
  8 22  1  0  0  0  0
  9 22  2  0  0  0  0
 10 23  1  0  0  0  0
 11 12  2  0  0  0  0
 11 24  1  0  0  0  0
 12 25  1  0  0  0  0
 13 21  1  0  0  0  0
 13 23  2  0  0  0  0
 14 25  2  0  0  0  0
 14 26  1  0  0  0  0
 15 28  2  0  0  0  0
 15 84  1  0  0  0  0
 16 27  1  0  0  0  0
 17 27  1  0  0  0  0
 17 29  2  0  0  0  0
 17 31  1  0  0  0  0
 18 20  2  0  0  0  0
 18 38  1  0  0  0  0
 19 21  2  0  0  0  0
 19 39  1  0  0  0  0
 20 47  1  0  0  0  0
 21 40  1  0  0  0  0
 22 80  1  0  0  0  0
 23 81  1  0  0  0  0
 24 26  2  0  0  0  0
 24 80  1  0  0  0  0
 25 82  1  0  0  0  0
 26 83  1  0  0  0  0
 27 61  2  0  0  0  0
 28 62  1  0  0  0  0
 28 70  1  0  0  0  0
 29 64  1  0  0  0  0
 29 67  1  0  0  0  0
 30 32  1  0  0  0  0
 30 62  2  0  0  0  0
 30 84  1  0  0  0  0
 31 68  1  0  0  0  0
 31 74  2  0  0  0  0
 32 63  2  0  0  0  0
 32 69  1  0  0  0  0
 33 48  1  0  0  0  0
 33 71  1  0  0  0  0
 33 75  2  0  0  0  0
 34 56  1  0  0  0  0
 34 57  1  0  0  0  0
 34 76  2  0  0  0  0
 35 58  1  0  0  0  0
 35 65  1  0  0  0  0
 35 77  2  0  0  0  0
 36 59  1  0  0  0  0
 36 72  1  0  0  0  0
 36 78  2  0  0  0  0
 37 66  1  0  0  0  0
 37 70  1  0  0  0  0
 37 79  2  0  0  0  0
 38 41  1  0  0  0  0
 39 48  1  0  0  0  0
 40 65  1  0  0  0  0
 41 43  1  0  0  0  0
 42 44  1  0  0  0  0
 42 45  1  0  0  0  0
 43 47  1  0  0  0  0
 44 49  1  0  0  0  0
 45 66  1  0  0  0  0
 46 49  1  0  0  0  0
 46 66  1  0  0  0  0
 47 71  1  0  0  0  0
 48 65  1  0  0  0  0
 49 64  1  0  0  0  0
 50 57  1  0  0  0  0
 51 59  1  0  0  0  0
 52 60  1  0  0  0  0
 53 60  1  0  0  0  0
 54 60  1  0  0  0  0
 55 73  1  0  0  0  0
 56 81  1  0  0  0  0
 57 63  1  0  0  0  0
 58 60  1  0  0  0  0
 58 72  1  0  0  0  0
 59 73  1  0  0  0  0
 61 64  1  0  0  0  0
M  CHG  1  73   1
M  ISO  4  37 100  56 101  70 100  81 101
M  END
> <Batch ID>
0184

> <Smiles>
CNC(C)C(=O)NC(C(=O)N1Cc2cc([101O:1][101CH2:1]C(=O)C(C)NC(=N)c3nc([100NH:0][100C:0](=O)N4CCCC(n5nc(-c6ccc(Oc7ccc(F)cc7F)cc6)c(C(N)=O)c5N)C4)cs3)ccc2CC1C(=O)NC1CCCc2ccccc21)C(C)(C)C

> <Shape>
0.243

> <Color>
0.131

> <Negative vol penalty>
0.000

$$$$

  -OEChem-04052305023D

 87 95  0     1  0  0  0  0  0999 V2000
  -27.0560  -25.1756    6.9542 C   0  0  0  0  0  0  0  0  0  0  0  0
  -27.3955  -24.6436    8.1941 C   0  0  0  0  0  0  0  0  0  0  0  0
  -23.1062   -9.8899   19.9193 C   0  0  0  0  0  0  0  0  0  0  0  0
  -23.8684   -9.8787   22.2119 C   0  0  0  0  0  0  0  0  0  0  0  0
  -26.3241  -26.3600    6.8819 C   0  0  0  0  0  0  0  0  0  0  0  0
  -27.0042  -25.2965    9.3624 C   0  0  0  0  0  0  0  0  0  0  0  0
  -25.1315  -22.1169   12.8306 C   0  0  0  0  0  0  0  0  0  0  0  0
  -22.3826   -8.7208   20.1541 C   0  0  0  0  0  0  0  0  0  0  0  0
  -23.1448   -8.7096   22.4468 C   0  0  0  0  0  0  0  0  0  0  0  0
  -26.0473  -21.3654   13.5658 C   0  0  0  0  0  0  0  0  0  0  0  0
  -23.0124   -5.4090   20.3992 C   0  0  0  0  0  0  0  0  0  0  0  0
  -23.0960   -4.3936   19.4466 C   0  0  0  0  0  0  0  0  0  0  0  0
  -25.8307  -22.9118   15.4046 C   0  0  0  0  0  0  0  0  0  0  0  0
  -20.7086   -4.5230   19.0992 C   0  0  0  0  0  0  0  0  0  0  0  0
  -23.8491  -10.4688   20.9482 C   0  0  0  0  0  0  0  0  0  0  0  0
  -24.1472  -13.0009   20.8624 C   0  0  0  0  0  0  0  0  0  0  0  0
  -25.9152  -27.0226    8.0501 C   0  0  0  0  0  0  0  0  0  0  0  0
  -24.5658  -23.2794   13.3736 C   0  0  0  0  0  0  0  0  0  0  0  0
  -26.2672  -26.4917    9.3057 C   0  0  0  0  0  0  0  0  0  0  0  0
  -24.9061  -23.6748   14.6752 C   0  0  0  0  0  0  0  0  0  0  0  0
  -22.4019   -8.1306   21.4179 C   0  0  0  0  0  0  0  0  0  0  0  0
  -26.3992  -21.7644   14.8519 C   0  0  0  0  0  0  0  0  0  0  0  0
  -21.7769   -5.9814   20.7020 C   0  0  0  0  0  0  0  0  0  0  0  0
  -21.9441   -3.9506   18.7965 C   0  0  0  0  0  0  0  0  0  0  0  0
  -20.6250   -5.5384   20.0520 C   0  0  0  0  0  0  0  0  0  0  0  0
  -24.5973  -11.6762   20.7061 C   0  0  0  0  0  0  0  0  0  0  0  0
  -29.3916  -18.9072   20.8004 C   0  0  0  0  0  0  0  0  0  0  0  0
  -30.5075  -18.1270   21.0195 C   0  0  0  0  0  0  0  0  0  0  0  0
  -25.2259  -13.7740   20.5084 C   0  0  0  0  0  0  0  0  0  0  0  0
  -30.7256  -19.8153   19.3152 C   0  0  0  0  0  0  0  0  0  0  0  0
  -22.8685  -13.4890   21.2894 C   0  0  0  0  0  0  0  0  0  0  0  0
  -24.5964  -26.3620   12.5988 C   0  0  0  0  0  0  0  0  0  0  0  0
  -29.4396  -21.0496   16.6938 C   0  0  0  0  0  0  0  0  0  0  0  0
  -22.4598  -26.5936   15.0285 C   0  0  0  0  0  0  0  0  0  0  0  0
  -21.2119  -25.2867   17.9236 C   0  0  0  0  0  0  0  0  0  0  0  0
  -30.6914  -14.8849   20.7059 C   0  0  0  0  0  0  0  0  0  0  0  0
  -25.1662  -28.3253    7.9213 C   0  0  0  0  0  0  0  0  0  0  0  0
  -23.5593  -24.0642   12.5777 C   0  0  0  0  0  0  0  0  0  0  0  0
  -24.3118  -24.9038   15.3115 C   0  0  0  0  0  0  0  0  0  0  0  0
  -24.4680  -28.7562    9.2087 C   0  0  0  0  0  0  0  0  0  0  0  0
  -29.5925  -12.5139   18.2878 C   0  0  0  0  0  0  0  0  0  0  0  0
  -25.4107  -28.6166   10.3997 C   0  0  0  0  0  0  0  0  0  0  0  0
  -28.1608  -12.1896   18.7179 C   0  0  0  0  0  0  0  0  0  0  0  0
  -30.5070  -12.7341   19.4908 C   0  0  0  0  0  0  0  0  0  0  0  0
  -28.5945  -13.4133   20.8889 C   0  0  0  0  0  0  0  0  0  0  0  0
  -25.8396  -27.1574   10.5957 C   0  0  1  0  0  0  0  0  0  0  0  0
  -23.4352  -25.5142   13.0353 C   0  0  1  0  0  0  0  0  0  0  0  0
  -27.6222  -13.2380   19.7098 C   0  0  2  0  0  0  0  0  0  0  0  0
  -31.3099  -22.6839   17.0081 C   0  0  0  0  0  0  0  0  0  0  0  0
  -19.4933  -25.7195   19.7003 C   0  0  0  0  0  0  0  0  0  0  0  0
  -24.2489  -28.7540   16.2294 C   0  0  0  0  0  0  0  0  0  0  0  0
  -23.0263  -28.4646   18.3950 C   0  0  0  0  0  0  0  0  0  0  0  0
  -21.7984  -29.2347   16.3647 C   0  0  0  0  0  0  0  0  0  0  0  0
  -19.7899  -22.7607   17.3267 C   0  0  0  0  0  0  0  0  0  0  0  0
  -30.7215  -17.0192   21.9720 C   0  0  0  0  0  0  0  0  0  0  0  0
  -28.0989  -21.7381   16.5151 C   0  0  0  0  0  0  0  0  0  1  0  0
  -30.3953  -21.6837   17.6948 C   0  0  2  0  0  0  0  0  0  0  0  0
  -22.5547  -26.8270   16.5170 C   0  0  1  0  0  0  0  0  0  0  0  0
  -19.7875  -25.0258   18.3793 C   0  0  2  0  0  0  0  0  0  0  0  0
  -28.1005  -18.7962   21.5097 C   0  0  0  0  0  0  0  0  0  0  0  0
  -22.9199  -28.2979   16.8641 C   0  0  0  0  0  0  0  0  0  0  0  0
  -25.8631  -11.6080   20.2854 N   0  0  0  0  0  0  0  0  0  0  0  0
  -29.5149  -19.8761   19.8238 N   0  0  0  0  0  0  0  0  0  0  0  0
  -26.2177  -12.8995   20.1743 N   0  0  0  0  0  0  0  0  0  0  0  0
  -23.3371  -25.6412   14.4908 N   0  0  0  0  0  0  0  0  0  0  0  0
  -29.9398  -13.7408   20.3912 N   0  0  0  0  0  0  0  0  0  0  0  0
  -25.4132  -15.1098   20.4534 N   0  0  0  0  0  0  0  0  0  0  0  0
  -21.8728  -12.5579   21.6151 N   0  0  0  0  0  0  0  0  0  0  0  0
  -31.1920  -20.6449   18.3101 N   0  0  0  0  0  0  0  0  0  0  0  0
  -24.7818  -26.4005   11.2300 N   0  0  0  0  0  0  0  0  0  0  0  0
  -21.2875  -26.3766   17.0824 N   0  0  0  0  0  0  0  0  0  0  0  0
  -30.0773  -15.7917   21.5611 N   0  0  0  0  0  0  0  0  0  0  0  0
  -19.5595  -23.5636   18.5552 N   0  3  0  0  0  0  0  0  0  0  0  0
  -22.6111  -14.7144   21.3638 O   0  0  0  0  0  0  0  0  0  0  0  0
  -25.2731  -26.9397   13.4414 O   0  0  0  0  0  0  0  0  0  0  0  0
  -29.7342  -20.0401   16.0532 O   0  0  0  0  0  0  0  0  0  0  0  0
  -21.6328  -27.2276   14.3685 O   0  0  0  0  0  0  0  0  0  0  0  0
  -22.1629  -24.5951   18.2813 O   0  0  0  0  0  0  0  0  0  0  0  0
  -31.8237  -15.0862   20.2537 O   0  0  0  0  0  0  0  0  0  0  0  0
  -21.6957   -6.9899   21.6474 O   0  0  0  0  0  0  0  0  0  0  0  0
  -27.2932  -21.0332   15.5715 O   0  0  0  0  0  0  0  0  0  1  0  0
  -22.0247   -2.9766   17.8806 F   0  0  0  0  0  0  0  0  0  0  0  0
  -19.4354   -6.0852   20.3377 F   0  0  0  0  0  0  0  0  0  0  0  0
  -28.0662  -17.8100   22.4626 F   0  0  0  0  0  0  0  0  0  0  0  0
  -27.7292  -19.9338   22.1800 F   0  0  0  0  0  0  0  0  0  0  0  0
  -27.0491  -18.5183   20.6758 F   0  0  0  0  0  0  0  0  0  0  0  0
  -31.7677  -18.6162   19.9641 S   0  0  0  0  0  0  0  0  0  0  0  0
  1  2  1  0  0  0  0
  1  5  2  0  0  0  0
  2  6  2  0  0  0  0
  3  8  2  0  0  0  0
  3 15  1  0  0  0  0
  4  9  1  0  0  0  0
  4 15  2  0  0  0  0
  5 17  1  0  0  0  0
  6 19  1  0  0  0  0
  7 10  2  0  0  0  0
  7 18  1  0  0  0  0
  8 21  1  0  0  0  0
  9 21  2  0  0  0  0
 10 22  1  0  0  0  0
 11 12  2  0  0  0  0
 11 23  1  0  0  0  0
 12 24  1  0  0  0  0
 13 20  1  0  0  0  0
 13 22  2  0  0  0  0
 14 24  2  0  0  0  0
 14 25  1  0  0  0  0
 15 26  1  0  0  0  0
 16 26  1  0  0  0  0
 16 29  2  0  0  0  0
 16 31  1  0  0  0  0
 17 19  2  0  0  0  0
 17 37  1  0  0  0  0
 18 20  2  0  0  0  0
 18 38  1  0  0  0  0
 19 46  1  0  0  0  0
 20 39  1  0  0  0  0
 21 80  1  0  0  0  0
 22 81  1  0  0  0  0
 23 25  2  0  0  0  0
 23 80  1  0  0  0  0
 24 82  1  0  0  0  0
 25 83  1  0  0  0  0
 26 62  2  0  0  0  0
 27 28  2  0  0  0  0
 27 60  1  0  0  0  0
 27 63  1  0  0  0  0
 28 55  1  0  0  0  0
 28 87  1  0  0  0  0
 29 64  1  0  0  0  0
 29 67  1  0  0  0  0
 30 63  2  0  0  0  0
 30 69  1  0  0  0  0
 30 87  1  0  0  0  0
 31 68  1  0  0  0  0
 31 74  2  0  0  0  0
 32 47  1  0  0  0  0
 32 70  1  0  0  0  0
 32 75  2  0  0  0  0
 33 56  1  0  0  0  0
 33 57  1  0  0  0  0
 33 76  2  0  0  0  0
 34 58  1  0  0  0  0
 34 65  1  0  0  0  0
 34 77  2  0  0  0  0
 35 59  1  0  0  0  0
 35 71  1  0  0  0  0
 35 78  2  0  0  0  0
 36 66  1  0  0  0  0
 36 72  1  0  0  0  0
 36 79  2  0  0  0  0
 37 40  1  0  0  0  0
 38 47  1  0  0  0  0
 39 65  1  0  0  0  0
 40 42  1  0  0  0  0
 41 43  1  0  0  0  0
 41 44  1  0  0  0  0
 42 46  1  0  0  0  0
 43 48  1  0  0  0  0
 44 66  1  0  0  0  0
 45 48  1  0  0  0  0
 45 66  1  0  0  0  0
 46 70  1  0  0  0  0
 47 65  1  0  0  0  0
 48 64  1  0  0  0  0
 49 57  1  0  0  0  0
 50 59  1  0  0  0  0
 51 61  1  0  0  0  0
 52 61  1  0  0  0  0
 53 61  1  0  0  0  0
 54 73  1  0  0  0  0
 55 72  1  0  0  0  0
 56 81  1  0  0  0  0
 57 69  1  0  0  0  0
 58 61  1  0  0  0  0
 58 71  1  0  0  0  0
 59 73  1  0  0  0  0
 60 84  1  0  0  0  0
 60 85  1  0  0  0  0
 60 86  1  0  0  0  0
 62 64  1  0  0  0  0
M  CHG  1  73   1
M  ISO  4  36 100  56 101  72 100  81 101
M  END
> <Batch ID>
0184

> <Smiles>
CNC(C)C(=O)NC(C(=O)N1Cc2cc([101O:1][101CH2:1]C(=O)C(C)Nc3nc(C(F)(F)F)c(C[100NH:0][100C:0](=O)N4CCCC(n5nc(-c6ccc(Oc7ccc(F)cc7F)cc6)c(C(N)=O)c5N)C4)s3)ccc2CC1C(=O)NC1CCCc2ccccc21)C(C)(C)C

> <Shape>
0.181

> <Color>
0.203

> <Negative vol penalty>
0.000

$$$$

  -OEChem-04052305023D

 89 97  0     1  0  0  0  0  0999 V2000
  -22.7685   -5.5484   20.0623 C   0  0  0  0  0  0  0  0  0  0  0  0
  -24.0206   -6.1211   19.8635 C   0  0  0  0  0  0  0  0  0  0  0  0
  -24.5815  -28.8689   21.3791 C   0  0  0  0  0  0  0  0  0  0  0  0
  -26.1780  -30.6670   21.1443 C   0  0  0  0  0  0  0  0  0  0  0  0
  -21.6166   -6.2624   19.7346 C   0  0  0  0  0  0  0  0  0  0  0  0
  -24.1217   -7.4079   19.3360 C   0  0  0  0  0  0  0  0  0  0  0  0
  -28.3331  -11.6335   20.7193 C   0  0  0  0  0  0  0  0  0  0  0  0
  -23.8337  -29.6481   22.2617 C   0  0  0  0  0  0  0  0  0  0  0  0
  -25.4302  -31.4463   22.0269 C   0  0  0  0  0  0  0  0  0  0  0  0
  -29.5116  -12.0258   20.0860 C   0  0  0  0  0  0  0  0  0  0  0  0
  -24.9763  -31.6848   25.3688 C   0  0  0  0  0  0  0  0  0  0  0  0
  -25.6645  -32.3758   26.3660 C   0  0  0  0  0  0  0  0  0  0  0  0
  -28.3242  -13.8257   19.0045 C   0  0  0  0  0  0  0  0  0  0  0  0
  -29.9858  -17.9834   21.6731 C   0  0  0  0  0  0  0  0  0  0  0  0
  -24.8234  -34.4674   25.4971 C   0  0  0  0  0  0  0  0  0  0  0  0
  -25.7537  -29.3783   20.8204 C   0  0  0  0  0  0  0  0  0  0  0  0
  -26.3939  -28.5092   18.5090 C   0  0  0  0  0  0  0  0  0  0  0  0
  -21.7034   -7.5623   19.2118 C   0  0  0  0  0  0  0  0  0  0  0  0
  -27.1370  -12.3290   20.4911 C   0  0  0  0  0  0  0  0  0  0  0  0
  -22.9700   -8.1395   18.9998 C   0  0  0  0  0  0  0  0  0  0  0  0
  -27.1325  -13.4418   19.6381 C   0  0  0  0  0  0  0  0  0  0  0  0
  -29.5150  -19.1991   22.2479 C   0  0  0  0  0  0  0  0  0  0  0  0
  -24.2580  -30.9368   22.5856 C   0  0  0  0  0  0  0  0  0  0  0  0
  -29.5067  -13.1202   19.2262 C   0  0  0  0  0  0  0  0  0  0  0  0
  -24.2117  -32.3851   24.4356 C   0  0  0  0  0  0  0  0  0  0  0  0
  -25.5881  -33.7671   26.4302 C   0  0  0  0  0  0  0  0  0  0  0  0
  -24.1352  -33.7764   24.4999 C   0  0  0  0  0  0  0  0  0  0  0  0
  -26.5270  -28.5736   19.9090 C   0  0  0  0  0  0  0  0  0  0  0  0
  -28.9327  -20.0234   21.3103 C   0  0  0  0  0  0  0  0  0  0  0  0
  -27.3522  -27.6079   18.1141 C   0  0  0  0  0  0  0  0  0  0  0  0
  -29.7452  -17.9246   20.3179 C   0  0  0  0  0  0  0  0  0  0  0  0
  -25.4854  -29.2022   17.6429 C   0  0  0  0  0  0  0  0  0  0  0  0
  -24.3032  -11.5754   19.2641 C   0  0  0  0  0  0  0  0  0  0  0  0
  -23.5266  -14.5761   20.2207 C   0  0  0  0  0  0  0  0  0  0  0  0
  -24.5730  -17.7267   21.0118 C   0  0  0  0  0  0  0  0  0  0  0  0
  -30.6645  -15.6960   19.5937 C   0  0  0  0  0  0  0  0  0  0  0  0
  -30.0421  -23.1443   21.2442 C   0  0  0  0  0  0  0  0  0  0  0  0
  -28.4347  -22.6782   19.4261 C   0  0  0  0  0  0  0  0  0  0  0  0
  -20.4318   -8.2770   18.8285 C   0  0  0  0  0  0  0  0  0  0  0  0
  -25.8799  -11.9096   21.2027 C   0  0  0  0  0  0  0  0  0  0  0  0
  -25.8791  -14.2345   19.3753 C   0  0  0  0  0  0  0  0  0  0  0  0
  -20.6148   -9.7787   18.6244 C   0  0  0  0  0  0  0  0  0  0  0  0
  -31.6211  -25.8673   19.3773 C   0  0  0  0  0  0  0  0  0  0  0  0
  -21.8469  -10.0549   17.7686 C   0  0  0  0  0  0  0  0  0  0  0  0
  -30.4900  -26.8842   19.2257 C   0  0  0  0  0  0  0  0  0  0  0  0
  -31.4956  -25.0675   20.6713 C   0  0  0  0  0  0  0  0  0  0  0  0
  -29.0474  -25.4195   20.6943 C   0  0  0  0  0  0  0  0  0  0  0  0
  -23.1200   -9.5425   18.4528 C   0  0  1  0  0  0  0  0  0  0  0  0
  -24.6101  -12.3764   20.4978 C   0  0  1  0  0  0  0  0  0  0  0  0
  -29.1157  -26.2079   19.3776 C   0  0  1  0  0  0  0  0  0  0  0  0
  -29.6427  -19.5272   23.6878 C   0  0  0  0  0  0  0  0  0  0  0  0
  -23.7032  -19.9717   21.7194 C   0  0  0  0  0  0  0  0  0  0  0  0
  -33.3502  -14.7866   18.4712 C   0  0  0  0  0  0  0  0  0  0  0  0
  -32.2225  -14.3571   16.2819 C   0  0  0  0  0  0  0  0  0  0  0  0
  -22.5797  -15.1054   17.3688 C   0  0  0  0  0  0  0  0  0  0  0  0
  -22.6259  -17.5554   17.8824 C   0  0  0  0  0  0  0  0  0  0  0  0
  -21.0985  -16.0454   19.1512 C   0  0  0  0  0  0  0  0  0  0  0  0
  -26.0959  -17.6465   23.5482 C   0  0  0  0  0  0  0  0  0  0  0  0
  -26.4647  -22.6095   18.0973 C   0  0  0  0  0  0  0  0  0  0  0  0
  -28.3175  -21.3798   21.5001 C   0  0  0  0  0  0  0  0  0  0  0  0
  -23.5860  -15.9475   19.5924 C   0  0  1  0  0  0  0  0  0  0  0  0
  -24.2474  -18.6308   22.1870 C   0  0  2  0  0  0  0  0  0  0  0  0
  -30.8008  -14.8884   18.3016 C   0  0  1  0  0  0  0  0  0  1  0  0
  -32.1468  -15.1465   17.5928 C   0  0  0  0  0  0  0  0  0  0  0  0
  -22.4959  -16.1475   18.5019 C   0  0  0  0  0  0  0  0  0  0  0  0
  -27.4935  -27.7766   20.3723 N   0  0  0  0  0  0  0  0  0  0  0  0
  -27.9764  -27.2028   19.2571 N   0  0  0  0  0  0  0  0  0  0  0  0
  -24.6742  -13.7813   20.0897 N   0  0  0  0  0  0  0  0  0  0  0  0
  -30.1654  -24.4709   20.7975 N   0  0  0  0  0  0  0  0  0  0  0  0
  -27.7133  -27.1303   16.9042 N   0  0  0  0  0  0  0  0  0  0  0  0
  -24.5657  -30.0924   18.2139 N   0  0  0  0  0  0  0  0  0  0  0  0
  -30.0311  -16.9524   19.3999 N   0  0  0  0  0  0  0  0  0  0  0  0
  -23.5326  -10.4528   19.4995 N   0  0  0  0  0  0  0  0  0  0  0  0
  -23.5139  -16.9037   20.6918 N   0  0  0  0  0  0  0  0  0  0  0  0
  -28.9824  -22.3996   20.6921 N   0  0  0  0  0  0  0  0  0  0  0  0
  -25.4689  -18.8785   23.0040 N   0  3  0  0  0  0  0  0  0  0  0  0
  -25.4782  -29.0245   16.4012 O   0  0  0  0  0  0  0  0  0  0  0  0
  -24.7324  -11.9490   18.1788 O   0  0  0  0  0  0  0  0  0  0  0  0
  -22.5024  -14.2258   20.8122 O   0  0  0  0  0  0  0  0  0  0  0  0
  -25.6569  -17.7508   20.4331 O   0  0  0  0  0  0  0  0  0  0  0  0
  -31.0618  -15.2507   20.6667 O   0  0  0  0  0  0  0  0  0  0  0  0
  -30.8502  -22.6219   22.0205 O   0  0  0  0  0  0  0  0  0  0  0  0
  -29.0669  -23.1639   18.4899 O   0  0  0  0  0  0  0  0  0  0  0  0
  -23.5283  -31.6976   23.4467 O   0  0  0  0  0  0  0  0  0  0  0  0
  -30.6645  -13.5078   18.6014 O   0  0  0  0  0  0  0  0  0  1  0  0
  -27.1054  -22.3520   19.3518 O   0  0  0  0  0  0  0  0  0  0  0  0
  -26.2478  -34.4304   27.3888 F   0  0  0  0  0  0  0  0  0  0  0  0
  -23.4013  -34.4546   23.6069 F   0  0  0  0  0  0  0  0  0  0  0  0
  -28.9550  -19.3313   19.7441 S   0  0  0  0  0  0  0  0  0  0  0  0
  1  2  1  0  0  0  0
  1  5  2  0  0  0  0
  2  6  2  0  0  0  0
  3  8  2  0  0  0  0
  3 16  1  0  0  0  0
  4  9  1  0  0  0  0
  4 16  2  0  0  0  0
  5 18  1  0  0  0  0
  6 20  1  0  0  0  0
  7 10  2  0  0  0  0
  7 19  1  0  0  0  0
  8 23  1  0  0  0  0
  9 23  2  0  0  0  0
 10 24  1  0  0  0  0
 11 12  2  0  0  0  0
 11 25  1  0  0  0  0
 12 26  1  0  0  0  0
 13 21  1  0  0  0  0
 13 24  2  0  0  0  0
 14 22  1  0  0  0  0
 14 31  2  0  0  0  0
 15 26  2  0  0  0  0
 15 27  1  0  0  0  0
 16 28  1  0  0  0  0
 17 28  1  0  0  0  0
 17 30  2  0  0  0  0
 17 32  1  0  0  0  0
 18 20  2  0  0  0  0
 18 39  1  0  0  0  0
 19 21  2  0  0  0  0
 19 40  1  0  0  0  0
 20 48  1  0  0  0  0
 21 41  1  0  0  0  0
 22 29  2  0  0  0  0
 22 51  1  0  0  0  0
 23 84  1  0  0  0  0
 24 85  1  0  0  0  0
 25 27  2  0  0  0  0
 25 84  1  0  0  0  0
 26 87  1  0  0  0  0
 27 88  1  0  0  0  0
 28 66  2  0  0  0  0
 29 60  1  0  0  0  0
 29 89  1  0  0  0  0
 30 67  1  0  0  0  0
 30 70  1  0  0  0  0
 31 72  1  0  0  0  0
 31 89  1  0  0  0  0
 32 71  1  0  0  0  0
 32 77  2  0  0  0  0
 33 49  1  0  0  0  0
 33 73  1  0  0  0  0
 33 78  2  0  0  0  0
 34 61  1  0  0  0  0
 34 68  1  0  0  0  0
 34 79  2  0  0  0  0
 35 62  1  0  0  0  0
 35 74  1  0  0  0  0
 35 80  2  0  0  0  0
 36 63  1  0  0  0  0
 36 72  1  0  0  0  0
 36 81  2  0  0  0  0
 37 69  1  0  0  0  0
 37 75  1  0  0  0  0
 37 82  2  0  0  0  0
 38 75  1  0  0  0  0
 38 83  2  0  0  0  0
 38 86  1  0  0  0  0
 39 42  1  0  0  0  0
 40 49  1  0  0  0  0
 41 68  1  0  0  0  0
 42 44  1  0  0  0  0
 43 45  1  0  0  0  0
 43 46  1  0  0  0  0
 44 48  1  0  0  0  0
 45 50  1  0  0  0  0
 46 69  1  0  0  0  0
 47 50  1  0  0  0  0
 47 69  1  0  0  0  0
 48 73  1  0  0  0  0
 49 68  1  0  0  0  0
 50 67  1  0  0  0  0
 52 62  1  0  0  0  0
 53 64  1  0  0  0  0
 54 64  1  0  0  0  0
 55 65  1  0  0  0  0
 56 65  1  0  0  0  0
 57 65  1  0  0  0  0
 58 76  1  0  0  0  0
 59 86  1  0  0  0  0
 60 75  1  0  0  0  0
 61 65  1  0  0  0  0
 61 74  1  0  0  0  0
 62 76  1  0  0  0  0
 63 64  1  0  0  0  0
 63 85  1  0  0  0  0
 66 67  1  0  0  0  0
M  CHG  1  76   1
M  ISO  4  37 100  63 101  75 100  85 101
M  END
> <Batch ID>
0184

> <Smiles>
CNC(C)C(=O)NC(C(=O)N1Cc2cc([101O:1][101CH:1](C(=O)Nc3cc(C)c(C[100N:0](C(=O)OC)[100C:0](=O)N4CCCC(n5nc(-c6ccc(Oc7ccc(F)cc7F)cc6)c(C(N)=O)c5N)C4)s3)C(C)C)ccc2CC1C(=O)NC1CCCc2ccccc21)C(C)(C)C

> <Shape>
0.277

> <Color>
0.088

> <Negative vol penalty>
0.000

$$$$

  -OEChem-04052305023D

 85 93  0     1  0  0  0  0  0999 V2000
  -30.7418  -33.5544   14.4356 C   0  0  0  0  0  0  0  0  0  0  0  0
  -30.2955  -32.3735   15.0201 C   0  0  0  0  0  0  0  0  0  0  0  0
  -24.2695   -9.3558   21.1041 C   0  0  0  0  0  0  0  0  0  0  0  0
  -24.8755  -10.2140   23.2797 C   0  0  0  0  0  0  0  0  0  0  0  0
  -31.0968  -34.6375   15.2385 C   0  0  0  0  0  0  0  0  0  0  0  0
  -30.2050  -32.2747   16.4081 C   0  0  0  0  0  0  0  0  0  0  0  0
  -26.0155  -29.1618   19.6119 C   0  0  0  0  0  0  0  0  0  0  0  0
  -23.9225   -8.1349   21.6823 C   0  0  0  0  0  0  0  0  0  0  0  0
  -24.5284   -8.9930   23.8580 C   0  0  0  0  0  0  0  0  0  0  0  0
  -26.0390  -27.9046   20.2141 C   0  0  0  0  0  0  0  0  0  0  0  0
  -21.3174   -6.8492   23.4125 C   0  0  0  0  0  0  0  0  0  0  0  0
  -20.1191   -6.2591   23.0109 C   0  0  0  0  0  0  0  0  0  0  0  0
  -26.6214  -28.9302   22.3184 C   0  0  0  0  0  0  0  0  0  0  0  0
  -21.3341   -4.3214   22.2323 C   0  0  0  0  0  0  0  0  0  0  0  0
  -29.8344  -21.0279   20.5972 C   0  0  0  0  0  0  0  0  0  0  0  0
  -24.7461  -10.3954   21.9028 C   0  0  0  0  0  0  0  0  0  0  0  0
  -28.1403  -19.6352   21.3672 C   0  0  0  0  0  0  0  0  0  0  0  0
  -24.2676  -12.7693   21.1006 C   0  0  0  0  0  0  0  0  0  0  0  0
  -31.0015  -34.5552   16.6366 C   0  0  0  0  0  0  0  0  0  0  0  0
  -26.3060  -30.3136   20.3572 C   0  0  0  0  0  0  0  0  0  0  0  0
  -30.5603  -33.3573   17.2305 C   0  0  0  0  0  0  0  0  0  0  0  0
  -26.5984  -30.2010   21.7239 C   0  0  0  0  0  0  0  0  0  0  0  0
  -28.6132  -20.9725   21.2320 C   0  0  0  0  0  0  0  0  0  0  0  0
  -24.0518   -7.9535   23.0592 C   0  0  0  0  0  0  0  0  0  0  0  0
  -26.3448  -27.7884   21.5669 C   0  0  0  0  0  0  0  0  0  0  0  0
  -22.5242   -6.1754   23.2239 C   0  0  0  0  0  0  0  0  0  0  0  0
  -20.1274   -4.9952   22.4208 C   0  0  0  0  0  0  0  0  0  0  0  0
  -22.5325   -4.9116   22.6338 C   0  0  0  0  0  0  0  0  0  0  0  0
  -25.1054  -11.6567   21.3060 C   0  0  0  0  0  0  0  0  0  0  0  0
  -25.0789  -13.7049   20.5066 C   0  0  0  0  0  0  0  0  0  0  0  0
  -29.0182  -18.7194   20.8301 C   0  0  0  0  0  0  0  0  0  0  0  0
  -27.2463  -25.6327   21.6733 C   0  0  0  0  0  0  0  0  0  1  0  0
  -26.8976  -19.2444   21.9858 C   0  0  0  0  0  0  0  0  0  0  0  0
  -22.8802  -12.9416   21.4186 C   0  0  0  0  0  0  0  0  0  0  0  0
  -27.3546  -24.3974   22.1771 C   0  0  0  0  0  0  0  0  0  0  0  0
  -28.3499  -23.4511   21.5755 C   0  0  0  0  0  0  0  0  0  0  0  0
  -28.5455  -32.5654   20.2249 C   0  0  0  0  0  0  0  0  0  0  0  0
  -26.7628  -33.9279   22.5675 C   0  0  0  0  0  0  0  0  0  0  0  0
  -24.4967  -33.5275   25.0877 C   0  0  0  0  0  0  0  0  0  0  0  0
  -29.9083  -16.4561   20.1731 C   0  0  0  0  0  0  0  0  0  0  0  0
  -31.4415  -35.7362   17.4650 C   0  0  0  0  0  0  0  0  0  0  0  0
  -26.2502  -31.6649   19.6989 C   0  0  0  0  0  0  0  0  0  0  0  0
  -26.8977  -31.4086   22.5729 C   0  0  0  0  0  0  0  0  0  0  0  0
  -30.9606  -35.6778   18.9127 C   0  0  0  0  0  0  0  0  0  0  0  0
  -29.7403  -13.2760   18.5807 C   0  0  0  0  0  0  0  0  0  0  0  0
  -31.2058  -34.2920   19.5011 C   0  0  0  0  0  0  0  0  0  0  0  0
  -28.4505  -12.6627   19.1308 C   0  0  0  0  0  0  0  0  0  0  0  0
  -30.4749  -14.0962   19.6396 C   0  0  0  0  0  0  0  0  0  0  0  0
  -28.3721  -14.5090   20.8548 C   0  0  0  0  0  0  0  0  0  0  0  0
  -30.4249  -33.2198   18.7315 C   0  0  1  0  0  0  0  0  0  0  0  0
  -27.0661  -32.7226   20.4357 C   0  0  1  0  0  0  0  0  0  0  0  0
  -27.5639  -13.7272   19.8064 C   0  0  2  0  0  0  0  0  0  0  0  0
  -25.8937  -18.5002   21.1439 C   0  0  0  0  0  0  0  0  0  0  0  0
  -23.2595  -34.8190   26.8481 C   0  0  0  0  0  0  0  0  0  0  0  0
  -29.3051  -34.0667   24.2489 C   0  0  0  0  0  0  0  0  0  0  0  0
  -27.8690  -34.4555   26.2625 C   0  0  0  0  0  0  0  0  0  0  0  0
  -27.8523  -36.0978   24.3849 C   0  0  0  0  0  0  0  0  0  0  0  0
  -21.8681  -32.8024   23.9372 C   0  0  0  0  0  0  0  0  0  0  0  0
  -26.7383  -33.8495   24.0749 C   0  0  1  0  0  0  0  0  0  0  0  0
  -23.2230  -34.2809   25.4261 C   0  0  2  0  0  0  0  0  0  0  0  0
  -27.9375  -34.5942   24.7266 C   0  0  0  0  0  0  0  0  0  0  0  0
  -26.3531  -11.8646   20.8770 N   0  0  0  0  0  0  0  0  0  0  0  0
  -26.3053  -13.1186   20.3961 N   0  0  0  0  0  0  0  0  0  0  0  0
  -26.8369  -32.7072   21.8819 N   0  0  0  0  0  0  0  0  0  0  0  0
  -29.5739  -15.0866   20.2329 N   0  0  0  0  0  0  0  0  0  0  0  0
  -24.8556  -14.9637   20.0730 N   0  0  0  0  0  0  0  0  0  0  0  0
  -22.1972  -11.8796   22.0269 N   0  0  0  0  0  0  0  0  0  0  0  0
  -27.9357  -22.1306   21.6840 N   0  0  0  0  0  0  0  0  0  0  0  0
  -28.9603  -17.3064   20.7414 N   0  0  0  0  0  0  0  0  0  0  0  0
  -29.0303  -33.2354   19.1178 N   0  0  0  0  0  0  0  0  0  0  0  0
  -25.4304  -34.3462   24.4883 N   0  0  0  0  0  0  0  0  0  0  0  0
  -22.0400  -33.3844   25.2932 N   0  3  0  0  0  0  0  0  0  0  0  0
  -26.5767  -19.4734   23.1613 O   0  0  0  0  0  0  0  0  0  0  0  0
  -22.2602  -13.9999   21.1557 O   0  0  0  0  0  0  0  0  0  0  0  0
  -29.3851  -23.8659   21.0655 O   0  0  0  0  0  0  0  0  0  0  0  0
  -29.1989  -31.8878   21.0094 O   0  0  0  0  0  0  0  0  0  0  0  0
  -26.7106  -35.0313   22.0185 O   0  0  0  0  0  0  0  0  0  0  0  0
  -24.6495  -32.3331   25.3340 O   0  0  0  0  0  0  0  0  0  0  0  0
  -30.9453  -16.8479   19.6317 O   0  0  0  0  0  0  0  0  0  0  0  0
  -26.5844  -23.9569   23.2343 O   0  0  0  0  0  0  0  0  0  0  0  0
  -23.7130   -6.7623   23.6239 O   0  0  0  0  0  0  0  0  0  0  0  0
  -26.3691  -26.5624   22.1570 O   0  0  0  0  0  0  0  0  0  1  0  0
  -18.9764   -4.4280   22.0366 F   0  0  0  0  0  0  0  0  0  0  0  0
  -23.6886   -4.2589   22.4511 F   0  0  0  0  0  0  0  0  0  0  0  0
  -30.4059  -19.4721   20.1668 S   0  0  0  0  0  0  0  0  0  0  0  0
  1  2  1  0  0  0  0
  1  5  2  0  0  0  0
  2  6  2  0  0  0  0
  3  8  2  0  0  0  0
  3 16  1  0  0  0  0
  4  9  1  0  0  0  0
  4 16  2  0  0  0  0
  5 19  1  0  0  0  0
  6 21  1  0  0  0  0
  7 10  2  0  0  0  0
  7 20  1  0  0  0  0
  8 24  1  0  0  0  0
  9 24  2  0  0  0  0
 10 25  1  0  0  0  0
 11 12  2  0  0  0  0
 11 26  1  0  0  0  0
 12 27  1  0  0  0  0
 13 22  1  0  0  0  0
 13 25  2  0  0  0  0
 14 27  2  0  0  0  0
 14 28  1  0  0  0  0
 15 23  2  0  0  0  0
 15 85  1  0  0  0  0
 16 29  1  0  0  0  0
 17 23  1  0  0  0  0
 17 31  2  0  0  0  0
 17 33  1  0  0  0  0
 18 29  1  0  0  0  0
 18 30  2  0  0  0  0
 18 34  1  0  0  0  0
 19 21  2  0  0  0  0
 19 41  1  0  0  0  0
 20 22  2  0  0  0  0
 20 42  1  0  0  0  0
 21 50  1  0  0  0  0
 22 43  1  0  0  0  0
 23 68  1  0  0  0  0
 24 81  1  0  0  0  0
 25 82  1  0  0  0  0
 26 28  2  0  0  0  0
 26 81  1  0  0  0  0
 27 83  1  0  0  0  0
 28 84  1  0  0  0  0
 29 62  2  0  0  0  0
 30 63  1  0  0  0  0
 30 66  1  0  0  0  0
 31 69  1  0  0  0  0
 31 85  1  0  0  0  0
 32 35  2  0  0  0  0
 32 82  1  0  0  0  0
 33 53  1  0  0  0  0
 33 73  2  0  0  0  0
 34 67  1  0  0  0  0
 34 74  2  0  0  0  0
 35 36  1  0  0  0  0
 35 80  1  0  0  0  0
 36 68  1  0  0  0  0
 36 75  2  0  0  0  0
 37 51  1  0  0  0  0
 37 70  1  0  0  0  0
 37 76  2  0  0  0  0
 38 59  1  0  0  0  0
 38 64  1  0  0  0  0
 38 77  2  0  0  0  0
 39 60  1  0  0  0  0
 39 71  1  0  0  0  0
 39 78  2  0  0  0  0
 40 65  1  0  0  0  0
 40 69  1  0  0  0  0
 40 79  2  0  0  0  0
 41 44  1  0  0  0  0
 42 51  1  0  0  0  0
 43 64  1  0  0  0  0
 44 46  1  0  0  0  0
 45 47  1  0  0  0  0
 45 48  1  0  0  0  0
 46 50  1  0  0  0  0
 47 52  1  0  0  0  0
 48 65  1  0  0  0  0
 49 52  1  0  0  0  0
 49 65  1  0  0  0  0
 50 70  1  0  0  0  0
 51 64  1  0  0  0  0
 52 63  1  0  0  0  0
 54 60  1  0  0  0  0
 55 61  1  0  0  0  0
 56 61  1  0  0  0  0
 57 61  1  0  0  0  0
 58 72  1  0  0  0  0
 59 61  1  0  0  0  0
 59 71  1  0  0  0  0
 60 72  1  0  0  0  0
 62 63  1  0  0  0  0
M  CHG  1  72   1
M  ISO  4  32 101  40 100  69 100  82 101
M  END
> <Batch ID>
0184

> <Smiles>
CNC(C)C(=O)NC(C(=O)N1Cc2cc([101O:1][101CH2:1]C(=O)C(=O)Nc3csc([100NH:0][100C:0](=O)N4CCCC(n5nc(-c6ccc(Oc7ccc(F)cc7F)cc6)c(C(N)=O)c5N)C4)c3C(C)=O)ccc2CC1C(=O)NC1CCCc2ccccc21)C(C)(C)C

> <Shape>
0.263

> <Color>
0.132

> <Negative vol penalty>
0.000

$$$$

  -OEChem-04052305023D

 83 91  0     1  0  0  0  0  0999 V2000
  -27.7631  -33.3743   27.1348 C   0  0  0  0  0  0  0  0  0  0  0  0
  -27.9891  -32.2934   26.2886 C   0  0  0  0  0  0  0  0  0  0  0  0
  -24.1600   -9.0306   22.1888 C   0  0  0  0  0  0  0  0  0  0  0  0
  -24.6751   -8.1036   20.0180 C   0  0  0  0  0  0  0  0  0  0  0  0
  -26.4588  -33.7327   27.4728 C   0  0  0  0  0  0  0  0  0  0  0  0
  -26.9109  -31.5695   25.7809 C   0  0  0  0  0  0  0  0  0  0  0  0
  -27.3878  -30.5852   20.8363 C   0  0  0  0  0  0  0  0  0  0  0  0
  -23.0626   -8.1759   22.2934 C   0  0  0  0  0  0  0  0  0  0  0  0
  -23.5777   -7.2489   20.1226 C   0  0  0  0  0  0  0  0  0  0  0  0
  -28.2457  -29.5479   20.4735 C   0  0  0  0  0  0  0  0  0  0  0  0
  -20.3369   -5.9865   23.2896 C   0  0  0  0  0  0  0  0  0  0  0  0
  -20.1455   -5.3221   24.5009 C   0  0  0  0  0  0  0  0  0  0  0  0
  -26.3493  -28.0813   20.2052 C   0  0  0  0  0  0  0  0  0  0  0  0
  -22.3044   -4.2642   24.2618 C   0  0  0  0  0  0  0  0  0  0  0  0
  -26.9141  -20.6202   18.9039 C   0  0  0  0  0  0  0  0  0  0  0  0
  -24.9662   -8.9945   21.0511 C   0  0  0  0  0  0  0  0  0  0  0  0
  -27.4186   -9.6235   21.3635 C   0  0  0  0  0  0  0  0  0  0  0  0
  -25.3637  -33.0188   26.9612 C   0  0  0  0  0  0  0  0  0  0  0  0
  -26.0026  -30.3750   20.8970 C   0  0  0  0  0  0  0  0  0  0  0  0
  -25.5907  -31.9179   26.1135 C   0  0  0  0  0  0  0  0  0  0  0  0
  -25.4757  -29.1183   20.5666 C   0  0  0  0  0  0  0  0  0  0  0  0
  -22.7715   -7.2851   21.2603 C   0  0  0  0  0  0  0  0  0  0  0  0
  -27.7268  -28.2949   20.1606 C   0  0  0  0  0  0  0  0  0  0  0  0
  -21.5121   -5.7898   22.5642 C   0  0  0  0  0  0  0  0  0  0  0  0
  -21.1293   -4.4610   24.9871 C   0  0  0  0  0  0  0  0  0  0  0  0
  -22.4958   -4.9287   23.0503 C   0  0  0  0  0  0  0  0  0  0  0  0
  -27.2397  -22.0072   18.8824 C   0  0  0  0  0  0  0  0  0  0  0  0
  -26.0996   -9.8775   20.9423 C   0  0  0  0  0  0  0  0  0  0  0  0
  -27.0316  -20.0806   20.1658 C   0  0  0  0  0  0  0  0  0  0  0  0
  -28.1088  -10.7657   21.0386 C   0  0  0  0  0  0  0  0  0  0  0  0
  -27.5936  -22.4749   20.1290 C   0  0  0  0  0  0  0  0  0  0  0  0
  -26.7963  -18.7524   20.5803 C   0  0  0  0  0  0  0  0  0  0  0  0
  -26.4128  -17.6950   19.7884 C   0  0  0  0  0  0  0  0  0  0  0  0
  -27.9707   -8.4592   21.9922 C   0  0  0  0  0  0  0  0  0  0  0  0
  -26.2148  -16.3535   20.3731 C   0  0  0  0  0  0  0  0  0  0  0  0
  -23.8113  -30.5138   23.1954 C   0  0  0  0  0  0  0  0  0  0  0  0
  -21.7602  -30.0102   20.7333 C   0  0  0  0  0  0  0  0  0  0  0  0
  -21.2580  -28.8001   17.5821 C   0  0  0  0  0  0  0  0  0  0  0  0
  -28.0967  -24.9177   19.7848 C   0  0  0  0  0  0  0  0  0  0  0  0
  -23.9737  -33.4144   27.3927 C   0  0  0  0  0  0  0  0  0  0  0  0
  -25.0885  -31.5116   21.2643 C   0  0  0  0  0  0  0  0  0  0  0  0
  -23.9946  -28.8465   20.5967 C   0  0  0  0  0  0  0  0  0  0  0  0
  -22.8727  -32.8275   26.5131 C   0  0  0  0  0  0  0  0  0  0  0  0
  -28.1227  -14.3898   17.9368 C   0  0  0  0  0  0  0  0  0  0  0  0
  -23.1224  -31.3434   26.2645 C   0  0  0  0  0  0  0  0  0  0  0  0
  -27.8929  -12.9732   18.4568 C   0  0  0  0  0  0  0  0  0  0  0  0
  -26.9049  -15.2852   18.1598 C   0  0  0  0  0  0  0  0  0  0  0  0
  -26.2137  -13.9046   20.0979 C   0  0  0  0  0  0  0  0  0  0  0  0
  -24.4463  -31.1233   25.5226 C   0  0  1  0  0  0  0  0  0  0  0  0
  -23.7355  -31.0438   21.7915 C   0  0  1  0  0  0  0  0  0  0  0  0
  -27.4434  -12.9991   19.9263 C   0  0  1  0  0  0  0  0  0  0  0  0
  -19.4667  -28.4953   15.8513 C   0  0  0  0  0  0  0  0  0  0  0  0
  -29.9307  -25.8917   21.2157 C   0  0  0  0  0  0  0  0  0  0  0  0
  -20.6333  -27.6585   22.3173 C   0  0  0  0  0  0  0  0  0  0  0  0
  -19.5591  -26.8426   20.2081 C   0  0  0  0  0  0  0  0  0  0  0  0
  -18.9130  -29.0563   21.1593 C   0  0  0  0  0  0  0  0  0  0  0  0
  -22.6862  -30.5112   15.6350 C   0  0  0  0  0  0  0  0  0  0  0  0
  -21.1750  -28.7915   20.0615 C   0  0  1  0  0  0  0  0  0  0  0  0
  -20.5719  -29.4024   16.3693 C   0  0  2  0  0  0  0  0  0  0  0  0
  -28.5461  -26.1110   20.6242 C   0  0  1  0  0  0  0  0  0  1  0  0
  -20.0982  -28.0915   20.9378 C   0  0  0  0  0  0  0  0  0  0  0  0
  -25.9578  -11.0862   20.3919 N   0  0  0  0  0  0  0  0  0  0  0  0
  -27.1966  -11.6020   20.4652 N   0  0  0  0  0  0  0  0  0  0  0  0
  -26.4584  -15.2477   19.5605 N   0  0  0  0  0  0  0  0  0  0  0  0
  -23.1424  -29.9881   20.9680 N   0  0  0  0  0  0  0  0  0  0  0  0
  -29.4008  -11.1263   21.1904 N   0  0  0  0  0  0  0  0  0  0  0  0
  -27.1216   -7.3754   22.2543 N   0  0  0  0  0  0  0  0  0  0  0  0
  -27.9829  -23.7664   20.5571 N   0  0  0  0  0  0  0  0  0  0  0  0
  -24.2934  -31.4251   24.1155 N   0  0  0  0  0  0  0  0  0  0  0  0
  -20.6892  -29.2367   18.7599 N   0  0  0  0  0  0  0  0  0  0  0  0
  -21.5562  -29.6180   15.2713 N   0  3  0  0  0  0  0  0  0  0  0  0
  -29.1776   -8.3886   22.3269 O   0  0  0  0  0  0  0  0  0  0  0  0
  -25.8407  -16.2939   21.5458 O   0  0  0  0  0  0  0  0  0  0  0  0
  -23.4572  -29.3637   23.4270 O   0  0  0  0  0  0  0  0  0  0  0  0
  -21.0195  -30.9503   21.0322 O   0  0  0  0  0  0  0  0  0  0  0  0
  -22.2015  -28.0175   17.4935 O   0  0  0  0  0  0  0  0  0  0  0  0
  -27.8655  -25.0348   18.5848 O   0  0  0  0  0  0  0  0  0  0  0  0
  -21.7009   -6.4508   21.3621 O   0  0  0  0  0  0  0  0  0  0  0  0
  -28.5621  -27.2805   19.8068 O   0  0  0  0  0  0  0  0  0  1  0  0
  -20.9460   -3.8242   26.1511 F   0  0  0  0  0  0  0  0  0  0  0  0
  -23.6273   -4.7366   22.3586 F   0  0  0  0  0  0  0  0  0  0  0  0
  -27.2013  -22.7614   17.7819 F   0  0  0  0  0  0  0  0  0  0  0  0
  -27.5327  -21.2441   21.3180 S   0  0  0  0  0  0  0  0  0  0  0  0
  1  2  1  0  0  0  0
  1  5  2  0  0  0  0
  2  6  2  0  0  0  0
  3  8  2  0  0  0  0
  3 16  1  0  0  0  0
  4  9  1  0  0  0  0
  4 16  2  0  0  0  0
  5 18  1  0  0  0  0
  6 20  1  0  0  0  0
  7 10  2  0  0  0  0
  7 19  1  0  0  0  0
  8 22  1  0  0  0  0
  9 22  2  0  0  0  0
 10 23  1  0  0  0  0
 11 12  2  0  0  0  0
 11 24  1  0  0  0  0
 12 25  1  0  0  0  0
 13 21  1  0  0  0  0
 13 23  2  0  0  0  0
 14 25  2  0  0  0  0
 14 26  1  0  0  0  0
 15 27  1  0  0  0  0
 15 29  2  0  0  0  0
 16 28  1  0  0  0  0
 17 28  1  0  0  0  0
 17 30  2  0  0  0  0
 17 34  1  0  0  0  0
 18 20  2  0  0  0  0
 18 40  1  0  0  0  0
 19 21  2  0  0  0  0
 19 41  1  0  0  0  0
 20 49  1  0  0  0  0
 21 42  1  0  0  0  0
 22 78  1  0  0  0  0
 23 79  1  0  0  0  0
 24 26  2  0  0  0  0
 24 78  1  0  0  0  0
 25 80  1  0  0  0  0
 26 81  1  0  0  0  0
 27 31  2  0  0  0  0
 27 82  1  0  0  0  0
 28 62  2  0  0  0  0
 29 32  1  0  0  0  0
 29 83  1  0  0  0  0
 30 63  1  0  0  0  0
 30 66  1  0  0  0  0
 31 68  1  0  0  0  0
 31 83  1  0  0  0  0
 32 33  2  0  0  0  0
 33 35  1  0  0  0  0
 34 67  1  0  0  0  0
 34 72  2  0  0  0  0
 35 64  1  0  0  0  0
 35 73  2  0  0  0  0
 36 50  1  0  0  0  0
 36 69  1  0  0  0  0
 36 74  2  0  0  0  0
 37 58  1  0  0  0  0
 37 65  1  0  0  0  0
 37 75  2  0  0  0  0
 38 59  1  0  0  0  0
 38 70  1  0  0  0  0
 38 76  2  0  0  0  0
 39 60  1  0  0  0  0
 39 68  1  0  0  0  0
 39 77  2  0  0  0  0
 40 43  1  0  0  0  0
 41 50  1  0  0  0  0
 42 65  1  0  0  0  0
 43 45  1  0  0  0  0
 44 46  1  0  0  0  0
 44 47  1  0  0  0  0
 45 49  1  0  0  0  0
 46 51  1  0  0  0  0
 47 64  1  0  0  0  0
 48 51  1  0  0  0  0
 48 64  1  0  0  0  0
 49 69  1  0  0  0  0
 50 65  1  0  0  0  0
 51 63  1  0  0  0  0
 52 59  1  0  0  0  0
 53 60  1  0  0  0  0
 54 61  1  0  0  0  0
 55 61  1  0  0  0  0
 56 61  1  0  0  0  0
 57 71  1  0  0  0  0
 58 61  1  0  0  0  0
 58 70  1  0  0  0  0
 59 71  1  0  0  0  0
 60 79  1  0  0  0  0
 62 63  1  0  0  0  0
M  CHG  1  71   1
M  ISO  4  33 100  35 100  60 101  79 101
M  END
> <Batch ID>
0184

> <Smiles>
CNC(C)C(=O)NC(C(=O)N1Cc2cc([101O:1][101CH:1](C)C(=O)Nc3sc(C=[100CH:0][100C:0](=O)N4CCCC(n5nc(-c6ccc(Oc7ccc(F)cc7F)cc6)c(C(N)=O)c5N)C4)cc3F)ccc2CC1C(=O)NC1CCCc2ccccc21)C(C)(C)C

> <Shape>
0.282

> <Color>
0.104

> <Negative vol penalty>
0.000

$$$$

  -OEChem-04052305023D

 86 94  0     1  0  0  0  0  0999 V2000
  -24.9465  -17.9033   21.2638 C   0  0  0  0  0  0  0  0  0  0  0  0
  -25.2765  -19.2022   20.8906 C   0  0  0  0  0  0  0  0  0  0  0  0
  -26.2889  -12.7921   21.6245 C   0  0  0  0  0  0  0  0  0  0  0  0
  -25.7562  -13.7176   19.4573 C   0  0  0  0  0  0  0  0  0  0  0  0
  -24.5085  -16.9930   20.3028 C   0  0  0  0  0  0  0  0  0  0  0  0
  -25.1697  -19.5913   19.5558 C   0  0  0  0  0  0  0  0  0  0  0  0
  -22.9681  -24.1205   19.0226 C   0  0  0  0  0  0  0  0  0  0  0  0
  -25.0954  -12.0703   21.6096 C   0  0  0  0  0  0  0  0  0  0  0  0
  -24.5628  -12.9958   19.4423 C   0  0  0  0  0  0  0  0  0  0  0  0
  -23.7525  -25.2440   19.2799 C   0  0  0  0  0  0  0  0  0  0  0  0
  -23.9152   -9.2373   20.1903 C   0  0  0  0  0  0  0  0  0  0  0  0
  -23.9624   -7.8985   20.5789 C   0  0  0  0  0  0  0  0  0  0  0  0
  -24.0921  -25.5421   16.9102 C   0  0  0  0  0  0  0  0  0  0  0  0
  -22.4075   -8.3631   22.3687 C   0  0  0  0  0  0  0  0  0  0  0  0
  -28.1111  -21.5044   17.3661 C   0  0  0  0  0  0  0  0  0  0  0  0
  -26.6193  -13.6158   20.5483 C   0  0  0  0  0  0  0  0  0  0  0  0
  -29.1047  -13.9439   20.0766 C   0  0  0  0  0  0  0  0  0  0  0  0
  -24.3871  -17.3740   18.9572 C   0  0  0  0  0  0  0  0  0  0  0  0
  -22.7484  -23.6923   17.7055 C   0  0  0  0  0  0  0  0  0  0  0  0
  -24.7310  -18.6849   18.5757 C   0  0  0  0  0  0  0  0  0  0  0  0
  -23.3024  -24.4143   16.6388 C   0  0  0  0  0  0  0  0  0  0  0  0
  -24.2324  -12.1721   20.5185 C   0  0  0  0  0  0  0  0  0  0  0  0
  -24.3170  -25.9533   18.2238 C   0  0  0  0  0  0  0  0  0  0  0  0
  -23.1142  -10.1391   20.8910 C   0  0  0  0  0  0  0  0  0  0  0  0
  -23.2085   -7.4614   21.6680 C   0  0  0  0  0  0  0  0  0  0  0  0
  -22.3603   -9.7020   21.9801 C   0  0  0  0  0  0  0  0  0  0  0  0
  -27.8517  -14.3621   20.5634 C   0  0  0  0  0  0  0  0  0  0  0  0
  -28.5473  -21.7301   18.6549 C   0  0  0  0  0  0  0  0  0  0  0  0
  -29.9407  -15.0054   20.3236 C   0  0  0  0  0  0  0  0  0  0  0  0
  -28.8299  -23.7515   17.8524 C   0  0  0  0  0  0  0  0  0  0  0  0
  -29.4795  -12.7067   19.4566 C   0  0  0  0  0  0  0  0  0  0  0  0
  -23.4203  -21.0554   16.0626 C   0  0  0  0  0  0  0  0  0  0  0  0
  -21.6560  -22.5081   13.7606 C   0  0  0  0  0  0  0  0  0  0  0  0
  -27.9703  -27.3103   18.4049 C   0  0  0  0  0  0  0  0  0  0  0  0
  -20.4382  -25.4114   12.4436 C   0  0  0  0  0  0  0  0  0  0  0  0
  -29.0065  -20.8709   20.9781 C   0  0  0  0  0  0  0  0  0  0  0  0
  -23.9546  -16.3413   17.9466 C   0  0  0  0  0  0  0  0  0  0  0  0
  -21.8778  -22.4940   17.4435 C   0  0  0  0  0  0  0  0  0  0  0  0
  -23.0801  -24.0078   15.2057 C   0  0  0  0  0  0  0  0  0  0  0  0
  -23.5113  -16.9410   16.6146 C   0  0  0  0  0  0  0  0  0  0  0  0
  -30.5353  -18.6822   23.3339 C   0  0  0  0  0  0  0  0  0  0  0  0
  -24.5114  -17.9919   16.1431 C   0  0  0  0  0  0  0  0  0  0  0  0
  -30.1397  -17.2877   22.8430 C   0  0  0  0  0  0  0  0  0  0  0  0
  -29.4104  -19.6955   23.1299 C   0  0  0  0  0  0  0  0  0  0  0  0
  -28.4817  -18.3702   21.2725 C   0  0  0  0  0  0  0  0  0  0  0  0
  -24.6047  -19.1519   17.1418 C   0  0  1  0  0  0  0  0  0  0  0  0
  -22.1436  -21.8473   16.0876 C   0  0  1  0  0  0  0  0  0  0  0  0
  -29.6064  -17.3294   21.3975 C   0  0  2  0  0  0  0  0  0  0  0  0
  -26.7496  -29.3409   19.1926 C   0  0  0  0  0  0  0  0  0  0  0  0
  -19.0586  -26.2836   10.5374 C   0  0  0  0  0  0  0  0  0  0  0  0
  -31.6160  -24.6938   17.1013 C   0  0  0  0  0  0  0  0  0  0  0  0
  -24.0135  -22.0945   11.8683 C   0  0  0  0  0  0  0  0  0  0  0  0
  -22.9841  -23.7798   10.3294 C   0  0  0  0  0  0  0  0  0  0  0  0
  -21.7703  -21.6636   10.8499 C   0  0  0  0  0  0  0  0  0  0  0  0
  -18.4115  -26.5463   14.2775 C   0  0  0  0  0  0  0  0  0  0  0  0
  -25.8095  -27.0703   19.7005 C   0  0  0  0  0  0  0  0  0  1  0  0
  -29.1847  -25.2295   17.7648 C   0  0  2  0  0  0  0  0  0  0  0  0
  -21.9538  -23.4557   12.6238 C   0  0  1  0  0  0  0  0  0  0  0  0
  -27.0904  -27.8873   19.5172 C   0  0  1  0  0  0  0  0  0  0  0  0
  -19.0463  -25.8012   11.9796 C   0  0  2  0  0  0  0  0  0  0  0  0
  -30.6900  -25.4662   18.0386 C   0  0  1  0  0  0  0  0  0  0  0  0
  -22.6864  -22.7552   11.4448 C   0  0  0  0  0  0  0  0  0  0  0  0
  -27.8841  -15.5931   21.0806 N   0  0  0  0  0  0  0  0  0  0  0  0
  -28.9603  -23.0179   18.9355 N   0  0  0  0  0  0  0  0  0  0  0  0
  -29.1677  -15.9576   20.9203 N   0  0  0  0  0  0  0  0  0  0  0  0
  -22.2266  -22.8257   15.0013 N   0  0  0  0  0  0  0  0  0  0  0  0
  -28.9588  -19.6823   21.7368 N   0  0  0  0  0  0  0  0  0  0  0  0
  -31.2541  -15.2078   20.0864 N   0  0  0  0  0  0  0  0  0  0  0  0
  -28.4965  -11.7235   19.2792 N   0  0  0  0  0  0  0  0  0  0  0  0
  -28.5826  -20.7291   19.6572 N   0  0  0  0  0  0  0  0  0  0  0  0
  -23.4692  -20.0372   16.9955 N   0  0  0  0  0  0  0  0  0  0  0  0
  -28.3472  -25.9989   18.6568 N   0  0  0  0  0  0  0  0  0  0  0  0
  -20.6807  -24.0669   12.2576 N   0  0  0  0  0  0  0  0  0  0  0  0
  -18.5017  -26.8927   12.8357 N   0  3  0  0  0  0  0  0  0  0  0  0
  -30.6551  -12.4733   19.0863 O   0  0  0  0  0  0  0  0  0  0  0  0
  -24.2956  -21.3457   15.2555 O   0  0  0  0  0  0  0  0  0  0  0  0
  -20.9374  -21.5263   13.5570 O   0  0  0  0  0  0  0  0  0  0  0  0
  -28.2989  -27.9571   17.4128 O   0  0  0  0  0  0  0  0  0  0  0  0
  -21.2323  -26.2197   12.9197 O   0  0  0  0  0  0  0  0  0  0  0  0
  -29.4205  -21.9300   21.4565 O   0  0  0  0  0  0  0  0  0  0  0  0
  -30.9943  -25.0477   19.3736 O   0  0  0  0  0  0  0  0  0  0  0  0
  -23.0678  -11.4677   20.5035 O   0  0  0  0  0  0  0  0  0  0  0  0
  -25.0836  -27.0499   18.4721 O   0  0  0  0  0  0  0  0  0  1  0  0
  -23.2528   -6.1754   22.0401 F   0  0  0  0  0  0  0  0  0  0  0  0
  -21.5880  -10.5633   22.6564 F   0  0  0  0  0  0  0  0  0  0  0  0
  -28.2160  -22.9571   16.4606 S   0  0  0  0  0  0  0  0  0  0  0  0
  1  2  1  0  0  0  0
  1  5  2  0  0  0  0
  2  6  2  0  0  0  0
  3  8  2  0  0  0  0
  3 16  1  0  0  0  0
  4  9  1  0  0  0  0
  4 16  2  0  0  0  0
  5 18  1  0  0  0  0
  6 20  1  0  0  0  0
  7 10  2  0  0  0  0
  7 19  1  0  0  0  0
  8 22  1  0  0  0  0
  9 22  2  0  0  0  0
 10 23  1  0  0  0  0
 11 12  2  0  0  0  0
 11 24  1  0  0  0  0
 12 25  1  0  0  0  0
 13 21  1  0  0  0  0
 13 23  2  0  0  0  0
 14 25  2  0  0  0  0
 14 26  1  0  0  0  0
 15 28  2  0  0  0  0
 15 86  1  0  0  0  0
 16 27  1  0  0  0  0
 17 27  1  0  0  0  0
 17 29  2  0  0  0  0
 17 31  1  0  0  0  0
 18 20  2  0  0  0  0
 18 37  1  0  0  0  0
 19 21  2  0  0  0  0
 19 38  1  0  0  0  0
 20 46  1  0  0  0  0
 21 39  1  0  0  0  0
 22 82  1  0  0  0  0
 23 83  1  0  0  0  0
 24 26  2  0  0  0  0
 24 82  1  0  0  0  0
 25 84  1  0  0  0  0
 26 85  1  0  0  0  0
 27 63  2  0  0  0  0
 28 64  1  0  0  0  0
 28 70  1  0  0  0  0
 29 65  1  0  0  0  0
 29 68  1  0  0  0  0
 30 57  1  0  0  0  0
 30 64  2  0  0  0  0
 30 86  1  0  0  0  0
 31 69  1  0  0  0  0
 31 75  2  0  0  0  0
 32 47  1  0  0  0  0
 32 71  1  0  0  0  0
 32 76  2  0  0  0  0
 33 58  1  0  0  0  0
 33 66  1  0  0  0  0
 33 77  2  0  0  0  0
 34 59  1  0  0  0  0
 34 72  1  0  0  0  0
 34 78  2  0  0  0  0
 35 60  1  0  0  0  0
 35 73  1  0  0  0  0
 35 79  2  0  0  0  0
 36 67  1  0  0  0  0
 36 70  1  0  0  0  0
 36 80  2  0  0  0  0
 37 40  1  0  0  0  0
 38 47  1  0  0  0  0
 39 66  1  0  0  0  0
 40 42  1  0  0  0  0
 41 43  1  0  0  0  0
 41 44  1  0  0  0  0
 42 46  1  0  0  0  0
 43 48  1  0  0  0  0
 44 67  1  0  0  0  0
 45 48  1  0  0  0  0
 45 67  1  0  0  0  0
 46 71  1  0  0  0  0
 47 66  1  0  0  0  0
 48 65  1  0  0  0  0
 49 59  1  0  0  0  0
 50 60  1  0  0  0  0
 51 61  1  0  0  0  0
 52 62  1  0  0  0  0
 53 62  1  0  0  0  0
 54 62  1  0  0  0  0
 55 74  1  0  0  0  0
 56 59  1  0  0  0  0
 56 83  1  0  0  0  0
 57 61  1  0  0  0  0
 57 72  1  0  0  0  0
 58 62  1  0  0  0  0
 58 73  1  0  0  0  0
 60 74  1  0  0  0  0
 61 81  1  0  0  0  0
 63 65  1  0  0  0  0
M  CHG  1  74   1
M  ISO  4  36 100  56 101  70 100  83 101
M  END
> <Batch ID>
0184

> <Smiles>
CNC(C)C(=O)NC(C(=O)N1Cc2cc([101O:1][101CH2:1]C(C)C(=O)NC(c3nc([100NH:0][100C:0](=O)N4CCCC(n5nc(-c6ccc(Oc7ccc(F)cc7F)cc6)c(C(N)=O)c5N)C4)cs3)C(C)O)ccc2CC1C(=O)NC1CCCc2ccccc21)C(C)(C)C

> <Shape>
0.198

> <Color>
0.075

> <Negative vol penalty>
0.000

$$$$

  -OEChem-04052305023D

 84 93  0     1  0  0  0  0  0999 V2000
  -22.0294  -34.6851   15.4348 C   0  0  0  0  0  0  0  0  0  0  0  0
  -22.8358  -33.5537   15.5063 C   0  0  0  0  0  0  0  0  0  0  0  0
  -25.8606  -11.7561   21.2110 C   0  0  0  0  0  0  0  0  0  0  0  0
  -24.8020  -11.8357   19.0407 C   0  0  0  0  0  0  0  0  0  0  0  0
  -22.0553  -35.6243   16.4649 C   0  0  0  0  0  0  0  0  0  0  0  0
  -23.6694  -33.3614   16.6074 C   0  0  0  0  0  0  0  0  0  0  0  0
  -25.1471  -28.0225   19.2186 C   0  0  0  0  0  0  0  0  0  0  0  0
  -26.2972  -10.4573   20.9504 C   0  0  0  0  0  0  0  0  0  0  0  0
  -25.2386  -10.5368   18.7801 C   0  0  0  0  0  0  0  0  0  0  0  0
  -26.2643  -27.1971   19.0987 C   0  0  0  0  0  0  0  0  0  0  0  0
  -24.3256   -7.3884   19.6078 C   0  0  0  0  0  0  0  0  0  0  0  0
  -23.4093   -6.4962   19.0512 C   0  0  0  0  0  0  0  0  0  0  0  0
  -27.2204  -28.2158   21.0652 C   0  0  0  0  0  0  0  0  0  0  0  0
  -24.8485   -6.2165   17.1308 C   0  0  0  0  0  0  0  0  0  0  0  0
  -29.8879  -19.5586   21.3438 C   0  0  0  0  0  0  0  0  0  0  0  0
  -25.1129  -12.4453   20.2561 C   0  0  0  0  0  0  0  0  0  0  0  0
  -23.8214  -14.2070   21.5738 C   0  0  0  0  0  0  0  0  0  0  0  0
  -22.8824  -35.4387   17.5838 C   0  0  0  0  0  0  0  0  0  0  0  0
  -25.0629  -28.9599   20.2581 C   0  0  0  0  0  0  0  0  0  0  0  0
  -23.7073  -34.2997   17.6528 C   0  0  0  0  0  0  0  0  0  0  0  0
  -26.0999  -29.0501   21.1976 C   0  0  0  0  0  0  0  0  0  0  0  0
  -25.9862   -9.8476   19.7350 C   0  0  0  0  0  0  0  0  0  0  0  0
  -27.3025  -27.2957   20.0204 C   0  0  0  0  0  0  0  0  0  0  0  0
  -25.5033   -7.6948   18.9260 C   0  0  0  0  0  0  0  0  0  0  0  0
  -23.6708   -5.9102   17.8127 C   0  0  0  0  0  0  0  0  0  0  0  0
  -25.7647   -7.1088   17.6875 C   0  0  0  0  0  0  0  0  0  0  0  0
  -24.6611  -13.7869   20.5249 C   0  0  0  0  0  0  0  0  0  0  0  0
  -29.0711  -20.0263   20.3357 C   0  0  0  0  0  0  0  0  0  0  0  0
  -23.6946  -15.5622   21.3903 C   0  0  0  0  0  0  0  0  0  0  0  0
  -30.3565  -21.7887   20.5629 C   0  0  0  0  0  0  0  0  0  0  0  0
  -31.1517  -25.8521   19.2185 C   0  0  0  0  0  0  0  0  0  0  0  0
  -23.2108  -13.4407   22.6206 C   0  0  0  0  0  0  0  0  0  0  0  0
  -24.8620  -32.1285   20.4106 C   0  0  0  0  0  0  0  0  0  0  0  0
  -24.4757  -31.5619   23.5811 C   0  0  0  0  0  0  0  0  0  0  0  0
  -24.9799  -29.4749   26.2338 C   0  0  0  0  0  0  0  0  0  0  0  0
  -27.1456  -19.6652   18.7519 C   0  0  0  0  0  0  0  0  0  0  0  0
  -22.9114  -36.5049   18.6501 C   0  0  0  0  0  0  0  0  0  0  0  0
  -23.8390  -29.8243   20.3892 C   0  0  0  0  0  0  0  0  0  0  0  0
  -26.0489  -30.0260   22.3437 C   0  0  0  0  0  0  0  0  0  0  0  0
  -32.0784  -24.7567   18.7403 C   0  0  0  0  0  0  0  0  0  0  0  0
  -23.5446  -36.0403   19.9591 C   0  0  0  0  0  0  0  0  0  0  0  0
  -31.4295  -23.3893   18.9168 C   0  0  0  0  0  0  0  0  0  0  0  0
  -23.7611  -18.8984   17.9552 C   0  0  0  0  0  0  0  0  0  0  0  0
  -24.8503  -35.3000   19.6872 C   0  0  0  0  0  0  0  0  0  0  0  0
  -23.5296  -17.5416   18.6243 C   0  0  0  0  0  0  0  0  0  0  0  0
  -25.1738  -19.0162   17.3858 C   0  0  0  0  0  0  0  0  0  0  0  0
  -26.0216  -17.3657   19.0064 C   0  0  0  0  0  0  0  0  0  0  0  0
  -24.6066  -34.0435   18.8427 C   0  0  1  0  0  0  0  0  0  0  0  0
  -30.9439  -23.1683   20.3567 C   0  0  1  0  0  0  0  0  0  0  0  0
  -30.5370  -25.6555   20.5927 C   0  0  1  0  0  0  0  0  0  0  0  0
  -24.0908  -31.0995   21.1879 C   0  0  1  0  0  0  0  0  0  0  0  0
  -24.6335  -17.2245   19.6521 C   0  0  2  0  0  0  0  0  0  0  0  0
  -24.5863  -29.3009   28.7061 C   0  0  0  0  0  0  0  0  0  0  0  0
  -26.7713  -33.5088   24.0811 C   0  0  0  0  0  0  0  0  0  0  0  0
  -26.9563  -32.5861   26.4012 C   0  0  0  0  0  0  0  0  0  0  0  0
  -24.8568  -33.7216   25.6761 C   0  0  0  0  0  0  0  0  0  0  0  0
  -23.3011  -27.0587   25.9139 C   0  0  0  0  0  0  0  0  0  0  0  0
  -29.4207  -26.6461   20.8846 C   0  0  0  0  0  0  0  0  0  1  0  0
  -25.4040  -31.4279   24.7641 C   0  0  1  0  0  0  0  0  0  0  0  0
  -24.0420  -28.9841   27.3219 C   0  0  2  0  0  0  0  0  0  0  0  0
  -25.9992  -32.7939   25.2080 C   0  0  0  0  0  0  0  0  0  0  0  0
  -25.0408  -14.7937   19.7336 N   0  0  0  0  0  0  0  0  0  0  0  0
  -29.3380  -21.3051   19.8869 N   0  0  0  0  0  0  0  0  0  0  0  0
  -24.4368  -15.8599   20.2855 N   0  0  0  0  0  0  0  0  0  0  0  0
  -24.8342  -30.8537   22.4254 N   0  0  0  0  0  0  0  0  0  0  0  0
  -26.1664  -18.7060   18.4170 N   0  0  0  0  0  0  0  0  0  0  0  0
  -23.0216  -16.5164   22.0678 N   0  0  0  0  0  0  0  0  0  0  0  0
  -21.9400  -12.8945   22.3945 N   0  0  0  0  0  0  0  0  0  0  0  0
  -28.0148  -19.2710   19.7686 N   0  0  0  0  0  0  0  0  0  0  0  0
  -24.0698  -32.9792   19.6634 N   0  0  0  0  0  0  0  0  0  0  0  0
  -24.6445  -30.7411   25.8032 N   0  0  0  0  0  0  0  0  0  0  0  0
  -29.9670  -24.2698   20.6941 N   0  3  0  0  0  0  0  0  0  0  0  0
  -23.8536  -27.5095   27.2171 N   0  3  0  0  0  0  0  0  0  0  0  0
  -30.9995  -26.8832   18.5649 O   0  0  0  0  0  0  0  0  0  0  0  0
  -23.7683  -13.2598   23.7296 O   0  0  0  0  0  0  0  0  0  0  0  0
  -26.0850  -32.1500   20.4845 O   0  0  0  0  0  0  0  0  0  0  0  0
  -23.4659  -32.2633   23.6812 O   0  0  0  0  0  0  0  0  0  0  0  0
  -25.9187  -28.8037   25.8110 O   0  0  0  0  0  0  0  0  0  0  0  0
  -27.1914  -20.7665   18.1978 O   0  0  0  0  0  0  0  0  0  0  0  0
  -26.4123   -8.5803   19.4803 O   0  0  0  0  0  0  0  0  0  0  0  0
  -28.3944  -26.4917   19.9053 O   0  0  0  0  0  0  0  0  0  1  0  0
  -22.7915   -5.0521   17.2789 F   0  0  0  0  0  0  0  0  0  0  0  0
  -26.8949   -7.3983   17.0282 F   0  0  0  0  0  0  0  0  0  0  0  0
  -31.0418  -20.7596   21.7530 S   0  0  0  0  0  0  0  0  0  0  0  0
  1  2  1  0  0  0  0
  1  5  2  0  0  0  0
  2  6  2  0  0  0  0
  3  8  2  0  0  0  0
  3 16  1  0  0  0  0
  4  9  1  0  0  0  0
  4 16  2  0  0  0  0
  5 18  1  0  0  0  0
  6 20  1  0  0  0  0
  7 10  2  0  0  0  0
  7 19  1  0  0  0  0
  8 22  1  0  0  0  0
  9 22  2  0  0  0  0
 10 23  1  0  0  0  0
 11 12  2  0  0  0  0
 11 24  1  0  0  0  0
 12 25  1  0  0  0  0
 13 21  1  0  0  0  0
 13 23  2  0  0  0  0
 14 25  2  0  0  0  0
 14 26  1  0  0  0  0
 15 28  2  0  0  0  0
 15 84  1  0  0  0  0
 16 27  1  0  0  0  0
 17 27  1  0  0  0  0
 17 29  2  0  0  0  0
 17 32  1  0  0  0  0
 18 20  2  0  0  0  0
 18 37  1  0  0  0  0
 19 21  2  0  0  0  0
 19 38  1  0  0  0  0
 20 48  1  0  0  0  0
 21 39  1  0  0  0  0
 22 80  1  0  0  0  0
 23 81  1  0  0  0  0
 24 26  2  0  0  0  0
 24 80  1  0  0  0  0
 25 82  1  0  0  0  0
 26 83  1  0  0  0  0
 27 62  2  0  0  0  0
 28 63  1  0  0  0  0
 28 69  1  0  0  0  0
 29 64  1  0  0  0  0
 29 67  1  0  0  0  0
 30 49  1  0  0  0  0
 30 63  2  0  0  0  0
 30 84  1  0  0  0  0
 31 40  1  0  0  0  0
 31 50  1  0  0  0  0
 31 74  2  0  0  0  0
 32 68  1  0  0  0  0
 32 75  2  0  0  0  0
 33 51  1  0  0  0  0
 33 70  1  0  0  0  0
 33 76  2  0  0  0  0
 34 59  1  0  0  0  0
 34 65  1  0  0  0  0
 34 77  2  0  0  0  0
 35 60  1  0  0  0  0
 35 71  1  0  0  0  0
 35 78  2  0  0  0  0
 36 66  1  0  0  0  0
 36 69  1  0  0  0  0
 36 79  2  0  0  0  0
 37 41  1  0  0  0  0
 38 51  1  0  0  0  0
 39 65  1  0  0  0  0
 40 42  1  0  0  0  0
 41 44  1  0  0  0  0
 42 49  1  0  0  0  0
 43 45  1  0  0  0  0
 43 46  1  0  0  0  0
 44 48  1  0  0  0  0
 45 52  1  0  0  0  0
 46 66  1  0  0  0  0
 47 52  1  0  0  0  0
 47 66  1  0  0  0  0
 48 70  1  0  0  0  0
 49 72  1  0  0  0  0
 50 58  1  0  0  0  0
 50 72  1  0  0  0  0
 51 65  1  0  0  0  0
 52 64  1  0  0  0  0
 53 60  1  0  0  0  0
 54 61  1  0  0  0  0
 55 61  1  0  0  0  0
 56 61  1  0  0  0  0
 57 73  1  0  0  0  0
 58 81  1  0  0  0  0
 59 61  1  0  0  0  0
 59 71  1  0  0  0  0
 60 73  1  0  0  0  0
 62 64  1  0  0  0  0
M  CHG  2  72   1  73   1
M  ISO  4  36 100  58 101  69 100  81 101
M  END
> <Batch ID>
0184

> <Smiles>
CNC(C)C(=O)NC(C(=O)N1Cc2cc([101O:1][101CH2:1]C3NC(c4nc([100NH:0][100C:0](=O)N5CCCC(n6nc(-c7ccc(Oc8ccc(F)cc8F)cc7)c(C(N)=O)c6N)C5)cs4)CCC3=O)ccc2CC1C(=O)NC1CCCc2ccccc21)C(C)(C)C

> <Shape>
0.228

> <Color>
0.106

> <Negative vol penalty>
0.000

$$$$

  -OEChem-04052305023D

 84 92  0     1  0  0  0  0  0999 V2000
  -19.2601  -29.4751   19.8939 C   0  0  0  0  0  0  0  0  0  0  0  0
  -19.9334  -28.7991   18.8814 C   0  0  0  0  0  0  0  0  0  0  0  0
  -23.2685   -9.8218   19.8949 C   0  0  0  0  0  0  0  0  0  0  0  0
  -23.6966   -9.9351   22.2700 C   0  0  0  0  0  0  0  0  0  0  0  0
  -19.9241  -29.7966   21.0770 C   0  0  0  0  0  0  0  0  0  0  0  0
  -21.2714  -28.4451   19.0511 C   0  0  0  0  0  0  0  0  0  0  0  0
  -22.2285  -23.6989   17.5670 C   0  0  0  0  0  0  0  0  0  0  0  0
  -22.5193   -8.6608   20.0853 C   0  0  0  0  0  0  0  0  0  0  0  0
  -22.9473   -8.7741   22.4604 C   0  0  0  0  0  0  0  0  0  0  0  0
  -22.3498  -23.4725   16.1967 C   0  0  0  0  0  0  0  0  0  0  0  0
  -20.7929   -5.4655   19.9027 C   0  0  0  0  0  0  0  0  0  0  0  0
  -21.0080   -4.4020   19.0262 C   0  0  0  0  0  0  0  0  0  0  0  0
  -24.7524  -23.4966   16.4116 C   0  0  0  0  0  0  0  0  0  0  0  0
  -23.3226   -4.3049   19.7120 C   0  0  0  0  0  0  0  0  0  0  0  0
  -25.9196  -18.3993   15.8991 C   0  0  0  0  0  0  0  0  0  0  0  0
  -23.8573  -10.4590   20.9872 C   0  0  0  0  0  0  0  0  0  0  0  0
  -24.1637  -12.9854   20.8124 C   0  0  0  0  0  0  0  0  0  0  0  0
  -21.2682  -29.4378   21.2652 C   0  0  0  0  0  0  0  0  0  0  0  0
  -23.3702  -23.8369   18.3695 C   0  0  0  0  0  0  0  0  0  0  0  0
  -21.9544  -28.7632   20.2373 C   0  0  0  0  0  0  0  0  0  0  0  0
  -24.6429  -23.7222   17.7923 C   0  0  0  0  0  0  0  0  0  0  0  0
  -22.3587   -8.1369   21.3680 C   0  0  0  0  0  0  0  0  0  0  0  0
  -23.6119  -23.3742   15.6183 C   0  0  0  0  0  0  0  0  0  0  0  0
  -21.8427   -5.9488   20.6839 C   0  0  0  0  0  0  0  0  0  0  0  0
  -22.2728   -3.8217   18.9308 C   0  0  0  0  0  0  0  0  0  0  0  0
  -23.1075   -5.3685   20.5885 C   0  0  0  0  0  0  0  0  0  0  0  0
  -26.7600  -17.3847   16.4416 C   0  0  0  0  0  0  0  0  0  0  0  0
  -24.6318  -11.6580   20.7912 C   0  0  0  0  0  0  0  0  0  0  0  0
  -28.0951  -17.7074   16.3361 C   0  0  0  0  0  0  0  0  0  0  0  0
  -25.2815  -13.7476   20.5755 C   0  0  0  0  0  0  0  0  0  0  0  0
  -26.6444  -19.4591   15.3996 C   0  0  0  0  0  0  0  0  0  0  0  0
  -22.8370  -13.4850   21.0273 C   0  0  0  0  0  0  0  0  0  0  0  0
  -29.2801  -16.9269   16.7758 C   0  0  0  0  0  0  0  0  0  0  0  0
  -24.5733  -26.1573   20.1783 C   0  0  0  0  0  0  0  0  0  0  0  0
  -26.7242  -23.8716   20.9976 C   0  0  0  0  0  0  0  0  0  0  0  0
  -28.3134  -20.9634   20.1828 C   0  0  0  0  0  0  0  0  0  0  0  0
  -24.9181  -21.0720   14.5293 C   0  0  0  0  0  0  0  0  0  0  0  0
  -29.9736  -14.7937   17.8208 C   0  0  0  0  0  0  0  0  0  0  0  0
  -21.9572  -29.8487   22.5423 C   0  0  0  0  0  0  0  0  0  0  0  0
  -23.2222  -24.0542   19.8505 C   0  0  0  0  0  0  0  0  0  0  0  0
  -25.8998  -23.8427   18.6133 C   0  0  0  0  0  0  0  0  0  0  0  0
  -23.2678  -29.1071   22.7930 C   0  0  0  0  0  0  0  0  0  0  0  0
  -30.1822  -12.4718   20.4783 C   0  0  0  0  0  0  0  0  0  0  0  0
  -24.1180  -29.0825   21.5268 C   0  0  0  0  0  0  0  0  0  0  0  0
  -28.7182  -12.1660   20.8064 C   0  0  0  0  0  0  0  0  0  0  0  0
  -30.4032  -12.6427   18.9760 C   0  0  0  0  0  0  0  0  0  0  0  0
  -28.0543  -13.3009   18.6488 C   0  0  0  0  0  0  0  0  0  0  0  0
  -23.3989  -28.3403   20.3938 C   0  0  1  0  0  0  0  0  0  0  0  0
  -24.4535  -24.6917   20.4868 C   0  0  1  0  0  0  0  0  0  0  0  0
  -27.7668  -13.1896   20.1548 C   0  0  1  0  0  0  0  0  0  0  0  0
  -30.0466  -19.3605   21.0336 C   0  0  0  0  0  0  0  0  0  0  0  0
  -24.8485  -22.3001   12.3279 C   0  0  0  0  0  0  0  0  0  0  0  0
  -28.9229  -25.8361   20.2125 C   0  0  0  0  0  0  0  0  0  0  0  0
  -30.5276  -23.9148   20.1685 C   0  0  0  0  0  0  0  0  0  0  0  0
  -29.3834  -24.5335   22.2971 C   0  0  0  0  0  0  0  0  0  0  0  0
  -26.3740  -18.7294   20.2656 C   0  0  0  0  0  0  0  0  0  0  0  0
  -28.0580  -23.4158   20.4570 C   0  0  1  0  0  0  0  0  0  0  0  0
  -28.5642  -19.6954   20.9788 C   0  0  2  0  0  0  0  0  0  0  0  0
  -24.8856  -22.4351   13.8430 C   0  0  1  0  0  0  0  0  0  1  0  0
  -29.1995  -24.4247   20.7677 C   0  0  0  0  0  0  0  0  0  0  0  0
  -25.9447  -11.5779   20.5589 N   0  0  0  0  0  0  0  0  0  0  0  0
  -26.3111  -12.8647   20.4319 N   0  0  0  0  0  0  0  0  0  0  0  0
  -25.7029  -24.0612   20.0559 N   0  0  0  0  0  0  0  0  0  0  0  0
  -29.4709  -13.6348   18.4377 N   0  0  0  0  0  0  0  0  0  0  0  0
  -25.4743  -15.0802   20.4779 N   0  0  0  0  0  0  0  0  0  0  0  0
  -21.8054  -12.5643   21.2564 N   0  0  0  0  0  0  0  0  0  0  0  0
  -26.2227  -20.6602   14.7813 N   0  0  0  0  0  0  0  0  0  0  0  0
  -29.0031  -15.6992   17.3779 N   0  0  0  0  0  0  0  0  0  0  0  0
  -23.4894  -26.9093   20.5898 N   0  0  0  0  0  0  0  0  0  0  0  0
  -28.2805  -22.0777   20.9942 N   0  0  0  0  0  0  0  0  0  0  0  0
  -27.8451  -18.5454   20.3613 N   0  3  0  0  0  0  0  0  0  0  0  0
  -22.5713  -14.7106   21.0001 O   0  0  0  0  0  0  0  0  0  0  0  0
  -30.4037  -17.3712   16.5567 O   0  0  0  0  0  0  0  0  0  0  0  0
  -25.5756  -26.5753   19.6105 O   0  0  0  0  0  0  0  0  0  0  0  0
  -26.5913  -24.0459   22.2115 O   0  0  0  0  0  0  0  0  0  0  0  0
  -28.1654  -20.9656   18.9627 O   0  0  0  0  0  0  0  0  0  0  0  0
  -23.8822  -20.4761   14.8104 O   0  0  0  0  0  0  0  0  0  0  0  0
  -31.1823  -15.0209   17.7081 O   0  0  0  0  0  0  0  0  0  0  0  0
  -21.6274   -7.0042   21.5542 O   0  0  0  0  0  0  0  0  0  0  0  0
  -23.7332  -23.1539   14.2809 O   0  0  0  0  0  0  0  0  0  1  0  0
  -22.4788   -2.7994   18.0902 F   0  0  0  0  0  0  0  0  0  0  0  0
  -24.1196   -5.8276   21.3372 F   0  0  0  0  0  0  0  0  0  0  0  0
  -26.3016  -16.2562   16.9867 F   0  0  0  0  0  0  0  0  0  0  0  0
  -28.3310  -19.2283   15.5854 S   0  0  0  0  0  0  0  0  0  0  0  0
  1  2  1  0  0  0  0
  1  5  2  0  0  0  0
  2  6  2  0  0  0  0
  3  8  2  0  0  0  0
  3 16  1  0  0  0  0
  4  9  1  0  0  0  0
  4 16  2  0  0  0  0
  5 18  1  0  0  0  0
  6 20  1  0  0  0  0
  7 10  2  0  0  0  0
  7 19  1  0  0  0  0
  8 22  1  0  0  0  0
  9 22  2  0  0  0  0
 10 23  1  0  0  0  0
 11 12  2  0  0  0  0
 11 24  1  0  0  0  0
 12 25  1  0  0  0  0
 13 21  1  0  0  0  0
 13 23  2  0  0  0  0
 14 25  2  0  0  0  0
 14 26  1  0  0  0  0
 15 27  1  0  0  0  0
 15 31  2  0  0  0  0
 16 28  1  0  0  0  0
 17 28  1  0  0  0  0
 17 30  2  0  0  0  0
 17 32  1  0  0  0  0
 18 20  2  0  0  0  0
 18 39  1  0  0  0  0
 19 21  2  0  0  0  0
 19 40  1  0  0  0  0
 20 48  1  0  0  0  0
 21 41  1  0  0  0  0
 22 79  1  0  0  0  0
 23 80  1  0  0  0  0
 24 26  2  0  0  0  0
 24 79  1  0  0  0  0
 25 81  1  0  0  0  0
 26 82  1  0  0  0  0
 27 29  2  0  0  0  0
 27 83  1  0  0  0  0
 28 61  2  0  0  0  0
 29 33  1  0  0  0  0
 29 84  1  0  0  0  0
 30 62  1  0  0  0  0
 30 65  1  0  0  0  0
 31 67  1  0  0  0  0
 31 84  1  0  0  0  0
 32 66  1  0  0  0  0
 32 72  2  0  0  0  0
 33 68  1  0  0  0  0
 33 73  2  0  0  0  0
 34 49  1  0  0  0  0
 34 69  1  0  0  0  0
 34 74  2  0  0  0  0
 35 57  1  0  0  0  0
 35 63  1  0  0  0  0
 35 75  2  0  0  0  0
 36 58  1  0  0  0  0
 36 70  1  0  0  0  0
 36 76  2  0  0  0  0
 37 59  1  0  0  0  0
 37 67  1  0  0  0  0
 37 77  2  0  0  0  0
 38 64  1  0  0  0  0
 38 68  1  0  0  0  0
 38 78  2  0  0  0  0
 39 42  1  0  0  0  0
 40 49  1  0  0  0  0
 41 63  1  0  0  0  0
 42 44  1  0  0  0  0
 43 45  1  0  0  0  0
 43 46  1  0  0  0  0
 44 48  1  0  0  0  0
 45 50  1  0  0  0  0
 46 64  1  0  0  0  0
 47 50  1  0  0  0  0
 47 64  1  0  0  0  0
 48 69  1  0  0  0  0
 49 63  1  0  0  0  0
 50 62  1  0  0  0  0
 51 58  1  0  0  0  0
 52 59  1  0  0  0  0
 53 60  1  0  0  0  0
 54 60  1  0  0  0  0
 55 60  1  0  0  0  0
 56 71  1  0  0  0  0
 57 60  1  0  0  0  0
 57 70  1  0  0  0  0
 58 71  1  0  0  0  0
 59 80  1  0  0  0  0
 61 62  1  0  0  0  0
M  CHG  1  71   1
M  ISO  4  38 100  59 101  68 100  80 101
M  END
> <Batch ID>
0184

> <Smiles>
CNC(C)C(=O)NC(C(=O)N1Cc2cc([101O:1][101CH:1](C)C(=O)Nc3cc(F)c(C(=O)[100NH:0][100C:0](=O)N4CCCC(n5nc(-c6ccc(Oc7ccc(F)cc7F)cc6)c(C(N)=O)c5N)C4)s3)ccc2CC1C(=O)NC1CCCc2ccccc21)C(C)(C)C

> <Shape>
0.218

> <Color>
0.171

> <Negative vol penalty>
0.000

$$$$

  -OEChem-04052305023D

 83 91  0     1  0  0  0  0  0999 V2000
  -18.5090  -25.7077   23.0538 C   0  0  0  0  0  0  0  0  0  0  0  0
  -19.8953  -25.6395   23.1492 C   0  0  0  0  0  0  0  0  0  0  0  0
  -24.3992  -14.1912   19.7600 C   0  0  0  0  0  0  0  0  0  0  0  0
  -24.3177  -15.4223   21.8373 C   0  0  0  0  0  0  0  0  0  0  0  0
  -17.9130  -26.6972   22.2732 C   0  0  0  0  0  0  0  0  0  0  0  0
  -20.6863  -26.5603   22.4630 C   0  0  0  0  0  0  0  0  0  0  0  0
  -26.0271  -28.9220   24.3079 C   0  0  0  0  0  0  0  0  0  0  0  0
  -24.5584  -13.0019   20.4711 C   0  0  0  0  0  0  0  0  0  0  0  0
  -24.4768  -14.2329   22.5484 C   0  0  0  0  0  0  0  0  0  0  0  0
  -27.3495  -28.6006   24.0050 C   0  0  0  0  0  0  0  0  0  0  0  0
  -22.6012  -10.8476   22.1921 C   0  0  0  0  0  0  0  0  0  0  0  0
  -21.8360   -9.7498   21.7987 C   0  0  0  0  0  0  0  0  0  0  0  0
  -27.3764  -30.3261   22.3194 C   0  0  0  0  0  0  0  0  0  0  0  0
  -23.8560   -8.5001   21.3570 C   0  0  0  0  0  0  0  0  0  0  0  0
  -24.2789  -15.4015   20.4431 C   0  0  0  0  0  0  0  0  0  0  0  0
  -22.9042  -17.2265   19.3085 C   0  0  0  0  0  0  0  0  0  0  0  0
  -18.6968  -27.6366   21.5849 C   0  0  0  0  0  0  0  0  0  0  0  0
  -25.3649  -29.9424   23.6102 C   0  0  0  0  0  0  0  0  0  0  0  0
  -20.1002  -27.5625   21.6714 C   0  0  0  0  0  0  0  0  0  0  0  0
  -26.0465  -30.6602   22.6172 C   0  0  0  0  0  0  0  0  0  0  0  0
  -24.5971  -13.0227   21.8653 C   0  0  0  0  0  0  0  0  0  0  0  0
  -28.0234  -29.3007   23.0086 C   0  0  0  0  0  0  0  0  0  0  0  0
  -23.9939  -10.7718   22.1679 C   0  0  0  0  0  0  0  0  0  0  0  0
  -22.4634   -8.5760   21.3812 C   0  0  0  0  0  0  0  0  0  0  0  0
  -24.6212   -9.5980   21.7504 C   0  0  0  0  0  0  0  0  0  0  0  0
  -24.1151  -16.6305   19.7091 C   0  0  0  0  0  0  0  0  0  0  0  0
  -27.9036  -23.1193   21.1079 C   0  0  0  0  0  0  0  0  0  0  0  0
  -23.2858  -18.3685   18.6477 C   0  0  0  0  0  0  0  0  0  0  0  0
  -27.3887  -23.2236   22.3831 C   0  0  0  0  0  0  0  0  0  0  0  0
  -28.7597  -25.0640   21.6512 C   0  0  0  0  0  0  0  0  0  0  0  0
  -21.5552  -16.7871   19.5154 C   0  0  0  0  0  0  0  0  0  0  0  0
  -22.8058  -30.0783   21.7297 C   0  0  0  0  0  0  0  0  0  0  0  0
  -23.3543  -33.2723   21.8705 C   0  0  0  0  0  0  0  0  0  0  0  0
  -30.2243  -26.8318   20.6131 C   0  0  0  0  0  0  0  0  0  0  0  0
  -25.5771  -35.8103   22.3846 C   0  0  0  0  0  0  0  0  0  0  0  0
  -28.1445  -21.8330   18.9553 C   0  0  0  0  0  0  0  0  0  0  0  0
  -18.0085  -28.6589   20.7156 C   0  0  0  0  0  0  0  0  0  0  0  0
  -23.9469  -30.2948   23.9673 C   0  0  0  0  0  0  0  0  0  0  0  0
  -25.3870  -31.7779   21.8528 C   0  0  0  0  0  0  0  0  0  0  0  0
  -18.9081  -29.8270   20.3202 C   0  0  0  0  0  0  0  0  0  0  0  0
  -26.8926  -20.1728   16.0651 C   0  0  0  0  0  0  0  0  0  0  0  0
  -20.2655  -29.3184   19.8451 C   0  0  0  0  0  0  0  0  0  0  0  0
  -25.9235  -19.1343   16.6347 C   0  0  0  0  0  0  0  0  0  0  0  0
  -28.1186  -20.3545   16.9582 C   0  0  0  0  0  0  0  0  0  0  0  0
  -26.8537  -19.6084   18.9363 C   0  0  0  0  0  0  0  0  0  0  0  0
  -20.9916  -28.5585   20.9618 C   0  0  1  0  0  0  0  0  0  0  0  0
  -23.2065  -31.0079   22.8401 C   0  0  1  0  0  0  0  0  0  0  0  0
  -25.5720  -19.4380   18.1044 C   0  0  2  0  0  0  0  0  0  0  0  0
  -31.6900  -28.7133   19.8647 C   0  0  0  0  0  0  0  0  0  0  0  0
  -25.7400  -38.3145   22.3946 C   0  0  0  0  0  0  0  0  0  0  0  0
  -23.3369  -33.2832   18.8194 C   0  0  0  0  0  0  0  0  0  0  0  0
  -24.4231  -35.5378   18.8906 C   0  0  0  0  0  0  0  0  0  0  0  0
  -22.1542  -35.2168   19.8762 C   0  0  0  0  0  0  0  0  0  0  0  0
  -26.3624  -35.8637   25.2375 C   0  0  0  0  0  0  0  0  0  0  0  0
  -29.7405  -29.2045   21.3659 C   0  0  0  0  0  0  0  0  0  1  0  0
  -24.1684  -34.2539   21.0626 C   0  0  1  0  0  0  0  0  0  0  0  0
  -30.8268  -28.1866   21.0105 C   0  0  1  0  0  0  0  0  0  0  0  0
  -25.4918  -37.0682   23.2301 C   0  0  2  0  0  0  0  0  0  0  0  0
  -23.5327  -34.5506   19.6751 C   0  0  0  0  0  0  0  0  0  0  0  0
  -25.1857  -17.3355   19.3339 N   0  0  0  0  0  0  0  0  0  0  0  0
  -28.6897  -24.1739   20.6863 N   0  0  0  0  0  0  0  0  0  0  0  0
  -24.6489  -18.3863   18.6906 N   0  0  0  0  0  0  0  0  0  0  0  0
  -23.9976  -32.0808   22.2342 N   0  0  0  0  0  0  0  0  0  0  0  0
  -27.7084  -20.6436   18.3341 N   0  0  0  0  0  0  0  0  0  0  0  0
  -22.5849  -19.3492   18.0398 N   0  0  0  0  0  0  0  0  0  0  0  0
  -21.3418  -15.5915   20.2148 N   0  0  0  0  0  0  0  0  0  0  0  0
  -27.6645  -22.0159   20.2517 N   0  0  0  0  0  0  0  0  0  0  0  0
  -29.4582  -26.2949   21.6444 N   0  0  0  0  0  0  0  0  0  0  0  0
  -21.5706  -29.4857   21.9102 N   0  0  0  0  0  0  0  0  0  0  0  0
  -24.3407  -35.4323   21.9053 N   0  0  0  0  0  0  0  0  0  0  0  0
  -26.5031  -37.0267   24.3239 N   0  3  0  0  0  0  0  0  0  0  0  0
  -20.5689  -17.4272   19.0784 O   0  0  0  0  0  0  0  0  0  0  0  0
  -23.5607  -29.9122   20.7788 O   0  0  0  0  0  0  0  0  0  0  0  0
  -22.1927  -33.5555   22.1740 O   0  0  0  0  0  0  0  0  0  0  0  0
  -30.4350  -26.3305   19.5125 O   0  0  0  0  0  0  0  0  0  0  0  0
  -26.6353  -35.2240   22.1677 O   0  0  0  0  0  0  0  0  0  0  0  0
  -28.8669  -22.6437   18.3698 O   0  0  0  0  0  0  0  0  0  0  0  0
  -24.7522  -11.8623   22.5595 O   0  0  0  0  0  0  0  0  0  0  0  0
  -29.3140  -28.9885   22.7105 O   0  0  0  0  0  0  0  0  0  1  0  0
  -21.7284   -7.5213   21.0049 F   0  0  0  0  0  0  0  0  0  0  0  0
  -25.9587   -9.5187   21.7262 F   0  0  0  0  0  0  0  0  0  0  0  0
  -26.6080  -22.3196   22.9811 F   0  0  0  0  0  0  0  0  0  0  0  0
  -27.9047  -24.6970   23.0931 S   0  0  0  0  0  0  0  0  0  0  0  0
  1  2  1  0  0  0  0
  1  5  2  0  0  0  0
  2  6  2  0  0  0  0
  3  8  2  0  0  0  0
  3 15  1  0  0  0  0
  4  9  1  0  0  0  0
  4 15  2  0  0  0  0
  5 17  1  0  0  0  0
  6 19  1  0  0  0  0
  7 10  2  0  0  0  0
  7 18  1  0  0  0  0
  8 21  1  0  0  0  0
  9 21  2  0  0  0  0
 10 22  1  0  0  0  0
 11 12  2  0  0  0  0
 11 23  1  0  0  0  0
 12 24  1  0  0  0  0
 13 20  1  0  0  0  0
 13 22  2  0  0  0  0
 14 24  2  0  0  0  0
 14 25  1  0  0  0  0
 15 26  1  0  0  0  0
 16 26  1  0  0  0  0
 16 28  2  0  0  0  0
 16 31  1  0  0  0  0
 17 19  2  0  0  0  0
 17 37  1  0  0  0  0
 18 20  2  0  0  0  0
 18 38  1  0  0  0  0
 19 46  1  0  0  0  0
 20 39  1  0  0  0  0
 21 78  1  0  0  0  0
 22 79  1  0  0  0  0
 23 25  2  0  0  0  0
 23 78  1  0  0  0  0
 24 80  1  0  0  0  0
 25 81  1  0  0  0  0
 26 60  2  0  0  0  0
 27 29  2  0  0  0  0
 27 61  1  0  0  0  0
 27 67  1  0  0  0  0
 28 62  1  0  0  0  0
 28 65  1  0  0  0  0
 29 82  1  0  0  0  0
 29 83  1  0  0  0  0
 30 61  2  0  0  0  0
 30 68  1  0  0  0  0
 30 83  1  0  0  0  0
 31 66  1  0  0  0  0
 31 72  2  0  0  0  0
 32 47  1  0  0  0  0
 32 69  1  0  0  0  0
 32 73  2  0  0  0  0
 33 56  1  0  0  0  0
 33 63  1  0  0  0  0
 33 74  2  0  0  0  0
 34 57  1  0  0  0  0
 34 68  1  0  0  0  0
 34 75  2  0  0  0  0
 35 58  1  0  0  0  0
 35 70  1  0  0  0  0
 35 76  2  0  0  0  0
 36 64  1  0  0  0  0
 36 67  1  0  0  0  0
 36 77  2  0  0  0  0
 37 40  1  0  0  0  0
 38 47  1  0  0  0  0
 39 63  1  0  0  0  0
 40 42  1  0  0  0  0
 41 43  1  0  0  0  0
 41 44  1  0  0  0  0
 42 46  1  0  0  0  0
 43 48  1  0  0  0  0
 44 64  1  0  0  0  0
 45 48  1  0  0  0  0
 45 64  1  0  0  0  0
 46 69  1  0  0  0  0
 47 63  1  0  0  0  0
 48 62  1  0  0  0  0
 49 57  1  0  0  0  0
 50 58  1  0  0  0  0
 51 59  1  0  0  0  0
 52 59  1  0  0  0  0
 53 59  1  0  0  0  0
 54 71  1  0  0  0  0
 55 57  1  0  0  0  0
 55 79  1  0  0  0  0
 56 59  1  0  0  0  0
 56 70  1  0  0  0  0
 58 71  1  0  0  0  0
 60 62  1  0  0  0  0
M  CHG  1  71   1
M  ISO  4  36 100  55 101  67 100  79 101
M  END
> <Batch ID>
0184

> <Smiles>
CNC(C)C(=O)NC(C(=O)N1Cc2cc([101O:1][101CH2:1]C(C)C(=O)Nc3nc([100NH:0][100C:0](=O)N4CCCC(n5nc(-c6ccc(Oc7ccc(F)cc7F)cc6)c(C(N)=O)c5N)C4)c(F)s3)ccc2CC1C(=O)NC1CCCc2ccccc21)C(C)(C)C

> <Shape>
0.248

> <Color>
0.098

> <Negative vol penalty>
0.000

$$$$

  -OEChem-04052305023D

 82 90  0     1  0  0  0  0  0999 V2000
  -24.9042   -7.3389   24.0144 C   0  0  0  0  0  0  0  0  0  0  0  0
  -25.7056   -8.4760   24.0274 C   0  0  0  0  0  0  0  0  0  0  0  0
  -25.2382  -31.2916   20.6616 C   0  0  0  0  0  0  0  0  0  0  0  0
  -24.4251  -29.9086   22.4681 C   0  0  0  0  0  0  0  0  0  0  0  0
  -23.8822   -7.2185   23.0737 C   0  0  0  0  0  0  0  0  0  0  0  0
  -25.4861   -9.4929   23.0989 C   0  0  0  0  0  0  0  0  0  0  0  0
  -25.5991  -14.0993   25.1998 C   0  0  0  0  0  0  0  0  0  0  0  0
  -24.6179  -32.4026   21.2329 C   0  0  0  0  0  0  0  0  0  0  0  0
  -23.8048  -31.0197   23.0395 C   0  0  0  0  0  0  0  0  0  0  0  0
  -26.8528  -14.6390   25.4838 C   0  0  0  0  0  0  0  0  0  0  0  0
  -23.5511  -35.6738   22.4060 C   0  0  0  0  0  0  0  0  0  0  0  0
  -24.2808  -36.8606   22.4737 C   0  0  0  0  0  0  0  0  0  0  0  0
  -26.7311  -15.9646   23.4720 C   0  0  0  0  0  0  0  0  0  0  0  0
  -25.9509  -35.7565   23.8261 C   0  0  0  0  0  0  0  0  0  0  0  0
  -27.6493  -18.9856   18.9681 C   0  0  0  0  0  0  0  0  0  0  0  0
  -25.1418  -30.0445   21.2792 C   0  0  0  0  0  0  0  0  0  0  0  0
  -27.0911  -28.4371   20.9273 C   0  0  0  0  0  0  0  0  0  0  0  0
  -23.6439   -8.2388   22.1394 C   0  0  0  0  0  0  0  0  0  0  0  0
  -24.9056  -14.4806   24.0421 C   0  0  0  0  0  0  0  0  0  0  0  0
  -24.4608   -9.3854   22.1440 C   0  0  0  0  0  0  0  0  0  0  0  0
  -25.4677  -15.4301   23.1769 C   0  0  0  0  0  0  0  0  0  0  0  0
  -23.9012  -32.2667   22.4218 C   0  0  0  0  0  0  0  0  0  0  0  0
  -27.4203  -15.5696   24.6183 C   0  0  0  0  0  0  0  0  0  0  0  0
  -24.0212  -34.5284   23.0485 C   0  0  0  0  0  0  0  0  0  0  0  0
  -25.4807  -36.9020   23.1837 C   0  0  0  0  0  0  0  0  0  0  0  0
  -25.2211  -34.5697   23.7585 C   0  0  0  0  0  0  0  0  0  0  0  0
  -25.7818  -28.8964   20.6892 C   0  0  0  0  0  0  0  0  0  0  0  0
  -28.3911  -19.3575   20.0697 C   0  0  0  0  0  0  0  0  0  0  0  0
  -27.2146  -27.3242   20.1320 C   0  0  0  0  0  0  0  0  0  0  0  0
  -26.8764  -21.0234   19.2134 C   0  0  0  0  0  0  0  0  0  0  0  0
  -28.1051  -28.9690   21.7903 C   0  0  0  0  0  0  0  0  0  0  0  0
  -23.8658  -12.9653   21.4486 C   0  0  0  0  0  0  0  0  0  0  0  0
  -22.5041  -15.8356   20.7934 C   0  0  0  0  0  0  0  0  0  0  0  0
  -22.5150  -19.2182   21.2456 C   0  0  0  0  0  0  0  0  0  0  0  0
  -29.4440  -17.3586   23.0106 C   0  0  0  0  0  0  0  0  0  0  0  0
  -25.2088  -22.5455   18.0961 C   0  0  0  0  0  0  0  0  0  0  0  0
  -22.5578   -8.0426   21.1115 C   0  0  0  0  0  0  0  0  0  0  0  0
  -23.5423  -13.9092   23.7639 C   0  0  0  0  0  0  0  0  0  0  0  0
  -24.7552  -15.8880   21.9314 C   0  0  0  0  0  0  0  0  0  0  0  0
  -22.1502   -9.3316   20.4025 C   0  0  0  0  0  0  0  0  0  0  0  0
  -24.2140  -25.5486   16.4624 C   0  0  0  0  0  0  0  0  0  0  0  0
  -23.3847  -10.1120   19.9623 C   0  0  0  0  0  0  0  0  0  0  0  0
  -24.6409  -26.6495   17.4360 C   0  0  0  0  0  0  0  0  0  0  0  0
  -23.7065  -24.3084   17.1959 C   0  0  0  0  0  0  0  0  0  0  0  0
  -25.0479  -24.8705   19.1843 C   0  0  0  0  0  0  0  0  0  0  0  0
  -24.2380  -10.5211   21.1689 C   0  0  1  0  0  0  0  0  0  0  0  0
  -23.1521  -13.9845   22.2910 C   0  0  1  0  0  0  0  0  0  0  0  0
  -25.6273  -26.1155   18.4931 C   0  0  2  0  0  0  0  0  0  0  0  0
  -21.3024  -21.3025   20.5507 C   0  0  0  0  0  0  0  0  0  0  0  0
  -29.8706  -18.1106   25.3767 C   0  0  0  0  0  0  0  0  0  0  0  0
  -23.8827  -15.7279   18.0735 C   0  0  0  0  0  0  0  0  0  0  0  0
  -23.4340  -18.1786   17.8268 C   0  0  0  0  0  0  0  0  0  0  0  0
  -21.5311  -16.5770   18.0182 C   0  0  0  0  0  0  0  0  0  0  0  0
  -21.7419  -19.8375   24.0345 C   0  0  0  0  0  0  0  0  0  0  0  0
  -29.4118  -18.5792   20.8487 C   0  0  0  0  0  0  0  0  0  0  0  0
  -22.9366  -17.0812   20.0583 C   0  0  1  0  0  0  0  0  0  0  0  0
  -21.4017  -20.1926   21.5856 C   0  0  2  0  0  0  0  0  0  0  0  0
  -28.8982  -17.4234   24.4303 C   0  0  2  0  0  0  0  0  0  1  0  0
  -22.9606  -16.8813   18.5166 C   0  0  0  0  0  0  0  0  0  0  0  0
  -26.7799  -19.9394   18.4759 N   0  0  0  0  0  0  0  0  0  0  0  0
  -25.1208  -28.1373   19.8112 N   0  0  0  0  0  0  0  0  0  0  0  0
  -26.0184  -27.1898   19.4906 N   0  0  0  0  0  0  0  0  0  0  0  0
  -23.4275  -15.2955   21.6997 N   0  0  0  0  0  0  0  0  0  0  0  0
  -24.6947  -23.8569   18.1780 N   0  0  0  0  0  0  0  0  0  0  0  0
  -28.2286  -26.4572   19.9256 N   0  0  0  0  0  0  0  0  0  0  0  0
  -27.8115  -30.1182   22.5369 N   0  0  0  0  0  0  0  0  0  0  0  0
  -26.1658  -22.2400   19.0633 N   0  0  0  0  0  0  0  0  0  0  0  0
  -23.6488  -11.6586   21.8422 N   0  0  0  0  0  0  0  0  0  0  0  0
  -29.0372  -18.4339   22.2357 N   0  0  0  0  0  0  0  0  0  0  0  0
  -22.0508  -18.1493   20.5086 N   0  0  0  0  0  0  0  0  0  0  0  0
  -21.6456  -20.8133   22.9184 N   0  3  0  0  0  0  0  0  0  0  0  0
  -29.2434  -28.4503   21.8837 O   0  0  0  0  0  0  0  0  0  0  0  0
  -24.5606  -13.3368   20.5101 O   0  0  0  0  0  0  0  0  0  0  0  0
  -21.3852  -15.3635   20.5768 O   0  0  0  0  0  0  0  0  0  0  0  0
  -23.6806  -19.3902   21.5954 O   0  0  0  0  0  0  0  0  0  0  0  0
  -30.1498  -16.4326   22.6165 O   0  0  0  0  0  0  0  0  0  0  0  0
  -24.8481  -21.7609   17.2151 O   0  0  0  0  0  0  0  0  0  0  0  0
  -23.2960  -33.3507   22.9797 O   0  0  0  0  0  0  0  0  0  0  0  0
  -28.6442  -16.0975   24.8928 O   0  0  0  0  0  0  0  0  0  1  0  0
  -26.1822  -38.0413   23.2473 F   0  0  0  0  0  0  0  0  0  0  0  0
  -25.6785  -33.4723   24.3767 F   0  0  0  0  0  0  0  0  0  0  0  0
  -27.9935  -20.9653   20.5149 S   0  0  0  0  0  0  0  0  0  0  0  0
  1  2  1  0  0  0  0
  1  5  2  0  0  0  0
  2  6  2  0  0  0  0
  3  8  2  0  0  0  0
  3 16  1  0  0  0  0
  4  9  1  0  0  0  0
  4 16  2  0  0  0  0
  5 18  1  0  0  0  0
  6 20  1  0  0  0  0
  7 10  2  0  0  0  0
  7 19  1  0  0  0  0
  8 22  1  0  0  0  0
  9 22  2  0  0  0  0
 10 23  1  0  0  0  0
 11 12  2  0  0  0  0
 11 24  1  0  0  0  0
 12 25  1  0  0  0  0
 13 21  1  0  0  0  0
 13 23  2  0  0  0  0
 14 25  2  0  0  0  0
 14 26  1  0  0  0  0
 15 28  2  0  0  0  0
 15 60  1  0  0  0  0
 16 27  1  0  0  0  0
 17 27  1  0  0  0  0
 17 29  2  0  0  0  0
 17 31  1  0  0  0  0
 18 20  2  0  0  0  0
 18 37  1  0  0  0  0
 19 21  2  0  0  0  0
 19 38  1  0  0  0  0
 20 46  1  0  0  0  0
 21 39  1  0  0  0  0
 22 78  1  0  0  0  0
 23 79  1  0  0  0  0
 24 26  2  0  0  0  0
 24 78  1  0  0  0  0
 25 80  1  0  0  0  0
 26 81  1  0  0  0  0
 27 61  2  0  0  0  0
 28 55  1  0  0  0  0
 28 82  1  0  0  0  0
 29 62  1  0  0  0  0
 29 65  1  0  0  0  0
 30 60  2  0  0  0  0
 30 67  1  0  0  0  0
 30 82  1  0  0  0  0
 31 66  1  0  0  0  0
 31 72  2  0  0  0  0
 32 47  1  0  0  0  0
 32 68  1  0  0  0  0
 32 73  2  0  0  0  0
 33 56  1  0  0  0  0
 33 63  1  0  0  0  0
 33 74  2  0  0  0  0
 34 57  1  0  0  0  0
 34 70  1  0  0  0  0
 34 75  2  0  0  0  0
 35 58  1  0  0  0  0
 35 69  1  0  0  0  0
 35 76  2  0  0  0  0
 36 64  1  0  0  0  0
 36 67  1  0  0  0  0
 36 77  2  0  0  0  0
 37 40  1  0  0  0  0
 38 47  1  0  0  0  0
 39 63  1  0  0  0  0
 40 42  1  0  0  0  0
 41 43  1  0  0  0  0
 41 44  1  0  0  0  0
 42 46  1  0  0  0  0
 43 48  1  0  0  0  0
 44 64  1  0  0  0  0
 45 48  1  0  0  0  0
 45 64  1  0  0  0  0
 46 68  1  0  0  0  0
 47 63  1  0  0  0  0
 48 62  1  0  0  0  0
 49 57  1  0  0  0  0
 50 58  1  0  0  0  0
 51 59  1  0  0  0  0
 52 59  1  0  0  0  0
 53 59  1  0  0  0  0
 54 71  1  0  0  0  0
 55 69  1  0  0  0  0
 56 59  1  0  0  0  0
 56 70  1  0  0  0  0
 57 71  1  0  0  0  0
 58 79  1  0  0  0  0
 61 62  1  0  0  0  0
M  CHG  1  71   1
M  ISO  4  36 100  58 101  67 100  79 101
M  END
> <Batch ID>
0184

> <Smiles>
CNC(C)C(=O)NC(C(=O)N1Cc2cc([101O:1][101CH:1](C)C(=O)NCc3cnc([100NH:0][100C:0](=O)N4CCCC(n5nc(-c6ccc(Oc7ccc(F)cc7F)cc6)c(C(N)=O)c5N)C4)s3)ccc2CC1C(=O)NC1CCCc2ccccc21)C(C)(C)C

> <Shape>
0.227

> <Color>
0.060

> <Negative vol penalty>
0.000

$$$$

  -OEChem-04052305023D

 85 93  0     1  0  0  0  0  0999 V2000
  -19.9152  -24.8938   16.8164 C   0  0  0  0  0  0  0  0  0  0  0  0
  -20.5180  -25.6522   17.8149 C   0  0  0  0  0  0  0  0  0  0  0  0
  -24.2982  -16.8464   22.7522 C   0  0  0  0  0  0  0  0  0  0  0  0
  -24.7479  -18.0864   20.7280 C   0  0  0  0  0  0  0  0  0  0  0  0
  -20.4021  -23.6216   16.5193 C   0  0  0  0  0  0  0  0  0  0  0  0
  -21.6073  -25.1384   18.5175 C   0  0  0  0  0  0  0  0  0  0  0  0
  -25.3383  -28.5191   19.0611 C   0  0  0  0  0  0  0  0  0  0  0  0
  -24.8641  -15.7072   22.1801 C   0  0  0  0  0  0  0  0  0  0  0  0
  -25.3139  -16.9471   20.1559 C   0  0  0  0  0  0  0  0  0  0  0  0
  -25.1748  -29.4954   20.0428 C   0  0  0  0  0  0  0  0  0  0  0  0
  -23.9522  -13.3115   19.9769 C   0  0  0  0  0  0  0  0  0  0  0  0
  -23.2700  -12.1043   20.1278 C   0  0  0  0  0  0  0  0  0  0  0  0
  -26.6009  -28.2351   21.5251 C   0  0  0  0  0  0  0  0  0  0  0  0
  -25.1808  -11.1673   21.2714 C   0  0  0  0  0  0  0  0  0  0  0  0
  -24.2400  -18.0361   22.0261 C   0  0  0  0  0  0  0  0  0  0  0  0
  -24.3137  -20.2036   23.3692 C   0  0  0  0  0  0  0  0  0  0  0  0
  -21.5040  -23.0957   17.2120 C   0  0  0  0  0  0  0  0  0  0  0  0
  -26.1268  -27.3862   19.3082 C   0  0  0  0  0  0  0  0  0  0  0  0
  -22.1085  -23.8574   18.2302 C   0  0  0  0  0  0  0  0  0  0  0  0
  -26.7749  -27.2471   20.5439 C   0  0  0  0  0  0  0  0  0  0  0  0
  -25.3720  -15.7575   20.8819 C   0  0  0  0  0  0  0  0  0  0  0  0
  -25.8038  -29.3521   21.2761 C   0  0  0  0  0  0  0  0  0  0  0  0
  -25.2488  -13.4466   20.4733 C   0  0  0  0  0  0  0  0  0  0  0  0
  -23.8842  -11.0322   20.7750 C   0  0  0  0  0  0  0  0  0  0  0  0
  -25.8631  -12.3745   21.1205 C   0  0  0  0  0  0  0  0  0  0  0  0
  -23.6550  -19.2131   22.6164 C   0  0  0  0  0  0  0  0  0  0  0  0
  -20.7508  -28.6841   22.8570 C   0  0  0  0  0  0  0  0  0  0  0  0
  -19.3832  -28.5061   22.8753 C   0  0  0  0  0  0  0  0  0  0  0  0
  -23.3255  -21.0994   23.6974 C   0  0  0  0  0  0  0  0  0  0  0  0
  -19.9839  -26.4161   22.5909 C   0  0  0  0  0  0  0  0  0  0  0  0
  -25.6953  -20.3050   23.7388 C   0  0  0  0  0  0  0  0  0  0  0  0
  -21.4663  -29.9688   22.9982 C   0  0  0  0  0  0  0  0  0  0  0  0
  -25.5841  -24.2562   19.4194 C   0  0  0  0  0  0  0  0  0  0  0  0
  -28.8067  -24.1037   19.7571 C   0  0  0  0  0  0  0  0  0  0  0  0
  -31.6971  -25.6521   20.7030 C   0  0  0  0  0  0  0  0  0  0  0  0
  -23.5302  -31.1012   23.7904 C   0  0  0  0  0  0  0  0  0  0  0  0
  -18.8819  -24.1653   22.3344 C   0  0  0  0  0  0  0  0  0  0  0  0
  -21.9650  -21.6968   16.8878 C   0  0  0  0  0  0  0  0  0  0  0  0
  -26.3148  -26.3552   18.2293 C   0  0  0  0  0  0  0  0  0  0  0  0
  -27.6485  -26.0596   20.8519 C   0  0  0  0  0  0  0  0  0  0  0  0
  -23.3582  -21.3753   17.4225 C   0  0  0  0  0  0  0  0  0  0  0  0
  -18.2957  -20.7708   23.2349 C   0  0  0  0  0  0  0  0  0  0  0  0
  -23.4905  -21.8270   18.8735 C   0  0  0  0  0  0  0  0  0  0  0  0
  -19.6919  -20.1444   23.2162 C   0  0  0  0  0  0  0  0  0  0  0  0
  -18.1244  -21.8078   22.1263 C   0  0  0  0  0  0  0  0  0  0  0  0
  -20.5514  -22.2266   22.0704 C   0  0  0  0  0  0  0  0  0  0  0  0
  -23.3077  -23.3445   18.9976 C   0  0  1  0  0  0  0  0  0  0  0  0
  -26.7247  -24.9898   18.7724 C   0  0  1  0  0  0  0  0  0  0  0  0
  -20.7932  -21.2227   23.2094 C   0  0  2  0  0  0  0  0  0  0  0  0
  -34.1681  -25.2610   20.8997 C   0  0  0  0  0  0  0  0  0  0  0  0
  -28.3392  -22.4259   22.2624 C   0  0  0  0  0  0  0  0  0  0  0  0
  -30.7141  -22.8704   22.9187 C   0  0  0  0  0  0  0  0  0  0  0  0
  -30.2151  -21.6331   20.8109 C   0  0  0  0  0  0  0  0  0  0  0  0
  -32.3112  -27.8318   18.7976 C   0  0  0  0  0  0  0  0  0  0  0  0
  -25.7105  -29.8717   23.5949 C   0  0  0  0  0  0  0  0  0  1  0  0
  -29.7609  -24.1174   20.9269 C   0  0  1  0  0  0  0  0  0  0  0  0
  -33.0444  -25.7777   20.0148 C   0  0  2  0  0  0  0  0  0  0  0  0
  -24.8411  -30.7718   24.4558 C   0  0  1  0  0  0  0  0  0  0  0  0
  -29.7394  -22.7832   21.7249 C   0  0  0  0  0  0  0  0  0  0  0  0
  -22.3493  -19.4563   22.4746 N   0  0  0  0  0  0  0  0  0  0  0  0
  -18.9417  -27.2063   22.7225 N   0  0  0  0  0  0  0  0  0  0  0  0
  -22.1796  -20.6098   23.1430 N   0  0  0  0  0  0  0  0  0  0  0  0
  -27.7961  -25.0755   19.7669 N   0  0  0  0  0  0  0  0  0  0  0  0
  -19.2009  -22.7990   22.1848 N   0  0  0  0  0  0  0  0  0  0  0  0
  -18.4896  -29.5128   23.0305 N   0  0  0  0  0  0  0  0  0  0  0  0
  -23.3338  -22.2501   24.4032 N   0  0  0  0  0  0  0  0  0  0  0  0
  -26.5750  -19.2981   23.3184 N   0  0  0  0  0  0  0  0  0  0  0  0
  -19.9883  -25.0107   22.4106 N   0  0  0  0  0  0  0  0  0  0  0  0
  -22.6846  -29.9544   23.5561 N   0  0  0  0  0  0  0  0  0  0  0  0
  -24.5094  -24.0342   18.5796 N   0  0  0  0  0  0  0  0  0  0  0  0
  -31.0685  -24.4673   20.3829 N   0  0  0  0  0  0  0  0  0  0  0  0
  -20.8580  -31.0697   22.5579 N   0  3  0  0  0  0  0  0  0  0  0  0
  -33.3254  -27.2030   19.6824 N   0  3  0  0  0  0  0  0  0  0  0  0
  -26.1335  -21.2516   24.4356 O   0  0  0  0  0  0  0  0  0  0  0  0
  -25.6731  -23.9155   20.5931 O   0  0  0  0  0  0  0  0  0  0  0  0
  -28.9569  -23.2662   18.8640 O   0  0  0  0  0  0  0  0  0  0  0  0
  -31.2489  -26.5168   21.4527 O   0  0  0  0  0  0  0  0  0  0  0  0
  -23.1826  -32.2329   23.4823 O   0  0  0  0  0  0  0  0  0  0  0  0
  -17.7140  -24.5536   22.4182 O   0  0  0  0  0  0  0  0  0  0  0  0
  -25.9246  -14.6460   20.3234 O   0  0  0  0  0  0  0  0  0  0  0  0
  -25.6454  -30.3033   22.2363 O   0  0  0  0  0  0  0  0  0  1  0  0
  -23.2283   -9.8735   20.9211 F   0  0  0  0  0  0  0  0  0  0  0  0
  -27.1081  -12.4987   21.6005 F   0  0  0  0  0  0  0  0  0  0  0  0
  -25.5401  -31.9112   24.7239 F   0  0  0  0  0  0  0  0  0  0  0  0
  -21.5252  -27.1690   22.6421 S   0  0  0  0  0  0  0  0  0  0  0  0
  1  2  1  0  0  0  0
  1  5  2  0  0  0  0
  2  6  2  0  0  0  0
  3  8  2  0  0  0  0
  3 15  1  0  0  0  0
  4  9  1  0  0  0  0
  4 15  2  0  0  0  0
  5 17  1  0  0  0  0
  6 19  1  0  0  0  0
  7 10  2  0  0  0  0
  7 18  1  0  0  0  0
  8 21  1  0  0  0  0
  9 21  2  0  0  0  0
 10 22  1  0  0  0  0
 11 12  2  0  0  0  0
 11 23  1  0  0  0  0
 12 24  1  0  0  0  0
 13 20  1  0  0  0  0
 13 22  2  0  0  0  0
 14 24  2  0  0  0  0
 14 25  1  0  0  0  0
 15 26  1  0  0  0  0
 16 26  1  0  0  0  0
 16 29  2  0  0  0  0
 16 31  1  0  0  0  0
 17 19  2  0  0  0  0
 17 38  1  0  0  0  0
 18 20  2  0  0  0  0
 18 39  1  0  0  0  0
 19 47  1  0  0  0  0
 20 40  1  0  0  0  0
 21 80  1  0  0  0  0
 22 81  1  0  0  0  0
 23 25  2  0  0  0  0
 23 80  1  0  0  0  0
 24 82  1  0  0  0  0
 25 83  1  0  0  0  0
 26 60  2  0  0  0  0
 27 28  2  0  0  0  0
 27 32  1  0  0  0  0
 27 85  1  0  0  0  0
 28 61  1  0  0  0  0
 28 65  1  0  0  0  0
 29 62  1  0  0  0  0
 29 66  1  0  0  0  0
 30 61  2  0  0  0  0
 30 68  1  0  0  0  0
 30 85  1  0  0  0  0
 31 67  1  0  0  0  0
 31 74  2  0  0  0  0
 32 69  1  0  0  0  0
 32 72  2  0  0  0  0
 33 48  1  0  0  0  0
 33 70  1  0  0  0  0
 33 75  2  0  0  0  0
 34 56  1  0  0  0  0
 34 63  1  0  0  0  0
 34 76  2  0  0  0  0
 35 57  1  0  0  0  0
 35 71  1  0  0  0  0
 35 77  2  0  0  0  0
 36 58  1  0  0  0  0
 36 69  1  0  0  0  0
 36 78  2  0  0  0  0
 37 64  1  0  0  0  0
 37 68  1  0  0  0  0
 37 79  2  0  0  0  0
 38 41  1  0  0  0  0
 39 48  1  0  0  0  0
 40 63  1  0  0  0  0
 41 43  1  0  0  0  0
 42 44  1  0  0  0  0
 42 45  1  0  0  0  0
 43 47  1  0  0  0  0
 44 49  1  0  0  0  0
 45 64  1  0  0  0  0
 46 49  1  0  0  0  0
 46 64  1  0  0  0  0
 47 70  1  0  0  0  0
 48 63  1  0  0  0  0
 49 62  1  0  0  0  0
 50 57  1  0  0  0  0
 51 59  1  0  0  0  0
 52 59  1  0  0  0  0
 53 59  1  0  0  0  0
 54 73  1  0  0  0  0
 55 58  1  0  0  0  0
 55 81  1  0  0  0  0
 56 59  1  0  0  0  0
 56 71  1  0  0  0  0
 57 73  1  0  0  0  0
 58 84  1  0  0  0  0
 60 62  1  0  0  0  0
M  CHG  2  72   1  73   1
M  ISO  4  37 100  55 101  68 100  81 101
M  END
> <Batch ID>
0184

> <Smiles>
CNC(C)C(=O)NC(C(=O)N1Cc2cc([101O:1][101CH2:1]C(F)C(=O)NC(=N)c3sc([100NH:0][100C:0](=O)N4CCCC(n5nc(-c6ccc(Oc7ccc(F)cc7F)cc6)c(C(N)=O)c5N)C4)nc3N)ccc2CC1C(=O)NC1CCCc2ccccc21)C(C)(C)C

> <Shape>
0.205

> <Color>
0.079

> <Negative vol penalty>
0.000

$$$$

  -OEChem-04052305023D

 87 95  0     1  0  0  0  0  0999 V2000
  -27.9118  -37.9059   21.1527 C   0  0  0  0  0  0  0  0  0  0  0  0
  -28.1560  -36.8147   20.3249 C   0  0  0  0  0  0  0  0  0  0  0  0
  -24.4278   -9.0826   21.4473 C   0  0  0  0  0  0  0  0  0  0  0  0
  -24.3003  -10.6408   23.2893 C   0  0  0  0  0  0  0  0  0  0  0  0
  -27.6188  -37.7048   22.5009 C   0  0  0  0  0  0  0  0  0  0  0  0
  -28.1085  -35.5219   20.8452 C   0  0  0  0  0  0  0  0  0  0  0  0
  -26.3747  -28.8211   18.9986 C   0  0  0  0  0  0  0  0  0  0  0  0
  -24.1441   -8.0304   22.3178 C   0  0  0  0  0  0  0  0  0  0  0  0
  -24.0165   -9.5886   24.1598 C   0  0  0  0  0  0  0  0  0  0  0  0
  -26.9046  -27.5315   19.0024 C   0  0  0  0  0  0  0  0  0  0  0  0
  -21.4216   -6.7141   23.8305 C   0  0  0  0  0  0  0  0  0  0  0  0
  -20.4804   -5.7697   23.4208 C   0  0  0  0  0  0  0  0  0  0  0  0
  -26.3106  -27.3009   21.3290 C   0  0  0  0  0  0  0  0  0  0  0  0
  -22.1524   -4.0332   23.5828 C   0  0  0  0  0  0  0  0  0  0  0  0
  -24.5060  -10.3879   21.9330 C   0  0  0  0  0  0  0  0  0  0  0  0
  -23.8759  -12.2541   20.3119 C   0  0  0  0  0  0  0  0  0  0  0  0
  -27.5582  -36.4083   23.0358 C   0  0  0  0  0  0  0  0  0  0  0  0
  -25.8177  -29.3652   20.1648 C   0  0  0  0  0  0  0  0  0  0  0  0
  -27.8158  -35.3034   22.2021 C   0  0  0  0  0  0  0  0  0  0  0  0
  -25.7721  -28.5966   21.3367 C   0  0  0  0  0  0  0  0  0  0  0  0
  -23.9384   -8.2833   23.6740 C   0  0  0  0  0  0  0  0  0  0  0  0
  -26.8752  -26.7723   20.1685 C   0  0  0  0  0  0  0  0  0  0  0  0
  -22.7282   -6.3181   24.1163 C   0  0  0  0  0  0  0  0  0  0  0  0
  -20.8458   -4.4292   23.2970 C   0  0  0  0  0  0  0  0  0  0  0  0
  -23.0936   -4.9776   23.9924 C   0  0  0  0  0  0  0  0  0  0  0  0
  -24.7996  -11.4753   21.0344 C   0  0  0  0  0  0  0  0  0  0  0  0
  -28.2957  -18.6417   21.3349 C   0  0  0  0  0  0  0  0  0  0  0  0
  -29.5539  -18.3238   21.8019 C   0  0  0  0  0  0  0  0  0  0  0  0
  -24.6517  -13.1458   19.6123 C   0  0  0  0  0  0  0  0  0  0  0  0
  -29.2699  -20.5782   21.0020 C   0  0  0  0  0  0  0  0  0  0  0  0
  -22.4446  -12.1783   20.2764 C   0  0  0  0  0  0  0  0  0  0  0  0
  -26.4854  -31.8612   22.0163 C   0  0  0  0  0  0  0  0  0  0  0  0
  -23.7326  -31.0015   23.5014 C   0  0  0  0  0  0  0  0  0  0  0  0
  -28.6710  -22.8538   20.1038 C   0  0  0  0  0  0  0  0  0  0  0  0
  -21.4705  -28.5482   24.2163 C   0  0  0  0  0  0  0  0  0  0  0  0
  -30.1312  -15.3785   20.5296 C   0  0  0  0  0  0  0  0  0  0  0  0
  -27.2843  -36.2432   24.5097 C   0  0  0  0  0  0  0  0  0  0  0  0
  -25.2262  -30.7479   20.1372 C   0  0  0  0  0  0  0  0  0  0  0  0
  -25.1669  -29.1271   22.6099 C   0  0  0  0  0  0  0  0  0  0  0  0
  -26.8844  -34.8225   24.8995 C   0  0  0  0  0  0  0  0  0  0  0  0
  -28.9959  -13.6024   17.6602 C   0  0  0  0  0  0  0  0  0  0  0  0
  -27.8224  -33.8077   24.2536 C   0  0  0  0  0  0  0  0  0  0  0  0
  -27.7084  -12.9261   18.1344 C   0  0  0  0  0  0  0  0  0  0  0  0
  -30.0511  -13.6434   18.7633 C   0  0  0  0  0  0  0  0  0  0  0  0
  -28.3102  -13.5674   20.5062 C   0  0  0  0  0  0  0  0  0  0  0  0
  -27.7491  -33.8844   22.7239 C   0  0  1  0  0  0  0  0  0  0  0  0
  -25.1478  -31.3919   21.5179 C   0  0  1  0  0  0  0  0  0  0  0  0
  -27.1962  -13.5522   19.4455 C   0  0  2  0  0  0  0  0  0  0  0  0
  -27.1315  -17.7339   21.2853 C   0  0  0  0  0  0  0  0  0  0  0  0
  -19.3443  -28.1380   25.4846 C   0  0  0  0  0  0  0  0  0  0  0  0
  -25.3039  -30.9585   26.1166 C   0  0  0  0  0  0  0  0  0  0  0  0
  -23.4276  -29.6556   27.1415 C   0  0  0  0  0  0  0  0  0  0  0  0
  -23.0204  -31.9639   26.2879 C   0  0  0  0  0  0  0  0  0  0  0  0
  -28.5199  -16.9556   24.4533 C   0  0  0  0  0  0  0  0  0  0  0  0
  -30.8514  -17.8721   24.6694 C   0  0  0  0  0  0  0  0  0  0  0  0
  -20.0047  -27.8170   21.7514 C   0  0  0  0  0  0  0  0  0  0  0  0
  -29.3788  -24.1861   19.8844 C   0  0  0  0  0  0  0  0  0  0  0  0
  -28.4745  -25.2512   19.2828 C   0  0  0  0  0  0  0  0  0  1  0  0
  -30.0707  -17.0570   22.3567 C   0  0  1  0  0  0  0  0  0  0  0  0
  -23.3762  -30.0784   24.6416 C   0  0  1  0  0  0  0  0  0  0  0  0
  -19.9542  -28.5247   24.1462 C   0  0  2  0  0  0  0  0  0  0  0  0
  -23.7952  -30.6545   26.0236 C   0  0  0  0  0  0  0  0  0  0  0  0
  -29.9553  -16.8765   23.9196 C   0  0  0  0  0  0  0  0  0  0  0  0
  -26.0655  -11.8401   20.8140 N   0  0  0  0  0  0  0  0  0  0  0  0
  -28.1309  -19.9341   20.8762 N   0  0  0  0  0  0  0  0  0  0  0  0
  -25.9427  -12.8579   19.9451 N   0  0  0  0  0  0  0  0  0  0  0  0
  -24.6072  -30.4867   22.5340 N   0  0  0  0  0  0  0  0  0  0  0  0
  -29.5021  -14.2499   19.9785 N   0  0  0  0  0  0  0  0  0  0  0  0
  -24.3487  -14.1402   18.7511 N   0  0  0  0  0  0  0  0  0  0  0  0
  -21.8076  -11.2033   21.0561 N   0  0  0  0  0  0  0  0  0  0  0  0
  -29.5466  -21.9219   20.6547 N   0  0  0  0  0  0  0  0  0  0  0  0
  -26.5558  -33.2228   22.2412 N   0  0  0  0  0  0  0  0  0  0  0  0
  -21.9485  -29.8065   24.5156 N   0  0  0  0  0  0  0  0  0  0  0  0
  -29.5428  -15.8946   21.6777 N   0  0  0  0  0  0  0  0  0  0  0  0
  -30.4668  -15.5018   24.2818 N   0  3  0  0  0  0  0  0  0  0  0  0
  -19.4982  -27.5439   23.1210 N   0  3  0  0  0  0  0  0  0  0  0  0
  -21.7520  -12.9415   19.5614 O   0  0  0  0  0  0  0  0  0  0  0  0
  -27.3863  -31.0480   22.1857 O   0  0  0  0  0  0  0  0  0  0  0  0
  -23.2471  -32.1349   23.4665 O   0  0  0  0  0  0  0  0  0  0  0  0
  -27.4910  -22.6861   19.8145 O   0  0  0  0  0  0  0  0  0  0  0  0
  -22.1616  -27.5494   24.0282 O   0  0  0  0  0  0  0  0  0  0  0  0
  -31.1392  -15.8916   20.0320 O   0  0  0  0  0  0  0  0  0  0  0  0
  -23.6612   -7.2568   24.5237 O   0  0  0  0  0  0  0  0  0  0  0  0
  -27.3922  -25.5135   20.1751 O   0  0  0  0  0  0  0  0  0  1  0  0
  -19.9415   -3.5222   22.9050 F   0  0  0  0  0  0  0  0  0  0  0  0
  -24.3470   -4.5910   24.2667 F   0  0  0  0  0  0  0  0  0  0  0  0
  -30.5809  -19.6905   21.6641 S   0  0  0  0  0  0  0  0  0  0  0  0
  1  2  1  0  0  0  0
  1  5  2  0  0  0  0
  2  6  2  0  0  0  0
  3  8  2  0  0  0  0
  3 15  1  0  0  0  0
  4  9  1  0  0  0  0
  4 15  2  0  0  0  0
  5 17  1  0  0  0  0
  6 19  1  0  0  0  0
  7 10  2  0  0  0  0
  7 18  1  0  0  0  0
  8 21  1  0  0  0  0
  9 21  2  0  0  0  0
 10 22  1  0  0  0  0
 11 12  2  0  0  0  0
 11 23  1  0  0  0  0
 12 24  1  0  0  0  0
 13 20  1  0  0  0  0
 13 22  2  0  0  0  0
 14 24  2  0  0  0  0
 14 25  1  0  0  0  0
 15 26  1  0  0  0  0
 16 26  1  0  0  0  0
 16 29  2  0  0  0  0
 16 31  1  0  0  0  0
 17 19  2  0  0  0  0
 17 37  1  0  0  0  0
 18 20  2  0  0  0  0
 18 38  1  0  0  0  0
 19 46  1  0  0  0  0
 20 39  1  0  0  0  0
 21 83  1  0  0  0  0
 22 84  1  0  0  0  0
 23 25  2  0  0  0  0
 23 83  1  0  0  0  0
 24 85  1  0  0  0  0
 25 86  1  0  0  0  0
 26 64  2  0  0  0  0
 27 28  2  0  0  0  0
 27 49  1  0  0  0  0
 27 65  1  0  0  0  0
 28 59  1  0  0  0  0
 28 87  1  0  0  0  0
 29 66  1  0  0  0  0
 29 69  1  0  0  0  0
 30 65  2  0  0  0  0
 30 71  1  0  0  0  0
 30 87  1  0  0  0  0
 31 70  1  0  0  0  0
 31 77  2  0  0  0  0
 32 47  1  0  0  0  0
 32 72  1  0  0  0  0
 32 78  2  0  0  0  0
 33 60  1  0  0  0  0
 33 67  1  0  0  0  0
 33 79  2  0  0  0  0
 34 57  1  0  0  0  0
 34 71  1  0  0  0  0
 34 80  2  0  0  0  0
 35 61  1  0  0  0  0
 35 73  1  0  0  0  0
 35 81  2  0  0  0  0
 36 68  1  0  0  0  0
 36 74  1  0  0  0  0
 36 82  2  0  0  0  0
 37 40  1  0  0  0  0
 38 47  1  0  0  0  0
 39 67  1  0  0  0  0
 40 42  1  0  0  0  0
 41 43  1  0  0  0  0
 41 44  1  0  0  0  0
 42 46  1  0  0  0  0
 43 48  1  0  0  0  0
 44 68  1  0  0  0  0
 45 48  1  0  0  0  0
 45 68  1  0  0  0  0
 46 72  1  0  0  0  0
 47 67  1  0  0  0  0
 48 66  1  0  0  0  0
 50 61  1  0  0  0  0
 51 62  1  0  0  0  0
 52 62  1  0  0  0  0
 53 62  1  0  0  0  0
 54 63  1  0  0  0  0
 55 63  1  0  0  0  0
 56 76  1  0  0  0  0
 57 58  1  0  0  0  0
 58 84  1  0  0  0  0
 59 63  1  0  0  0  0
 59 74  1  0  0  0  0
 60 62  1  0  0  0  0
 60 73  1  0  0  0  0
 61 76  1  0  0  0  0
 63 75  1  0  0  0  0
 64 66  1  0  0  0  0
M  CHG  2  75   1  76   1
M  ISO  4  36 100  58 101  74 100  84 101
M  END
> <Batch ID>
0184

> <Smiles>
CNC(C)C(=O)NC(C(=O)N1Cc2cc([101O:1][101CH2:1]CC(=O)Nc3nc(C)c(C([100NH:0][100C:0](=O)N4CCCC(n5nc(-c6ccc(Oc7ccc(F)cc7F)cc6)c(C(N)=O)c5N)C4)C(C)(C)N)s3)ccc2CC1C(=O)NC1CCCc2ccccc21)C(C)(C)C

> <Shape>
0.333

> <Color>
0.107

> <Negative vol penalty>
0.000

$$$$

  -OEChem-04052305023D

 86 94  0     1  0  0  0  0  0999 V2000
  -22.4632  -10.4510   21.4500 C   0  0  0  0  0  0  0  0  0  0  0  0
  -22.2486  -11.6110   22.1874 C   0  0  0  0  0  0  0  0  0  0  0  0
  -23.8997  -31.8521   21.6335 C   0  0  0  0  0  0  0  0  0  0  0  0
  -23.9907  -30.0293   23.2165 C   0  0  0  0  0  0  0  0  0  0  0  0
  -23.6262  -10.3123   20.6936 C   0  0  0  0  0  0  0  0  0  0  0  0
  -23.1975  -12.6326   22.1697 C   0  0  0  0  0  0  0  0  0  0  0  0
  -22.1271  -18.6563   22.4426 C   0  0  0  0  0  0  0  0  0  0  0  0
  -22.5062  -31.8312   21.6895 C   0  0  0  0  0  0  0  0  0  0  0  0
  -22.5971  -30.0084   23.2726 C   0  0  0  0  0  0  0  0  0  0  0  0
  -22.1722  -19.5703   23.4945 C   0  0  0  0  0  0  0  0  0  0  0  0
  -20.0453  -28.8377   21.3888 C   0  0  0  0  0  0  0  0  0  0  0  0
  -19.4127  -27.5961   21.3265 C   0  0  0  0  0  0  0  0  0  0  0  0
  -24.4173  -20.1822   22.8585 C   0  0  0  0  0  0  0  0  0  0  0  0
  -18.4233  -27.9915   23.4949 C   0  0  0  0  0  0  0  0  0  0  0  0
  -27.5593  -25.3118   19.9735 C   0  0  0  0  0  0  0  0  0  0  0  0
  -24.6420  -30.9511   22.3970 C   0  0  0  0  0  0  0  0  0  0  0  0
  -26.9543  -31.7204   23.1513 C   0  0  0  0  0  0  0  0  0  0  0  0
  -24.5853  -11.3367   20.6590 C   0  0  0  0  0  0  0  0  0  0  0  0
  -23.2326  -18.4903   21.5961 C   0  0  0  0  0  0  0  0  0  0  0  0
  -24.3750  -12.5069   21.4132 C   0  0  0  0  0  0  0  0  0  0  0  0
  -24.3827  -19.2673   21.7951 C   0  0  0  0  0  0  0  0  0  0  0  0
  -21.8548  -30.9094   22.5090 C   0  0  0  0  0  0  0  0  0  0  0  0
  -23.3185  -20.3313   23.7043 C   0  0  0  0  0  0  0  0  0  0  0  0
  -19.8670  -29.6562   22.5042 C   0  0  0  0  0  0  0  0  0  0  0  0
  -18.6017  -27.1730   22.3796 C   0  0  0  0  0  0  0  0  0  0  0  0
  -19.0559  -29.2331   23.5572 C   0  0  0  0  0  0  0  0  0  0  0  0
  -26.0816  -30.9718   22.3391 C   0  0  0  0  0  0  0  0  0  0  0  0
  -28.4024  -25.5334   21.0421 C   0  0  0  0  0  0  0  0  0  0  0  0
  -28.2095  -31.3911   22.7012 C   0  0  0  0  0  0  0  0  0  0  0  0
  -26.0962  -25.1112   21.5949 C   0  0  0  0  0  0  0  0  0  0  0  0
  -26.6570  -32.6320   24.2173 C   0  0  0  0  0  0  0  0  0  0  0  0
  -25.1772  -16.0761   20.8933 C   0  0  0  0  0  0  0  0  0  0  0  0
  -26.3429  -18.1642   18.7017 C   0  0  0  0  0  0  0  0  0  0  0  0
  -30.2964  -26.5481   19.8199 C   0  0  0  0  0  0  0  0  0  0  0  0
  -26.7763  -21.4084   17.7350 C   0  0  0  0  0  0  0  0  0  0  0  0
  -23.6398  -24.6416   21.8611 C   0  0  0  0  0  0  0  0  0  0  0  0
  -25.8490  -11.1215   19.8643 C   0  0  0  0  0  0  0  0  0  0  0  0
  -23.1583  -17.5194   20.4496 C   0  0  0  0  0  0  0  0  0  0  0  0
  -25.5891  -19.1415   20.9022 C   0  0  0  0  0  0  0  0  0  0  0  0
  -26.6299  -12.4067   19.6020 C   0  0  0  0  0  0  0  0  0  0  0  0
  -30.5358  -29.9685   18.7791 C   0  0  0  0  0  0  0  0  0  0  0  0
  -26.7503  -13.2288   20.8813 C   0  0  0  0  0  0  0  0  0  0  0  0
  -29.4803  -30.6766   19.6275 C   0  0  0  0  0  0  0  0  0  0  0  0
  -30.0920  -28.5600   18.3969 C   0  0  0  0  0  0  0  0  0  0  0  0
  -28.6658  -28.4084   20.4130 C   0  0  0  0  0  0  0  0  0  0  0  0
  -25.3693  -13.6477   21.3999 C   0  0  1  0  0  0  0  0  0  0  0  0
  -24.5303  -17.0631   19.9632 C   0  0  1  0  0  0  0  0  0  0  0  0
  -29.0876  -29.8235   20.8466 C   0  0  2  0  0  0  0  0  0  0  0  0
  -27.8004  -22.8020   15.9167 C   0  0  0  0  0  0  0  0  0  0  0  0
  -23.6401  -23.4115   25.6753 C   0  0  0  0  0  0  0  0  0  0  0  0
  -30.6877  -24.5028   21.1314 C   0  0  0  0  0  0  0  0  0  0  0  0
  -30.3712  -26.7283   22.2181 C   0  0  0  0  0  0  0  0  0  0  0  0
  -29.1128  -17.6575   19.8767 C   0  0  0  0  0  0  0  0  0  0  0  0
  -29.9109  -19.7213   18.7053 C   0  0  0  0  0  0  0  0  0  0  0  0
  -29.0474  -17.7922   17.3803 C   0  0  0  0  0  0  0  0  0  0  0  0
  -24.1574  -22.5679   16.9891 C   0  0  0  0  0  0  0  0  0  0  0  0
  -22.4464  -23.0804   23.4800 C   0  0  0  0  0  0  0  0  0  0  0  0
  -27.4258  -19.2161   18.6975 C   0  0  1  0  0  0  0  0  0  0  0  0
  -26.5413  -22.1034   16.4060 C   0  0  2  0  0  0  0  0  0  0  0  0
  -22.6210  -24.5185   22.9811 C   0  0  2  0  0  0  0  0  0  0  0  0
  -23.5810  -22.5929   24.3915 C   0  0  2  0  0  0  0  0  0  1  0  0
  -29.8508  -25.8153   21.0602 C   0  0  0  0  0  0  0  0  0  0  0  0
  -28.8524  -18.5980   18.6832 C   0  0  0  0  0  0  0  0  0  0  0  0
  -26.2365  -25.0691   20.2885 N   0  0  0  0  0  0  0  0  0  0  0  0
  -26.7276  -30.2234   21.4410 N   0  0  0  0  0  0  0  0  0  0  0  0
  -28.0196  -30.5002   21.6861 N   0  0  0  0  0  0  0  0  0  0  0  0
  -25.4700  -18.1741   19.7988 N   0  0  0  0  0  0  0  0  0  0  0  0
  -29.7061  -27.7891   19.5801 N   0  0  0  0  0  0  0  0  0  0  0  0
  -29.4460  -31.7796   23.0786 N   0  0  0  0  0  0  0  0  0  0  0  0
  -25.3141  -32.8553   24.5504 N   0  0  0  0  0  0  0  0  0  0  0  0
  -24.9120  -24.9180   22.3449 N   0  0  0  0  0  0  0  0  0  0  0  0
  -24.8553  -14.7587   20.6280 N   0  0  0  0  0  0  0  0  0  0  0  0
  -27.1417  -20.0899   17.5642 N   0  0  0  0  0  0  0  0  0  0  0  0
  -25.4602  -23.1207   16.5374 N   0  3  0  0  0  0  0  0  0  0  0  0
  -27.5550  -33.2432   24.8446 O   0  0  0  0  0  0  0  0  0  0  0  0
  -25.9150  -16.4798   21.7845 O   0  0  0  0  0  0  0  0  0  0  0  0
  -26.2698  -17.3679   17.7625 O   0  0  0  0  0  0  0  0  0  0  0  0
  -31.1460  -26.0326   19.0887 O   0  0  0  0  0  0  0  0  0  0  0  0
  -26.6519  -21.9792   18.8163 O   0  0  0  0  0  0  0  0  0  0  0  0
  -23.2944  -24.5110   20.6903 O   0  0  0  0  0  0  0  0  0  0  0  0
  -20.4950  -30.8889   22.5641 O   0  0  0  0  0  0  0  0  0  0  0  0
  -23.3654  -21.2237   24.7307 O   0  0  0  0  0  0  0  0  0  1  0  0
  -17.9931  -25.9814   22.3189 F   0  0  0  0  0  0  0  0  0  0  0  0
  -18.8799  -30.0155   24.6308 F   0  0  0  0  0  0  0  0  0  0  0  0
  -21.4090  -24.9961   22.5798 F   0  0  0  0  0  0  0  0  0  0  0  0
  -27.5134  -25.4383   22.5057 S   0  0  0  0  0  0  0  0  0  0  0  0
  1  2  1  0  0  0  0
  1  5  2  0  0  0  0
  2  6  2  0  0  0  0
  3  8  2  0  0  0  0
  3 16  1  0  0  0  0
  4  9  1  0  0  0  0
  4 16  2  0  0  0  0
  5 18  1  0  0  0  0
  6 20  1  0  0  0  0
  7 10  2  0  0  0  0
  7 19  1  0  0  0  0
  8 22  1  0  0  0  0
  9 22  2  0  0  0  0
 10 23  1  0  0  0  0
 11 12  2  0  0  0  0
 11 24  1  0  0  0  0
 12 25  1  0  0  0  0
 13 21  1  0  0  0  0
 13 23  2  0  0  0  0
 14 25  2  0  0  0  0
 14 26  1  0  0  0  0
 15 28  2  0  0  0  0
 15 64  1  0  0  0  0
 16 27  1  0  0  0  0
 17 27  1  0  0  0  0
 17 29  2  0  0  0  0
 17 31  1  0  0  0  0
 18 20  2  0  0  0  0
 18 37  1  0  0  0  0
 19 21  2  0  0  0  0
 19 38  1  0  0  0  0
 20 46  1  0  0  0  0
 21 39  1  0  0  0  0
 22 81  1  0  0  0  0
 23 82  1  0  0  0  0
 24 26  2  0  0  0  0
 24 81  1  0  0  0  0
 25 83  1  0  0  0  0
 26 84  1  0  0  0  0
 27 65  2  0  0  0  0
 28 62  1  0  0  0  0
 28 86  1  0  0  0  0
 29 66  1  0  0  0  0
 29 69  1  0  0  0  0
 30 64  2  0  0  0  0
 30 71  1  0  0  0  0
 30 86  1  0  0  0  0
 31 70  1  0  0  0  0
 31 75  2  0  0  0  0
 32 47  1  0  0  0  0
 32 72  1  0  0  0  0
 32 76  2  0  0  0  0
 33 58  1  0  0  0  0
 33 67  1  0  0  0  0
 33 77  2  0  0  0  0
 34 62  1  0  0  0  0
 34 68  1  0  0  0  0
 34 78  2  0  0  0  0
 35 59  1  0  0  0  0
 35 73  1  0  0  0  0
 35 79  2  0  0  0  0
 36 60  1  0  0  0  0
 36 71  1  0  0  0  0
 36 80  2  0  0  0  0
 37 40  1  0  0  0  0
 38 47  1  0  0  0  0
 39 67  1  0  0  0  0
 40 42  1  0  0  0  0
 41 43  1  0  0  0  0
 41 44  1  0  0  0  0
 42 46  1  0  0  0  0
 43 48  1  0  0  0  0
 44 68  1  0  0  0  0
 45 48  1  0  0  0  0
 45 68  1  0  0  0  0
 46 72  1  0  0  0  0
 47 67  1  0  0  0  0
 48 66  1  0  0  0  0
 49 59  1  0  0  0  0
 50 61  1  0  0  0  0
 51 62  1  0  0  0  0
 52 62  1  0  0  0  0
 53 63  1  0  0  0  0
 54 63  1  0  0  0  0
 55 63  1  0  0  0  0
 56 74  1  0  0  0  0
 57 60  1  0  0  0  0
 57 61  1  0  0  0  0
 58 63  1  0  0  0  0
 58 73  1  0  0  0  0
 59 74  1  0  0  0  0
 60 85  1  0  0  0  0
 61 82  1  0  0  0  0
 65 66  1  0  0  0  0
M  CHG  1  74   1
M  ISO  4  34 100  61 101  62 100  82 101
M  END
> <Batch ID>
0184

> <Smiles>
CNC(C)C(=O)NC(C(=O)N1Cc2cc([101O:1][101CH:1](C)CC(F)C(=O)Nc3ncc([100C:0](C)(C)[100C:0](=O)N4CCCC(n5nc(-c6ccc(Oc7ccc(F)cc7F)cc6)c(C(N)=O)c5N)C4)s3)ccc2CC1C(=O)NC1CCCc2ccccc21)C(C)(C)C

> <Shape>
0.246

> <Color>
0.051

> <Negative vol penalty>
0.000

$$$$

  -OEChem-04052305023D

 91100  0     1  0  0  0  0  0999 V2000
  -28.8128  -34.7021   25.0541 C   0  0  0  0  0  0  0  0  0  0  0  0
  -28.2801  -33.4271   25.2153 C   0  0  0  0  0  0  0  0  0  0  0  0
  -22.7717  -11.7974   22.4407 C   0  0  0  0  0  0  0  0  0  0  0  0
  -24.3742  -10.0213   22.7791 C   0  0  0  0  0  0  0  0  0  0  0  0
  -28.1496  -35.6384   24.2620 C   0  0  0  0  0  0  0  0  0  0  0  0
  -27.0833  -33.0879   24.5853 C   0  0  0  0  0  0  0  0  0  0  0  0
  -27.2700  -28.5313   22.3837 C   0  0  0  0  0  0  0  0  0  0  0  0
  -22.0960  -11.4082   23.5972 C   0  0  0  0  0  0  0  0  0  0  0  0
  -23.6985   -9.6320   23.9356 C   0  0  0  0  0  0  0  0  0  0  0  0
  -27.1407  -27.4178   23.2127 C   0  0  0  0  0  0  0  0  0  0  0  0
  -20.9163   -7.8808   24.7255 C   0  0  0  0  0  0  0  0  0  0  0  0
  -20.6819   -6.5184   24.9116 C   0  0  0  0  0  0  0  0  0  0  0  0
  -24.8222  -27.2208   22.5764 C   0  0  0  0  0  0  0  0  0  0  0  0
  -21.9531   -6.5803   26.9653 C   0  0  0  0  0  0  0  0  0  0  0  0
  -23.9108  -11.1039   22.0316 C   0  0  0  0  0  0  0  0  0  0  0  0
  -24.0943  -11.5539   19.5273 C   0  0  0  0  0  0  0  0  0  0  0  0
  -26.9490  -35.3075   23.6141 C   0  0  0  0  0  0  0  0  0  0  0  0
  -26.1716  -29.0052   21.6520 C   0  0  0  0  0  0  0  0  0  0  0  0
  -26.4027  -34.0211   23.7848 C   0  0  0  0  0  0  0  0  0  0  0  0
  -24.9408  -28.3389   21.7369 C   0  0  0  0  0  0  0  0  0  0  0  0
  -22.5594  -10.3255   24.3447 C   0  0  0  0  0  0  0  0  0  0  0  0
  -25.9159  -26.7641   23.3114 C   0  0  0  0  0  0  0  0  0  0  0  0
  -21.6692   -8.5929   25.6592 C   0  0  0  0  0  0  0  0  0  0  0  0
  -21.2002   -5.8682   26.0315 C   0  0  0  0  0  0  0  0  0  0  0  0
  -22.1875   -7.9426   26.7791 C   0  0  0  0  0  0  0  0  0  0  0  0
  -24.6089  -11.5052   20.8368 C   0  0  0  0  0  0  0  0  0  0  0  0
  -25.1454  -11.9957   18.7615 C   0  0  0  0  0  0  0  0  0  0  0  0
  -28.2778  -19.6624   20.5301 C   0  0  0  0  0  0  0  0  0  0  0  0
  -30.4257  -19.4404   19.9187 C   0  0  0  0  0  0  0  0  0  0  0  0
  -29.1601  -17.6174   20.2534 C   0  0  0  0  0  0  0  0  0  0  0  0
  -22.7833  -11.2288   19.0462 C   0  0  0  0  0  0  0  0  0  0  0  0
  -24.5187  -31.7196   21.5924 C   0  0  0  0  0  0  0  0  0  0  0  0
  -26.6487  -23.7056   23.0519 C   0  0  0  0  0  0  0  0  0  0  0  0
  -23.0511  -30.3158   19.0630 C   0  0  0  0  0  0  0  0  0  0  0  0
  -21.8188  -27.0301   18.2245 C   0  0  0  0  0  0  0  0  0  0  0  0
  -30.0001  -15.2576   19.9852 C   0  0  0  0  0  0  0  0  0  0  0  0
  -26.2439  -36.3680   22.8063 C   0  0  0  0  0  0  0  0  0  0  0  0
  -26.3344  -30.1915   20.7416 C   0  0  0  0  0  0  0  0  0  0  0  0
  -23.7363  -28.7956   20.9564 C   0  0  0  0  0  0  0  0  0  0  0  0
  -25.1745  -35.8104   21.8704 C   0  0  0  0  0  0  0  0  0  0  0  0
  -25.6117  -19.5586   22.7558 C   0  0  0  0  0  0  0  0  0  0  0  0
  -29.9318  -11.9767   18.6038 C   0  0  0  0  0  0  0  0  0  0  0  0
  -24.2952  -34.8031   22.6046 C   0  0  0  0  0  0  0  0  0  0  0  0
  -25.7674  -19.8661   21.2660 C   0  0  0  0  0  0  0  0  0  0  0  0
  -28.5103  -11.4902   18.8951 C   0  0  0  0  0  0  0  0  0  0  0  0
  -26.8931  -19.7437   23.5518 C   0  0  0  0  0  0  0  0  0  0  0  0
  -30.4831  -12.8320   19.7431 C   0  0  0  0  0  0  0  0  0  0  0  0
  -28.2068  -13.4698   20.4365 C   0  0  0  0  0  0  0  0  0  0  0  0
  -25.1194  -33.6076   23.0976 C   0  0  1  0  0  0  0  0  0  0  0  0
  -27.0889  -20.5523   20.8765 C   0  0  1  0  0  0  0  0  0  0  0  0
  -25.0163  -30.8968   20.4378 C   0  0  1  0  0  0  0  0  0  0  0  0
  -27.5846  -12.6579   19.2887 C   0  0  2  0  0  0  0  0  0  0  0  0
  -27.5011  -21.1341   23.3743 C   0  0  1  0  0  0  0  0  0  0  0  0
  -28.9571  -21.1775   23.8290 C   0  0  0  0  0  0  0  0  0  0  0  0
  -26.9590  -23.6123   20.5635 C   0  0  0  0  0  0  0  0  0  0  0  0
  -24.6143  -23.6423   24.5222 C   0  0  0  0  0  0  0  0  0  0  0  0
  -21.5205  -25.9197   15.9940 C   0  0  0  0  0  0  0  0  0  0  0  0
  -20.1936  -31.3699   19.2452 C   0  0  0  0  0  0  0  0  0  0  0  0
  -19.4117  -29.2282   18.2107 C   0  0  0  0  0  0  0  0  0  0  0  0
  -20.9298  -30.7446   16.9384 C   0  0  0  0  0  0  0  0  0  0  0  0
  -23.4753  -24.7125   19.0267 C   0  0  0  0  0  0  0  0  0  0  0  0
  -26.5324  -22.8448   21.8030 C   0  0  1  0  0  0  0  0  0  0  0  0
  -25.3972  -24.4511   23.5034 C   0  0  1  0  0  0  0  0  0  1  0  0
  -21.8483  -29.4207   18.8866 C   0  0  1  0  0  0  0  0  0  0  0  0
  -22.4154  -26.0662   17.2149 C   0  0  2  0  0  0  0  0  0  0  0  0
  -20.6112  -30.1906   18.3442 C   0  0  0  0  0  0  0  0  0  0  0  0
  -25.8876  -11.8856   20.9027 N   0  0  0  0  0  0  0  0  0  0  0  0
  -29.4246  -20.2852   20.2134 N   0  0  0  0  0  0  0  0  0  0  0  0
  -28.0714  -18.3361   20.5712 N   0  0  0  0  0  0  0  0  0  0  0  0
  -30.3678  -18.0989   19.9177 N   0  0  0  0  0  0  0  0  0  0  0  0
  -26.1853  -12.1774   19.6251 N   0  0  0  0  0  0  0  0  0  0  0  0
  -23.9442  -29.9639   20.0850 N   0  0  0  0  0  0  0  0  0  0  0  0
  -29.5553  -13.9205   20.0583 N   0  0  0  0  0  0  0  0  0  0  0  0
  -25.2724  -12.2425   17.4404 N   0  0  0  0  0  0  0  0  0  0  0  0
  -31.6667  -20.0205   19.5769 N   0  0  0  0  0  0  0  0  0  0  0  0
  -22.5286   -9.9122   18.6388 N   0  0  0  0  0  0  0  0  0  0  0  0
  -29.0211  -16.2075   20.2748 N   0  0  0  0  0  0  0  0  0  0  0  0
  -25.3994  -32.7015   22.0044 N   0  0  0  0  0  0  0  0  0  0  0  0
  -22.2828  -28.3153   18.0395 N   0  0  0  0  0  0  0  0  0  0  0  0
  -27.4161  -21.6230   21.9302 N   0  3  2  0  0  0  0  0  0  0  0  0
  -22.5972  -24.7203   17.8284 N   0  3  0  0  0  0  0  0  0  0  0  0
  -21.8698  -12.0845   18.9642 O   0  0  0  0  0  0  0  0  0  0  0  0
  -23.4167  -31.4822   22.0729 O   0  0  0  0  0  0  0  0  0  0  0  0
  -27.7147  -23.8182   23.6600 O   0  0  0  0  0  0  0  0  0  0  0  0
  -23.1967  -31.2872   18.3168 O   0  0  0  0  0  0  0  0  0  0  0  0
  -21.0183  -26.6789   19.0884 O   0  0  0  0  0  0  0  0  0  0  0  0
  -31.1564  -15.5400   19.6611 O   0  0  0  0  0  0  0  0  0  0  0  0
  -21.9004   -9.9455   25.4734 O   0  0  0  0  0  0  0  0  0  0  0  0
  -25.7869  -25.6775   24.1204 O   0  0  0  0  0  0  0  0  0  1  0  0
  -20.9737   -4.5602   26.2109 F   0  0  0  0  0  0  0  0  0  0  0  0
  -22.9105   -8.6217   27.6801 F   0  0  0  0  0  0  0  0  0  0  0  0
  1  2  1  0  0  0  0
  1  5  2  0  0  0  0
  2  6  2  0  0  0  0
  3  8  2  0  0  0  0
  3 15  1  0  0  0  0
  4  9  1  0  0  0  0
  4 15  2  0  0  0  0
  5 17  1  0  0  0  0
  6 19  1  0  0  0  0
  7 10  2  0  0  0  0
  7 18  1  0  0  0  0
  8 21  1  0  0  0  0
  9 21  2  0  0  0  0
 10 22  1  0  0  0  0
 11 12  2  0  0  0  0
 11 23  1  0  0  0  0
 12 24  1  0  0  0  0
 13 20  1  0  0  0  0
 13 22  2  0  0  0  0
 14 24  2  0  0  0  0
 14 25  1  0  0  0  0
 15 26  1  0  0  0  0
 16 26  1  0  0  0  0
 16 27  2  0  0  0  0
 16 31  1  0  0  0  0
 17 19  2  0  0  0  0
 17 37  1  0  0  0  0
 18 20  2  0  0  0  0
 18 38  1  0  0  0  0
 19 49  1  0  0  0  0
 20 39  1  0  0  0  0
 21 88  1  0  0  0  0
 22 89  1  0  0  0  0
 23 25  2  0  0  0  0
 23 88  1  0  0  0  0
 24 90  1  0  0  0  0
 25 91  1  0  0  0  0
 26 67  2  0  0  0  0
 27 71  1  0  0  0  0
 27 74  1  0  0  0  0
 28 50  1  0  0  0  0
 28 68  1  0  0  0  0
 28 69  2  0  0  0  0
 29 68  2  0  0  0  0
 29 70  1  0  0  0  0
 29 75  1  0  0  0  0
 30 69  1  0  0  0  0
 30 70  2  0  0  0  0
 30 77  1  0  0  0  0
 31 76  1  0  0  0  0
 31 82  2  0  0  0  0
 32 51  1  0  0  0  0
 32 78  1  0  0  0  0
 32 83  2  0  0  0  0
 33 62  1  0  0  0  0
 33 63  1  0  0  0  0
 33 84  2  0  0  0  0
 34 64  1  0  0  0  0
 34 72  1  0  0  0  0
 34 85  2  0  0  0  0
 35 65  1  0  0  0  0
 35 79  1  0  0  0  0
 35 86  2  0  0  0  0
 36 73  1  0  0  0  0
 36 77  1  0  0  0  0
 36 87  2  0  0  0  0
 37 40  1  0  0  0  0
 38 51  1  0  0  0  0
 39 72  1  0  0  0  0
 40 43  1  0  0  0  0
 41 44  1  0  0  0  0
 41 46  1  0  0  0  0
 42 45  1  0  0  0  0
 42 47  1  0  0  0  0
 43 49  1  0  0  0  0
 44 50  1  0  0  0  0
 45 52  1  0  0  0  0
 46 53  1  0  0  0  0
 47 73  1  0  0  0  0
 48 52  1  0  0  0  0
 48 73  1  0  0  0  0
 49 78  1  0  0  0  0
 50 80  1  0  0  0  0
 51 72  1  0  0  0  0
 52 71  1  0  0  0  0
 53 54  1  0  0  0  0
 53 80  1  0  0  0  0
 55 62  1  0  0  0  0
 56 63  1  0  0  0  0
 57 65  1  0  0  0  0
 58 66  1  0  0  0  0
 59 66  1  0  0  0  0
 60 66  1  0  0  0  0
 61 81  1  0  0  0  0
 62 80  1  0  0  0  0
 63 89  1  0  0  0  0
 64 66  1  0  0  0  0
 64 79  1  0  0  0  0
 65 81  1  0  0  0  0
 67 71  1  0  0  0  0
M  CHG  2  80   1  81   1
M  ISO  4  36 100  63 101  77 100  89 101
M  END
> <Batch ID>
0184

> <Smiles>
CNC(C)C(=O)NC(C(=O)N1Cc2cc([101O:1][101CH:1](C)C(=O)C(C)N3C(C)CCCC3c3nc(N)nc([100NH:0][100C:0](=O)N4CCCC(n5nc(-c6ccc(Oc7ccc(F)cc7F)cc6)c(C(N)=O)c5N)C4)n3)ccc2CC1C(=O)NC1CCCc2ccccc21)C(C)(C)C

> <Shape>
0.235

> <Color>
0.085

> <Negative vol penalty>
0.000

$$$$

  -OEChem-04052305023D

 87 95  0     1  0  0  0  0  0999 V2000
  -23.0092  -35.9746   16.1663 C   0  0  0  0  0  0  0  0  0  0  0  0
  -23.4967  -34.6808   16.0120 C   0  0  0  0  0  0  0  0  0  0  0  0
  -24.9234   -8.6167   21.4623 C   0  0  0  0  0  0  0  0  0  0  0  0
  -23.5620   -9.9274   19.9571 C   0  0  0  0  0  0  0  0  0  0  0  0
  -23.2933  -36.6914   17.3280 C   0  0  0  0  0  0  0  0  0  0  0  0
  -24.2698  -34.1035   17.0187 C   0  0  0  0  0  0  0  0  0  0  0  0
  -24.3586  -28.2062   18.6678 C   0  0  0  0  0  0  0  0  0  0  0  0
  -23.8639   -7.7285   21.6472 C   0  0  0  0  0  0  0  0  0  0  0  0
  -22.5025   -9.0392   20.1419 C   0  0  0  0  0  0  0  0  0  0  0  0
  -25.2224  -27.1576   18.3547 C   0  0  0  0  0  0  0  0  0  0  0  0
  -20.9927   -7.6130   23.4267 C   0  0  0  0  0  0  0  0  0  0  0  0
  -20.7089   -7.2063   24.7304 C   0  0  0  0  0  0  0  0  0  0  0  0
  -26.4405  -27.5591   20.3978 C   0  0  0  0  0  0  0  0  0  0  0  0
  -21.1144   -4.9090   24.1021 C   0  0  0  0  0  0  0  0  0  0  0  0
  -24.7724   -9.7162   20.6173 C   0  0  0  0  0  0  0  0  0  0  0  0
  -26.8766  -10.5615   19.4487 C   0  0  0  0  0  0  0  0  0  0  0  0
  -24.0621  -36.1191   18.3536 C   0  0  0  0  0  0  0  0  0  0  0  0
  -24.5361  -28.9474   19.8449 C   0  0  0  0  0  0  0  0  0  0  0  0
  -24.5656  -34.8139   18.1946 C   0  0  0  0  0  0  0  0  0  0  0  0
  -25.5760  -28.6150   20.7248 C   0  0  0  0  0  0  0  0  0  0  0  0
  -22.6535   -7.9397   20.9870 C   0  0  0  0  0  0  0  0  0  0  0  0
  -26.2654  -26.8358   19.2184 C   0  0  0  0  0  0  0  0  0  0  0  0
  -21.3373   -6.6677   22.4606 C   0  0  0  0  0  0  0  0  0  0  0  0
  -20.7698   -5.8543   25.0681 C   0  0  0  0  0  0  0  0  0  0  0  0
  -21.3982   -5.3157   22.7983 C   0  0  0  0  0  0  0  0  0  0  0  0
  -25.8663  -10.6344   20.4263 C   0  0  0  0  0  0  0  0  0  0  0  0
  -26.7729  -19.9354   16.9969 C   0  0  0  0  0  0  0  0  0  0  0  0
  -27.6665  -11.6592   19.6887 C   0  0  0  0  0  0  0  0  0  0  0  0
  -27.2007  -21.0410   17.7015 C   0  0  0  0  0  0  0  0  0  0  0  0
  -28.3419  -18.9774   18.1929 C   0  0  0  0  0  0  0  0  0  0  0  0
  -27.0826   -9.5885   18.4159 C   0  0  0  0  0  0  0  0  0  0  0  0
  -25.1635  -31.9928   20.5048 C   0  0  0  0  0  0  0  0  0  0  0  0
  -24.6945  -31.0213   23.5640 C   0  0  0  0  0  0  0  0  0  0  0  0
  -27.3003  -23.4389   18.4594 C   0  0  0  0  0  0  0  0  0  0  0  0
  -24.6842  -28.4621   25.8217 C   0  0  0  0  0  0  0  0  0  0  0  0
  -28.2311  -17.0893   20.8463 C   0  0  0  0  0  0  0  0  0  0  0  0
  -24.3827  -36.9502   19.5707 C   0  0  0  0  0  0  0  0  0  0  0  0
  -23.5795  -30.0583   20.1812 C   0  0  0  0  0  0  0  0  0  0  0  0
  -25.7973  -29.3668   22.0110 C   0  0  0  0  0  0  0  0  0  0  0  0
  -24.8950  -36.1291   20.7512 C   0  0  0  0  0  0  0  0  0  0  0  0
  -27.7341  -14.8767   23.5912 C   0  0  0  0  0  0  0  0  0  0  0  0
  -25.9605  -35.1394   20.2908 C   0  0  0  0  0  0  0  0  0  0  0  0
  -27.2814  -13.5725   22.9323 C   0  0  0  0  0  0  0  0  0  0  0  0
  -27.1828  -16.0991   22.8605 C   0  0  0  0  0  0  0  0  0  0  0  0
  -27.0120  -14.8306   20.7544 C   0  0  0  0  0  0  0  0  0  0  0  0
  -25.3869  -34.1442   19.2749 C   0  0  1  0  0  0  0  0  0  0  0  0
  -24.1651  -31.0769   21.1544 C   0  0  1  0  0  0  0  0  0  0  0  0
  -27.5886  -13.5708   21.4227 C   0  0  2  0  0  0  0  0  0  0  0  0
  -25.6960  -19.9122   15.9860 C   0  0  0  0  0  0  0  0  0  0  0  0
  -24.2984  -27.9832   28.2547 C   0  0  0  0  0  0  0  0  0  0  0  0
  -32.4194  -17.4096   18.7995 C   0  0  0  0  0  0  0  0  0  0  0  0
  -30.9695  -15.4012   19.0939 C   0  0  0  0  0  0  0  0  0  0  0  0
  -32.0815  -15.8135   16.8976 C   0  0  0  0  0  0  0  0  0  0  0  0
  -27.4229  -32.2143   24.2290 C   0  0  0  0  0  0  0  0  0  0  0  0
  -27.4000  -30.9010   26.3604 C   0  0  0  0  0  0  0  0  0  0  0  0
  -25.6542  -32.6340   25.9465 C   0  0  0  0  0  0  0  0  0  0  0  0
  -22.4330  -26.6361   25.2245 C   0  0  0  0  0  0  0  0  0  0  0  0
  -26.5763  -24.7353   18.1472 C   0  0  0  0  0  0  0  0  0  1  0  0
  -30.1240  -17.2678   17.6528 C   0  0  0  0  0  0  0  0  0  0  0  0
  -29.2432  -17.9444   18.7478 C   0  0  2  0  0  0  0  0  0  0  0  0
  -25.5753  -30.4619   24.6550 C   0  0  1  0  0  0  0  0  0  0  0  0
  -23.6687  -28.0495   26.8720 C   0  0  2  0  0  0  0  0  0  0  0  0
  -31.4026  -16.4973   18.0972 C   0  0  0  0  0  0  0  0  0  0  0  0
  -26.5104  -31.5397   25.2726 C   0  0  0  0  0  0  0  0  0  0  0  0
  -25.9999  -11.6945   21.2278 N   0  0  0  0  0  0  0  0  0  0  0  0
  -27.4264  -18.7512   17.2770 N   0  0  0  0  0  0  0  0  0  0  0  0
  -27.1035  -12.2978   20.7542 N   0  0  0  0  0  0  0  0  0  0  0  0
  -24.8392  -30.4486   22.2924 N   0  0  0  0  0  0  0  0  0  0  0  0
  -27.5098  -16.0370   21.4339 N   0  0  0  0  0  0  0  0  0  0  0  0
  -28.7809  -12.1307   19.0902 N   0  0  0  0  0  0  0  0  0  0  0  0
  -26.1766   -8.5245   18.3100 N   0  0  0  0  0  0  0  0  0  0  0  0
  -26.7894  -22.3950   17.6956 N   0  0  0  0  0  0  0  0  0  0  0  0
  -24.6064  -33.1282   19.9481 N   0  0  0  0  0  0  0  0  0  0  0  0
  -24.6806  -29.8255   25.6158 N   0  0  0  0  0  0  0  0  0  0  0  0
  -28.5046  -16.9482   19.4913 N   0  0  0  0  0  0  0  0  0  0  0  0
  -23.1040  -26.7090   26.5479 N   0  3  0  0  0  0  0  0  0  0  0  0
  -28.0510   -9.6516   17.6211 O   0  0  0  0  0  0  0  0  0  0  0  0
  -26.3515  -31.6924   20.5097 O   0  0  0  0  0  0  0  0  0  0  0  0
  -23.9020  -31.9279   23.8318 O   0  0  0  0  0  0  0  0  0  0  0  0
  -28.2052  -23.3913   19.2862 O   0  0  0  0  0  0  0  0  0  0  0  0
  -25.4107  -27.6561   25.2447 O   0  0  0  0  0  0  0  0  0  0  0  0
  -28.6085  -18.0786   21.4834 O   0  0  0  0  0  0  0  0  0  0  0  0
  -21.6195   -7.0731   21.1670 O   0  0  0  0  0  0  0  0  0  0  0  0
  -27.1104  -25.8132   18.9149 O   0  0  0  0  0  0  0  0  0  1  0  0
  -20.4987   -5.4641   26.3205 F   0  0  0  0  0  0  0  0  0  0  0  0
  -21.7298   -4.4030   21.8748 F   0  0  0  0  0  0  0  0  0  0  0  0
  -28.4711  -20.5911   18.7622 S   0  0  0  0  0  0  0  0  0  0  0  0
  1  2  1  0  0  0  0
  1  5  2  0  0  0  0
  2  6  2  0  0  0  0
  3  8  2  0  0  0  0
  3 15  1  0  0  0  0
  4  9  1  0  0  0  0
  4 15  2  0  0  0  0
  5 17  1  0  0  0  0
  6 19  1  0  0  0  0
  7 10  2  0  0  0  0
  7 18  1  0  0  0  0
  8 21  1  0  0  0  0
  9 21  2  0  0  0  0
 10 22  1  0  0  0  0
 11 12  2  0  0  0  0
 11 23  1  0  0  0  0
 12 24  1  0  0  0  0
 13 20  1  0  0  0  0
 13 22  2  0  0  0  0
 14 24  2  0  0  0  0
 14 25  1  0  0  0  0
 15 26  1  0  0  0  0
 16 26  1  0  0  0  0
 16 28  2  0  0  0  0
 16 31  1  0  0  0  0
 17 19  2  0  0  0  0
 17 37  1  0  0  0  0
 18 20  2  0  0  0  0
 18 38  1  0  0  0  0
 19 46  1  0  0  0  0
 20 39  1  0  0  0  0
 21 83  1  0  0  0  0
 22 84  1  0  0  0  0
 23 25  2  0  0  0  0
 23 83  1  0  0  0  0
 24 85  1  0  0  0  0
 25 86  1  0  0  0  0
 26 65  2  0  0  0  0
 27 29  2  0  0  0  0
 27 49  1  0  0  0  0
 27 66  1  0  0  0  0
 28 67  1  0  0  0  0
 28 70  1  0  0  0  0
 29 72  1  0  0  0  0
 29 87  1  0  0  0  0
 30 60  1  0  0  0  0
 30 66  2  0  0  0  0
 30 87  1  0  0  0  0
 31 71  1  0  0  0  0
 31 77  2  0  0  0  0
 32 47  1  0  0  0  0
 32 73  1  0  0  0  0
 32 78  2  0  0  0  0
 33 61  1  0  0  0  0
 33 68  1  0  0  0  0
 33 79  2  0  0  0  0
 34 58  1  0  0  0  0
 34 72  1  0  0  0  0
 34 80  2  0  0  0  0
 35 62  1  0  0  0  0
 35 74  1  0  0  0  0
 35 81  2  0  0  0  0
 36 69  1  0  0  0  0
 36 75  1  0  0  0  0
 36 82  2  0  0  0  0
 37 40  1  0  0  0  0
 38 47  1  0  0  0  0
 39 68  1  0  0  0  0
 40 42  1  0  0  0  0
 41 43  1  0  0  0  0
 41 44  1  0  0  0  0
 42 46  1  0  0  0  0
 43 48  1  0  0  0  0
 44 69  1  0  0  0  0
 45 48  1  0  0  0  0
 45 69  1  0  0  0  0
 46 73  1  0  0  0  0
 47 68  1  0  0  0  0
 48 67  1  0  0  0  0
 50 62  1  0  0  0  0
 51 63  1  0  0  0  0
 52 63  1  0  0  0  0
 53 63  1  0  0  0  0
 54 64  1  0  0  0  0
 55 64  1  0  0  0  0
 56 64  1  0  0  0  0
 57 76  1  0  0  0  0
 58 84  1  0  0  0  0
 59 60  1  0  0  0  0
 59 63  1  0  0  0  0
 60 75  1  0  0  0  0
 61 64  1  0  0  0  0
 61 74  1  0  0  0  0
 62 76  1  0  0  0  0
 65 67  1  0  0  0  0
M  CHG  1  76   1
M  ISO  4  36 100  58 101  75 100  84 101
M  END
> <Batch ID>
0184

> <Smiles>
CNC(C)C(=O)NC(C(=O)N1Cc2cc([101O:1][101CH2:1]C(=O)Nc3sc(C(CC(C)(C)C)[100NH:0][100C:0](=O)N4CCCC(n5nc(-c6ccc(Oc7ccc(F)cc7F)cc6)c(C(N)=O)c5N)C4)nc3C)ccc2CC1C(=O)NC1CCCc2ccccc21)C(C)(C)C

> <Shape>
0.257

> <Color>
0.110

> <Negative vol penalty>
0.000

$$$$

  -OEChem-04052305023D

 85 93  0     1  0  0  0  0  0999 V2000
  -29.8722  -24.8511   16.4429 C   0  0  0  0  0  0  0  0  0  0  0  0
  -29.1309  -24.0266   17.2831 C   0  0  0  0  0  0  0  0  0  0  0  0
  -27.4633  -17.0576   19.0136 C   0  0  0  0  0  0  0  0  0  0  0  0
  -27.7706  -17.0739   21.4100 C   0  0  0  0  0  0  0  0  0  0  0  0
  -30.0191  -26.2037   16.7474 C   0  0  0  0  0  0  0  0  0  0  0  0
  -28.5370  -24.5541   18.4292 C   0  0  0  0  0  0  0  0  0  0  0  0
  -23.1888  -22.8871   20.9040 C   0  0  0  0  0  0  0  0  0  0  0  0
  -28.0877  -18.3017   18.9251 C   0  0  0  0  0  0  0  0  0  0  0  0
  -28.3950  -18.3181   21.3214 C   0  0  0  0  0  0  0  0  0  0  0  0
  -22.8694  -22.0400   21.9642 C   0  0  0  0  0  0  0  0  0  0  0  0
  -27.4695  -21.5505   20.9673 C   0  0  0  0  0  0  0  0  0  0  0  0
  -27.0964  -22.5298   21.8878 C   0  0  0  0  0  0  0  0  0  0  0  0
  -22.7525  -23.9432   23.4418 C   0  0  0  0  0  0  0  0  0  0  0  0
  -29.3727  -22.6437   22.6893 C   0  0  0  0  0  0  0  0  0  0  0  0
  -27.3047  -16.4437   20.2561 C   0  0  0  0  0  0  0  0  0  0  0  0
  -27.2715  -13.8930   20.2786 C   0  0  0  0  0  0  0  0  0  0  0  0
  -29.4186  -26.7500   17.8927 C   0  0  0  0  0  0  0  0  0  0  0  0
  -23.3034  -24.2698   21.1073 C   0  0  0  0  0  0  0  0  0  0  0  0
  -28.6771  -25.9150   18.7501 C   0  0  0  0  0  0  0  0  0  0  0  0
  -23.0710  -24.8060   22.3819 C   0  0  0  0  0  0  0  0  0  0  0  0
  -28.5536  -18.9320   20.0789 C   0  0  0  0  0  0  0  0  0  0  0  0
  -22.6540  -22.5677   23.2340 C   0  0  0  0  0  0  0  0  0  0  0  0
  -28.7942  -21.1177   20.9078 C   0  0  0  0  0  0  0  0  0  0  0  0
  -28.0480  -23.0764   22.7488 C   0  0  0  0  0  0  0  0  0  0  0  0
  -29.7458  -21.6643   21.7688 C   0  0  0  0  0  0  0  0  0  0  0  0
  -20.2882  -15.7807   25.1473 C   0  0  0  0  0  0  0  0  0  0  0  0
  -20.5277  -17.1208   25.5678 C   0  0  0  0  0  0  0  0  0  0  0  0
  -26.6593  -15.1588   20.3483 C   0  0  0  0  0  0  0  0  0  0  0  0
  -21.4426  -15.1549   24.7308 C   0  0  0  0  0  0  0  0  0  0  0  0
  -26.2353  -13.0023   20.4183 C   0  0  0  0  0  0  0  0  0  0  0  0
  -21.8562  -17.4683   25.4569 C   0  0  0  0  0  0  0  0  0  0  0  0
  -28.6532  -13.5528   20.1033 C   0  0  0  0  0  0  0  0  0  0  0  0
  -25.6508  -26.3931   20.8154 C   0  0  0  0  0  0  0  0  0  0  0  0
  -20.8186  -13.5164   22.9692 C   0  0  0  0  0  0  0  0  0  0  0  0
  -23.2875  -28.5152   21.4743 C   0  0  0  0  0  0  0  0  0  0  0  0
  -20.2377  -29.1091   22.8860 C   0  0  0  0  0  0  0  0  0  0  0  0
  -21.9696  -19.8498   26.2584 C   0  0  0  0  0  0  0  0  0  0  0  0
  -29.6449  -28.2080   18.2056 C   0  0  0  0  0  0  0  0  0  0  0  0
  -23.6224  -25.1730   19.9476 C   0  0  0  0  0  0  0  0  0  0  0  0
  -23.1619  -26.2856   22.6485 C   0  0  0  0  0  0  0  0  0  0  0  0
  -28.6713  -28.7671   19.2399 C   0  0  0  0  0  0  0  0  0  0  0  0
  -21.5520  -12.5362   19.6015 C   0  0  0  0  0  0  0  0  0  0  0  0
  -28.5497  -27.8169   20.4270 C   0  0  0  0  0  0  0  0  0  0  0  0
  -22.9908  -13.0080   19.3955 C   0  0  0  0  0  0  0  0  0  0  0  0
  -20.7729  -13.4944   20.4970 C   0  0  0  0  0  0  0  0  0  0  0  0
  -22.8560  -14.2196   21.6179 C   0  0  0  0  0  0  0  0  0  0  0  0
  -27.9969  -26.4552   19.9893 C   0  0  1  0  0  0  0  0  0  0  0  0
  -24.2181  -26.5100   20.3777 C   0  0  1  0  0  0  0  0  0  0  0  0
  -23.6871  -13.2636   20.7440 C   0  0  2  0  0  0  0  0  0  0  0  0
  -18.5833  -30.9501   23.2996 C   0  0  0  0  0  0  0  0  0  0  0  0
  -25.0533  -29.5951   23.7161 C   0  0  0  0  0  0  0  0  0  0  0  0
  -23.0339  -30.7303   24.6655 C   0  0  0  0  0  0  0  0  0  0  0  0
  -23.8574  -31.3487   22.3935 C   0  0  0  0  0  0  0  0  0  0  0  0
  -18.1426  -27.7385   21.3078 C   0  0  0  0  0  0  0  0  0  0  0  0
  -22.7608  -22.1504   25.5729 C   0  0  0  0  0  0  0  0  0  1  0  0
  -21.6112  -13.7753   24.2257 C   0  0  2  0  0  0  0  0  0  0  0  0
  -22.7138  -29.1196   22.7331 C   0  0  1  0  0  0  0  0  0  0  0  0
  -19.0087  -29.8303   22.3626 C   0  0  2  0  0  0  0  0  0  0  0  0
  -23.0159  -20.9340   26.4505 C   0  0  2  0  0  0  0  0  0  0  0  0
  -23.6647  -30.1703   23.3728 C   0  0  0  0  0  0  0  0  0  0  0  0
  -25.3367  -15.0832   20.5189 N   0  0  0  0  0  0  0  0  0  0  0  0
  -25.1093  -13.7592   20.5575 N   0  0  0  0  0  0  0  0  0  0  0  0
  -23.4828  -27.1268   21.4836 N   0  0  0  0  0  0  0  0  0  0  0  0
  -21.4780  -13.7288   21.7584 N   0  0  0  0  0  0  0  0  0  0  0  0
  -26.1866  -11.6533   20.4345 N   0  0  0  0  0  0  0  0  0  0  0  0
  -29.5860  -14.5911   19.9759 N   0  0  0  0  0  0  0  0  0  0  0  0
  -22.5245  -18.6786   25.7582 N   0  0  0  0  0  0  0  0  0  0  0  0
  -26.5657  -26.5314   19.7891 N   0  0  0  0  0  0  0  0  0  0  0  0
  -21.4006  -29.6432   22.3727 N   0  0  0  0  0  0  0  0  0  0  0  0
  -21.2663  -12.7034   25.2238 N   0  3  0  0  0  0  0  0  0  0  0  0
  -17.8708  -28.8785   22.2207 N   0  3  0  0  0  0  0  0  0  0  0  0
  -29.0468  -12.3632   20.0444 O   0  0  0  0  0  0  0  0  0  0  0  0
  -25.9072  -26.1938   21.9970 O   0  0  0  0  0  0  0  0  0  0  0  0
  -19.6493  -13.1340   23.0631 O   0  0  0  0  0  0  0  0  0  0  0  0
  -23.5460  -29.2470   20.5155 O   0  0  0  0  0  0  0  0  0  0  0  0
  -20.1727  -28.1685   23.6745 O   0  0  0  0  0  0  0  0  0  0  0  0
  -20.7915  -20.0677   26.5259 O   0  0  0  0  0  0  0  0  0  0  0  0
  -29.1632  -20.1459   19.9929 O   0  0  0  0  0  0  0  0  0  0  0  0
  -22.3427  -21.7430   24.2707 O   0  0  0  0  0  0  0  0  0  1  0  0
  -27.6899  -24.0180   23.6316 F   0  0  0  0  0  0  0  0  0  0  0  0
  -31.0202  -21.2533   21.7156 F   0  0  0  0  0  0  0  0  0  0  0  0
  -19.0848  -15.2041   25.1577 F   0  0  0  0  0  0  0  0  0  0  0  0
  -19.5734  -17.9391   26.0157 F   0  0  0  0  0  0  0  0  0  0  0  0
  -24.2587  -20.4538   26.1573 F   0  0  0  0  0  0  0  0  0  0  0  0
  -22.8080  -16.1818   24.8476 S   0  0  0  0  0  0  0  0  0  0  0  0
  1  2  1  0  0  0  0
  1  5  2  0  0  0  0
  2  6  2  0  0  0  0
  3  8  2  0  0  0  0
  3 15  1  0  0  0  0
  4  9  1  0  0  0  0
  4 15  2  0  0  0  0
  5 17  1  0  0  0  0
  6 19  1  0  0  0  0
  7 10  2  0  0  0  0
  7 18  1  0  0  0  0
  8 21  1  0  0  0  0
  9 21  2  0  0  0  0
 10 22  1  0  0  0  0
 11 12  2  0  0  0  0
 11 23  1  0  0  0  0
 12 24  1  0  0  0  0
 13 20  1  0  0  0  0
 13 22  2  0  0  0  0
 14 24  2  0  0  0  0
 14 25  1  0  0  0  0
 15 28  1  0  0  0  0
 16 28  1  0  0  0  0
 16 30  2  0  0  0  0
 16 32  1  0  0  0  0
 17 19  2  0  0  0  0
 17 38  1  0  0  0  0
 18 20  2  0  0  0  0
 18 39  1  0  0  0  0
 19 47  1  0  0  0  0
 20 40  1  0  0  0  0
 21 78  1  0  0  0  0
 22 79  1  0  0  0  0
 23 25  2  0  0  0  0
 23 78  1  0  0  0  0
 24 80  1  0  0  0  0
 25 81  1  0  0  0  0
 26 27  1  0  0  0  0
 26 29  2  0  0  0  0
 26 82  1  0  0  0  0
 27 31  2  0  0  0  0
 27 83  1  0  0  0  0
 28 61  2  0  0  0  0
 29 56  1  0  0  0  0
 29 85  1  0  0  0  0
 30 62  1  0  0  0  0
 30 65  1  0  0  0  0
 31 67  1  0  0  0  0
 31 85  1  0  0  0  0
 32 66  1  0  0  0  0
 32 72  2  0  0  0  0
 33 48  1  0  0  0  0
 33 68  1  0  0  0  0
 33 73  2  0  0  0  0
 34 56  1  0  0  0  0
 34 64  1  0  0  0  0
 34 74  2  0  0  0  0
 35 57  1  0  0  0  0
 35 63  1  0  0  0  0
 35 75  2  0  0  0  0
 36 58  1  0  0  0  0
 36 69  1  0  0  0  0
 36 76  2  0  0  0  0
 37 59  1  0  0  0  0
 37 67  1  0  0  0  0
 37 77  2  0  0  0  0
 38 41  1  0  0  0  0
 39 48  1  0  0  0  0
 40 63  1  0  0  0  0
 41 43  1  0  0  0  0
 42 44  1  0  0  0  0
 42 45  1  0  0  0  0
 43 47  1  0  0  0  0
 44 49  1  0  0  0  0
 45 64  1  0  0  0  0
 46 49  1  0  0  0  0
 46 64  1  0  0  0  0
 47 68  1  0  0  0  0
 48 63  1  0  0  0  0
 49 62  1  0  0  0  0
 50 58  1  0  0  0  0
 51 60  1  0  0  0  0
 52 60  1  0  0  0  0
 53 60  1  0  0  0  0
 54 71  1  0  0  0  0
 55 59  1  0  0  0  0
 55 79  1  0  0  0  0
 56 70  1  0  0  0  0
 57 60  1  0  0  0  0
 57 69  1  0  0  0  0
 58 71  1  0  0  0  0
 59 84  1  0  0  0  0
 61 62  1  0  0  0  0
M  CHG  2  70   1  71   1
M  ISO  4  34 100  55 101  56 100  79 101
M  END
> <Batch ID>
0184

> <Smiles>
CNC(C)C(=O)NC(C(=O)N1Cc2cc([101O:1][101CH2:1]C(F)C(=O)Nc3sc([100CH:0](N)[100C:0](=O)N4CCCC(n5nc(-c6ccc(Oc7ccc(F)cc7F)cc6)c(C(N)=O)c5N)C4)c(F)c3F)ccc2CC1C(=O)NC1CCCc2ccccc21)C(C)(C)C

> <Shape>
0.229

> <Color>
0.070

> <Negative vol penalty>
0.000

$$$$

  -OEChem-04052305023D

 84 92  0     1  0  0  0  0  0999 V2000
  -19.4172  -33.9701   21.3138 C   0  0  0  0  0  0  0  0  0  0  0  0
  -20.6966  -33.5834   20.9277 C   0  0  0  0  0  0  0  0  0  0  0  0
  -24.7044  -11.1909   20.4705 C   0  0  0  0  0  0  0  0  0  0  0  0
  -25.2064  -11.9062   22.7229 C   0  0  0  0  0  0  0  0  0  0  0  0
  -18.7753  -33.3066   22.3587 C   0  0  0  0  0  0  0  0  0  0  0  0
  -21.3353  -32.5337   21.5869 C   0  0  0  0  0  0  0  0  0  0  0  0
  -25.1489  -28.4201   19.1292 C   0  0  0  0  0  0  0  0  0  0  0  0
  -24.7802   -9.8587   20.8766 C   0  0  0  0  0  0  0  0  0  0  0  0
  -25.2821  -10.5739   23.1291 C   0  0  0  0  0  0  0  0  0  0  0  0
  -26.5400  -28.3331   19.0961 C   0  0  0  0  0  0  0  0  0  0  0  0
  -24.4855   -6.2732   21.3985 C   0  0  0  0  0  0  0  0  0  0  0  0
  -23.4873   -5.4035   20.9593 C   0  0  0  0  0  0  0  0  0  0  0  0
  -26.4882  -26.8699   21.0133 C   0  0  0  0  0  0  0  0  0  0  0  0
  -21.8196   -6.7623   22.0590 C   0  0  0  0  0  0  0  0  0  0  0  0
  -28.2622  -20.5468   23.7040 C   0  0  0  0  0  0  0  0  0  0  0  0
  -24.9176  -12.2147   21.3936 C   0  0  0  0  0  0  0  0  0  0  0  0
  -23.6982  -14.4146   20.9677 C   0  0  0  0  0  0  0  0  0  0  0  0
  -19.4027  -32.2419   23.0247 C   0  0  0  0  0  0  0  0  0  0  0  0
  -24.4165  -27.7403   20.1130 C   0  0  0  0  0  0  0  0  0  0  0  0
  -20.7017  -31.8563   22.6426 C   0  0  0  0  0  0  0  0  0  0  0  0
  -25.0877  -26.9479   21.0552 C   0  0  0  0  0  0  0  0  0  0  0  0
  -25.0690   -9.5502   22.2059 C   0  0  0  0  0  0  0  0  0  0  0  0
  -27.2100  -27.5603   20.0400 C   0  0  0  0  0  0  0  0  0  0  0  0
  -24.1507   -7.3874   22.1680 C   0  0  0  0  0  0  0  0  0  0  0  0
  -22.1543   -5.6481   21.2895 C   0  0  0  0  0  0  0  0  0  0  0  0
  -22.8178   -7.6320   22.4983 C   0  0  0  0  0  0  0  0  0  0  0  0
  -24.8400  -13.5911   20.9745 C   0  0  0  0  0  0  0  0  0  0  0  0
  -29.3765  -20.3629   22.9125 C   0  0  0  0  0  0  0  0  0  0  0  0
  -24.1471  -15.6199   20.4858 C   0  0  0  0  0  0  0  0  0  0  0  0
  -29.0876  -22.5115   22.5810 C   0  0  0  0  0  0  0  0  0  0  0  0
  -22.3523  -14.1166   21.3618 C   0  0  0  0  0  0  0  0  0  0  0  0
  -22.4730  -28.6181   22.4701 C   0  0  0  0  0  0  0  0  0  0  0  0
  -22.0328  -25.4188   22.7751 C   0  0  0  0  0  0  0  0  0  0  0  0
  -23.2382  -22.2669   22.2657 C   0  0  0  0  0  0  0  0  0  0  0  0
  -30.1730  -24.3756   21.2872 C   0  0  0  0  0  0  0  0  0  0  0  0
  -29.5294  -18.2427   20.4379 C   0  0  0  0  0  0  0  0  0  0  0  0
  -18.6879  -31.5860   24.1795 C   0  0  0  0  0  0  0  0  0  0  0  0
  -22.9147  -27.8229   20.1188 C   0  0  0  0  0  0  0  0  0  0  0  0
  -24.3464  -26.1822   22.1195 C   0  0  0  0  0  0  0  0  0  0  0  0
  -19.2845  -30.2389   24.5792 C   0  0  0  0  0  0  0  0  0  0  0  0
  -27.4860  -17.4972   17.6191 C   0  0  0  0  0  0  0  0  0  0  0  0
  -20.8041  -30.3347   24.6724 C   0  0  0  0  0  0  0  0  0  0  0  0
  -26.4732  -16.4859   18.1588 C   0  0  0  0  0  0  0  0  0  0  0  0
  -28.8657  -17.3027   18.2442 C   0  0  0  0  0  0  0  0  0  0  0  0
  -27.8700  -16.2906   20.2587 C   0  0  0  0  0  0  0  0  0  0  0  0
  -21.4176  -30.7061   23.3169 C   0  0  1  0  0  0  0  0  0  0  0  0
  -22.3038  -27.5013   21.4792 C   0  0  1  0  0  0  0  0  0  0  0  0
  -26.4500  -16.4829   19.6992 C   0  0  2  0  0  0  0  0  0  0  0  0
  -22.6705  -19.8538   22.6559 C   0  0  0  0  0  0  0  0  0  0  0  0
  -29.9383  -26.1547   18.5434 C   0  0  0  0  0  0  0  0  0  0  0  0
  -22.7676  -25.7249   25.7206 C   0  0  0  0  0  0  0  0  0  0  0  0
  -23.1110  -23.2469   25.8205 C   0  0  0  0  0  0  0  0  0  0  0  0
  -20.8586  -24.1712   25.2776 C   0  0  0  0  0  0  0  0  0  0  0  0
  -23.2450  -21.6761   19.3657 C   0  0  0  0  0  0  0  0  0  0  0  0
  -30.0854  -19.0846   22.7053 C   0  0  0  0  0  0  0  0  0  0  0  0
  -22.7056  -24.3168   23.5574 C   0  0  1  0  0  0  0  0  0  0  0  0
  -22.5906  -21.0223   21.6859 C   0  0  2  0  0  0  0  0  0  0  0  0
  -29.9832  -25.8669   21.0693 C   0  0  2  0  0  0  0  0  0  0  0  0
  -29.1326  -26.1753   19.8363 C   0  0  1  0  0  0  0  0  0  1  0  0
  -22.3751  -24.3808   25.0753 C   0  0  0  0  0  0  0  0  0  0  0  0
  -25.9320  -14.2201   20.5319 N   0  0  0  0  0  0  0  0  0  0  0  0
  -29.8510  -21.4883   22.2674 N   0  0  0  0  0  0  0  0  0  0  0  0
  -25.4785  -15.4515   20.2424 N   0  0  0  0  0  0  0  0  0  0  0  0
  -22.8793  -26.3000   22.0874 N   0  0  0  0  0  0  0  0  0  0  0  0
  -28.7743  -17.3113   19.7062 N   0  0  0  0  0  0  0  0  0  0  0  0
  -23.5288  -16.7967   20.2506 N   0  0  0  0  0  0  0  0  0  0  0  0
  -22.0639  -12.8290   21.8341 N   0  0  0  0  0  0  0  0  0  0  0  0
  -29.2134  -23.8514   22.1439 N   0  0  0  0  0  0  0  0  0  0  0  0
  -21.4543  -29.5514   22.4453 N   0  0  0  0  0  0  0  0  0  0  0  0
  -22.3200  -23.0655   22.9141 N   0  0  0  0  0  0  0  0  0  0  0  0
  -29.3795  -18.1871   21.8182 N   0  0  0  0  0  0  0  0  0  0  0  0
  -23.2685  -20.6282   20.4185 N   0  3  0  0  0  0  0  0  0  0  0  0
  -21.4291  -14.9622   21.2815 O   0  0  0  0  0  0  0  0  0  0  0  0
  -23.4544  -28.6313   23.2038 O   0  0  0  0  0  0  0  0  0  0  0  0
  -20.8014  -25.4906   22.7683 O   0  0  0  0  0  0  0  0  0  0  0  0
  -24.4391  -22.5049   22.1576 O   0  0  0  0  0  0  0  0  0  0  0  0
  -31.0981  -23.7804   20.7423 O   0  0  0  0  0  0  0  0  0  0  0  0
  -30.2774  -19.0665   19.9005 O   0  0  0  0  0  0  0  0  0  0  0  0
  -25.1428   -8.2503   22.6027 O   0  0  0  0  0  0  0  0  0  0  0  0
  -28.5678  -27.4742   20.0103 O   0  0  0  0  0  0  0  0  0  1  0  0
  -21.1957   -4.8137   20.8664 F   0  0  0  0  0  0  0  0  0  0  0  0
  -22.4899   -8.7014   23.2363 F   0  0  0  0  0  0  0  0  0  0  0  0
  -31.1925  -26.4848   20.9310 F   0  0  0  0  0  0  0  0  0  0  0  0
  -27.7815  -22.1922   23.6473 S   0  0  0  0  0  0  0  0  0  0  0  0
  1  2  1  0  0  0  0
  1  5  2  0  0  0  0
  2  6  2  0  0  0  0
  3  8  2  0  0  0  0
  3 16  1  0  0  0  0
  4  9  1  0  0  0  0
  4 16  2  0  0  0  0
  5 18  1  0  0  0  0
  6 20  1  0  0  0  0
  7 10  2  0  0  0  0
  7 19  1  0  0  0  0
  8 22  1  0  0  0  0
  9 22  2  0  0  0  0
 10 23  1  0  0  0  0
 11 12  2  0  0  0  0
 11 24  1  0  0  0  0
 12 25  1  0  0  0  0
 13 21  1  0  0  0  0
 13 23  2  0  0  0  0
 14 25  2  0  0  0  0
 14 26  1  0  0  0  0
 15 28  2  0  0  0  0
 15 84  1  0  0  0  0
 16 27  1  0  0  0  0
 17 27  1  0  0  0  0
 17 29  2  0  0  0  0
 17 31  1  0  0  0  0
 18 20  2  0  0  0  0
 18 37  1  0  0  0  0
 19 21  2  0  0  0  0
 19 38  1  0  0  0  0
 20 46  1  0  0  0  0
 21 39  1  0  0  0  0
 22 79  1  0  0  0  0
 23 80  1  0  0  0  0
 24 26  2  0  0  0  0
 24 79  1  0  0  0  0
 25 81  1  0  0  0  0
 26 82  1  0  0  0  0
 27 61  2  0  0  0  0
 28 55  1  0  0  0  0
 28 62  1  0  0  0  0
 29 63  1  0  0  0  0
 29 66  1  0  0  0  0
 30 62  2  0  0  0  0
 30 68  1  0  0  0  0
 30 84  1  0  0  0  0
 31 67  1  0  0  0  0
 31 73  2  0  0  0  0
 32 47  1  0  0  0  0
 32 69  1  0  0  0  0
 32 74  2  0  0  0  0
 33 56  1  0  0  0  0
 33 64  1  0  0  0  0
 33 75  2  0  0  0  0
 34 57  1  0  0  0  0
 34 70  1  0  0  0  0
 34 76  2  0  0  0  0
 35 58  1  0  0  0  0
 35 68  1  0  0  0  0
 35 77  2  0  0  0  0
 36 65  1  0  0  0  0
 36 71  1  0  0  0  0
 36 78  2  0  0  0  0
 37 40  1  0  0  0  0
 38 47  1  0  0  0  0
 39 64  1  0  0  0  0
 40 42  1  0  0  0  0
 41 43  1  0  0  0  0
 41 44  1  0  0  0  0
 42 46  1  0  0  0  0
 43 48  1  0  0  0  0
 44 65  1  0  0  0  0
 45 48  1  0  0  0  0
 45 65  1  0  0  0  0
 46 69  1  0  0  0  0
 47 64  1  0  0  0  0
 48 63  1  0  0  0  0
 49 57  1  0  0  0  0
 50 59  1  0  0  0  0
 51 60  1  0  0  0  0
 52 60  1  0  0  0  0
 53 60  1  0  0  0  0
 54 72  1  0  0  0  0
 55 71  1  0  0  0  0
 56 60  1  0  0  0  0
 56 70  1  0  0  0  0
 57 72  1  0  0  0  0
 58 59  1  0  0  0  0
 58 83  1  0  0  0  0
 59 80  1  0  0  0  0
 61 63  1  0  0  0  0
M  CHG  1  72   1
M  ISO  4  36 100  59 101  71 100  80 101
M  END
> <Batch ID>
0184

> <Smiles>
CNC(C)C(=O)NC(C(=O)N1Cc2cc([101O:1][101CH:1](C)C(F)C(=O)Nc3nc(C[100NH:0][100C:0](=O)N4CCCC(n5nc(-c6ccc(Oc7ccc(F)cc7F)cc6)c(C(N)=O)c5N)C4)cs3)ccc2CC1C(=O)NC1CCCc2ccccc21)C(C)(C)C

> <Shape>
0.226

> <Color>
0.094

> <Negative vol penalty>
0.000

$$$$

  -OEChem-04052305023D

 83 91  0     1  0  0  0  0  0999 V2000
  -16.6021  -30.1209   22.9031 C   0  0  0  0  0  0  0  0  0  0  0  0
  -17.6655  -30.9449   23.2573 C   0  0  0  0  0  0  0  0  0  0  0  0
  -26.3826  -20.2097   21.4389 C   0  0  0  0  0  0  0  0  0  0  0  0
  -28.0945  -18.6468   22.1199 C   0  0  0  0  0  0  0  0  0  0  0  0
  -16.8177  -28.7604   22.6872 C   0  0  0  0  0  0  0  0  0  0  0  0
  -18.9451  -30.4087   23.3968 C   0  0  0  0  0  0  0  0  0  0  0  0
  -25.8427  -32.1134   22.4833 C   0  0  0  0  0  0  0  0  0  0  0  0
  -25.3984  -19.3107   21.8496 C   0  0  0  0  0  0  0  0  0  0  0  0
  -27.1103  -17.7478   22.5307 C   0  0  0  0  0  0  0  0  0  0  0  0
  -27.0526  -32.1150   23.1760 C   0  0  0  0  0  0  0  0  0  0  0  0
  -25.0473  -14.8928   23.4268 C   0  0  0  0  0  0  0  0  0  0  0  0
  -25.2019  -13.5538   23.0682 C   0  0  0  0  0  0  0  0  0  0  0  0
  -31.4439  -29.2372   17.7905 C   0  0  0  0  0  0  0  0  0  0  0  0
  -31.0758  -29.8434   19.0263 C   0  0  0  0  0  0  0  0  0  0  0  0
  -27.3209  -29.7653   22.7006 C   0  0  0  0  0  0  0  0  0  0  0  0
  -25.1718  -14.1756   20.7337 C   0  0  0  0  0  0  0  0  0  0  0  0
  -27.7307  -19.8778   21.5740 C   0  0  0  0  0  0  0  0  0  0  0  0
  -29.3580  -21.8110   21.9233 C   0  0  0  0  0  0  0  0  0  0  0  0
  -18.1024  -28.2091   22.8147 C   0  0  0  0  0  0  0  0  0  0  0  0
  -25.3566  -30.9333   21.9024 C   0  0  0  0  0  0  0  0  0  0  0  0
  -19.1779  -29.0394   23.1836 C   0  0  0  0  0  0  0  0  0  0  0  0
  -26.1058  -29.7519   21.9989 C   0  0  0  0  0  0  0  0  0  0  0  0
  -25.7623  -18.0797   22.3955 C   0  0  0  0  0  0  0  0  0  0  0  0
  -27.7905  -30.9402   23.2872 C   0  0  0  0  0  0  0  0  0  0  0  0
  -24.9549  -15.8733   22.4390 C   0  0  0  0  0  0  0  0  0  0  0  0
  -25.2642  -13.1952   21.7217 C   0  0  0  0  0  0  0  0  0  0  0  0
  -25.0172  -15.5147   21.0924 C   0  0  0  0  0  0  0  0  0  0  0  0
  -28.7479  -20.8058   21.1494 C   0  0  0  0  0  0  0  0  0  0  0  0
  -31.5743  -27.8705   17.9032 C   0  0  0  0  0  0  0  0  0  0  0  0
  -30.2480  -22.4113   21.0665 C   0  0  0  0  0  0  0  0  0  0  0  0
  -30.9386  -28.9168   20.0365 C   0  0  0  0  0  0  0  0  0  0  0  0
  -29.1398  -22.1701   23.2941 C   0  0  0  0  0  0  0  0  0  0  0  0
  -31.9400  -26.8796   16.8586 C   0  0  0  0  0  0  0  0  0  0  0  0
  -22.7658  -29.1364   22.3059 C   0  0  0  0  0  0  0  0  0  0  0  0
  -23.9507  -27.5394   19.7431 C   0  0  0  0  0  0  0  0  0  0  0  0
  -26.6643  -26.7126   17.8459 C   0  0  0  0  0  0  0  0  0  0  0  0
  -30.2871  -30.2605   22.0636 C   0  0  0  0  0  0  0  0  0  0  0  0
  -31.5792  -24.5428   16.1286 C   0  0  0  0  0  0  0  0  0  0  0  0
  -18.2779  -26.7242   22.6174 C   0  0  0  0  0  0  0  0  0  0  0  0
  -24.0627  -30.9543   21.1357 C   0  0  0  0  0  0  0  0  0  0  0  0
  -25.6378  -28.4630   21.3759 C   0  0  0  0  0  0  0  0  0  0  0  0
  -19.7320  -26.3036   22.4197 C   0  0  0  0  0  0  0  0  0  0  0  0
  -31.8289  -21.0318   16.4566 C   0  0  0  0  0  0  0  0  0  0  0  0
  -20.6271  -26.9728   23.4578 C   0  0  0  0  0  0  0  0  0  0  0  0
  -31.1069  -20.7400   17.7749 C   0  0  0  0  0  0  0  0  0  0  0  0
  -31.1424  -22.1463   15.6683 C   0  0  0  0  0  0  0  0  0  0  0  0
  -30.1891  -23.0936   17.7302 C   0  0  0  0  0  0  0  0  0  0  0  0
  -20.5851  -28.4996   23.3205 C   0  0  1  0  0  0  0  0  0  0  0  0
  -23.4122  -29.5789   21.0237 C   0  0  1  0  0  0  0  0  0  0  0  0
  -30.8820  -22.0271   18.5936 C   0  0  1  0  0  0  0  0  0  0  0  0
  -27.3259  -25.3608   15.8378 C   0  0  0  0  0  0  0  0  0  0  0  0
  -31.1992  -30.1494   24.4120 C   0  0  0  0  0  0  0  0  0  0  0  0
  -23.7481  -24.9847   21.3991 C   0  0  0  0  0  0  0  0  0  0  0  0
  -25.2663  -23.8755   19.7459 C   0  0  0  0  0  0  0  0  0  0  0  0
  -23.0441  -24.7391   19.0119 C   0  0  0  0  0  0  0  0  0  0  0  0
  -27.6185  -29.1123   16.4003 C   0  0  0  0  0  0  0  0  0  0  0  0
  -24.8937  -26.3763   19.5506 C   0  0  1  0  0  0  0  0  0  0  0  0
  -26.8850  -26.7254   16.3440 C   0  0  2  0  0  0  0  0  0  0  0  0
  -29.9645  -30.0082   23.5341 C   0  0  1  0  0  0  0  0  0  1  0  0
  -24.2462  -25.0176   19.9404 C   0  0  0  0  0  0  0  0  0  0  0  0
  -29.2110  -20.7666   19.8972 N   0  0  0  0  0  0  0  0  0  0  0  0
  -30.1216  -21.7548   19.8777 N   0  0  0  0  0  0  0  0  0  0  0  0
  -24.3635  -28.5331   20.6420 N   0  0  0  0  0  0  0  0  0  0  0  0
  -30.9754  -23.3320   16.5106 N   0  0  0  0  0  0  0  0  0  0  0  0
  -31.1186  -23.4313   21.2216 N   0  0  0  0  0  0  0  0  0  0  0  0
  -28.1888  -21.4503   24.0301 N   0  0  0  0  0  0  0  0  0  0  0  0
  -30.5916  -29.0769   21.3991 N   0  0  0  0  0  0  0  0  0  0  0  0
  -31.3965  -25.6049   17.0211 N   0  0  0  0  0  0  0  0  0  0  0  0
  -21.4032  -28.9296   22.2069 N   0  0  0  0  0  0  0  0  0  0  0  0
  -25.3502  -26.4456   18.1667 N   0  0  0  0  0  0  0  0  0  0  0  0
  -27.9329  -27.7216   15.9829 N   0  3  0  0  0  0  0  0  0  0  0  0
  -29.7578  -23.1124   23.8452 O   0  0  0  0  0  0  0  0  0  0  0  0
  -32.6449  -27.2347   15.9180 O   0  0  0  0  0  0  0  0  0  0  0  0
  -23.4528  -28.9918   23.3103 O   0  0  0  0  0  0  0  0  0  0  0  0
  -22.8903  -27.5687   19.1135 O   0  0  0  0  0  0  0  0  0  0  0  0
  -27.5682  -26.9152   18.6537 O   0  0  0  0  0  0  0  0  0  0  0  0
  -30.2470  -31.3917   21.5882 O   0  0  0  0  0  0  0  0  0  0  0  0
  -32.2546  -24.6586   15.1012 O   0  0  0  0  0  0  0  0  0  0  0  0
  -24.8022  -17.2023   22.7967 O   0  0  0  0  0  0  0  0  0  0  0  0
  -28.9715  -30.9388   23.9633 O   0  0  0  0  0  0  0  0  0  1  0  0
  -25.4142  -11.9094   21.3774 F   0  0  0  0  0  0  0  0  0  0  0  0
  -24.9301  -16.4522   20.1389 F   0  0  0  0  0  0  0  0  0  0  0  0
  -31.2535  -27.3235   19.4939 S   0  0  0  0  0  0  0  0  0  0  0  0
  1  2  1  0  0  0  0
  1  5  2  0  0  0  0
  2  6  2  0  0  0  0
  3  8  2  0  0  0  0
  3 17  1  0  0  0  0
  4  9  1  0  0  0  0
  4 17  2  0  0  0  0
  5 19  1  0  0  0  0
  6 21  1  0  0  0  0
  7 10  2  0  0  0  0
  7 20  1  0  0  0  0
  8 23  1  0  0  0  0
  9 23  2  0  0  0  0
 10 24  1  0  0  0  0
 11 12  2  0  0  0  0
 11 25  1  0  0  0  0
 12 26  1  0  0  0  0
 13 14  1  0  0  0  0
 13 29  2  0  0  0  0
 14 31  2  0  0  0  0
 15 22  1  0  0  0  0
 15 24  2  0  0  0  0
 16 26  2  0  0  0  0
 16 27  1  0  0  0  0
 17 28  1  0  0  0  0
 18 28  1  0  0  0  0
 18 30  2  0  0  0  0
 18 32  1  0  0  0  0
 19 21  2  0  0  0  0
 19 39  1  0  0  0  0
 20 22  2  0  0  0  0
 20 40  1  0  0  0  0
 21 48  1  0  0  0  0
 22 41  1  0  0  0  0
 23 79  1  0  0  0  0
 24 80  1  0  0  0  0
 25 27  2  0  0  0  0
 25 79  1  0  0  0  0
 26 81  1  0  0  0  0
 27 82  1  0  0  0  0
 28 61  2  0  0  0  0
 29 33  1  0  0  0  0
 29 83  1  0  0  0  0
 30 62  1  0  0  0  0
 30 65  1  0  0  0  0
 31 67  1  0  0  0  0
 31 83  1  0  0  0  0
 32 66  1  0  0  0  0
 32 72  2  0  0  0  0
 33 68  1  0  0  0  0
 33 73  2  0  0  0  0
 34 49  1  0  0  0  0
 34 69  1  0  0  0  0
 34 74  2  0  0  0  0
 35 57  1  0  0  0  0
 35 63  1  0  0  0  0
 35 75  2  0  0  0  0
 36 58  1  0  0  0  0
 36 70  1  0  0  0  0
 36 76  2  0  0  0  0
 37 59  1  0  0  0  0
 37 67  1  0  0  0  0
 37 77  2  0  0  0  0
 38 64  1  0  0  0  0
 38 68  1  0  0  0  0
 38 78  2  0  0  0  0
 39 42  1  0  0  0  0
 40 49  1  0  0  0  0
 41 63  1  0  0  0  0
 42 44  1  0  0  0  0
 43 45  1  0  0  0  0
 43 46  1  0  0  0  0
 44 48  1  0  0  0  0
 45 50  1  0  0  0  0
 46 64  1  0  0  0  0
 47 50  1  0  0  0  0
 47 64  1  0  0  0  0
 48 69  1  0  0  0  0
 49 63  1  0  0  0  0
 50 62  1  0  0  0  0
 51 58  1  0  0  0  0
 52 59  1  0  0  0  0
 53 60  1  0  0  0  0
 54 60  1  0  0  0  0
 55 60  1  0  0  0  0
 56 71  1  0  0  0  0
 57 60  1  0  0  0  0
 57 70  1  0  0  0  0
 58 71  1  0  0  0  0
 59 80  1  0  0  0  0
 61 62  1  0  0  0  0
M  CHG  1  71   1
M  ISO  4  38 100  59 101  68 100  80 101
M  END
> <Batch ID>
0184

> <Smiles>
CNC(C)C(=O)NC(C(=O)N1Cc2cc([101O:1][101CH:1](C)C(=O)Nc3ccc(C(=O)[100NH:0][100C:0](=O)N4CCCC(n5nc(-c6ccc(Oc7ccc(F)cc7F)cc6)c(C(N)=O)c5N)C4)s3)ccc2CC1C(=O)NC1CCCc2ccccc21)C(C)(C)C

> <Shape>
0.233

> <Color>
0.100

> <Negative vol penalty>
0.000

$$$$

  -OEChem-04052305023D

 85 93  0     1  0  0  0  0  0999 V2000
  -22.8780  -20.2440   20.9460 C   0  0  0  0  0  0  0  0  0  0  0  0
  -23.8139  -21.1493   20.4561 C   0  0  0  0  0  0  0  0  0  0  0  0
  -26.1086  -12.9656   21.7249 C   0  0  0  0  0  0  0  0  0  0  0  0
  -25.8326  -13.6849   19.4350 C   0  0  0  0  0  0  0  0  0  0  0  0
  -21.5634  -20.6527   21.1662 C   0  0  0  0  0  0  0  0  0  0  0  0
  -23.4353  -22.4636   20.1850 C   0  0  0  0  0  0  0  0  0  0  0  0
  -26.7880  -25.8457   21.9073 C   0  0  0  0  0  0  0  0  0  0  0  0
  -24.9264  -12.2306   21.6365 C   0  0  0  0  0  0  0  0  0  0  0  0
  -24.6505  -12.9498   19.3466 C   0  0  0  0  0  0  0  0  0  0  0  0
  -27.9475  -26.0323   21.1559 C   0  0  0  0  0  0  0  0  0  0  0  0
  -23.9263   -9.2665   20.3532 C   0  0  0  0  0  0  0  0  0  0  0  0
  -23.9299   -7.9689   20.8650 C   0  0  0  0  0  0  0  0  0  0  0  0
  -26.9920  -28.0244   20.1874 C   0  0  0  0  0  0  0  0  0  0  0  0
  -22.1746   -8.5738   22.4110 C   0  0  0  0  0  0  0  0  0  0  0  0
  -28.8288  -23.3441   16.1224 C   0  0  0  0  0  0  0  0  0  0  0  0
  -28.3726  -21.1427   16.9771 C   0  0  0  0  0  0  0  0  0  0  0  0
  -26.5617  -13.6928   20.6242 C   0  0  0  0  0  0  0  0  0  0  0  0
  -29.0847  -14.0081   20.4182 C   0  0  0  0  0  0  0  0  0  0  0  0
  -21.1708  -21.9753   20.9067 C   0  0  0  0  0  0  0  0  0  0  0  0
  -25.7157  -26.7425   21.7960 C   0  0  0  0  0  0  0  0  0  0  0  0
  -22.1138  -22.8901   20.4006 C   0  0  0  0  0  0  0  0  0  0  0  0
  -25.8210  -27.8483   20.9404 C   0  0  0  0  0  0  0  0  0  0  0  0
  -24.1974  -12.2226   20.4473 C   0  0  0  0  0  0  0  0  0  0  0  0
  -28.0485  -27.1201   20.2937 C   0  0  0  0  0  0  0  0  0  0  0  0
  -23.0469  -10.2177   20.8703 C   0  0  0  0  0  0  0  0  0  0  0  0
  -23.0541   -7.6226   21.8938 C   0  0  0  0  0  0  0  0  0  0  0  0
  -22.1710   -9.8714   21.8992 C   0  0  0  0  0  0  0  0  0  0  0  0
  -28.4490  -22.0244   15.9046 C   0  0  0  0  0  0  0  0  0  0  0  0
  -27.7824  -14.4528   20.7151 C   0  0  0  0  0  0  0  0  0  0  0  0
  -29.1194  -23.7294   17.4212 C   0  0  0  0  0  0  0  0  0  0  0  0
  -28.6838  -21.6265   18.2376 C   0  0  0  0  0  0  0  0  0  0  0  0
  -29.8839  -15.0979   20.6634 C   0  0  0  0  0  0  0  0  0  0  0  0
  -29.5320  -12.7247   19.9616 C   0  0  0  0  0  0  0  0  0  0  0  0
  -22.6851  -26.5109   20.8657 C   0  0  0  0  0  0  0  0  0  0  0  0
  -22.5470  -29.5905   21.8754 C   0  0  0  0  0  0  0  0  0  0  0  0
  -24.2040  -32.4999   22.5360 C   0  0  0  0  0  0  0  0  0  0  0  0
  -29.6322  -26.0848   16.6823 C   0  0  0  0  0  0  0  0  0  0  0  0
  -28.8686  -20.9864   20.6671 C   0  0  0  0  0  0  0  0  0  0  0  0
  -19.7270  -22.3582   21.1156 C   0  0  0  0  0  0  0  0  0  0  0  0
  -24.4824  -26.5420   22.6334 C   0  0  0  0  0  0  0  0  0  0  0  0
  -24.7062  -28.8513   20.7998 C   0  0  0  0  0  0  0  0  0  0  0  0
  -19.4968  -23.8667   21.1572 C   0  0  0  0  0  0  0  0  0  0  0  0
  -30.1142  -19.0386   23.3748 C   0  0  0  0  0  0  0  0  0  0  0  0
  -20.2337  -24.5510   20.0102 C   0  0  0  0  0  0  0  0  0  0  0  0
  -29.7815  -17.6007   22.9702 C   0  0  0  0  0  0  0  0  0  0  0  0
  -29.0192  -20.0152   22.9494 C   0  0  0  0  0  0  0  0  0  0  0  0
  -28.3175  -18.5161   21.1248 C   0  0  0  0  0  0  0  0  0  0  0  0
  -21.7475  -24.3309   20.1178 C   0  0  1  0  0  0  0  0  0  0  0  0
  -23.2500  -27.2320   22.0567 C   0  0  1  0  0  0  0  0  0  0  0  0
  -29.4216  -17.5050   21.4746 C   0  0  2  0  0  0  0  0  0  0  0  0
  -23.8171  -34.8546   23.3125 C   0  0  0  0  0  0  0  0  0  0  0  0
  -30.2138  -28.4825   16.1623 C   0  0  0  0  0  0  0  0  0  0  0  0
  -31.4433  -27.2726   18.0011 C   0  0  0  0  0  0  0  0  0  0  0  0
  -21.4265  -30.3092   19.1299 C   0  0  0  0  0  0  0  0  0  0  0  0
  -21.9532  -32.7072   19.6198 C   0  0  0  0  0  0  0  0  0  0  0  0
  -20.3196  -31.4743   21.0460 C   0  0  0  0  0  0  0  0  0  0  0  0
  -25.9359  -32.1259   24.9066 C   0  0  0  0  0  0  0  0  0  0  0  0
  -29.0336  -27.9507   18.2948 C   0  0  0  0  0  0  0  0  0  1  0  0
  -22.7829  -30.9371   21.2351 C   0  0  1  0  0  0  0  0  0  0  0  0
  -24.1617  -33.4340   23.7319 C   0  0  2  0  0  0  0  0  0  0  0  0
  -30.0904  -27.4392   17.2869 C   0  0  0  0  0  0  0  0  0  0  0  0
  -21.6410  -31.3372   20.2586 C   0  0  0  0  0  0  0  0  0  0  0  0
  -27.7516  -15.7258   21.1181 N   0  0  0  0  0  0  0  0  0  0  0  0
  -29.0565  -22.9017   18.4882 N   0  0  0  0  0  0  0  0  0  0  0  0
  -29.0445  -16.0903   21.0764 N   0  0  0  0  0  0  0  0  0  0  0  0
  -23.5183  -28.6083   21.6349 N   0  0  0  0  0  0  0  0  0  0  0  0
  -28.7343  -19.8706   21.5202 N   0  0  0  0  0  0  0  0  0  0  0  0
  -31.2158  -15.2944   20.5639 N   0  0  0  0  0  0  0  0  0  0  0  0
  -28.5784  -11.7173   19.7609 N   0  0  0  0  0  0  0  0  0  0  0  0
  -29.5047  -25.0758   17.6327 N   0  0  0  0  0  0  0  0  0  0  0  0
  -28.6029  -20.7207   19.3241 N   0  0  0  0  0  0  0  0  0  0  0  0
  -22.3152  -25.2045   21.1223 N   0  0  0  0  0  0  0  0  0  0  0  0
  -22.9903  -31.8789   22.3298 N   0  0  0  0  0  0  0  0  0  0  0  0
  -25.4834  -33.4547   24.4200 N   0  3  0  0  0  0  0  0  0  0  0  0
  -30.7433  -12.4735   19.7540 O   0  0  0  0  0  0  0  0  0  0  0  0
  -22.5904  -27.0969   19.7936 O   0  0  0  0  0  0  0  0  0  0  0  0
  -21.5418  -29.4186   22.5694 O   0  0  0  0  0  0  0  0  0  0  0  0
  -25.2118  -32.3401   21.8509 O   0  0  0  0  0  0  0  0  0  0  0  0
  -29.4258  -25.9664   15.4759 O   0  0  0  0  0  0  0  0  0  0  0  0
  -29.2216  -22.0894   21.0920 O   0  0  0  0  0  0  0  0  0  0  0  0
  -23.0439  -11.5053   20.3606 O   0  0  0  0  0  0  0  0  0  0  0  0
  -29.1788  -27.3043   19.5586 O   0  0  0  0  0  0  0  0  0  1  0  0
  -23.0566   -6.3761   22.3841 F   0  0  0  0  0  0  0  0  0  0  0  0
  -21.3230  -10.7806   22.3992 F   0  0  0  0  0  0  0  0  0  0  0  0
  -28.1585  -21.6042   14.6665 F   0  0  0  0  0  0  0  0  0  0  0  0
  1  2  1  0  0  0  0
  1  5  2  0  0  0  0
  2  6  2  0  0  0  0
  3  8  2  0  0  0  0
  3 17  1  0  0  0  0
  4  9  1  0  0  0  0
  4 17  2  0  0  0  0
  5 19  1  0  0  0  0
  6 21  1  0  0  0  0
  7 10  2  0  0  0  0
  7 20  1  0  0  0  0
  8 23  1  0  0  0  0
  9 23  2  0  0  0  0
 10 24  1  0  0  0  0
 11 12  2  0  0  0  0
 11 25  1  0  0  0  0
 12 26  1  0  0  0  0
 13 22  1  0  0  0  0
 13 24  2  0  0  0  0
 14 26  2  0  0  0  0
 14 27  1  0  0  0  0
 15 28  2  0  0  0  0
 15 30  1  0  0  0  0
 16 28  1  0  0  0  0
 16 31  2  0  0  0  0
 17 29  1  0  0  0  0
 18 29  1  0  0  0  0
 18 32  2  0  0  0  0
 18 33  1  0  0  0  0
 19 21  2  0  0  0  0
 19 39  1  0  0  0  0
 20 22  2  0  0  0  0
 20 40  1  0  0  0  0
 21 48  1  0  0  0  0
 22 41  1  0  0  0  0
 23 81  1  0  0  0  0
 24 82  1  0  0  0  0
 25 27  2  0  0  0  0
 25 81  1  0  0  0  0
 26 83  1  0  0  0  0
 27 84  1  0  0  0  0
 28 85  1  0  0  0  0
 29 63  2  0  0  0  0
 30 64  2  0  0  0  0
 30 70  1  0  0  0  0
 31 64  1  0  0  0  0
 31 71  1  0  0  0  0
 32 65  1  0  0  0  0
 32 68  1  0  0  0  0
 33 69  1  0  0  0  0
 33 75  2  0  0  0  0
 34 49  1  0  0  0  0
 34 72  1  0  0  0  0
 34 76  2  0  0  0  0
 35 59  1  0  0  0  0
 35 66  1  0  0  0  0
 35 77  2  0  0  0  0
 36 60  1  0  0  0  0
 36 73  1  0  0  0  0
 36 78  2  0  0  0  0
 37 61  1  0  0  0  0
 37 70  1  0  0  0  0
 37 79  2  0  0  0  0
 38 67  1  0  0  0  0
 38 71  1  0  0  0  0
 38 80  2  0  0  0  0
 39 42  1  0  0  0  0
 40 49  1  0  0  0  0
 41 66  1  0  0  0  0
 42 44  1  0  0  0  0
 43 45  1  0  0  0  0
 43 46  1  0  0  0  0
 44 48  1  0  0  0  0
 45 50  1  0  0  0  0
 46 67  1  0  0  0  0
 47 50  1  0  0  0  0
 47 67  1  0  0  0  0
 48 72  1  0  0  0  0
 49 66  1  0  0  0  0
 50 65  1  0  0  0  0
 51 60  1  0  0  0  0
 52 61  1  0  0  0  0
 53 61  1  0  0  0  0
 54 62  1  0  0  0  0
 55 62  1  0  0  0  0
 56 62  1  0  0  0  0
 57 74  1  0  0  0  0
 58 61  1  0  0  0  0
 58 82  1  0  0  0  0
 59 62  1  0  0  0  0
 59 73  1  0  0  0  0
 60 74  1  0  0  0  0
 63 65  1  0  0  0  0
M  CHG  1  74   1
M  ISO  4  38 100  58 101  71 100  82 101
M  END
> <Batch ID>
0184

> <Smiles>
CNC(C)C(=O)NC(C(=O)N1Cc2cc([101O:1][101CH2:1]C(C)(C)C(=O)Nc3cc(F)cc([100NH:0][100C:0](=O)N4CCCC(n5nc(-c6ccc(Oc7ccc(F)cc7F)cc6)c(C(N)=O)c5N)C4)n3)ccc2CC1C(=O)NC1CCCc2ccccc21)C(C)(C)C

> <Shape>
0.275

> <Color>
0.078

> <Negative vol penalty>
0.000

$$$$

  -OEChem-04052305023D

 85 93  0     1  0  0  0  0  0999 V2000
  -30.4668  -22.7809   17.6996 C   0  0  0  0  0  0  0  0  0  0  0  0
  -30.1375  -22.5244   19.0267 C   0  0  0  0  0  0  0  0  0  0  0  0
  -23.1038   -9.8630   21.4012 C   0  0  0  0  0  0  0  0  0  0  0  0
  -23.8589  -10.6954   23.5398 C   0  0  0  0  0  0  0  0  0  0  0  0
  -30.9094  -24.0488   17.3250 C   0  0  0  0  0  0  0  0  0  0  0  0
  -30.2516  -23.5354   19.9802 C   0  0  0  0  0  0  0  0  0  0  0  0
  -26.2410  -23.7596   23.0639 C   0  0  0  0  0  0  0  0  0  0  0  0
  -22.3781   -8.8621   22.0469 C   0  0  0  0  0  0  0  0  0  0  0  0
  -23.1332   -9.6945   24.1857 C   0  0  0  0  0  0  0  0  0  0  0  0
  -26.1699  -22.8139   24.0858 C   0  0  0  0  0  0  0  0  0  0  0  0
  -23.0033   -5.8723   23.4944 C   0  0  0  0  0  0  0  0  0  0  0  0
  -23.0886   -4.5778   22.9820 C   0  0  0  0  0  0  0  0  0  0  0  0
  -26.9995  -24.4514   25.6508 C   0  0  0  0  0  0  0  0  0  0  0  0
  -20.7024   -4.5704   22.6036 C   0  0  0  0  0  0  0  0  0  0  0  0
  -23.8442  -10.7797   22.1476 C   0  0  0  0  0  0  0  0  0  0  0  0
  -24.1455  -13.1029   21.1379 C   0  0  0  0  0  0  0  0  0  0  0  0
  -31.0198  -25.0786   18.2726 C   0  0  0  0  0  0  0  0  0  0  0  0
  -26.7030  -25.0574   23.3260 C   0  0  0  0  0  0  0  0  0  0  0  0
  -30.6974  -24.8180   19.6181 C   0  0  0  0  0  0  0  0  0  0  0  0
  -27.0731  -25.4125   24.6310 C   0  0  0  0  0  0  0  0  0  0  0  0
  -22.3928   -8.7778   23.4392 C   0  0  0  0  0  0  0  0  0  0  0  0
  -26.5519  -23.1589   25.3789 C   0  0  0  0  0  0  0  0  0  0  0  0
  -21.7675   -6.5159   23.5615 C   0  0  0  0  0  0  0  0  0  0  0  0
  -21.9382   -3.9269   22.5365 C   0  0  0  0  0  0  0  0  0  0  0  0
  -20.6171   -5.8649   23.1160 C   0  0  0  0  0  0  0  0  0  0  0  0
  -24.5945  -11.8136   21.4810 C   0  0  0  0  0  0  0  0  0  0  0  0
  -30.9902  -19.0937   22.5108 C   0  0  0  0  0  0  0  0  0  0  0  0
  -30.2850  -18.1401   21.8070 C   0  0  0  0  0  0  0  0  0  0  0  0
  -25.2262  -13.6918   20.5281 C   0  0  0  0  0  0  0  0  0  0  0  0
  -29.0492  -19.3171   23.5070 C   0  0  0  0  0  0  0  0  0  0  0  0
  -22.8661  -13.7137   21.3514 C   0  0  0  0  0  0  0  0  0  0  0  0
  -29.1573  -26.8102   22.3222 C   0  0  0  0  0  0  0  0  0  0  0  0
  -27.6931  -29.1401   24.0398 C   0  0  0  0  0  0  0  0  0  0  0  0
  -25.5720  -29.9663   26.5825 C   0  0  0  0  0  0  0  0  0  0  0  0
  -28.0269  -20.7063   25.3412 C   0  0  0  0  0  0  0  0  0  0  0  0
  -30.6924  -14.7978   20.3213 C   0  0  0  0  0  0  0  0  0  0  0  0
  -31.5479  -26.4198   17.8288 C   0  0  0  0  0  0  0  0  0  0  0  0
  -26.7484  -26.0737   22.2181 C   0  0  0  0  0  0  0  0  0  0  0  0
  -27.5568  -26.7983   24.9688 C   0  0  0  0  0  0  0  0  0  0  0  0
  -31.2837  -27.5404   18.8312 C   0  0  0  0  0  0  0  0  0  0  0  0
  -29.5981  -11.7038   18.9406 C   0  0  0  0  0  0  0  0  0  0  0  0
  -31.6437  -27.0894   20.2432 C   0  0  0  0  0  0  0  0  0  0  0  0
  -28.1648  -11.5602   19.4551 C   0  0  0  0  0  0  0  0  0  0  0  0
  -30.5092  -12.3509   19.9814 C   0  0  0  0  0  0  0  0  0  0  0  0
  -28.5932  -13.4964   21.0256 C   0  0  0  0  0  0  0  0  0  0  0  0
  -30.7845  -25.8956   20.6770 C   0  0  1  0  0  0  0  0  0  0  0  0
  -27.7209  -27.2161   22.4947 C   0  0  1  0  0  0  0  0  0  0  0  0
  -27.6243  -12.8999   19.9904 C   0  0  2  0  0  0  0  0  0  0  0  0
  -32.4109  -19.4465   22.3132 C   0  0  0  0  0  0  0  0  0  0  0  0
  -24.6022  -31.9515   27.7723 C   0  0  0  0  0  0  0  0  0  0  0  0
  -26.5453  -19.9982   27.2551 C   0  0  0  0  0  0  0  0  0  0  0  0
  -30.3431  -29.5611   25.4924 C   0  0  0  0  0  0  0  0  0  0  0  0
  -29.0959  -30.8291   27.2544 C   0  0  0  0  0  0  0  0  0  0  0  0
  -29.1293  -31.6673   24.9051 C   0  0  0  0  0  0  0  0  0  0  0  0
  -22.8093  -29.2070   25.8412 C   0  0  0  0  0  0  0  0  0  0  0  0
  -30.5133  -17.8546   19.3083 C   0  0  0  0  0  0  0  0  0  0  0  0
  -30.7211  -17.2481   20.7143 C   0  0  2  0  0  0  0  0  0  0  0  0
  -27.7620  -29.6171   25.4704 C   0  0  1  0  0  0  0  0  0  0  0  0
  -24.4123  -30.9435   26.6495 C   0  0  2  0  0  0  0  0  0  0  0  0
  -26.6664  -20.8698   26.0139 C   0  0  1  0  0  0  0  0  0  1  0  0
  -29.0753  -30.3919   25.7741 C   0  0  0  0  0  0  0  0  0  0  0  0
  -25.8616  -11.5955   21.1191 N   0  0  0  0  0  0  0  0  0  0  0  0
  -30.2831  -19.7700   23.4858 N   0  0  0  0  0  0  0  0  0  0  0  0
  -26.2180  -12.7557   20.5422 N   0  0  0  0  0  0  0  0  0  0  0  0
  -27.5893  -27.7548   23.8500 N   0  0  0  0  0  0  0  0  0  0  0  0
  -29.9404  -13.6181   20.4468 N   0  0  0  0  0  0  0  0  0  0  0  0
  -25.4152  -14.9139   19.9865 N   0  0  0  0  0  0  0  0  0  0  0  0
  -21.8683  -12.9676   21.9933 N   0  0  0  0  0  0  0  0  0  0  0  0
  -27.9907  -19.7303   24.3507 N   0  0  0  0  0  0  0  0  0  0  0  0
  -29.4607  -26.3382   21.0594 N   0  0  0  0  0  0  0  0  0  0  0  0
  -26.5458  -30.3888   25.7023 N   0  0  0  0  0  0  0  0  0  0  0  0
  -30.0767  -15.9554   20.7813 N   0  0  0  0  0  0  0  0  0  0  0  0
  -23.1337  -30.2147   26.8834 N   0  3  0  0  0  0  0  0  0  0  0  0
  -22.6099  -14.8807   20.9692 O   0  0  0  0  0  0  0  0  0  0  0  0
  -29.9332  -26.9187   23.2644 O   0  0  0  0  0  0  0  0  0  0  0  0
  -27.7228  -29.9666   23.1246 O   0  0  0  0  0  0  0  0  0  0  0  0
  -25.6120  -28.9334   27.2474 O   0  0  0  0  0  0  0  0  0  0  0  0
  -28.9873  -21.3959   25.6717 O   0  0  0  0  0  0  0  0  0  0  0  0
  -31.8263  -14.8187   19.8306 O   0  0  0  0  0  0  0  0  0  0  0  0
  -29.1320  -18.1101   19.0759 O   0  0  0  0  0  0  0  0  0  0  0  0
  -21.6846   -7.8013   24.0697 O   0  0  0  0  0  0  0  0  0  0  0  0
  -26.4841  -22.2375   26.3781 O   0  0  0  0  0  0  0  0  0  1  0  0
  -22.0205   -2.6843   22.0431 F   0  0  0  0  0  0  0  0  0  0  0  0
  -19.4273   -6.4785   23.1768 F   0  0  0  0  0  0  0  0  0  0  0  0
  -28.6705  -18.0776   22.3822 S   0  0  0  0  0  0  0  0  0  0  0  0
  1  2  1  0  0  0  0
  1  5  2  0  0  0  0
  2  6  2  0  0  0  0
  3  8  2  0  0  0  0
  3 15  1  0  0  0  0
  4  9  1  0  0  0  0
  4 15  2  0  0  0  0
  5 17  1  0  0  0  0
  6 19  1  0  0  0  0
  7 10  2  0  0  0  0
  7 18  1  0  0  0  0
  8 21  1  0  0  0  0
  9 21  2  0  0  0  0
 10 22  1  0  0  0  0
 11 12  2  0  0  0  0
 11 23  1  0  0  0  0
 12 24  1  0  0  0  0
 13 20  1  0  0  0  0
 13 22  2  0  0  0  0
 14 24  2  0  0  0  0
 14 25  1  0  0  0  0
 15 26  1  0  0  0  0
 16 26  1  0  0  0  0
 16 29  2  0  0  0  0
 16 31  1  0  0  0  0
 17 19  2  0  0  0  0
 17 37  1  0  0  0  0
 18 20  2  0  0  0  0
 18 38  1  0  0  0  0
 19 46  1  0  0  0  0
 20 39  1  0  0  0  0
 21 81  1  0  0  0  0
 22 82  1  0  0  0  0
 23 25  2  0  0  0  0
 23 81  1  0  0  0  0
 24 83  1  0  0  0  0
 25 84  1  0  0  0  0
 26 62  2  0  0  0  0
 27 28  2  0  0  0  0
 27 49  1  0  0  0  0
 27 63  1  0  0  0  0
 28 57  1  0  0  0  0
 28 85  1  0  0  0  0
 29 64  1  0  0  0  0
 29 67  1  0  0  0  0
 30 63  2  0  0  0  0
 30 69  1  0  0  0  0
 30 85  1  0  0  0  0
 31 68  1  0  0  0  0
 31 74  2  0  0  0  0
 32 47  1  0  0  0  0
 32 70  1  0  0  0  0
 32 75  2  0  0  0  0
 33 58  1  0  0  0  0
 33 65  1  0  0  0  0
 33 76  2  0  0  0  0
 34 59  1  0  0  0  0
 34 71  1  0  0  0  0
 34 77  2  0  0  0  0
 35 60  1  0  0  0  0
 35 69  1  0  0  0  0
 35 78  2  0  0  0  0
 36 66  1  0  0  0  0
 36 72  1  0  0  0  0
 36 79  2  0  0  0  0
 37 40  1  0  0  0  0
 38 47  1  0  0  0  0
 39 65  1  0  0  0  0
 40 42  1  0  0  0  0
 41 43  1  0  0  0  0
 41 44  1  0  0  0  0
 42 46  1  0  0  0  0
 43 48  1  0  0  0  0
 44 66  1  0  0  0  0
 45 48  1  0  0  0  0
 45 66  1  0  0  0  0
 46 70  1  0  0  0  0
 47 65  1  0  0  0  0
 48 64  1  0  0  0  0
 50 59  1  0  0  0  0
 51 60  1  0  0  0  0
 52 61  1  0  0  0  0
 53 61  1  0  0  0  0
 54 61  1  0  0  0  0
 55 73  1  0  0  0  0
 56 57  1  0  0  0  0
 56 80  1  0  0  0  0
 57 72  1  0  0  0  0
 58 61  1  0  0  0  0
 58 71  1  0  0  0  0
 59 73  1  0  0  0  0
 60 82  1  0  0  0  0
 62 64  1  0  0  0  0
M  CHG  1  73   1
M  ISO  4  36 100  60 101  72 100  82 101
M  END
> <Batch ID>
0184

> <Smiles>
CNC(C)C(=O)NC(C(=O)N1Cc2cc([101O:1][101CH:1](C)C(=O)Nc3nc(C)c(C(CO)[100NH:0][100C:0](=O)N4CCCC(n5nc(-c6ccc(Oc7ccc(F)cc7F)cc6)c(C(N)=O)c5N)C4)s3)ccc2CC1C(=O)NC1CCCc2ccccc21)C(C)(C)C

> <Shape>
0.276

> <Color>
0.146

> <Negative vol penalty>
0.000

$$$$

  -OEChem-04052305023D

 84 92  0     1  0  0  0  0  0999 V2000
  -28.8469  -36.8523   21.6463 C   0  0  0  0  0  0  0  0  0  0  0  0
  -29.1693  -35.5513   21.2736 C   0  0  0  0  0  0  0  0  0  0  0  0
  -24.7929   -9.0118   21.5983 C   0  0  0  0  0  0  0  0  0  0  0  0
  -23.2189  -10.5511   20.6031 C   0  0  0  0  0  0  0  0  0  0  0  0
  -27.8644  -37.0771   22.6097 C   0  0  0  0  0  0  0  0  0  0  0  0
  -28.5101  -34.4742   21.8649 C   0  0  0  0  0  0  0  0  0  0  0  0
  -27.0161  -29.1633   19.2064 C   0  0  0  0  0  0  0  0  0  0  0  0
  -23.7970   -8.5496   22.4585 C   0  0  0  0  0  0  0  0  0  0  0  0
  -22.2230  -10.0889   21.4634 C   0  0  0  0  0  0  0  0  0  0  0  0
  -27.6216  -27.9075   19.2141 C   0  0  0  0  0  0  0  0  0  0  0  0
  -21.5757   -6.7107   24.6720 C   0  0  0  0  0  0  0  0  0  0  0  0
  -21.4586   -5.3319   24.8471 C   0  0  0  0  0  0  0  0  0  0  0  0
  -26.1541  -27.2174   21.0000 C   0  0  0  0  0  0  0  0  0  0  0  0
  -21.0354   -5.0677   22.4832 C   0  0  0  0  0  0  0  0  0  0  0  0
  -24.5039  -10.0126   20.6706 C   0  0  0  0  0  0  0  0  0  0  0  0
  -25.8519   -9.9923   18.5049 C   0  0  0  0  0  0  0  0  0  0  0  0
  -27.1859  -36.0025   23.2060 C   0  0  0  0  0  0  0  0  0  0  0  0
  -25.9806  -29.4597   20.1044 C   0  0  0  0  0  0  0  0  0  0  0  0
  -27.5185  -34.6848   22.8381 C   0  0  0  0  0  0  0  0  0  0  0  0
  -25.5354  -28.4769   21.0000 C   0  0  0  0  0  0  0  0  0  0  0  0
  -22.5120   -9.0881   22.3911 C   0  0  0  0  0  0  0  0  0  0  0  0
  -27.1926  -26.9353   20.1129 C   0  0  0  0  0  0  0  0  0  0  0  0
  -21.4226   -7.2681   23.4025 C   0  0  0  0  0  0  0  0  0  0  0  0
  -21.1885   -4.5104   23.7527 C   0  0  0  0  0  0  0  0  0  0  0  0
  -21.1525   -6.4466   22.3081 C   0  0  0  0  0  0  0  0  0  0  0  0
  -25.5324  -10.4909   19.7820 C   0  0  0  0  0  0  0  0  0  0  0  0
  -25.5961  -19.4983   17.1649 C   0  0  0  0  0  0  0  0  0  0  0  0
  -26.8783  -19.8925   17.4853 C   0  0  0  0  0  0  0  0  0  0  0  0
  -26.8920  -10.7815   18.0785 C   0  0  0  0  0  0  0  0  0  0  0  0
  -26.9568  -17.8460   18.2698 C   0  0  0  0  0  0  0  0  0  0  0  0
  -25.2612   -8.9123   17.7697 C   0  0  0  0  0  0  0  0  0  0  0  0
  -25.5849  -31.5591   22.4580 C   0  0  0  0  0  0  0  0  0  0  0  0
  -28.2704  -23.7160   18.8341 C   0  0  0  0  0  0  0  0  0  0  0  0
  -22.5643  -30.3767   22.4805 C   0  0  0  0  0  0  0  0  0  0  0  0
  -20.4599  -27.7905   21.7525 C   0  0  0  0  0  0  0  0  0  0  0  0
  -28.6153  -16.3422   19.4250 C   0  0  0  0  0  0  0  0  0  0  0  0
  -26.1645  -36.2934   24.2769 C   0  0  0  0  0  0  0  0  0  0  0  0
  -25.3197  -30.8103   20.0653 C   0  0  0  0  0  0  0  0  0  0  0  0
  -24.4138  -28.7382   21.9707 C   0  0  0  0  0  0  0  0  0  0  0  0
  -25.2497  -35.1104   24.5835 C   0  0  0  0  0  0  0  0  0  0  0  0
  -30.5551  -13.3742   19.7499 C   0  0  0  0  0  0  0  0  0  0  0  0
  -26.0653  -33.8305   24.7366 C   0  0  0  0  0  0  0  0  0  0  0  0
  -29.5169  -12.2524   19.6727 C   0  0  0  0  0  0  0  0  0  0  0  0
  -30.0179  -14.5935   20.4973 C   0  0  0  0  0  0  0  0  0  0  0  0
  -27.6995  -13.9907   19.9222 C   0  0  0  0  0  0  0  0  0  0  0  0
  -26.8082  -33.4911   23.4387 C   0  0  1  0  0  0  0  0  0  0  0  0
  -24.6210  -31.1716   21.3724 C   0  0  1  0  0  0  0  0  0  0  0  0
  -28.1721  -12.7660   19.1220 C   0  0  2  0  0  0  0  0  0  0  0  0
  -24.5073  -20.2383   16.4942 C   0  0  0  0  0  0  0  0  0  0  0  0
  -18.0525  -27.1026   21.9210 C   0  0  0  0  0  0  0  0  0  0  0  0
  -29.7021  -20.9667   16.5263 C   0  0  0  0  0  0  0  0  0  0  0  0
  -22.9250  -29.8539   25.4649 C   0  0  0  0  0  0  0  0  0  0  0  0
  -20.9313  -28.3425   25.3701 C   0  0  0  0  0  0  0  0  0  0  0  0
  -20.6846  -30.7650   24.8287 C   0  0  0  0  0  0  0  0  0  0  0  0
  -20.2093  -27.5268   18.8154 C   0  0  0  0  0  0  0  0  0  0  0  0
  -28.8208  -23.0868   17.5610 C   0  0  0  0  0  0  0  0  0  0  0  0
  -28.3082  -25.2309   18.8854 C   0  0  0  0  0  0  0  0  0  1  0  0
  -21.8653  -29.2430   23.1912 C   0  0  1  0  0  0  0  0  0  0  0  0
  -19.1151  -27.7536   21.0493 C   0  0  2  0  0  0  0  0  0  0  0  0
  -28.7351  -21.5580   17.5473 C   0  0  1  0  0  0  0  0  0  0  0  0
  -21.6240  -29.5465   24.6968 C   0  0  0  0  0  0  0  0  0  0  0  0
  -26.3070  -11.5173   20.1434 N   0  0  0  0  0  0  0  0  0  0  0  0
  -27.6599  -18.9466   18.1194 N   0  0  0  0  0  0  0  0  0  0  0  0
  -27.1235  -11.6700   19.0870 N   0  0  0  0  0  0  0  0  0  0  0  0
  -23.8038  -30.0761   21.8981 N   0  0  0  0  0  0  0  0  0  0  0  0
  -28.7445  -15.0264   19.9177 N   0  0  0  0  0  0  0  0  0  0  0  0
  -27.6220  -10.7950   16.9430 N   0  0  0  0  0  0  0  0  0  0  0  0
  -24.2016   -8.2062   18.3553 N   0  0  0  0  0  0  0  0  0  0  0  0
  -27.3869  -21.1481   17.2085 N   0  0  0  0  0  0  0  0  0  0  0  0
  -27.3698  -16.6295   18.8676 N   0  0  0  0  0  0  0  0  0  0  0  0
  -25.9010  -32.9042   22.4759 N   0  0  0  0  0  0  0  0  0  0  0  0
  -20.6479  -28.9749   22.4331 N   0  0  0  0  0  0  0  0  0  0  0  0
  -19.2165  -26.9831   19.7777 N   0  3  0  0  0  0  0  0  0  0  0  0
  -25.6720   -8.5727   16.6342 O   0  0  0  0  0  0  0  0  0  0  0  0
  -26.0091  -30.7015   23.2237 O   0  0  0  0  0  0  0  0  0  0  0  0
  -27.8342  -23.0481   19.7702 O   0  0  0  0  0  0  0  0  0  0  0  0
  -22.0270  -31.4863   22.4373 O   0  0  0  0  0  0  0  0  0  0  0  0
  -21.2617  -26.8602   21.7061 O   0  0  0  0  0  0  0  0  0  0  0  0
  -29.5503  -17.1460   19.4680 O   0  0  0  0  0  0  0  0  0  0  0  0
  -21.5399   -8.6371   23.2302 O   0  0  0  0  0  0  0  0  0  0  0  0
  -27.7824  -25.7089   20.1229 O   0  0  0  0  0  0  0  0  0  1  0  0
  -21.0776   -3.1861   23.9207 F   0  0  0  0  0  0  0  0  0  0  0  0
  -21.0055   -6.9761   21.0859 F   0  0  0  0  0  0  0  0  0  0  0  0
  -25.3487  -17.8786   17.6716 S   0  0  0  0  0  0  0  0  0  0  0  0
  1  2  1  0  0  0  0
  1  5  2  0  0  0  0
  2  6  2  0  0  0  0
  3  8  2  0  0  0  0
  3 15  1  0  0  0  0
  4  9  1  0  0  0  0
  4 15  2  0  0  0  0
  5 17  1  0  0  0  0
  6 19  1  0  0  0  0
  7 10  2  0  0  0  0
  7 18  1  0  0  0  0
  8 21  1  0  0  0  0
  9 21  2  0  0  0  0
 10 22  1  0  0  0  0
 11 12  2  0  0  0  0
 11 23  1  0  0  0  0
 12 24  1  0  0  0  0
 13 20  1  0  0  0  0
 13 22  2  0  0  0  0
 14 24  2  0  0  0  0
 14 25  1  0  0  0  0
 15 26  1  0  0  0  0
 16 26  1  0  0  0  0
 16 29  2  0  0  0  0
 16 31  1  0  0  0  0
 17 19  2  0  0  0  0
 17 37  1  0  0  0  0
 18 20  2  0  0  0  0
 18 38  1  0  0  0  0
 19 46  1  0  0  0  0
 20 39  1  0  0  0  0
 21 80  1  0  0  0  0
 22 81  1  0  0  0  0
 23 25  2  0  0  0  0
 23 80  1  0  0  0  0
 24 82  1  0  0  0  0
 25 83  1  0  0  0  0
 26 62  2  0  0  0  0
 27 28  2  0  0  0  0
 27 49  1  0  0  0  0
 27 84  1  0  0  0  0
 28 63  1  0  0  0  0
 28 69  1  0  0  0  0
 29 64  1  0  0  0  0
 29 67  1  0  0  0  0
 30 63  2  0  0  0  0
 30 70  1  0  0  0  0
 30 84  1  0  0  0  0
 31 68  1  0  0  0  0
 31 74  2  0  0  0  0
 32 47  1  0  0  0  0
 32 71  1  0  0  0  0
 32 75  2  0  0  0  0
 33 56  1  0  0  0  0
 33 57  1  0  0  0  0
 33 76  2  0  0  0  0
 34 58  1  0  0  0  0
 34 65  1  0  0  0  0
 34 77  2  0  0  0  0
 35 59  1  0  0  0  0
 35 72  1  0  0  0  0
 35 78  2  0  0  0  0
 36 66  1  0  0  0  0
 36 70  1  0  0  0  0
 36 79  2  0  0  0  0
 37 40  1  0  0  0  0
 38 47  1  0  0  0  0
 39 65  1  0  0  0  0
 40 42  1  0  0  0  0
 41 43  1  0  0  0  0
 41 44  1  0  0  0  0
 42 46  1  0  0  0  0
 43 48  1  0  0  0  0
 44 66  1  0  0  0  0
 45 48  1  0  0  0  0
 45 66  1  0  0  0  0
 46 71  1  0  0  0  0
 47 65  1  0  0  0  0
 48 64  1  0  0  0  0
 50 59  1  0  0  0  0
 51 60  1  0  0  0  0
 52 61  1  0  0  0  0
 53 61  1  0  0  0  0
 54 61  1  0  0  0  0
 55 73  1  0  0  0  0
 56 60  1  0  0  0  0
 57 81  1  0  0  0  0
 58 61  1  0  0  0  0
 58 72  1  0  0  0  0
 59 73  1  0  0  0  0
 60 69  1  0  0  0  0
 62 64  1  0  0  0  0
M  CHG  1  73   1
M  ISO  4  36 100  57 101  70 100  81 101
M  END
> <Batch ID>
0184

> <Smiles>
CNC(C)C(=O)NC(C(=O)N1Cc2cc([101O:1][101CH2:1]C(=O)CC(C)Nc3nc([100NH:0][100C:0](=O)N4CCCC(n5nc(-c6ccc(Oc7ccc(F)cc7F)cc6)c(C(N)=O)c5N)C4)sc3C)ccc2CC1C(=O)NC1CCCc2ccccc21)C(C)(C)C

> <Shape>
0.315

> <Color>
0.100

> <Negative vol penalty>
0.000

$$$$

  -OEChem-04052305023D

 84 92  0     1  0  0  0  0  0999 V2000
  -16.4250  -16.7849   30.9155 C   0  0  0  0  0  0  0  0  0  0  0  0
  -17.4797  -17.5669   30.4557 C   0  0  0  0  0  0  0  0  0  0  0  0
  -23.1981   -9.8533   19.9553 C   0  0  0  0  0  0  0  0  0  0  0  0
  -23.9055   -9.9360   22.2640 C   0  0  0  0  0  0  0  0  0  0  0  0
  -16.6848  -15.5856   31.5773 C   0  0  0  0  0  0  0  0  0  0  0  0
  -18.7950  -17.1505   30.6584 C   0  0  0  0  0  0  0  0  0  0  0  0
  -23.5503  -18.0112   26.8965 C   0  0  0  0  0  0  0  0  0  0  0  0
  -22.5049   -8.6700   20.2101 C   0  0  0  0  0  0  0  0  0  0  0  0
  -23.2123   -8.7527   22.5187 C   0  0  0  0  0  0  0  0  0  0  0  0
  -24.5785  -18.9526   26.8847 C   0  0  0  0  0  0  0  0  0  0  0  0
  -19.5666   -7.7569   21.6120 C   0  0  0  0  0  0  0  0  0  0  0  0
  -18.2746   -7.6393   21.0998 C   0  0  0  0  0  0  0  0  0  0  0  0
  -26.0102  -17.3946   28.0431 C   0  0  0  0  0  0  0  0  0  0  0  0
  -18.9560   -5.7033   19.8251 C   0  0  0  0  0  0  0  0  0  0  0  0
  -23.8984  -10.4863   20.9823 C   0  0  0  0  0  0  0  0  0  0  0  0
  -24.1216  -13.0226   20.8240 C   0  0  0  0  0  0  0  0  0  0  0  0
  -18.0037  -15.1495   31.7797 C   0  0  0  0  0  0  0  0  0  0  0  0
  -23.7411  -16.7562   27.4924 C   0  0  0  0  0  0  0  0  0  0  0  0
  -19.0727  -15.9448   31.3247 C   0  0  0  0  0  0  0  0  0  0  0  0
  -24.9837  -16.4380   28.0589 C   0  0  0  0  0  0  0  0  0  0  0  0
  -22.5120   -8.1197   21.4918 C   0  0  0  0  0  0  0  0  0  0  0  0
  -25.8078  -18.6455   27.4606 C   0  0  0  0  0  0  0  0  0  0  0  0
  -20.5534   -6.8476   21.2307 C   0  0  0  0  0  0  0  0  0  0  0  0
  -17.9692   -6.6126   20.2063 C   0  0  0  0  0  0  0  0  0  0  0  0
  -20.2481   -5.8209   20.3373 C   0  0  0  0  0  0  0  0  0  0  0  0
  -24.6152  -11.7083   20.7196 C   0  0  0  0  0  0  0  0  0  0  0  0
  -30.6878  -15.8660   24.2371 C   0  0  0  0  0  0  0  0  0  0  0  0
  -25.1844  -13.8176   20.4707 C   0  0  0  0  0  0  0  0  0  0  0  0
  -30.4415  -15.1212   25.3714 C   0  0  0  0  0  0  0  0  0  0  0  0
  -29.6755  -17.4043   25.4283 C   0  0  0  0  0  0  0  0  0  0  0  0
  -22.8188  -13.4835   21.2062 C   0  0  0  0  0  0  0  0  0  0  0  0
  -22.4114  -15.2032   29.9263 C   0  0  0  0  0  0  0  0  0  0  0  0
  -24.2926  -12.7703   28.8946 C   0  0  0  0  0  0  0  0  0  0  0  0
  -28.9894  -19.8159   25.1951 C   0  0  0  0  0  0  0  0  0  0  0  0
  -27.0876  -11.7866   27.2013 C   0  0  0  0  0  0  0  0  0  0  0  0
  -30.9475  -14.0544   20.9658 C   0  0  0  0  0  0  0  0  0  0  0  0
  -18.2360  -13.8691   32.5422 C   0  0  0  0  0  0  0  0  0  0  0  0
  -22.6306  -15.7419   27.4732 C   0  0  0  0  0  0  0  0  0  0  0  0
  -25.2460  -15.0975   28.6933 C   0  0  0  0  0  0  0  0  0  0  0  0
  -19.6498  -13.3151   32.3859 C   0  0  0  0  0  0  0  0  0  0  0  0
  -29.3608  -13.1197   17.9186 C   0  0  0  0  0  0  0  0  0  0  0  0
  -20.6810  -14.4242   32.5684 C   0  0  0  0  0  0  0  0  0  0  0  0
  -27.9294  -12.7826   18.3400 C   0  0  0  0  0  0  0  0  0  0  0  0
  -30.3758  -12.6931   18.9767 C   0  0  0  0  0  0  0  0  0  0  0  0
  -28.6783  -12.8702   20.7546 C   0  0  0  0  0  0  0  0  0  0  0  0
  -20.5125  -15.5147   31.5036 C   0  0  1  0  0  0  0  0  0  0  0  0
  -22.7694  -14.6832   28.5628 C   0  0  1  0  0  0  0  0  0  0  0  0
  -27.6142  -13.3320   19.7443 C   0  0  2  0  0  0  0  0  0  0  0  0
  -28.3825   -9.7348   26.5605 C   0  0  0  0  0  0  0  0  0  0  0  0
  -25.3803  -12.5716   31.7384 C   0  0  0  0  0  0  0  0  0  0  0  0
  -27.2835  -11.2147   30.8411 C   0  0  0  0  0  0  0  0  0  0  0  0
  -24.9452  -10.3715   30.6318 C   0  0  0  0  0  0  0  0  0  0  0  0
  -26.7218  -12.3166   24.3127 C   0  0  0  0  0  0  0  0  0  0  0  0
  -31.3678  -15.3939   23.0123 C   0  0  0  0  0  0  0  0  0  0  0  0
  -26.8436  -20.4814   26.3593 C   0  0  0  0  0  0  0  0  0  1  0  0
  -25.6986  -12.3068   29.1899 C   0  0  1  0  0  0  0  0  0  0  0  0
  -28.2818  -20.8721   26.0357 C   0  0  2  0  0  0  0  0  0  0  0  0
  -27.3008  -10.7190   26.1433 C   0  0  2  0  0  0  0  0  0  0  0  0
  -25.8217  -11.6422   30.5901 C   0  0  0  0  0  0  0  0  0  0  0  0
  -25.8922  -11.6665   20.3303 N   0  0  0  0  0  0  0  0  0  0  0  0
  -30.2489  -17.1753   24.2677 N   0  0  0  0  0  0  0  0  0  0  0  0
  -26.2100  -12.9644   20.1869 N   0  0  0  0  0  0  0  0  0  0  0  0
  -24.1268  -14.1418   28.6551 N   0  0  0  0  0  0  0  0  0  0  0  0
  -30.0203  -13.2485   20.2848 N   0  0  0  0  0  0  0  0  0  0  0  0
  -25.3324  -15.1562   20.3782 N   0  0  0  0  0  0  0  0  0  0  0  0
  -30.7607  -13.8252   25.6062 N   0  0  0  0  0  0  0  0  0  0  0  0
  -21.8443  -12.5324   21.5381 N   0  0  0  0  0  0  0  0  0  0  0  0
  -29.0879  -18.6093   25.8813 N   0  0  0  0  0  0  0  0  0  0  0  0
  -21.0718  -15.0797   30.2417 N   0  0  0  0  0  0  0  0  0  0  0  0
  -26.0841  -11.4403   28.0813 N   0  0  0  0  0  0  0  0  0  0  0  0
  -30.5282  -14.5455   22.1961 N   0  0  0  0  0  0  0  0  0  0  0  0
  -28.2765  -22.1842   25.3265 N   0  3  0  0  0  0  0  0  0  0  0  0
  -27.7059  -11.3431   24.8520 N   0  3  0  0  0  0  0  0  0  0  0  0
  -22.5227  -14.7021   21.2362 O   0  0  0  0  0  0  0  0  0  0  0  0
  -23.2862  -15.6798   30.6400 O   0  0  0  0  0  0  0  0  0  0  0  0
  -23.3763  -11.9448   28.8699 O   0  0  0  0  0  0  0  0  0  0  0  0
  -29.3956  -20.0623   24.0632 O   0  0  0  0  0  0  0  0  0  0  0  0
  -27.7478  -12.8223   27.2451 O   0  0  0  0  0  0  0  0  0  0  0  0
  -32.0641  -14.3213   20.5086 O   0  0  0  0  0  0  0  0  0  0  0  0
  -21.8355   -6.9652   21.7408 O   0  0  0  0  0  0  0  0  0  0  0  0
  -26.8129  -19.5628   27.4510 O   0  0  0  0  0  0  0  0  0  1  0  0
  -16.7280   -6.4989   19.7157 F   0  0  0  0  0  0  0  0  0  0  0  0
  -21.1915   -4.9437   19.9683 F   0  0  0  0  0  0  0  0  0  0  0  0
  -29.6296  -16.0899   26.5306 S   0  0  0  0  0  0  0  0  0  0  0  0
  1  2  1  0  0  0  0
  1  5  2  0  0  0  0
  2  6  2  0  0  0  0
  3  8  2  0  0  0  0
  3 15  1  0  0  0  0
  4  9  1  0  0  0  0
  4 15  2  0  0  0  0
  5 17  1  0  0  0  0
  6 19  1  0  0  0  0
  7 10  2  0  0  0  0
  7 18  1  0  0  0  0
  8 21  1  0  0  0  0
  9 21  2  0  0  0  0
 10 22  1  0  0  0  0
 11 12  2  0  0  0  0
 11 23  1  0  0  0  0
 12 24  1  0  0  0  0
 13 20  1  0  0  0  0
 13 22  2  0  0  0  0
 14 24  2  0  0  0  0
 14 25  1  0  0  0  0
 15 26  1  0  0  0  0
 16 26  1  0  0  0  0
 16 28  2  0  0  0  0
 16 31  1  0  0  0  0
 17 19  2  0  0  0  0
 17 37  1  0  0  0  0
 18 20  2  0  0  0  0
 18 38  1  0  0  0  0
 19 46  1  0  0  0  0
 20 39  1  0  0  0  0
 21 80  1  0  0  0  0
 22 81  1  0  0  0  0
 23 25  2  0  0  0  0
 23 80  1  0  0  0  0
 24 82  1  0  0  0  0
 25 83  1  0  0  0  0
 26 60  2  0  0  0  0
 27 29  2  0  0  0  0
 27 54  1  0  0  0  0
 27 61  1  0  0  0  0
 28 62  1  0  0  0  0
 28 65  1  0  0  0  0
 29 66  1  0  0  0  0
 29 84  1  0  0  0  0
 30 61  2  0  0  0  0
 30 68  1  0  0  0  0
 30 84  1  0  0  0  0
 31 67  1  0  0  0  0
 31 74  2  0  0  0  0
 32 47  1  0  0  0  0
 32 69  1  0  0  0  0
 32 75  2  0  0  0  0
 33 56  1  0  0  0  0
 33 63  1  0  0  0  0
 33 76  2  0  0  0  0
 34 57  1  0  0  0  0
 34 68  1  0  0  0  0
 34 77  2  0  0  0  0
 35 58  1  0  0  0  0
 35 70  1  0  0  0  0
 35 78  2  0  0  0  0
 36 64  1  0  0  0  0
 36 71  1  0  0  0  0
 36 79  2  0  0  0  0
 37 40  1  0  0  0  0
 38 47  1  0  0  0  0
 39 63  1  0  0  0  0
 40 42  1  0  0  0  0
 41 43  1  0  0  0  0
 41 44  1  0  0  0  0
 42 46  1  0  0  0  0
 43 48  1  0  0  0  0
 44 64  1  0  0  0  0
 45 48  1  0  0  0  0
 45 64  1  0  0  0  0
 46 69  1  0  0  0  0
 47 63  1  0  0  0  0
 48 62  1  0  0  0  0
 49 58  1  0  0  0  0
 50 59  1  0  0  0  0
 51 59  1  0  0  0  0
 52 59  1  0  0  0  0
 53 73  1  0  0  0  0
 54 71  1  0  0  0  0
 55 57  1  0  0  0  0
 55 81  1  0  0  0  0
 56 59  1  0  0  0  0
 56 70  1  0  0  0  0
 57 72  1  0  0  0  0
 58 73  1  0  0  0  0
 60 62  1  0  0  0  0
M  CHG  2  72   1  73   1
M  ISO  4  36 100  55 101  71 100  81 101
M  END
> <Batch ID>
0184

> <Smiles>
CNC(C)C(=O)NC(C(=O)N1Cc2cc([101O:1][101CH2:1]C(N)C(=O)Nc3nc(C[100NH:0][100C:0](=O)N4CCCC(n5nc(-c6ccc(Oc7ccc(F)cc7F)cc6)c(C(N)=O)c5N)C4)c(N)s3)ccc2CC1C(=O)NC1CCCc2ccccc21)C(C)(C)C

> <Shape>
0.135

> <Color>
0.167

> <Negative vol penalty>
0.000

$$$$

  -OEChem-04052305023D

 84 92  0     1  0  0  0  0  0999 V2000
  -25.7732  -34.3732   27.5843 C   0  0  0  0  0  0  0  0  0  0  0  0
  -26.5246  -33.5124   26.7908 C   0  0  0  0  0  0  0  0  0  0  0  0
  -22.3359  -10.0663   22.4395 C   0  0  0  0  0  0  0  0  0  0  0  0
  -24.2749   -9.7182   21.0409 C   0  0  0  0  0  0  0  0  0  0  0  0
  -24.4011  -34.1700   27.7256 C   0  0  0  0  0  0  0  0  0  0  0  0
  -25.9044  -32.4471   26.1389 C   0  0  0  0  0  0  0  0  0  0  0  0
  -27.3460  -30.1490   20.6483 C   0  0  0  0  0  0  0  0  0  0  0  0
  -21.9323   -8.7515   22.2073 C   0  0  0  0  0  0  0  0  0  0  0  0
  -23.8714   -8.4033   20.8088 C   0  0  0  0  0  0  0  0  0  0  0  0
  -28.1040  -29.0439   20.2636 C   0  0  0  0  0  0  0  0  0  0  0  0
  -22.7409   -5.6638   23.3232 C   0  0  0  0  0  0  0  0  0  0  0  0
  -22.3101   -4.9150   24.4183 C   0  0  0  0  0  0  0  0  0  0  0  0
  -26.0878  -27.7320   20.0813 C   0  0  0  0  0  0  0  0  0  0  0  0
  -20.1518   -4.6261   23.3716 C   0  0  0  0  0  0  0  0  0  0  0  0
  -23.5072  -10.5497   21.8562 C   0  0  0  0  0  0  0  0  0  0  0  0
  -24.7557  -12.3720   23.1321 C   0  0  0  0  0  0  0  0  0  0  0  0
  -23.7622  -33.1074   27.0674 C   0  0  0  0  0  0  0  0  0  0  0  0
  -25.9519  -30.0507   20.7631 C   0  0  0  0  0  0  0  0  0  0  0  0
  -24.5227  -32.2286   26.2726 C   0  0  0  0  0  0  0  0  0  0  0  0
  -25.3142  -28.8380   20.4651 C   0  0  0  0  0  0  0  0  0  0  0  0
  -22.7001   -7.9199   21.3920 C   0  0  0  0  0  0  0  0  0  0  0  0
  -27.4752  -27.8344   19.9828 C   0  0  0  0  0  0  0  0  0  0  0  0
  -21.8772   -5.8938   22.2523 C   0  0  0  0  0  0  0  0  0  0  0  0
  -21.0155   -4.3962   24.4425 C   0  0  0  0  0  0  0  0  0  0  0  0
  -20.5827   -5.3750   22.2765 C   0  0  0  0  0  0  0  0  0  0  0  0
  -23.9242  -11.9080   22.0952 C   0  0  0  0  0  0  0  0  0  0  0  0
  -28.9993  -20.6415   20.4702 C   0  0  0  0  0  0  0  0  0  0  0  0
  -24.8465  -13.7259   22.9196 C   0  0  0  0  0  0  0  0  0  0  0  0
  -29.8273  -19.8163   21.2020 C   0  0  0  0  0  0  0  0  0  0  0  0
  -27.7618  -18.8309   20.4501 C   0  0  0  0  0  0  0  0  0  0  0  0
  -25.3893  -11.6443   24.1926 C   0  0  0  0  0  0  0  0  0  0  0  0
  -29.2927  -22.0419   20.1324 C   0  0  0  0  0  0  0  0  0  0  0  0
  -28.5104  -23.0734   20.5117 C   0  0  0  0  0  0  0  0  0  0  0  0
  -28.8472  -24.4862   20.1396 C   0  0  0  0  0  0  0  0  0  0  0  0
  -23.8682  -30.3801   23.1409 C   0  0  0  0  0  0  0  0  0  0  0  0
  -21.6907  -30.0256   20.7628 C   0  0  0  0  0  0  0  0  0  0  0  0
  -20.9733  -28.8382   17.6448 C   0  0  0  0  0  0  0  0  0  0  0  0
  -25.5374  -18.0887   19.5295 C   0  0  0  0  0  0  0  0  0  0  0  0
  -22.2847  -32.8998   27.2883 C   0  0  0  0  0  0  0  0  0  0  0  0
  -25.1460  -31.2593   21.1534 C   0  0  0  0  0  0  0  0  0  0  0  0
  -23.8184  -28.6859   20.5537 C   0  0  0  0  0  0  0  0  0  0  0  0
  -21.6405  -31.9694   26.2638 C   0  0  0  0  0  0  0  0  0  0  0  0
  -22.2484  -16.7527   19.8034 C   0  0  0  0  0  0  0  0  0  0  0  0
  -22.4918  -30.7188   26.0688 C   0  0  0  0  0  0  0  0  0  0  0  0
  -22.4596  -15.4113   20.5094 C   0  0  0  0  0  0  0  0  0  0  0  0
  -23.3833  -17.0661   18.8300 C   0  0  0  0  0  0  0  0  0  0  0  0
  -24.9435  -15.6548   20.1119 C   0  0  0  0  0  0  0  0  0  0  0  0
  -23.8821  -31.0764   25.5296 C   0  0  1  0  0  0  0  0  0  0  0  0
  -23.7812  -30.9049   21.7357 C   0  0  1  0  0  0  0  0  0  0  0  0
  -23.8587  -15.3260   21.1505 C   0  0  2  0  0  0  0  0  0  0  0  0
  -19.0984  -28.6660   15.9857 C   0  0  0  0  0  0  0  0  0  0  0  0
  -20.4414  -27.7824   22.4111 C   0  0  0  0  0  0  0  0  0  0  0  0
  -19.2256  -27.0408   20.3520 C   0  0  0  0  0  0  0  0  0  0  0  0
  -18.7949  -29.3056   21.3050 C   0  0  0  0  0  0  0  0  0  0  0  0
  -22.4578  -30.4162   15.6286 C   0  0  0  0  0  0  0  0  0  0  0  0
  -27.7038  -25.4673   19.9567 C   0  0  0  0  0  0  0  0  0  1  0  0
  -20.9849  -28.8532   20.1255 C   0  0  1  0  0  0  0  0  0  0  0  0
  -20.2915  -29.4853   16.4528 C   0  0  2  0  0  0  0  0  0  0  0  0
  -19.8901  -28.2475   21.0485 C   0  0  0  0  0  0  0  0  0  0  0  0
  -23.5159  -12.8876   21.2843 N   0  0  0  0  0  0  0  0  0  0  0  0
  -27.8146  -20.0781   20.0379 N   0  0  0  0  0  0  0  0  0  0  0  0
  -24.0930  -13.9807   21.8116 N   0  0  0  0  0  0  0  0  0  0  0  0
  -23.0747  -29.8946   20.9455 N   0  0  0  0  0  0  0  0  0  0  0  0
  -24.6777  -16.9700   19.5083 N   0  0  0  0  0  0  0  0  0  0  0  0
  -25.4965  -14.7115   23.5743 N   0  0  0  0  0  0  0  0  0  0  0  0
  -25.1908  -10.2587   24.2637 N   0  0  0  0  0  0  0  0  0  0  0  0
  -26.7257  -17.8894   20.2316 N   0  0  0  0  0  0  0  0  0  0  0  0
  -23.8164  -31.3615   24.1122 N   0  0  0  0  0  0  0  0  0  0  0  0
  -20.4867  -29.3269   18.8388 N   0  0  0  0  0  0  0  0  0  0  0  0
  -21.2470  -29.6139   15.3164 N   0  3  0  0  0  0  0  0  0  0  0  0
  -26.0968  -12.2085   25.0613 O   0  0  0  0  0  0  0  0  0  0  0  0
  -30.0191  -24.8368   20.0031 O   0  0  0  0  0  0  0  0  0  0  0  0
  -23.9731  -29.1739   23.3299 O   0  0  0  0  0  0  0  0  0  0  0  0
  -21.0393  -31.0240   21.0801 O   0  0  0  0  0  0  0  0  0  0  0  0
  -21.8473  -27.9820   17.5284 O   0  0  0  0  0  0  0  0  0  0  0  0
  -25.2293  -19.1542   18.9895 O   0  0  0  0  0  0  0  0  0  0  0  0
  -30.4627  -22.1663   19.4113 O   0  0  0  0  0  0  0  0  0  0  0  0
  -22.3067   -6.6368   21.1654 O   0  0  0  0  0  0  0  0  0  0  0  0
  -28.2128  -26.7540   19.6078 O   0  0  0  0  0  0  0  0  0  1  0  0
  -20.6024   -3.6758   25.4935 F   0  0  0  0  0  0  0  0  0  0  0  0
  -19.7488   -5.5916   21.2501 F   0  0  0  0  0  0  0  0  0  0  0  0
  -31.0137  -20.1582   21.7124 F   0  0  0  0  0  0  0  0  0  0  0  0
  -29.1024  -18.2704   21.3630 S   0  0  0  0  0  0  0  0  0  0  0  0
  -27.0809  -22.8519   21.4676 Cl  0  0  0  0  0  0  0  0  0  0  0  0
  1  2  1  0  0  0  0
  1  5  2  0  0  0  0
  2  6  2  0  0  0  0
  3  8  2  0  0  0  0
  3 15  1  0  0  0  0
  4  9  1  0  0  0  0
  4 15  2  0  0  0  0
  5 17  1  0  0  0  0
  6 19  1  0  0  0  0
  7 10  2  0  0  0  0
  7 18  1  0  0  0  0
  8 21  1  0  0  0  0
  9 21  2  0  0  0  0
 10 22  1  0  0  0  0
 11 12  2  0  0  0  0
 11 23  1  0  0  0  0
 12 24  1  0  0  0  0
 13 20  1  0  0  0  0
 13 22  2  0  0  0  0
 14 24  2  0  0  0  0
 14 25  1  0  0  0  0
 15 26  1  0  0  0  0
 16 26  1  0  0  0  0
 16 28  2  0  0  0  0
 16 31  1  0  0  0  0
 17 19  2  0  0  0  0
 17 39  1  0  0  0  0
 18 20  2  0  0  0  0
 18 40  1  0  0  0  0
 19 48  1  0  0  0  0
 20 41  1  0  0  0  0
 21 78  1  0  0  0  0
 22 79  1  0  0  0  0
 23 25  2  0  0  0  0
 23 78  1  0  0  0  0
 24 80  1  0  0  0  0
 25 81  1  0  0  0  0
 26 60  2  0  0  0  0
 27 29  2  0  0  0  0
 27 32  1  0  0  0  0
 27 61  1  0  0  0  0
 28 62  1  0  0  0  0
 28 65  1  0  0  0  0
 29 82  1  0  0  0  0
 29 83  1  0  0  0  0
 30 61  2  0  0  0  0
 30 67  1  0  0  0  0
 30 83  1  0  0  0  0
 31 66  1  0  0  0  0
 31 71  2  0  0  0  0
 32 33  2  0  0  0  0
 32 77  1  0  0  0  0
 33 34  1  0  0  0  0
 33 84  1  0  0  0  0
 34 56  1  0  0  0  0
 34 72  2  0  0  0  0
 35 49  1  0  0  0  0
 35 68  1  0  0  0  0
 35 73  2  0  0  0  0
 36 57  1  0  0  0  0
 36 63  1  0  0  0  0
 36 74  2  0  0  0  0
 37 58  1  0  0  0  0
 37 69  1  0  0  0  0
 37 75  2  0  0  0  0
 38 64  1  0  0  0  0
 38 67  1  0  0  0  0
 38 76  2  0  0  0  0
 39 42  1  0  0  0  0
 40 49  1  0  0  0  0
 41 63  1  0  0  0  0
 42 44  1  0  0  0  0
 43 45  1  0  0  0  0
 43 46  1  0  0  0  0
 44 48  1  0  0  0  0
 45 50  1  0  0  0  0
 46 64  1  0  0  0  0
 47 50  1  0  0  0  0
 47 64  1  0  0  0  0
 48 68  1  0  0  0  0
 49 63  1  0  0  0  0
 50 62  1  0  0  0  0
 51 58  1  0  0  0  0
 52 59  1  0  0  0  0
 53 59  1  0  0  0  0
 54 59  1  0  0  0  0
 55 70  1  0  0  0  0
 56 79  1  0  0  0  0
 57 59  1  0  0  0  0
 57 69  1  0  0  0  0
 58 70  1  0  0  0  0
 60 62  1  0  0  0  0
M  CHG  1  70   1
M  ISO  4  38 100  56 101  67 100  79 101
M  END
> <Batch ID>
0184

> <Smiles>
CNC(C)C(=O)NC(C(=O)N1Cc2cc([101O:1][101CH2:1]C(=O)C(Cl)C(=O)c3nc([100NH:0][100C:0](=O)N4CCCC(n5nc(-c6ccc(Oc7ccc(F)cc7F)cc6)c(C(N)=O)c5N)C4)sc3F)ccc2CC1C(=O)NC1CCCc2ccccc21)C(C)(C)C

> <Shape>
0.267

> <Color>
0.107

> <Negative vol penalty>
0.000

$$$$

  -OEChem-04052305023D

 83 91  0     1  0  0  0  0  0999 V2000
  -18.5693  -25.1785   20.0488 C   0  0  0  0  0  0  0  0  0  0  0  0
  -19.8176  -25.5875   19.5908 C   0  0  0  0  0  0  0  0  0  0  0  0
  -24.9061  -13.4782   22.1486 C   0  0  0  0  0  0  0  0  0  0  0  0
  -26.3123  -13.6274   20.1897 C   0  0  0  0  0  0  0  0  0  0  0  0
  -18.0617  -25.6949   21.2403 C   0  0  0  0  0  0  0  0  0  0  0  0
  -20.5586  -26.5141   20.3234 C   0  0  0  0  0  0  0  0  0  0  0  0
  -25.4325  -25.2058   20.7459 C   0  0  0  0  0  0  0  0  0  0  0  0
  -24.1518  -12.4805   21.5312 C   0  0  0  0  0  0  0  0  0  0  0  0
  -25.5580  -12.6297   19.5722 C   0  0  0  0  0  0  0  0  0  0  0  0
  -26.2514  -25.4353   19.6411 C   0  0  0  0  0  0  0  0  0  0  0  0
  -24.4272   -9.1656   20.9238 C   0  0  0  0  0  0  0  0  0  0  0  0
  -24.1006   -8.0392   21.6787 C   0  0  0  0  0  0  0  0  0  0  0  0
  -27.0835  -27.4455   20.6830 C   0  0  0  0  0  0  0  0  0  0  0  0
  -21.7518   -8.5110   21.3663 C   0  0  0  0  0  0  0  0  0  0  0  0
  -25.9863  -14.0517   21.4778 C   0  0  0  0  0  0  0  0  0  0  0  0
  -27.9068  -14.9103   22.9208 C   0  0  0  0  0  0  0  0  0  0  0  0
  -18.8010  -26.6210   21.9929 C   0  0  0  0  0  0  0  0  0  0  0  0
  -25.4249  -26.1018   21.8246 C   0  0  0  0  0  0  0  0  0  0  0  0
  -20.0599  -27.0444   21.5254 C   0  0  0  0  0  0  0  0  0  0  0  0
  -26.2655  -27.2238   21.8014 C   0  0  0  0  0  0  0  0  0  0  0  0
  -24.4778  -12.0562   20.2430 C   0  0  0  0  0  0  0  0  0  0  0  0
  -27.0750  -26.5568   19.6083 C   0  0  0  0  0  0  0  0  0  0  0  0
  -23.4162   -9.9649   20.3902 C   0  0  0  0  0  0  0  0  0  0  0  0
  -22.7629   -7.7118   21.8999 C   0  0  0  0  0  0  0  0  0  0  0  0
  -22.0785   -9.6375   20.6114 C   0  0  0  0  0  0  0  0  0  0  0  0
  -26.7655  -15.0828   22.1149 C   0  0  0  0  0  0  0  0  0  0  0  0
  -30.0144  -23.1072   17.5844 C   0  0  0  0  0  0  0  0  0  0  0  0
  -28.2707  -16.1856   23.2782 C   0  0  0  0  0  0  0  0  0  0  0  0
  -30.4678  -21.9746   16.9411 C   0  0  0  0  0  0  0  0  0  0  0  0
  -28.9735  -21.6024   18.7934 C   0  0  0  0  0  0  0  0  0  0  0  0
  -28.5780  -13.7051   23.3114 C   0  0  0  0  0  0  0  0  0  0  0  0
  -23.2345  -27.9675   23.1754 C   0  0  0  0  0  0  0  0  0  0  0  0
  -25.5885  -28.5007   25.3426 C   0  0  0  0  0  0  0  0  0  0  0  0
  -28.9283  -28.5322   26.0435 C   0  0  0  0  0  0  0  0  0  0  0  0
  -27.4023  -21.5351   20.7615 C   0  0  0  0  0  0  0  0  0  0  0  0
  -18.1904  -27.1871   23.2504 C   0  0  0  0  0  0  0  0  0  0  0  0
  -24.5555  -25.8259   23.0206 C   0  0  0  0  0  0  0  0  0  0  0  0
  -26.3095  -28.2055   22.9429 C   0  0  0  0  0  0  0  0  0  0  0  0
  -19.2012  -27.8818   24.1591 C   0  0  0  0  0  0  0  0  0  0  0  0
  -26.4168  -20.5360   24.0337 C   0  0  0  0  0  0  0  0  0  0  0  0
  -20.0976  -28.8118   23.3476 C   0  0  0  0  0  0  0  0  0  0  0  0
  -26.5041  -19.0088   23.9882 C   0  0  0  0  0  0  0  0  0  0  0  0
  -25.9192  -21.1153   22.7107 C   0  0  0  0  0  0  0  0  0  0  0  0
  -26.7514  -19.1519   21.4772 C   0  0  0  0  0  0  0  0  0  0  0  0
  -20.9045  -28.0290   22.3047 C   0  0  1  0  0  0  0  0  0  0  0  0
  -24.2479  -27.0773   23.8372 C   0  0  1  0  0  0  0  0  0  0  0  0
  -27.3098  -18.5266   22.7659 C   0  0  2  0  0  0  0  0  0  0  0  0
  -30.5491  -29.0482   27.8886 C   0  0  0  0  0  0  0  0  0  0  0  0
  -27.7717  -25.6917   16.4027 C   0  0  0  0  0  0  0  0  0  0  0  0
  -25.1899  -31.4862   24.8545 C   0  0  0  0  0  0  0  0  0  0  0  0
  -27.4026  -31.8904   25.9539 C   0  0  0  0  0  0  0  0  0  0  0  0
  -25.5379  -30.8581   27.2500 C   0  0  0  0  0  0  0  0  0  0  0  0
  -30.5149  -26.7972   17.1934 C   0  0  0  0  0  0  0  0  0  0  0  0
  -30.3784  -25.5375   19.3515 C   0  0  0  0  0  0  0  0  0  0  0  0
  -29.9490  -25.7545   26.0811 C   0  0  0  0  0  0  0  0  0  0  0  0
  -26.7150  -29.4971   25.4740 C   0  0  1  0  0  0  0  0  0  0  0  0
  -29.7177  -27.9696   27.2118 C   0  0  2  0  0  0  0  0  0  0  0  0
  -28.3438  -25.6397   17.8180 C   0  0  1  0  0  0  0  0  0  1  0  0
  -26.2093  -30.9157   25.8606 C   0  0  0  0  0  0  0  0  0  0  0  0
  -29.8918  -25.5798   17.8960 C   0  0  0  0  0  0  0  0  0  0  0  0
  -26.4266  -16.3665   21.9688 N   0  0  0  0  0  0  0  0  0  0  0  0
  -29.1571  -22.8957   18.6465 N   0  0  0  0  0  0  0  0  0  0  0  0
  -27.3605  -17.0122   22.6879 N   0  0  0  0  0  0  0  0  0  0  0  0
  -25.4364  -27.8954   24.0871 N   0  0  0  0  0  0  0  0  0  0  0  0
  -26.7323  -20.6180   21.5987 N   0  0  0  0  0  0  0  0  0  0  0  0
  -29.2772  -16.6693   24.0367 N   0  0  0  0  0  0  0  0  0  0  0  0
  -28.0715  -12.4804   22.8554 N   0  0  0  0  0  0  0  0  0  0  0  0
  -30.3738  -24.3872   17.2160 N   0  0  0  0  0  0  0  0  0  0  0  0
  -28.1708  -20.9451   19.7586 N   0  0  0  0  0  0  0  0  0  0  0  0
  -22.0205  -27.3540   22.9316 N   0  0  0  0  0  0  0  0  0  0  0  0
  -27.6610  -28.9208   26.4233 N   0  0  0  0  0  0  0  0  0  0  0  0
  -30.6355  -26.8920   26.7457 N   0  3  0  0  0  0  0  0  0  0  0  0
  -29.5871  -13.7129   24.0565 O   0  0  0  0  0  0  0  0  0  0  0  0
  -23.5313  -29.1258   22.9072 O   0  0  0  0  0  0  0  0  0  0  0  0
  -24.8744  -28.2628   26.3199 O   0  0  0  0  0  0  0  0  0  0  0  0
  -29.3910  -28.6218   24.9085 O   0  0  0  0  0  0  0  0  0  0  0  0
  -27.3234  -22.7534   20.9391 O   0  0  0  0  0  0  0  0  0  0  0  0
  -23.7421  -11.0825   19.6403 O   0  0  0  0  0  0  0  0  0  0  0  0
  -27.8748  -26.7835   18.5309 O   0  0  0  0  0  0  0  0  0  1  0  0
  -22.4493   -6.6291   22.6236 F   0  0  0  0  0  0  0  0  0  0  0  0
  -21.1027  -10.4008   20.1004 F   0  0  0  0  0  0  0  0  0  0  0  0
  -31.2989  -21.9556   15.8956 F   0  0  0  0  0  0  0  0  0  0  0  0
  -29.8017  -20.5826   17.6893 S   0  0  0  0  0  0  0  0  0  0  0  0
  1  2  1  0  0  0  0
  1  5  2  0  0  0  0
  2  6  2  0  0  0  0
  3  8  2  0  0  0  0
  3 15  1  0  0  0  0
  4  9  1  0  0  0  0
  4 15  2  0  0  0  0
  5 17  1  0  0  0  0
  6 19  1  0  0  0  0
  7 10  2  0  0  0  0
  7 18  1  0  0  0  0
  8 21  1  0  0  0  0
  9 21  2  0  0  0  0
 10 22  1  0  0  0  0
 11 12  2  0  0  0  0
 11 23  1  0  0  0  0
 12 24  1  0  0  0  0
 13 20  1  0  0  0  0
 13 22  2  0  0  0  0
 14 24  2  0  0  0  0
 14 25  1  0  0  0  0
 15 26  1  0  0  0  0
 16 26  1  0  0  0  0
 16 28  2  0  0  0  0
 16 31  1  0  0  0  0
 17 19  2  0  0  0  0
 17 36  1  0  0  0  0
 18 20  2  0  0  0  0
 18 37  1  0  0  0  0
 19 45  1  0  0  0  0
 20 38  1  0  0  0  0
 21 78  1  0  0  0  0
 22 79  1  0  0  0  0
 23 25  2  0  0  0  0
 23 78  1  0  0  0  0
 24 80  1  0  0  0  0
 25 81  1  0  0  0  0
 26 61  2  0  0  0  0
 27 29  2  0  0  0  0
 27 62  1  0  0  0  0
 27 68  1  0  0  0  0
 28 63  1  0  0  0  0
 28 66  1  0  0  0  0
 29 82  1  0  0  0  0
 29 83  1  0  0  0  0
 30 62  2  0  0  0  0
 30 69  1  0  0  0  0
 30 83  1  0  0  0  0
 31 67  1  0  0  0  0
 31 73  2  0  0  0  0
 32 46  1  0  0  0  0
 32 70  1  0  0  0  0
 32 74  2  0  0  0  0
 33 56  1  0  0  0  0
 33 64  1  0  0  0  0
 33 75  2  0  0  0  0
 34 57  1  0  0  0  0
 34 71  1  0  0  0  0
 34 76  2  0  0  0  0
 35 65  1  0  0  0  0
 35 69  1  0  0  0  0
 35 77  2  0  0  0  0
 36 39  1  0  0  0  0
 37 46  1  0  0  0  0
 38 64  1  0  0  0  0
 39 41  1  0  0  0  0
 40 42  1  0  0  0  0
 40 43  1  0  0  0  0
 41 45  1  0  0  0  0
 42 47  1  0  0  0  0
 43 65  1  0  0  0  0
 44 47  1  0  0  0  0
 44 65  1  0  0  0  0
 45 70  1  0  0  0  0
 46 64  1  0  0  0  0
 47 63  1  0  0  0  0
 48 57  1  0  0  0  0
 49 58  1  0  0  0  0
 50 59  1  0  0  0  0
 51 59  1  0  0  0  0
 52 59  1  0  0  0  0
 53 60  1  0  0  0  0
 54 60  1  0  0  0  0
 55 72  1  0  0  0  0
 56 59  1  0  0  0  0
 56 71  1  0  0  0  0
 57 72  1  0  0  0  0
 58 60  1  0  0  0  0
 58 79  1  0  0  0  0
 60 68  1  0  0  0  0
 61 63  1  0  0  0  0
M  CHG  1  72   1
M  ISO  4  35 100  58 101  69 100  79 101
M  END
> <Batch ID>
0184

> <Smiles>
CNC(C)C(=O)NC(C(=O)N1Cc2cc([101O:1][101CH:1](C)C(C)(C)Nc3nc([100NH:0][100C:0](=O)N4CCCC(n5nc(-c6ccc(Oc7ccc(F)cc7F)cc6)c(C(N)=O)c5N)C4)sc3F)ccc2CC1C(=O)NC1CCCc2ccccc21)C(C)(C)C

> <Shape>
0.250

> <Color>
0.095

> <Negative vol penalty>
0.000

$$$$

  -OEChem-04052305023D

 86 94  0     1  0  0  0  0  0999 V2000
  -18.3564  -26.2814   23.5380 C   0  0  0  0  0  0  0  0  0  0  0  0
  -19.2575  -26.0688   22.4996 C   0  0  0  0  0  0  0  0  0  0  0  0
  -26.7324  -12.5606   21.8192 C   0  0  0  0  0  0  0  0  0  0  0  0
  -26.0189  -14.1741   20.1686 C   0  0  0  0  0  0  0  0  0  0  0  0
  -18.0893  -27.5788   23.9729 C   0  0  0  0  0  0  0  0  0  0  0  0
  -19.8913  -27.1537   21.8948 C   0  0  0  0  0  0  0  0  0  0  0  0
  -24.8452  -26.3678   21.1972 C   0  0  0  0  0  0  0  0  0  0  0  0
  -25.4500  -12.0123   21.8376 C   0  0  0  0  0  0  0  0  0  0  0  0
  -24.7365  -13.6258   20.1870 C   0  0  0  0  0  0  0  0  0  0  0  0
  -25.2167  -25.5610   20.1226 C   0  0  0  0  0  0  0  0  0  0  0  0
  -23.6099   -9.9153   19.9273 C   0  0  0  0  0  0  0  0  0  0  0  0
  -23.4986   -8.5253   19.8928 C   0  0  0  0  0  0  0  0  0  0  0  0
  -25.7233  -27.5313   18.8262 C   0  0  0  0  0  0  0  0  0  0  0  0
  -22.3474   -8.5647   22.0165 C   0  0  0  0  0  0  0  0  0  0  0  0
  -27.0169  -13.6416   20.9847 C   0  0  0  0  0  0  0  0  0  0  0  0
  -29.4146  -13.8342   20.1353 C   0  0  0  0  0  0  0  0  0  0  0  0
  -18.7274  -28.6795   23.3796 C   0  0  0  0  0  0  0  0  0  0  0  0
  -24.8996  -27.7650   21.0904 C   0  0  0  0  0  0  0  0  0  0  0  0
  -19.6315  -28.4672   22.3214 C   0  0  0  0  0  0  0  0  0  0  0  0
  -25.3544  -28.3536   19.9018 C   0  0  0  0  0  0  0  0  0  0  0  0
  -24.4520  -12.5449   21.0215 C   0  0  0  0  0  0  0  0  0  0  0  0
  -25.6531  -26.1427   18.9359 C   0  0  0  0  0  0  0  0  0  0  0  0
  -23.0900  -10.6300   21.0065 C   0  0  0  0  0  0  0  0  0  0  0  0
  -22.8673   -7.8500   20.9373 C   0  0  0  0  0  0  0  0  0  0  0  0
  -22.4588   -9.9547   22.0511 C   0  0  0  0  0  0  0  0  0  0  0  0
  -28.3413  -14.2088   20.9657 C   0  0  0  0  0  0  0  0  0  0  0  0
  -30.2105  -23.7945   20.6580 C   0  0  0  0  0  0  0  0  0  0  0  0
  -30.4418  -14.6678   20.5049 C   0  0  0  0  0  0  0  0  0  0  0  0
  -29.4297  -23.4219   19.5839 C   0  0  0  0  0  0  0  0  0  0  0  0
  -29.9201  -21.6837   21.1778 C   0  0  0  0  0  0  0  0  0  0  0  0
  -29.4775  -12.8233   19.1206 C   0  0  0  0  0  0  0  0  0  0  0  0
  -22.7616  -30.1118   21.2488 C   0  0  0  0  0  0  0  0  0  0  0  0
  -25.3947  -31.9973   21.0637 C   0  0  0  0  0  0  0  0  0  0  0  0
  -28.6509  -32.3399   20.1011 C   0  0  0  0  0  0  0  0  0  0  0  0
  -28.1510  -23.6522   17.4301 C   0  0  0  0  0  0  0  0  0  0  0  0
  -30.5983  -20.0913   23.0082 C   0  0  0  0  0  0  0  0  0  0  0  0
  -18.3709  -30.0667   23.8521 C   0  0  0  0  0  0  0  0  0  0  0  0
  -24.5208  -28.6209   22.2679 C   0  0  0  0  0  0  0  0  0  0  0  0
  -25.4505  -29.8482   19.7431 C   0  0  0  0  0  0  0  0  0  0  0  0
  -19.3667  -31.1357   23.4093 C   0  0  0  0  0  0  0  0  0  0  0  0
  -32.1049  -17.1208   24.2667 C   0  0  0  0  0  0  0  0  0  0  0  0
  -19.6999  -30.9747   21.9295 C   0  0  0  0  0  0  0  0  0  0  0  0
  -31.4128  -16.0032   23.4831 C   0  0  0  0  0  0  0  0  0  0  0  0
  -31.1433  -18.2607   24.5979 C   0  0  0  0  0  0  0  0  0  0  0  0
  -29.7248  -17.6966   22.6643 C   0  0  0  0  0  0  0  0  0  0  0  0
  -20.3576  -29.6165   21.6567 C   0  0  1  0  0  0  0  0  0  0  0  0
  -24.1268  -30.0407   21.8723 C   0  0  1  0  0  0  0  0  0  0  0  0
  -30.6691  -16.5558   22.2513 C   0  0  2  0  0  0  0  0  0  0  0  0
  -30.5237  -34.0093   20.0467 C   0  0  0  0  0  0  0  0  0  0  0  0
  -24.0647  -33.4090   18.7083 C   0  0  0  0  0  0  0  0  0  0  0  0
  -26.2979  -34.3727   18.1148 C   0  0  0  0  0  0  0  0  0  0  0  0
  -25.2434  -34.9300   20.3057 C   0  0  0  0  0  0  0  0  0  0  0  0
  -30.3651  -30.6464   21.8193 C   0  0  0  0  0  0  0  0  0  0  0  0
  -27.0158  -25.8704   17.0059 C   0  0  0  0  0  0  0  0  0  1  0  0
  -26.1906  -32.6147   19.9394 C   0  0  1  0  0  0  0  0  0  0  0  0
  -29.8650  -32.8852   20.8311 C   0  0  2  0  0  0  0  0  0  0  0  0
  -27.8302  -24.7314   16.4105 C   0  0  2  0  0  0  0  0  0  0  0  0
  -30.7601  -25.1431   20.9067 C   0  0  0  0  0  0  0  0  0  0  0  0
  -25.4456  -33.8034   19.2691 C   0  0  0  0  0  0  0  0  0  0  0  0
  -28.6573  -15.2028   21.8000 N   0  0  0  0  0  0  0  0  0  0  0  0
  -30.4923  -22.7992   21.5732 N   0  0  0  0  0  0  0  0  0  0  0  0
  -29.9409  -15.4598   21.4959 N   0  0  0  0  0  0  0  0  0  0  0  0
  -25.0628  -30.6426   20.9205 N   0  0  0  0  0  0  0  0  0  0  0  0
  -30.4786  -18.7362   23.3826 N   0  0  0  0  0  0  0  0  0  0  0  0
  -31.7156  -14.7931   20.0758 N   0  0  0  0  0  0  0  0  0  0  0  0
  -28.3311  -12.0574   18.8685 N   0  0  0  0  0  0  0  0  0  0  0  0
  -28.9403  -24.1371   18.4652 N   0  0  0  0  0  0  0  0  0  0  0  0
  -29.9509  -20.4198   21.8177 N   0  0  0  0  0  0  0  0  0  0  0  0
  -21.7476  -29.6382   22.0592 N   0  0  0  0  0  0  0  0  0  0  0  0
  -27.4896  -32.9652   20.5033 N   0  0  0  0  0  0  0  0  0  0  0  0
  -30.8712  -31.8061   21.0408 N   0  3  0  0  0  0  0  0  0  0  0  0
  -30.5243  -12.5945   18.4684 O   0  0  0  0  0  0  0  0  0  0  0  0
  -22.6372  -30.5643   20.1168 O   0  0  0  0  0  0  0  0  0  0  0  0
  -25.0851  -32.6895   22.0367 O   0  0  0  0  0  0  0  0  0  0  0  0
  -28.7256  -31.4510   19.2557 O   0  0  0  0  0  0  0  0  0  0  0  0
  -27.7336  -22.5079   17.2771 O   0  0  0  0  0  0  0  0  0  0  0  0
  -31.2514  -20.8946   23.6791 O   0  0  0  0  0  0  0  0  0  0  0  0
  -23.2006  -12.0100   21.0390 O   0  0  0  0  0  0  0  0  0  0  0  0
  -26.0158  -25.3575   17.8853 O   0  0  0  0  0  0  0  0  0  1  0  0
  -22.7592   -6.5154   20.9033 F   0  0  0  0  0  0  0  0  0  0  0  0
  -21.9563  -10.6360   23.0900 F   0  0  0  0  0  0  0  0  0  0  0  0
  -27.1243  -24.2066   15.3676 F   0  0  0  0  0  0  0  0  0  0  0  0
  -30.4317  -26.0687   19.9492 F   0  0  0  0  0  0  0  0  0  0  0  0
  -30.3471  -25.7082   22.0862 F   0  0  0  0  0  0  0  0  0  0  0  0
  -32.1291  -25.1651   20.9646 F   0  0  0  0  0  0  0  0  0  0  0  0
  -29.0280  -21.7597   19.7138 S   0  0  0  0  0  0  0  0  0  0  0  0
  1  2  1  0  0  0  0
  1  5  2  0  0  0  0
  2  6  2  0  0  0  0
  3  8  2  0  0  0  0
  3 15  1  0  0  0  0
  4  9  1  0  0  0  0
  4 15  2  0  0  0  0
  5 17  1  0  0  0  0
  6 19  1  0  0  0  0
  7 10  2  0  0  0  0
  7 18  1  0  0  0  0
  8 21  1  0  0  0  0
  9 21  2  0  0  0  0
 10 22  1  0  0  0  0
 11 12  2  0  0  0  0
 11 23  1  0  0  0  0
 12 24  1  0  0  0  0
 13 20  1  0  0  0  0
 13 22  2  0  0  0  0
 14 24  2  0  0  0  0
 14 25  1  0  0  0  0
 15 26  1  0  0  0  0
 16 26  1  0  0  0  0
 16 28  2  0  0  0  0
 16 31  1  0  0  0  0
 17 19  2  0  0  0  0
 17 37  1  0  0  0  0
 18 20  2  0  0  0  0
 18 38  1  0  0  0  0
 19 46  1  0  0  0  0
 20 39  1  0  0  0  0
 21 78  1  0  0  0  0
 22 79  1  0  0  0  0
 23 25  2  0  0  0  0
 23 78  1  0  0  0  0
 24 80  1  0  0  0  0
 25 81  1  0  0  0  0
 26 60  2  0  0  0  0
 27 29  2  0  0  0  0
 27 58  1  0  0  0  0
 27 61  1  0  0  0  0
 28 62  1  0  0  0  0
 28 65  1  0  0  0  0
 29 67  1  0  0  0  0
 29 86  1  0  0  0  0
 30 61  2  0  0  0  0
 30 68  1  0  0  0  0
 30 86  1  0  0  0  0
 31 66  1  0  0  0  0
 31 72  2  0  0  0  0
 32 47  1  0  0  0  0
 32 69  1  0  0  0  0
 32 73  2  0  0  0  0
 33 55  1  0  0  0  0
 33 63  1  0  0  0  0
 33 74  2  0  0  0  0
 34 56  1  0  0  0  0
 34 70  1  0  0  0  0
 34 75  2  0  0  0  0
 35 57  1  0  0  0  0
 35 67  1  0  0  0  0
 35 76  2  0  0  0  0
 36 64  1  0  0  0  0
 36 68  1  0  0  0  0
 36 77  2  0  0  0  0
 37 40  1  0  0  0  0
 38 47  1  0  0  0  0
 39 63  1  0  0  0  0
 40 42  1  0  0  0  0
 41 43  1  0  0  0  0
 41 44  1  0  0  0  0
 42 46  1  0  0  0  0
 43 48  1  0  0  0  0
 44 64  1  0  0  0  0
 45 48  1  0  0  0  0
 45 64  1  0  0  0  0
 46 69  1  0  0  0  0
 47 63  1  0  0  0  0
 48 62  1  0  0  0  0
 49 56  1  0  0  0  0
 50 59  1  0  0  0  0
 51 59  1  0  0  0  0
 52 59  1  0  0  0  0
 53 71  1  0  0  0  0
 54 57  1  0  0  0  0
 54 79  1  0  0  0  0
 55 59  1  0  0  0  0
 55 70  1  0  0  0  0
 56 71  1  0  0  0  0
 57 82  1  0  0  0  0
 58 83  1  0  0  0  0
 58 84  1  0  0  0  0
 58 85  1  0  0  0  0
 60 62  1  0  0  0  0
M  CHG  1  71   1
M  ISO  4  36 100  54 101  68 100  79 101
M  END
> <Batch ID>
0184

> <Smiles>
CNC(C)C(=O)NC(C(=O)N1Cc2cc([101O:1][101CH2:1]C(F)C(=O)Nc3sc([100NH:0][100C:0](=O)N4CCCC(n5nc(-c6ccc(Oc7ccc(F)cc7F)cc6)c(C(N)=O)c5N)C4)nc3C(F)(F)F)ccc2CC1C(=O)NC1CCCc2ccccc21)C(C)(C)C

> <Shape>
0.305

> <Color>
0.088

> <Negative vol penalty>
0.000

$$$$

  -OEChem-04052305023D

 86 94  0     1  0  0  0  0  0999 V2000
  -17.0366  -29.1509   24.3643 C   0  0  0  0  0  0  0  0  0  0  0  0
  -18.3936  -29.3992   24.5440 C   0  0  0  0  0  0  0  0  0  0  0  0
  -23.7149  -14.3488   21.2542 C   0  0  0  0  0  0  0  0  0  0  0  0
  -26.1275  -14.2872   21.1435 C   0  0  0  0  0  0  0  0  0  0  0  0
  -16.6222  -28.1560   23.4799 C   0  0  0  0  0  0  0  0  0  0  0  0
  -19.3371  -28.6517   23.8400 C   0  0  0  0  0  0  0  0  0  0  0  0
  -25.8271  -29.2323   20.8635 C   0  0  0  0  0  0  0  0  0  0  0  0
  -23.6598  -13.0364   20.7851 C   0  0  0  0  0  0  0  0  0  0  0  0
  -26.0725  -12.9747   20.6744 C   0  0  0  0  0  0  0  0  0  0  0  0
  -27.0719  -28.6044   20.8631 C   0  0  0  0  0  0  0  0  0  0  0  0
  -24.0863   -9.9240   22.0357 C   0  0  0  0  0  0  0  0  0  0  0  0
  -23.2203   -9.0409   22.6805 C   0  0  0  0  0  0  0  0  0  0  0  0
  -26.2377  -26.9648   19.3026 C   0  0  0  0  0  0  0  0  0  0  0  0
  -22.0301   -8.6940   20.6068 C   0  0  0  0  0  0  0  0  0  0  0  0
  -24.9488  -14.9742   21.4334 C   0  0  0  0  0  0  0  0  0  0  0  0
  -25.0788  -16.7516   23.2587 C   0  0  0  0  0  0  0  0  0  0  0  0
  -17.5609  -27.4025   22.7575 C   0  0  0  0  0  0  0  0  0  0  0  0
  -24.7733  -28.7239   20.0906 C   0  0  0  0  0  0  0  0  0  0  0  0
  -18.9349  -27.6448   22.9461 C   0  0  0  0  0  0  0  0  0  0  0  0
  -24.9812  -27.5895   19.2930 C   0  0  0  0  0  0  0  0  0  0  0  0
  -24.8386  -12.3493   20.4952 C   0  0  0  0  0  0  0  0  0  0  0  0
  -27.2765  -27.4688   20.0848 C   0  0  0  0  0  0  0  0  0  0  0  0
  -23.9241  -10.1922   20.6765 C   0  0  0  0  0  0  0  0  0  0  0  0
  -22.1922   -8.4259   21.9661 C   0  0  0  0  0  0  0  0  0  0  0  0
  -22.8961   -9.5772   19.9620 C   0  0  0  0  0  0  0  0  0  0  0  0
  -25.0063  -16.3301   21.9175 C   0  0  0  0  0  0  0  0  0  0  0  0
  -31.0902  -23.1479   18.4566 C   0  0  0  0  0  0  0  0  0  0  0  0
  -25.1114  -18.1228   23.1865 C   0  0  0  0  0  0  0  0  0  0  0  0
  -31.7994  -22.0541   18.9069 C   0  0  0  0  0  0  0  0  0  0  0  0
  -29.4001  -21.8554   18.9884 C   0  0  0  0  0  0  0  0  0  0  0  0
  -25.1137  -15.9732   24.4623 C   0  0  0  0  0  0  0  0  0  0  0  0
  -21.8871  -27.5533   20.7260 C   0  0  0  0  0  0  0  0  0  0  0  0
  -30.3840  -26.1610   18.7411 C   0  0  0  0  0  0  0  0  0  0  0  0
  -21.6061  -27.5463   17.4943 C   0  0  0  0  0  0  0  0  0  0  0  0
  -23.1509  -27.4768   14.4520 C   0  0  0  0  0  0  0  0  0  0  0  0
  -26.8829  -21.9464   18.9501 C   0  0  0  0  0  0  0  0  0  0  0  0
  -17.0662  -26.3055   21.8483 C   0  0  0  0  0  0  0  0  0  0  0  0
  -23.4443  -29.4283   20.0813 C   0  0  0  0  0  0  0  0  0  0  0  0
  -23.8884  -27.0158   18.4298 C   0  0  0  0  0  0  0  0  0  0  0  0
  -18.1199  -25.8122   20.8600 C   0  0  0  0  0  0  0  0  0  0  0  0
  -23.6535  -21.7637   20.4382 C   0  0  0  0  0  0  0  0  0  0  0  0
  -19.4482  -25.5734   21.5708 C   0  0  0  0  0  0  0  0  0  0  0  0
  -23.6427  -20.3904   21.1137 C   0  0  0  0  0  0  0  0  0  0  0  0
  -24.4120  -21.7377   19.1125 C   0  0  0  0  0  0  0  0  0  0  0  0
  -25.7624  -19.8184   19.8620 C   0  0  0  0  0  0  0  0  0  0  0  0
  -19.9881  -26.8720   22.1821 C   0  0  1  0  0  0  0  0  0  0  0  0
  -22.2920  -28.5247   19.6535 C   0  0  1  0  0  0  0  0  0  0  0  0
  -25.0655  -19.8096   21.2324 C   0  0  2  0  0  0  0  0  0  0  0  0
  -22.6564  -27.4419   11.9920 C   0  0  0  0  0  0  0  0  0  0  0  0
  -30.9533  -27.5378   16.0752 C   0  0  0  0  0  0  0  0  0  0  0  0
  -32.9931  -26.9447   17.3761 C   0  0  0  0  0  0  0  0  0  0  0  0
  -32.3665  -25.6025   15.3620 C   0  0  0  0  0  0  0  0  0  0  0  0
  -20.8410  -24.5992   17.6924 C   0  0  0  0  0  0  0  0  0  0  0  0
  -21.2890  -24.3899   15.2380 C   0  0  0  0  0  0  0  0  0  0  0  0
  -19.4932  -25.9189   16.0503 C   0  0  0  0  0  0  0  0  0  0  0  0
  -24.5684  -30.0374   14.0129 C   0  0  0  0  0  0  0  0  0  0  0  0
  -28.8737  -26.1766   18.8869 C   0  0  0  0  0  0  0  0  0  1  0  0
  -30.9409  -25.4510   17.5083 C   0  0  1  0  0  0  0  0  0  0  0  0
  -21.9149  -26.5572   16.3965 C   0  0  1  0  0  0  0  0  0  0  0  0
  -22.9519  -28.3147   13.2019 C   0  0  2  0  0  0  0  0  0  0  0  0
  -31.8079  -26.3558   16.5849 C   0  0  0  0  0  0  0  0  0  0  0  0
  -20.9048  -25.3757   16.3620 C   0  0  0  0  0  0  0  0  0  0  0  0
  -24.9934  -17.3510   21.0562 N   0  0  0  0  0  0  0  0  0  0  0  0
  -29.7143  -23.0356   18.5022 N   0  0  0  0  0  0  0  0  0  0  0  0
  -25.0581  -18.4274   21.8581 N   0  0  0  0  0  0  0  0  0  0  0  0
  -22.6050  -27.7366   18.4597 N   0  0  0  0  0  0  0  0  0  0  0  0
  -25.7525  -21.1794   19.3031 N   0  0  0  0  0  0  0  0  0  0  0  0
  -25.1800  -19.0856   24.1302 N   0  0  0  0  0  0  0  0  0  0  0  0
  -25.0724  -14.5763   24.3560 N   0  0  0  0  0  0  0  0  0  0  0  0
  -31.6867  -24.3007   17.9818 N   0  0  0  0  0  0  0  0  0  0  0  0
  -28.1045  -21.3248   19.2066 N   0  0  0  0  0  0  0  0  0  0  0  0
  -20.5832  -27.7035   21.1579 N   0  0  0  0  0  0  0  0  0  0  0  0
  -21.9765  -27.3271   15.1588 N   0  0  0  0  0  0  0  0  0  0  0  0
  -24.1750  -29.1165   12.9156 N   0  3  0  0  0  0  0  0  0  0  0  0
  -25.1630  -16.5012   25.5991 O   0  0  0  0  0  0  0  0  0  0  0  0
  -22.6973  -26.7277   21.1305 O   0  0  0  0  0  0  0  0  0  0  0  0
  -31.1176  -26.6801   19.5827 O   0  0  0  0  0  0  0  0  0  0  0  0
  -20.5216  -28.1340   17.4914 O   0  0  0  0  0  0  0  0  0  0  0  0
  -24.2386  -26.9995   14.7678 O   0  0  0  0  0  0  0  0  0  0  0  0
  -26.7756  -23.0828   18.4818 O   0  0  0  0  0  0  0  0  0  0  0  0
  -24.7852  -11.0686   20.0376 O   0  0  0  0  0  0  0  0  0  0  0  0
  -28.4904  -26.8537   20.0831 O   0  0  0  0  0  0  0  0  0  1  0  0
  -21.3616   -7.5767   22.5851 F   0  0  0  0  0  0  0  0  0  0  0  0
  -22.7360   -9.8299   18.6558 F   0  0  0  0  0  0  0  0  0  0  0  0
  -33.1309  -21.9551   18.9475 F   0  0  0  0  0  0  0  0  0  0  0  0
  -30.7095  -20.8301   19.4122 S   0  0  0  0  0  0  0  0  0  0  0  0
  1  2  1  0  0  0  0
  1  5  2  0  0  0  0
  2  6  2  0  0  0  0
  3  8  2  0  0  0  0
  3 15  1  0  0  0  0
  4  9  1  0  0  0  0
  4 15  2  0  0  0  0
  5 17  1  0  0  0  0
  6 19  1  0  0  0  0
  7 10  2  0  0  0  0
  7 18  1  0  0  0  0
  8 21  1  0  0  0  0
  9 21  2  0  0  0  0
 10 22  1  0  0  0  0
 11 12  2  0  0  0  0
 11 23  1  0  0  0  0
 12 24  1  0  0  0  0
 13 20  1  0  0  0  0
 13 22  2  0  0  0  0
 14 24  2  0  0  0  0
 14 25  1  0  0  0  0
 15 26  1  0  0  0  0
 16 26  1  0  0  0  0
 16 28  2  0  0  0  0
 16 31  1  0  0  0  0
 17 19  2  0  0  0  0
 17 37  1  0  0  0  0
 18 20  2  0  0  0  0
 18 38  1  0  0  0  0
 19 46  1  0  0  0  0
 20 39  1  0  0  0  0
 21 81  1  0  0  0  0
 22 82  1  0  0  0  0
 23 25  2  0  0  0  0
 23 81  1  0  0  0  0
 24 83  1  0  0  0  0
 25 84  1  0  0  0  0
 26 63  2  0  0  0  0
 27 29  2  0  0  0  0
 27 64  1  0  0  0  0
 27 70  1  0  0  0  0
 28 65  1  0  0  0  0
 28 68  1  0  0  0  0
 29 85  1  0  0  0  0
 29 86  1  0  0  0  0
 30 64  2  0  0  0  0
 30 71  1  0  0  0  0
 30 86  1  0  0  0  0
 31 69  1  0  0  0  0
 31 75  2  0  0  0  0
 32 47  1  0  0  0  0
 32 72  1  0  0  0  0
 32 76  2  0  0  0  0
 33 57  1  0  0  0  0
 33 58  1  0  0  0  0
 33 77  2  0  0  0  0
 34 59  1  0  0  0  0
 34 66  1  0  0  0  0
 34 78  2  0  0  0  0
 35 60  1  0  0  0  0
 35 73  1  0  0  0  0
 35 79  2  0  0  0  0
 36 67  1  0  0  0  0
 36 71  1  0  0  0  0
 36 80  2  0  0  0  0
 37 40  1  0  0  0  0
 38 47  1  0  0  0  0
 39 66  1  0  0  0  0
 40 42  1  0  0  0  0
 41 43  1  0  0  0  0
 41 44  1  0  0  0  0
 42 46  1  0  0  0  0
 43 48  1  0  0  0  0
 44 67  1  0  0  0  0
 45 48  1  0  0  0  0
 45 67  1  0  0  0  0
 46 72  1  0  0  0  0
 47 66  1  0  0  0  0
 48 65  1  0  0  0  0
 49 60  1  0  0  0  0
 50 61  1  0  0  0  0
 51 61  1  0  0  0  0
 52 61  1  0  0  0  0
 53 62  1  0  0  0  0
 54 62  1  0  0  0  0
 55 62  1  0  0  0  0
 56 74  1  0  0  0  0
 57 82  1  0  0  0  0
 58 61  1  0  0  0  0
 58 70  1  0  0  0  0
 59 62  1  0  0  0  0
 59 73  1  0  0  0  0
 60 74  1  0  0  0  0
 63 65  1  0  0  0  0
M  CHG  1  74   1
M  ISO  4  36 100  57 101  71 100  82 101
M  END
> <Batch ID>
0184

> <Smiles>
CNC(C)C(=O)NC(C(=O)N1Cc2cc([101O:1][101CH2:1]C(=O)C(Nc3nc([100NH:0][100C:0](=O)N4CCCC(n5nc(-c6ccc(Oc7ccc(F)cc7F)cc6)c(C(N)=O)c5N)C4)sc3F)C(C)(C)C)ccc2CC1C(=O)NC1CCCc2ccccc21)C(C)(C)C

> <Shape>
0.236

> <Color>
0.084

> <Negative vol penalty>
0.000

$$$$

  -OEChem-04052305023D

 88 96  0     1  0  0  0  0  0999 V2000
  -30.4415  -28.1134   10.5627 C   0  0  0  0  0  0  0  0  0  0  0  0
  -30.5643  -27.4194   11.7621 C   0  0  0  0  0  0  0  0  0  0  0  0
  -23.1250   -9.9312   19.9347 C   0  0  0  0  0  0  0  0  0  0  0  0
  -24.2346   -9.4028   22.0147 C   0  0  0  0  0  0  0  0  0  0  0  0
  -29.7953  -29.3486   10.5365 C   0  0  0  0  0  0  0  0  0  0  0  0
  -30.0420  -27.9606   12.9363 C   0  0  0  0  0  0  0  0  0  0  0  0
  -27.5045  -24.5492   15.6873 C   0  0  0  0  0  0  0  0  0  0  0  0
  -22.4718   -8.6992   19.9701 C   0  0  0  0  0  0  0  0  0  0  0  0
  -23.5813   -8.1708   22.0502 C   0  0  0  0  0  0  0  0  0  0  0  0
  -28.2586  -23.6535   16.4442 C   0  0  0  0  0  0  0  0  0  0  0  0
  -20.5187   -6.9999   22.8688 C   0  0  0  0  0  0  0  0  0  0  0  0
  -19.9568   -6.6007   24.0814 C   0  0  0  0  0  0  0  0  0  0  0  0
  -27.8598  -24.9903   18.4122 C   0  0  0  0  0  0  0  0  0  0  0  0
  -30.0596  -19.1211   23.3560 C   0  0  0  0  0  0  0  0  0  0  0  0
  -21.3678   -4.6395   24.0895 C   0  0  0  0  0  0  0  0  0  0  0  0
  -24.0064  -10.2829   20.9570 C   0  0  0  0  0  0  0  0  0  0  0  0
  -24.2335  -12.7717   21.4691 C   0  0  0  0  0  0  0  0  0  0  0  0
  -29.2562  -29.9008   11.7091 C   0  0  0  0  0  0  0  0  0  0  0  0
  -26.9305  -25.6799   16.2860 C   0  0  0  0  0  0  0  0  0  0  0  0
  -29.3891  -29.2050   12.9259 C   0  0  0  0  0  0  0  0  0  0  0  0
  -27.0967  -25.8974   17.6612 C   0  0  0  0  0  0  0  0  0  0  0  0
  -29.6875  -17.7462   23.3938 C   0  0  0  0  0  0  0  0  0  0  0  0
  -22.6999   -7.8190   21.0279 C   0  0  0  0  0  0  0  0  0  0  0  0
  -28.4387  -23.8755   17.8063 C   0  0  0  0  0  0  0  0  0  0  0  0
  -21.5051   -6.2188   22.2665 C   0  0  0  0  0  0  0  0  0  0  0  0
  -20.3814   -5.4205   24.6918 C   0  0  0  0  0  0  0  0  0  0  0  0
  -21.9296   -5.0387   22.8769 C   0  0  0  0  0  0  0  0  0  0  0  0
  -24.6819  -11.5551   20.9206 C   0  0  0  0  0  0  0  0  0  0  0  0
  -25.2273  -13.6708   21.1684 C   0  0  0  0  0  0  0  0  0  0  0  0
  -30.1864  -17.0453   22.3179 C   0  0  0  0  0  0  0  0  0  0  0  0
  -30.8289  -19.4187   22.2525 C   0  0  0  0  0  0  0  0  0  0  0  0
  -23.0266  -13.0629   22.1863 C   0  0  0  0  0  0  0  0  0  0  0  0
  -27.2466  -28.8205   15.9116 C   0  0  0  0  0  0  0  0  0  0  0  0
  -28.4648  -20.3741   19.6462 C   0  0  0  0  0  0  0  0  0  0  0  0
  -24.7914  -28.9270   18.0290 C   0  0  0  0  0  0  0  0  0  0  0  0
  -23.0596  -27.3911   20.5366 C   0  0  0  0  0  0  0  0  0  0  0  0
  -30.6117  -15.0503   20.8397 C   0  0  0  0  0  0  0  0  0  0  0  0
  -28.6080  -31.2608   11.6397 C   0  0  0  0  0  0  0  0  0  0  0  0
  -26.0976  -26.6222   15.4610 C   0  0  0  0  0  0  0  0  0  0  0  0
  -26.4845  -27.0853   18.3559 C   0  0  0  0  0  0  0  0  0  0  0  0
  -27.7528  -31.5910   12.8604 C   0  0  0  0  0  0  0  0  0  0  0  0
  -29.2275  -13.2535   18.0951 C   0  0  0  0  0  0  0  0  0  0  0  0
  -28.5004  -31.2471   14.1448 C   0  0  0  0  0  0  0  0  0  0  0  0
  -27.8846  -12.7516   18.6306 C   0  0  0  0  0  0  0  0  0  0  0  0
  -30.3110  -13.2329   19.1718 C   0  0  0  0  0  0  0  0  0  0  0  0
  -28.6195  -13.4274   20.9523 C   0  0  0  0  0  0  0  0  0  0  0  0
  -28.8138  -29.7477   14.2161 C   0  0  1  0  0  0  0  0  0  0  0  0
  -25.9883  -28.0153   16.0731 C   0  0  1  0  0  0  0  0  0  0  0  0
  -27.4808  -13.4909   19.9213 C   0  0  2  0  0  0  0  0  0  0  0  0
  -28.8594  -17.1526   24.4713 C   0  0  0  0  0  0  0  0  0  0  0  0
  -21.1247  -27.7414   22.0958 C   0  0  0  0  0  0  0  0  0  0  0  0
  -26.5014  -30.7989   19.7266 C   0  0  0  0  0  0  0  0  0  0  0  0
  -24.9588  -30.3530   21.6475 C   0  0  0  0  0  0  0  0  0  0  0  0
  -24.0883  -31.4385   19.5770 C   0  0  0  0  0  0  0  0  0  0  0  0
  -21.6026  -25.0609   19.4382 C   0  0  0  0  0  0  0  0  0  0  0  0
  -28.8222  -22.8608   19.9227 C   0  0  0  0  0  0  0  0  0  1  0  0
  -29.1805  -21.4668   20.4210 C   0  0  2  0  0  0  0  0  0  0  0  0
  -26.9599  -20.3586   19.7203 C   0  0  0  0  0  0  0  0  0  0  0  0
  -24.6787  -28.9805   19.5335 C   0  0  1  0  0  0  0  0  0  0  0  0
  -21.5713  -27.1843   20.7530 C   0  0  2  0  0  0  0  0  0  0  0  0
  -25.0701  -30.3713   20.1080 C   0  0  0  0  0  0  0  0  0  0  0  0
  -25.8681  -11.6677   20.3171 N   0  0  0  0  0  0  0  0  0  0  0  0
  -26.1734  -12.9658   20.4844 N   0  0  0  0  0  0  0  0  0  0  0  0
  -25.6840  -27.9812   17.5050 N   0  0  0  0  0  0  0  0  0  0  0  0
  -29.8597  -13.9558   20.3629 N   0  0  0  0  0  0  0  0  0  0  0  0
  -25.3752  -14.9879   21.4248 N   0  0  0  0  0  0  0  0  0  0  0  0
  -22.1138  -12.0228   22.4082 N   0  0  0  0  0  0  0  0  0  0  0  0
  -30.0677  -15.6798   21.9588 N   0  0  0  0  0  0  0  0  0  0  0  0
  -27.6335  -29.0022   14.5976 N   0  0  0  0  0  0  0  0  0  0  0  0
  -23.3189  -28.5619   19.8561 N   0  0  0  0  0  0  0  0  0  0  0  0
  -30.6393  -21.2493   20.2874 N   0  0  0  0  0  0  0  0  0  0  0  0
  -21.2388  -25.7322   20.7125 N   0  3  0  0  0  0  0  0  0  0  0  0
  -22.7579  -14.2150   22.6034 O   0  0  0  0  0  0  0  0  0  0  0  0
  -27.8228  -29.2467   16.9056 O   0  0  0  0  0  0  0  0  0  0  0  0
  -29.0628  -19.5451   18.9594 O   0  0  0  0  0  0  0  0  0  0  0  0
  -24.1073  -29.6912   17.3437 O   0  0  0  0  0  0  0  0  0  0  0  0
  -23.9074  -26.5955   20.9350 O   0  0  0  0  0  0  0  0  0  0  0  0
  -31.6466  -15.4200   20.2790 O   0  0  0  0  0  0  0  0  0  0  0  0
  -31.3574  -21.9414   22.6610 O   0  0  0  0  0  0  0  0  0  0  0  0
  -32.9212  -20.5722   21.2452 O   0  0  0  0  0  0  0  0  0  0  0  0
  -22.0625   -6.6169   21.0629 O   0  0  0  0  0  0  0  0  0  0  0  0
  -29.1748  -23.0032   18.5473 O   0  0  0  0  0  0  0  0  0  1  0  0
  -19.8428   -5.0381   25.8571 F   0  0  0  0  0  0  0  0  0  0  0  0
  -22.8777   -4.2848   22.3036 F   0  0  0  0  0  0  0  0  0  0  0  0
  -26.5110  -20.8324   20.9112 F   0  0  0  0  0  0  0  0  0  0  0  0
  -26.4704  -19.0965   19.6008 F   0  0  0  0  0  0  0  0  0  0  0  0
  -31.0994  -18.0438   21.2682 S   0  0  0  0  0  0  0  0  0  0  0  0
  -31.5745  -20.9097   21.6647 S   0  0  0  0  0  0  0  0  0  0  0  0
  1  2  1  0  0  0  0
  1  5  2  0  0  0  0
  2  6  2  0  0  0  0
  3  8  2  0  0  0  0
  3 16  1  0  0  0  0
  4  9  1  0  0  0  0
  4 16  2  0  0  0  0
  5 18  1  0  0  0  0
  6 20  1  0  0  0  0
  7 10  2  0  0  0  0
  7 19  1  0  0  0  0
  8 23  1  0  0  0  0
  9 23  2  0  0  0  0
 10 24  1  0  0  0  0
 11 12  2  0  0  0  0
 11 25  1  0  0  0  0
 12 26  1  0  0  0  0
 13 21  1  0  0  0  0
 13 24  2  0  0  0  0
 14 22  1  0  0  0  0
 14 31  2  0  0  0  0
 15 26  2  0  0  0  0
 15 27  1  0  0  0  0
 16 28  1  0  0  0  0
 17 28  1  0  0  0  0
 17 29  2  0  0  0  0
 17 32  1  0  0  0  0
 18 20  2  0  0  0  0
 18 38  1  0  0  0  0
 19 21  2  0  0  0  0
 19 39  1  0  0  0  0
 20 47  1  0  0  0  0
 21 40  1  0  0  0  0
 22 30  2  0  0  0  0
 22 50  1  0  0  0  0
 23 81  1  0  0  0  0
 24 82  1  0  0  0  0
 25 27  2  0  0  0  0
 25 81  1  0  0  0  0
 26 83  1  0  0  0  0
 27 84  1  0  0  0  0
 28 62  2  0  0  0  0
 29 63  1  0  0  0  0
 29 66  1  0  0  0  0
 30 68  1  0  0  0  0
 30 87  1  0  0  0  0
 31 87  1  0  0  0  0
 31 88  1  0  0  0  0
 32 67  1  0  0  0  0
 32 73  2  0  0  0  0
 33 48  1  0  0  0  0
 33 69  1  0  0  0  0
 33 74  2  0  0  0  0
 34 57  1  0  0  0  0
 34 58  1  0  0  0  0
 34 75  2  0  0  0  0
 35 59  1  0  0  0  0
 35 64  1  0  0  0  0
 35 76  2  0  0  0  0
 36 60  1  0  0  0  0
 36 70  1  0  0  0  0
 36 77  2  0  0  0  0
 37 65  1  0  0  0  0
 37 68  1  0  0  0  0
 37 78  2  0  0  0  0
 38 41  1  0  0  0  0
 39 48  1  0  0  0  0
 40 64  1  0  0  0  0
 41 43  1  0  0  0  0
 42 44  1  0  0  0  0
 42 45  1  0  0  0  0
 43 47  1  0  0  0  0
 44 49  1  0  0  0  0
 45 65  1  0  0  0  0
 46 49  1  0  0  0  0
 46 65  1  0  0  0  0
 47 69  1  0  0  0  0
 48 64  1  0  0  0  0
 49 63  1  0  0  0  0
 51 60  1  0  0  0  0
 52 61  1  0  0  0  0
 53 61  1  0  0  0  0
 54 61  1  0  0  0  0
 55 72  1  0  0  0  0
 56 57  1  0  0  0  0
 56 82  1  0  0  0  0
 57 71  1  0  0  0  0
 58 85  1  0  0  0  0
 58 86  1  0  0  0  0
 59 61  1  0  0  0  0
 59 70  1  0  0  0  0
 60 72  1  0  0  0  0
 62 63  1  0  0  0  0
 71 88  1  0  0  0  0
 79 88  2  0  0  0  0
 80 88  2  0  0  0  0
M  CHG  1  72   1
M  ISO  4  37 100  56 101  68 100  82 101
M  END
> <Batch ID>
0184

> <Smiles>
CNC(C)C(=O)NC(C(=O)N1Cc2cc([101O:1][101CH2:1]C(NS(=O)(=O)c3cc(C)c([100NH:0][100C:0](=O)N4CCCC(n5nc(-c6ccc(Oc7ccc(F)cc7F)cc6)c(C(N)=O)c5N)C4)s3)C(=O)C(F)F)ccc2CC1C(=O)NC1CCCc2ccccc21)C(C)(C)C

> <Shape>
0.281

> <Color>
0.144

> <Negative vol penalty>
0.000

$$$$

  -OEChem-04052305023D

 87 95  0     1  0  0  0  0  0999 V2000
  -29.1038  -26.1949   16.1326 C   0  0  0  0  0  0  0  0  0  0  0  0
  -27.7342  -26.3756   16.2968 C   0  0  0  0  0  0  0  0  0  0  0  0
  -25.3262  -15.0392   21.2035 C   0  0  0  0  0  0  0  0  0  0  0  0
  -27.0861  -14.7195   19.5793 C   0  0  0  0  0  0  0  0  0  0  0  0
  -29.9636  -26.3681   17.2164 C   0  0  0  0  0  0  0  0  0  0  0  0
  -27.2235  -26.7287   17.5454 C   0  0  0  0  0  0  0  0  0  0  0  0
  -22.4203  -30.3591   18.6654 C   0  0  0  0  0  0  0  0  0  0  0  0
  -25.2238  -13.6575   21.3645 C   0  0  0  0  0  0  0  0  0  0  0  0
  -26.9837  -13.3377   19.7405 C   0  0  0  0  0  0  0  0  0  0  0  0
  -21.0865  -30.0845   18.9647 C   0  0  0  0  0  0  0  0  0  0  0  0
  -24.2522  -10.2004   21.9372 C   0  0  0  0  0  0  0  0  0  0  0  0
  -22.9744   -9.6418   21.9619 C   0  0  0  0  0  0  0  0  0  0  0  0
  -21.5742  -30.3098   21.3165 C   0  0  0  0  0  0  0  0  0  0  0  0
  -22.6487  -26.1194   22.0480 C   0  0  0  0  0  0  0  0  0  0  0  0
  -22.5597  -10.4923   19.7389 C   0  0  0  0  0  0  0  0  0  0  0  0
  -26.2573  -15.5702   20.3108 C   0  0  0  0  0  0  0  0  0  0  0  0
  -27.1899  -17.8789   20.8655 C   0  0  0  0  0  0  0  0  0  0  0  0
  -29.4641  -26.7329   18.4766 C   0  0  0  0  0  0  0  0  0  0  0  0
  -23.3449  -30.6008   19.6916 C   0  0  0  0  0  0  0  0  0  0  0  0
  -28.0772  -26.9057   18.6474 C   0  0  0  0  0  0  0  0  0  0  0  0
  -22.9185  -30.5897   21.0274 C   0  0  0  0  0  0  0  0  0  0  0  0
  -23.5072  -25.0694   21.6115 C   0  0  0  0  0  0  0  0  0  0  0  0
  -26.0525  -12.8068   20.6331 C   0  0  0  0  0  0  0  0  0  0  0  0
  -20.6640  -30.0569   20.2905 C   0  0  0  0  0  0  0  0  0  0  0  0
  -24.6838  -10.9051   20.8134 C   0  0  0  0  0  0  0  0  0  0  0  0
  -22.1281   -9.7877   20.8627 C   0  0  0  0  0  0  0  0  0  0  0  0
  -23.8375  -11.0510   19.7143 C   0  0  0  0  0  0  0  0  0  0  0  0
  -26.3632  -16.9974   20.1435 C   0  0  0  0  0  0  0  0  0  0  0  0
  -26.9226  -19.1156   20.3311 C   0  0  0  0  0  0  0  0  0  0  0  0
  -21.6632  -26.3987   21.1270 C   0  0  0  0  0  0  0  0  0  0  0  0
  -23.1449  -24.5859   20.3734 C   0  0  0  0  0  0  0  0  0  0  0  0
  -28.1167  -17.6044   21.9244 C   0  0  0  0  0  0  0  0  0  0  0  0
  -26.0054  -29.1796   20.6943 C   0  0  0  0  0  0  0  0  0  0  0  0
  -26.1750  -31.7533   22.6615 C   0  0  0  0  0  0  0  0  0  0  0  0
  -24.5425  -34.2772   24.2774 C   0  0  0  0  0  0  0  0  0  0  0  0
  -20.3213  -28.2648   22.1575 C   0  0  0  0  0  0  0  0  0  0  0  0
  -22.9201  -22.7806   18.6747 C   0  0  0  0  0  0  0  0  0  0  0  0
  -30.4276  -26.8626   19.6296 C   0  0  0  0  0  0  0  0  0  0  0  0
  -24.7743  -30.9218   19.3509 C   0  0  0  0  0  0  0  0  0  0  0  0
  -23.8673  -30.8625   22.1649 C   0  0  0  0  0  0  0  0  0  0  0  0
  -29.8444  -27.6030   20.8304 C   0  0  0  0  0  0  0  0  0  0  0  0
  -24.3472  -20.4486   16.1977 C   0  0  0  0  0  0  0  0  0  0  0  0
  -28.4480  -27.0806   21.1529 C   0  0  0  0  0  0  0  0  0  0  0  0
  -25.0074  -19.3845   17.0728 C   0  0  0  0  0  0  0  0  0  0  0  0
  -23.1413  -21.0806   16.8865 C   0  0  0  0  0  0  0  0  0  0  0  0
  -24.1058  -20.5764   19.1104 C   0  0  0  0  0  0  0  0  0  0  0  0
  -27.4876  -27.3130   19.9803 C   0  0  1  0  0  0  0  0  0  0  0  0
  -25.7390  -30.6455   20.4999 C   0  0  1  0  0  0  0  0  0  0  0  0
  -25.3499  -19.9512   18.4615 C   0  0  1  0  0  0  0  0  0  0  0  0
  -24.9427  -36.1976   25.8425 C   0  0  0  0  0  0  0  0  0  0  0  0
  -17.8470  -28.2897   21.6277 C   0  0  0  0  0  0  0  0  0  0  0  0
  -18.8739  -30.2194   22.8879 C   0  0  0  0  0  0  0  0  0  0  0  0
  -26.4270  -29.7990   24.9911 C   0  0  0  0  0  0  0  0  0  0  0  0
  -25.8695  -31.6839   26.5417 C   0  0  0  0  0  0  0  0  0  0  0  0
  -27.9275  -31.7944   25.1364 C   0  0  0  0  0  0  0  0  0  0  0  0
  -25.1782  -23.4429   19.4699 C   0  0  0  0  0  0  0  0  0  0  0  0
  -23.5737  -36.2476   22.2929 C   0  0  0  0  0  0  0  0  0  0  0  0
  -25.6646  -32.0770   24.0448 C   0  0  1  0  0  0  0  0  0  0  0  0
  -24.8418  -35.7613   24.3892 C   0  0  2  0  0  0  0  0  0  0  0  0
  -24.6531  -24.5644   22.4052 C   0  0  0  0  0  0  0  0  0  0  0  0
  -19.0992  -29.1406   21.8293 C   0  0  0  0  0  0  0  0  0  1  0  0
  -26.4545  -31.3315   25.1574 C   0  0  0  0  0  0  0  0  0  0  0  0
  -25.6258  -17.6212   19.2209 N   0  0  0  0  0  0  0  0  0  0  0  0
  -25.9882  -18.9078   19.3596 N   0  0  0  0  0  0  0  0  0  0  0  0
  -25.2560  -31.1652   21.7809 N   0  0  0  0  0  0  0  0  0  0  0  0
  -23.4832  -21.5703   18.2225 N   0  0  0  0  0  0  0  0  0  0  0  0
  -27.3980  -20.3497   20.6022 N   0  0  0  0  0  0  0  0  0  0  0  0
  -28.2692  -16.2784   22.3519 N   0  0  0  0  0  0  0  0  0  0  0  0
  -20.6147  -27.3497   21.1523 N   0  0  0  0  0  0  0  0  0  0  0  0
  -27.0596  -28.6950   19.9437 N   0  0  0  0  0  0  0  0  0  0  0  0
  -25.6961  -33.5309   24.1617 N   0  0  0  0  0  0  0  0  0  0  0  0
  -23.7175  -23.5423   19.5562 N   0  0  0  0  0  0  0  0  0  0  0  0
  -23.7664  -36.5574   23.7330 N   0  3  0  0  0  0  0  0  0  0  0  0
  -28.7776  -18.5104   22.4865 O   0  0  0  0  0  0  0  0  0  0  0  0
  -25.3073  -28.5361   21.4691 O   0  0  0  0  0  0  0  0  0  0  0  0
  -27.3439  -32.0191   22.3706 O   0  0  0  0  0  0  0  0  0  0  0  0
  -23.3998  -33.8250   24.2951 O   0  0  0  0  0  0  0  0  0  0  0  0
  -20.9305  -28.4088   23.2155 O   0  0  0  0  0  0  0  0  0  0  0  0
  -21.8064  -23.1634   18.2969 O   0  0  0  0  0  0  0  0  0  0  0  0
  -25.9530  -11.4584   20.7902 O   0  0  0  0  0  0  0  0  0  0  0  0
  -19.3629  -29.7885   20.5855 O   0  0  0  0  0  0  0  0  0  1  0  0
  -20.9016   -9.2499   20.8859 F   0  0  0  0  0  0  0  0  0  0  0  0
  -24.2470  -11.7259   18.6314 F   0  0  0  0  0  0  0  0  0  0  0  0
  -24.8198  -25.1989   23.6074 F   0  0  0  0  0  0  0  0  0  0  0  0
  -24.5663  -23.2351   22.7226 F   0  0  0  0  0  0  0  0  0  0  0  0
  -25.8516  -24.7009   21.7592 F   0  0  0  0  0  0  0  0  0  0  0  0
  -21.7752  -25.3971   19.7425 S   0  0  0  0  0  0  0  0  0  0  0  0
  1  2  1  0  0  0  0
  1  5  2  0  0  0  0
  2  6  2  0  0  0  0
  3  8  2  0  0  0  0
  3 16  1  0  0  0  0
  4  9  1  0  0  0  0
  4 16  2  0  0  0  0
  5 18  1  0  0  0  0
  6 20  1  0  0  0  0
  7 10  2  0  0  0  0
  7 19  1  0  0  0  0
  8 23  1  0  0  0  0
  9 23  2  0  0  0  0
 10 24  1  0  0  0  0
 11 12  2  0  0  0  0
 11 25  1  0  0  0  0
 12 26  1  0  0  0  0
 13 21  1  0  0  0  0
 13 24  2  0  0  0  0
 14 22  1  0  0  0  0
 14 30  2  0  0  0  0
 15 26  2  0  0  0  0
 15 27  1  0  0  0  0
 16 28  1  0  0  0  0
 17 28  1  0  0  0  0
 17 29  2  0  0  0  0
 17 32  1  0  0  0  0
 18 20  2  0  0  0  0
 18 38  1  0  0  0  0
 19 21  2  0  0  0  0
 19 39  1  0  0  0  0
 20 47  1  0  0  0  0
 21 40  1  0  0  0  0
 22 31  2  0  0  0  0
 22 60  1  0  0  0  0
 23 80  1  0  0  0  0
 24 81  1  0  0  0  0
 25 27  2  0  0  0  0
 25 80  1  0  0  0  0
 26 82  1  0  0  0  0
 27 83  1  0  0  0  0
 28 63  2  0  0  0  0
 29 64  1  0  0  0  0
 29 67  1  0  0  0  0
 30 69  1  0  0  0  0
 30 87  1  0  0  0  0
 31 72  1  0  0  0  0
 31 87  1  0  0  0  0
 32 68  1  0  0  0  0
 32 74  2  0  0  0  0
 33 48  1  0  0  0  0
 33 70  1  0  0  0  0
 33 75  2  0  0  0  0
 34 58  1  0  0  0  0
 34 65  1  0  0  0  0
 34 76  2  0  0  0  0
 35 59  1  0  0  0  0
 35 71  1  0  0  0  0
 35 77  2  0  0  0  0
 36 61  1  0  0  0  0
 36 69  1  0  0  0  0
 36 78  2  0  0  0  0
 37 66  1  0  0  0  0
 37 72  1  0  0  0  0
 37 79  2  0  0  0  0
 38 41  1  0  0  0  0
 39 48  1  0  0  0  0
 40 65  1  0  0  0  0
 41 43  1  0  0  0  0
 42 44  1  0  0  0  0
 42 45  1  0  0  0  0
 43 47  1  0  0  0  0
 44 49  1  0  0  0  0
 45 66  1  0  0  0  0
 46 49  1  0  0  0  0
 46 66  1  0  0  0  0
 47 70  1  0  0  0  0
 48 65  1  0  0  0  0
 49 64  1  0  0  0  0
 50 59  1  0  0  0  0
 51 61  1  0  0  0  0
 52 61  1  0  0  0  0
 53 62  1  0  0  0  0
 54 62  1  0  0  0  0
 55 62  1  0  0  0  0
 56 72  1  0  0  0  0
 57 73  1  0  0  0  0
 58 62  1  0  0  0  0
 58 71  1  0  0  0  0
 59 73  1  0  0  0  0
 60 84  1  0  0  0  0
 60 85  1  0  0  0  0
 60 86  1  0  0  0  0
 61 81  1  0  0  0  0
 63 64  1  0  0  0  0
M  CHG  1  73   1
M  ISO  4  37 100  61 101  72 100  81 101
M  END
> <Batch ID>
0184

> <Smiles>
CNC(C)C(=O)NC(C(=O)N1Cc2cc([101O:1][101C:1](C)(C)C(=O)Nc3cc(C(F)(F)F)c([100N:0](C)[100C:0](=O)N4CCCC(n5nc(-c6ccc(Oc7ccc(F)cc7F)cc6)c(C(N)=O)c5N)C4)s3)ccc2CC1C(=O)NC1CCCc2ccccc21)C(C)(C)C

> <Shape>
0.300

> <Color>
0.067

> <Negative vol penalty>
0.000

$$$$

  -OEChem-04052305023D

 83 91  0     1  0  0  0  0  0999 V2000
  -30.7995  -34.9546   24.0587 C   0  0  0  0  0  0  0  0  0  0  0  0
  -30.8213  -33.7954   23.2897 C   0  0  0  0  0  0  0  0  0  0  0  0
  -24.5068   -9.1261   20.4184 C   0  0  0  0  0  0  0  0  0  0  0  0
  -22.7030  -10.5924   21.0763 C   0  0  0  0  0  0  0  0  0  0  0  0
  -29.8513  -35.1008   25.0704 C   0  0  0  0  0  0  0  0  0  0  0  0
  -29.8955  -32.7814   23.5326 C   0  0  0  0  0  0  0  0  0  0  0  0
  -27.3161  -29.0812   19.3900 C   0  0  0  0  0  0  0  0  0  0  0  0
  -23.7842   -8.0279   20.8846 C   0  0  0  0  0  0  0  0  0  0  0  0
  -21.9803   -9.4942   21.5425 C   0  0  0  0  0  0  0  0  0  0  0  0
  -27.6040  -27.7775   18.9885 C   0  0  0  0  0  0  0  0  0  0  0  0
  -21.2236   -6.0954   19.8162 C   0  0  0  0  0  0  0  0  0  0  0  0
  -21.1736   -4.9610   19.0061 C   0  0  0  0  0  0  0  0  0  0  0  0
  -25.9261  -26.9453   20.5088 C   0  0  0  0  0  0  0  0  0  0  0  0
  -25.1666  -20.7576   21.2657 C   0  0  0  0  0  0  0  0  0  0  0  0
  -22.2109   -3.6629   20.7600 C   0  0  0  0  0  0  0  0  0  0  0  0
  -23.9662  -10.4084   20.5143 C   0  0  0  0  0  0  0  0  0  0  0  0
  -24.6849  -12.0913   18.7369 C   0  0  0  0  0  0  0  0  0  0  0  0
  -28.9073  -34.0922   25.3195 C   0  0  0  0  0  0  0  0  0  0  0  0
  -26.3370  -29.3264   20.3635 C   0  0  0  0  0  0  0  0  0  0  0  0
  -28.9346  -32.9137   24.5495 C   0  0  0  0  0  0  0  0  0  0  0  0
  -25.6259  -28.2532   20.9190 C   0  0  0  0  0  0  0  0  0  0  0  0
  -24.8323  -19.5764   21.9889 C   0  0  0  0  0  0  0  0  0  0  0  0
  -22.5210   -8.2119   21.4467 C   0  0  0  0  0  0  0  0  0  0  0  0
  -26.9110  -26.7091   19.5501 C   0  0  0  0  0  0  0  0  0  0  0  0
  -21.7673   -6.0136   21.0982 C   0  0  0  0  0  0  0  0  0  0  0  0
  -21.6673   -3.7447   19.4780 C   0  0  0  0  0  0  0  0  0  0  0  0
  -22.2609   -4.7973   21.5701 C   0  0  0  0  0  0  0  0  0  0  0  0
  -24.7125  -11.5433   20.0333 C   0  0  0  0  0  0  0  0  0  0  0  0
  -25.7376  -19.3106   22.9926 C   0  0  0  0  0  0  0  0  0  0  0  0
  -25.5619  -13.1470   18.7917 C   0  0  0  0  0  0  0  0  0  0  0  0
  -26.3146  -21.3499   21.7444 C   0  0  0  0  0  0  0  0  0  0  0  0
  -23.9336  -11.6828   17.5861 C   0  0  0  0  0  0  0  0  0  0  0  0
  -26.3341  -30.6246   23.2649 C   0  0  0  0  0  0  0  0  0  0  0  0
  -23.1217  -30.2609   22.9991 C   0  0  0  0  0  0  0  0  0  0  0  0
  -20.5016  -28.6169   21.5574 C   0  0  0  0  0  0  0  0  0  0  0  0
  -26.6442  -23.3846   20.2986 C   0  0  0  0  0  0  0  0  0  0  0  0
  -27.5211  -16.5915   23.2803 C   0  0  0  0  0  0  0  0  0  0  0  0
  -27.9318  -34.2754   26.4551 C   0  0  0  0  0  0  0  0  0  0  0  0
  -26.0196  -30.7404   20.7662 C   0  0  0  0  0  0  0  0  0  0  0  0
  -24.5512  -28.4644   21.9530 C   0  0  0  0  0  0  0  0  0  0  0  0
  -26.7473  -33.3139   26.4016 C   0  0  0  0  0  0  0  0  0  0  0  0
  -29.5015  -14.6279   21.0670 C   0  0  0  0  0  0  0  0  0  0  0  0
  -27.2259  -31.8921   26.1250 C   0  0  0  0  0  0  0  0  0  0  0  0
  -28.4962  -13.6641   20.4341 C   0  0  0  0  0  0  0  0  0  0  0  0
  -29.1731  -14.9038   22.5326 C   0  0  0  0  0  0  0  0  0  0  0  0
  -26.7903  -14.4047   22.1488 C   0  0  0  0  0  0  0  0  0  0  0  0
  -27.9311  -31.8019   24.7663 C   0  0  1  0  0  0  0  0  0  0  0  0
  -25.3618  -30.8373   22.1393 C   0  0  1  0  0  0  0  0  0  0  0  0
  -27.0477  -14.1396   20.6556 C   0  0  2  0  0  0  0  0  0  0  0  0
  -23.6466  -18.7396   21.6871 C   0  0  0  0  0  0  0  0  0  0  0  0
  -17.9943  -28.5144   21.5680 C   0  0  0  0  0  0  0  0  0  0  0  0
  -29.0322  -24.0295   19.8074 C   0  0  0  0  0  0  0  0  0  0  0  0
  -23.1963  -28.7694   25.6599 C   0  0  0  0  0  0  0  0  0  0  0  0
  -20.9075  -27.8910   25.1521 C   0  0  0  0  0  0  0  0  0  0  0  0
  -21.2724  -30.3461   25.4014 C   0  0  0  0  0  0  0  0  0  0  0  0
  -20.3441  -29.3437   18.6928 C   0  0  0  0  0  0  0  0  0  0  0  0
  -25.7494  -18.1906   23.9609 C   0  0  0  0  0  0  0  0  0  0  0  0
  -22.1379  -29.1675   23.3389 C   0  0  1  0  0  0  0  0  0  0  0  0
  -19.2240  -29.1258   20.9146 C   0  0  2  0  0  0  0  0  0  0  0  0
  -27.6423  -24.5323   20.1687 C   0  0  1  0  0  0  0  0  0  1  0  0
  -21.9001  -29.0391   24.8700 C   0  0  0  0  0  0  0  0  0  0  0  0
  -25.5414  -12.1966   20.8518 N   0  0  0  0  0  0  0  0  0  0  0  0
  -26.0429  -13.1661   20.0678 N   0  0  0  0  0  0  0  0  0  0  0  0
  -24.2818  -29.8649   22.3185 N   0  0  0  0  0  0  0  0  0  0  0  0
  -27.7858  -15.3526   22.6736 N   0  0  0  0  0  0  0  0  0  0  0  0
  -25.9608  -14.0514   17.8723 N   0  0  0  0  0  0  0  0  0  0  0  0
  -23.0793  -10.5779   17.7036 N   0  0  0  0  0  0  0  0  0  0  0  0
  -26.9958  -22.5188   21.3290 N   0  0  0  0  0  0  0  0  0  0  0  0
  -26.9602  -31.7796   23.6934 N   0  0  0  0  0  0  0  0  0  0  0  0
  -20.9316  -29.4500   22.5685 N   0  0  0  0  0  0  0  0  0  0  0  0
  -26.1799  -16.9439   23.3683 N   0  0  0  0  0  0  0  0  0  0  0  0
  -19.2032  -28.7861   19.4637 N   0  3  0  0  0  0  0  0  0  0  0  0
  -24.0298  -12.2697   16.4817 O   0  0  0  0  0  0  0  0  0  0  0  0
  -26.5028  -29.4964   23.7126 O   0  0  0  0  0  0  0  0  0  0  0  0
  -22.8670  -31.4246   23.3194 O   0  0  0  0  0  0  0  0  0  0  0  0
  -21.0601  -27.5817   21.2009 O   0  0  0  0  0  0  0  0  0  0  0  0
  -25.6650  -23.3064   19.5623 O   0  0  0  0  0  0  0  0  0  0  0  0
  -28.4142  -17.3314   23.7067 O   0  0  0  0  0  0  0  0  0  0  0  0
  -21.8154   -7.1405   21.9015 O   0  0  0  0  0  0  0  0  0  0  0  0
  -27.1905  -25.4355   19.1605 O   0  0  0  0  0  0  0  0  0  1  0  0
  -21.6178   -2.6551   18.7006 F   0  0  0  0  0  0  0  0  0  0  0  0
  -22.7833   -4.7123   22.8012 F   0  0  0  0  0  0  0  0  0  0  0  0
  -26.9843  -20.4826   23.0603 S   0  0  0  0  0  0  0  0  0  0  0  0
  1  2  1  0  0  0  0
  1  5  2  0  0  0  0
  2  6  2  0  0  0  0
  3  8  2  0  0  0  0
  3 16  1  0  0  0  0
  4  9  1  0  0  0  0
  4 16  2  0  0  0  0
  5 18  1  0  0  0  0
  6 20  1  0  0  0  0
  7 10  2  0  0  0  0
  7 19  1  0  0  0  0
  8 23  1  0  0  0  0
  9 23  2  0  0  0  0
 10 24  1  0  0  0  0
 11 12  2  0  0  0  0
 11 25  1  0  0  0  0
 12 26  1  0  0  0  0
 13 21  1  0  0  0  0
 13 24  2  0  0  0  0
 14 22  1  0  0  0  0
 14 31  2  0  0  0  0
 15 26  2  0  0  0  0
 15 27  1  0  0  0  0
 16 28  1  0  0  0  0
 17 28  1  0  0  0  0
 17 30  2  0  0  0  0
 17 32  1  0  0  0  0
 18 20  2  0  0  0  0
 18 38  1  0  0  0  0
 19 21  2  0  0  0  0
 19 39  1  0  0  0  0
 20 47  1  0  0  0  0
 21 40  1  0  0  0  0
 22 29  2  0  0  0  0
 22 50  1  0  0  0  0
 23 79  1  0  0  0  0
 24 80  1  0  0  0  0
 25 27  2  0  0  0  0
 25 79  1  0  0  0  0
 26 81  1  0  0  0  0
 27 82  1  0  0  0  0
 28 62  2  0  0  0  0
 29 57  1  0  0  0  0
 29 83  1  0  0  0  0
 30 63  1  0  0  0  0
 30 66  1  0  0  0  0
 31 68  1  0  0  0  0
 31 83  1  0  0  0  0
 32 67  1  0  0  0  0
 32 73  2  0  0  0  0
 33 48  1  0  0  0  0
 33 69  1  0  0  0  0
 33 74  2  0  0  0  0
 34 58  1  0  0  0  0
 34 64  1  0  0  0  0
 34 75  2  0  0  0  0
 35 59  1  0  0  0  0
 35 70  1  0  0  0  0
 35 76  2  0  0  0  0
 36 60  1  0  0  0  0
 36 68  1  0  0  0  0
 36 77  2  0  0  0  0
 37 65  1  0  0  0  0
 37 71  1  0  0  0  0
 37 78  2  0  0  0  0
 38 41  1  0  0  0  0
 39 48  1  0  0  0  0
 40 64  1  0  0  0  0
 41 43  1  0  0  0  0
 42 44  1  0  0  0  0
 42 45  1  0  0  0  0
 43 47  1  0  0  0  0
 44 49  1  0  0  0  0
 45 65  1  0  0  0  0
 46 49  1  0  0  0  0
 46 65  1  0  0  0  0
 47 69  1  0  0  0  0
 48 64  1  0  0  0  0
 49 63  1  0  0  0  0
 51 59  1  0  0  0  0
 52 60  1  0  0  0  0
 53 61  1  0  0  0  0
 54 61  1  0  0  0  0
 55 61  1  0  0  0  0
 56 72  1  0  0  0  0
 57 71  1  0  0  0  0
 58 61  1  0  0  0  0
 58 70  1  0  0  0  0
 59 72  1  0  0  0  0
 60 80  1  0  0  0  0
 62 63  1  0  0  0  0
M  CHG  1  72   1
M  ISO  4  37 100  60 101  71 100  80 101
M  END
> <Batch ID>
0184

> <Smiles>
CNC(C)C(=O)NC(C(=O)N1Cc2cc([101O:1][101CH:1](C)C(=O)Nc3cc(C)c(C[100NH:0][100C:0](=O)N4CCCC(n5nc(-c6ccc(Oc7ccc(F)cc7F)cc6)c(C(N)=O)c5N)C4)s3)ccc2CC1C(=O)NC1CCCc2ccccc21)C(C)(C)C

> <Shape>
0.231

> <Color>
0.095

> <Negative vol penalty>
0.000

$$$$

  -OEChem-04052305023D

 83 91  0     1  0  0  0  0  0999 V2000
  -26.5906  -10.6255   20.4975 C   0  0  0  0  0  0  0  0  0  0  0  0
  -26.8012  -11.5135   21.5475 C   0  0  0  0  0  0  0  0  0  0  0  0
  -27.3333  -25.9968   17.7269 C   0  0  0  0  0  0  0  0  0  0  0  0
  -27.4279  -25.8494   20.1366 C   0  0  0  0  0  0  0  0  0  0  0  0
  -26.2842  -11.1105   19.2267 C   0  0  0  0  0  0  0  0  0  0  0  0
  -26.7066  -12.8872   21.3270 C   0  0  0  0  0  0  0  0  0  0  0  0
  -24.0791  -15.2596   24.9481 C   0  0  0  0  0  0  0  0  0  0  0  0
  -26.2177  -26.8287   17.8216 C   0  0  0  0  0  0  0  0  0  0  0  0
  -26.3124  -26.6814   20.2313 C   0  0  0  0  0  0  0  0  0  0  0  0
  -24.7351  -15.5056   26.1534 C   0  0  0  0  0  0  0  0  0  0  0  0
  -25.6471  -29.9874   20.0128 C   0  0  0  0  0  0  0  0  0  0  0  0
  -25.6882  -31.0198   20.9500 C   0  0  0  0  0  0  0  0  0  0  0  0
  -25.1330  -17.7831   25.4652 C   0  0  0  0  0  0  0  0  0  0  0  0
  -23.7507  -30.0926   22.0561 C   0  0  0  0  0  0  0  0  0  0  0  0
  -30.0104  -16.7135   22.8341 C   0  0  0  0  0  0  0  0  0  0  0  0
  -27.9384  -25.5070   18.8844 C   0  0  0  0  0  0  0  0  0  0  0  0
  -30.4426  -25.0376   18.7582 C   0  0  0  0  0  0  0  0  0  0  0  0
  -26.1763  -12.4904   18.9927 C   0  0  0  0  0  0  0  0  0  0  0  0
  -23.9544  -16.2722   23.9861 C   0  0  0  0  0  0  0  0  0  0  0  0
  -26.3998  -13.3911   20.0516 C   0  0  0  0  0  0  0  0  0  0  0  0
  -24.4727  -17.5482   24.2495 C   0  0  0  0  0  0  0  0  0  0  0  0
  -29.3043  -17.8839   22.6626 C   0  0  0  0  0  0  0  0  0  0  0  0
  -25.7073  -27.1710   19.0738 C   0  0  0  0  0  0  0  0  0  0  0  0
  -25.2647  -16.7667   26.4110 C   0  0  0  0  0  0  0  0  0  0  0  0
  -24.6578  -29.0077   20.0973 C   0  0  0  0  0  0  0  0  0  0  0  0
  -24.7400  -31.0723   21.9716 C   0  0  0  0  0  0  0  0  0  0  0  0
  -23.7096  -29.0603   21.1189 C   0  0  0  0  0  0  0  0  0  0  0  0
  -28.6433  -18.2901   23.8577 C   0  0  0  0  0  0  0  0  0  0  0  0
  -29.0904  -24.6471   18.7872 C   0  0  0  0  0  0  0  0  0  0  0  0
  -28.8691  -17.4145   24.8970 C   0  0  0  0  0  0  0  0  0  0  0  0
  -31.1387  -23.8577   18.6595 C   0  0  0  0  0  0  0  0  0  0  0  0
  -31.0181  -26.3496   18.8154 C   0  0  0  0  0  0  0  0  0  0  0  0
  -28.3644  -17.4761   26.2971 C   0  0  0  0  0  0  0  0  0  0  0  0
  -24.9525  -16.6579   20.9929 C   0  0  0  0  0  0  0  0  0  0  0  0
  -23.1392  -19.3431   21.1465 C   0  0  0  0  0  0  0  0  0  0  0  0
  -21.6846  -21.7501   23.0797 C   0  0  0  0  0  0  0  0  0  0  0  0
  -29.8819  -18.2326   20.2355 C   0  0  0  0  0  0  0  0  0  0  0  0
  -25.8896  -12.9688   17.5914 C   0  0  0  0  0  0  0  0  0  0  0  0
  -23.2204  -15.9984   22.7020 C   0  0  0  0  0  0  0  0  0  0  0  0
  -24.3476  -18.6752   23.2581 C   0  0  0  0  0  0  0  0  0  0  0  0
  -25.4391  -14.4259   17.5255 C   0  0  0  0  0  0  0  0  0  0  0  0
  -30.7220  -19.3937   16.9761 C   0  0  0  0  0  0  0  0  0  0  0  0
  -26.3447  -15.3040   18.3832 C   0  0  0  0  0  0  0  0  0  0  0  0
  -30.5279  -20.9088   17.0698 C   0  0  0  0  0  0  0  0  0  0  0  0
  -29.6760  -18.6363   17.7922 C   0  0  0  0  0  0  0  0  0  0  0  0
  -29.3681  -20.5685   19.2893 C   0  0  0  0  0  0  0  0  0  0  0  0
  -26.2817  -14.8872   19.8576 C   0  0  1  0  0  0  0  0  0  0  0  0
  -23.6021  -16.9582   21.5793 C   0  0  1  0  0  0  0  0  0  0  0  0
  -30.4377  -21.3759   18.5359 C   0  0  2  0  0  0  0  0  0  0  0  0
  -20.2975  -23.8351   22.9176 C   0  0  0  0  0  0  0  0  0  0  0  0
  -25.5971  -20.9045   20.2350 C   0  0  0  0  0  0  0  0  0  0  0  0
  -24.4617  -23.0015   20.9976 C   0  0  0  0  0  0  0  0  0  0  0  0
  -23.4498  -21.6286   19.1772 C   0  0  0  0  0  0  0  0  0  0  0  0
  -27.0940  -18.3501   29.1638 C   0  0  0  0  0  0  0  0  0  0  0  0
  -25.2511  -19.3062   27.7710 C   0  0  0  0  0  0  0  0  0  0  0  0
  -19.4846  -20.5480   24.6527 C   0  0  0  0  0  0  0  0  0  0  0  0
  -27.4696  -18.6455   26.6975 C   0  0  0  0  0  0  0  0  0  0  0  0
  -23.3827  -20.7756   21.5562 C   0  0  1  0  0  0  0  0  0  0  0  0
  -20.2791  -22.3238   23.0861 C   0  0  2  0  0  0  0  0  0  0  0  0
  -24.2270  -21.5560   20.5096 C   0  0  0  0  0  0  0  0  0  0  0  0
  -26.4244  -18.3240   27.7842 C   0  0  0  0  0  0  0  0  0  1  0  0
  -28.9344  -23.3227   18.7128 N   0  0  0  0  0  0  0  0  0  0  0  0
  -30.1977  -22.8707   18.6360 N   0  0  0  0  0  0  0  0  0  0  0  0
  -23.6269  -18.3561   22.0147 N   0  0  0  0  0  0  0  0  0  0  0  0
  -29.6503  -19.1293   19.1710 N   0  0  0  0  0  0  0  0  0  0  0  0
  -32.4577  -23.5785   18.5913 N   0  0  0  0  0  0  0  0  0  0  0  0
  -30.1588  -27.4523   18.9159 N   0  0  0  0  0  0  0  0  0  0  0  0
  -29.2565  -18.5836   21.4314 N   0  0  0  0  0  0  0  0  0  0  0  0
  -25.0688  -15.3834   20.4716 N   0  0  0  0  0  0  0  0  0  0  0  0
  -22.0691  -21.3547   21.8160 N   0  0  0  0  0  0  0  0  0  0  0  0
  -19.5942  -22.0024   24.3701 N   0  3  0  0  0  0  0  0  0  0  0  0
  -32.2568  -26.5395   18.7620 O   0  0  0  0  0  0  0  0  0  0  0  0
  -28.7063  -16.6010   27.0882 O   0  0  0  0  0  0  0  0  0  0  0  0
  -25.8241  -17.5192   21.0108 O   0  0  0  0  0  0  0  0  0  0  0  0
  -22.5322  -19.1087   20.0986 O   0  0  0  0  0  0  0  0  0  0  0  0
  -22.3738  -21.6649   24.0937 O   0  0  0  0  0  0  0  0  0  0  0  0
  -30.6053  -17.2420   20.1038 O   0  0  0  0  0  0  0  0  0  0  0  0
  -24.6189  -27.9830   19.1666 O   0  0  0  0  0  0  0  0  0  0  0  0
  -25.9061  -17.0092   27.5864 O   0  0  0  0  0  0  0  0  0  1  0  0
  -24.7805  -32.0629   22.8724 F   0  0  0  0  0  0  0  0  0  0  0  0
  -22.7575  -28.1213   21.2059 F   0  0  0  0  0  0  0  0  0  0  0  0
  -27.8931  -19.3901   23.9584 F   0  0  0  0  0  0  0  0  0  0  0  0
  -29.8746  -16.1093   24.4306 S   0  0  0  0  0  0  0  0  0  0  0  0
  1  2  1  0  0  0  0
  1  5  2  0  0  0  0
  2  6  2  0  0  0  0
  3  8  2  0  0  0  0
  3 16  1  0  0  0  0
  4  9  1  0  0  0  0
  4 16  2  0  0  0  0
  5 18  1  0  0  0  0
  6 20  1  0  0  0  0
  7 10  2  0  0  0  0
  7 19  1  0  0  0  0
  8 23  1  0  0  0  0
  9 23  2  0  0  0  0
 10 24  1  0  0  0  0
 11 12  2  0  0  0  0
 11 25  1  0  0  0  0
 12 26  1  0  0  0  0
 13 21  1  0  0  0  0
 13 24  2  0  0  0  0
 14 26  2  0  0  0  0
 14 27  1  0  0  0  0
 15 22  2  0  0  0  0
 15 83  1  0  0  0  0
 16 29  1  0  0  0  0
 17 29  1  0  0  0  0
 17 31  2  0  0  0  0
 17 32  1  0  0  0  0
 18 20  2  0  0  0  0
 18 38  1  0  0  0  0
 19 21  2  0  0  0  0
 19 39  1  0  0  0  0
 20 47  1  0  0  0  0
 21 40  1  0  0  0  0
 22 28  1  0  0  0  0
 22 68  1  0  0  0  0
 23 78  1  0  0  0  0
 24 79  1  0  0  0  0
 25 27  2  0  0  0  0
 25 78  1  0  0  0  0
 26 80  1  0  0  0  0
 27 81  1  0  0  0  0
 28 30  2  0  0  0  0
 28 82  1  0  0  0  0
 29 62  2  0  0  0  0
 30 33  1  0  0  0  0
 30 83  1  0  0  0  0
 31 63  1  0  0  0  0
 31 66  1  0  0  0  0
 32 67  1  0  0  0  0
 32 72  2  0  0  0  0
 33 57  1  0  0  0  0
 33 73  2  0  0  0  0
 34 48  1  0  0  0  0
 34 69  1  0  0  0  0
 34 74  2  0  0  0  0
 35 58  1  0  0  0  0
 35 64  1  0  0  0  0
 35 75  2  0  0  0  0
 36 59  1  0  0  0  0
 36 70  1  0  0  0  0
 36 76  2  0  0  0  0
 37 65  1  0  0  0  0
 37 68  1  0  0  0  0
 37 77  2  0  0  0  0
 38 41  1  0  0  0  0
 39 48  1  0  0  0  0
 40 64  1  0  0  0  0
 41 43  1  0  0  0  0
 42 44  1  0  0  0  0
 42 45  1  0  0  0  0
 43 47  1  0  0  0  0
 44 49  1  0  0  0  0
 45 65  1  0  0  0  0
 46 49  1  0  0  0  0
 46 65  1  0  0  0  0
 47 69  1  0  0  0  0
 48 64  1  0  0  0  0
 49 63  1  0  0  0  0
 50 59  1  0  0  0  0
 51 60  1  0  0  0  0
 52 60  1  0  0  0  0
 53 60  1  0  0  0  0
 54 61  1  0  0  0  0
 55 61  1  0  0  0  0
 56 71  1  0  0  0  0
 57 61  1  0  0  0  0
 58 60  1  0  0  0  0
 58 70  1  0  0  0  0
 59 71  1  0  0  0  0
 61 79  1  0  0  0  0
 62 63  1  0  0  0  0
M  CHG  1  71   1
M  ISO  4  37 100  61 101  68 100  79 101
M  END
> <Batch ID>
0184

> <Smiles>
CNC(C)C(=O)NC(C(=O)N1Cc2cc([101O:1][101C:1](C)(C)CC(=O)c3scc([100NH:0][100C:0](=O)N4CCCC(n5nc(-c6ccc(Oc7ccc(F)cc7F)cc6)c(C(N)=O)c5N)C4)c3F)ccc2CC1C(=O)NC1CCCc2ccccc21)C(C)(C)C

> <Shape>
0.185

> <Color>
0.069

> <Negative vol penalty>
0.000

$$$$

  -OEChem-04052305023D

 84 92  0     1  0  0  0  0  0999 V2000
  -31.4274  -34.4777   23.2803 C   0  0  0  0  0  0  0  0  0  0  0  0
  -31.2252  -33.3103   22.5512 C   0  0  0  0  0  0  0  0  0  0  0  0
  -23.2470  -10.3901   22.3217 C   0  0  0  0  0  0  0  0  0  0  0  0
  -24.2378  -11.8201   23.9982 C   0  0  0  0  0  0  0  0  0  0  0  0
  -30.6340  -34.7488   24.3943 C   0  0  0  0  0  0  0  0  0  0  0  0
  -30.2300  -32.4126   22.9364 C   0  0  0  0  0  0  0  0  0  0  0  0
  -26.7631  -28.9578   19.2552 C   0  0  0  0  0  0  0  0  0  0  0  0
  -22.5987   -9.6662   23.3223 C   0  0  0  0  0  0  0  0  0  0  0  0
  -23.5894  -11.0962   24.9988 C   0  0  0  0  0  0  0  0  0  0  0  0
  -26.8528  -27.6229   18.8631 C   0  0  0  0  0  0  0  0  0  0  0  0
  -19.8652  -10.0213   25.2806 C   0  0  0  0  0  0  0  0  0  0  0  0
  -18.5199   -9.7083   25.0862 C   0  0  0  0  0  0  0  0  0  0  0  0
  -25.2944  -27.0140   20.6009 C   0  0  0  0  0  0  0  0  0  0  0  0
  -19.0483   -7.3545   25.2184 C   0  0  0  0  0  0  0  0  0  0  0  0
  -24.0666  -11.4671   22.6597 C   0  0  0  0  0  0  0  0  0  0  0  0
  -24.2521  -13.3483   20.9467 C   0  0  0  0  0  0  0  0  0  0  0  0
  -29.6222  -33.8587   24.7876 C   0  0  0  0  0  0  0  0  0  0  0  0
  -25.9454  -29.3299   20.3319 C   0  0  0  0  0  0  0  0  0  0  0  0
  -29.4232  -32.6714   24.0574 C   0  0  0  0  0  0  0  0  0  0  0  0
  -25.1941  -28.3546   21.0031 C   0  0  0  0  0  0  0  0  0  0  0  0
  -22.7699  -10.0192   24.6609 C   0  0  0  0  0  0  0  0  0  0  0  0
  -26.1207  -26.6503   19.5378 C   0  0  0  0  0  0  0  0  0  0  0  0
  -20.8021   -9.0008   25.4438 C   0  0  0  0  0  0  0  0  0  0  0  0
  -18.1114   -8.3750   25.0551 C   0  0  0  0  0  0  0  0  0  0  0  0
  -20.3936   -7.6675   25.4128 C   0  0  0  0  0  0  0  0  0  0  0  0
  -24.7370  -12.2149   21.6266 C   0  0  0  0  0  0  0  0  0  0  0  0
  -30.6258  -19.3199   18.0166 C   0  0  0  0  0  0  0  0  0  0  0  0
  -31.6640  -18.5430   17.5468 C   0  0  0  0  0  0  0  0  0  0  0  0
  -25.2572  -13.6797   20.0713 C   0  0  0  0  0  0  0  0  0  0  0  0
  -30.4984  -16.9716   18.5377 C   0  0  0  0  0  0  0  0  0  0  0  0
  -23.0047  -14.0397   21.0935 C   0  0  0  0  0  0  0  0  0  0  0  0
  -30.3709  -20.7853   17.8893 C   0  0  0  0  0  0  0  0  0  0  0  0
  -26.4460  -30.6709   23.1700 C   0  0  0  0  0  0  0  0  0  0  0  0
  -27.6853  -23.4487   18.8708 C   0  0  0  0  0  0  0  0  0  0  0  0
  -23.2051  -30.6707   23.3069 C   0  0  0  0  0  0  0  0  0  0  0  0
  -20.2606  -29.3105   22.2457 C   0  0  0  0  0  0  0  0  0  0  0  0
  -30.6451  -14.4859   18.9205 C   0  0  0  0  0  0  0  0  0  0  0  0
  -28.8213  -34.1717   26.0266 C   0  0  0  0  0  0  0  0  0  0  0  0
  -25.8390  -30.7778   20.7254 C   0  0  0  0  0  0  0  0  0  0  0  0
  -24.2860  -28.7050   22.1524 C   0  0  0  0  0  0  0  0  0  0  0  0
  -27.5401  -33.3505   26.1473 C   0  0  0  0  0  0  0  0  0  0  0  0
  -29.4293  -11.1446   18.7339 C   0  0  0  0  0  0  0  0  0  0  0  0
  -27.8202  -31.8789   25.8597 C   0  0  0  0  0  0  0  0  0  0  0  0
  -28.0603  -11.2184   19.4139 C   0  0  0  0  0  0  0  0  0  0  0  0
  -30.4493  -12.0579   19.4117 C   0  0  0  0  0  0  0  0  0  0  0  0
  -28.6574  -13.5298   20.2435 C   0  0  0  0  0  0  0  0  0  0  0  0
  -28.3373  -31.6851   24.4291 C   0  0  1  0  0  0  0  0  0  0  0  0
  -25.3713  -30.9731   22.1644 C   0  0  1  0  0  0  0  0  0  0  0  0
  -27.5795  -12.6759   19.5559 C   0  0  2  0  0  0  0  0  0  0  0  0
  -17.7781  -29.4943   22.5631 C   0  0  0  0  0  0  0  0  0  0  0  0
  -23.4431  -29.2275   25.9847 C   0  0  0  0  0  0  0  0  0  0  0  0
  -21.0258  -28.6066   25.7858 C   0  0  0  0  0  0  0  0  0  0  0  0
  -21.6885  -31.0082   25.9116 C   0  0  0  0  0  0  0  0  0  0  0  0
  -19.8309  -29.9999   19.3998 C   0  0  0  0  0  0  0  0  0  0  0  0
  -29.1150  -21.3670   18.5258 C   0  0  0  0  0  0  0  0  0  0  0  0
  -28.9682  -22.8698   18.2915 C   0  0  0  0  0  0  0  0  0  0  0  0
  -27.4413  -24.9174   18.5844 C   0  0  0  0  0  0  0  0  0  1  0  0
  -22.1558  -29.7026   23.7976 C   0  0  1  0  0  0  0  0  0  0  0  0
  -18.9775  -29.9501   21.7467 C   0  0  2  0  0  0  0  0  0  0  0  0
  -22.0968  -29.6290   25.3496 C   0  0  0  0  0  0  0  0  0  0  0  0
  -25.9553  -11.8506   21.2180 N   0  0  0  0  0  0  0  0  0  0  0  0
  -31.5929  -17.1962   17.8451 N   0  0  0  0  0  0  0  0  0  0  0  0
  -26.2444  -12.7603   20.2719 N   0  0  0  0  0  0  0  0  0  0  0  0
  -24.2208  -30.1332   22.5036 N   0  0  0  0  0  0  0  0  0  0  0  0
  -29.9269  -13.4227   19.5075 N   0  0  0  0  0  0  0  0  0  0  0  0
  -32.7074  -19.0289   16.8325 N   0  0  0  0  0  0  0  0  0  0  0  0
  -25.3840  -14.6648   19.1570 N   0  0  0  0  0  0  0  0  0  0  0  0
  -22.0855  -13.5661   22.0396 N   0  0  0  0  0  0  0  0  0  0  0  0
  -30.0347  -15.7333   19.0473 N   0  0  0  0  0  0  0  0  0  0  0  0
  -27.2444  -31.7545   23.4830 N   0  0  0  0  0  0  0  0  0  0  0  0
  -20.9022  -30.1069   23.1705 N   0  0  0  0  0  0  0  0  0  0  0  0
  -18.7395  -29.5895   20.3204 N   0  3  0  0  0  0  0  0  0  0  0  0
  -22.7070  -15.0379   20.3945 O   0  0  0  0  0  0  0  0  0  0  0  0
  -31.1787  -21.4825   17.2799 O   0  0  0  0  0  0  0  0  0  0  0  0
  -26.5427  -29.5389   23.6293 O   0  0  0  0  0  0  0  0  0  0  0  0
  -26.8948  -22.7789   19.5335 O   0  0  0  0  0  0  0  0  0  0  0  0
  -23.1225  -31.8613   23.6189 O   0  0  0  0  0  0  0  0  0  0  0  0
  -20.6524  -28.2123   21.8569 O   0  0  0  0  0  0  0  0  0  0  0  0
  -31.7087  -14.2993   18.3239 O   0  0  0  0  0  0  0  0  0  0  0  0
  -22.1372   -9.3132   25.6375 O   0  0  0  0  0  0  0  0  0  0  0  0
  -26.2069  -25.3466   19.1576 O   0  0  0  0  0  0  0  0  0  1  0  0
  -16.8192   -8.0747   24.8700 F   0  0  0  0  0  0  0  0  0  0  0  0
  -21.2889   -6.6829   25.5702 F   0  0  0  0  0  0  0  0  0  0  0  0
  -29.5084  -18.3343   18.8660 S   0  0  0  0  0  0  0  0  0  0  0  0
  1  2  1  0  0  0  0
  1  5  2  0  0  0  0
  2  6  2  0  0  0  0
  3  8  2  0  0  0  0
  3 15  1  0  0  0  0
  4  9  1  0  0  0  0
  4 15  2  0  0  0  0
  5 17  1  0  0  0  0
  6 19  1  0  0  0  0
  7 10  2  0  0  0  0
  7 18  1  0  0  0  0
  8 21  1  0  0  0  0
  9 21  2  0  0  0  0
 10 22  1  0  0  0  0
 11 12  2  0  0  0  0
 11 23  1  0  0  0  0
 12 24  1  0  0  0  0
 13 20  1  0  0  0  0
 13 22  2  0  0  0  0
 14 24  2  0  0  0  0
 14 25  1  0  0  0  0
 15 26  1  0  0  0  0
 16 26  1  0  0  0  0
 16 29  2  0  0  0  0
 16 31  1  0  0  0  0
 17 19  2  0  0  0  0
 17 38  1  0  0  0  0
 18 20  2  0  0  0  0
 18 39  1  0  0  0  0
 19 47  1  0  0  0  0
 20 40  1  0  0  0  0
 21 80  1  0  0  0  0
 22 81  1  0  0  0  0
 23 25  2  0  0  0  0
 23 80  1  0  0  0  0
 24 82  1  0  0  0  0
 25 83  1  0  0  0  0
 26 61  2  0  0  0  0
 27 28  2  0  0  0  0
 27 32  1  0  0  0  0
 27 84  1  0  0  0  0
 28 62  1  0  0  0  0
 28 66  1  0  0  0  0
 29 63  1  0  0  0  0
 29 67  1  0  0  0  0
 30 62  2  0  0  0  0
 30 69  1  0  0  0  0
 30 84  1  0  0  0  0
 31 68  1  0  0  0  0
 31 73  2  0  0  0  0
 32 55  1  0  0  0  0
 32 74  2  0  0  0  0
 33 48  1  0  0  0  0
 33 70  1  0  0  0  0
 33 75  2  0  0  0  0
 34 56  1  0  0  0  0
 34 57  1  0  0  0  0
 34 76  2  0  0  0  0
 35 58  1  0  0  0  0
 35 64  1  0  0  0  0
 35 77  2  0  0  0  0
 36 59  1  0  0  0  0
 36 71  1  0  0  0  0
 36 78  2  0  0  0  0
 37 65  1  0  0  0  0
 37 69  1  0  0  0  0
 37 79  2  0  0  0  0
 38 41  1  0  0  0  0
 39 48  1  0  0  0  0
 40 64  1  0  0  0  0
 41 43  1  0  0  0  0
 42 44  1  0  0  0  0
 42 45  1  0  0  0  0
 43 47  1  0  0  0  0
 44 49  1  0  0  0  0
 45 65  1  0  0  0  0
 46 49  1  0  0  0  0
 46 65  1  0  0  0  0
 47 70  1  0  0  0  0
 48 64  1  0  0  0  0
 49 63  1  0  0  0  0
 50 59  1  0  0  0  0
 51 60  1  0  0  0  0
 52 60  1  0  0  0  0
 53 60  1  0  0  0  0
 54 72  1  0  0  0  0
 55 56  1  0  0  0  0
 57 81  1  0  0  0  0
 58 60  1  0  0  0  0
 58 71  1  0  0  0  0
 59 72  1  0  0  0  0
 61 63  1  0  0  0  0
M  CHG  1  72   1
M  ISO  4  37 100  57 101  69 100  81 101
M  END
> <Batch ID>
0184

> <Smiles>
CNC(C)C(=O)NC(C(=O)N1Cc2cc([101O:1][101CH2:1]C(=O)CCC(=O)c3sc([100NH:0][100C:0](=O)N4CCCC(n5nc(-c6ccc(Oc7ccc(F)cc7F)cc6)c(C(N)=O)c5N)C4)nc3N)ccc2CC1C(=O)NC1CCCc2ccccc21)C(C)(C)C

> <Shape>
0.249

> <Color>
0.124

> <Negative vol penalty>
0.000

$$$$

  -OEChem-04052305023D

 87 95  0     1  0  0  0  0  0999 V2000
  -23.1748  -36.8236   26.8298 C   0  0  0  0  0  0  0  0  0  0  0  0
  -22.4798  -35.8953   26.0612 C   0  0  0  0  0  0  0  0  0  0  0  0
  -23.8744   -9.9122   22.1130 C   0  0  0  0  0  0  0  0  0  0  0  0
  -22.2649  -10.3757   20.3718 C   0  0  0  0  0  0  0  0  0  0  0  0
  -24.5459  -36.9944   26.6434 C   0  0  0  0  0  0  0  0  0  0  0  0
  -23.1555  -35.1380   25.1049 C   0  0  0  0  0  0  0  0  0  0  0  0
  -21.9923  -29.3422   23.5046 C   0  0  0  0  0  0  0  0  0  0  0  0
  -23.4364   -8.5890   22.1656 C   0  0  0  0  0  0  0  0  0  0  0  0
  -21.8269   -9.0524   20.4244 C   0  0  0  0  0  0  0  0  0  0  0  0
  -21.2824  -28.7873   22.4407 C   0  0  0  0  0  0  0  0  0  0  0  0
  -22.4953   -5.1792   23.0092 C   0  0  0  0  0  0  0  0  0  0  0  0
  -22.2833   -4.6142   24.2667 C   0  0  0  0  0  0  0  0  0  0  0  0
  -23.3419  -28.5215   21.2131 C   0  0  0  0  0  0  0  0  0  0  0  0
  -22.8723  -21.4236   19.9392 C   0  0  0  0  0  0  0  0  0  0  0  0
  -20.6289   -6.3077   24.7487 C   0  0  0  0  0  0  0  0  0  0  0  0
  -23.2886  -10.8056   21.2161 C   0  0  0  0  0  0  0  0  0  0  0  0
  -24.7660  -12.6976   20.3528 C   0  0  0  0  0  0  0  0  0  0  0  0
  -25.2405  -36.2320   25.6911 C   0  0  0  0  0  0  0  0  0  0  0  0
  -23.3833  -29.5012   23.4263 C   0  0  0  0  0  0  0  0  0  0  0  0
  -24.5370  -35.2997   24.9047 C   0  0  0  0  0  0  0  0  0  0  0  0
  -24.0674  -29.0764   22.2784 C   0  0  0  0  0  0  0  0  0  0  0  0
  -23.2881  -22.2655   18.8675 C   0  0  0  0  0  0  0  0  0  0  0  0
  -22.4127   -8.1591   21.3214 C   0  0  0  0  0  0  0  0  0  0  0  0
  -21.9568  -28.3796   21.2935 C   0  0  0  0  0  0  0  0  0  0  0  0
  -21.7741   -6.3086   22.6214 C   0  0  0  0  0  0  0  0  0  0  0  0
  -21.3501   -5.1784   25.1365 C   0  0  0  0  0  0  0  0  0  0  0  0
  -20.8409   -6.8728   23.4912 C   0  0  0  0  0  0  0  0  0  0  0  0
  -23.7402  -12.1728   21.1616 C   0  0  0  0  0  0  0  0  0  0  0  0
  -23.7764  -21.5429   17.8013 C   0  0  0  0  0  0  0  0  0  0  0  0
  -24.8049  -14.0332   20.6712 C   0  0  0  0  0  0  0  0  0  0  0  0
  -23.0586  -20.0893   19.6510 C   0  0  0  0  0  0  0  0  0  0  0  0
  -25.6083  -12.0370   19.3990 C   0  0  0  0  0  0  0  0  0  0  0  0
  -25.3644  -31.9861   23.4949 C   0  0  0  0  0  0  0  0  0  0  0  0
  -22.2661  -25.7712   19.5414 C   0  0  0  0  0  0  0  0  0  0  0  0
  -27.6402  -29.6746   23.5053 C   0  0  0  0  0  0  0  0  0  0  0  0
  -28.5105  -26.4622   22.7505 C   0  0  0  0  0  0  0  0  0  0  0  0
  -22.2488  -18.8712   21.7021 C   0  0  0  0  0  0  0  0  0  0  0  0
  -26.7140  -36.4855   25.4928 C   0  0  0  0  0  0  0  0  0  0  0  0
  -24.1377  -30.0769   24.5933 C   0  0  0  0  0  0  0  0  0  0  0  0
  -25.5626  -29.2066   22.1526 C   0  0  0  0  0  0  0  0  0  0  0  0
  -27.4239  -35.3774   24.7191 C   0  0  0  0  0  0  0  0  0  0  0  0
  -22.5641  -16.5925   24.4196 C   0  0  0  0  0  0  0  0  0  0  0  0
  -26.6179  -34.9878   23.4841 C   0  0  0  0  0  0  0  0  0  0  0  0
  -22.9826  -15.2827   23.7477 C   0  0  0  0  0  0  0  0  0  0  0  0
  -21.5680  -17.3750   23.5656 C   0  0  0  0  0  0  0  0  0  0  0  0
  -22.4138  -16.3116   21.5106 C   0  0  0  0  0  0  0  0  0  0  0  0
  -25.2392  -34.4418   23.8747 C   0  0  1  0  0  0  0  0  0  0  0  0
  -25.4893  -30.6649   24.1996 C   0  0  1  0  0  0  0  0  0  0  0  0
  -23.4662  -15.5195   22.3036 C   0  0  2  0  0  0  0  0  0  0  0  0
  -24.3039  -22.0321   16.5066 C   0  0  0  0  0  0  0  0  0  0  0  0
  -19.7841  -26.1073   19.5487 C   0  0  0  0  0  0  0  0  0  0  0  0
  -30.4514  -24.8740   22.8409 C   0  0  0  0  0  0  0  0  0  0  0  0
  -28.8917  -31.0709   21.0982 C   0  0  0  0  0  0  0  0  0  0  0  0
  -30.2063  -28.9857   20.6601 C   0  0  0  0  0  0  0  0  0  0  0  0
  -30.5334  -30.2394   22.7917 C   0  0  0  0  0  0  0  0  0  0  0  0
  -27.0578  -24.6060   24.5403 C   0  0  0  0  0  0  0  0  0  0  0  0
  -22.6935  -24.3932   20.0272 C   0  0  2  0  0  0  0  0  0  0  0  0
  -21.0893  -26.4223   20.2581 C   0  0  2  0  0  0  0  0  0  1  0  0
  -28.4041  -28.9216   22.4430 C   0  0  1  0  0  0  0  0  0  0  0  0
  -29.2177  -25.3927   23.5632 C   0  0  2  0  0  0  0  0  0  0  0  0
  -29.4804  -29.8036   21.7495 C   0  0  0  0  0  0  0  0  0  0  0  0
  -23.7589  -24.5150   21.0960 C   0  0  0  0  0  0  0  0  0  0  0  0
  -23.1689  -13.0993   21.9357 N   0  0  0  0  0  0  0  0  0  0  0  0
  -23.8380  -14.2197   21.6149 N   0  0  0  0  0  0  0  0  0  0  0  0
  -26.2548  -29.7813   23.3179 N   0  0  0  0  0  0  0  0  0  0  0  0
  -22.0955  -17.5648   22.2126 N   0  0  0  0  0  0  0  0  0  0  0  0
  -25.5716  -15.0543   20.2333 N   0  0  0  0  0  0  0  0  0  0  0  0
  -25.4348  -10.6614   19.1942 N   0  0  0  0  0  0  0  0  0  0  0  0
  -23.2086  -23.6473   18.9006 N   0  0  0  0  0  0  0  0  0  0  0  0
  -22.7897  -18.9287   20.4181 N   0  0  0  0  0  0  0  0  0  0  0  0
  -25.3502  -33.0770   24.3429 N   0  0  0  0  0  0  0  0  0  0  0  0
  -28.9367  -27.7283   23.0918 N   0  0  0  0  0  0  0  0  0  0  0  0
  -28.3027  -24.2437   23.8150 N   0  3  0  0  0  0  0  0  0  0  0  0
  -26.4997  -12.6453   18.7595 O   0  0  0  0  0  0  0  0  0  0  0  0
  -25.2881  -32.0137   22.2721 O   0  0  0  0  0  0  0  0  0  0  0  0
  -22.8660  -26.3516   18.6347 O   0  0  0  0  0  0  0  0  0  0  0  0
  -28.2493  -30.1445   24.4696 O   0  0  0  0  0  0  0  0  0  0  0  0
  -27.6672  -26.2004   21.8956 O   0  0  0  0  0  0  0  0  0  0  0  0
  -21.9495  -19.8668   22.3663 O   0  0  0  0  0  0  0  0  0  0  0  0
  -21.9852   -6.8679   21.3723 O   0  0  0  0  0  0  0  0  0  0  0  0
  -21.2663  -27.8382   20.2533 O   0  0  0  0  0  0  0  0  0  1  0  0
  -21.1455   -4.6348   26.3435 F   0  0  0  0  0  0  0  0  0  0  0  0
  -20.1443   -7.9570   23.1238 F   0  0  0  0  0  0  0  0  0  0  0  0
  -24.1624  -23.2979   21.5233 F   0  0  0  0  0  0  0  0  0  0  0  0
  -24.8511  -25.1530   20.6177 F   0  0  0  0  0  0  0  0  0  0  0  0
  -23.3184  -25.2036   22.1708 F   0  0  0  0  0  0  0  0  0  0  0  0
  -23.7324  -19.8562   18.0942 S   0  0  0  0  0  0  0  0  0  0  0  0
  1  2  1  0  0  0  0
  1  5  2  0  0  0  0
  2  6  2  0  0  0  0
  3  8  2  0  0  0  0
  3 16  1  0  0  0  0
  4  9  1  0  0  0  0
  4 16  2  0  0  0  0
  5 18  1  0  0  0  0
  6 20  1  0  0  0  0
  7 10  2  0  0  0  0
  7 19  1  0  0  0  0
  8 23  1  0  0  0  0
  9 23  2  0  0  0  0
 10 24  1  0  0  0  0
 11 12  2  0  0  0  0
 11 25  1  0  0  0  0
 12 26  1  0  0  0  0
 13 21  1  0  0  0  0
 13 24  2  0  0  0  0
 14 22  1  0  0  0  0
 14 31  2  0  0  0  0
 15 26  2  0  0  0  0
 15 27  1  0  0  0  0
 16 28  1  0  0  0  0
 17 28  1  0  0  0  0
 17 30  2  0  0  0  0
 17 32  1  0  0  0  0
 18 20  2  0  0  0  0
 18 38  1  0  0  0  0
 19 21  2  0  0  0  0
 19 39  1  0  0  0  0
 20 47  1  0  0  0  0
 21 40  1  0  0  0  0
 22 29  2  0  0  0  0
 22 69  1  0  0  0  0
 23 80  1  0  0  0  0
 24 81  1  0  0  0  0
 25 27  2  0  0  0  0
 25 80  1  0  0  0  0
 26 82  1  0  0  0  0
 27 83  1  0  0  0  0
 28 63  2  0  0  0  0
 29 50  1  0  0  0  0
 29 87  1  0  0  0  0
 30 64  1  0  0  0  0
 30 67  1  0  0  0  0
 31 70  1  0  0  0  0
 31 87  1  0  0  0  0
 32 68  1  0  0  0  0
 32 74  2  0  0  0  0
 33 48  1  0  0  0  0
 33 71  1  0  0  0  0
 33 75  2  0  0  0  0
 34 57  1  0  0  0  0
 34 58  1  0  0  0  0
 34 76  2  0  0  0  0
 35 59  1  0  0  0  0
 35 65  1  0  0  0  0
 35 77  2  0  0  0  0
 36 60  1  0  0  0  0
 36 72  1  0  0  0  0
 36 78  2  0  0  0  0
 37 66  1  0  0  0  0
 37 70  1  0  0  0  0
 37 79  2  0  0  0  0
 38 41  1  0  0  0  0
 39 48  1  0  0  0  0
 40 65  1  0  0  0  0
 41 43  1  0  0  0  0
 42 44  1  0  0  0  0
 42 45  1  0  0  0  0
 43 47  1  0  0  0  0
 44 49  1  0  0  0  0
 45 66  1  0  0  0  0
 46 49  1  0  0  0  0
 46 66  1  0  0  0  0
 47 71  1  0  0  0  0
 48 65  1  0  0  0  0
 49 64  1  0  0  0  0
 51 58  1  0  0  0  0
 52 60  1  0  0  0  0
 53 61  1  0  0  0  0
 54 61  1  0  0  0  0
 55 61  1  0  0  0  0
 56 73  1  0  0  0  0
 57 62  1  0  0  0  0
 57 69  1  0  0  0  0
 58 81  1  0  0  0  0
 59 61  1  0  0  0  0
 59 72  1  0  0  0  0
 60 73  1  0  0  0  0
 62 84  1  0  0  0  0
 62 85  1  0  0  0  0
 62 86  1  0  0  0  0
 63 64  1  0  0  0  0
M  CHG  1  73   1
M  ISO  4  37 100  58 101  70 100  81 101
M  END
> <Batch ID>
0184

> <Smiles>
CNC(C)C(=O)NC(C(=O)N1Cc2cc([101O:1][101CH:1](C)C(=O)C(Nc3cc([100NH:0][100C:0](=O)N4CCCC(n5nc(-c6ccc(Oc7ccc(F)cc7F)cc6)c(C(N)=O)c5N)C4)sc3C)C(F)(F)F)ccc2CC1C(=O)NC1CCCc2ccccc21)C(C)(C)C

> <Shape>
0.229

> <Color>
0.097

> <Negative vol penalty>
0.000

$$$$

  -OEChem-04052305023D

 83 91  0     1  0  0  0  0  0999 V2000
  -30.6257  -23.9970   26.8205 C   0  0  0  0  0  0  0  0  0  0  0  0
  -30.4430  -24.4040   25.5028 C   0  0  0  0  0  0  0  0  0  0  0  0
  -25.6593  -13.0186   22.0680 C   0  0  0  0  0  0  0  0  0  0  0  0
  -26.1389  -13.5439   19.7591 C   0  0  0  0  0  0  0  0  0  0  0  0
  -29.5197  -23.7204   27.6231 C   0  0  0  0  0  0  0  0  0  0  0  0
  -29.1542  -24.5336   24.9866 C   0  0  0  0  0  0  0  0  0  0  0  0
  -28.5475  -28.7980   22.3236 C   0  0  0  0  0  0  0  0  0  0  0  0
  -24.6202  -12.1815   21.6617 C   0  0  0  0  0  0  0  0  0  0  0  0
  -25.0998  -12.7067   19.3528 C   0  0  0  0  0  0  0  0  0  0  0  0
  -29.0608  -28.8178   21.0275 C   0  0  0  0  0  0  0  0  0  0  0  0
  -24.2815   -9.0580   20.4120 C   0  0  0  0  0  0  0  0  0  0  0  0
  -24.1827   -7.8060   21.0190 C   0  0  0  0  0  0  0  0  0  0  0  0
  -26.8527  -28.3951   20.1530 C   0  0  0  0  0  0  0  0  0  0  0  0
  -21.9757   -8.3704   21.8239 C   0  0  0  0  0  0  0  0  0  0  0  0
  -26.4186  -13.6999   21.1167 C   0  0  0  0  0  0  0  0  0  0  0  0
  -28.8399  -14.2122   21.7353 C   0  0  0  0  0  0  0  0  0  0  0  0
  -28.2164  -23.8559   27.1194 C   0  0  0  0  0  0  0  0  0  0  0  0
  -27.1825  -28.5654   22.5451 C   0  0  0  0  0  0  0  0  0  0  0  0
  -28.0297  -24.2572   25.7828 C   0  0  0  0  0  0  0  0  0  0  0  0
  -26.3241  -28.3755   21.4527 C   0  0  0  0  0  0  0  0  0  0  0  0
  -24.3404  -12.0255   20.3041 C   0  0  0  0  0  0  0  0  0  0  0  0
  -28.2139  -28.6135   19.9421 C   0  0  0  0  0  0  0  0  0  0  0  0
  -23.2274   -9.9662   20.5111 C   0  0  0  0  0  0  0  0  0  0  0  0
  -23.0298   -7.4622   21.7248 C   0  0  0  0  0  0  0  0  0  0  0  0
  -22.0745   -9.6224   21.2170 C   0  0  0  0  0  0  0  0  0  0  0  0
  -27.4918  -14.5652   21.5357 C   0  0  0  0  0  0  0  0  0  0  0  0
  -29.4102  -22.3122   16.6069 C   0  0  0  0  0  0  0  0  0  0  0  0
  -29.3800  -23.2954   17.5737 C   0  0  0  0  0  0  0  0  0  0  0  0
  -29.4465  -15.3808   22.1263 C   0  0  0  0  0  0  0  0  0  0  0  0
  -28.7833  -21.5908   18.8180 C   0  0  0  0  0  0  0  0  0  0  0  0
  -29.4860  -12.9416   21.5810 C   0  0  0  0  0  0  0  0  0  0  0  0
  -25.5043  -26.3253   24.0514 C   0  0  0  0  0  0  0  0  0  0  0  0
  -23.0095  -28.2794   23.3586 C   0  0  0  0  0  0  0  0  0  0  0  0
  -29.6865  -25.7041   18.2432 C   0  0  0  0  0  0  0  0  0  0  0  0
  -21.7130  -30.7264   21.3642 C   0  0  0  0  0  0  0  0  0  0  0  0
  -28.1663  -21.1466   21.2198 C   0  0  0  0  0  0  0  0  0  0  0  0
  -27.0530  -23.4999   28.0107 C   0  0  0  0  0  0  0  0  0  0  0  0
  -26.6398  -28.5738   23.9479 C   0  0  0  0  0  0  0  0  0  0  0  0
  -24.8475  -28.1419   21.6358 C   0  0  0  0  0  0  0  0  0  0  0  0
  -25.7127  -24.0230   27.5007 C   0  0  0  0  0  0  0  0  0  0  0  0
  -28.5230  -19.5132   24.3633 C   0  0  0  0  0  0  0  0  0  0  0  0
  -25.5568  -23.7299   26.0119 C   0  0  0  0  0  0  0  0  0  0  0  0
  -28.4278  -18.0267   24.0123 C   0  0  0  0  0  0  0  0  0  0  0  0
  -27.5856  -20.3600   23.5043 C   0  0  0  0  0  0  0  0  0  0  0  0
  -27.6300  -18.6782   21.7045 C   0  0  0  0  0  0  0  0  0  0  0  0
  -26.6468  -24.4333   25.1941 C   0  0  1  0  0  0  0  0  0  0  0  0
  -25.3225  -27.8165   24.0834 C   0  0  1  0  0  0  0  0  0  0  0  0
  -28.6036  -17.7925   22.4991 C   0  0  2  0  0  0  0  0  0  0  0  0
  -29.7446  -22.3949   15.1704 C   0  0  0  0  0  0  0  0  0  0  0  0
  -19.6366  -32.0930   21.0199 C   0  0  0  0  0  0  0  0  0  0  0  0
  -30.8663  -29.3723   17.9326 C   0  0  0  0  0  0  0  0  0  0  0  0
  -21.6374  -25.8696   22.0858 C   0  0  0  0  0  0  0  0  0  0  0  0
  -20.0622  -27.4523   20.9536 C   0  0  0  0  0  0  0  0  0  0  0  0
  -20.1299  -27.3312   23.4443 C   0  0  0  0  0  0  0  0  0  0  0  0
  -23.1600  -33.2610   21.8548 C   0  0  0  0  0  0  0  0  0  0  0  0
  -30.0850  -27.0085   17.5597 C   0  0  0  0  0  0  0  0  0  0  0  0
  -22.0471  -28.4160   22.2035 C   0  0  1  0  0  0  0  0  0  0  0  0
  -20.9966  -32.0228   21.6968 C   0  0  2  0  0  0  0  0  0  0  0  0
  -30.0650  -28.2102   18.5045 C   0  0  2  0  0  0  0  0  0  1  0  0
  -20.9973  -27.2697   22.1681 C   0  0  0  0  0  0  0  0  0  0  0  0
  -27.2554  -15.8569   21.7800 N   0  0  0  0  0  0  0  0  0  0  0  0
  -29.0203  -22.8836   18.8421 N   0  0  0  0  0  0  0  0  0  0  0  0
  -28.4632  -16.3258   22.1371 N   0  0  0  0  0  0  0  0  0  0  0  0
  -24.3659  -28.1528   23.0270 N   0  0  0  0  0  0  0  0  0  0  0  0
  -27.8120  -20.0883   22.0831 N   0  0  0  0  0  0  0  0  0  0  0  0
  -30.7199  -15.6819   22.4586 N   0  0  0  0  0  0  0  0  0  0  0  0
  -28.7147  -11.8452   21.1721 N   0  0  0  0  0  0  0  0  0  0  0  0
  -29.6908  -24.6541   17.3288 N   0  0  0  0  0  0  0  0  0  0  0  0
  -28.3881  -20.7626   19.8977 N   0  0  0  0  0  0  0  0  0  0  0  0
  -26.3364  -25.8386   25.0413 N   0  0  0  0  0  0  0  0  0  0  0  0
  -21.4701  -29.7518   22.3088 N   0  0  0  0  0  0  0  0  0  0  0  0
  -21.8055  -33.1914   21.2486 N   0  3  0  0  0  0  0  0  0  0  0  0
  -30.7077  -12.7797   21.8150 O   0  0  0  0  0  0  0  0  0  0  0  0
  -24.9308  -25.6650   23.1930 O   0  0  0  0  0  0  0  0  0  0  0  0
  -22.5745  -28.2920   24.5128 O   0  0  0  0  0  0  0  0  0  0  0  0
  -29.4116  -25.6494   19.4372 O   0  0  0  0  0  0  0  0  0  0  0  0
  -22.4146  -30.5908   20.3643 O   0  0  0  0  0  0  0  0  0  0  0  0
  -28.2923  -22.3036   21.6291 O   0  0  0  0  0  0  0  0  0  0  0  0
  -23.3267  -11.2085   19.9073 O   0  0  0  0  0  0  0  0  0  0  0  0
  -28.7125  -28.6316   18.6760 O   0  0  0  0  0  0  0  0  0  1  0  0
  -22.9344   -6.2593   22.3063 F   0  0  0  0  0  0  0  0  0  0  0  0
  -21.0581  -10.4903   21.3146 F   0  0  0  0  0  0  0  0  0  0  0  0
  -28.9742  -20.8069   17.3034 S   0  0  0  0  0  0  0  0  0  0  0  0
  1  2  1  0  0  0  0
  1  5  2  0  0  0  0
  2  6  2  0  0  0  0
  3  8  2  0  0  0  0
  3 15  1  0  0  0  0
  4  9  1  0  0  0  0
  4 15  2  0  0  0  0
  5 17  1  0  0  0  0
  6 19  1  0  0  0  0
  7 10  2  0  0  0  0
  7 18  1  0  0  0  0
  8 21  1  0  0  0  0
  9 21  2  0  0  0  0
 10 22  1  0  0  0  0
 11 12  2  0  0  0  0
 11 23  1  0  0  0  0
 12 24  1  0  0  0  0
 13 20  1  0  0  0  0
 13 22  2  0  0  0  0
 14 24  2  0  0  0  0
 14 25  1  0  0  0  0
 15 26  1  0  0  0  0
 16 26  1  0  0  0  0
 16 29  2  0  0  0  0
 16 31  1  0  0  0  0
 17 19  2  0  0  0  0
 17 37  1  0  0  0  0
 18 20  2  0  0  0  0
 18 38  1  0  0  0  0
 19 46  1  0  0  0  0
 20 39  1  0  0  0  0
 21 79  1  0  0  0  0
 22 80  1  0  0  0  0
 23 25  2  0  0  0  0
 23 79  1  0  0  0  0
 24 81  1  0  0  0  0
 25 82  1  0  0  0  0
 26 61  2  0  0  0  0
 27 28  2  0  0  0  0
 27 49  1  0  0  0  0
 27 83  1  0  0  0  0
 28 62  1  0  0  0  0
 28 68  1  0  0  0  0
 29 63  1  0  0  0  0
 29 66  1  0  0  0  0
 30 62  2  0  0  0  0
 30 69  1  0  0  0  0
 30 83  1  0  0  0  0
 31 67  1  0  0  0  0
 31 73  2  0  0  0  0
 32 47  1  0  0  0  0
 32 70  1  0  0  0  0
 32 74  2  0  0  0  0
 33 57  1  0  0  0  0
 33 64  1  0  0  0  0
 33 75  2  0  0  0  0
 34 56  1  0  0  0  0
 34 68  1  0  0  0  0
 34 76  2  0  0  0  0
 35 58  1  0  0  0  0
 35 71  1  0  0  0  0
 35 77  2  0  0  0  0
 36 65  1  0  0  0  0
 36 69  1  0  0  0  0
 36 78  2  0  0  0  0
 37 40  1  0  0  0  0
 38 47  1  0  0  0  0
 39 64  1  0  0  0  0
 40 42  1  0  0  0  0
 41 43  1  0  0  0  0
 41 44  1  0  0  0  0
 42 46  1  0  0  0  0
 43 48  1  0  0  0  0
 44 65  1  0  0  0  0
 45 48  1  0  0  0  0
 45 65  1  0  0  0  0
 46 70  1  0  0  0  0
 47 64  1  0  0  0  0
 48 63  1  0  0  0  0
 50 58  1  0  0  0  0
 51 59  1  0  0  0  0
 52 60  1  0  0  0  0
 53 60  1  0  0  0  0
 54 60  1  0  0  0  0
 55 72  1  0  0  0  0
 56 59  1  0  0  0  0
 57 60  1  0  0  0  0
 57 71  1  0  0  0  0
 58 72  1  0  0  0  0
 59 80  1  0  0  0  0
 61 63  1  0  0  0  0
M  CHG  1  72   1
M  ISO  4  36 100  59 101  69 100  80 101
M  END
> <Batch ID>
0184

> <Smiles>
CNC(C)C(=O)NC(C(=O)N1Cc2cc([101O:1][101CH:1](C)CC(=O)Nc3nc([100NH:0][100C:0](=O)N4CCCC(n5nc(-c6ccc(Oc7ccc(F)cc7F)cc6)c(C(N)=O)c5N)C4)sc3C)ccc2CC1C(=O)NC1CCCc2ccccc21)C(C)(C)C

> <Shape>
0.238

> <Color>
0.073

> <Negative vol penalty>
0.000

$$$$

  -OEChem-04052305023D

 85 93  0     1  0  0  0  0  0999 V2000
  -27.9112  -24.4064   17.4376 C   0  0  0  0  0  0  0  0  0  0  0  0
  -26.7301  -24.6909   18.1154 C   0  0  0  0  0  0  0  0  0  0  0  0
  -28.1741  -13.7664   21.0897 C   0  0  0  0  0  0  0  0  0  0  0  0
  -26.1514  -14.6684   20.1241 C   0  0  0  0  0  0  0  0  0  0  0  0
  -29.1213  -24.9198   17.9023 C   0  0  0  0  0  0  0  0  0  0  0  0
  -26.7586  -25.4883   19.2591 C   0  0  0  0  0  0  0  0  0  0  0  0
  -23.0818  -28.9704   19.2917 C   0  0  0  0  0  0  0  0  0  0  0  0
  -27.6527  -12.4775   20.9780 C   0  0  0  0  0  0  0  0  0  0  0  0
  -25.6300  -13.3794   20.0124 C   0  0  0  0  0  0  0  0  0  0  0  0
  -21.8002  -28.5400   19.6325 C   0  0  0  0  0  0  0  0  0  0  0  0
  -25.4532  -10.5277   22.6468 C   0  0  0  0  0  0  0  0  0  0  0  0
  -25.5930   -9.6757   23.7423 C   0  0  0  0  0  0  0  0  0  0  0  0
  -22.1163  -29.3886   21.8684 C   0  0  0  0  0  0  0  0  0  0  0  0
  -26.8479   -8.1266   22.3774 C   0  0  0  0  0  0  0  0  0  0  0  0
  -27.4234  -14.8619   20.6627 C   0  0  0  0  0  0  0  0  0  0  0  0
  -28.7268  -16.8872   19.8220 C   0  0  0  0  0  0  0  0  0  0  0  0
  -29.1634  -25.7318   19.0466 C   0  0  0  0  0  0  0  0  0  0  0  0
  -23.8957  -29.6045   20.2414 C   0  0  0  0  0  0  0  0  0  0  0  0
  -27.9706  -26.0119   19.7403 C   0  0  0  0  0  0  0  0  0  0  0  0
  -23.4069  -29.8284   21.5364 C   0  0  0  0  0  0  0  0  0  0  0  0
  -26.3806  -12.2840   20.4394 C   0  0  0  0  0  0  0  0  0  0  0  0
  -21.3184  -28.7465   20.9218 C   0  0  0  0  0  0  0  0  0  0  0  0
  -26.0106  -10.1791   21.4166 C   0  0  0  0  0  0  0  0  0  0  0  0
  -26.2904   -8.4752   23.6077 C   0  0  0  0  0  0  0  0  0  0  0  0
  -26.7080   -8.9786   21.2819 C   0  0  0  0  0  0  0  0  0  0  0  0
  -27.9612  -16.1936   20.7783 C   0  0  0  0  0  0  0  0  0  0  0  0
  -23.7789  -23.3576   24.1961 C   0  0  0  0  0  0  0  0  0  0  0  0
  -28.9883  -18.1021   20.4069 C   0  0  0  0  0  0  0  0  0  0  0  0
  -24.1317  -22.2344   23.4777 C   0  0  0  0  0  0  0  0  0  0  0  0
  -22.1816  -23.4116   22.6941 C   0  0  0  0  0  0  0  0  0  0  0  0
  -29.1626  -16.4706   18.5211 C   0  0  0  0  0  0  0  0  0  0  0  0
  -20.9756  -23.8721   21.9601 C   0  0  0  0  0  0  0  0  0  0  0  0
  -26.7020  -28.9520   21.5841 C   0  0  0  0  0  0  0  0  0  0  0  0
  -26.3259  -31.9002   22.8836 C   0  0  0  0  0  0  0  0  0  0  0  0
  -19.2108  -25.6008   21.9350 C   0  0  0  0  0  0  0  0  0  0  0  0
  -24.2039  -34.3986   23.8333 C   0  0  0  0  0  0  0  0  0  0  0  0
  -26.1831  -21.3005   24.6029 C   0  0  0  0  0  0  0  0  0  0  0  0
  -30.5013  -26.2250   19.5380 C   0  0  0  0  0  0  0  0  0  0  0  0
  -25.2657  -30.0867   19.8504 C   0  0  0  0  0  0  0  0  0  0  0  0
  -24.2333  -30.5224   22.5870 C   0  0  0  0  0  0  0  0  0  0  0  0
  -30.3970  -27.3696   20.5426 C   0  0  0  0  0  0  0  0  0  0  0  0
  -29.5503  -20.1475   24.7005 C   0  0  0  0  0  0  0  0  0  0  0  0
  -29.3453  -27.0560   21.6020 C   0  0  0  0  0  0  0  0  0  0  0  0
  -29.5962  -19.0700   23.6146 C   0  0  0  0  0  0  0  0  0  0  0  0
  -28.2162  -20.1461   25.4448 C   0  0  0  0  0  0  0  0  0  0  0  0
  -27.0728  -19.1532   23.5016 C   0  0  0  0  0  0  0  0  0  0  0  0
  -27.9574  -26.8934   20.9703 C   0  0  1  0  0  0  0  0  0  0  0  0
  -26.2007  -30.2612   21.0432 C   0  0  1  0  0  0  0  0  0  0  0  0
  -28.3729  -19.1584   22.6810 C   0  0  2  0  0  0  0  0  0  0  0  0
  -24.1874  -36.6697   24.9006 C   0  0  0  0  0  0  0  0  0  0  0  0
  -26.7822  -30.6176   25.6143 C   0  0  0  0  0  0  0  0  0  0  0  0
  -25.8302  -32.6811   26.6651 C   0  0  0  0  0  0  0  0  0  0  0  0
  -27.9114  -32.8265   25.2975 C   0  0  0  0  0  0  0  0  0  0  0  0
  -23.0212  -35.6492   21.4257 C   0  0  0  0  0  0  0  0  0  0  0  0
  -19.8526  -27.9493   22.6165 C   0  0  0  0  0  0  0  0  0  1  0  0
  -25.6949  -32.4404   24.1442 C   0  0  1  0  0  0  0  0  0  0  0  0
  -18.7998  -26.8490   22.7005 C   0  0  1  0  0  0  0  0  0  0  0  0
  -24.2399  -35.8969   23.5919 C   0  0  2  0  0  0  0  0  0  0  0  0
  -26.5396  -32.1266   25.4113 C   0  0  0  0  0  0  0  0  0  0  0  0
  -27.7502  -16.9083   21.8868 N   0  0  0  0  0  0  0  0  0  0  0  0
  -22.6612  -24.0342   23.7480 N   0  0  0  0  0  0  0  0  0  0  0  0
  -28.3871  -18.0637   21.6306 N   0  0  0  0  0  0  0  0  0  0  0  0
  -25.5687  -30.9698   22.1579 N   0  0  0  0  0  0  0  0  0  0  0  0
  -27.1035  -20.2365   24.4967 N   0  0  0  0  0  0  0  0  0  0  0  0
  -29.6715  -19.1887   19.9889 N   0  0  0  0  0  0  0  0  0  0  0  0
  -28.8057  -15.1907   18.0751 N   0  0  0  0  0  0  0  0  0  0  0  0
  -25.1869  -21.3006   23.6270 N   0  0  0  0  0  0  0  0  0  0  0  0
  -20.3688  -25.0229   22.4600 N   0  0  0  0  0  0  0  0  0  0  0  0
  -27.3885  -28.1874   20.6602 N   0  0  0  0  0  0  0  0  0  0  0  0
  -25.4722  -33.8633   23.9118 N   0  0  0  0  0  0  0  0  0  0  0  0
  -17.5074  -27.3772   22.1768 N   0  3  0  0  0  0  0  0  0  0  0  0
  -23.0812  -36.3144   22.7527 N   0  3  0  0  0  0  0  0  0  0  0  0
  -29.8620  -17.2051   17.7830 O   0  0  0  0  0  0  0  0  0  0  0  0
  -20.5747  -23.2202   20.9998 O   0  0  0  0  0  0  0  0  0  0  0  0
  -26.4835  -28.6580   22.7535 O   0  0  0  0  0  0  0  0  0  0  0  0
  -27.4464  -32.2949   22.5512 O   0  0  0  0  0  0  0  0  0  0  0  0
  -18.5793  -25.1744   20.9710 O   0  0  0  0  0  0  0  0  0  0  0  0
  -23.1555  -33.7669   23.9450 O   0  0  0  0  0  0  0  0  0  0  0  0
  -26.2878  -22.1644   25.4773 O   0  0  0  0  0  0  0  0  0  0  0  0
  -25.8716  -11.0264   20.3301 O   0  0  0  0  0  0  0  0  0  0  0  0
  -20.0681  -28.3268   21.2573 O   0  0  0  0  0  0  0  0  0  1  0  0
  -26.4259   -7.6579   24.6601 F   0  0  0  0  0  0  0  0  0  0  0  0
  -27.2468   -8.6390   20.1028 F   0  0  0  0  0  0  0  0  0  0  0  0
  -24.4703  -23.7702   25.2643 F   0  0  0  0  0  0  0  0  0  0  0  0
  -23.0249  -22.0054   22.1878 S   0  0  0  0  0  0  0  0  0  0  0  0
  1  2  1  0  0  0  0
  1  5  2  0  0  0  0
  2  6  2  0  0  0  0
  3  8  2  0  0  0  0
  3 15  1  0  0  0  0
  4  9  1  0  0  0  0
  4 15  2  0  0  0  0
  5 17  1  0  0  0  0
  6 19  1  0  0  0  0
  7 10  2  0  0  0  0
  7 18  1  0  0  0  0
  8 21  1  0  0  0  0
  9 21  2  0  0  0  0
 10 22  1  0  0  0  0
 11 12  2  0  0  0  0
 11 23  1  0  0  0  0
 12 24  1  0  0  0  0
 13 20  1  0  0  0  0
 13 22  2  0  0  0  0
 14 24  2  0  0  0  0
 14 25  1  0  0  0  0
 15 26  1  0  0  0  0
 16 26  1  0  0  0  0
 16 28  2  0  0  0  0
 16 31  1  0  0  0  0
 17 19  2  0  0  0  0
 17 38  1  0  0  0  0
 18 20  2  0  0  0  0
 18 39  1  0  0  0  0
 19 47  1  0  0  0  0
 20 40  1  0  0  0  0
 21 80  1  0  0  0  0
 22 81  1  0  0  0  0
 23 25  2  0  0  0  0
 23 80  1  0  0  0  0
 24 82  1  0  0  0  0
 25 83  1  0  0  0  0
 26 60  2  0  0  0  0
 27 29  2  0  0  0  0
 27 61  1  0  0  0  0
 27 84  1  0  0  0  0
 28 62  1  0  0  0  0
 28 65  1  0  0  0  0
 29 67  1  0  0  0  0
 29 85  1  0  0  0  0
 30 32  1  0  0  0  0
 30 61  2  0  0  0  0
 30 85  1  0  0  0  0
 31 66  1  0  0  0  0
 31 73  2  0  0  0  0
 32 68  1  0  0  0  0
 32 74  2  0  0  0  0
 33 48  1  0  0  0  0
 33 69  1  0  0  0  0
 33 75  2  0  0  0  0
 34 56  1  0  0  0  0
 34 63  1  0  0  0  0
 34 76  2  0  0  0  0
 35 57  1  0  0  0  0
 35 68  1  0  0  0  0
 35 77  2  0  0  0  0
 36 58  1  0  0  0  0
 36 70  1  0  0  0  0
 36 78  2  0  0  0  0
 37 64  1  0  0  0  0
 37 67  1  0  0  0  0
 37 79  2  0  0  0  0
 38 41  1  0  0  0  0
 39 48  1  0  0  0  0
 40 63  1  0  0  0  0
 41 43  1  0  0  0  0
 42 44  1  0  0  0  0
 42 45  1  0  0  0  0
 43 47  1  0  0  0  0
 44 49  1  0  0  0  0
 45 64  1  0  0  0  0
 46 49  1  0  0  0  0
 46 64  1  0  0  0  0
 47 69  1  0  0  0  0
 48 63  1  0  0  0  0
 49 62  1  0  0  0  0
 50 58  1  0  0  0  0
 51 59  1  0  0  0  0
 52 59  1  0  0  0  0
 53 59  1  0  0  0  0
 54 72  1  0  0  0  0
 55 57  1  0  0  0  0
 55 81  1  0  0  0  0
 56 59  1  0  0  0  0
 56 70  1  0  0  0  0
 57 71  1  0  0  0  0
 58 72  1  0  0  0  0
 60 62  1  0  0  0  0
M  CHG  2  71   1  72   1
M  ISO  4  37 100  55 101  67 100  81 101
M  END
> <Batch ID>
0184

> <Smiles>
CNC(C)C(=O)NC(C(=O)N1Cc2cc([101O:1][101CH2:1]C(N)C(=O)NC(=O)c3nc(F)c([100NH:0][100C:0](=O)N4CCCC(n5nc(-c6ccc(Oc7ccc(F)cc7F)cc6)c(C(N)=O)c5N)C4)s3)ccc2CC1C(=O)NC1CCCc2ccccc21)C(C)(C)C

> <Shape>
0.296

> <Color>
0.060

> <Negative vol penalty>
0.000

$$$$

  -OEChem-04052305023D

 87 95  0     1  0  0  0  0  0999 V2000
  -23.1425  -18.9693   27.3639 C   0  0  0  0  0  0  0  0  0  0  0  0
  -24.2106  -19.5753   26.7102 C   0  0  0  0  0  0  0  0  0  0  0  0
  -25.2617  -13.4158   22.0679 C   0  0  0  0  0  0  0  0  0  0  0  0
  -26.1236  -13.6572   19.8238 C   0  0  0  0  0  0  0  0  0  0  0  0
  -21.8377  -19.2088   26.9351 C   0  0  0  0  0  0  0  0  0  0  0  0
  -23.9745  -20.4204   25.6264 C   0  0  0  0  0  0  0  0  0  0  0  0
  -27.1461  -25.4345   24.1083 C   0  0  0  0  0  0  0  0  0  0  0  0
  -24.3122  -12.5048   21.6052 C   0  0  0  0  0  0  0  0  0  0  0  0
  -25.1741  -12.7462   19.3611 C   0  0  0  0  0  0  0  0  0  0  0  0
  -28.1596  -25.6572   23.1771 C   0  0  0  0  0  0  0  0  0  0  0  0
  -24.2109   -9.2396   20.7327 C   0  0  0  0  0  0  0  0  0  0  0  0
  -24.0183   -8.0725   21.4718 C   0  0  0  0  0  0  0  0  0  0  0  0
  -26.5200  -26.4341   21.5873 C   0  0  0  0  0  0  0  0  0  0  0  0
  -21.7031   -8.6717   21.8148 C   0  0  0  0  0  0  0  0  0  0  0  0
  -26.1674  -13.9921   21.1772 C   0  0  0  0  0  0  0  0  0  0  0  0
  -28.4449  -14.6471   22.1215 C   0  0  0  0  0  0  0  0  0  0  0  0
  -21.5848  -20.0648   25.8516 C   0  0  0  0  0  0  0  0  0  0  0  0
  -25.8085  -25.7002   23.7816 C   0  0  0  0  0  0  0  0  0  0  0  0
  -22.6651  -20.6704   25.1818 C   0  0  0  0  0  0  0  0  0  0  0  0
  -25.4917  -26.2164   22.5170 C   0  0  0  0  0  0  0  0  0  0  0  0
  -24.2684  -12.1699   20.2519 C   0  0  0  0  0  0  0  0  0  0  0  0
  -27.8463  -26.1543   21.9155 C   0  0  0  0  0  0  0  0  0  0  0  0
  -23.1496  -10.1229   20.5347 C   0  0  0  0  0  0  0  0  0  0  0  0
  -22.7644   -7.7885   22.0128 C   0  0  0  0  0  0  0  0  0  0  0  0
  -21.8957   -9.8389   21.0758 C   0  0  0  0  0  0  0  0  0  0  0  0
  -27.1482  -14.9336   21.6544 C   0  0  0  0  0  0  0  0  0  0  0  0
  -30.2472  -23.2433   17.4010 C   0  0  0  0  0  0  0  0  0  0  0  0
  -28.9688  -15.8726   22.4536 C   0  0  0  0  0  0  0  0  0  0  0  0
  -31.0452  -22.2052   16.9678 C   0  0  0  0  0  0  0  0  0  0  0  0
  -29.5177  -21.6795   18.7547 C   0  0  0  0  0  0  0  0  0  0  0  0
  -29.1160  -13.3860   22.2440 C   0  0  0  0  0  0  0  0  0  0  0  0
  -23.1647  -23.9501   23.5549 C   0  0  0  0  0  0  0  0  0  0  0  0
  -29.6869  -25.7799   18.8153 C   0  0  0  0  0  0  0  0  0  0  0  0
  -21.7609  -26.8367   23.0866 C   0  0  0  0  0  0  0  0  0  0  0  0
  -22.0805  -30.0876   22.0984 C   0  0  0  0  0  0  0  0  0  0  0  0
  -27.8245  -21.4382   20.6043 C   0  0  0  0  0  0  0  0  0  0  0  0
  -20.1603  -20.2559   25.3944 C   0  0  0  0  0  0  0  0  0  0  0  0
  -24.7298  -25.4798   24.8064 C   0  0  0  0  0  0  0  0  0  0  0  0
  -24.0736  -26.5371   22.1238 C   0  0  0  0  0  0  0  0  0  0  0  0
  -19.9722  -21.4593   24.4743 C   0  0  0  0  0  0  0  0  0  0  0  0
  -27.6520  -20.2276   23.9482 C   0  0  0  0  0  0  0  0  0  0  0  0
  -21.0519  -21.4817   23.3970 C   0  0  0  0  0  0  0  0  0  0  0  0
  -27.6273  -18.7064   23.7823 C   0  0  0  0  0  0  0  0  0  0  0  0
  -26.8689  -20.9316   22.8415 C   0  0  0  0  0  0  0  0  0  0  0  0
  -27.2294  -19.0371   21.3086 C   0  0  0  0  0  0  0  0  0  0  0  0
  -22.4479  -21.6129   24.0178 C   0  0  1  0  0  0  0  0  0  0  0  0
  -23.3465  -25.3003   24.1887 C   0  0  1  0  0  0  0  0  0  0  0  0
  -28.0593  -18.2873   22.3634 C   0  0  2  0  0  0  0  0  0  0  0  0
  -20.7496  -32.1925   21.7896 C   0  0  0  0  0  0  0  0  0  0  0  0
  -29.5837  -26.0758   14.1898 C   0  0  0  0  0  0  0  0  0  0  0  0
  -27.6097  -27.0170   15.3932 C   0  0  0  0  0  0  0  0  0  0  0  0
  -29.4390  -28.5378   14.6366 C   0  0  0  0  0  0  0  0  0  0  0  0
  -20.5496  -25.6929   20.5304 C   0  0  0  0  0  0  0  0  0  0  0  0
  -20.0476  -28.0354   19.8029 C   0  0  0  0  0  0  0  0  0  0  0  0
  -18.9963  -27.1215   21.8723 C   0  0  0  0  0  0  0  0  0  0  0  0
  -23.7262  -31.5556   24.0722 C   0  0  0  0  0  0  0  0  0  0  0  0
  -28.4879  -26.2348   19.6268 C   0  0  0  0  0  0  0  0  0  1  0  0
  -29.8110  -26.9134   16.5866 C   0  0  0  0  0  0  0  0  0  0  0  0
  -29.4589  -25.6091   17.3176 C   0  0  1  0  0  0  0  0  0  0  0  0
  -21.4585  -27.6958   21.8826 C   0  0  1  0  0  0  0  0  0  0  0  0
  -21.6209  -31.3849   22.7389 C   0  0  2  0  0  0  0  0  0  0  0  0
  -29.1355  -27.1428   15.2040 C   0  0  0  0  0  0  0  0  0  0  0  0
  -20.2896  -27.1286   21.0285 C   0  0  0  0  0  0  0  0  0  0  0  0
  -26.8655  -16.2387   21.6857 N   0  0  0  0  0  0  0  0  0  0  0  0
  -29.3704  -22.9436   18.4253 N   0  0  0  0  0  0  0  0  0  0  0  0
  -27.9919  -16.7831   22.1764 N   0  0  0  0  0  0  0  0  0  0  0  0
  -23.0536  -26.2986   23.1583 N   0  0  0  0  0  0  0  0  0  0  0  0
  -27.3354  -20.4884   21.5259 N   0  0  0  0  0  0  0  0  0  0  0  0
  -30.1651  -16.2493   22.9528 N   0  0  0  0  0  0  0  0  0  0  0  0
  -28.4325  -12.2251   21.8574 N   0  0  0  0  0  0  0  0  0  0  0  0
  -30.2950  -24.5183   16.8650 N   0  0  0  0  0  0  0  0  0  0  0  0
  -28.8200  -20.9573   19.7544 N   0  0  0  0  0  0  0  0  0  0  0  0
  -22.6954  -22.9807   24.4206 N   0  0  0  0  0  0  0  0  0  0  0  0
  -21.2281  -29.0439   22.3905 N   0  0  0  0  0  0  0  0  0  0  0  0
  -22.7957  -32.2180   23.1222 N   0  3  0  0  0  0  0  0  0  0  0  0
  -30.2811  -13.2898   22.6987 O   0  0  0  0  0  0  0  0  0  0  0  0
  -23.4291  -23.7995   22.3678 O   0  0  0  0  0  0  0  0  0  0  0  0
  -30.7838  -25.5826   19.3385 O   0  0  0  0  0  0  0  0  0  0  0  0
  -20.8847  -26.6559   23.9359 O   0  0  0  0  0  0  0  0  0  0  0  0
  -23.0922  -30.0089   21.4051 O   0  0  0  0  0  0  0  0  0  0  0  0
  -27.4115  -22.6006   20.5896 O   0  0  0  0  0  0  0  0  0  0  0  0
  -23.3422  -11.2808   19.8001 O   0  0  0  0  0  0  0  0  0  0  0  0
  -28.8336  -26.3719   21.0045 O   0  0  0  0  0  0  0  0  0  1  0  0
  -22.5793   -6.6668   22.7212 F   0  0  0  0  0  0  0  0  0  0  0  0
  -20.8720  -10.6830   20.8879 F   0  0  0  0  0  0  0  0  0  0  0  0
  -31.9556  -22.2802   15.9932 F   0  0  0  0  0  0  0  0  0  0  0  0
  -30.6934  -20.7923   17.8739 S   0  0  0  0  0  0  0  0  0  0  0  0
  1  2  1  0  0  0  0
  1  5  2  0  0  0  0
  2  6  2  0  0  0  0
  3  8  2  0  0  0  0
  3 15  1  0  0  0  0
  4  9  1  0  0  0  0
  4 15  2  0  0  0  0
  5 17  1  0  0  0  0
  6 19  1  0  0  0  0
  7 10  2  0  0  0  0
  7 18  1  0  0  0  0
  8 21  1  0  0  0  0
  9 21  2  0  0  0  0
 10 22  1  0  0  0  0
 11 12  2  0  0  0  0
 11 23  1  0  0  0  0
 12 24  1  0  0  0  0
 13 20  1  0  0  0  0
 13 22  2  0  0  0  0
 14 24  2  0  0  0  0
 14 25  1  0  0  0  0
 15 26  1  0  0  0  0
 16 26  1  0  0  0  0
 16 28  2  0  0  0  0
 16 31  1  0  0  0  0
 17 19  2  0  0  0  0
 17 37  1  0  0  0  0
 18 20  2  0  0  0  0
 18 38  1  0  0  0  0
 19 46  1  0  0  0  0
 20 39  1  0  0  0  0
 21 82  1  0  0  0  0
 22 83  1  0  0  0  0
 23 25  2  0  0  0  0
 23 82  1  0  0  0  0
 24 84  1  0  0  0  0
 25 85  1  0  0  0  0
 26 64  2  0  0  0  0
 27 29  2  0  0  0  0
 27 65  1  0  0  0  0
 27 71  1  0  0  0  0
 28 66  1  0  0  0  0
 28 69  1  0  0  0  0
 29 86  1  0  0  0  0
 29 87  1  0  0  0  0
 30 65  2  0  0  0  0
 30 72  1  0  0  0  0
 30 87  1  0  0  0  0
 31 70  1  0  0  0  0
 31 76  2  0  0  0  0
 32 47  1  0  0  0  0
 32 73  1  0  0  0  0
 32 77  2  0  0  0  0
 33 57  1  0  0  0  0
 33 59  1  0  0  0  0
 33 78  2  0  0  0  0
 34 60  1  0  0  0  0
 34 67  1  0  0  0  0
 34 79  2  0  0  0  0
 35 61  1  0  0  0  0
 35 74  1  0  0  0  0
 35 80  2  0  0  0  0
 36 68  1  0  0  0  0
 36 72  1  0  0  0  0
 36 81  2  0  0  0  0
 37 40  1  0  0  0  0
 38 47  1  0  0  0  0
 39 67  1  0  0  0  0
 40 42  1  0  0  0  0
 41 43  1  0  0  0  0
 41 44  1  0  0  0  0
 42 46  1  0  0  0  0
 43 48  1  0  0  0  0
 44 68  1  0  0  0  0
 45 48  1  0  0  0  0
 45 68  1  0  0  0  0
 46 73  1  0  0  0  0
 47 67  1  0  0  0  0
 48 66  1  0  0  0  0
 49 61  1  0  0  0  0
 50 62  1  0  0  0  0
 51 62  1  0  0  0  0
 52 62  1  0  0  0  0
 53 63  1  0  0  0  0
 54 63  1  0  0  0  0
 55 63  1  0  0  0  0
 56 75  1  0  0  0  0
 57 83  1  0  0  0  0
 58 59  1  0  0  0  0
 58 62  1  0  0  0  0
 59 71  1  0  0  0  0
 60 63  1  0  0  0  0
 60 74  1  0  0  0  0
 61 75  1  0  0  0  0
 64 66  1  0  0  0  0
M  CHG  1  75   1
M  ISO  4  36 100  57 101  72 100  83 101
M  END
> <Batch ID>
0184

> <Smiles>
CNC(C)C(=O)NC(C(=O)N1Cc2cc([101O:1][101CH2:1]C(=O)C(CC(C)(C)C)Nc3nc([100NH:0][100C:0](=O)N4CCCC(n5nc(-c6ccc(Oc7ccc(F)cc7F)cc6)c(C(N)=O)c5N)C4)sc3F)ccc2CC1C(=O)NC1CCCc2ccccc21)C(C)(C)C

> <Shape>
0.220

> <Color>
0.084

> <Negative vol penalty>
0.000

$$$$

  -OEChem-04052305023D

 86 94  0     1  0  0  0  0  0999 V2000
  -19.6778  -24.1679   23.1853 C   0  0  0  0  0  0  0  0  0  0  0  0
  -20.7687  -24.3392   22.3393 C   0  0  0  0  0  0  0  0  0  0  0  0
  -27.4006  -14.4480   22.1365 C   0  0  0  0  0  0  0  0  0  0  0  0
  -27.3700  -14.8569   19.7555 C   0  0  0  0  0  0  0  0  0  0  0  0
  -18.8968  -25.2654   23.5449 C   0  0  0  0  0  0  0  0  0  0  0  0
  -21.0787  -25.6082   21.8513 C   0  0  0  0  0  0  0  0  0  0  0  0
  -26.6635  -27.8627   20.7409 C   0  0  0  0  0  0  0  0  0  0  0  0
  -26.7908  -13.2103   21.9318 C   0  0  0  0  0  0  0  0  0  0  0  0
  -26.7603  -13.6191   19.5508 C   0  0  0  0  0  0  0  0  0  0  0  0
  -27.4098  -27.9849   19.5697 C   0  0  0  0  0  0  0  0  0  0  0  0
  -24.9151  -10.0978   22.0658 C   0  0  0  0  0  0  0  0  0  0  0  0
  -23.8580   -9.7472   22.9054 C   0  0  0  0  0  0  0  0  0  0  0  0
  -26.6420  -30.2586   19.3249 C   0  0  0  0  0  0  0  0  0  0  0  0
  -22.6221  -11.6841   22.1583 C   0  0  0  0  0  0  0  0  0  0  0  0
  -27.6901  -15.2713   21.0484 C   0  0  0  0  0  0  0  0  0  0  0  0
  -29.7000  -16.8238   21.2883 C   0  0  0  0  0  0  0  0  0  0  0  0
  -19.2030  -26.5501   23.0688 C   0  0  0  0  0  0  0  0  0  0  0  0
  -25.8908  -28.9357   21.2079 C   0  0  0  0  0  0  0  0  0  0  0  0
  -20.3002  -26.7238   22.2037 C   0  0  0  0  0  0  0  0  0  0  0  0
  -25.8887  -30.1482   20.5037 C   0  0  0  0  0  0  0  0  0  0  0  0
  -26.4707  -12.7958   20.6390 C   0  0  0  0  0  0  0  0  0  0  0  0
  -27.3969  -29.1821   18.8599 C   0  0  0  0  0  0  0  0  0  0  0  0
  -24.8259  -11.2417   21.2724 C   0  0  0  0  0  0  0  0  0  0  0  0
  -22.7114  -10.5403   22.9517 C   0  0  0  0  0  0  0  0  0  0  0  0
  -23.6794  -12.0348   21.3187 C   0  0  0  0  0  0  0  0  0  0  0  0
  -28.3194  -16.5502   21.2592 C   0  0  0  0  0  0  0  0  0  0  0  0
  -31.2431  -26.1028   19.0513 C   0  0  0  0  0  0  0  0  0  0  0  0
  -32.1937  -25.2521   18.5271 C   0  0  0  0  0  0  0  0  0  0  0  0
  -29.7774  -18.1756   21.5186 C   0  0  0  0  0  0  0  0  0  0  0  0
  -30.2443  -24.1953   19.4682 C   0  0  0  0  0  0  0  0  0  0  0  0
  -30.8130  -15.9354   21.1220 C   0  0  0  0  0  0  0  0  0  0  0  0
  -22.7902  -29.4109   21.7218 C   0  0  0  0  0  0  0  0  0  0  0  0
  -23.8256  -32.2208   22.9687 C   0  0  0  0  0  0  0  0  0  0  0  0
  -26.2476  -34.6224   23.0827 C   0  0  0  0  0  0  0  0  0  0  0  0
  -28.1012  -23.3906   20.5198 C   0  0  0  0  0  0  0  0  0  0  0  0
  -18.3015  -27.6985   23.4472 C   0  0  0  0  0  0  0  0  0  0  0  0
  -25.1124  -28.7965   22.4874 C   0  0  0  0  0  0  0  0  0  0  0  0
  -25.0918  -31.3368   20.9736 C   0  0  0  0  0  0  0  0  0  0  0  0
  -18.9200  -29.0696   23.1870 C   0  0  0  0  0  0  0  0  0  0  0  0
  -26.2029  -21.4979   22.8631 C   0  0  0  0  0  0  0  0  0  0  0  0
  -19.5516  -29.1158   21.7993 C   0  0  0  0  0  0  0  0  0  0  0  0
  -26.6979  -20.0645   22.6572 C   0  0  0  0  0  0  0  0  0  0  0  0
  -26.1355  -22.2693   21.5463 C   0  0  0  0  0  0  0  0  0  0  0  0
  -27.8698  -20.8292   20.5527 C   0  0  0  0  0  0  0  0  0  0  0  0
  -20.6831  -28.0885   21.6737 C   0  0  1  0  0  0  0  0  0  0  0  0
  -23.9555  -29.7853   22.5934 C   0  0  1  0  0  0  0  0  0  0  0  0
  -28.0164  -20.0327   21.8595 C   0  0  2  0  0  0  0  0  0  0  0  0
  -33.4873  -25.5527   17.8819 C   0  0  0  0  0  0  0  0  0  0  0  0
  -26.7945  -36.8187   24.1664 C   0  0  0  0  0  0  0  0  0  0  0  0
  -21.8661  -33.6279   21.1004 C   0  0  0  0  0  0  0  0  0  0  0  0
  -23.1042  -35.7626   21.5230 C   0  0  0  0  0  0  0  0  0  0  0  0
  -21.9753  -34.5832   23.4090 C   0  0  0  0  0  0  0  0  0  0  0  0
  -30.3004  -29.3118   16.7365 C   0  0  0  0  0  0  0  0  0  0  0  0
  -28.9603  -27.2107   16.9391 C   0  0  0  0  0  0  0  0  0  0  0  0
  -28.6681  -33.5138   24.3754 C   0  0  0  0  0  0  0  0  0  0  0  0
  -29.9425  -28.3265   19.0249 C   0  0  0  0  0  0  0  0  0  0  0  0
  -31.3210  -27.6193   19.0840 C   0  0  1  0  0  0  0  0  0  0  0  0
  -24.0853  -33.6029   22.4197 C   0  0  1  0  0  0  0  0  0  0  0  0
  -26.9334  -35.3066   24.2514 C   0  0  2  0  0  0  0  0  0  0  0  0
  -22.7713  -34.3713   22.1029 C   0  0  0  0  0  0  0  0  0  0  0  0
  -29.3200  -28.5313   17.6213 C   0  0  0  0  0  0  0  0  0  1  0  0
  -32.1033  -28.0868   20.3145 C   0  0  0  0  0  0  0  0  0  0  0  0
  -27.5734  -17.6406   21.4556 N   0  0  0  0  0  0  0  0  0  0  0  0
  -30.1244  -25.4986   19.5910 N   0  0  0  0  0  0  0  0  0  0  0  0
  -28.4886  -18.6125   21.6103 N   0  0  0  0  0  0  0  0  0  0  0  0
  -24.3421  -31.1492   22.2267 N   0  0  0  0  0  0  0  0  0  0  0  0
  -27.4209  -22.1989   20.8479 N   0  0  0  0  0  0  0  0  0  0  0  0
  -30.8214  -19.0214   21.6498 N   0  0  0  0  0  0  0  0  0  0  0  0
  -30.5552  -14.5770   20.8927 N   0  0  0  0  0  0  0  0  0  0  0  0
  -29.3286  -23.1982   19.8865 N   0  0  0  0  0  0  0  0  0  0  0  0
  -21.8786  -28.5704   22.3318 N   0  0  0  0  0  0  0  0  0  0  0  0
  -24.9496  -34.2705   23.3870 N   0  0  0  0  0  0  0  0  0  0  0  0
  -28.3847  -34.9684   24.2706 N   0  3  0  0  0  0  0  0  0  0  0  0
  -32.0012  -16.3316   21.1913 O   0  0  0  0  0  0  0  0  0  0  0  0
  -22.7225  -29.8530   20.5809 O   0  0  0  0  0  0  0  0  0  0  0  0
  -23.1939  -32.0970   24.0210 O   0  0  0  0  0  0  0  0  0  0  0  0
  -26.8062  -34.4235   22.0061 O   0  0  0  0  0  0  0  0  0  0  0  0
  -27.6424  -24.4996   20.8057 O   0  0  0  0  0  0  0  0  0  0  0  0
  -25.8760  -11.5880   20.4388 O   0  0  0  0  0  0  0  0  0  0  0  0
  -28.1240  -29.3039   17.7161 O   0  0  0  0  0  0  0  0  0  1  0  0
  -21.6957  -10.2026   23.7568 F   0  0  0  0  0  0  0  0  0  0  0  0
  -23.5873  -13.1342   20.5580 F   0  0  0  0  0  0  0  0  0  0  0  0
  -32.2408  -29.4319   20.3280 F   0  0  0  0  0  0  0  0  0  0  0  0
  -33.3370  -27.5432   20.3764 F   0  0  0  0  0  0  0  0  0  0  0  0
  -31.4520  -27.7441   21.4505 F   0  0  0  0  0  0  0  0  0  0  0  0
  -31.6773  -23.6273   18.7138 S   0  0  0  0  0  0  0  0  0  0  0  0
  1  2  1  0  0  0  0
  1  5  2  0  0  0  0
  2  6  2  0  0  0  0
  3  8  2  0  0  0  0
  3 15  1  0  0  0  0
  4  9  1  0  0  0  0
  4 15  2  0  0  0  0
  5 17  1  0  0  0  0
  6 19  1  0  0  0  0
  7 10  2  0  0  0  0
  7 18  1  0  0  0  0
  8 21  1  0  0  0  0
  9 21  2  0  0  0  0
 10 22  1  0  0  0  0
 11 12  2  0  0  0  0
 11 23  1  0  0  0  0
 12 24  1  0  0  0  0
 13 20  1  0  0  0  0
 13 22  2  0  0  0  0
 14 24  2  0  0  0  0
 14 25  1  0  0  0  0
 15 26  1  0  0  0  0
 16 26  1  0  0  0  0
 16 29  2  0  0  0  0
 16 31  1  0  0  0  0
 17 19  2  0  0  0  0
 17 36  1  0  0  0  0
 18 20  2  0  0  0  0
 18 37  1  0  0  0  0
 19 45  1  0  0  0  0
 20 38  1  0  0  0  0
 21 79  1  0  0  0  0
 22 80  1  0  0  0  0
 23 25  2  0  0  0  0
 23 79  1  0  0  0  0
 24 81  1  0  0  0  0
 25 82  1  0  0  0  0
 26 63  2  0  0  0  0
 27 28  2  0  0  0  0
 27 57  1  0  0  0  0
 27 64  1  0  0  0  0
 28 48  1  0  0  0  0
 28 86  1  0  0  0  0
 29 65  1  0  0  0  0
 29 68  1  0  0  0  0
 30 64  2  0  0  0  0
 30 70  1  0  0  0  0
 30 86  1  0  0  0  0
 31 69  1  0  0  0  0
 31 74  2  0  0  0  0
 32 46  1  0  0  0  0
 32 71  1  0  0  0  0
 32 75  2  0  0  0  0
 33 58  1  0  0  0  0
 33 66  1  0  0  0  0
 33 76  2  0  0  0  0
 34 59  1  0  0  0  0
 34 72  1  0  0  0  0
 34 77  2  0  0  0  0
 35 67  1  0  0  0  0
 35 70  1  0  0  0  0
 35 78  2  0  0  0  0
 36 39  1  0  0  0  0
 37 46  1  0  0  0  0
 38 66  1  0  0  0  0
 39 41  1  0  0  0  0
 40 42  1  0  0  0  0
 40 43  1  0  0  0  0
 41 45  1  0  0  0  0
 42 47  1  0  0  0  0
 43 67  1  0  0  0  0
 44 47  1  0  0  0  0
 44 67  1  0  0  0  0
 45 71  1  0  0  0  0
 46 66  1  0  0  0  0
 47 65  1  0  0  0  0
 49 59  1  0  0  0  0
 50 60  1  0  0  0  0
 51 60  1  0  0  0  0
 52 60  1  0  0  0  0
 53 61  1  0  0  0  0
 54 61  1  0  0  0  0
 55 73  1  0  0  0  0
 56 57  1  0  0  0  0
 56 61  1  0  0  0  0
 57 62  1  0  0  0  0
 58 60  1  0  0  0  0
 58 72  1  0  0  0  0
 59 73  1  0  0  0  0
 61 80  1  0  0  0  0
 62 83  1  0  0  0  0
 62 84  1  0  0  0  0
 62 85  1  0  0  0  0
 63 65  1  0  0  0  0
M  CHG  1  73   1
M  ISO  4  35 100  61 101  70 100  80 101
M  END
> <Batch ID>
0184

> <Smiles>
CNC(C)C(=O)NC(C(=O)N1Cc2cc([101O:1][101C:1](C)(C)CC(c3nc([100NH:0][100C:0](=O)N4CCCC(n5nc(-c6ccc(Oc7ccc(F)cc7F)cc6)c(C(N)=O)c5N)C4)sc3C)C(F)(F)F)ccc2CC1C(=O)NC1CCCc2ccccc21)C(C)(C)C

> <Shape>
0.315

> <Color>
0.113

> <Negative vol penalty>
0.000

$$$$

  -OEChem-04052305023D

 87 95  0     1  0  0  0  0  0999 V2000
  -33.2851  -11.3981   19.1000 C   0  0  0  0  0  0  0  0  0  0  0  0
  -32.5938  -12.5970   19.2424 C   0  0  0  0  0  0  0  0  0  0  0  0
  -24.9268  -27.1533   20.2925 C   0  0  0  0  0  0  0  0  0  0  0  0
  -25.9738  -28.9589   19.0756 C   0  0  0  0  0  0  0  0  0  0  0  0
  -32.6024  -10.2414   18.7260 C   0  0  0  0  0  0  0  0  0  0  0  0
  -31.2196  -12.6400   19.0099 C   0  0  0  0  0  0  0  0  0  0  0  0
  -28.7286  -15.2486   22.5645 C   0  0  0  0  0  0  0  0  0  0  0  0
  -25.5569  -27.5766   21.4627 C   0  0  0  0  0  0  0  0  0  0  0  0
  -26.6039  -29.3822   20.2458 C   0  0  0  0  0  0  0  0  0  0  0  0
  -28.7783  -16.6397   22.4856 C   0  0  0  0  0  0  0  0  0  0  0  0
  -28.2044  -31.1539   22.9876 C   0  0  0  0  0  0  0  0  0  0  0  0
  -28.1963  -32.5194   23.2720 C   0  0  0  0  0  0  0  0  0  0  0  0
  -26.5914  -16.6539   21.4675 C   0  0  0  0  0  0  0  0  0  0  0  0
  -25.7806  -32.4979   23.3064 C   0  0  0  0  0  0  0  0  0  0  0  0
  -25.1352  -27.8444   19.0989 C   0  0  0  0  0  0  0  0  0  0  0  0
  -23.2261  -27.8125   17.4073 C   0  0  0  0  0  0  0  0  0  0  0  0
  -31.2175  -10.2682   18.4982 C   0  0  0  0  0  0  0  0  0  0  0  0
  -27.6127  -14.5478   22.0848 C   0  0  0  0  0  0  0  0  0  0  0  0
  -30.5180  -11.4829   18.6312 C   0  0  0  0  0  0  0  0  0  0  0  0
  -26.5289  -15.2541   21.5439 C   0  0  0  0  0  0  0  0  0  0  0  0
  -26.3955  -28.6910   21.4394 C   0  0  0  0  0  0  0  0  0  0  0  0
  -27.7108  -17.3424   21.9344 C   0  0  0  0  0  0  0  0  0  0  0  0
  -27.0006  -30.4603   22.8626 C   0  0  0  0  0  0  0  0  0  0  0  0
  -26.9844  -33.1914   23.4314 C   0  0  0  0  0  0  0  0  0  0  0  0
  -25.7887  -31.1323   23.0221 C   0  0  0  0  0  0  0  0  0  0  0  0
  -24.4850  -27.4074   17.8897 C   0  0  0  0  0  0  0  0  0  0  0  0
  -29.8712  -23.6357   18.3531 C   0  0  0  0  0  0  0  0  0  0  0  0
  -23.0672  -27.1153   16.2346 C   0  0  0  0  0  0  0  0  0  0  0  0
  -30.2898  -24.3664   19.4453 C   0  0  0  0  0  0  0  0  0  0  0  0
  -29.1897  -22.2807   19.9373 C   0  0  0  0  0  0  0  0  0  0  0  0
  -22.2845  -28.7364   17.9689 C   0  0  0  0  0  0  0  0  0  0  0  0
  -30.0660  -24.0747   16.9636 C   0  0  0  0  0  0  0  0  0  0  0  0
  -27.1329  -12.3812   19.8090 C   0  0  0  0  0  0  0  0  0  0  0  0
  -24.1365  -12.3112   21.0496 C   0  0  0  0  0  0  0  0  0  0  0  0
  -21.6926  -13.9131   22.8125 C   0  0  0  0  0  0  0  0  0  0  0  0
  -27.6103  -24.1131   16.4133 C   0  0  0  0  0  0  0  0  0  0  0  0
  -30.5309   -9.0024   18.0497 C   0  0  0  0  0  0  0  0  0  0  0  0
  -27.5632  -13.0491   22.2016 C   0  0  0  0  0  0  0  0  0  0  0  0
  -25.2991  -14.5503   21.0332 C   0  0  0  0  0  0  0  0  0  0  0  0
  -29.0113   -9.0524   18.1865 C   0  0  0  0  0  0  0  0  0  0  0  0
  -26.1874  -25.2575   13.0458 C   0  0  0  0  0  0  0  0  0  0  0  0
  -28.4684  -10.3659   17.6325 C   0  0  0  0  0  0  0  0  0  0  0  0
  -25.1764  -26.1426   13.7658 C   0  0  0  0  0  0  0  0  0  0  0  0
  -27.2917  -24.8245   14.0066 C   0  0  0  0  0  0  0  0  0  0  0  0
  -25.3464  -24.1923   15.4355 C   0  0  0  0  0  0  0  0  0  0  0  0
  -29.0229  -11.5645   18.4119 C   0  0  1  0  0  0  0  0  0  0  0  0
  -26.5971  -12.4042   21.2126 C   0  0  1  0  0  0  0  0  0  0  0  0
  -24.5275  -25.4086   14.9573 C   0  0  1  0  0  0  0  0  0  0  0  0
  -19.3391  -13.6176   23.6319 C   0  0  0  0  0  0  0  0  0  0  0  0
  -29.1209  -19.1812   19.3109 C   0  0  0  0  0  0  0  0  0  0  0  0
  -33.1194  -24.1381   14.9676 C   0  0  0  0  0  0  0  0  0  0  0  0
  -31.7656  -26.2452   15.2552 C   0  0  0  0  0  0  0  0  0  0  0  0
  -25.9362  -20.1837   21.3456 C   0  0  0  0  0  0  0  0  0  0  0  0
  -23.0921  -12.8340   18.2308 C   0  0  0  0  0  0  0  0  0  0  0  0
  -20.8894  -13.4659   19.2392 C   0  0  0  0  0  0  0  0  0  0  0  0
  -21.7774  -11.1536   19.5355 C   0  0  0  0  0  0  0  0  0  0  0  0
  -22.5239  -14.1569   25.6424 C   0  0  0  0  0  0  0  0  0  0  0  0
  -22.8546  -13.0654   20.7913 C   0  0  1  0  0  0  0  0  0  0  0  0
  -20.8145  -13.4538   23.9625 C   0  0  2  0  0  0  0  0  0  0  0  0
  -28.0148  -20.0810   19.8575 C   0  0  1  0  0  0  0  0  0  0  0  0
  -31.7510  -24.7261   15.2663 C   0  0  0  0  0  0  0  0  0  0  0  0
  -27.0510  -19.3124   20.7771 C   0  0  1  0  0  0  0  0  0  1  0  0
  -22.1772  -12.6431   19.4570 C   0  0  0  0  0  0  0  0  0  0  0  0
  -25.0833  -26.5214   17.0890 N   0  0  0  0  0  0  0  0  0  0  0  0
  -29.2405  -22.4392   18.6333 N   0  0  0  0  0  0  0  0  0  0  0  0
  -24.1965  -26.3640   16.0916 N   0  0  0  0  0  0  0  0  0  0  0  0
  -25.3010  -13.0839   21.1637 N   0  0  0  0  0  0  0  0  0  0  0  0
  -26.7907  -24.3931   15.3164 N   0  0  0  0  0  0  0  0  0  0  0  0
  -22.0730  -27.0778   15.3221 N   0  0  0  0  0  0  0  0  0  0  0  0
  -30.9270  -25.5626   19.4606 N   0  0  0  0  0  0  0  0  0  0  0  0
  -22.6061  -29.3650   19.1796 N   0  0  0  0  0  0  0  0  0  0  0  0
  -28.6242  -21.1878   20.5677 N   0  0  0  0  0  0  0  0  0  0  0  0
  -29.0261  -24.2736   16.1385 N   0  0  0  0  0  0  0  0  0  0  0  0
  -28.3326  -11.7086   19.6757 N   0  0  0  0  0  0  0  0  0  0  0  0
  -22.0210  -12.8702   21.9725 N   0  0  0  0  0  0  0  0  0  0  0  0
  -31.3404  -24.2789   16.5998 N   0  3  0  0  0  0  0  0  0  0  0  0
  -21.1118  -14.2456   25.1896 N   0  3  0  0  0  0  0  0  0  0  0  0
  -21.1832  -28.9845   17.4219 O   0  0  0  0  0  0  0  0  0  0  0  0
  -26.5037  -12.9316   18.9130 O   0  0  0  0  0  0  0  0  0  0  0  0
  -24.1048  -11.0825   21.1537 O   0  0  0  0  0  0  0  0  0  0  0  0
  -22.0483  -15.0810   22.6713 O   0  0  0  0  0  0  0  0  0  0  0  0
  -27.2231  -23.7516   17.5183 O   0  0  0  0  0  0  0  0  0  0  0  0
  -27.0103  -29.1045   22.5811 O   0  0  0  0  0  0  0  0  0  0  0  0
  -27.7570  -18.7001   21.8555 O   0  0  0  0  0  0  0  0  0  1  0  0
  -26.9768  -34.5024   23.7059 F   0  0  0  0  0  0  0  0  0  0  0  0
  -24.6291  -30.4712   22.9043 F   0  0  0  0  0  0  0  0  0  0  0  0
  -29.8808  -23.5321   20.8867 S   0  0  0  0  0  0  0  0  0  0  0  0
  1  2  1  0  0  0  0
  1  5  2  0  0  0  0
  2  6  2  0  0  0  0
  3  8  2  0  0  0  0
  3 15  1  0  0  0  0
  4  9  1  0  0  0  0
  4 15  2  0  0  0  0
  5 17  1  0  0  0  0
  6 19  1  0  0  0  0
  7 10  2  0  0  0  0
  7 18  1  0  0  0  0
  8 21  1  0  0  0  0
  9 21  2  0  0  0  0
 10 22  1  0  0  0  0
 11 12  2  0  0  0  0
 11 23  1  0  0  0  0
 12 24  1  0  0  0  0
 13 20  1  0  0  0  0
 13 22  2  0  0  0  0
 14 24  2  0  0  0  0
 14 25  1  0  0  0  0
 15 26  1  0  0  0  0
 16 26  1  0  0  0  0
 16 28  2  0  0  0  0
 16 31  1  0  0  0  0
 17 19  2  0  0  0  0
 17 37  1  0  0  0  0
 18 20  2  0  0  0  0
 18 38  1  0  0  0  0
 19 46  1  0  0  0  0
 20 39  1  0  0  0  0
 21 83  1  0  0  0  0
 22 84  1  0  0  0  0
 23 25  2  0  0  0  0
 23 83  1  0  0  0  0
 24 85  1  0  0  0  0
 25 86  1  0  0  0  0
 26 64  2  0  0  0  0
 27 29  2  0  0  0  0
 27 32  1  0  0  0  0
 27 65  1  0  0  0  0
 28 66  1  0  0  0  0
 28 69  1  0  0  0  0
 29 70  1  0  0  0  0
 29 87  1  0  0  0  0
 30 65  2  0  0  0  0
 30 72  1  0  0  0  0
 30 87  1  0  0  0  0
 31 71  1  0  0  0  0
 31 78  2  0  0  0  0
 32 73  1  0  0  0  0
 32 76  2  0  0  0  0
 33 47  1  0  0  0  0
 33 74  1  0  0  0  0
 33 79  2  0  0  0  0
 34 58  1  0  0  0  0
 34 67  1  0  0  0  0
 34 80  2  0  0  0  0
 35 59  1  0  0  0  0
 35 75  1  0  0  0  0
 35 81  2  0  0  0  0
 36 68  1  0  0  0  0
 36 73  1  0  0  0  0
 36 82  2  0  0  0  0
 37 40  1  0  0  0  0
 38 47  1  0  0  0  0
 39 67  1  0  0  0  0
 40 42  1  0  0  0  0
 41 43  1  0  0  0  0
 41 44  1  0  0  0  0
 42 46  1  0  0  0  0
 43 48  1  0  0  0  0
 44 68  1  0  0  0  0
 45 48  1  0  0  0  0
 45 68  1  0  0  0  0
 46 74  1  0  0  0  0
 47 67  1  0  0  0  0
 48 66  1  0  0  0  0
 49 59  1  0  0  0  0
 50 60  1  0  0  0  0
 51 61  1  0  0  0  0
 52 61  1  0  0  0  0
 53 62  1  0  0  0  0
 54 63  1  0  0  0  0
 55 63  1  0  0  0  0
 56 63  1  0  0  0  0
 57 77  1  0  0  0  0
 58 63  1  0  0  0  0
 58 75  1  0  0  0  0
 59 77  1  0  0  0  0
 60 62  1  0  0  0  0
 60 72  1  0  0  0  0
 61 76  1  0  0  0  0
 62 84  1  0  0  0  0
 64 66  1  0  0  0  0
M  CHG  2  76   1  77   1
M  ISO  4  36 100  62 101  73 100  84 101
M  END
> <Batch ID>
0184

> <Smiles>
CNC(C)C(=O)NC(C(=O)N1Cc2cc([101O:1][101CH:1](C)C(C)Nc3nc(C(=NC(C)C)[100NH:0][100C:0](=O)N4CCCC(n5nc(-c6ccc(Oc7ccc(F)cc7F)cc6)c(C(N)=O)c5N)C4)c(N)s3)ccc2CC1C(=O)NC1CCCc2ccccc21)C(C)(C)C

> <Shape>
0.243

> <Color>
0.063

> <Negative vol penalty>
0.000

$$$$

  -OEChem-04052305023D

 84 92  0     1  0  0  0  0  0999 V2000
  -28.0345  -24.2787   17.9334 C   0  0  0  0  0  0  0  0  0  0  0  0
  -26.8082  -24.6128   18.4992 C   0  0  0  0  0  0  0  0  0  0  0  0
  -27.6395  -14.4034   21.8094 C   0  0  0  0  0  0  0  0  0  0  0  0
  -26.3558  -14.8937   19.8223 C   0  0  0  0  0  0  0  0  0  0  0  0
  -29.2142  -24.7769   18.4849 C   0  0  0  0  0  0  0  0  0  0  0  0
  -26.7610  -25.4444   19.6174 C   0  0  0  0  0  0  0  0  0  0  0  0
  -23.1894  -29.0140   19.2343 C   0  0  0  0  0  0  0  0  0  0  0  0
  -27.2994  -13.0553   21.6966 C   0  0  0  0  0  0  0  0  0  0  0  0
  -26.0157  -13.5456   19.7093 C   0  0  0  0  0  0  0  0  0  0  0  0
  -21.8725  -28.6256   19.4765 C   0  0  0  0  0  0  0  0  0  0  0  0
  -24.5141  -10.2921   19.1013 C   0  0  0  0  0  0  0  0  0  0  0  0
  -23.1839   -9.9804   18.8202 C   0  0  0  0  0  0  0  0  0  0  0  0
  -22.0204  -29.5356   21.7057 C   0  0  0  0  0  0  0  0  0  0  0  0
  -22.4947  -11.0880   20.8538 C   0  0  0  0  0  0  0  0  0  0  0  0
  -27.1677  -15.3226   20.8723 C   0  0  0  0  0  0  0  0  0  0  0  0
  -28.6356  -17.3606   20.4259 C   0  0  0  0  0  0  0  0  0  0  0  0
  -29.1808  -25.6229   19.6046 C   0  0  0  0  0  0  0  0  0  0  0  0
  -23.9365  -29.6574   20.2314 C   0  0  0  0  0  0  0  0  0  0  0  0
  -27.9414  -25.9534   20.1852 C   0  0  0  0  0  0  0  0  0  0  0  0
  -23.3458  -29.9334   21.4728 C   0  0  0  0  0  0  0  0  0  0  0  0
  -26.4875  -12.6265   20.6465 C   0  0  0  0  0  0  0  0  0  0  0  0
  -21.2887  -28.8838   20.7133 C   0  0  0  0  0  0  0  0  0  0  0  0
  -24.8347  -11.0017   20.2587 C   0  0  0  0  0  0  0  0  0  0  0  0
  -22.1742  -10.3784   19.6964 C   0  0  0  0  0  0  0  0  0  0  0  0
  -23.8249  -11.3997   21.1349 C   0  0  0  0  0  0  0  0  0  0  0  0
  -27.5182  -16.7153   20.9887 C   0  0  0  0  0  0  0  0  0  0  0  0
  -21.3746  -23.2913   18.3424 C   0  0  0  0  0  0  0  0  0  0  0  0
  -21.2990  -24.0953   19.4604 C   0  0  0  0  0  0  0  0  0  0  0  0
  -28.5142  -18.6689   20.8261 C   0  0  0  0  0  0  0  0  0  0  0  0
  -22.6342  -22.5482   20.2565 C   0  0  0  0  0  0  0  0  0  0  0  0
  -29.6890  -16.8253   19.6139 C   0  0  0  0  0  0  0  0  0  0  0  0
  -26.6003  -28.9793   21.8277 C   0  0  0  0  0  0  0  0  0  0  0  0
  -26.1945  -31.9749   23.0043 C   0  0  0  0  0  0  0  0  0  0  0  0
  -24.0673  -34.5523   23.6960 C   0  0  0  0  0  0  0  0  0  0  0  0
  -20.4199  -26.1588   20.6041 C   0  0  0  0  0  0  0  0  0  0  0  0
  -23.8389  -22.0365   22.4090 C   0  0  0  0  0  0  0  0  0  0  0  0
  -30.4850  -26.0986   20.1942 C   0  0  0  0  0  0  0  0  0  0  0  0
  -25.3472  -30.0939   19.9453 C   0  0  0  0  0  0  0  0  0  0  0  0
  -24.0984  -30.6396   22.5697 C   0  0  0  0  0  0  0  0  0  0  0  0
  -30.3266  -27.2762   21.1526 C   0  0  0  0  0  0  0  0  0  0  0  0
  -26.7304  -21.3507   24.3701 C   0  0  0  0  0  0  0  0  0  0  0  0
  -29.1807  -27.0213   22.1267 C   0  0  0  0  0  0  0  0  0  0  0  0
  -27.3656  -20.1467   23.6708 C   0  0  0  0  0  0  0  0  0  0  0  0
  -25.2045  -21.2823   24.3432 C   0  0  0  0  0  0  0  0  0  0  0  0
  -25.2501  -19.8883   22.3125 C   0  0  0  0  0  0  0  0  0  0  0  0
  -27.8476  -26.8727   21.3836 C   0  0  1  0  0  0  0  0  0  0  0  0
  -26.1820  -30.2827   21.2082 C   0  0  1  0  0  0  0  0  0  0  0  0
  -26.7855  -19.9455   22.2571 C   0  0  2  0  0  0  0  0  0  0  0  0
  -24.0212  -36.8554   24.6916 C   0  0  0  0  0  0  0  0  0  0  0  0
  -18.0786  -27.0947   20.6496 C   0  0  0  0  0  0  0  0  0  0  0  0
  -26.3830  -30.7673   25.8000 C   0  0  0  0  0  0  0  0  0  0  0  0
  -25.4009  -32.8850   26.7051 C   0  0  0  0  0  0  0  0  0  0  0  0
  -27.5937  -32.9373   25.5171 C   0  0  0  0  0  0  0  0  0  0  0  0
  -23.1270  -35.7555   21.1608 C   0  0  0  0  0  0  0  0  0  0  0  0
  -20.7421  -23.4380   17.0156 C   0  0  0  0  0  0  0  0  0  0  0  0
  -25.4735  -32.5692   24.1900 C   0  0  1  0  0  0  0  0  0  0  0  0
  -24.1638  -36.0411   23.4152 C   0  0  2  0  0  0  0  0  0  0  0  0
  -19.5279  -27.3498   20.2632 C   0  0  1  0  0  0  0  0  0  1  0  0
  -26.1990  -32.2746   25.5333 C   0  0  0  0  0  0  0  0  0  0  0  0
  -26.7440  -17.5452   21.6930 N   0  0  0  0  0  0  0  0  0  0  0  0
  -22.0203  -23.6706   20.5591 N   0  0  0  0  0  0  0  0  0  0  0  0
  -27.3760  -18.7254   21.5754 N   0  0  0  0  0  0  0  0  0  0  0  0
  -25.4769  -31.0409   22.2437 N   0  0  0  0  0  0  0  0  0  0  0  0
  -24.7268  -21.0952   22.9715 N   0  0  0  0  0  0  0  0  0  0  0  0
  -29.2712  -19.7649   20.6067 N   0  0  0  0  0  0  0  0  0  0  0  0
  -29.6603  -15.4605   19.2966 N   0  0  0  0  0  0  0  0  0  0  0  0
  -20.5433  -25.2902   19.5247 N   0  0  0  0  0  0  0  0  0  0  0  0
  -23.4790  -21.7719   21.0880 N   0  0  0  0  0  0  0  0  0  0  0  0
  -27.3420  -28.1699   20.9885 N   0  0  0  0  0  0  0  0  0  0  0  0
  -25.3095  -33.9892   23.8983 N   0  0  0  0  0  0  0  0  0  0  0  0
  -23.0921  -36.4601   22.4682 N   0  3  0  0  0  0  0  0  0  0  0  0
  -30.6368  -17.5329   19.1961 O   0  0  0  0  0  0  0  0  0  0  0  0
  -26.2756  -28.7273   22.9821 O   0  0  0  0  0  0  0  0  0  0  0  0
  -27.3493  -32.3317   22.7577 O   0  0  0  0  0  0  0  0  0  0  0  0
  -22.9967  -33.9500   23.7358 O   0  0  0  0  0  0  0  0  0  0  0  0
  -20.9450  -26.0526   21.7087 O   0  0  0  0  0  0  0  0  0  0  0  0
  -23.4494  -23.0206   23.0429 O   0  0  0  0  0  0  0  0  0  0  0  0
  -26.1557  -11.3111   20.5359 O   0  0  0  0  0  0  0  0  0  0  0  0
  -20.0037  -28.5052   20.9525 O   0  0  0  0  0  0  0  0  0  1  0  0
  -20.8967  -10.0803   19.4256 F   0  0  0  0  0  0  0  0  0  0  0  0
  -24.1266  -12.0826   22.2477 F   0  0  0  0  0  0  0  0  0  0  0  0
  -21.1065  -24.6085   16.4171 F   0  0  0  0  0  0  0  0  0  0  0  0
  -19.3822  -23.4768   17.1145 F   0  0  0  0  0  0  0  0  0  0  0  0
  -22.3887  -21.9471   18.6680 S   0  0  0  0  0  0  0  0  0  0  0  0
  1  2  1  0  0  0  0
  1  5  2  0  0  0  0
  2  6  2  0  0  0  0
  3  8  2  0  0  0  0
  3 15  1  0  0  0  0
  4  9  1  0  0  0  0
  4 15  2  0  0  0  0
  5 17  1  0  0  0  0
  6 19  1  0  0  0  0
  7 10  2  0  0  0  0
  7 18  1  0  0  0  0
  8 21  1  0  0  0  0
  9 21  2  0  0  0  0
 10 22  1  0  0  0  0
 11 12  2  0  0  0  0
 11 23  1  0  0  0  0
 12 24  1  0  0  0  0
 13 20  1  0  0  0  0
 13 22  2  0  0  0  0
 14 24  2  0  0  0  0
 14 25  1  0  0  0  0
 15 26  1  0  0  0  0
 16 26  1  0  0  0  0
 16 29  2  0  0  0  0
 16 31  1  0  0  0  0
 17 19  2  0  0  0  0
 17 37  1  0  0  0  0
 18 20  2  0  0  0  0
 18 38  1  0  0  0  0
 19 46  1  0  0  0  0
 20 39  1  0  0  0  0
 21 78  1  0  0  0  0
 22 79  1  0  0  0  0
 23 25  2  0  0  0  0
 23 78  1  0  0  0  0
 24 80  1  0  0  0  0
 25 81  1  0  0  0  0
 26 60  2  0  0  0  0
 27 28  2  0  0  0  0
 27 55  1  0  0  0  0
 27 84  1  0  0  0  0
 28 61  1  0  0  0  0
 28 67  1  0  0  0  0
 29 62  1  0  0  0  0
 29 65  1  0  0  0  0
 30 61  2  0  0  0  0
 30 68  1  0  0  0  0
 30 84  1  0  0  0  0
 31 66  1  0  0  0  0
 31 72  2  0  0  0  0
 32 47  1  0  0  0  0
 32 69  1  0  0  0  0
 32 73  2  0  0  0  0
 33 56  1  0  0  0  0
 33 63  1  0  0  0  0
 33 74  2  0  0  0  0
 34 57  1  0  0  0  0
 34 70  1  0  0  0  0
 34 75  2  0  0  0  0
 35 58  1  0  0  0  0
 35 67  1  0  0  0  0
 35 76  2  0  0  0  0
 36 64  1  0  0  0  0
 36 68  1  0  0  0  0
 36 77  2  0  0  0  0
 37 40  1  0  0  0  0
 38 47  1  0  0  0  0
 39 63  1  0  0  0  0
 40 42  1  0  0  0  0
 41 43  1  0  0  0  0
 41 44  1  0  0  0  0
 42 46  1  0  0  0  0
 43 48  1  0  0  0  0
 44 64  1  0  0  0  0
 45 48  1  0  0  0  0
 45 64  1  0  0  0  0
 46 69  1  0  0  0  0
 47 63  1  0  0  0  0
 48 62  1  0  0  0  0
 49 57  1  0  0  0  0
 50 58  1  0  0  0  0
 51 59  1  0  0  0  0
 52 59  1  0  0  0  0
 53 59  1  0  0  0  0
 54 71  1  0  0  0  0
 55 82  1  0  0  0  0
 55 83  1  0  0  0  0
 56 59  1  0  0  0  0
 56 70  1  0  0  0  0
 57 71  1  0  0  0  0
 58 79  1  0  0  0  0
 60 62  1  0  0  0  0
M  CHG  1  71   1
M  ISO  4  36 100  58 101  68 100  79 101
M  END
> <Batch ID>
0184

> <Smiles>
CNC(C)C(=O)NC(C(=O)N1Cc2cc([101O:1][101CH:1](C)C(=O)Nc3nc([100NH:0][100C:0](=O)N4CCCC(n5nc(-c6ccc(Oc7ccc(F)cc7F)cc6)c(C(N)=O)c5N)C4)sc3C(F)F)ccc2CC1C(=O)NC1CCCc2ccccc21)C(C)(C)C

> <Shape>
0.289

> <Color>
0.075

> <Negative vol penalty>
0.000

$$$$

  -OEChem-04052305023D

 85 93  0     1  0  0  0  0  0999 V2000
  -34.0954  -31.2124   16.2406 C   0  0  0  0  0  0  0  0  0  0  0  0
  -34.7250  -30.1178   16.8245 C   0  0  0  0  0  0  0  0  0  0  0  0
  -23.1215   -9.8181   19.8892 C   0  0  0  0  0  0  0  0  0  0  0  0
  -23.8892   -9.7813   22.1797 C   0  0  0  0  0  0  0  0  0  0  0  0
  -32.7065  -31.3237   16.2886 C   0  0  0  0  0  0  0  0  0  0  0  0
  -33.9658  -29.1343   17.4577 C   0  0  0  0  0  0  0  0  0  0  0  0
  -35.1368  -23.1257   17.6363 C   0  0  0  0  0  0  0  0  0  0  0  0
  -22.4186   -8.6330   20.1057 C   0  0  0  0  0  0  0  0  0  0  0  0
  -23.1862   -8.5961   22.3962 C   0  0  0  0  0  0  0  0  0  0  0  0
  -35.7313  -22.3142   18.6016 C   0  0  0  0  0  0  0  0  0  0  0  0
  -19.9895   -7.6698   22.9825 C   0  0  0  0  0  0  0  0  0  0  0  0
  -19.2387   -7.5682   24.1537 C   0  0  0  0  0  0  0  0  0  0  0  0
  -33.5485  -21.7293   19.4456 C   0  0  0  0  0  0  0  0  0  0  0  0
  -20.5485   -5.6530   24.8272 C   0  0  0  0  0  0  0  0  0  0  0  0
  -23.8569  -10.3922   20.9262 C   0  0  0  0  0  0  0  0  0  0  0  0
  -24.1116  -12.9301   20.8826 C   0  0  0  0  0  0  0  0  0  0  0  0
  -31.9293  -30.3362   16.9142 C   0  0  0  0  0  0  0  0  0  0  0  0
  -33.7417  -23.2539   17.5752 C   0  0  0  0  0  0  0  0  0  0  0  0
  -32.5652  -29.2331   17.5152 C   0  0  0  0  0  0  0  0  0  0  0  0
  -32.9386  -22.5410   18.4769 C   0  0  0  0  0  0  0  0  0  0  0  0
  -22.4508   -8.0220   21.3592 C   0  0  0  0  0  0  0  0  0  0  0  0
  -34.9373  -21.6182   19.5083 C   0  0  0  0  0  0  0  0  0  0  0  0
  -21.0198   -6.7630   22.7337 C   0  0  0  0  0  0  0  0  0  0  0  0
  -19.5181   -6.5599   25.0760 C   0  0  0  0  0  0  0  0  0  0  0  0
  -21.2992   -5.7546   23.6560 C   0  0  0  0  0  0  0  0  0  0  0  0
  -24.5838  -11.6161   20.7030 C   0  0  0  0  0  0  0  0  0  0  0  0
  -30.4470  -19.2040   23.2016 C   0  0  0  0  0  0  0  0  0  0  0  0
  -31.5578  -18.8966   22.4442 C   0  0  0  0  0  0  0  0  0  0  0  0
  -25.1760  -13.7274   20.5396 C   0  0  0  0  0  0  0  0  0  0  0  0
  -30.3793  -17.0896   22.0497 C   0  0  0  0  0  0  0  0  0  0  0  0
  -22.8257  -13.3890   21.3205 C   0  0  0  0  0  0  0  0  0  0  0  0
  -31.6940  -25.6631   17.9010 C   0  0  0  0  0  0  0  0  0  0  0  0
  -29.5228  -23.4271   17.0020 C   0  0  0  0  0  0  0  0  0  0  0  0
  -28.6853  -20.1260   16.7814 C   0  0  0  0  0  0  0  0  0  0  0  0
  -33.8399  -19.5103   21.5757 C   0  0  0  0  0  0  0  0  0  0  0  0
  -30.6038  -14.9543   20.7318 C   0  0  0  0  0  0  0  0  0  0  0  0
  -30.4343  -30.5238   16.9820 C   0  0  0  0  0  0  0  0  0  0  0  0
  -33.1148  -24.1122   16.5110 C   0  0  0  0  0  0  0  0  0  0  0  0
  -31.4355  -22.6286   18.4406 C   0  0  0  0  0  0  0  0  0  0  0  0
  -29.6764  -29.2495   17.3451 C   0  0  0  0  0  0  0  0  0  0  0  0
  -29.5640  -12.5772   18.2936 C   0  0  0  0  0  0  0  0  0  0  0  0
  -30.3393  -28.5531   18.5293 C   0  0  0  0  0  0  0  0  0  0  0  0
  -28.1368  -12.2233   18.7178 C   0  0  0  0  0  0  0  0  0  0  0  0
  -30.4752  -12.8004   19.4993 C   0  0  0  0  0  0  0  0  0  0  0  0
  -28.5497  -13.4164   20.9072 C   0  0  0  0  0  0  0  0  0  0  0  0
  -31.7745  -28.1332   18.1896 C   0  0  1  0  0  0  0  0  0  0  0  0
  -31.7047  -24.5720   16.8680 C   0  0  1  0  0  0  0  0  0  0  0  0
  -27.5790  -13.2459   19.7272 C   0  0  2  0  0  0  0  0  0  0  0  0
  -26.8296  -18.6101   16.0360 C   0  0  0  0  0  0  0  0  0  0  0  0
  -35.8254  -20.4573   22.8088 C   0  0  0  0  0  0  0  0  0  0  0  0
  -27.9364  -24.1404   19.5089 C   0  0  0  0  0  0  0  0  0  0  0  0
  -26.6556  -22.0086   19.2205 C   0  0  0  0  0  0  0  0  0  0  0  0
  -26.5454  -23.7753   17.4628 C   0  0  0  0  0  0  0  0  0  0  0  0
  -30.4128  -18.8079   14.7720 C   0  0  0  0  0  0  0  0  0  0  0  0
  -28.6631  -22.4196   17.7266 C   0  0  1  0  0  0  0  0  0  0  0  0
  -28.1224  -19.3040   15.6360 C   0  0  2  0  0  0  0  0  0  0  0  0
  -34.8192  -20.6759   21.6886 C   0  0  1  0  0  0  0  0  0  1  0  0
  -30.1521  -20.3940   24.0258 C   0  0  0  0  0  0  0  0  0  0  0  0
  -27.4785  -23.0857   18.4819 C   0  0  0  0  0  0  0  0  0  0  0  0
  -25.8496  -11.5766   20.2786 N   0  0  0  0  0  0  0  0  0  0  0  0
  -31.5210  -17.6844   21.7832 N   0  0  0  0  0  0  0  0  0  0  0  0
  -26.1819  -12.8757   20.1887 N   0  0  0  0  0  0  0  0  0  0  0  0
  -30.8701  -23.4858   17.3856 N   0  0  0  0  0  0  0  0  0  0  0  0
  -29.8845  -13.7842   20.4093 N   0  0  0  0  0  0  0  0  0  0  0  0
  -25.3404  -15.0669   20.5068 N   0  0  0  0  0  0  0  0  0  0  0  0
  -21.8468  -12.4357   21.6324 N   0  0  0  0  0  0  0  0  0  0  0  0
  -32.6880  -19.7395   22.3210 N   0  0  0  0  0  0  0  0  0  0  0  0
  -29.9282  -15.8311   21.5800 N   0  0  0  0  0  0  0  0  0  0  0  0
  -31.7716  -26.9380   17.3735 N   0  0  0  0  0  0  0  0  0  0  0  0
  -28.2578  -21.4359   16.7284 N   0  0  0  0  0  0  0  0  0  0  0  0
  -29.1028  -18.2641   15.2139 N   0  3  0  0  0  0  0  0  0  0  0  0
  -22.5476  -14.6084   21.4161 O   0  0  0  0  0  0  0  0  0  0  0  0
  -31.6194  -25.3701   19.0885 O   0  0  0  0  0  0  0  0  0  0  0  0
  -29.0192  -24.1308   16.1229 O   0  0  0  0  0  0  0  0  0  0  0  0
  -29.4270  -19.6526   17.6395 O   0  0  0  0  0  0  0  0  0  0  0  0
  -34.0946  -18.5301   20.8817 O   0  0  0  0  0  0  0  0  0  0  0  0
  -31.7248  -15.1759   20.2666 O   0  0  0  0  0  0  0  0  0  0  0  0
  -21.7648   -6.8657   21.5709 O   0  0  0  0  0  0  0  0  0  0  0  0
  -35.5151  -20.8259   20.4519 O   0  0  0  0  0  0  0  0  0  1  0  0
  -18.7981   -6.4633   26.2013 F   0  0  0  0  0  0  0  0  0  0  0  0
  -22.2886   -4.8813   23.4230 F   0  0  0  0  0  0  0  0  0  0  0  0
  -31.1496  -21.3355   24.0301 F   0  0  0  0  0  0  0  0  0  0  0  0
  -29.0319  -21.0829   23.6357 F   0  0  0  0  0  0  0  0  0  0  0  0
  -29.9417  -20.0963   25.3468 F   0  0  0  0  0  0  0  0  0  0  0  0
  -29.3028  -17.9316   23.0875 S   0  0  0  0  0  0  0  0  0  0  0  0
  1  2  1  0  0  0  0
  1  5  2  0  0  0  0
  2  6  2  0  0  0  0
  3  8  2  0  0  0  0
  3 15  1  0  0  0  0
  4  9  1  0  0  0  0
  4 15  2  0  0  0  0
  5 17  1  0  0  0  0
  6 19  1  0  0  0  0
  7 10  2  0  0  0  0
  7 18  1  0  0  0  0
  8 21  1  0  0  0  0
  9 21  2  0  0  0  0
 10 22  1  0  0  0  0
 11 12  2  0  0  0  0
 11 23  1  0  0  0  0
 12 24  1  0  0  0  0
 13 20  1  0  0  0  0
 13 22  2  0  0  0  0
 14 24  2  0  0  0  0
 14 25  1  0  0  0  0
 15 26  1  0  0  0  0
 16 26  1  0  0  0  0
 16 29  2  0  0  0  0
 16 31  1  0  0  0  0
 17 19  2  0  0  0  0
 17 37  1  0  0  0  0
 18 20  2  0  0  0  0
 18 38  1  0  0  0  0
 19 46  1  0  0  0  0
 20 39  1  0  0  0  0
 21 78  1  0  0  0  0
 22 79  1  0  0  0  0
 23 25  2  0  0  0  0
 23 78  1  0  0  0  0
 24 80  1  0  0  0  0
 25 81  1  0  0  0  0
 26 60  2  0  0  0  0
 27 28  2  0  0  0  0
 27 58  1  0  0  0  0
 27 85  1  0  0  0  0
 28 61  1  0  0  0  0
 28 67  1  0  0  0  0
 29 62  1  0  0  0  0
 29 65  1  0  0  0  0
 30 61  2  0  0  0  0
 30 68  1  0  0  0  0
 30 85  1  0  0  0  0
 31 66  1  0  0  0  0
 31 72  2  0  0  0  0
 32 47  1  0  0  0  0
 32 69  1  0  0  0  0
 32 73  2  0  0  0  0
 33 55  1  0  0  0  0
 33 63  1  0  0  0  0
 33 74  2  0  0  0  0
 34 56  1  0  0  0  0
 34 70  1  0  0  0  0
 34 75  2  0  0  0  0
 35 57  1  0  0  0  0
 35 67  1  0  0  0  0
 35 76  2  0  0  0  0
 36 64  1  0  0  0  0
 36 68  1  0  0  0  0
 36 77  2  0  0  0  0
 37 40  1  0  0  0  0
 38 47  1  0  0  0  0
 39 63  1  0  0  0  0
 40 42  1  0  0  0  0
 41 43  1  0  0  0  0
 41 44  1  0  0  0  0
 42 46  1  0  0  0  0
 43 48  1  0  0  0  0
 44 64  1  0  0  0  0
 45 48  1  0  0  0  0
 45 64  1  0  0  0  0
 46 69  1  0  0  0  0
 47 63  1  0  0  0  0
 48 62  1  0  0  0  0
 49 56  1  0  0  0  0
 50 57  1  0  0  0  0
 51 59  1  0  0  0  0
 52 59  1  0  0  0  0
 53 59  1  0  0  0  0
 54 71  1  0  0  0  0
 55 59  1  0  0  0  0
 55 70  1  0  0  0  0
 56 71  1  0  0  0  0
 57 79  1  0  0  0  0
 58 82  1  0  0  0  0
 58 83  1  0  0  0  0
 58 84  1  0  0  0  0
 60 62  1  0  0  0  0
M  CHG  1  71   1
M  ISO  4  36 100  57 101  68 100  79 101
M  END
> <Batch ID>
0184

> <Smiles>
CNC(C)C(=O)NC(C(=O)N1Cc2cc([101O:1][101CH:1](C)C(=O)Nc3nc([100NH:0][100C:0](=O)N4CCCC(n5nc(-c6ccc(Oc7ccc(F)cc7F)cc6)c(C(N)=O)c5N)C4)sc3C(F)(F)F)ccc2CC1C(=O)NC1CCCc2ccccc21)C(C)(C)C

> <Shape>
0.214

> <Color>
0.192

> <Negative vol penalty>
0.000

$$$$

  -OEChem-04052305023D

 82 90  0     1  0  0  0  0  0999 V2000
  -24.0765  -29.5242   26.7138 C   0  0  0  0  0  0  0  0  0  0  0  0
  -24.9326  -28.4407   26.5449 C   0  0  0  0  0  0  0  0  0  0  0  0
  -22.9892   -9.8912   20.0002 C   0  0  0  0  0  0  0  0  0  0  0  0
  -23.6969   -9.9772   22.3086 C   0  0  0  0  0  0  0  0  0  0  0  0
  -23.5182  -30.1502   25.6001 C   0  0  0  0  0  0  0  0  0  0  0  0
  -25.2300  -27.9818   25.2622 C   0  0  0  0  0  0  0  0  0  0  0  0
  -30.1650  -27.0363   24.6326 C   0  0  0  0  0  0  0  0  0  0  0  0
  -22.2155   -8.7647   20.2794 C   0  0  0  0  0  0  0  0  0  0  0  0
  -22.9231   -8.8508   22.5878 C   0  0  0  0  0  0  0  0  0  0  0  0
  -30.6582  -25.8458   25.1649 C   0  0  0  0  0  0  0  0  0  0  0  0
  -23.1556   -5.5034   22.1734 C   0  0  0  0  0  0  0  0  0  0  0  0
  -23.7326   -4.4962   22.9468 C   0  0  0  0  0  0  0  0  0  0  0  0
  -30.5634  -24.8351   22.9766 C   0  0  0  0  0  0  0  0  0  0  0  0
  -21.9970   -4.7747   24.6043 C   0  0  0  0  0  0  0  0  0  0  0  0
  -31.9293  -18.7466   22.2683 C   0  0  0  0  0  0  0  0  0  0  0  0
  -23.7300  -10.4974   21.0148 C   0  0  0  0  0  0  0  0  0  0  0  0
  -24.1283  -13.0080   20.8000 C   0  0  0  0  0  0  0  0  0  0  0  0
  -23.8165  -29.7049   24.3027 C   0  0  0  0  0  0  0  0  0  0  0  0
  -29.8565  -27.1318   23.2680 C   0  0  0  0  0  0  0  0  0  0  0  0
  -24.6740  -28.6016   24.1301 C   0  0  0  0  0  0  0  0  0  0  0  0
  -30.0689  -26.0286   22.4290 C   0  0  0  0  0  0  0  0  0  0  0  0
  -22.1823   -8.2445   21.5732 C   0  0  0  0  0  0  0  0  0  0  0  0
  -30.8548  -24.7441   24.3375 C   0  0  0  0  0  0  0  0  0  0  0  0
  -21.9993   -6.1463   22.6154 C   0  0  0  0  0  0  0  0  0  0  0  0
  -23.1533   -4.1319   24.1622 C   0  0  0  0  0  0  0  0  0  0  0  0
  -21.4200   -5.7820   23.8308 C   0  0  0  0  0  0  0  0  0  0  0  0
  -31.8298  -17.4633   21.6573 C   0  0  0  0  0  0  0  0  0  0  0  0
  -24.5300  -11.6607   20.7269 C   0  0  0  0  0  0  0  0  0  0  0  0
  -25.2442  -13.7194   20.4323 C   0  0  0  0  0  0  0  0  0  0  0  0
  -30.7727  -19.0957   22.9301 C   0  0  0  0  0  0  0  0  0  0  0  0
  -30.6008  -16.8803   21.8755 C   0  0  0  0  0  0  0  0  0  0  0  0
  -22.8599  -13.5664   21.1676 C   0  0  0  0  0  0  0  0  0  0  0  0
  -27.2085  -27.6900   21.6006 C   0  0  0  0  0  0  0  0  0  0  0  0
  -29.2599  -27.7053   19.0879 C   0  0  0  0  0  0  0  0  0  0  0  0
  -32.2532  -26.7099   17.7854 C   0  0  0  0  0  0  0  0  0  0  0  0
  -31.2381  -21.3776   23.8869 C   0  0  0  0  0  0  0  0  0  0  0  0
  -30.7261  -14.6595   20.6929 C   0  0  0  0  0  0  0  0  0  0  0  0
  -23.1516  -30.3836   23.1314 C   0  0  0  0  0  0  0  0  0  0  0  0
  -29.3505  -28.4313   22.7043 C   0  0  0  0  0  0  0  0  0  0  0  0
  -29.7725  -26.0858   20.9534 C   0  0  0  0  0  0  0  0  0  0  0  0
  -23.8129  -30.0723   21.7913 C   0  0  0  0  0  0  0  0  0  0  0  0
  -29.6143  -12.1734   18.3993 C   0  0  0  0  0  0  0  0  0  0  0  0
  -24.0790  -28.5759   21.6621 C   0  0  0  0  0  0  0  0  0  0  0  0
  -28.1594  -11.9293   18.8064 C   0  0  0  0  0  0  0  0  0  0  0  0
  -30.5067  -12.4328   19.6118 C   0  0  0  0  0  0  0  0  0  0  0  0
  -28.5848  -13.2523   20.9172 C   0  0  0  0  0  0  0  0  0  0  0  0
  -25.0403  -28.0903   22.7537 C   0  0  1  0  0  0  0  0  0  0  0  0
  -28.5847  -28.2573   21.3963 C   0  0  1  0  0  0  0  0  0  0  0  0
  -27.6354  -13.0506   19.7249 C   0  0  2  0  0  0  0  0  0  0  0  0
  -33.6341  -26.8448   15.6945 C   0  0  0  0  0  0  0  0  0  0  0  0
  -30.1702  -21.8934   26.1125 C   0  0  0  0  0  0  0  0  0  0  0  0
  -27.4652  -25.6186   17.7709 C   0  0  0  0  0  0  0  0  0  0  0  0
  -29.3378  -25.1076   16.1896 C   0  0  0  0  0  0  0  0  0  0  0  0
  -28.3213  -27.3854   16.2217 C   0  0  0  0  0  0  0  0  0  0  0  0
  -34.4487  -28.1146   19.1873 C   0  0  0  0  0  0  0  0  0  0  0  0
  -29.7985  -26.6601   18.1411 C   0  0  1  0  0  0  0  0  0  0  0  0
  -33.3343  -27.4763   17.0450 C   0  0  2  0  0  0  0  0  0  0  0  0
  -30.5102  -22.4235   24.7274 C   0  0  1  0  0  0  0  0  0  1  0  0
  -28.7346  -26.1909   17.1089 C   0  0  0  0  0  0  0  0  0  0  0  0
  -25.8017  -11.5219   20.3428 N   0  0  0  0  0  0  0  0  0  0  0  0
  -26.2087  -12.7912   20.1712 N   0  0  0  0  0  0  0  0  0  0  0  0
  -29.2736  -27.3766   20.4508 N   0  0  0  0  0  0  0  0  0  0  0  0
  -29.9501  -13.5101   20.4332 N   0  0  0  0  0  0  0  0  0  0  0  0
  -25.4845  -15.0421   20.3101 N   0  0  0  0  0  0  0  0  0  0  0  0
  -21.8215  -12.6928   21.5177 N   0  0  0  0  0  0  0  0  0  0  0  0
  -30.4403  -20.2606   23.6619 N   0  0  0  0  0  0  0  0  0  0  0  0
  -30.0802  -15.6305   21.4576 N   0  0  0  0  0  0  0  0  0  0  0  0
  -26.4025  -28.4518   22.4249 N   0  0  0  0  0  0  0  0  0  0  0  0
  -31.0001  -27.2316   17.5428 N   0  0  0  0  0  0  0  0  0  0  0  0
  -34.5926  -27.4984   17.8433 N   0  3  0  0  0  0  0  0  0  0  0  0
  -22.6488  -14.8029   21.1691 O   0  0  0  0  0  0  0  0  0  0  0  0
  -26.9001  -26.6396   21.0499 O   0  0  0  0  0  0  0  0  0  0  0  0
  -28.8490  -28.7768   18.6355 O   0  0  0  0  0  0  0  0  0  0  0  0
  -32.4956  -25.7427   18.5039 O   0  0  0  0  0  0  0  0  0  0  0  0
  -32.3798  -21.5710   23.4791 O   0  0  0  0  0  0  0  0  0  0  0  0
  -31.8688  -14.7857   20.2455 O   0  0  0  0  0  0  0  0  0  0  0  0
  -21.4272   -7.1455   21.8460 O   0  0  0  0  0  0  0  0  0  0  0  0
  -31.3354  -23.5808   24.8546 O   0  0  0  0  0  0  0  0  0  1  0  0
  -23.7067   -3.1636   24.9041 F   0  0  0  0  0  0  0  0  0  0  0  0
  -20.3085   -6.3952   24.2602 F   0  0  0  0  0  0  0  0  0  0  0  0
  -32.8142  -16.8974   20.9562 F   0  0  0  0  0  0  0  0  0  0  0  0
  -29.5734  -17.8790   22.8133 S   0  0  0  0  0  0  0  0  0  0  0  0
  1  2  1  0  0  0  0
  1  5  2  0  0  0  0
  2  6  2  0  0  0  0
  3  8  2  0  0  0  0
  3 16  1  0  0  0  0
  4  9  1  0  0  0  0
  4 16  2  0  0  0  0
  5 18  1  0  0  0  0
  6 20  1  0  0  0  0
  7 10  2  0  0  0  0
  7 19  1  0  0  0  0
  8 22  1  0  0  0  0
  9 22  2  0  0  0  0
 10 23  1  0  0  0  0
 11 12  2  0  0  0  0
 11 24  1  0  0  0  0
 12 25  1  0  0  0  0
 13 21  1  0  0  0  0
 13 23  2  0  0  0  0
 14 25  2  0  0  0  0
 14 26  1  0  0  0  0
 15 27  1  0  0  0  0
 15 30  2  0  0  0  0
 16 28  1  0  0  0  0
 17 28  1  0  0  0  0
 17 29  2  0  0  0  0
 17 32  1  0  0  0  0
 18 20  2  0  0  0  0
 18 38  1  0  0  0  0
 19 21  2  0  0  0  0
 19 39  1  0  0  0  0
 20 47  1  0  0  0  0
 21 40  1  0  0  0  0
 22 77  1  0  0  0  0
 23 78  1  0  0  0  0
 24 26  2  0  0  0  0
 24 77  1  0  0  0  0
 25 79  1  0  0  0  0
 26 80  1  0  0  0  0
 27 31  2  0  0  0  0
 27 81  1  0  0  0  0
 28 60  2  0  0  0  0
 29 61  1  0  0  0  0
 29 64  1  0  0  0  0
 30 66  1  0  0  0  0
 30 82  1  0  0  0  0
 31 67  1  0  0  0  0
 31 82  1  0  0  0  0
 32 65  1  0  0  0  0
 32 71  2  0  0  0  0
 33 48  1  0  0  0  0
 33 68  1  0  0  0  0
 33 72  2  0  0  0  0
 34 56  1  0  0  0  0
 34 62  1  0  0  0  0
 34 73  2  0  0  0  0
 35 57  1  0  0  0  0
 35 69  1  0  0  0  0
 35 74  2  0  0  0  0
 36 58  1  0  0  0  0
 36 66  1  0  0  0  0
 36 75  2  0  0  0  0
 37 63  1  0  0  0  0
 37 67  1  0  0  0  0
 37 76  2  0  0  0  0
 38 41  1  0  0  0  0
 39 48  1  0  0  0  0
 40 62  1  0  0  0  0
 41 43  1  0  0  0  0
 42 44  1  0  0  0  0
 42 45  1  0  0  0  0
 43 47  1  0  0  0  0
 44 49  1  0  0  0  0
 45 63  1  0  0  0  0
 46 49  1  0  0  0  0
 46 63  1  0  0  0  0
 47 68  1  0  0  0  0
 48 62  1  0  0  0  0
 49 61  1  0  0  0  0
 50 57  1  0  0  0  0
 51 58  1  0  0  0  0
 52 59  1  0  0  0  0
 53 59  1  0  0  0  0
 54 59  1  0  0  0  0
 55 70  1  0  0  0  0
 56 59  1  0  0  0  0
 56 69  1  0  0  0  0
 57 70  1  0  0  0  0
 58 78  1  0  0  0  0
 60 61  1  0  0  0  0
M  CHG  1  70   1
M  ISO  4  37 100  58 101  67 100  78 101
M  END
> <Batch ID>
0184

> <Smiles>
CNC(C)C(=O)NC(C(=O)N1Cc2cc([101O:1][101CH:1](C)C(=O)Nc3cc(F)c([100NH:0][100C:0](=O)N4CCCC(n5nc(-c6ccc(Oc7ccc(F)cc7F)cc6)c(C(N)=O)c5N)C4)s3)ccc2CC1C(=O)NC1CCCc2ccccc21)C(C)(C)C

> <Shape>
0.262

> <Color>
0.199

> <Negative vol penalty>
0.000

$$$$

  -OEChem-04052305023D

 85 93  0     1  0  0  0  0  0999 V2000
  -31.2934  -30.0800   30.3557 C   0  0  0  0  0  0  0  0  0  0  0  0
  -31.6131  -28.7338   30.5005 C   0  0  0  0  0  0  0  0  0  0  0  0
  -23.2953   -9.7937   19.9052 C   0  0  0  0  0  0  0  0  0  0  0  0
  -23.7259   -9.9423   22.2778 C   0  0  0  0  0  0  0  0  0  0  0  0
  -29.9627  -30.4665   30.2018 C   0  0  0  0  0  0  0  0  0  0  0  0
  -30.6022  -27.7734   30.4924 C   0  0  0  0  0  0  0  0  0  0  0  0
  -30.9347  -22.0971   28.2176 C   0  0  0  0  0  0  0  0  0  0  0  0
  -22.5681   -8.6213   20.1105 C   0  0  0  0  0  0  0  0  0  0  0  0
  -22.9987   -8.7699   22.4832 C   0  0  0  0  0  0  0  0  0  0  0  0
  -31.1591  -20.8582   28.8165 C   0  0  0  0  0  0  0  0  0  0  0  0
  -19.7506   -7.8569   22.6760 C   0  0  0  0  0  0  0  0  0  0  0  0
  -18.8393   -7.8379   23.7318 C   0  0  0  0  0  0  0  0  0  0  0  0
  -28.7784  -20.4827   28.9180 C   0  0  0  0  0  0  0  0  0  0  0  0
  -29.8053  -15.2535   26.3489 C   0  0  0  0  0  0  0  0  0  0  0  0
  -20.0381   -5.9949   24.7334 C   0  0  0  0  0  0  0  0  0  0  0  0
  -23.8743  -10.4542   20.9888 C   0  0  0  0  0  0  0  0  0  0  0  0
  -24.1333  -12.9838   20.7843 C   0  0  0  0  0  0  0  0  0  0  0  0
  -28.9358  -29.5096   30.1821 C   0  0  0  0  0  0  0  0  0  0  0  0
  -29.6278  -22.5435   27.9739 C   0  0  0  0  0  0  0  0  0  0  0  0
  -29.2564  -28.1477   30.3394 C   0  0  0  0  0  0  0  0  0  0  0  0
  -28.5401  -21.7265   28.3135 C   0  0  0  0  0  0  0  0  0  0  0  0
  -30.2914  -14.9781   25.0381 C   0  0  0  0  0  0  0  0  0  0  0  0
  -22.4198   -8.1094   21.3995 C   0  0  0  0  0  0  0  0  0  0  0  0
  -30.0809  -20.0521   29.1694 C   0  0  0  0  0  0  0  0  0  0  0  0
  -20.8057   -6.9448   22.6488 C   0  0  0  0  0  0  0  0  0  0  0  0
  -18.9830   -6.9069   24.7605 C   0  0  0  0  0  0  0  0  0  0  0  0
  -20.9494   -6.0138   23.6775 C   0  0  0  0  0  0  0  0  0  0  0  0
  -24.6260  -11.6651   20.7772 C   0  0  0  0  0  0  0  0  0  0  0  0
  -30.9852  -13.7894   24.9827 C   0  0  0  0  0  0  0  0  0  0  0  0
  -25.2363  -13.7637   20.5361 C   0  0  0  0  0  0  0  0  0  0  0  0
  -30.1460  -14.2645   27.2454 C   0  0  0  0  0  0  0  0  0  0  0  0
  -22.7981  -13.4610   20.9962 C   0  0  0  0  0  0  0  0  0  0  0  0
  -27.8798  -25.0094   28.9577 C   0  0  0  0  0  0  0  0  0  0  0  0
  -29.9847  -16.4509   29.5351 C   0  0  0  0  0  0  0  0  0  0  0  0
  -25.7480  -23.8581   26.8007 C   0  0  0  0  0  0  0  0  0  0  0  0
  -24.5912  -21.1939   25.0089 C   0  0  0  0  0  0  0  0  0  0  0  0
  -31.1008  -12.9281   21.4081 C   0  0  0  0  0  0  0  0  0  0  0  0
  -27.5078  -29.9796   30.0605 C   0  0  0  0  0  0  0  0  0  0  0  0
  -29.4033  -23.8708   27.3028 C   0  0  0  0  0  0  0  0  0  0  0  0
  -27.1183  -22.1508   28.0548 C   0  0  0  0  0  0  0  0  0  0  0  0
  -26.5305  -28.8680   29.6870 C   0  0  0  0  0  0  0  0  0  0  0  0
  -29.4774  -13.6563   18.3242 C   0  0  0  0  0  0  0  0  0  0  0  0
  -26.7793  -27.6291   30.5414 C   0  0  0  0  0  0  0  0  0  0  0  0
  -28.0055  -13.3476   18.6038 C   0  0  0  0  0  0  0  0  0  0  0  0
  -30.4054  -12.6800   19.0436 C   0  0  0  0  0  0  0  0  0  0  0  0
  -28.7044  -12.2548   20.7755 C   0  0  0  0  0  0  0  0  0  0  0  0
  -28.1901  -27.0742   30.3109 C   0  0  1  0  0  0  0  0  0  0  0  0
  -28.0170  -24.4487   27.5704 C   0  0  1  0  0  0  0  0  0  0  0  0
  -27.7312  -13.2472   20.1164 C   0  0  2  0  0  0  0  0  0  0  0  0
  -28.6539  -15.7645   23.3099 C   0  0  0  0  0  0  0  0  0  0  0  0
  -28.5026  -14.7132   30.5606 C   0  0  0  0  0  0  0  0  0  0  0  0
  -22.8124  -20.5525   23.3591 C   0  0  0  0  0  0  0  0  0  0  0  0
  -23.6782  -23.8421   29.0424 C   0  0  0  0  0  0  0  0  0  0  0  0
  -22.2583  -22.3432   27.6262 C   0  0  0  0  0  0  0  0  0  0  0  0
  -22.8182  -24.6414   26.8343 C   0  0  0  0  0  0  0  0  0  0  0  0
  -26.5950  -20.4421   22.9648 C   0  0  0  0  0  0  0  0  0  0  0  0
  -30.0702  -15.8740   23.8780 C   0  0  0  0  0  0  0  0  0  0  0  0
  -31.6421  -13.1500   23.8200 C   0  0  0  0  0  0  0  0  0  0  0  0
  -29.3318  -17.8207   29.5097 C   0  0  0  0  0  0  0  0  0  1  0  0
  -29.0716  -15.2634   29.2637 C   0  0  2  0  0  0  0  0  0  0  0  0
  -24.6144  -22.8622   26.8449 C   0  0  1  0  0  0  0  0  0  0  0  0
  -24.2401  -21.0442   23.5396 C   0  0  2  0  0  0  0  0  0  0  0  0
  -23.3689  -23.4148   27.5937 C   0  0  0  0  0  0  0  0  0  0  0  0
  -25.9397  -11.6067   20.5430 N   0  0  0  0  0  0  0  0  0  0  0  0
  -26.2818  -12.8985   20.4005 N   0  0  0  0  0  0  0  0  0  0  0  0
  -26.9503  -23.4598   27.4021 N   0  0  0  0  0  0  0  0  0  0  0  0
  -30.0940  -12.6329   20.4742 N   0  0  0  0  0  0  0  0  0  0  0  0
  -25.4041  -15.0984   20.4228 N   0  0  0  0  0  0  0  0  0  0  0  0
  -21.7842  -12.5241   21.2381 N   0  0  0  0  0  0  0  0  0  0  0  0
  -29.8285  -14.2297   28.5923 N   0  0  0  0  0  0  0  0  0  0  0  0
  -28.2463  -26.3373   29.0666 N   0  0  0  0  0  0  0  0  0  0  0  0
  -24.3571  -22.4750   25.4620 N   0  0  0  0  0  0  0  0  0  0  0  0
  -30.7199  -12.8666   22.7430 N   0  0  0  0  0  0  0  0  0  0  0  0
  -25.1588  -20.0710   22.8840 N   0  3  0  0  0  0  0  0  0  0  0  0
  -22.5095  -14.6811   20.9555 O   0  0  0  0  0  0  0  0  0  0  0  0
  -27.4703  -24.2909   29.8619 O   0  0  0  0  0  0  0  0  0  0  0  0
  -31.1852  -16.3153   29.7728 O   0  0  0  0  0  0  0  0  0  0  0  0
  -25.5755  -24.9466   26.2465 O   0  0  0  0  0  0  0  0  0  0  0  0
  -25.0259  -20.2662   25.6877 O   0  0  0  0  0  0  0  0  0  0  0  0
  -32.2524  -13.2297   21.0768 O   0  0  0  0  0  0  0  0  0  0  0  0
  -21.7101   -6.9655   21.6003 O   0  0  0  0  0  0  0  0  0  0  0  0
  -30.2971  -18.8427   29.7547 O   0  0  0  0  0  0  0  0  0  1  0  0
  -18.1087   -6.8898   25.7751 F   0  0  0  0  0  0  0  0  0  0  0  0
  -21.9617   -5.1359   23.6575 F   0  0  0  0  0  0  0  0  0  0  0  0
  -31.0485  -13.0107   26.5065 S   0  0  0  0  0  0  0  0  0  0  0  0
  1  2  1  0  0  0  0
  1  5  2  0  0  0  0
  2  6  2  0  0  0  0
  3  8  2  0  0  0  0
  3 16  1  0  0  0  0
  4  9  1  0  0  0  0
  4 16  2  0  0  0  0
  5 18  1  0  0  0  0
  6 20  1  0  0  0  0
  7 10  2  0  0  0  0
  7 19  1  0  0  0  0
  8 23  1  0  0  0  0
  9 23  2  0  0  0  0
 10 24  1  0  0  0  0
 11 12  2  0  0  0  0
 11 25  1  0  0  0  0
 12 26  1  0  0  0  0
 13 21  1  0  0  0  0
 13 24  2  0  0  0  0
 14 22  1  0  0  0  0
 14 31  2  0  0  0  0
 15 26  2  0  0  0  0
 15 27  1  0  0  0  0
 16 28  1  0  0  0  0
 17 28  1  0  0  0  0
 17 30  2  0  0  0  0
 17 32  1  0  0  0  0
 18 20  2  0  0  0  0
 18 38  1  0  0  0  0
 19 21  2  0  0  0  0
 19 39  1  0  0  0  0
 20 47  1  0  0  0  0
 21 40  1  0  0  0  0
 22 29  2  0  0  0  0
 22 57  1  0  0  0  0
 23 81  1  0  0  0  0
 24 82  1  0  0  0  0
 25 27  2  0  0  0  0
 25 81  1  0  0  0  0
 26 83  1  0  0  0  0
 27 84  1  0  0  0  0
 28 64  2  0  0  0  0
 29 58  1  0  0  0  0
 29 85  1  0  0  0  0
 30 65  1  0  0  0  0
 30 68  1  0  0  0  0
 31 70  1  0  0  0  0
 31 85  1  0  0  0  0
 32 69  1  0  0  0  0
 32 75  2  0  0  0  0
 33 48  1  0  0  0  0
 33 71  1  0  0  0  0
 33 76  2  0  0  0  0
 34 59  1  0  0  0  0
 34 60  1  0  0  0  0
 34 77  2  0  0  0  0
 35 61  1  0  0  0  0
 35 66  1  0  0  0  0
 35 78  2  0  0  0  0
 36 62  1  0  0  0  0
 36 72  1  0  0  0  0
 36 79  2  0  0  0  0
 37 67  1  0  0  0  0
 37 73  1  0  0  0  0
 37 80  2  0  0  0  0
 38 41  1  0  0  0  0
 39 48  1  0  0  0  0
 40 66  1  0  0  0  0
 41 43  1  0  0  0  0
 42 44  1  0  0  0  0
 42 45  1  0  0  0  0
 43 47  1  0  0  0  0
 44 49  1  0  0  0  0
 45 67  1  0  0  0  0
 46 49  1  0  0  0  0
 46 67  1  0  0  0  0
 47 71  1  0  0  0  0
 48 66  1  0  0  0  0
 49 65  1  0  0  0  0
 50 57  1  0  0  0  0
 51 60  1  0  0  0  0
 52 62  1  0  0  0  0
 53 63  1  0  0  0  0
 54 63  1  0  0  0  0
 55 63  1  0  0  0  0
 56 74  1  0  0  0  0
 58 73  1  0  0  0  0
 59 82  1  0  0  0  0
 60 70  1  0  0  0  0
 61 63  1  0  0  0  0
 61 72  1  0  0  0  0
 62 74  1  0  0  0  0
 64 65  1  0  0  0  0
M  CHG  1  74   1
M  ISO  4  37 100  59 101  73 100  82 101
M  END
> <Batch ID>
0184

> <Smiles>
CCc1cc(NC(C)C(=O)[101CH2:1][101O:1]c2ccc3c(c2)CN(C(=O)C(NC(=O)C(C)NC)C(C)(C)C)C(C(=O)NC2CCCc4ccccc42)C3)sc1C[100NH:0][100C:0](=O)N1CCCC(n2nc(-c3ccc(Oc4ccc(F)cc4F)cc3)c(C(N)=O)c2N)C1

> <Shape>
0.135

> <Color>
0.170

> <Negative vol penalty>
0.000

$$$$

  -OEChem-04052305023D

 83 91  0     1  0  0  0  0  0999 V2000
  -17.6757  -27.0428   23.0133 C   0  0  0  0  0  0  0  0  0  0  0  0
  -18.4801  -26.6217   21.9592 C   0  0  0  0  0  0  0  0  0  0  0  0
  -24.2993   -8.9745   20.3622 C   0  0  0  0  0  0  0  0  0  0  0  0
  -22.7813  -10.6770   21.1587 C   0  0  0  0  0  0  0  0  0  0  0  0
  -17.9642  -28.2352   23.6757 C   0  0  0  0  0  0  0  0  0  0  0  0
  -19.5731  -27.3935   21.5663 C   0  0  0  0  0  0  0  0  0  0  0  0
  -23.7289  -24.6120   20.7682 C   0  0  0  0  0  0  0  0  0  0  0  0
  -23.4301   -7.9848   20.8210 C   0  0  0  0  0  0  0  0  0  0  0  0
  -21.9120   -9.6873   21.6174 C   0  0  0  0  0  0  0  0  0  0  0  0
  -23.8031  -23.9083   19.5669 C   0  0  0  0  0  0  0  0  0  0  0  0
  -22.6411   -6.5352   23.7706 C   0  0  0  0  0  0  0  0  0  0  0  0
  -23.1933   -5.4618   24.4695 C   0  0  0  0  0  0  0  0  0  0  0  0
  -25.2278  -25.6280   18.6546 C   0  0  0  0  0  0  0  0  0  0  0  0
  -22.3331   -3.9358   22.8056 C   0  0  0  0  0  0  0  0  0  0  0  0
  -23.9750  -10.3207   20.5311 C   0  0  0  0  0  0  0  0  0  0  0  0
  -24.8804  -11.9458   18.7856 C   0  0  0  0  0  0  0  0  0  0  0  0
  -19.0669  -29.0170   23.2971 C   0  0  0  0  0  0  0  0  0  0  0  0
  -24.3959  -25.8364   20.9183 C   0  0  0  0  0  0  0  0  0  0  0  0
  -19.8758  -28.5981   22.2235 C   0  0  0  0  0  0  0  0  0  0  0  0
  -25.1626  -26.3440   19.8597 C   0  0  0  0  0  0  0  0  0  0  0  0
  -22.2364   -8.3412   21.4485 C   0  0  0  0  0  0  0  0  0  0  0  0
  -24.5503  -24.4177   18.5089 C   0  0  0  0  0  0  0  0  0  0  0  0
  -21.9348   -6.3089   22.5892 C   0  0  0  0  0  0  0  0  0  0  0  0
  -23.0393   -4.1621   23.9870 C   0  0  0  0  0  0  0  0  0  0  0  0
  -21.7809   -5.0093   22.1067 C   0  0  0  0  0  0  0  0  0  0  0  0
  -24.8728  -11.3435   20.0580 C   0  0  0  0  0  0  0  0  0  0  0  0
  -28.9845  -20.6833   19.3273 C   0  0  0  0  0  0  0  0  0  0  0  0
  -25.9163  -12.8461   18.8381 C   0  0  0  0  0  0  0  0  0  0  0  0
  -27.9091  -20.6402   18.4649 C   0  0  0  0  0  0  0  0  0  0  0  0
  -28.2042  -18.7074   19.8720 C   0  0  0  0  0  0  0  0  0  0  0  0
  -24.0273  -11.7123   17.6572 C   0  0  0  0  0  0  0  0  0  0  0  0
  -23.4896  -28.8293   21.4884 C   0  0  0  0  0  0  0  0  0  0  0  0
  -26.6862  -29.3509   21.6667 C   0  0  0  0  0  0  0  0  0  0  0  0
  -29.8359  -28.3609   20.8031 C   0  0  0  0  0  0  0  0  0  0  0  0
  -26.3091  -21.4050   16.6811 C   0  0  0  0  0  0  0  0  0  0  0  0
  -28.7697  -16.8405   21.4661 C   0  0  0  0  0  0  0  0  0  0  0  0
  -19.3112  -30.3222   24.0123 C   0  0  0  0  0  0  0  0  0  0  0  0
  -24.3276  -26.5700   22.2296 C   0  0  0  0  0  0  0  0  0  0  0  0
  -25.9138  -27.6441   19.9768 C   0  0  0  0  0  0  0  0  0  0  0  0
  -20.7075  -30.8930   23.7780 C   0  0  0  0  0  0  0  0  0  0  0  0
  -29.5673  -13.4693   22.2882 C   0  0  0  0  0  0  0  0  0  0  0  0
  -21.0638  -30.8407   22.2958 C   0  0  0  0  0  0  0  0  0  0  0  0
  -28.4177  -12.6652   21.6766 C   0  0  0  0  0  0  0  0  0  0  0  0
  -29.0872  -14.8043   22.8547 C   0  0  0  0  0  0  0  0  0  0  0  0
  -27.1707  -14.8321   21.3069 C   0  0  0  0  0  0  0  0  0  0  0  0
  -21.0848  -29.3953   21.7841 C   0  0  1  0  0  0  0  0  0  0  0  0
  -24.6277  -28.0599   22.0971 C   0  0  1  0  0  0  0  0  0  0  0  0
  -27.6162  -13.5079   20.6652 C   0  0  2  0  0  0  0  0  0  0  0  0
  -29.9510  -21.7933   19.4566 C   0  0  0  0  0  0  0  0  0  0  0  0
  -32.2460  -29.0089   21.0657 C   0  0  0  0  0  0  0  0  0  0  0  0
  -26.3138  -31.5644   19.5998 C   0  0  0  0  0  0  0  0  0  0  0  0
  -28.7858  -31.5168   19.2059 C   0  0  0  0  0  0  0  0  0  0  0  0
  -27.8944  -32.1247   21.4551 C   0  0  0  0  0  0  0  0  0  0  0  0
  -30.4849  -25.8307   22.1945 C   0  0  0  0  0  0  0  0  0  0  0  0
  -25.8193  -23.8822   16.5702 C   0  0  0  0  0  0  0  0  0  1  0  0
  -27.7656  -29.7220   20.6787 C   0  0  1  0  0  0  0  0  0  0  0  0
  -31.0981  -28.1848   21.6279 C   0  0  2  0  0  0  0  0  0  0  0  0
  -26.1041  -22.6121   15.7822 C   0  0  2  0  0  0  0  0  0  0  0  0
  -27.6743  -31.2084   20.2317 C   0  0  0  0  0  0  0  0  0  0  0  0
  -25.8282  -11.8208   20.8601 N   0  0  0  0  0  0  0  0  0  0  0  0
  -29.1551  -19.5761   20.1352 N   0  0  0  0  0  0  0  0  0  0  0  0
  -26.4458  -12.7325   20.0898 N   0  0  0  0  0  0  0  0  0  0  0  0
  -25.8109  -28.3274   21.2769 N   0  0  0  0  0  0  0  0  0  0  0  0
  -28.3397  -15.5495   21.8394 N   0  0  0  0  0  0  0  0  0  0  0  0
  -26.4169  -13.7159   17.9351 N   0  0  0  0  0  0  0  0  0  0  0  0
  -23.0129  -10.7523   17.7737 N   0  0  0  0  0  0  0  0  0  0  0  0
  -27.4172  -21.5562   17.5051 N   0  0  0  0  0  0  0  0  0  0  0  0
  -28.0003  -17.4384   20.4686 N   0  0  0  0  0  0  0  0  0  0  0  0
  -22.3046  -28.7322   22.1926 N   0  0  0  0  0  0  0  0  0  0  0  0
  -29.0333  -29.3633   21.3053 N   0  0  0  0  0  0  0  0  0  0  0  0
  -31.5111  -26.7530   21.6436 N   0  3  0  0  0  0  0  0  0  0  0  0
  -24.1710  -12.3249   16.5720 O   0  0  0  0  0  0  0  0  0  0  0  0
  -23.6733  -29.4651   20.4571 O   0  0  0  0  0  0  0  0  0  0  0  0
  -26.6264  -29.9424   22.7476 O   0  0  0  0  0  0  0  0  0  0  0  0
  -29.5886  -27.6799   19.8103 O   0  0  0  0  0  0  0  0  0  0  0  0
  -25.5475  -20.4444   16.6160 O   0  0  0  0  0  0  0  0  0  0  0  0
  -29.7645  -17.3650   21.9731 O   0  0  0  0  0  0  0  0  0  0  0  0
  -21.3878   -7.3757   21.8960 O   0  0  0  0  0  0  0  0  0  0  0  0
  -24.6239  -23.7332   17.3351 O   0  0  0  0  0  0  0  0  0  1  0  0
  -23.5710   -3.1316   24.6575 F   0  0  0  0  0  0  0  0  0  0  0  0
  -21.1044   -4.7857   20.9716 F   0  0  0  0  0  0  0  0  0  0  0  0
  -25.0599  -22.3996   14.9303 F   0  0  0  0  0  0  0  0  0  0  0  0
  -27.0714  -19.1569   18.6638 S   0  0  0  0  0  0  0  0  0  0  0  0
  1  2  1  0  0  0  0
  1  5  2  0  0  0  0
  2  6  2  0  0  0  0
  3  8  2  0  0  0  0
  3 15  1  0  0  0  0
  4  9  1  0  0  0  0
  4 15  2  0  0  0  0
  5 17  1  0  0  0  0
  6 19  1  0  0  0  0
  7 10  2  0  0  0  0
  7 18  1  0  0  0  0
  8 21  1  0  0  0  0
  9 21  2  0  0  0  0
 10 22  1  0  0  0  0
 11 12  2  0  0  0  0
 11 23  1  0  0  0  0
 12 24  1  0  0  0  0
 13 20  1  0  0  0  0
 13 22  2  0  0  0  0
 14 24  2  0  0  0  0
 14 25  1  0  0  0  0
 15 26  1  0  0  0  0
 16 26  1  0  0  0  0
 16 28  2  0  0  0  0
 16 31  1  0  0  0  0
 17 19  2  0  0  0  0
 17 37  1  0  0  0  0
 18 20  2  0  0  0  0
 18 38  1  0  0  0  0
 19 46  1  0  0  0  0
 20 39  1  0  0  0  0
 21 78  1  0  0  0  0
 22 79  1  0  0  0  0
 23 25  2  0  0  0  0
 23 78  1  0  0  0  0
 24 80  1  0  0  0  0
 25 81  1  0  0  0  0
 26 60  2  0  0  0  0
 27 29  2  0  0  0  0
 27 49  1  0  0  0  0
 27 61  1  0  0  0  0
 28 62  1  0  0  0  0
 28 65  1  0  0  0  0
 29 67  1  0  0  0  0
 29 83  1  0  0  0  0
 30 61  2  0  0  0  0
 30 68  1  0  0  0  0
 30 83  1  0  0  0  0
 31 66  1  0  0  0  0
 31 72  2  0  0  0  0
 32 47  1  0  0  0  0
 32 69  1  0  0  0  0
 32 73  2  0  0  0  0
 33 56  1  0  0  0  0
 33 63  1  0  0  0  0
 33 74  2  0  0  0  0
 34 57  1  0  0  0  0
 34 70  1  0  0  0  0
 34 75  2  0  0  0  0
 35 58  1  0  0  0  0
 35 67  1  0  0  0  0
 35 76  2  0  0  0  0
 36 64  1  0  0  0  0
 36 68  1  0  0  0  0
 36 77  2  0  0  0  0
 37 40  1  0  0  0  0
 38 47  1  0  0  0  0
 39 63  1  0  0  0  0
 40 42  1  0  0  0  0
 41 43  1  0  0  0  0
 41 44  1  0  0  0  0
 42 46  1  0  0  0  0
 43 48  1  0  0  0  0
 44 64  1  0  0  0  0
 45 48  1  0  0  0  0
 45 64  1  0  0  0  0
 46 69  1  0  0  0  0
 47 63  1  0  0  0  0
 48 62  1  0  0  0  0
 50 57  1  0  0  0  0
 51 59  1  0  0  0  0
 52 59  1  0  0  0  0
 53 59  1  0  0  0  0
 54 71  1  0  0  0  0
 55 58  1  0  0  0  0
 55 79  1  0  0  0  0
 56 59  1  0  0  0  0
 56 70  1  0  0  0  0
 57 71  1  0  0  0  0
 58 82  1  0  0  0  0
 60 62  1  0  0  0  0
M  CHG  1  71   1
M  ISO  4  36 100  55 101  68 100  79 101
M  END
> <Batch ID>
0184

> <Smiles>
CNC(C)C(=O)NC(C(=O)N1Cc2cc([101O:1][101CH2:1]C(F)C(=O)Nc3sc([100NH:0][100C:0](=O)N4CCCC(n5nc(-c6ccc(Oc7ccc(F)cc7F)cc6)c(C(N)=O)c5N)C4)nc3C)ccc2CC1C(=O)NC1CCCc2ccccc21)C(C)(C)C

> <Shape>
0.284

> <Color>
0.092

> <Negative vol penalty>
0.000

$$$$

  -OEChem-04052305023D

 89 97  0     1  0  0  0  0  0999 V2000
  -19.7877  -24.1611   22.9220 C   0  0  0  0  0  0  0  0  0  0  0  0
  -21.0642  -24.4724   22.4645 C   0  0  0  0  0  0  0  0  0  0  0  0
  -24.3883   -9.1099   22.1238 C   0  0  0  0  0  0  0  0  0  0  0  0
  -24.2305   -8.6161   19.7641 C   0  0  0  0  0  0  0  0  0  0  0  0
  -18.8304  -25.1665   23.0512 C   0  0  0  0  0  0  0  0  0  0  0  0
  -21.3837  -25.7891   22.1349 C   0  0  0  0  0  0  0  0  0  0  0  0
  -25.8875  -27.2110   23.9621 C   0  0  0  0  0  0  0  0  0  0  0  0
  -23.2525   -8.3362   22.3617 C   0  0  0  0  0  0  0  0  0  0  0  0
  -23.0946   -7.8423   20.0020 C   0  0  0  0  0  0  0  0  0  0  0  0
  -27.0198  -26.7724   23.2771 C   0  0  0  0  0  0  0  0  0  0  0  0
  -22.4878   -5.0543   22.6410 C   0  0  0  0  0  0  0  0  0  0  0  0
  -22.5215   -4.1674   23.7169 C   0  0  0  0  0  0  0  0  0  0  0  0
  -27.1927  -28.9231   22.1982 C   0  0  0  0  0  0  0  0  0  0  0  0
  -25.6773  -22.4618   20.5056 C   0  0  0  0  0  0  0  0  0  0  0  0
  -20.6392   -5.3067   24.7150 C   0  0  0  0  0  0  0  0  0  0  0  0
  -24.8773   -9.2500   20.8249 C   0  0  0  0  0  0  0  0  0  0  0  0
  -27.3898   -9.6168   20.5792 C   0  0  0  0  0  0  0  0  0  0  0  0
  -19.1412  -26.4977   22.7322 C   0  0  0  0  0  0  0  0  0  0  0  0
  -25.3921  -28.5075   23.7618 C   0  0  0  0  0  0  0  0  0  0  0  0
  -20.4291  -26.8130   22.2587 C   0  0  0  0  0  0  0  0  0  0  0  0
  -26.0555  -29.3766   22.8838 C   0  0  0  0  0  0  0  0  0  0  0  0
  -25.1899  -21.1483   20.7646 C   0  0  0  0  0  0  0  0  0  0  0  0
  -22.6056   -7.7023   21.3009 C   0  0  0  0  0  0  0  0  0  0  0  0
  -27.6709  -27.6275   22.3928 C   0  0  0  0  0  0  0  0  0  0  0  0
  -21.5299   -6.0676   22.6020 C   0  0  0  0  0  0  0  0  0  0  0  0
  -21.5972   -4.2935   24.7539 C   0  0  0  0  0  0  0  0  0  0  0  0
  -20.6056   -6.1938   23.6390 C   0  0  0  0  0  0  0  0  0  0  0  0
  -26.0503  -10.0497   20.5784 C   0  0  0  0  0  0  0  0  0  0  0  0
  -26.2123  -20.2382   20.9195 C   0  0  0  0  0  0  0  0  0  0  0  0
  -28.1161  -10.7470   20.2932 C   0  0  0  0  0  0  0  0  0  0  0  0
  -27.0538  -22.5057   20.4727 C   0  0  0  0  0  0  0  0  0  0  0  0
  -26.1388  -18.8526   21.1856 C   0  0  0  0  0  0  0  0  0  0  0  0
  -27.0477  -17.8915   20.8115 C   0  0  0  0  0  0  0  0  0  0  0  0
  -27.9294   -8.3099   20.8171 C   0  0  0  0  0  0  0  0  0  0  0  0
  -26.8336  -16.4766   21.1762 C   0  0  0  0  0  0  0  0  0  0  0  0
  -22.6707  -29.7232   22.6573 C   0  0  0  0  0  0  0  0  0  0  0  0
  -24.0085  -32.5333   23.5715 C   0  0  0  0  0  0  0  0  0  0  0  0
  -27.6114  -24.9169   20.0032 C   0  0  0  0  0  0  0  0  0  0  0  0
  -26.8440  -34.3070   24.2502 C   0  0  0  0  0  0  0  0  0  0  0  0
  -18.0590  -27.5424   22.8430 C   0  0  0  0  0  0  0  0  0  0  0  0
  -24.1852  -28.9744   24.5285 C   0  0  0  0  0  0  0  0  0  0  0  0
  -25.5758  -30.7848   22.6487 C   0  0  0  0  0  0  0  0  0  0  0  0
  -18.5902  -28.9735   22.8291 C   0  0  0  0  0  0  0  0  0  0  0  0
  -27.8181  -14.9226   18.0063 C   0  0  0  0  0  0  0  0  0  0  0  0
  -19.6113  -29.1530   21.7101 C   0  0  0  0  0  0  0  0  0  0  0  0
  -27.5479  -13.4503   18.3047 C   0  0  0  0  0  0  0  0  0  0  0  0
  -26.8156  -15.8407   18.7040 C   0  0  0  0  0  0  0  0  0  0  0  0
  -26.4570  -14.1445   20.4745 C   0  0  0  0  0  0  0  0  0  0  0  0
  -20.8213  -28.2335   21.9147 C   0  0  1  0  0  0  0  0  0  0  0  0
  -23.4678  -30.1429   23.8598 C   0  0  1  0  0  0  0  0  0  0  0  0
  -27.4824  -13.2052   19.8205 C   0  0  1  0  0  0  0  0  0  0  0  0
  -27.6212  -36.5922   24.9367 C   0  0  0  0  0  0  0  0  0  0  0  0
  -31.1972  -27.6722   20.0752 C   0  0  0  0  0  0  0  0  0  0  0  0
  -29.6862  -28.2833   18.1818 C   0  0  0  0  0  0  0  0  0  0  0  0
  -23.4877  -33.5570   20.7447 C   0  0  0  0  0  0  0  0  0  0  0  0
  -25.0946  -35.4224   21.1991 C   0  0  0  0  0  0  0  0  0  0  0  0
  -23.0131  -35.2129   22.5578 C   0  0  0  0  0  0  0  0  0  0  0  0
  -28.0807  -33.2683   26.7303 C   0  0  0  0  0  0  0  0  0  0  0  0
  -28.8753  -25.7534   19.8202 C   0  0  0  0  0  0  0  0  0  0  0  0
  -24.8944  -33.5610   22.9097 C   0  0  1  0  0  0  0  0  0  0  0  0
  -27.2145  -35.2071   25.4151 C   0  0  2  0  0  0  0  0  0  0  0  0
  -29.7863  -28.1420   19.7037 C   0  0  0  0  0  0  0  0  0  0  0  0
  -28.7109  -27.2015   20.2969 C   0  0  2  0  0  0  0  0  0  1  0  0
  -23.7451  -20.8211   20.8532 C   0  0  0  0  0  0  0  0  0  0  0  0
  -24.1306  -34.4112   21.8555 C   0  0  0  0  0  0  0  0  0  0  0  0
  -25.9298  -11.3532   20.3132 N   0  0  0  0  0  0  0  0  0  0  0  0
  -27.2030  -11.7491   20.1447 N   0  0  0  0  0  0  0  0  0  0  0  0
  -26.7280  -15.5477   20.1425 N   0  0  0  0  0  0  0  0  0  0  0  0
  -24.3879  -31.1925   23.4171 N   0  0  0  0  0  0  0  0  0  0  0  0
  -29.4403  -10.9713   20.1570 N   0  0  0  0  0  0  0  0  0  0  0  0
  -27.0423   -7.2615   21.0966 N   0  0  0  0  0  0  0  0  0  0  0  0
  -27.9400  -23.5865   20.2503 N   0  0  0  0  0  0  0  0  0  0  0  0
  -21.7023  -28.7751   22.9271 N   0  0  0  0  0  0  0  0  0  0  0  0
  -25.4906  -34.3414   23.9885 N   0  0  0  0  0  0  0  0  0  0  0  0
  -28.3512  -34.6218   26.1808 N   0  3  0  0  0  0  0  0  0  0  0  0
  -29.1628   -8.0821   20.7989 O   0  0  0  0  0  0  0  0  0  0  0  0
  -26.7564  -16.2038   22.3755 O   0  0  0  0  0  0  0  0  0  0  0  0
  -22.9152  -30.2236   21.5657 O   0  0  0  0  0  0  0  0  0  0  0  0
  -23.0202  -32.9070   24.2082 O   0  0  0  0  0  0  0  0  0  0  0  0
  -26.4883  -25.4049   19.9356 O   0  0  0  0  0  0  0  0  0  0  0  0
  -27.6728  -33.6429   23.6317 O   0  0  0  0  0  0  0  0  0  0  0  0
  -21.4974   -6.9469   21.5327 O   0  0  0  0  0  0  0  0  0  0  0  0
  -28.7760  -27.2017   21.7224 O   0  0  0  0  0  0  0  0  0  1  0  0
  -21.6286   -3.4407   25.7864 F   0  0  0  0  0  0  0  0  0  0  0  0
  -19.6823   -7.1644   23.6066 F   0  0  0  0  0  0  0  0  0  0  0  0
  -22.9199  -21.8968   20.6634 F   0  0  0  0  0  0  0  0  0  0  0  0
  -23.3291  -19.8956   19.9344 F   0  0  0  0  0  0  0  0  0  0  0  0
  -23.3894  -20.3056   22.0691 F   0  0  0  0  0  0  0  0  0  0  0  0
  -27.7525  -20.9677   20.7530 S   0  0  0  0  0  0  0  0  0  0  0  0
  1  2  1  0  0  0  0
  1  5  2  0  0  0  0
  2  6  2  0  0  0  0
  3  8  2  0  0  0  0
  3 16  1  0  0  0  0
  4  9  1  0  0  0  0
  4 16  2  0  0  0  0
  5 18  1  0  0  0  0
  6 20  1  0  0  0  0
  7 10  2  0  0  0  0
  7 19  1  0  0  0  0
  8 23  1  0  0  0  0
  9 23  2  0  0  0  0
 10 24  1  0  0  0  0
 11 12  2  0  0  0  0
 11 25  1  0  0  0  0
 12 26  1  0  0  0  0
 13 21  1  0  0  0  0
 13 24  2  0  0  0  0
 14 22  1  0  0  0  0
 14 31  2  0  0  0  0
 15 26  2  0  0  0  0
 15 27  1  0  0  0  0
 16 28  1  0  0  0  0
 17 28  1  0  0  0  0
 17 30  2  0  0  0  0
 17 34  1  0  0  0  0
 18 20  2  0  0  0  0
 18 40  1  0  0  0  0
 19 21  2  0  0  0  0
 19 41  1  0  0  0  0
 20 49  1  0  0  0  0
 21 42  1  0  0  0  0
 22 29  2  0  0  0  0
 22 64  1  0  0  0  0
 23 82  1  0  0  0  0
 24 83  1  0  0  0  0
 25 27  2  0  0  0  0
 25 82  1  0  0  0  0
 26 84  1  0  0  0  0
 27 85  1  0  0  0  0
 28 66  2  0  0  0  0
 29 32  1  0  0  0  0
 29 89  1  0  0  0  0
 30 67  1  0  0  0  0
 30 70  1  0  0  0  0
 31 72  1  0  0  0  0
 31 89  1  0  0  0  0
 32 33  2  0  0  0  0
 33 35  1  0  0  0  0
 34 71  1  0  0  0  0
 34 76  2  0  0  0  0
 35 68  1  0  0  0  0
 35 77  2  0  0  0  0
 36 50  1  0  0  0  0
 36 73  1  0  0  0  0
 36 78  2  0  0  0  0
 37 60  1  0  0  0  0
 37 69  1  0  0  0  0
 37 79  2  0  0  0  0
 38 59  1  0  0  0  0
 38 72  1  0  0  0  0
 38 80  2  0  0  0  0
 39 61  1  0  0  0  0
 39 74  1  0  0  0  0
 39 81  2  0  0  0  0
 40 43  1  0  0  0  0
 41 50  1  0  0  0  0
 42 69  1  0  0  0  0
 43 45  1  0  0  0  0
 44 46  1  0  0  0  0
 44 47  1  0  0  0  0
 45 49  1  0  0  0  0
 46 51  1  0  0  0  0
 47 68  1  0  0  0  0
 48 51  1  0  0  0  0
 48 68  1  0  0  0  0
 49 73  1  0  0  0  0
 50 69  1  0  0  0  0
 51 67  1  0  0  0  0
 52 61  1  0  0  0  0
 53 62  1  0  0  0  0
 54 62  1  0  0  0  0
 55 65  1  0  0  0  0
 56 65  1  0  0  0  0
 57 65  1  0  0  0  0
 58 75  1  0  0  0  0
 59 63  1  0  0  0  0
 60 65  1  0  0  0  0
 60 74  1  0  0  0  0
 61 75  1  0  0  0  0
 62 63  1  0  0  0  0
 63 83  1  0  0  0  0
 64 86  1  0  0  0  0
 64 87  1  0  0  0  0
 64 88  1  0  0  0  0
 66 67  1  0  0  0  0
M  CHG  1  75   1
M  ISO  4  33 100  35 100  63 101  83 101
M  END
> <Batch ID>
0184

> <Smiles>
CNC(C)C(=O)NC(C(=O)N1Cc2cc([101O:1][101CH:1](CC(=O)Nc3cc(C(F)(F)F)c(C=[100CH:0][100C:0](=O)N4CCCC(n5nc(-c6ccc(Oc7ccc(F)cc7F)cc6)c(C(N)=O)c5N)C4)s3)C(C)C)ccc2CC1C(=O)NC1CCCc2ccccc21)C(C)(C)C

> <Shape>
0.286

> <Color>
0.115

> <Negative vol penalty>
0.000

$$$$

  -OEChem-04052305023D

 86 94  0     1  0  0  0  0  0999 V2000
  -17.9316  -22.3352   24.4845 C   0  0  0  0  0  0  0  0  0  0  0  0
  -19.3004  -22.1017   24.5696 C   0  0  0  0  0  0  0  0  0  0  0  0
  -24.3453  -13.7410   21.9942 C   0  0  0  0  0  0  0  0  0  0  0  0
  -26.2373  -13.7615   20.4919 C   0  0  0  0  0  0  0  0  0  0  0  0
  -17.4421  -23.2855   23.5894 C   0  0  0  0  0  0  0  0  0  0  0  0
  -20.1805  -22.8177   23.7589 C   0  0  0  0  0  0  0  0  0  0  0  0
  -26.7972  -25.5627   23.7635 C   0  0  0  0  0  0  0  0  0  0  0  0
  -23.8446  -12.6108   21.3481 C   0  0  0  0  0  0  0  0  0  0  0  0
  -25.7366  -12.6313   19.8458 C   0  0  0  0  0  0  0  0  0  0  0  0
  -27.9645  -25.5609   23.0012 C   0  0  0  0  0  0  0  0  0  0  0  0
  -24.4397   -9.2824   21.3317 C   0  0  0  0  0  0  0  0  0  0  0  0
  -23.9685   -8.2371   22.1260 C   0  0  0  0  0  0  0  0  0  0  0  0
  -27.0112  -27.2343   21.5485 C   0  0  0  0  0  0  0  0  0  0  0  0
  -21.7827   -8.4585   21.1207 C   0  0  0  0  0  0  0  0  0  0  0  0
  -25.5417  -14.3164   21.5660 C   0  0  0  0  0  0  0  0  0  0  0  0
  -26.9343  -15.5162   23.3349 C   0  0  0  0  0  0  0  0  0  0  0  0
  -18.3173  -24.0204   22.7742 C   0  0  0  0  0  0  0  0  0  0  0  0
  -25.7221  -26.3937   23.4170 C   0  0  0  0  0  0  0  0  0  0  0  0
  -19.7021  -23.7778   22.8511 C   0  0  0  0  0  0  0  0  0  0  0  0
  -25.8323  -27.2466   22.3095 C   0  0  0  0  0  0  0  0  0  0  0  0
  -24.5402  -12.0559   20.2740 C   0  0  0  0  0  0  0  0  0  0  0  0
  -28.0706  -26.3947   21.8918 C   0  0  0  0  0  0  0  0  0  0  0  0
  -23.5824   -9.9158   20.4319 C   0  0  0  0  0  0  0  0  0  0  0  0
  -22.6400   -7.8251   22.0205 C   0  0  0  0  0  0  0  0  0  0  0  0
  -22.2540   -9.5038   20.3264 C   0  0  0  0  0  0  0  0  0  0  0  0
  -26.0592  -15.4843   22.2326 C   0  0  0  0  0  0  0  0  0  0  0  0
  -30.0608  -23.1186   17.6306 C   0  0  0  0  0  0  0  0  0  0  0  0
  -27.1208  -16.8535   23.5866 C   0  0  0  0  0  0  0  0  0  0  0  0
  -30.7311  -21.9572   17.3084 C   0  0  0  0  0  0  0  0  0  0  0  0
  -28.7955  -21.6951   18.7181 C   0  0  0  0  0  0  0  0  0  0  0  0
  -27.5259  -14.4338   24.0657 C   0  0  0  0  0  0  0  0  0  0  0  0
  -22.7038  -25.9107   22.5453 C   0  0  0  0  0  0  0  0  0  0  0  0
  -30.1341  -25.9720   18.9463 C   0  0  0  0  0  0  0  0  0  0  0  0
  -22.5395  -29.1446   22.7378 C   0  0  0  0  0  0  0  0  0  0  0  0
  -24.1751  -32.1387   22.6540 C   0  0  0  0  0  0  0  0  0  0  0  0
  -26.7389  -21.7423   20.1721 C   0  0  0  0  0  0  0  0  0  0  0  0
  -17.7377  -25.0035   21.7882 C   0  0  0  0  0  0  0  0  0  0  0  0
  -24.4800  -26.4033   24.2653 C   0  0  0  0  0  0  0  0  0  0  0  0
  -24.7146  -28.1725   21.9074 C   0  0  0  0  0  0  0  0  0  0  0  0
  -18.7653  -25.9859   21.2321 C   0  0  0  0  0  0  0  0  0  0  0  0
  -24.9213  -21.0862   23.1626 C   0  0  0  0  0  0  0  0  0  0  0  0
  -20.0330  -25.2502   20.8095 C   0  0  0  0  0  0  0  0  0  0  0  0
  -25.0916  -19.5792   23.3671 C   0  0  0  0  0  0  0  0  0  0  0  0
  -24.7890  -21.4466   21.6840 C   0  0  0  0  0  0  0  0  0  0  0  0
  -26.0287  -19.4221   21.0253 C   0  0  0  0  0  0  0  0  0  0  0  0
  -20.6904  -24.5519   22.0061 C   0  0  1  0  0  0  0  0  0  0  0  0
  -23.2513  -26.9149   23.5197 C   0  0  1  0  0  0  0  0  0  0  0  0
  -26.2311  -19.0172   22.4946 C   0  0  2  0  0  0  0  0  0  0  0  0
  -23.7682  -34.6105   22.8026 C   0  0  0  0  0  0  0  0  0  0  0  0
  -21.4479  -29.1337   19.8885 C   0  0  0  0  0  0  0  0  0  0  0  0
  -21.9577  -31.5814   19.7582 C   0  0  0  0  0  0  0  0  0  0  0  0
  -20.3132  -30.7392   21.4342 C   0  0  0  0  0  0  0  0  0  0  0  0
  -25.8808  -32.3923   25.0593 C   0  0  0  0  0  0  0  0  0  0  0  0
  -29.0752  -26.6974   19.7575 C   0  0  0  0  0  0  0  0  0  1  0  0
  -29.7506  -25.5920   17.5227 C   0  0  1  0  0  0  0  0  0  0  0  0
  -22.7766  -30.2861   21.7787 C   0  0  1  0  0  0  0  0  0  0  0  0
  -24.1144  -33.3457   23.5727 C   0  0  2  0  0  0  0  0  0  0  0  0
  -21.6444  -30.4163   20.7211 C   0  0  0  0  0  0  0  0  0  0  0  0
  -30.0938  -26.6731   16.5169 C   0  0  0  0  0  0  0  0  0  0  0  0
  -25.7136  -16.7044   21.8132 N   0  0  0  0  0  0  0  0  0  0  0  0
  -28.9504  -22.9702   18.4385 N   0  0  0  0  0  0  0  0  0  0  0  0
  -26.3749  -17.5155   22.6564 N   0  0  0  0  0  0  0  0  0  0  0  0
  -23.5181  -28.1409   22.7647 N   0  0  0  0  0  0  0  0  0  0  0  0
  -25.9053  -20.8845   20.9206 N   0  0  0  0  0  0  0  0  0  0  0  0
  -27.8484  -17.5159   24.5109 N   0  0  0  0  0  0  0  0  0  0  0  0
  -27.2280  -13.1215   23.6739 N   0  0  0  0  0  0  0  0  0  0  0  0
  -30.4488  -24.3731   17.1883 N   0  0  0  0  0  0  0  0  0  0  0  0
  -27.7863  -21.0986   19.5140 N   0  0  0  0  0  0  0  0  0  0  0  0
  -21.4096  -25.5101   22.8179 N   0  0  0  0  0  0  0  0  0  0  0  0
  -22.9668  -31.4766   22.6001 N   0  0  0  0  0  0  0  0  0  0  0  0
  -25.4279  -33.5504   24.2464 N   0  3  0  0  0  0  0  0  0  0  0  0
  -28.2827  -14.6245   25.0477 O   0  0  0  0  0  0  0  0  0  0  0  0
  -23.4031  -25.5287   21.6143 O   0  0  0  0  0  0  0  0  0  0  0  0
  -31.2383  -25.7070   19.4218 O   0  0  0  0  0  0  0  0  0  0  0  0
  -21.5271  -29.1472   23.4424 O   0  0  0  0  0  0  0  0  0  0  0  0
  -25.1916  -31.8177   22.0423 O   0  0  0  0  0  0  0  0  0  0  0  0
  -26.5544  -22.9617   20.1409 O   0  0  0  0  0  0  0  0  0  0  0  0
  -24.0519  -10.9529   19.6435 O   0  0  0  0  0  0  0  0  0  0  0  0
  -29.2086  -26.3945   21.1456 O   0  0  0  0  0  0  0  0  0  1  0  0
  -22.1881   -6.8203   22.7823 F   0  0  0  0  0  0  0  0  0  0  0  0
  -21.4260  -10.1077   19.4630 F   0  0  0  0  0  0  0  0  0  0  0  0
  -31.8230  -21.8777   16.5429 F   0  0  0  0  0  0  0  0  0  0  0  0
  -29.4519  -27.8262   16.8134 F   0  0  0  0  0  0  0  0  0  0  0  0
  -29.7499  -26.3246   15.2586 F   0  0  0  0  0  0  0  0  0  0  0  0
  -31.4192  -26.9394   16.5260 F   0  0  0  0  0  0  0  0  0  0  0  0
  -29.9493  -20.6190   18.0429 S   0  0  0  0  0  0  0  0  0  0  0  0
  1  2  1  0  0  0  0
  1  5  2  0  0  0  0
  2  6  2  0  0  0  0
  3  8  2  0  0  0  0
  3 15  1  0  0  0  0
  4  9  1  0  0  0  0
  4 15  2  0  0  0  0
  5 17  1  0  0  0  0
  6 19  1  0  0  0  0
  7 10  2  0  0  0  0
  7 18  1  0  0  0  0
  8 21  1  0  0  0  0
  9 21  2  0  0  0  0
 10 22  1  0  0  0  0
 11 12  2  0  0  0  0
 11 23  1  0  0  0  0
 12 24  1  0  0  0  0
 13 20  1  0  0  0  0
 13 22  2  0  0  0  0
 14 24  2  0  0  0  0
 14 25  1  0  0  0  0
 15 26  1  0  0  0  0
 16 26  1  0  0  0  0
 16 28  2  0  0  0  0
 16 31  1  0  0  0  0
 17 19  2  0  0  0  0
 17 37  1  0  0  0  0
 18 20  2  0  0  0  0
 18 38  1  0  0  0  0
 19 46  1  0  0  0  0
 20 39  1  0  0  0  0
 21 78  1  0  0  0  0
 22 79  1  0  0  0  0
 23 25  2  0  0  0  0
 23 78  1  0  0  0  0
 24 80  1  0  0  0  0
 25 81  1  0  0  0  0
 26 60  2  0  0  0  0
 27 29  2  0  0  0  0
 27 61  1  0  0  0  0
 27 67  1  0  0  0  0
 28 62  1  0  0  0  0
 28 65  1  0  0  0  0
 29 82  1  0  0  0  0
 29 86  1  0  0  0  0
 30 61  2  0  0  0  0
 30 68  1  0  0  0  0
 30 86  1  0  0  0  0
 31 66  1  0  0  0  0
 31 72  2  0  0  0  0
 32 47  1  0  0  0  0
 32 69  1  0  0  0  0
 32 73  2  0  0  0  0
 33 54  1  0  0  0  0
 33 55  1  0  0  0  0
 33 74  2  0  0  0  0
 34 56  1  0  0  0  0
 34 63  1  0  0  0  0
 34 75  2  0  0  0  0
 35 57  1  0  0  0  0
 35 70  1  0  0  0  0
 35 76  2  0  0  0  0
 36 64  1  0  0  0  0
 36 68  1  0  0  0  0
 36 77  2  0  0  0  0
 37 40  1  0  0  0  0
 38 47  1  0  0  0  0
 39 63  1  0  0  0  0
 40 42  1  0  0  0  0
 41 43  1  0  0  0  0
 41 44  1  0  0  0  0
 42 46  1  0  0  0  0
 43 48  1  0  0  0  0
 44 64  1  0  0  0  0
 45 48  1  0  0  0  0
 45 64  1  0  0  0  0
 46 69  1  0  0  0  0
 47 63  1  0  0  0  0
 48 62  1  0  0  0  0
 49 57  1  0  0  0  0
 50 58  1  0  0  0  0
 51 58  1  0  0  0  0
 52 58  1  0  0  0  0
 53 71  1  0  0  0  0
 54 79  1  0  0  0  0
 55 59  1  0  0  0  0
 55 67  1  0  0  0  0
 56 58  1  0  0  0  0
 56 70  1  0  0  0  0
 57 71  1  0  0  0  0
 59 83  1  0  0  0  0
 59 84  1  0  0  0  0
 59 85  1  0  0  0  0
 60 62  1  0  0  0  0
M  CHG  1  71   1
M  ISO  4  36 100  54 101  68 100  79 101
M  END
> <Batch ID>
0184

> <Smiles>
CNC(C)C(=O)NC(C(=O)N1Cc2cc([101O:1][101CH2:1]C(=O)C(Nc3nc([100NH:0][100C:0](=O)N4CCCC(n5nc(-c6ccc(Oc7ccc(F)cc7F)cc6)c(C(N)=O)c5N)C4)sc3F)C(F)(F)F)ccc2CC1C(=O)NC1CCCc2ccccc21)C(C)(C)C

> <Shape>
0.228

> <Color>
0.078

> <Negative vol penalty>
0.000

$$$$

  -OEChem-04052305023D

 82 90  0     1  0  0  0  0  0999 V2000
  -25.4018  -37.9509   26.8197 C   0  0  0  0  0  0  0  0  0  0  0  0
  -24.6982  -36.8234   27.2310 C   0  0  0  0  0  0  0  0  0  0  0  0
  -24.4940   -9.2220   21.6986 C   0  0  0  0  0  0  0  0  0  0  0  0
  -22.7678  -10.2635   20.3673 C   0  0  0  0  0  0  0  0  0  0  0  0
  -25.7969  -38.0776   25.4886 C   0  0  0  0  0  0  0  0  0  0  0  0
  -24.3883  -35.8224   26.3111 C   0  0  0  0  0  0  0  0  0  0  0  0
  -23.5374  -28.7239   25.8599 C   0  0  0  0  0  0  0  0  0  0  0  0
  -23.7226   -8.0637   21.7927 C   0  0  0  0  0  0  0  0  0  0  0  0
  -21.9964   -9.1052   20.4613 C   0  0  0  0  0  0  0  0  0  0  0  0
  -22.6176  -27.7755   25.4146 C   0  0  0  0  0  0  0  0  0  0  0  0
  -21.0658   -6.9792   23.5787 C   0  0  0  0  0  0  0  0  0  0  0  0
  -20.9568   -6.3739   24.8306 C   0  0  0  0  0  0  0  0  0  0  0  0
  -23.4203  -28.0652   23.1583 C   0  0  0  0  0  0  0  0  0  0  0  0
  -21.9417   -4.3553   23.9405 C   0  0  0  0  0  0  0  0  0  0  0  0
  -21.3130  -18.5223   20.8398 C   0  0  0  0  0  0  0  0  0  0  0  0
  -24.0166  -10.3219   20.9860 C   0  0  0  0  0  0  0  0  0  0  0  0
  -25.7637  -11.8294   19.8984 C   0  0  0  0  0  0  0  0  0  0  0  0
  -25.5001  -37.0731   24.5540 C   0  0  0  0  0  0  0  0  0  0  0  0
  -24.3996  -29.3591   24.9545 C   0  0  0  0  0  0  0  0  0  0  0  0
  -24.7786  -35.9363   24.9659 C   0  0  0  0  0  0  0  0  0  0  0  0
  -24.3519  -29.0194   23.5950 C   0  0  0  0  0  0  0  0  0  0  0  0
  -22.4738   -8.0053   21.1741 C   0  0  0  0  0  0  0  0  0  0  0  0
  -22.5569  -27.4481   24.0632 C   0  0  0  0  0  0  0  0  0  0  0  0
  -21.6127   -6.2725   22.5076 C   0  0  0  0  0  0  0  0  0  0  0  0
  -21.3948   -5.0620   25.0115 C   0  0  0  0  0  0  0  0  0  0  0  0
  -22.0506   -4.9606   22.6885 C   0  0  0  0  0  0  0  0  0  0  0  0
  -24.8128  -11.5189   20.8889 C   0  0  0  0  0  0  0  0  0  0  0  0
  -22.1940  -18.6283   21.8956 C   0  0  0  0  0  0  0  0  0  0  0  0
  -26.2369  -13.0690   20.2532 C   0  0  0  0  0  0  0  0  0  0  0  0
  -21.4317  -20.6847   21.8947 C   0  0  0  0  0  0  0  0  0  0  0  0
  -22.0492  -25.2137   23.5938 C   0  0  0  0  0  0  0  0  0  1  0  0
  -26.1819  -11.0656   18.7594 C   0  0  0  0  0  0  0  0  0  0  0  0
  -21.2494  -24.2224   23.1824 C   0  0  0  0  0  0  0  0  0  0  0  0
  -21.7719  -22.8170   23.1861 C   0  0  0  0  0  0  0  0  0  0  0  0
  -24.8584  -32.3640   24.0253 C   0  0  0  0  0  0  0  0  0  0  0  0
  -27.3516  -31.0707   22.4023 C   0  0  0  0  0  0  0  0  0  0  0  0
  -28.7533  -28.3118   20.9634 C   0  0  0  0  0  0  0  0  0  0  0  0
  -23.9096  -17.5764   23.4111 C   0  0  0  0  0  0  0  0  0  0  0  0
  -25.9068  -37.2764   23.1160 C   0  0  0  0  0  0  0  0  0  0  0  0
  -25.4044  -30.3604   25.4547 C   0  0  0  0  0  0  0  0  0  0  0  0
  -25.2695  -29.6576   22.5854 C   0  0  0  0  0  0  0  0  0  0  0  0
  -25.8654  -35.9968   22.2846 C   0  0  0  0  0  0  0  0  0  0  0  0
  -26.9487  -15.8490   24.0872 C   0  0  0  0  0  0  0  0  0  0  0  0
  -24.5647  -35.2400   22.5338 C   0  0  0  0  0  0  0  0  0  0  0  0
  -26.8351  -14.5737   23.2489 C   0  0  0  0  0  0  0  0  0  0  0  0
  -25.6006  -16.2642   24.6736 C   0  0  0  0  0  0  0  0  0  0  0  0
  -24.3967  -15.1119   22.8592 C   0  0  0  0  0  0  0  0  0  0  0  0
  -24.4452  -34.8175   24.0031 C   0  0  1  0  0  0  0  0  0  0  0  0
  -25.8828  -31.3200   24.3695 C   0  0  1  0  0  0  0  0  0  0  0  0
  -25.7172  -14.6903   22.1942 C   0  0  2  0  0  0  0  0  0  0  0  0
  -30.7796  -27.5739   19.6801 C   0  0  0  0  0  0  0  0  0  0  0  0
  -26.2351  -32.3880   19.8867 C   0  0  0  0  0  0  0  0  0  0  0  0
  -27.6994  -30.8771   18.5298 C   0  0  0  0  0  0  0  0  0  0  0  0
  -28.7227  -32.5113   20.1125 C   0  0  0  0  0  0  0  0  0  0  0  0
  -29.5367  -26.3941   23.0770 C   0  0  0  0  0  0  0  0  0  0  0  0
  -27.5385  -30.4739   21.0283 C   0  0  1  0  0  0  0  0  0  0  0  0
  -30.1513  -27.7276   21.0564 C   0  0  2  0  0  0  0  0  0  0  0  0
  -27.5302  -31.5518   19.9078 C   0  0  0  0  0  0  0  0  0  0  0  0
  -24.6880  -12.4835   21.8043 N   0  0  0  0  0  0  0  0  0  0  0  0
  -22.2637  -19.8676   22.5015 N   0  0  0  0  0  0  0  0  0  0  0  0
  -25.5669  -13.4122   21.3905 N   0  0  0  0  0  0  0  0  0  0  0  0
  -26.2303  -30.6353   23.1227 N   0  0  0  0  0  0  0  0  0  0  0  0
  -24.5920  -16.3585   23.6159 N   0  0  0  0  0  0  0  0  0  0  0  0
  -27.1565  -13.8881   19.7002 N   0  0  0  0  0  0  0  0  0  0  0  0
  -25.5936   -9.8120   18.5429 N   0  0  0  0  0  0  0  0  0  0  0  0
  -22.9976  -17.5560   22.3564 N   0  0  0  0  0  0  0  0  0  0  0  0
  -21.1864  -22.0473   22.1903 N   0  0  0  0  0  0  0  0  0  0  0  0
  -25.2735  -33.6600   24.2651 N   0  0  0  0  0  0  0  0  0  0  0  0
  -28.7641  -29.6849   21.0893 N   0  0  0  0  0  0  0  0  0  0  0  0
  -30.1103  -26.3872   21.7067 N   0  3  0  0  0  0  0  0  0  0  0  0
  -27.0634  -11.4751   17.9665 O   0  0  0  0  0  0  0  0  0  0  0  0
  -22.6158  -22.4608   24.0015 O   0  0  0  0  0  0  0  0  0  0  0  0
  -23.7725  -32.0193   23.5740 O   0  0  0  0  0  0  0  0  0  0  0  0
  -28.1741  -31.8876   22.8238 O   0  0  0  0  0  0  0  0  0  0  0  0
  -27.7521  -27.6197   20.7921 O   0  0  0  0  0  0  0  0  0  0  0  0
  -24.1386  -18.5727   24.1017 O   0  0  0  0  0  0  0  0  0  0  0  0
  -19.9560  -24.4418   22.7537 O   0  0  0  0  0  0  0  0  0  0  0  0
  -21.7209   -6.8751   21.2655 O   0  0  0  0  0  0  0  0  0  0  0  0
  -21.6596  -26.5233   23.6258 O   0  0  0  0  0  0  0  0  0  1  0  0
  -21.2915   -4.4815   26.2142 F   0  0  0  0  0  0  0  0  0  0  0  0
  -22.5780   -4.2770   21.6635 F   0  0  0  0  0  0  0  0  0  0  0  0
  -20.5334  -20.0290   20.5878 S   0  0  0  0  0  0  0  0  0  0  0  0
  1  2  1  0  0  0  0
  1  5  2  0  0  0  0
  2  6  2  0  0  0  0
  3  8  2  0  0  0  0
  3 16  1  0  0  0  0
  4  9  1  0  0  0  0
  4 16  2  0  0  0  0
  5 18  1  0  0  0  0
  6 20  1  0  0  0  0
  7 10  2  0  0  0  0
  7 19  1  0  0  0  0
  8 22  1  0  0  0  0
  9 22  2  0  0  0  0
 10 23  1  0  0  0  0
 11 12  2  0  0  0  0
 11 24  1  0  0  0  0
 12 25  1  0  0  0  0
 13 21  1  0  0  0  0
 13 23  2  0  0  0  0
 14 25  2  0  0  0  0
 14 26  1  0  0  0  0
 15 28  2  0  0  0  0
 15 82  1  0  0  0  0
 16 27  1  0  0  0  0
 17 27  1  0  0  0  0
 17 29  2  0  0  0  0
 17 32  1  0  0  0  0
 18 20  2  0  0  0  0
 18 39  1  0  0  0  0
 19 21  2  0  0  0  0
 19 40  1  0  0  0  0
 20 48  1  0  0  0  0
 21 41  1  0  0  0  0
 22 78  1  0  0  0  0
 23 79  1  0  0  0  0
 24 26  2  0  0  0  0
 24 78  1  0  0  0  0
 25 80  1  0  0  0  0
 26 81  1  0  0  0  0
 27 59  2  0  0  0  0
 28 60  1  0  0  0  0
 28 66  1  0  0  0  0
 29 61  1  0  0  0  0
 29 64  1  0  0  0  0
 30 60  2  0  0  0  0
 30 67  1  0  0  0  0
 30 82  1  0  0  0  0
 31 33  2  0  0  0  0
 31 79  1  0  0  0  0
 32 65  1  0  0  0  0
 32 71  2  0  0  0  0
 33 34  1  0  0  0  0
 33 77  1  0  0  0  0
 34 67  1  0  0  0  0
 34 72  2  0  0  0  0
 35 49  1  0  0  0  0
 35 68  1  0  0  0  0
 35 73  2  0  0  0  0
 36 56  1  0  0  0  0
 36 62  1  0  0  0  0
 36 74  2  0  0  0  0
 37 57  1  0  0  0  0
 37 69  1  0  0  0  0
 37 75  2  0  0  0  0
 38 63  1  0  0  0  0
 38 66  1  0  0  0  0
 38 76  2  0  0  0  0
 39 42  1  0  0  0  0
 40 49  1  0  0  0  0
 41 62  1  0  0  0  0
 42 44  1  0  0  0  0
 43 45  1  0  0  0  0
 43 46  1  0  0  0  0
 44 48  1  0  0  0  0
 45 50  1  0  0  0  0
 46 63  1  0  0  0  0
 47 50  1  0  0  0  0
 47 63  1  0  0  0  0
 48 68  1  0  0  0  0
 49 62  1  0  0  0  0
 50 61  1  0  0  0  0
 51 57  1  0  0  0  0
 52 58  1  0  0  0  0
 53 58  1  0  0  0  0
 54 58  1  0  0  0  0
 55 70  1  0  0  0  0
 56 58  1  0  0  0  0
 56 69  1  0  0  0  0
 57 70  1  0  0  0  0
 59 61  1  0  0  0  0
M  CHG  1  70   1
M  ISO  4  31 101  38 100  66 100  79 101
M  END
> <Batch ID>
0184

> <Smiles>
CNC(C)C(=O)NC(C(=O)N1Cc2cc([101O:1][101CH2:1]C(=O)C(=O)Nc3nc([100NH:0][100C:0](=O)N4CCCC(n5nc(-c6ccc(Oc7ccc(F)cc7F)cc6)c(C(N)=O)c5N)C4)cs3)ccc2CC1C(=O)NC1CCCc2ccccc21)C(C)(C)C

> <Shape>
0.252

> <Color>
0.107

> <Negative vol penalty>
0.000

$$$$

  -OEChem-04052305023D

 86 94  0     1  0  0  0  0  0999 V2000
  -28.9999  -33.6518   23.6091 C   0  0  0  0  0  0  0  0  0  0  0  0
  -28.8872  -32.3355   23.1732 C   0  0  0  0  0  0  0  0  0  0  0  0
  -24.1239   -9.6028   22.0473 C   0  0  0  0  0  0  0  0  0  0  0  0
  -22.6438  -10.2268   20.2426 C   0  0  0  0  0  0  0  0  0  0  0  0
  -27.9513  -34.2446   24.3112 C   0  0  0  0  0  0  0  0  0  0  0  0
  -27.7262  -31.6108   23.4401 C   0  0  0  0  0  0  0  0  0  0  0  0
  -26.0862  -29.0166   19.4120 C   0  0  0  0  0  0  0  0  0  0  0  0
  -23.5624   -8.3261   22.0664 C   0  0  0  0  0  0  0  0  0  0  0  0
  -22.0823   -8.9501   20.2617 C   0  0  0  0  0  0  0  0  0  0  0  0
  -26.7489  -27.8286   19.1068 C   0  0  0  0  0  0  0  0  0  0  0  0
  -20.7620   -6.8547   23.2566 C   0  0  0  0  0  0  0  0  0  0  0  0
  -20.4414   -6.3070   24.4987 C   0  0  0  0  0  0  0  0  0  0  0  0
  -22.7584  -21.8458   19.7584 C   0  0  0  0  0  0  0  0  0  0  0  0
  -21.6412  -21.0948   20.2255 C   0  0  0  0  0  0  0  0  0  0  0  0
  -24.9816  -26.5768   20.1693 C   0  0  0  0  0  0  0  0  0  0  0  0
  -21.9491   -4.4669   24.0764 C   0  0  0  0  0  0  0  0  0  0  0  0
  -23.6645  -10.5532   21.1355 C   0  0  0  0  0  0  0  0  0  0  0  0
  -25.3490  -12.3043   20.3582 C   0  0  0  0  0  0  0  0  0  0  0  0
  -26.7730  -33.5300   24.5784 C   0  0  0  0  0  0  0  0  0  0  0  0
  -24.8695  -28.9942   20.1088 C   0  0  0  0  0  0  0  0  0  0  0  0
  -26.6613  -32.1942   24.1475 C   0  0  0  0  0  0  0  0  0  0  0  0
  -24.3041  -27.7659   20.4798 C   0  0  0  0  0  0  0  0  0  0  0  0
  -22.5417   -7.9997   21.1736 C   0  0  0  0  0  0  0  0  0  0  0  0
  -26.1981  -26.6086   19.4880 C   0  0  0  0  0  0  0  0  0  0  0  0
  -21.6760   -6.2085   22.4243 C   0  0  0  0  0  0  0  0  0  0  0  0
  -21.0350   -5.1131   24.9087 C   0  0  0  0  0  0  0  0  0  0  0  0
  -22.2696   -5.0146   22.8342 C   0  0  0  0  0  0  0  0  0  0  0  0
  -24.2437  -11.8724   21.1157 C   0  0  0  0  0  0  0  0  0  0  0  0
  -25.4981  -13.6281   20.6925 C   0  0  0  0  0  0  0  0  0  0  0  0
  -23.5508  -22.2924   20.7929 C   0  0  0  0  0  0  0  0  0  0  0  0
  -21.6225  -20.9958   21.5995 C   0  0  0  0  0  0  0  0  0  0  0  0
  -26.1676  -11.5741   19.4350 C   0  0  0  0  0  0  0  0  0  0  0  0
  -23.8657  -30.1214   22.9062 C   0  0  0  0  0  0  0  0  0  0  0  0
  -20.9823  -29.0732   21.8528 C   0  0  0  0  0  0  0  0  0  0  0  0
  -19.2329  -26.9632   19.8195 C   0  0  0  0  0  0  0  0  0  0  0  0
  -25.4072  -23.5755   19.6777 C   0  0  0  0  0  0  0  0  0  0  0  0
  -21.6676  -17.6641   22.6351 C   0  0  0  0  0  0  0  0  0  0  0  0
  -25.6853  -34.1978   25.3819 C   0  0  0  0  0  0  0  0  0  0  0  0
  -24.1539  -30.2832   20.4069 C   0  0  0  0  0  0  0  0  0  0  0  0
  -22.9902  -27.6865   21.2118 C   0  0  0  0  0  0  0  0  0  0  0  0
  -24.3394  -33.4827   25.2978 C   0  0  0  0  0  0  0  0  0  0  0  0
  -24.7292  -16.6973   24.2796 C   0  0  0  0  0  0  0  0  0  0  0  0
  -24.5197  -31.9807   25.4941 C   0  0  0  0  0  0  0  0  0  0  0  0
  -25.0518  -15.3786   23.5752 C   0  0  0  0  0  0  0  0  0  0  0  0
  -23.2271  -16.8597   24.4982 C   0  0  0  0  0  0  0  0  0  0  0  0
  -22.7319  -15.4235   22.5562 C   0  0  0  0  0  0  0  0  0  0  0  0
  -25.4079  -31.3835   24.3961 C   0  0  1  0  0  0  0  0  0  0  0  0
  -23.1760  -30.1680   21.5722 C   0  0  1  0  0  0  0  0  0  0  0  0
  -24.2325  -15.2224   22.2809 C   0  0  2  0  0  0  0  0  0  0  0  0
  -16.8883  -26.3115   19.2067 C   0  0  0  0  0  0  0  0  0  0  0  0
  -28.2144  -22.8388   18.7416 C   0  0  0  0  0  0  0  0  0  0  0  0
  -29.1363  -24.2696   20.5725 C   0  0  0  0  0  0  0  0  0  0  0  0
  -20.7373  -27.5106   24.4620 C   0  0  0  0  0  0  0  0  0  0  0  0
  -18.8999  -26.1754   23.4087 C   0  0  0  0  0  0  0  0  0  0  0  0
  -18.6314  -28.6360   23.7183 C   0  0  0  0  0  0  0  0  0  0  0  0
  -19.6214  -27.7721   16.9993 C   0  0  0  0  0  0  0  0  0  0  0  0
  -20.2170  -27.7754   21.9470 C   0  0  1  0  0  0  0  0  0  0  0  0
  -18.0706  -27.2085   18.8744 C   0  0  2  0  0  0  0  0  0  0  0  0
  -26.6577  -24.3542   20.0901 C   0  0  1  0  0  0  0  0  0  1  0  0
  -27.9180  -23.4642   20.1092 C   0  0  0  0  0  0  0  0  0  0  0  0
  -19.6471  -27.5256   23.3719 C   0  0  0  0  0  0  0  0  0  0  0  0
  -23.7274  -12.8431   21.8741 N   0  0  0  0  0  0  0  0  0  0  0  0
  -24.5118  -13.8981   21.5949 N   0  0  0  0  0  0  0  0  0  0  0  0
  -22.3320  -28.9745   21.4859 N   0  0  0  0  0  0  0  0  0  0  0  0
  -22.5038  -16.7059   23.2306 N   0  0  0  0  0  0  0  0  0  0  0  0
  -26.3755  -14.5759   20.2997 N   0  0  0  0  0  0  0  0  0  0  0  0
  -25.8758  -10.2222   19.2079 N   0  0  0  0  0  0  0  0  0  0  0  0
  -24.7385  -23.0615   20.7835 N   0  0  0  0  0  0  0  0  0  0  0  0
  -24.6566  -31.2235   23.1695 N   0  0  0  0  0  0  0  0  0  0  0  0
  -19.2041  -27.8217   20.8981 N   0  0  0  0  0  0  0  0  0  0  0  0
  -21.4995  -18.9231   23.3088 N   0  0  0  0  0  0  0  0  0  0  0  0
  -18.4820  -26.9415   17.4671 N   0  3  0  0  0  0  0  0  0  0  0  0
  -27.1395  -12.1005   18.8418 O   0  0  0  0  0  0  0  0  0  0  0  0
  -23.6920  -29.1576   23.6429 O   0  0  0  0  0  0  0  0  0  0  0  0
  -20.4022  -30.1359   22.0888 O   0  0  0  0  0  0  0  0  0  0  0  0
  -20.0795  -26.0942   19.6227 O   0  0  0  0  0  0  0  0  0  0  0  0
  -25.0822  -23.4730   18.4982 O   0  0  0  0  0  0  0  0  0  0  0  0
  -21.0935  -17.4583   21.5650 O   0  0  0  0  0  0  0  0  0  0  0  0
  -20.3046  -21.1579   23.8216 O   0  0  0  0  0  0  0  0  0  0  0  0
  -19.4014  -19.6766   21.9958 O   0  0  0  0  0  0  0  0  0  0  0  0
  -21.9937   -6.7539   21.1918 O   0  0  0  0  0  0  0  0  0  0  0  0
  -26.8432  -25.4475   19.1920 O   0  0  0  0  0  0  0  0  0  1  0  0
  -20.7283   -4.5881   26.1021 F   0  0  0  0  0  0  0  0  0  0  0  0
  -23.1493   -4.3899   22.0395 F   0  0  0  0  0  0  0  0  0  0  0  0
  -22.9476  -21.8063   22.3202 S   0  0  0  0  0  0  0  0  0  0  0  0
  -20.5226  -20.2150   22.7415 S   0  0  0  0  0  0  0  0  0  0  0  0
  1  2  1  0  0  0  0
  1  5  2  0  0  0  0
  2  6  2  0  0  0  0
  3  8  2  0  0  0  0
  3 17  1  0  0  0  0
  4  9  1  0  0  0  0
  4 17  2  0  0  0  0
  5 19  1  0  0  0  0
  6 21  1  0  0  0  0
  7 10  2  0  0  0  0
  7 20  1  0  0  0  0
  8 23  1  0  0  0  0
  9 23  2  0  0  0  0
 10 24  1  0  0  0  0
 11 12  2  0  0  0  0
 11 25  1  0  0  0  0
 12 26  1  0  0  0  0
 13 14  1  0  0  0  0
 13 30  2  0  0  0  0
 14 31  2  0  0  0  0
 15 22  1  0  0  0  0
 15 24  2  0  0  0  0
 16 26  2  0  0  0  0
 16 27  1  0  0  0  0
 17 28  1  0  0  0  0
 18 28  1  0  0  0  0
 18 29  2  0  0  0  0
 18 32  1  0  0  0  0
 19 21  2  0  0  0  0
 19 38  1  0  0  0  0
 20 22  2  0  0  0  0
 20 39  1  0  0  0  0
 21 47  1  0  0  0  0
 22 40  1  0  0  0  0
 23 81  1  0  0  0  0
 24 82  1  0  0  0  0
 25 27  2  0  0  0  0
 25 81  1  0  0  0  0
 26 83  1  0  0  0  0
 27 84  1  0  0  0  0
 28 62  2  0  0  0  0
 29 63  1  0  0  0  0
 29 66  1  0  0  0  0
 30 68  1  0  0  0  0
 30 85  1  0  0  0  0
 31 85  1  0  0  0  0
 31 86  1  0  0  0  0
 32 67  1  0  0  0  0
 32 73  2  0  0  0  0
 33 48  1  0  0  0  0
 33 69  1  0  0  0  0
 33 74  2  0  0  0  0
 34 57  1  0  0  0  0
 34 64  1  0  0  0  0
 34 75  2  0  0  0  0
 35 58  1  0  0  0  0
 35 70  1  0  0  0  0
 35 76  2  0  0  0  0
 36 59  1  0  0  0  0
 36 68  1  0  0  0  0
 36 77  2  0  0  0  0
 37 65  1  0  0  0  0
 37 71  1  0  0  0  0
 37 78  2  0  0  0  0
 38 41  1  0  0  0  0
 39 48  1  0  0  0  0
 40 64  1  0  0  0  0
 41 43  1  0  0  0  0
 42 44  1  0  0  0  0
 42 45  1  0  0  0  0
 43 47  1  0  0  0  0
 44 49  1  0  0  0  0
 45 65  1  0  0  0  0
 46 49  1  0  0  0  0
 46 65  1  0  0  0  0
 47 69  1  0  0  0  0
 48 64  1  0  0  0  0
 49 63  1  0  0  0  0
 50 58  1  0  0  0  0
 51 60  1  0  0  0  0
 52 60  1  0  0  0  0
 53 61  1  0  0  0  0
 54 61  1  0  0  0  0
 55 61  1  0  0  0  0
 56 72  1  0  0  0  0
 57 61  1  0  0  0  0
 57 70  1  0  0  0  0
 58 72  1  0  0  0  0
 59 60  1  0  0  0  0
 59 82  1  0  0  0  0
 62 63  1  0  0  0  0
 71 86  1  0  0  0  0
 79 86  2  0  0  0  0
 80 86  2  0  0  0  0
M  CHG  1  72   1
M  ISO  4  37 100  59 101  71 100  82 101
M  END
> <Batch ID>
0184

> <Smiles>
CNC(C)C(=O)NC(C(=O)N1Cc2cc([101O:1][101CH:1](C(=O)Nc3ccc(S(=O)(=O)[100NH:0][100C:0](=O)N4CCCC(n5nc(-c6ccc(Oc7ccc(F)cc7F)cc6)c(C(N)=O)c5N)C4)s3)C(C)C)ccc2CC1C(=O)NC1CCCc2ccccc21)C(C)(C)C

> <Shape>
0.287

> <Color>
0.093

> <Negative vol penalty>
0.000

$$$$

  -OEChem-04052305023D

 86 94  0     1  0  0  0  0  0999 V2000
  -16.6159  -29.7594   23.7601 C   0  0  0  0  0  0  0  0  0  0  0  0
  -17.6957  -30.3674   24.3923 C   0  0  0  0  0  0  0  0  0  0  0  0
  -28.4868  -17.1479   20.1684 C   0  0  0  0  0  0  0  0  0  0  0  0
  -29.4190  -17.9503   22.2479 C   0  0  0  0  0  0  0  0  0  0  0  0
  -16.8260  -28.6653   22.9218 C   0  0  0  0  0  0  0  0  0  0  0  0
  -18.9864  -29.8808   24.1875 C   0  0  0  0  0  0  0  0  0  0  0  0
  -24.1581  -33.1518   23.9427 C   0  0  0  0  0  0  0  0  0  0  0  0
  -28.8996  -15.8532   20.4829 C   0  0  0  0  0  0  0  0  0  0  0  0
  -29.8318  -16.6556   22.5625 C   0  0  0  0  0  0  0  0  0  0  0  0
  -25.1487  -33.4125   24.8885 C   0  0  0  0  0  0  0  0  0  0  0  0
  -30.8129  -13.5007   24.0797 C   0  0  0  0  0  0  0  0  0  0  0  0
  -30.5802  -13.0420   25.3762 C   0  0  0  0  0  0  0  0  0  0  0  0
  -31.0184  -29.1480   22.5736 C   0  0  0  0  0  0  0  0  0  0  0  0
  -31.1350  -28.2476   21.4755 C   0  0  0  0  0  0  0  0  0  0  0  0
  -26.4676  -31.5996   23.9978 C   0  0  0  0  0  0  0  0  0  0  0  0
  -28.2059  -13.3604   25.0626 C   0  0  0  0  0  0  0  0  0  0  0  0
  -28.7465  -18.1965   21.0509 C   0  0  0  0  0  0  0  0  0  0  0  0
  -27.0890  -20.1356   21.0466 C   0  0  0  0  0  0  0  0  0  0  0  0
  -18.1210  -28.1712   22.6989 C   0  0  0  0  0  0  0  0  0  0  0  0
  -24.3102  -32.1044   23.0229 C   0  0  0  0  0  0  0  0  0  0  0  0
  -19.2139  -28.7783   23.3464 C   0  0  0  0  0  0  0  0  0  0  0  0
  -25.4786  -31.3294   23.0397 C   0  0  0  0  0  0  0  0  0  0  0  0
  -29.5721  -15.6070   21.6800 C   0  0  0  0  0  0  0  0  0  0  0  0
  -26.3024  -32.6345   24.9180 C   0  0  0  0  0  0  0  0  0  0  0  0
  -29.7422  -13.8893   23.2746 C   0  0  0  0  0  0  0  0  0  0  0  0
  -29.2767  -12.9718   25.8676 C   0  0  0  0  0  0  0  0  0  0  0  0
  -28.4386  -13.8191   23.7660 C   0  0  0  0  0  0  0  0  0  0  0  0
  -28.3208  -19.5342   20.7263 C   0  0  0  0  0  0  0  0  0  0  0  0
  -30.4720  -28.5422   23.6836 C   0  0  0  0  0  0  0  0  0  0  0  0
  -27.1773  -21.4009   20.5198 C   0  0  0  0  0  0  0  0  0  0  0  0
  -30.6735  -26.9878   21.7881 C   0  0  0  0  0  0  0  0  0  0  0  0
  -25.9653  -19.5985   21.7571 C   0  0  0  0  0  0  0  0  0  0  0  0
  -22.7273  -29.4194   22.3989 C   0  0  0  0  0  0  0  0  0  0  0  0
  -24.8025  -29.2334   19.9127 C   0  0  0  0  0  0  0  0  0  0  0  0
  -27.8228  -30.1109   18.5880 C   0  0  0  0  0  0  0  0  0  0  0  0
  -28.9079  -31.1280   25.8249 C   0  0  0  0  0  0  0  0  0  0  0  0
  -31.0064  -25.6435   19.6837 C   0  0  0  0  0  0  0  0  0  0  0  0
  -18.2935  -26.9567   21.8215 C   0  0  0  0  0  0  0  0  0  0  0  0
  -23.2443  -31.8531   21.9917 C   0  0  0  0  0  0  0  0  0  0  0  0
  -25.6994  -30.2061   22.0609 C   0  0  0  0  0  0  0  0  0  0  0  0
  -19.7325  -26.7364   21.3624 C   0  0  0  0  0  0  0  0  0  0  0  0
  -29.9490  -23.5324   17.0187 C   0  0  0  0  0  0  0  0  0  0  0  0
  -20.6957  -26.8826   22.5362 C   0  0  0  0  0  0  0  0  0  0  0  0
  -29.3005  -22.3443   17.7328 C   0  0  0  0  0  0  0  0  0  0  0  0
  -31.1663  -24.0555   17.7791 C   0  0  0  0  0  0  0  0  0  0  0  0
  -30.2771  -23.1871   19.9061 C   0  0  0  0  0  0  0  0  0  0  0  0
  -20.6315  -28.2950   23.1298 C   0  0  1  0  0  0  0  0  0  0  0  0
  -23.2748  -30.4333   21.4345 C   0  0  1  0  0  0  0  0  0  0  0  0
  -29.0081  -22.6667   19.2114 C   0  0  2  0  0  0  0  0  0  0  0  0
  -29.2544  -29.7749   16.5545 C   0  0  0  0  0  0  0  0  0  0  0  0
  -29.5631  -33.5344   26.1807 C   0  0  0  0  0  0  0  0  0  0  0  0
  -25.5195  -26.4310   20.8834 C   0  0  0  0  0  0  0  0  0  0  0  0
  -27.5649  -26.5309   19.4431 C   0  0  0  0  0  0  0  0  0  0  0  0
  -25.3013  -26.6514   18.4019 C   0  0  0  0  0  0  0  0  0  0  0  0
  -27.8167  -33.0037   17.9631 C   0  0  0  0  0  0  0  0  0  0  0  0
  -30.1827  -29.1470   25.0404 C   0  0  1  0  0  0  0  0  0  0  0  0
  -26.1727  -28.6341   19.7063 C   0  0  1  0  0  0  0  0  0  0  0  0
  -28.2049  -30.6504   17.2215 C   0  0  2  0  0  0  0  0  0  0  0  0
  -28.6146  -32.5796   25.4719 C   0  0  2  0  0  0  0  0  0  1  0  0
  -26.1349  -27.0817   19.6285 C   0  0  0  0  0  0  0  0  0  0  0  0
  -31.3552  -29.0053   25.9997 C   0  0  0  0  0  0  0  0  0  0  0  0
  -29.1322  -20.3503   20.0482 N   0  0  0  0  0  0  0  0  0  0  0  0
  -28.4086  -21.4774   19.9382 N   0  0  0  0  0  0  0  0  0  0  0  0
  -24.6255  -29.9957   21.0761 N   0  0  0  0  0  0  0  0  0  0  0  0
  -30.8129  -24.3434   19.1709 N   0  0  0  0  0  0  0  0  0  0  0  0
  -26.3210  -22.4444   20.5018 N   0  0  0  0  0  0  0  0  0  0  0  0
  -26.0415  -18.2815   22.2303 N   0  0  0  0  0  0  0  0  0  0  0  0
  -30.6037  -25.8064   21.0088 N   0  0  0  0  0  0  0  0  0  0  0  0
  -21.3627  -29.2266   22.2979 N   0  0  0  0  0  0  0  0  0  0  0  0
  -29.7744  -30.5273   24.9247 N   0  0  0  0  0  0  0  0  0  0  0  0
  -26.7256  -29.2786   18.5200 N   0  0  0  0  0  0  0  0  0  0  0  0
  -28.7534  -32.0306   17.3444 N   0  3  0  0  0  0  0  0  0  0  0  0
  -24.9182  -20.2612   21.9518 O   0  0  0  0  0  0  0  0  0  0  0  0
  -23.4869  -28.8530   23.1760 O   0  0  0  0  0  0  0  0  0  0  0  0
  -23.9239  -29.0385   19.0691 O   0  0  0  0  0  0  0  0  0  0  0  0
  -28.4386  -30.3961   19.6128 O   0  0  0  0  0  0  0  0  0  0  0  0
  -28.4027  -30.5701   26.7966 O   0  0  0  0  0  0  0  0  0  0  0  0
  -31.4681  -26.5529   18.9896 O   0  0  0  0  0  0  0  0  0  0  0  0
  -29.9748  -14.3438   21.9873 O   0  0  0  0  0  0  0  0  0  0  0  0
  -27.2706  -32.8864   25.8406 O   0  0  0  0  0  0  0  0  0  1  0  0
  -29.0532  -12.5298   27.1122 F   0  0  0  0  0  0  0  0  0  0  0  0
  -27.4058  -14.1899   22.9969 F   0  0  0  0  0  0  0  0  0  0  0  0
  -31.6536  -27.7006   26.1991 F   0  0  0  0  0  0  0  0  0  0  0  0
  -32.4656  -29.5960   25.5036 F   0  0  0  0  0  0  0  0  0  0  0  0
  -31.0998  -29.5531   27.2066 F   0  0  0  0  0  0  0  0  0  0  0  0
  -30.1023  -26.8945   23.3997 S   0  0  0  0  0  0  0  0  0  0  0  0
  1  2  1  0  0  0  0
  1  5  2  0  0  0  0
  2  6  2  0  0  0  0
  3  8  2  0  0  0  0
  3 17  1  0  0  0  0
  4  9  1  0  0  0  0
  4 17  2  0  0  0  0
  5 19  1  0  0  0  0
  6 21  1  0  0  0  0
  7 10  2  0  0  0  0
  7 20  1  0  0  0  0
  8 23  1  0  0  0  0
  9 23  2  0  0  0  0
 10 24  1  0  0  0  0
 11 12  2  0  0  0  0
 11 25  1  0  0  0  0
 12 26  1  0  0  0  0
 13 14  1  0  0  0  0
 13 29  2  0  0  0  0
 14 31  2  0  0  0  0
 15 22  1  0  0  0  0
 15 24  2  0  0  0  0
 16 26  2  0  0  0  0
 16 27  1  0  0  0  0
 17 28  1  0  0  0  0
 18 28  1  0  0  0  0
 18 30  2  0  0  0  0
 18 32  1  0  0  0  0
 19 21  2  0  0  0  0
 19 38  1  0  0  0  0
 20 22  2  0  0  0  0
 20 39  1  0  0  0  0
 21 47  1  0  0  0  0
 22 40  1  0  0  0  0
 23 79  1  0  0  0  0
 24 80  1  0  0  0  0
 25 27  2  0  0  0  0
 25 79  1  0  0  0  0
 26 81  1  0  0  0  0
 27 82  1  0  0  0  0
 28 62  2  0  0  0  0
 29 56  1  0  0  0  0
 29 86  1  0  0  0  0
 30 63  1  0  0  0  0
 30 66  1  0  0  0  0
 31 68  1  0  0  0  0
 31 86  1  0  0  0  0
 32 67  1  0  0  0  0
 32 73  2  0  0  0  0
 33 48  1  0  0  0  0
 33 69  1  0  0  0  0
 33 74  2  0  0  0  0
 34 57  1  0  0  0  0
 34 64  1  0  0  0  0
 34 75  2  0  0  0  0
 35 58  1  0  0  0  0
 35 71  1  0  0  0  0
 35 76  2  0  0  0  0
 36 59  1  0  0  0  0
 36 70  1  0  0  0  0
 36 77  2  0  0  0  0
 37 65  1  0  0  0  0
 37 68  1  0  0  0  0
 37 78  2  0  0  0  0
 38 41  1  0  0  0  0
 39 48  1  0  0  0  0
 40 64  1  0  0  0  0
 41 43  1  0  0  0  0
 42 44  1  0  0  0  0
 42 45  1  0  0  0  0
 43 47  1  0  0  0  0
 44 49  1  0  0  0  0
 45 65  1  0  0  0  0
 46 49  1  0  0  0  0
 46 65  1  0  0  0  0
 47 69  1  0  0  0  0
 48 64  1  0  0  0  0
 49 63  1  0  0  0  0
 50 58  1  0  0  0  0
 51 59  1  0  0  0  0
 52 60  1  0  0  0  0
 53 60  1  0  0  0  0
 54 60  1  0  0  0  0
 55 72  1  0  0  0  0
 56 61  1  0  0  0  0
 56 70  1  0  0  0  0
 57 60  1  0  0  0  0
 57 71  1  0  0  0  0
 58 72  1  0  0  0  0
 59 80  1  0  0  0  0
 61 83  1  0  0  0  0
 61 84  1  0  0  0  0
 61 85  1  0  0  0  0
 62 63  1  0  0  0  0
M  CHG  1  72   1
M  ISO  4  37 100  59 101  68 100  80 101
M  END
> <Batch ID>
0184

> <Smiles>
CNC(C)C(=O)NC(C(=O)N1Cc2cc([101O:1][101CH:1](C)C(=O)NC(c3ccc([100NH:0][100C:0](=O)N4CCCC(n5nc(-c6ccc(Oc7ccc(F)cc7F)cc6)c(C(N)=O)c5N)C4)s3)C(F)(F)F)ccc2CC1C(=O)NC1CCCc2ccccc21)C(C)(C)C

> <Shape>
0.313

> <Color>
0.100

> <Negative vol penalty>
0.000

$$$$

  -OEChem-04052305023D

 87 95  0     1  0  0  0  0  0999 V2000
  -19.3120  -29.3041   26.0453 C   0  0  0  0  0  0  0  0  0  0  0  0
  -19.6865  -27.9748   26.2134 C   0  0  0  0  0  0  0  0  0  0  0  0
  -23.3057  -10.0346   21.5110 C   0  0  0  0  0  0  0  0  0  0  0  0
  -24.8838   -8.2938   22.0735 C   0  0  0  0  0  0  0  0  0  0  0  0
  -19.1135  -29.8144   24.7631 C   0  0  0  0  0  0  0  0  0  0  0  0
  -19.8616  -27.1548   25.0993 C   0  0  0  0  0  0  0  0  0  0  0  0
  -24.0660  -24.3476   25.3950 C   0  0  0  0  0  0  0  0  0  0  0  0
  -22.2988   -9.0787   21.3773 C   0  0  0  0  0  0  0  0  0  0  0  0
  -23.8768   -7.3378   21.9399 C   0  0  0  0  0  0  0  0  0  0  0  0
  -24.0212  -23.2177   26.2105 C   0  0  0  0  0  0  0  0  0  0  0  0
  -21.2763   -6.1895   23.7673 C   0  0  0  0  0  0  0  0  0  0  0  0
  -21.1800   -5.2094   24.7551 C   0  0  0  0  0  0  0  0  0  0  0  0
  -23.6780  -21.8341   24.2645 C   0  0  0  0  0  0  0  0  0  0  0  0
  -28.3674  -19.5179   23.7635 C   0  0  0  0  0  0  0  0  0  0  0  0
  -21.5429   -3.4962   23.0906 C   0  0  0  0  0  0  0  0  0  0  0  0
  -24.5982   -9.6422   21.8590 C   0  0  0  0  0  0  0  0  0  0  0  0
  -25.9966  -11.3302   23.1639 C   0  0  0  0  0  0  0  0  0  0  0  0
  -19.2957  -29.0028   23.6323 C   0  0  0  0  0  0  0  0  0  0  0  0
  -23.9060  -24.2302   24.0068 C   0  0  0  0  0  0  0  0  0  0  0  0
  -19.6641  -27.6544   23.8008 C   0  0  0  0  0  0  0  0  0  0  0  0
  -23.7238  -22.9637   23.4333 C   0  0  0  0  0  0  0  0  0  0  0  0
  -29.3265  -19.1353   22.7817 C   0  0  0  0  0  0  0  0  0  0  0  0
  -22.5843   -7.7303   21.5918 C   0  0  0  0  0  0  0  0  0  0  0  0
  -23.8243  -21.9611   25.6457 C   0  0  0  0  0  0  0  0  0  0  0  0
  -21.5058   -5.8230   22.4411 C   0  0  0  0  0  0  0  0  0  0  0  0
  -21.3134   -3.8628   24.4167 C   0  0  0  0  0  0  0  0  0  0  0  0
  -21.6392   -4.4764   22.1028 C   0  0  0  0  0  0  0  0  0  0  0  0
  -25.6389  -10.6291   21.9967 C   0  0  0  0  0  0  0  0  0  0  0  0
  -28.7948  -18.2747   21.8468 C   0  0  0  0  0  0  0  0  0  0  0  0
  -27.0330  -12.1422   22.7727 C   0  0  0  0  0  0  0  0  0  0  0  0
  -27.1390  -18.9351   23.5414 C   0  0  0  0  0  0  0  0  0  0  0  0
  -25.4417  -11.2543   24.4837 C   0  0  0  0  0  0  0  0  0  0  0  0
  -29.4473  -17.6453   20.6699 C   0  0  0  0  0  0  0  0  0  0  0  0
  -21.7963  -25.3170   21.8921 C   0  0  0  0  0  0  0  0  0  0  0  0
  -23.8454  -23.9957   19.7525 C   0  0  0  0  0  0  0  0  0  0  0  0
  -26.2890  -21.6994   19.1183 C   0  0  0  0  0  0  0  0  0  0  0  0
  -25.6716  -19.7886   25.4007 C   0  0  0  0  0  0  0  0  0  0  0  0
  -29.3883  -15.6581   19.1964 C   0  0  0  0  0  0  0  0  0  0  0  0
  -19.0236  -29.5864   22.2685 C   0  0  0  0  0  0  0  0  0  0  0  0
  -23.9836  -25.4557   23.1381 C   0  0  0  0  0  0  0  0  0  0  0  0
  -23.5669  -22.7815   21.9465 C   0  0  0  0  0  0  0  0  0  0  0  0
  -19.5942  -28.7525   21.1242 C   0  0  0  0  0  0  0  0  0  0  0  0
  -29.7297  -12.2120   18.4858 C   0  0  0  0  0  0  0  0  0  0  0  0
  -19.2632  -27.2767   21.3224 C   0  0  0  0  0  0  0  0  0  0  0  0
  -28.7312  -11.5466   19.4369 C   0  0  0  0  0  0  0  0  0  0  0  0
  -29.1945  -13.5329   17.9347 C   0  0  0  0  0  0  0  0  0  0  0  0
  -27.7328  -13.8222   19.8938 C   0  0  0  0  0  0  0  0  0  0  0  0
  -19.8880  -26.7401   22.6159 C   0  0  1  0  0  0  0  0  0  0  0  0
  -23.2948  -25.2762   21.7888 C   0  0  1  0  0  0  0  0  0  0  0  0
  -28.2540  -12.5235   20.5302 C   0  0  1  0  0  0  0  0  0  0  0  0
  -27.7422  -20.8295   17.2666 C   0  0  0  0  0  0  0  0  0  0  0  0
  -24.0913  -18.5158   26.8982 C   0  0  0  0  0  0  0  0  0  0  0  0
  -21.4659  -22.4680   18.6061 C   0  0  0  0  0  0  0  0  0  0  0  0
  -23.0866  -20.9542   17.4442 C   0  0  0  0  0  0  0  0  0  0  0  0
  -23.0392  -23.3866   16.8928 C   0  0  0  0  0  0  0  0  0  0  0  0
  -28.7653  -22.4853   20.5357 C   0  0  0  0  0  0  0  0  0  0  0  0
  -23.9922  -22.6369   19.1114 C   0  0  1  0  0  0  0  0  0  0  0  0
  -27.6278  -21.8218   18.4134 C   0  0  2  0  0  0  0  0  0  0  0  0
  -24.2275  -19.6279   25.8687 C   0  0  1  0  0  0  0  0  0  1  0  0
  -30.7295  -19.6161   22.7793 C   0  0  0  0  0  0  0  0  0  0  0  0
  -22.8970  -22.3648   18.0419 C   0  0  0  0  0  0  0  0  0  0  0  0
  -26.3872  -10.9663   20.9429 N   0  0  0  0  0  0  0  0  0  0  0  0
  -27.2254  -11.8882   21.4465 N   0  0  0  0  0  0  0  0  0  0  0  0
  -23.6438  -24.0108   21.1399 N   0  0  0  0  0  0  0  0  0  0  0  0
  -28.7730  -14.4047   19.0327 N   0  0  0  0  0  0  0  0  0  0  0  0
  -27.7894  -13.0415   23.4371 N   0  0  0  0  0  0  0  0  0  0  0  0
  -24.3807  -10.3674   24.7124 N   0  0  0  0  0  0  0  0  0  0  0  0
  -25.9227  -19.0365   24.2578 N   0  0  0  0  0  0  0  0  0  0  0  0
  -28.9458  -16.3973   20.2991 N   0  0  0  0  0  0  0  0  0  0  0  0
  -21.3011  -26.4901   22.4288 N   0  0  0  0  0  0  0  0  0  0  0  0
  -25.3567  -22.5725   18.5991 N   0  0  0  0  0  0  0  0  0  0  0  0
  -28.7420  -21.5655   19.3694 N   0  3  0  0  0  0  0  0  0  0  0  0
  -25.8630  -11.9640   25.4283 O   0  0  0  0  0  0  0  0  0  0  0  0
  -30.3364  -18.2550   20.0819 O   0  0  0  0  0  0  0  0  0  0  0  0
  -21.1381  -24.3559   21.5117 O   0  0  0  0  0  0  0  0  0  0  0  0
  -23.9144  -25.0068   19.0492 O   0  0  0  0  0  0  0  0  0  0  0  0
  -26.0891  -20.9058   20.0353 O   0  0  0  0  0  0  0  0  0  0  0  0
  -26.4561  -20.5207   25.9971 O   0  0  0  0  0  0  0  0  0  0  0  0
  -30.2814  -16.0677   18.4482 O   0  0  0  0  0  0  0  0  0  0  0  0
  -21.6019   -6.7972   21.4617 O   0  0  0  0  0  0  0  0  0  0  0  0
  -23.7794  -20.8567   26.4395 O   0  0  0  0  0  0  0  0  0  1  0  0
  -21.2224   -2.9218   25.3657 F   0  0  0  0  0  0  0  0  0  0  0  0
  -21.8609   -4.1182   20.8306 F   0  0  0  0  0  0  0  0  0  0  0  0
  -31.0274  -20.4666   23.8104 F   0  0  0  0  0  0  0  0  0  0  0  0
  -31.6593  -18.6154   22.8736 F   0  0  0  0  0  0  0  0  0  0  0  0
  -31.0560  -20.3031   21.6422 F   0  0  0  0  0  0  0  0  0  0  0  0
  -27.1456  -17.9312   22.1541 S   0  0  0  0  0  0  0  0  0  0  0  0
  1  2  1  0  0  0  0
  1  5  2  0  0  0  0
  2  6  2  0  0  0  0
  3  8  2  0  0  0  0
  3 16  1  0  0  0  0
  4  9  1  0  0  0  0
  4 16  2  0  0  0  0
  5 18  1  0  0  0  0
  6 20  1  0  0  0  0
  7 10  2  0  0  0  0
  7 19  1  0  0  0  0
  8 23  1  0  0  0  0
  9 23  2  0  0  0  0
 10 24  1  0  0  0  0
 11 12  2  0  0  0  0
 11 25  1  0  0  0  0
 12 26  1  0  0  0  0
 13 21  1  0  0  0  0
 13 24  2  0  0  0  0
 14 22  1  0  0  0  0
 14 31  2  0  0  0  0
 15 26  2  0  0  0  0
 15 27  1  0  0  0  0
 16 28  1  0  0  0  0
 17 28  1  0  0  0  0
 17 30  2  0  0  0  0
 17 32  1  0  0  0  0
 18 20  2  0  0  0  0
 18 39  1  0  0  0  0
 19 21  2  0  0  0  0
 19 40  1  0  0  0  0
 20 48  1  0  0  0  0
 21 41  1  0  0  0  0
 22 29  2  0  0  0  0
 22 60  1  0  0  0  0
 23 80  1  0  0  0  0
 24 81  1  0  0  0  0
 25 27  2  0  0  0  0
 25 80  1  0  0  0  0
 26 82  1  0  0  0  0
 27 83  1  0  0  0  0
 28 62  2  0  0  0  0
 29 33  1  0  0  0  0
 29 87  1  0  0  0  0
 30 63  1  0  0  0  0
 30 66  1  0  0  0  0
 31 68  1  0  0  0  0
 31 87  1  0  0  0  0
 32 67  1  0  0  0  0
 32 73  2  0  0  0  0
 33 69  1  0  0  0  0
 33 74  2  0  0  0  0
 34 49  1  0  0  0  0
 34 70  1  0  0  0  0
 34 75  2  0  0  0  0
 35 57  1  0  0  0  0
 35 64  1  0  0  0  0
 35 76  2  0  0  0  0
 36 58  1  0  0  0  0
 36 71  1  0  0  0  0
 36 77  2  0  0  0  0
 37 59  1  0  0  0  0
 37 68  1  0  0  0  0
 37 78  2  0  0  0  0
 38 65  1  0  0  0  0
 38 69  1  0  0  0  0
 38 79  2  0  0  0  0
 39 42  1  0  0  0  0
 40 49  1  0  0  0  0
 41 64  1  0  0  0  0
 42 44  1  0  0  0  0
 43 45  1  0  0  0  0
 43 46  1  0  0  0  0
 44 48  1  0  0  0  0
 45 50  1  0  0  0  0
 46 65  1  0  0  0  0
 47 50  1  0  0  0  0
 47 65  1  0  0  0  0
 48 70  1  0  0  0  0
 49 64  1  0  0  0  0
 50 63  1  0  0  0  0
 51 58  1  0  0  0  0
 52 59  1  0  0  0  0
 53 61  1  0  0  0  0
 54 61  1  0  0  0  0
 55 61  1  0  0  0  0
 56 72  1  0  0  0  0
 57 61  1  0  0  0  0
 57 71  1  0  0  0  0
 58 72  1  0  0  0  0
 59 81  1  0  0  0  0
 60 84  1  0  0  0  0
 60 85  1  0  0  0  0
 60 86  1  0  0  0  0
 62 63  1  0  0  0  0
M  CHG  1  72   1
M  ISO  4  38 100  59 101  69 100  81 101
M  END
> <Batch ID>
0184

> <Smiles>
CNC(C)C(=O)NC(C(=O)N1Cc2cc([101O:1][101CH:1](C)C(=O)Nc3cc(C(F)(F)F)c(C(=O)[100NH:0][100C:0](=O)N4CCCC(n5nc(-c6ccc(Oc7ccc(F)cc7F)cc6)c(C(N)=O)c5N)C4)s3)ccc2CC1C(=O)NC1CCCc2ccccc21)C(C)(C)C

> <Shape>
0.200

> <Color>
0.094

> <Negative vol penalty>
0.000

$$$$

  -OEChem-04052305023D

 90 98  0     1  0  0  0  0  0999 V2000
  -16.8778  -28.3356   25.7945 C   0  0  0  0  0  0  0  0  0  0  0  0
  -17.2734  -27.0035   25.8610 C   0  0  0  0  0  0  0  0  0  0  0  0
  -30.3312  -20.1790   20.2854 C   0  0  0  0  0  0  0  0  0  0  0  0
  -28.0072  -20.5438   20.8357 C   0  0  0  0  0  0  0  0  0  0  0  0
  -17.2936  -29.1328   24.7289 C   0  0  0  0  0  0  0  0  0  0  0  0
  -18.0843  -26.4675   24.8612 C   0  0  0  0  0  0  0  0  0  0  0  0
  -23.2927  -21.6475   23.8833 C   0  0  0  0  0  0  0  0  0  0  0  0
  -30.3342  -21.3473   19.5233 C   0  0  0  0  0  0  0  0  0  0  0  0
  -28.0102  -21.7122   20.0737 C   0  0  0  0  0  0  0  0  0  0  0  0
  -23.6084  -20.5502   23.0832 C   0  0  0  0  0  0  0  0  0  0  0  0
  -29.2974  -22.3240   16.4581 C   0  0  0  0  0  0  0  0  0  0  0  0
  -29.8995  -22.2753   15.2009 C   0  0  0  0  0  0  0  0  0  0  0  0
  -24.3306  -22.0431   21.3314 C   0  0  0  0  0  0  0  0  0  0  0  0
  -31.4563  -23.9936   15.8799 C   0  0  0  0  0  0  0  0  0  0  0  0
  -21.8832  -12.0816   18.4416 C   0  0  0  0  0  0  0  0  0  0  0  0
  -29.1677  -19.7772   20.9415 C   0  0  0  0  0  0  0  0  0  0  0  0
  -29.4684  -18.4468   23.0972 C   0  0  0  0  0  0  0  0  0  0  0  0
  -18.1179  -28.6089   23.7206 C   0  0  0  0  0  0  0  0  0  0  0  0
  -23.4837  -22.9530   23.4085 C   0  0  0  0  0  0  0  0  0  0  0  0
  -18.5105  -27.2581   23.7804 C   0  0  0  0  0  0  0  0  0  0  0  0
  -24.0190  -23.1552   22.1284 C   0  0  0  0  0  0  0  0  0  0  0  0
  -29.1737  -22.1139   19.4175 C   0  0  0  0  0  0  0  0  0  0  0  0
  -24.1248  -20.7479   21.8059 C   0  0  0  0  0  0  0  0  0  0  0  0
  -29.7747  -23.2075   17.4263 C   0  0  0  0  0  0  0  0  0  0  0  0
  -30.9790  -23.1100   14.9118 C   0  0  0  0  0  0  0  0  0  0  0  0
  -30.8541  -24.0423   17.1372 C   0  0  0  0  0  0  0  0  0  0  0  0
  -29.1638  -18.5702   21.7284 C   0  0  0  0  0  0  0  0  0  0  0  0
  -22.9258  -13.0524   20.1091 C   0  0  0  0  0  0  0  0  0  0  0  0
  -29.3201  -17.1074   23.3626 C   0  0  0  0  0  0  0  0  0  0  0  0
  -22.5191  -14.1832   19.4323 C   0  0  0  0  0  0  0  0  0  0  0  0
  -29.8511  -19.4530   24.0443 C   0  0  0  0  0  0  0  0  0  0  0  0
  -21.5785  -25.4309   22.8307 C   0  0  0  0  0  0  0  0  0  0  0  0
  -24.3842  -26.9597   22.2713 C   0  0  0  0  0  0  0  0  0  0  0  0
  -27.6786  -26.7446   21.4067 C   0  0  0  0  0  0  0  0  0  0  0  0
  -22.2301  -16.6304   18.9287 C   0  0  0  0  0  0  0  0  0  0  0  0
  -26.1033  -12.7700   20.7759 C   0  0  0  0  0  0  0  0  0  0  0  0
  -18.5031  -29.4965   22.5637 C   0  0  0  0  0  0  0  0  0  0  0  0
  -23.1632  -24.1259   24.2940 C   0  0  0  0  0  0  0  0  0  0  0  0
  -24.2619  -24.5365   21.5795 C   0  0  0  0  0  0  0  0  0  0  0  0
  -19.6690  -28.9536   21.7413 C   0  0  0  0  0  0  0  0  0  0  0  0
  -29.6296  -12.8180   21.2657 C   0  0  0  0  0  0  0  0  0  0  0  0
  -19.4640  -27.4729   21.4372 C   0  0  0  0  0  0  0  0  0  0  0  0
  -29.9376  -14.2866   21.5633 C   0  0  0  0  0  0  0  0  0  0  0  0
  -28.5175  -12.6735   20.2292 C   0  0  0  0  0  0  0  0  0  0  0  0
  -27.5824  -14.8685   20.8467 C   0  0  0  0  0  0  0  0  0  0  0  0
  -19.4101  -26.6469   22.7281 C   0  0  1  0  0  0  0  0  0  0  0  0
  -22.9165  -25.4136   23.5141 C   0  0  1  0  0  0  0  0  0  0  0  0
  -28.6590  -15.0649   21.9277 C   0  0  2  0  0  0  0  0  0  0  0  0
  -29.7041  -28.1677   20.9952 C   0  0  0  0  0  0  0  0  0  0  0  0
  -23.8471  -18.7151   17.4329 C   0  0  0  0  0  0  0  0  0  0  0  0
  -23.2349  -11.9832   24.3769 C   0  0  0  0  0  0  0  0  0  0  0  0
  -24.9419  -13.7805   24.0978 C   0  0  0  0  0  0  0  0  0  0  0  0
  -22.6854  -14.3468   25.0019 C   0  0  0  0  0  0  0  0  0  0  0  0
  -23.2483  -27.7891   19.5635 C   0  0  0  0  0  0  0  0  0  0  0  0
  -25.5764  -28.3581   18.8394 C   0  0  0  0  0  0  0  0  0  0  0  0
  -24.5326  -29.5783   20.7483 C   0  0  0  0  0  0  0  0  0  0  0  0
  -29.1838  -25.4390   23.5950 C   0  0  0  0  0  0  0  0  0  0  0  0
  -22.9836  -13.7583   22.5357 C   0  0  0  0  0  0  0  0  0  0  0  0
  -24.3185  -19.8531   19.6110 C   0  0  0  0  0  0  0  0  0  1  0  0
  -23.7056  -13.0238   21.3636 C   0  0  2  0  0  0  0  0  0  0  0  0
  -25.2604  -27.1774   21.0614 C   0  0  1  0  0  0  0  0  0  0  0  0
  -28.9232  -27.3602   22.0203 C   0  0  2  0  0  0  0  0  0  0  0  0
  -22.6269  -17.9700   19.5301 C   0  0  1  0  0  0  0  0  0  0  0  0
  -23.9433  -18.5208   18.9486 C   0  0  1  0  0  0  0  0  0  0  0  0
  -23.4362  -13.4575   23.9954 C   0  0  0  0  0  0  0  0  0  0  0  0
  -24.6481  -28.1996   20.0625 C   0  0  0  0  0  0  0  0  0  0  0  0
  -22.5617  -11.8464   19.5428 N   0  0  0  0  0  0  0  0  0  0  0  0
  -28.8462  -17.4023   21.1634 N   0  0  0  0  0  0  0  0  0  0  0  0
  -28.9505  -16.5323   22.1824 N   0  0  0  0  0  0  0  0  0  0  0  0
  -23.9267  -25.6511   22.4811 N   0  0  0  0  0  0  0  0  0  0  0  0
  -27.3332  -13.4339   20.6353 N   0  0  0  0  0  0  0  0  0  0  0  0
  -29.4712  -16.3772   24.4879 N   0  0  0  0  0  0  0  0  0  0  0  0
  -29.9559  -20.7795   23.6041 N   0  0  0  0  0  0  0  0  0  0  0  0
  -22.6966  -15.5637   19.6864 N   0  0  0  0  0  0  0  0  0  0  0  0
  -20.7427  -26.4460   23.2556 N   0  0  0  0  0  0  0  0  0  0  0  0
  -26.5744  -27.5539   21.5713 N   0  0  0  0  0  0  0  0  0  0  0  0
  -25.0330  -13.5635   21.1703 N   0  0  0  0  0  0  0  0  0  0  0  0
  -29.8161  -26.2954   22.5588 N   0  3  0  0  0  0  0  0  0  0  0  0
  -30.1089  -19.1812   25.2414 O   0  0  0  0  0  0  0  0  0  0  0  0
  -21.3237  -24.5868   21.9797 O   0  0  0  0  0  0  0  0  0  0  0  0
  -24.1214  -27.9142   23.0072 O   0  0  0  0  0  0  0  0  0  0  0  0
  -27.6860  -25.6566   20.8352 O   0  0  0  0  0  0  0  0  0  0  0  0
  -21.5624  -16.5843   17.8995 O   0  0  0  0  0  0  0  0  0  0  0  0
  -25.9703  -11.5588   20.5707 O   0  0  0  0  0  0  0  0  0  0  0  0
  -29.1763  -23.2541   18.6742 O   0  0  0  0  0  0  0  0  0  0  0  0
  -24.4332  -19.6787   21.0227 O   0  0  0  0  0  0  0  0  0  1  0  0
  -31.5581  -23.0620   13.7049 F   0  0  0  0  0  0  0  0  0  0  0  0
  -31.3178  -24.8923   18.0636 F   0  0  0  0  0  0  0  0  0  0  0  0
  -21.6401  -18.8900   19.3245 F   0  0  0  0  0  0  0  0  0  0  0  0
  -21.6464  -13.7300   18.0272 S   0  0  0  0  0  0  0  0  0  0  0  0
  1  2  1  0  0  0  0
  1  5  2  0  0  0  0
  2  6  2  0  0  0  0
  3  8  2  0  0  0  0
  3 16  1  0  0  0  0
  4  9  1  0  0  0  0
  4 16  2  0  0  0  0
  5 18  1  0  0  0  0
  6 20  1  0  0  0  0
  7 10  2  0  0  0  0
  7 19  1  0  0  0  0
  8 22  1  0  0  0  0
  9 22  2  0  0  0  0
 10 23  1  0  0  0  0
 11 12  2  0  0  0  0
 11 24  1  0  0  0  0
 12 25  1  0  0  0  0
 13 21  1  0  0  0  0
 13 23  2  0  0  0  0
 14 25  2  0  0  0  0
 14 26  1  0  0  0  0
 15 67  2  0  0  0  0
 15 90  1  0  0  0  0
 16 27  1  0  0  0  0
 17 27  1  0  0  0  0
 17 29  2  0  0  0  0
 17 31  1  0  0  0  0
 18 20  2  0  0  0  0
 18 37  1  0  0  0  0
 19 21  2  0  0  0  0
 19 38  1  0  0  0  0
 20 46  1  0  0  0  0
 21 39  1  0  0  0  0
 22 85  1  0  0  0  0
 23 86  1  0  0  0  0
 24 26  2  0  0  0  0
 24 85  1  0  0  0  0
 25 87  1  0  0  0  0
 26 88  1  0  0  0  0
 27 68  2  0  0  0  0
 28 30  2  0  0  0  0
 28 60  1  0  0  0  0
 28 67  1  0  0  0  0
 29 69  1  0  0  0  0
 29 72  1  0  0  0  0
 30 74  1  0  0  0  0
 30 90  1  0  0  0  0
 31 73  1  0  0  0  0
 31 79  2  0  0  0  0
 32 47  1  0  0  0  0
 32 75  1  0  0  0  0
 32 80  2  0  0  0  0
 33 61  1  0  0  0  0
 33 70  1  0  0  0  0
 33 81  2  0  0  0  0
 34 62  1  0  0  0  0
 34 76  1  0  0  0  0
 34 82  2  0  0  0  0
 35 63  1  0  0  0  0
 35 74  1  0  0  0  0
 35 83  2  0  0  0  0
 36 71  1  0  0  0  0
 36 77  1  0  0  0  0
 36 84  2  0  0  0  0
 37 40  1  0  0  0  0
 38 47  1  0  0  0  0
 39 70  1  0  0  0  0
 40 42  1  0  0  0  0
 41 43  1  0  0  0  0
 41 44  1  0  0  0  0
 42 46  1  0  0  0  0
 43 48  1  0  0  0  0
 44 71  1  0  0  0  0
 45 48  1  0  0  0  0
 45 71  1  0  0  0  0
 46 75  1  0  0  0  0
 47 70  1  0  0  0  0
 48 69  1  0  0  0  0
 49 62  1  0  0  0  0
 50 64  1  0  0  0  0
 51 65  1  0  0  0  0
 52 65  1  0  0  0  0
 53 65  1  0  0  0  0
 54 66  1  0  0  0  0
 55 66  1  0  0  0  0
 56 66  1  0  0  0  0
 57 78  1  0  0  0  0
 58 60  1  0  0  0  0
 58 65  1  0  0  0  0
 59 64  1  0  0  0  0
 59 86  1  0  0  0  0
 60 77  1  0  0  0  0
 61 66  1  0  0  0  0
 61 76  1  0  0  0  0
 62 78  1  0  0  0  0
 63 64  1  0  0  0  0
 63 89  1  0  0  0  0
 68 69  1  0  0  0  0
M  CHG  1  78   1
M  ISO  4  36 100  59 101  77 100  86 101
M  END
> <Batch ID>
0184

> <Smiles>
CNC(C)C(=O)NC(C(=O)N1Cc2cc([101O:1][101CH2:1]C(C)C(F)C(=O)Nc3scnc3C(CC(C)(C)C)[100NH:0][100C:0](=O)N3CCCC(n4nc(-c5ccc(Oc6ccc(F)cc6F)cc5)c(C(N)=O)c4N)C3)ccc2CC1C(=O)NC1CCCc2ccccc21)C(C)(C)C

> <Shape>
0.214

> <Color>
0.054

> <Negative vol penalty>
0.000

$$$$

  -OEChem-04052305023D

 85 93  0     1  0  0  0  0  0999 V2000
  -27.9755  -22.2056   28.0051 C   0  0  0  0  0  0  0  0  0  0  0  0
  -28.3320  -23.0487   26.9575 C   0  0  0  0  0  0  0  0  0  0  0  0
  -28.0294  -12.5405   22.5215 C   0  0  0  0  0  0  0  0  0  0  0  0
  -26.8888  -12.7695   20.4040 C   0  0  0  0  0  0  0  0  0  0  0  0
  -26.6699  -21.7254   28.0985 C   0  0  0  0  0  0  0  0  0  0  0  0
  -27.3833  -23.4113   26.0020 C   0  0  0  0  0  0  0  0  0  0  0  0
  -27.5139  -28.3552   24.9131 C   0  0  0  0  0  0  0  0  0  0  0  0
  -27.4513  -11.2833   22.6969 C   0  0  0  0  0  0  0  0  0  0  0  0
  -26.3108  -11.5122   20.5794 C   0  0  0  0  0  0  0  0  0  0  0  0
  -28.5277  -28.7932   24.0622 C   0  0  0  0  0  0  0  0  0  0  0  0
  -24.2518   -8.5177   20.6371 C   0  0  0  0  0  0  0  0  0  0  0  0
  -22.8918   -8.3846   20.3573 C   0  0  0  0  0  0  0  0  0  0  0  0
  -30.6300  -21.9549   18.3103 C   0  0  0  0  0  0  0  0  0  0  0  0
  -26.9687  -28.8063   22.2214 C   0  0  0  0  0  0  0  0  0  0  0  0
  -22.3830  -10.0376   22.0442 C   0  0  0  0  0  0  0  0  0  0  0  0
  -31.2455  -22.9720   17.6095 C   0  0  0  0  0  0  0  0  0  0  0  0
  -27.7481  -13.2837   21.3751 C   0  0  0  0  0  0  0  0  0  0  0  0
  -29.5696  -14.8754   20.5650 C   0  0  0  0  0  0  0  0  0  0  0  0
  -25.7023  -22.0900   27.1491 C   0  0  0  0  0  0  0  0  0  0  0  0
  -26.2203  -28.1286   24.4215 C   0  0  0  0  0  0  0  0  0  0  0  0
  -26.0639  -22.9345   26.0821 C   0  0  0  0  0  0  0  0  0  0  0  0
  -25.9396  -28.3679   23.0687 C   0  0  0  0  0  0  0  0  0  0  0  0
  -26.5921  -10.7691   21.7259 C   0  0  0  0  0  0  0  0  0  0  0  0
  -28.2559  -29.0161   22.7155 C   0  0  0  0  0  0  0  0  0  0  0  0
  -24.6774   -9.4107   21.6205 C   0  0  0  0  0  0  0  0  0  0  0  0
  -21.9574   -9.1446   21.0608 C   0  0  0  0  0  0  0  0  0  0  0  0
  -23.7430  -10.1707   22.3240 C   0  0  0  0  0  0  0  0  0  0  0  0
  -28.3444  -14.5827   21.1936 C   0  0  0  0  0  0  0  0  0  0  0  0
  -29.4044  -22.2669   18.8623 C   0  0  0  0  0  0  0  0  0  0  0  0
  -29.6821  -16.2415   20.6512 C   0  0  0  0  0  0  0  0  0  0  0  0
  -29.5154  -24.3826   18.0386 C   0  0  0  0  0  0  0  0  0  0  0  0
  -30.5210  -13.9913   19.9575 C   0  0  0  0  0  0  0  0  0  0  0  0
  -24.3148  -25.5936   24.2052 C   0  0  0  0  0  0  0  0  0  0  0  0
  -22.1605  -27.7878   23.1724 C   0  0  0  0  0  0  0  0  0  0  0  0
  -29.5581  -27.0883   19.8760 C   0  0  0  0  0  0  0  0  0  0  0  0
  -21.5849  -30.8319   21.7408 C   0  0  0  0  0  0  0  0  0  0  0  0
  -27.4970  -21.3452   20.2258 C   0  0  0  0  0  0  0  0  0  0  0  0
  -24.3158  -21.5079   27.2653 C   0  0  0  0  0  0  0  0  0  0  0  0
  -25.1313  -27.6818   25.3579 C   0  0  0  0  0  0  0  0  0  0  0  0
  -24.5625  -28.1592   22.4955 C   0  0  0  0  0  0  0  0  0  0  0  0
  -23.2752  -22.2399   26.4219 C   0  0  0  0  0  0  0  0  0  0  0  0
  -26.9777  -19.6092   23.2907 C   0  0  0  0  0  0  0  0  0  0  0  0
  -23.8058  -22.4838   25.0127 C   0  0  0  0  0  0  0  0  0  0  0  0
  -27.3877  -18.1708   22.9666 C   0  0  0  0  0  0  0  0  0  0  0  0
  -26.2771  -20.2789   22.1098 C   0  0  0  0  0  0  0  0  0  0  0  0
  -27.4245  -18.7907   20.5168 C   0  0  0  0  0  0  0  0  0  0  0  0
  -25.0568  -23.3702   25.0400 C   0  0  1  0  0  0  0  0  0  0  0  0
  -23.9748  -26.9903   24.6428 C   0  0  1  0  0  0  0  0  0  0  0  0
  -28.1918  -18.0962   21.6538 C   0  0  2  0  0  0  0  0  0  0  0  0
  -28.6325  -26.1151   16.4227 C   0  0  0  0  0  0  0  0  0  0  0  0
  -19.7207  -32.3346   20.9899 C   0  0  0  0  0  0  0  0  0  0  0  0
  -31.6147  -29.3654   22.2188 C   0  0  0  0  0  0  0  0  0  0  0  0
  -21.7397  -26.0325   20.7124 C   0  0  0  0  0  0  0  0  0  0  0  0
  -20.6391  -27.9836   19.5945 C   0  0  0  0  0  0  0  0  0  0  0  0
  -19.6453  -27.0117   21.6659 C   0  0  0  0  0  0  0  0  0  0  0  0
  -22.3947  -32.9691   23.6211 C   0  0  0  0  0  0  0  0  0  0  0  0
  -30.5206  -28.1969   20.2763 C   0  0  0  0  0  0  0  0  0  0  0  0
  -28.8868  -25.7507   17.8840 C   0  0  2  0  0  0  0  0  0  0  0  0
  -21.7778  -28.3601   21.8289 C   0  0  1  0  0  0  0  0  0  0  0  0
  -20.6578  -31.9691   22.1304 C   0  0  2  0  0  0  0  0  0  0  0  0
  -30.3866  -28.5996   21.7446 C   0  0  2  0  0  0  0  0  0  1  0  0
  -20.9770  -27.3492   20.9605 C   0  0  0  0  0  0  0  0  0  0  0  0
  -30.7147  -24.2025   17.4533 N   0  0  0  0  0  0  0  0  0  0  0  0
  -27.7230  -15.6752   21.6458 N   0  0  0  0  0  0  0  0  0  0  0  0
  -28.8154  -23.4751   18.7459 N   0  0  0  0  0  0  0  0  0  0  0  0
  -28.5612  -16.6675   21.3011 N   0  0  0  0  0  0  0  0  0  0  0  0
  -23.5330  -27.7157   23.4500 N   0  0  0  0  0  0  0  0  0  0  0  0
  -27.0992  -20.1728   20.9025 N   0  0  0  0  0  0  0  0  0  0  0  0
  -30.6294  -17.1079   20.2338 N   0  0  0  0  0  0  0  0  0  0  0  0
  -30.2493  -12.6164   19.9560 N   0  0  0  0  0  0  0  0  0  0  0  0
  -28.7342  -21.2518   19.5891 N   0  0  0  0  0  0  0  0  0  0  0  0
  -24.6900  -24.7561   25.2383 N   0  0  0  0  0  0  0  0  0  0  0  0
  -29.6818  -26.7692   18.5312 N   0  0  0  0  0  0  0  0  0  0  0  0
  -21.0688  -29.6055   22.1027 N   0  0  0  0  0  0  0  0  0  0  0  0
  -21.4474  -33.1789   22.4961 N   0  3  0  0  0  0  0  0  0  0  0  0
  -31.5884  -14.4067   19.4461 O   0  0  0  0  0  0  0  0  0  0  0  0
  -24.2408  -25.2974   23.0185 O   0  0  0  0  0  0  0  0  0  0  0  0
  -21.2743  -27.4250   23.9499 O   0  0  0  0  0  0  0  0  0  0  0  0
  -28.7773  -26.5572   20.6608 O   0  0  0  0  0  0  0  0  0  0  0  0
  -22.6576  -31.0131   21.1691 O   0  0  0  0  0  0  0  0  0  0  0  0
  -26.8048  -22.3663   20.2348 O   0  0  0  0  0  0  0  0  0  0  0  0
  -26.0280   -9.5422   21.8966 O   0  0  0  0  0  0  0  0  0  0  0  0
  -29.2437  -29.4430   21.8826 O   0  0  0  0  0  0  0  0  0  1  0  0
  -20.6516   -9.0178   20.7909 F   0  0  0  0  0  0  0  0  0  0  0  0
  -24.1459  -11.0311   23.2691 F   0  0  0  0  0  0  0  0  0  0  0  0
  1  2  1  0  0  0  0
  1  5  2  0  0  0  0
  2  6  2  0  0  0  0
  3  8  2  0  0  0  0
  3 17  1  0  0  0  0
  4  9  1  0  0  0  0
  4 17  2  0  0  0  0
  5 19  1  0  0  0  0
  6 21  1  0  0  0  0
  7 10  2  0  0  0  0
  7 20  1  0  0  0  0
  8 23  1  0  0  0  0
  9 23  2  0  0  0  0
 10 24  1  0  0  0  0
 11 12  2  0  0  0  0
 11 25  1  0  0  0  0
 12 26  1  0  0  0  0
 13 16  1  0  0  0  0
 13 29  2  0  0  0  0
 14 22  1  0  0  0  0
 14 24  2  0  0  0  0
 15 26  2  0  0  0  0
 15 27  1  0  0  0  0
 16 63  2  0  0  0  0
 17 28  1  0  0  0  0
 18 28  1  0  0  0  0
 18 30  2  0  0  0  0
 18 32  1  0  0  0  0
 19 21  2  0  0  0  0
 19 38  1  0  0  0  0
 20 22  2  0  0  0  0
 20 39  1  0  0  0  0
 21 47  1  0  0  0  0
 22 40  1  0  0  0  0
 23 82  1  0  0  0  0
 24 83  1  0  0  0  0
 25 27  2  0  0  0  0
 25 82  1  0  0  0  0
 26 84  1  0  0  0  0
 27 85  1  0  0  0  0
 28 64  2  0  0  0  0
 29 65  1  0  0  0  0
 29 71  1  0  0  0  0
 30 66  1  0  0  0  0
 30 69  1  0  0  0  0
 31 58  1  0  0  0  0
 31 63  1  0  0  0  0
 31 65  2  0  0  0  0
 32 70  1  0  0  0  0
 32 76  2  0  0  0  0
 33 48  1  0  0  0  0
 33 72  1  0  0  0  0
 33 77  2  0  0  0  0
 34 59  1  0  0  0  0
 34 67  1  0  0  0  0
 34 78  2  0  0  0  0
 35 57  1  0  0  0  0
 35 73  1  0  0  0  0
 35 79  2  0  0  0  0
 36 60  1  0  0  0  0
 36 74  1  0  0  0  0
 36 80  2  0  0  0  0
 37 68  1  0  0  0  0
 37 71  1  0  0  0  0
 37 81  2  0  0  0  0
 38 41  1  0  0  0  0
 39 48  1  0  0  0  0
 40 67  1  0  0  0  0
 41 43  1  0  0  0  0
 42 44  1  0  0  0  0
 42 45  1  0  0  0  0
 43 47  1  0  0  0  0
 44 49  1  0  0  0  0
 45 68  1  0  0  0  0
 46 49  1  0  0  0  0
 46 68  1  0  0  0  0
 47 72  1  0  0  0  0
 48 67  1  0  0  0  0
 49 66  1  0  0  0  0
 50 58  1  0  0  0  0
 51 60  1  0  0  0  0
 52 61  1  0  0  0  0
 53 62  1  0  0  0  0
 54 62  1  0  0  0  0
 55 62  1  0  0  0  0
 56 75  1  0  0  0  0
 57 61  1  0  0  0  0
 58 73  1  0  0  0  0
 59 62  1  0  0  0  0
 59 74  1  0  0  0  0
 60 75  1  0  0  0  0
 61 83  1  0  0  0  0
 64 66  1  0  0  0  0
M  CHG  1  75   1
M  ISO  4  37 100  61 101  71 100  83 101
M  END
> <Batch ID>
0184

> <Smiles>
CNC(C)C(=O)NC(C(=O)N1Cc2cc([101O:1][101CH:1](C)CC(=O)NC(C)c3nccc([100NH:0][100C:0](=O)N4CCCC(n5nc(-c6ccc(Oc7ccc(F)cc7F)cc6)c(C(N)=O)c5N)C4)n3)ccc2CC1C(=O)NC1CCCc2ccccc21)C(C)(C)C

> <Shape>
0.231

> <Color>
0.080

> <Negative vol penalty>
0.000

$$$$

  -OEChem-04052305023D

 85 93  0     1  0  0  0  0  0999 V2000
  -16.6749  -30.0027   24.2377 C   0  0  0  0  0  0  0  0  0  0  0  0
  -17.8337  -30.2696   24.9598 C   0  0  0  0  0  0  0  0  0  0  0  0
  -28.5420  -15.2144   20.7498 C   0  0  0  0  0  0  0  0  0  0  0  0
  -29.9373  -16.4710   22.2700 C   0  0  0  0  0  0  0  0  0  0  0  0
  -16.7314  -29.1890   23.1069 C   0  0  0  0  0  0  0  0  0  0  0  0
  -19.0496  -29.7221   24.5520 C   0  0  0  0  0  0  0  0  0  0  0  0
  -24.5832  -32.3093   24.9892 C   0  0  0  0  0  0  0  0  0  0  0  0
  -29.6794  -14.6510   20.1715 C   0  0  0  0  0  0  0  0  0  0  0  0
  -31.0748  -15.9075   21.6918 C   0  0  0  0  0  0  0  0  0  0  0  0
  -25.6160  -32.1643   25.9144 C   0  0  0  0  0  0  0  0  0  0  0  0
  -31.8830  -12.1905   20.8947 C   0  0  0  0  0  0  0  0  0  0  0  0
  -31.8744  -10.8169   20.6525 C   0  0  0  0  0  0  0  0  0  0  0  0
  -26.6819  -30.5584   24.4638 C   0  0  0  0  0  0  0  0  0  0  0  0
  -32.1934  -11.2308   18.2937 C   0  0  0  0  0  0  0  0  0  0  0  0
  -26.7258  -26.1018   24.9699 C   0  0  0  0  0  0  0  0  0  0  0  0
  -28.6709  -16.1245   21.7990 C   0  0  0  0  0  0  0  0  0  0  0  0
  -26.7597  -16.2067   23.4866 C   0  0  0  0  0  0  0  0  0  0  0  0
  -17.9503  -28.6391   22.6796 C   0  0  0  0  0  0  0  0  0  0  0  0
  -24.5864  -31.5706   23.7973 C   0  0  0  0  0  0  0  0  0  0  0  0
  -19.1222  -28.8992   23.4153 C   0  0  0  0  0  0  0  0  0  0  0  0
  -25.6493  -30.6978   23.5240 C   0  0  0  0  0  0  0  0  0  0  0  0
  -30.9458  -14.9975   20.6425 C   0  0  0  0  0  0  0  0  0  0  0  0
  -26.6641  -31.2866   25.6532 C   0  0  0  0  0  0  0  0  0  0  0  0
  -32.0468  -13.0843   19.8364 C   0  0  0  0  0  0  0  0  0  0  0  0
  -32.0296  -10.3370   19.3520 C   0  0  0  0  0  0  0  0  0  0  0  0
  -32.2020  -12.6044   18.5359 C   0  0  0  0  0  0  0  0  0  0  0  0
  -27.4964  -16.7073   22.3964 C   0  0  0  0  0  0  0  0  0  0  0  0
  -27.8009  -25.5157   25.6045 C   0  0  0  0  0  0  0  0  0  0  0  0
  -25.7473  -17.1178   23.6641 C   0  0  0  0  0  0  0  0  0  0  0  0
  -26.6215  -24.1212   24.0339 C   0  0  0  0  0  0  0  0  0  0  0  0
  -26.9716  -15.0240   24.2689 C   0  0  0  0  0  0  0  0  0  0  0  0
  -22.6699  -29.3884   22.5055 C   0  0  0  0  0  0  0  0  0  0  0  0
  -24.6592  -29.7114   19.9637 C   0  0  0  0  0  0  0  0  0  0  0  0
  -29.1036  -28.1338   29.2524 C   0  0  0  0  0  0  0  0  0  0  0  0
  -27.7401  -30.5923   18.7895 C   0  0  0  0  0  0  0  0  0  0  0  0
  -25.1970  -22.9185   22.3396 C   0  0  0  0  0  0  0  0  0  0  0  0
  -17.9537  -27.7270   21.4784 C   0  0  0  0  0  0  0  0  0  0  0  0
  -23.4786  -31.7584   22.7974 C   0  0  0  0  0  0  0  0  0  0  0  0
  -25.7101  -29.8968   22.2499 C   0  0  0  0  0  0  0  0  0  0  0  0
  -19.3453  -27.4903   20.8973 C   0  0  0  0  0  0  0  0  0  0  0  0
  -23.0817  -20.2734   21.2412 C   0  0  0  0  0  0  0  0  0  0  0  0
  -20.3408  -27.1724   22.0085 C   0  0  0  0  0  0  0  0  0  0  0  0
  -23.9043  -19.0128   21.5176 C   0  0  0  0  0  0  0  0  0  0  0  0
  -23.9605  -21.4336   20.7771 C   0  0  0  0  0  0  0  0  0  0  0  0
  -25.9174  -20.4831   21.9331 C   0  0  0  0  0  0  0  0  0  0  0  0
  -20.4643  -28.3438   22.9903 C   0  0  1  0  0  0  0  0  0  0  0  0
  -23.3215  -30.5730   21.8500 C   0  0  1  0  0  0  0  0  0  0  0  0
  -25.0837  -19.3061   22.4654 C   0  0  2  0  0  0  0  0  0  0  0  0
  -29.0806  -30.7124   16.6715 C   0  0  0  0  0  0  0  0  0  0  0  0
  -25.0392  -26.6848   20.0355 C   0  0  0  0  0  0  0  0  0  0  0  0
  -27.0540  -26.9732   18.5775 C   0  0  0  0  0  0  0  0  0  0  0  0
  -24.8040  -27.6526   17.7415 C   0  0  0  0  0  0  0  0  0  0  0  0
  -29.9029  -25.7999   29.6981 C   0  0  0  0  0  0  0  0  0  0  0  0
  -28.0830  -33.5216   19.0356 C   0  0  0  0  0  0  0  0  0  0  0  0
  -28.7487  -26.0898   26.6288 C   0  0  0  0  0  0  0  0  0  0  0  0
  -28.1491  -29.0032   28.4442 C   0  0  0  0  0  0  0  0  0  0  0  0
  -28.2767  -30.4870   28.7825 C   0  0  0  0  0  0  0  0  0  0  0  0
  -28.1353  -26.1786   28.0240 C   0  0  0  0  0  0  0  0  0  0  0  0
  -27.3481  -31.3399   27.9303 C   0  0  0  0  0  0  0  0  0  1  0  0
  -25.9398  -29.0484   19.5174 C   0  0  1  0  0  0  0  0  0  0  0  0
  -28.1610  -31.4647   17.6207 C   0  0  2  0  0  0  0  0  0  0  0  0
  -25.7074  -27.6032   18.9929 C   0  0  0  0  0  0  0  0  0  0  0  0
  -26.0485  -25.3038   24.0686 N   0  0  0  0  0  0  0  0  0  0  0  0
  -26.9946  -17.8477   21.9151 N   0  0  0  0  0  0  0  0  0  0  0  0
  -25.9318  -18.0713   22.7066 N   0  0  0  0  0  0  0  0  0  0  0  0
  -24.6002  -30.1105   21.3065 N   0  0  0  0  0  0  0  0  0  0  0  0
  -25.0538  -21.6561   21.7258 N   0  0  0  0  0  0  0  0  0  0  0  0
  -24.7261  -17.1882   24.5443 N   0  0  0  0  0  0  0  0  0  0  0  0
  -28.0592  -14.1990   23.9515 N   0  0  0  0  0  0  0  0  0  0  0  0
  -26.2521  -23.0018   23.2475 N   0  0  0  0  0  0  0  0  0  0  0  0
  -21.2903  -29.3903   22.4273 N   0  0  0  0  0  0  0  0  0  0  0  0
  -26.5466  -29.9476   18.5419 N   0  0  0  0  0  0  0  0  0  0  0  0
  -29.0487  -26.7586   29.0008 N   0  0  0  0  0  0  0  0  0  0  0  0
  -28.8794  -32.6752   18.1102 N   0  3  0  0  0  0  0  0  0  0  0  0
  -26.2093  -14.6996   25.2108 O   0  0  0  0  0  0  0  0  0  0  0  0
  -23.3673  -28.5350   23.0413 O   0  0  0  0  0  0  0  0  0  0  0  0
  -23.7476  -29.8759   19.1491 O   0  0  0  0  0  0  0  0  0  0  0  0
  -29.8694  -28.6433   30.0747 O   0  0  0  0  0  0  0  0  0  0  0  0
  -28.4056  -30.4898   19.8177 O   0  0  0  0  0  0  0  0  0  0  0  0
  -24.4227  -23.8484   22.0994 O   0  0  0  0  0  0  0  0  0  0  0  0
  -32.0559  -14.4477   20.0786 O   0  0  0  0  0  0  0  0  0  0  0  0
  -27.6731  -31.1426   26.5548 O   0  0  0  0  0  0  0  0  0  1  0  0
  -32.0229   -9.0178   19.1198 F   0  0  0  0  0  0  0  0  0  0  0  0
  -32.3609  -13.4582   17.5153 F   0  0  0  0  0  0  0  0  0  0  0  0
  -27.9792  -23.8993   25.0597 S   0  0  0  0  0  0  0  0  0  0  0  0
  1  2  1  0  0  0  0
  1  5  2  0  0  0  0
  2  6  2  0  0  0  0
  3  8  2  0  0  0  0
  3 16  1  0  0  0  0
  4  9  1  0  0  0  0
  4 16  2  0  0  0  0
  5 18  1  0  0  0  0
  6 20  1  0  0  0  0
  7 10  2  0  0  0  0
  7 19  1  0  0  0  0
  8 22  1  0  0  0  0
  9 22  2  0  0  0  0
 10 23  1  0  0  0  0
 11 12  2  0  0  0  0
 11 24  1  0  0  0  0
 12 25  1  0  0  0  0
 13 21  1  0  0  0  0
 13 23  2  0  0  0  0
 14 25  2  0  0  0  0
 14 26  1  0  0  0  0
 15 28  2  0  0  0  0
 15 63  1  0  0  0  0
 16 27  1  0  0  0  0
 17 27  1  0  0  0  0
 17 29  2  0  0  0  0
 17 31  1  0  0  0  0
 18 20  2  0  0  0  0
 18 37  1  0  0  0  0
 19 21  2  0  0  0  0
 19 38  1  0  0  0  0
 20 46  1  0  0  0  0
 21 39  1  0  0  0  0
 22 81  1  0  0  0  0
 23 82  1  0  0  0  0
 24 26  2  0  0  0  0
 24 81  1  0  0  0  0
 25 83  1  0  0  0  0
 26 84  1  0  0  0  0
 27 64  2  0  0  0  0
 28 55  1  0  0  0  0
 28 85  1  0  0  0  0
 29 65  1  0  0  0  0
 29 68  1  0  0  0  0
 30 63  2  0  0  0  0
 30 70  1  0  0  0  0
 30 85  1  0  0  0  0
 31 69  1  0  0  0  0
 31 75  2  0  0  0  0
 32 47  1  0  0  0  0
 32 71  1  0  0  0  0
 32 76  2  0  0  0  0
 33 60  1  0  0  0  0
 33 66  1  0  0  0  0
 33 77  2  0  0  0  0
 34 56  1  0  0  0  0
 34 73  1  0  0  0  0
 34 78  2  0  0  0  0
 35 61  1  0  0  0  0
 35 72  1  0  0  0  0
 35 79  2  0  0  0  0
 36 67  1  0  0  0  0
 36 70  1  0  0  0  0
 36 80  2  0  0  0  0
 37 40  1  0  0  0  0
 38 47  1  0  0  0  0
 39 66  1  0  0  0  0
 40 42  1  0  0  0  0
 41 43  1  0  0  0  0
 41 44  1  0  0  0  0
 42 46  1  0  0  0  0
 43 48  1  0  0  0  0
 44 67  1  0  0  0  0
 45 48  1  0  0  0  0
 45 67  1  0  0  0  0
 46 71  1  0  0  0  0
 47 66  1  0  0  0  0
 48 65  1  0  0  0  0
 49 61  1  0  0  0  0
 50 62  1  0  0  0  0
 51 62  1  0  0  0  0
 52 62  1  0  0  0  0
 53 73  1  0  0  0  0
 54 74  1  0  0  0  0
 55 58  1  0  0  0  0
 56 57  1  0  0  0  0
 57 59  1  0  0  0  0
 58 73  1  0  0  0  0
 59 82  1  0  0  0  0
 60 62  1  0  0  0  0
 60 72  1  0  0  0  0
 61 74  1  0  0  0  0
 64 65  1  0  0  0  0
M  CHG  1  74   1
M  ISO  4  36 100  59 101  70 100  82 101
M  END
> <Batch ID>
0184

> <Smiles>
CNC(C)C(=O)NC(C(=O)N1Cc2cc([101O:1][101CH2:1]CCC(=O)N(C)CCc3cnc([100NH:0][100C:0](=O)N4CCCC(n5nc(-c6ccc(Oc7ccc(F)cc7F)cc6)c(C(N)=O)c5N)C4)s3)ccc2CC1C(=O)NC1CCCc2ccccc21)C(C)(C)C

> <Shape>
0.206

> <Color>
0.085

> <Negative vol penalty>
0.000

$$$$

  -OEChem-04052305023D

 85 93  0     1  0  0  0  0  0999 V2000
  -18.6283  -28.1894   22.8752 C   0  0  0  0  0  0  0  0  0  0  0  0
  -19.9251  -28.6898   22.8469 C   0  0  0  0  0  0  0  0  0  0  0  0
  -26.1242  -14.6551   19.5023 C   0  0  0  0  0  0  0  0  0  0  0  0
  -25.3483  -14.5335   21.7871 C   0  0  0  0  0  0  0  0  0  0  0  0
  -18.3735  -26.8980   22.4184 C   0  0  0  0  0  0  0  0  0  0  0  0
  -20.9655  -27.9035   22.3509 C   0  0  0  0  0  0  0  0  0  0  0  0
  -25.3596  -30.0611   21.8609 C   0  0  0  0  0  0  0  0  0  0  0  0
  -26.0587  -13.2651   19.4061 C   0  0  0  0  0  0  0  0  0  0  0  0
  -25.2828  -13.1435   21.6909 C   0  0  0  0  0  0  0  0  0  0  0  0
  -26.1604  -30.3966   22.9517 C   0  0  0  0  0  0  0  0  0  0  0  0
  -23.1885  -10.8347   20.3855 C   0  0  0  0  0  0  0  0  0  0  0  0
  -22.0504  -10.2046   20.8889 C   0  0  0  0  0  0  0  0  0  0  0  0
  -27.5673  -28.4904   22.4974 C   0  0  0  0  0  0  0  0  0  0  0  0
  -23.4250   -8.9574   22.4355 C   0  0  0  0  0  0  0  0  0  0  0  0
  -25.7690  -15.2893   20.6929 C   0  0  0  0  0  0  0  0  0  0  0  0
  -24.8158  -17.6473   20.4956 C   0  0  0  0  0  0  0  0  0  0  0  0
  -19.4140  -26.0916   21.9283 C   0  0  0  0  0  0  0  0  0  0  0  0
  -25.6508  -28.9297   21.0853 C   0  0  0  0  0  0  0  0  0  0  0  0
  -20.7248  -26.6063   21.8631 C   0  0  0  0  0  0  0  0  0  0  0  0
  -26.7701  -28.1443   21.3956 C   0  0  0  0  0  0  0  0  0  0  0  0
  -25.6380  -12.5093   20.5003 C   0  0  0  0  0  0  0  0  0  0  0  0
  -27.2628  -29.6096   23.2719 C   0  0  0  0  0  0  0  0  0  0  0  0
  -24.4449  -10.5260   20.9070 C   0  0  0  0  0  0  0  0  0  0  0  0
  -22.1687   -9.2660   21.9139 C   0  0  0  0  0  0  0  0  0  0  0  0
  -24.5631   -9.5874   21.9320 C   0  0  0  0  0  0  0  0  0  0  0  0
  -25.8370  -16.7250   20.7931 C   0  0  0  0  0  0  0  0  0  0  0  0
  -24.9529  -25.4995   25.3122 C   0  0  0  0  0  0  0  0  0  0  0  0
  -26.2842  -25.8483   25.4017 C   0  0  0  0  0  0  0  0  0  0  0  0
  -25.3763  -18.8747   20.7521 C   0  0  0  0  0  0  0  0  0  0  0  0
  -26.5280  -23.8160   24.6141 C   0  0  0  0  0  0  0  0  0  0  0  0
  -23.4801  -17.4151   20.0291 C   0  0  0  0  0  0  0  0  0  0  0  0
  -24.1324  -26.2192   20.4135 C   0  0  0  0  0  0  0  0  0  0  0  0
  -26.6348  -25.7721   18.3985 C   0  0  0  0  0  0  0  0  0  0  0  0
  -28.0609  -27.5352   25.9867 C   0  0  0  0  0  0  0  0  0  0  0  0
  -30.2072  -26.2697   18.4855 C   0  0  0  0  0  0  0  0  0  0  0  0
  -28.4069  -22.2712   23.9587 C   0  0  0  0  0  0  0  0  0  0  0  0
  -19.0808  -24.7041   21.4394 C   0  0  0  0  0  0  0  0  0  0  0  0
  -24.7927  -28.5966   19.8958 C   0  0  0  0  0  0  0  0  0  0  0  0
  -27.1376  -26.9309   20.5825 C   0  0  0  0  0  0  0  0  0  0  0  0
  -20.3029  -23.7960   21.3495 C   0  0  0  0  0  0  0  0  0  0  0  0
  -30.1777  -20.1717   21.6930 C   0  0  0  0  0  0  0  0  0  0  0  0
  -21.4222  -24.5035   20.6004 C   0  0  0  0  0  0  0  0  0  0  0  0
  -29.1223  -19.1637   21.2324 C   0  0  0  0  0  0  0  0  0  0  0  0
  -30.0047  -20.5413   23.1652 C   0  0  0  0  0  0  0  0  0  0  0  0
  -27.6046  -19.9927   23.0754 C   0  0  0  0  0  0  0  0  0  0  0  0
  -21.8773  -25.7582   21.3564 C   0  0  1  0  0  0  0  0  0  0  0  0
  -24.8842  -27.1303   19.4848 C   0  0  1  0  0  0  0  0  0  0  0  0
  -27.6985  -19.6391   21.5821 C   0  0  2  0  0  0  0  0  0  0  0  0
  -23.5798  -27.5489   24.7943 C   0  0  0  0  0  0  0  0  0  0  0  0
  -23.6580  -26.6454   27.1464 C   0  0  0  0  0  0  0  0  0  0  0  0
  -31.8408  -26.6958   16.6288 C   0  0  0  0  0  0  0  0  0  0  0  0
  -27.5363  -31.3852   26.1738 C   0  0  0  0  0  0  0  0  0  0  0  0
  -27.0286  -22.7467   18.4408 C   0  0  0  0  0  0  0  0  0  0  0  0
  -29.4679  -23.1284   18.0253 C   0  0  0  0  0  0  0  0  0  0  0  0
  -27.7863  -23.8680   16.3377 C   0  0  0  0  0  0  0  0  0  0  0  0
  -31.2035  -28.7412   19.7731 C   0  0  0  0  0  0  0  0  0  0  0  0
  -28.1090  -28.9600   26.5299 C   0  0  0  0  0  0  0  0  0  0  0  0
  -23.7386  -26.2705   25.6488 C   0  0  0  0  0  0  0  0  0  0  0  0
  -27.9999  -25.1378   18.5135 C   0  0  1  0  0  0  0  0  0  0  0  0
  -30.9969  -27.3220   17.7282 C   0  0  2  0  0  0  0  0  0  0  0  0
  -27.4173  -29.9726   25.6171 C   0  0  2  0  0  0  0  0  0  1  0  0
  -28.0578  -23.7320   17.8518 C   0  0  0  0  0  0  0  0  0  0  0  0
  -26.9611  -17.3161   21.2068 N   0  0  0  0  0  0  0  0  0  0  0  0
  -27.1889  -24.8841   25.0023 N   0  0  0  0  0  0  0  0  0  0  0  0
  -26.6496  -18.6229   21.1710 N   0  0  0  0  0  0  0  0  0  0  0  0
  -26.2640  -26.6429   19.4329 N   0  0  0  0  0  0  0  0  0  0  0  0
  -28.6331  -20.9865   23.4210 N   0  0  0  0  0  0  0  0  0  0  0  0
  -24.8992  -20.1340   20.6579 N   0  0  0  0  0  0  0  0  0  0  0  0
  -23.0666  -16.0928   19.8175 N   0  0  0  0  0  0  0  0  0  0  0  0
  -26.7425  -27.1039   25.8668 N   0  0  0  0  0  0  0  0  0  0  0  0
  -27.0616  -22.5966   24.1282 N   0  0  0  0  0  0  0  0  0  0  0  0
  -22.7857  -26.5103   20.5191 N   0  0  0  0  0  0  0  0  0  0  0  0
  -28.9451  -26.0996   17.9569 N   0  0  0  0  0  0  0  0  0  0  0  0
  -31.9031  -28.0567   18.6555 N   0  3  0  0  0  0  0  0  0  0  0  0
  -22.6823  -18.3534   19.7909 O   0  0  0  0  0  0  0  0  0  0  0  0
  -24.7295  -25.3179   20.9903 O   0  0  0  0  0  0  0  0  0  0  0  0
  -25.9265  -25.5102   17.4231 O   0  0  0  0  0  0  0  0  0  0  0  0
  -29.0771  -26.9063   25.7109 O   0  0  0  0  0  0  0  0  0  0  0  0
  -30.6656  -25.6571   19.4473 O   0  0  0  0  0  0  0  0  0  0  0  0
  -29.3372  -23.0375   24.2221 O   0  0  0  0  0  0  0  0  0  0  0  0
  -25.5737  -11.1529   20.4067 O   0  0  0  0  0  0  0  0  0  0  0  0
  -28.0457  -29.9344   24.3365 O   0  0  0  0  0  0  0  0  0  1  0  0
  -21.0755   -8.6622   22.3983 F   0  0  0  0  0  0  0  0  0  0  0  0
  -25.7673   -9.2876   22.4379 F   0  0  0  0  0  0  0  0  0  0  0  0
  -24.8164  -23.9024   24.7025 S   0  0  0  0  0  0  0  0  0  0  0  0
  1  2  1  0  0  0  0
  1  5  2  0  0  0  0
  2  6  2  0  0  0  0
  3  8  2  0  0  0  0
  3 15  1  0  0  0  0
  4  9  1  0  0  0  0
  4 15  2  0  0  0  0
  5 17  1  0  0  0  0
  6 19  1  0  0  0  0
  7 10  2  0  0  0  0
  7 18  1  0  0  0  0
  8 21  1  0  0  0  0
  9 21  2  0  0  0  0
 10 22  1  0  0  0  0
 11 12  2  0  0  0  0
 11 23  1  0  0  0  0
 12 24  1  0  0  0  0
 13 20  1  0  0  0  0
 13 22  2  0  0  0  0
 14 24  2  0  0  0  0
 14 25  1  0  0  0  0
 15 26  1  0  0  0  0
 16 26  1  0  0  0  0
 16 29  2  0  0  0  0
 16 31  1  0  0  0  0
 17 19  2  0  0  0  0
 17 37  1  0  0  0  0
 18 20  2  0  0  0  0
 18 38  1  0  0  0  0
 19 46  1  0  0  0  0
 20 39  1  0  0  0  0
 21 81  1  0  0  0  0
 22 82  1  0  0  0  0
 23 25  2  0  0  0  0
 23 81  1  0  0  0  0
 24 83  1  0  0  0  0
 25 84  1  0  0  0  0
 26 63  2  0  0  0  0
 27 28  2  0  0  0  0
 27 58  1  0  0  0  0
 27 85  1  0  0  0  0
 28 64  1  0  0  0  0
 28 70  1  0  0  0  0
 29 65  1  0  0  0  0
 29 68  1  0  0  0  0
 30 64  2  0  0  0  0
 30 71  1  0  0  0  0
 30 85  1  0  0  0  0
 31 69  1  0  0  0  0
 31 75  2  0  0  0  0
 32 47  1  0  0  0  0
 32 72  1  0  0  0  0
 32 76  2  0  0  0  0
 33 59  1  0  0  0  0
 33 66  1  0  0  0  0
 33 77  2  0  0  0  0
 34 57  1  0  0  0  0
 34 70  1  0  0  0  0
 34 78  2  0  0  0  0
 35 60  1  0  0  0  0
 35 73  1  0  0  0  0
 35 79  2  0  0  0  0
 36 67  1  0  0  0  0
 36 71  1  0  0  0  0
 36 80  2  0  0  0  0
 37 40  1  0  0  0  0
 38 47  1  0  0  0  0
 39 66  1  0  0  0  0
 40 42  1  0  0  0  0
 41 43  1  0  0  0  0
 41 44  1  0  0  0  0
 42 46  1  0  0  0  0
 43 48  1  0  0  0  0
 44 67  1  0  0  0  0
 45 48  1  0  0  0  0
 45 67  1  0  0  0  0
 46 72  1  0  0  0  0
 47 66  1  0  0  0  0
 48 65  1  0  0  0  0
 49 58  1  0  0  0  0
 50 58  1  0  0  0  0
 51 60  1  0  0  0  0
 52 61  1  0  0  0  0
 53 62  1  0  0  0  0
 54 62  1  0  0  0  0
 55 62  1  0  0  0  0
 56 74  1  0  0  0  0
 57 61  1  0  0  0  0
 59 62  1  0  0  0  0
 59 73  1  0  0  0  0
 60 74  1  0  0  0  0
 61 82  1  0  0  0  0
 63 65  1  0  0  0  0
M  CHG  1  74   1
M  ISO  4  36 100  61 101  71 100  82 101
M  END
> <Batch ID>
0184

> <Smiles>
CNC(C)C(=O)NC(C(=O)N1Cc2cc([101O:1][101CH:1](C)CC(=O)Nc3nc([100NH:0][100C:0](=O)N4CCCC(n5nc(-c6ccc(Oc7ccc(F)cc7F)cc6)c(C(N)=O)c5N)C4)sc3C(C)C)ccc2CC1C(=O)NC1CCCc2ccccc21)C(C)(C)C

> <Shape>
0.234

> <Color>
0.071

> <Negative vol penalty>
0.000

$$$$

  -OEChem-04052305023D

 88 96  0     1  0  0  0  0  0999 V2000
  -20.2154  -17.2555   22.4453 C   0  0  0  0  0  0  0  0  0  0  0  0
  -21.3248  -17.9935   22.8454 C   0  0  0  0  0  0  0  0  0  0  0  0
  -24.4594   -9.1460   21.5562 C   0  0  0  0  0  0  0  0  0  0  0  0
  -24.1497  -10.6844   23.3932 C   0  0  0  0  0  0  0  0  0  0  0  0
  -19.3725  -17.7499   21.4508 C   0  0  0  0  0  0  0  0  0  0  0  0
  -21.5925  -19.2259   22.2504 C   0  0  0  0  0  0  0  0  0  0  0  0
  -22.8322  -22.7869   25.6308 C   0  0  0  0  0  0  0  0  0  0  0  0
  -24.0956   -8.0841   22.3841 C   0  0  0  0  0  0  0  0  0  0  0  0
  -23.7859   -9.6224   24.2211 C   0  0  0  0  0  0  0  0  0  0  0  0
  -24.1302  -22.7583   26.1388 C   0  0  0  0  0  0  0  0  0  0  0  0
  -21.2432   -6.7469   23.6123 C   0  0  0  0  0  0  0  0  0  0  0  0
  -20.3488   -5.8052   23.1036 C   0  0  0  0  0  0  0  0  0  0  0  0
  -24.7608  -24.5142   24.6097 C   0  0  0  0  0  0  0  0  0  0  0  0
  -22.0022   -4.0701   23.4087 C   0  0  0  0  0  0  0  0  0  0  0  0
  -24.4864  -10.4462   22.0607 C   0  0  0  0  0  0  0  0  0  0  0  0
  -24.0110  -12.3283   20.4056 C   0  0  0  0  0  0  0  0  0  0  0  0
  -19.6246  -18.9934   20.8501 C   0  0  0  0  0  0  0  0  0  0  0  0
  -22.4909  -23.6733   24.5992 C   0  0  0  0  0  0  0  0  0  0  0  0
  -20.7529  -19.7367   21.2460 C   0  0  0  0  0  0  0  0  0  0  0  0
  -23.4571  -24.5539   24.0922 C   0  0  0  0  0  0  0  0  0  0  0  0
  -23.7589   -8.3223   23.7166 C   0  0  0  0  0  0  0  0  0  0  0  0
  -25.0955  -23.6200   25.6263 C   0  0  0  0  0  0  0  0  0  0  0  0
  -22.5172   -6.3503   24.0192 C   0  0  0  0  0  0  0  0  0  0  0  0
  -20.7283   -4.4668   23.0018 C   0  0  0  0  0  0  0  0  0  0  0  0
  -22.8966   -5.0119   23.9174 C   0  0  0  0  0  0  0  0  0  0  0  0
  -24.8626  -11.5436   21.2060 C   0  0  0  0  0  0  0  0  0  0  0  0
  -28.2527  -19.8935   20.7080 C   0  0  0  0  0  0  0  0  0  0  0  0
  -29.0077  -21.0467   20.7526 C   0  0  0  0  0  0  0  0  0  0  0  0
  -24.8484  -13.2288   19.7937 C   0  0  0  0  0  0  0  0  0  0  0  0
  -28.4043  -20.9659   22.8596 C   0  0  0  0  0  0  0  0  0  0  0  0
  -22.5901  -12.2503   20.2308 C   0  0  0  0  0  0  0  0  0  0  0  0
  -21.4503  -23.3466   21.6136 C   0  0  0  0  0  0  0  0  0  0  0  0
  -21.1986  -26.5773   21.7611 C   0  0  0  0  0  0  0  0  0  0  0  0
  -22.2159  -29.4998   23.2003 C   0  0  0  0  0  0  0  0  0  0  0  0
  -28.7470  -22.3016   24.9632 C   0  0  0  0  0  0  0  0  0  0  0  0
  -29.1029  -16.8348   19.9986 C   0  0  0  0  0  0  0  0  0  0  0  0
  -18.7116  -19.4647   19.7461 C   0  0  0  0  0  0  0  0  0  0  0  0
  -21.0795  -23.7104   24.0806 C   0  0  0  0  0  0  0  0  0  0  0  0
  -23.1365  -25.5386   22.9985 C   0  0  0  0  0  0  0  0  0  0  0  0
  -18.8553  -20.9511   19.4297 C   0  0  0  0  0  0  0  0  0  0  0  0
  -29.8985  -13.3928   19.5558 C   0  0  0  0  0  0  0  0  0  0  0  0
  -20.3279  -21.3333   19.3182 C   0  0  0  0  0  0  0  0  0  0  0  0
  -28.5913  -12.6699   19.8856 C   0  0  0  0  0  0  0  0  0  0  0  0
  -30.1075  -14.6153   20.4467 C   0  0  0  0  0  0  0  0  0  0  0  0
  -27.6781  -14.8492   20.7885 C   0  0  0  0  0  0  0  0  0  0  0  0
  -21.0628  -21.0891   20.6418 C   0  0  1  0  0  0  0  0  0  0  0  0
  -20.9742  -24.2965   22.6760 C   0  0  1  0  0  0  0  0  0  0  0  0
  -27.3959  -13.6415   19.8784 C   0  0  2  0  0  0  0  0  0  0  0  0
  -21.8591  -31.9811   23.0850 C   0  0  0  0  0  0  0  0  0  0  0  0
  -26.4974  -18.2675   17.5926 C   0  0  0  0  0  0  0  0  0  0  0  0
  -26.7477  -20.7154   18.0454 C   0  0  0  0  0  0  0  0  0  0  0  0
  -25.3862  -19.2862   19.5741 C   0  0  0  0  0  0  0  0  0  0  0  0
  -22.8866  -26.6996   19.2223 C   0  0  0  0  0  0  0  0  0  0  0  0
  -23.2887  -29.1261   19.6899 C   0  0  0  0  0  0  0  0  0  0  0  0
  -20.9695  -28.3046   19.2787 C   0  0  0  0  0  0  0  0  0  0  0  0
  -21.2458  -29.6070   25.9943 C   0  0  0  0  0  0  0  0  0  0  0  0
  -26.8395  -22.3453   26.6211 C   0  0  0  0  0  0  0  0  0  1  0  0
  -27.9497  -18.9917   19.5775 C   0  0  2  0  0  0  0  0  0  0  0  0
  -22.1176  -27.7361   21.4584 C   0  0  1  0  0  0  0  0  0  0  0  0
  -21.4324  -30.6798   23.7464 C   0  0  2  0  0  0  0  0  0  0  0  0
  -28.3446  -22.2373   26.4265 C   0  0  2  0  0  0  0  0  0  0  0  0
  -26.6646  -19.3252   18.7040 C   0  0  0  0  0  0  0  0  0  0  0  0
  -22.3224  -27.9468   19.9316 C   0  0  0  0  0  0  0  0  0  0  0  0
  -26.1428  -11.9130   21.1131 N   0  0  0  0  0  0  0  0  0  0  0  0
  -29.0955  -21.6633   21.9854 N   0  0  0  0  0  0  0  0  0  0  0  0
  -26.1019  -12.9398   20.2470 N   0  0  0  0  0  0  0  0  0  0  0  0
  -21.7442  -25.5322   22.5201 N   0  0  0  0  0  0  0  0  0  0  0  0
  -28.9388  -15.4969   20.3937 N   0  0  0  0  0  0  0  0  0  0  0  0
  -29.6376  -21.5751   19.6763 N   0  0  0  0  0  0  0  0  0  0  0  0
  -24.6274  -14.2318   18.9175 N   0  0  0  0  0  0  0  0  0  0  0  0
  -21.8834  -11.2659   20.9350 N   0  0  0  0  0  0  0  0  0  0  0  0
  -28.2274  -21.2375   24.2370 N   0  0  0  0  0  0  0  0  0  0  0  0
  -20.7678  -22.1454   21.5860 N   0  0  0  0  0  0  0  0  0  0  0  0
  -21.5589  -28.8920   22.1514 N   0  0  0  0  0  0  0  0  0  0  0  0
  -27.9433  -17.5999   19.9693 N   0  0  0  0  0  0  0  0  0  0  0  0
  -21.6454  -30.8076   25.2158 N   0  3  0  0  0  0  0  0  0  0  0  0
  -21.9678  -13.0198   19.4600 O   0  0  0  0  0  0  0  0  0  0  0  0
  -22.3678  -23.6795   20.8726 O   0  0  0  0  0  0  0  0  0  0  0  0
  -20.0374  -26.6018   21.3458 O   0  0  0  0  0  0  0  0  0  0  0  0
  -23.3037  -29.1542   23.6560 O   0  0  0  0  0  0  0  0  0  0  0  0
  -29.4600  -23.2130   24.5536 O   0  0  0  0  0  0  0  0  0  0  0  0
  -30.2005  -17.3107   19.6893 O   0  0  0  0  0  0  0  0  0  0  0  0
  -23.4037   -7.2863   24.5247 O   0  0  0  0  0  0  0  0  0  0  0  0
  -26.3634  -23.5937   26.1198 O   0  0  0  0  0  0  0  0  0  1  0  0
  -19.8688   -3.5623   22.5147 F   0  0  0  0  0  0  0  0  0  0  0  0
  -24.1187   -4.6247   24.3078 F   0  0  0  0  0  0  0  0  0  0  0  0
  -28.9355  -23.2475   27.1277 F   0  0  0  0  0  0  0  0  0  0  0  0
  -27.6238  -19.5569   22.2677 S   0  0  0  0  0  0  0  0  0  0  0  0
  1  2  1  0  0  0  0
  1  5  2  0  0  0  0
  2  6  2  0  0  0  0
  3  8  2  0  0  0  0
  3 15  1  0  0  0  0
  4  9  1  0  0  0  0
  4 15  2  0  0  0  0
  5 17  1  0  0  0  0
  6 19  1  0  0  0  0
  7 10  2  0  0  0  0
  7 18  1  0  0  0  0
  8 21  1  0  0  0  0
  9 21  2  0  0  0  0
 10 22  1  0  0  0  0
 11 12  2  0  0  0  0
 11 23  1  0  0  0  0
 12 24  1  0  0  0  0
 13 20  1  0  0  0  0
 13 22  2  0  0  0  0
 14 24  2  0  0  0  0
 14 25  1  0  0  0  0
 15 26  1  0  0  0  0
 16 26  1  0  0  0  0
 16 29  2  0  0  0  0
 16 31  1  0  0  0  0
 17 19  2  0  0  0  0
 17 37  1  0  0  0  0
 18 20  2  0  0  0  0
 18 38  1  0  0  0  0
 19 46  1  0  0  0  0
 20 39  1  0  0  0  0
 21 83  1  0  0  0  0
 22 84  1  0  0  0  0
 23 25  2  0  0  0  0
 23 83  1  0  0  0  0
 24 85  1  0  0  0  0
 25 86  1  0  0  0  0
 26 64  2  0  0  0  0
 27 28  2  0  0  0  0
 27 58  1  0  0  0  0
 27 88  1  0  0  0  0
 28 65  1  0  0  0  0
 28 69  1  0  0  0  0
 29 66  1  0  0  0  0
 29 70  1  0  0  0  0
 30 65  2  0  0  0  0
 30 72  1  0  0  0  0
 30 88  1  0  0  0  0
 31 71  1  0  0  0  0
 31 77  2  0  0  0  0
 32 47  1  0  0  0  0
 32 73  1  0  0  0  0
 32 78  2  0  0  0  0
 33 59  1  0  0  0  0
 33 67  1  0  0  0  0
 33 79  2  0  0  0  0
 34 60  1  0  0  0  0
 34 74  1  0  0  0  0
 34 80  2  0  0  0  0
 35 61  1  0  0  0  0
 35 72  1  0  0  0  0
 35 81  2  0  0  0  0
 36 68  1  0  0  0  0
 36 75  1  0  0  0  0
 36 82  2  0  0  0  0
 37 40  1  0  0  0  0
 38 47  1  0  0  0  0
 39 67  1  0  0  0  0
 40 42  1  0  0  0  0
 41 43  1  0  0  0  0
 41 44  1  0  0  0  0
 42 46  1  0  0  0  0
 43 48  1  0  0  0  0
 44 68  1  0  0  0  0
 45 48  1  0  0  0  0
 45 68  1  0  0  0  0
 46 73  1  0  0  0  0
 47 67  1  0  0  0  0
 48 66  1  0  0  0  0
 49 60  1  0  0  0  0
 50 62  1  0  0  0  0
 51 62  1  0  0  0  0
 52 62  1  0  0  0  0
 53 63  1  0  0  0  0
 54 63  1  0  0  0  0
 55 63  1  0  0  0  0
 56 76  1  0  0  0  0
 57 61  1  0  0  0  0
 57 84  1  0  0  0  0
 58 62  1  0  0  0  0
 58 75  1  0  0  0  0
 59 63  1  0  0  0  0
 59 74  1  0  0  0  0
 60 76  1  0  0  0  0
 61 87  1  0  0  0  0
 64 66  1  0  0  0  0
M  CHG  1  76   1
M  ISO  4  36 100  57 101  75 100  84 101
M  END
> <Batch ID>
0184

> <Smiles>
CNC(C)C(=O)NC(C(=O)N1Cc2cc([101O:1][101CH2:1]C(F)C(=O)Nc3nc(N)c(C([100NH:0][100C:0](=O)N4CCCC(n5nc(-c6ccc(Oc7ccc(F)cc7F)cc6)c(C(N)=O)c5N)C4)C(C)(C)C)s3)ccc2CC1C(=O)NC1CCCc2ccccc21)C(C)(C)C

> <Shape>
0.202

> <Color>
0.098

> <Negative vol penalty>
0.000

$$$$

  -OEChem-04052305023D

 84 92  0     1  0  0  0  0  0999 V2000
  -19.1732  -24.3634   20.6391 C   0  0  0  0  0  0  0  0  0  0  0  0
  -20.4480  -24.7845   20.2745 C   0  0  0  0  0  0  0  0  0  0  0  0
  -28.4004  -12.4888   18.4738 C   0  0  0  0  0  0  0  0  0  0  0  0
  -29.4662  -14.0460   19.9825 C   0  0  0  0  0  0  0  0  0  0  0  0
  -18.4274  -25.1107   21.5498 C   0  0  0  0  0  0  0  0  0  0  0  0
  -20.9773  -25.9537   20.8195 C   0  0  0  0  0  0  0  0  0  0  0  0
  -25.7865  -25.4003   22.3063 C   0  0  0  0  0  0  0  0  0  0  0  0
  -29.2573  -11.4787   18.9109 C   0  0  0  0  0  0  0  0  0  0  0  0
  -30.3231  -13.0359   20.4197 C   0  0  0  0  0  0  0  0  0  0  0  0
  -26.7665  -25.4273   21.3151 C   0  0  0  0  0  0  0  0  0  0  0  0
  -29.5185   -9.4135   21.5754 C   0  0  0  0  0  0  0  0  0  0  0  0
  -28.9598   -8.1676   21.8600 C   0  0  0  0  0  0  0  0  0  0  0  0
  -27.2495  -27.7262   21.8635 C   0  0  0  0  0  0  0  0  0  0  0  0
  -30.3655   -7.1529   20.1773 C   0  0  0  0  0  0  0  0  0  0  0  0
  -29.9594  -23.0863   15.9621 C   0  0  0  0  0  0  0  0  0  0  0  0
  -30.2924  -22.2262   17.9582 C   0  0  0  0  0  0  0  0  0  0  0  0
  -28.5049  -13.7725   19.0096 C   0  0  0  0  0  0  0  0  0  0  0  0
  -26.3640  -15.1572   19.0941 C   0  0  0  0  0  0  0  0  0  0  0  0
  -18.9516  -26.2845   22.1136 C   0  0  0  0  0  0  0  0  0  0  0  0
  -25.5226  -26.5414   23.0776 C   0  0  0  0  0  0  0  0  0  0  0  0
  -20.2373  -26.7181   21.7375 C   0  0  0  0  0  0  0  0  0  0  0  0
  -26.2674  -27.7104   22.8656 C   0  0  0  0  0  0  0  0  0  0  0  0
  -29.8088  -21.9053   16.7133 C   0  0  0  0  0  0  0  0  0  0  0  0
  -30.2186  -11.7523   19.8839 C   0  0  0  0  0  0  0  0  0  0  0  0
  -27.4962  -26.5912   21.0915 C   0  0  0  0  0  0  0  0  0  0  0  0
  -30.5006   -9.5293   20.5917 C   0  0  0  0  0  0  0  0  0  0  0  0
  -29.3833   -7.0372   21.1610 C   0  0  0  0  0  0  0  0  0  0  0  0
  -30.9241   -8.3989   19.8926 C   0  0  0  0  0  0  0  0  0  0  0  0
  -27.6203  -14.8164   18.5580 C   0  0  0  0  0  0  0  0  0  0  0  0
  -25.9326  -16.2053   18.3184 C   0  0  0  0  0  0  0  0  0  0  0  0
  -25.6509  -14.5781   20.1949 C   0  0  0  0  0  0  0  0  0  0  0  0
  -22.9953  -28.4192   23.5131 C   0  0  0  0  0  0  0  0  0  0  0  0
  -24.8866  -29.7846   25.7672 C   0  0  0  0  0  0  0  0  0  0  0  0
  -28.0401  -30.4020   26.9166 C   0  0  0  0  0  0  0  0  0  0  0  0
  -28.7891  -20.3116   15.0500 C   0  0  0  0  0  0  0  0  0  0  0  0
  -18.0894  -27.0843   23.0578 C   0  0  0  0  0  0  0  0  0  0  0  0
  -24.4806  -26.4879   24.1610 C   0  0  0  0  0  0  0  0  0  0  0  0
  -26.0367  -28.9561   23.6801 C   0  0  0  0  0  0  0  0  0  0  0  0
  -18.8703  -28.1106   23.8745 C   0  0  0  0  0  0  0  0  0  0  0  0
  -26.3321  -18.0061   13.8989 C   0  0  0  0  0  0  0  0  0  0  0  0
  -19.8222  -28.8947   22.9769 C   0  0  0  0  0  0  0  0  0  0  0  0
  -26.2649  -16.9608   15.0147 C   0  0  0  0  0  0  0  0  0  0  0  0
  -27.7569  -18.5127   13.6814 C   0  0  0  0  0  0  0  0  0  0  0  0
  -28.3641  -17.9613   16.0044 C   0  0  0  0  0  0  0  0  0  0  0  0
  -20.8558  -27.9677   22.3258 C   0  0  1  0  0  0  0  0  0  0  0  0
  -23.9414  -27.8638   24.5398 C   0  0  1  0  0  0  0  0  0  0  0  0
  -26.9388  -17.4690   16.3043 C   0  0  2  0  0  0  0  0  0  0  0  0
  -29.2693  -31.5777   28.7617 C   0  0  0  0  0  0  0  0  0  0  0  0
  -24.3558  -32.4651   24.4096 C   0  0  0  0  0  0  0  0  0  0  0  0
  -26.3050  -33.4085   25.6661 C   0  0  0  0  0  0  0  0  0  0  0  0
  -24.3253  -32.5377   26.9092 C   0  0  0  0  0  0  0  0  0  0  0  0
  -29.2448  -27.8765   27.8806 C   0  0  0  0  0  0  0  0  0  0  0  0
  -31.2943  -24.3501   18.9936 C   0  0  0  0  0  0  0  0  0  0  0  0
  -29.1243  -25.3942   19.8375 C   0  0  0  0  0  0  0  0  0  1  0  0
  -25.8943  -30.9086   25.7794 C   0  0  1  0  0  0  0  0  0  0  0  0
  -28.6529  -30.2667   28.2989 C   0  0  2  0  0  0  0  0  0  0  0  0
  -25.2233  -32.3073   25.6742 C   0  0  0  0  0  0  0  0  0  0  0  0
  -30.5425  -25.6594   19.3167 C   0  0  1  0  0  0  0  0  0  0  0  0
  -31.3697  -26.5019   20.2828 C   0  0  0  0  0  0  0  0  0  0  0  0
  -30.4966  -24.0831   16.6705 N   0  0  0  0  0  0  0  0  0  0  0  0
  -27.9646  -15.5856   17.5218 N   0  0  0  0  0  0  0  0  0  0  0  0
  -30.6876  -23.5293   17.8800 N   0  0  0  0  0  0  0  0  0  0  0  0
  -26.9181  -16.4201   17.4004 N   0  0  0  0  0  0  0  0  0  0  0  0
  -25.0027  -28.8559   24.7233 N   0  0  0  0  0  0  0  0  0  0  0  0
  -28.3296  -18.9818   14.9450 N   0  0  0  0  0  0  0  0  0  0  0  0
  -24.8101  -16.9549   18.3389 N   0  0  0  0  0  0  0  0  0  0  0  0
  -26.2387  -13.5079   20.8830 N   0  0  0  0  0  0  0  0  0  0  0  0
  -29.2828  -20.6534   16.3086 N   0  0  0  0  0  0  0  0  0  0  0  0
  -21.8925  -27.6215   23.2744 N   0  0  0  0  0  0  0  0  0  0  0  0
  -26.7003  -30.7213   26.9809 N   0  0  0  0  0  0  0  0  0  0  0  0
  -29.7167  -29.2231   28.2940 N   0  3  0  0  0  0  0  0  0  0  0  0
  -24.5184  -14.9865   20.5472 O   0  0  0  0  0  0  0  0  0  0  0  0
  -23.2463  -29.4928   22.9783 O   0  0  0  0  0  0  0  0  0  0  0  0
  -24.0324  -29.7286   26.6554 O   0  0  0  0  0  0  0  0  0  0  0  0
  -28.6863  -30.2442   25.8831 O   0  0  0  0  0  0  0  0  0  0  0  0
  -28.7227  -21.0980   14.1017 O   0  0  0  0  0  0  0  0  0  0  0  0
  -31.0548  -10.7668   20.3108 O   0  0  0  0  0  0  0  0  0  0  0  0
  -28.4529  -26.6204   20.1242 O   0  0  0  0  0  0  0  0  0  1  0  0
  -28.8478   -5.8405   21.4355 F   0  0  0  0  0  0  0  0  0  0  0  0
  -31.8681   -8.5037   18.9473 F   0  0  0  0  0  0  0  0  0  0  0  0
  -30.4328  -26.3817   18.1605 F   0  0  0  0  0  0  0  0  0  0  0  0
  -32.5709  -26.8157   19.7467 F   0  0  0  0  0  0  0  0  0  0  0  0
  -30.7557  -27.6643   20.5909 F   0  0  0  0  0  0  0  0  0  0  0  0
  -31.5992  -25.8402   21.4384 F   0  0  0  0  0  0  0  0  0  0  0  0
  1  2  1  0  0  0  0
  1  5  2  0  0  0  0
  2  6  2  0  0  0  0
  3  8  2  0  0  0  0
  3 17  1  0  0  0  0
  4  9  1  0  0  0  0
  4 17  2  0  0  0  0
  5 19  1  0  0  0  0
  6 21  1  0  0  0  0
  7 10  2  0  0  0  0
  7 20  1  0  0  0  0
  8 24  1  0  0  0  0
  9 24  2  0  0  0  0
 10 25  1  0  0  0  0
 11 12  2  0  0  0  0
 11 26  1  0  0  0  0
 12 27  1  0  0  0  0
 13 22  1  0  0  0  0
 13 25  2  0  0  0  0
 14 27  2  0  0  0  0
 14 28  1  0  0  0  0
 15 23  1  0  0  0  0
 15 60  2  0  0  0  0
 16 23  2  0  0  0  0
 16 62  1  0  0  0  0
 17 29  1  0  0  0  0
 18 29  1  0  0  0  0
 18 30  2  0  0  0  0
 18 31  1  0  0  0  0
 19 21  2  0  0  0  0
 19 36  1  0  0  0  0
 20 22  2  0  0  0  0
 20 37  1  0  0  0  0
 21 45  1  0  0  0  0
 22 38  1  0  0  0  0
 23 68  1  0  0  0  0
 24 77  1  0  0  0  0
 25 78  1  0  0  0  0
 26 28  2  0  0  0  0
 26 77  1  0  0  0  0
 27 79  1  0  0  0  0
 28 80  1  0  0  0  0
 29 61  2  0  0  0  0
 30 63  1  0  0  0  0
 30 66  1  0  0  0  0
 31 67  1  0  0  0  0
 31 72  2  0  0  0  0
 32 46  1  0  0  0  0
 32 69  1  0  0  0  0
 32 73  2  0  0  0  0
 33 55  1  0  0  0  0
 33 64  1  0  0  0  0
 33 74  2  0  0  0  0
 34 56  1  0  0  0  0
 34 70  1  0  0  0  0
 34 75  2  0  0  0  0
 35 65  1  0  0  0  0
 35 68  1  0  0  0  0
 35 76  2  0  0  0  0
 36 39  1  0  0  0  0
 37 46  1  0  0  0  0
 38 64  1  0  0  0  0
 39 41  1  0  0  0  0
 40 42  1  0  0  0  0
 40 43  1  0  0  0  0
 41 45  1  0  0  0  0
 42 47  1  0  0  0  0
 43 65  1  0  0  0  0
 44 47  1  0  0  0  0
 44 65  1  0  0  0  0
 45 69  1  0  0  0  0
 46 64  1  0  0  0  0
 47 63  1  0  0  0  0
 48 56  1  0  0  0  0
 49 57  1  0  0  0  0
 50 57  1  0  0  0  0
 51 57  1  0  0  0  0
 52 71  1  0  0  0  0
 53 58  1  0  0  0  0
 53 62  1  0  0  0  0
 54 58  1  0  0  0  0
 54 78  1  0  0  0  0
 55 57  1  0  0  0  0
 55 70  1  0  0  0  0
 56 71  1  0  0  0  0
 58 59  1  0  0  0  0
 58 81  1  0  0  0  0
 59 82  1  0  0  0  0
 59 83  1  0  0  0  0
 59 84  1  0  0  0  0
 60 62  1  0  0  0  0
 61 63  1  0  0  0  0
M  CHG  1  71   1
M  ISO  4  35 100  54 101  68 100  78 101
M  END
> <Batch ID>
0184

> <Smiles>
CNC(C)C(=O)NC(C(=O)N1Cc2cc([101O:1][101CH2:1]C(F)(Cn3cc([100NH:0][100C:0](=O)N4CCCC(n5nc(-c6ccc(Oc7ccc(F)cc7F)cc6)c(C(N)=O)c5N)C4)cn3)C(F)(F)F)ccc2CC1C(=O)NC1CCCc2ccccc21)C(C)(C)C

> <Shape>
0.228

> <Color>
0.076

> <Negative vol penalty>
0.000

$$$$

  -OEChem-04052305023D

 82 90  0     1  0  0  0  0  0999 V2000
  -24.8918  -31.8914   22.9435 C   0  0  0  0  0  0  0  0  0  0  0  0
  -24.7167  -31.2671   21.7127 C   0  0  0  0  0  0  0  0  0  0  0  0
  -23.1622   -9.9829   19.8249 C   0  0  0  0  0  0  0  0  0  0  0  0
  -23.6980   -9.7364   22.1678 C   0  0  0  0  0  0  0  0  0  0  0  0
  -26.0336  -31.6305   23.7000 C   0  0  0  0  0  0  0  0  0  0  0  0
  -25.6838  -30.3823   21.2371 C   0  0  0  0  0  0  0  0  0  0  0  0
  -24.7329  -25.3312   17.9072 C   0  0  0  0  0  0  0  0  0  0  0  0
  -22.3808   -8.8288   19.8821 C   0  0  0  0  0  0  0  0  0  0  0  0
  -22.9167   -8.5823   22.2250 C   0  0  0  0  0  0  0  0  0  0  0  0
  -24.8203  -25.0797   16.5386 C   0  0  0  0  0  0  0  0  0  0  0  0
  -21.3542   -5.3714   22.9021 C   0  0  0  0  0  0  0  0  0  0  0  0
  -21.8809   -4.2641   23.5671 C   0  0  0  0  0  0  0  0  0  0  0  0
  -27.0605  -24.2380   16.8426 C   0  0  0  0  0  0  0  0  0  0  0  0
  -23.7380   -4.2198   22.0223 C   0  0  0  0  0  0  0  0  0  0  0  0
  -26.2431  -19.2172   16.2764 C   0  0  0  0  0  0  0  0  0  0  0  0
  -23.8208  -10.4366   20.9677 C   0  0  0  0  0  0  0  0  0  0  0  0
  -24.2097  -12.9516   21.1443 C   0  0  0  0  0  0  0  0  0  0  0  0
  -27.0105  -30.7346   23.2379 C   0  0  0  0  0  0  0  0  0  0  0  0
  -25.8144  -25.0477   18.7535 C   0  0  0  0  0  0  0  0  0  0  0  0
  -26.8403  -30.1101   21.9875 C   0  0  0  0  0  0  0  0  0  0  0  0
  -26.9833  -24.4845   18.2219 C   0  0  0  0  0  0  0  0  0  0  0  0
  -22.2581   -8.1285   21.0822 C   0  0  0  0  0  0  0  0  0  0  0  0
  -25.9853  -24.5357   16.0057 C   0  0  0  0  0  0  0  0  0  0  0  0
  -22.0193   -5.9028   21.7971 C   0  0  0  0  0  0  0  0  0  0  0  0
  -23.0728   -3.6884   23.1272 C   0  0  0  0  0  0  0  0  0  0  0  0
  -23.2112   -5.3270   21.3573 C   0  0  0  0  0  0  0  0  0  0  0  0
  -24.6285  -11.6284   20.9090 C   0  0  0  0  0  0  0  0  0  0  0  0
  -27.4175  -19.8004   15.8489 C   0  0  0  0  0  0  0  0  0  0  0  0
  -25.3426  -13.7073   20.9655 C   0  0  0  0  0  0  0  0  0  0  0  0
  -28.2495  -17.9414   16.6627 C   0  0  0  0  0  0  0  0  0  0  0  0
  -29.2450  -16.9248   17.0464 C   0  0  0  0  0  0  0  0  0  0  0  0
  -22.9125  -13.4529   21.4932 C   0  0  0  0  0  0  0  0  0  0  0  0
  -27.6962  -26.7760   20.6445 C   0  0  0  0  0  0  0  0  0  0  0  0
  -28.8477  -23.8677   21.5040 C   0  0  0  0  0  0  0  0  0  0  0  0
  -29.3181  -20.5847   20.6995 C   0  0  0  0  0  0  0  0  0  0  0  0
  -26.4206  -21.9206   14.9270 C   0  0  0  0  0  0  0  0  0  0  0  0
  -29.8901  -14.9164   17.9638 C   0  0  0  0  0  0  0  0  0  0  0  0
  -28.2505  -30.5204   24.0693 C   0  0  0  0  0  0  0  0  0  0  0  0
  -25.6945  -25.3000   20.2314 C   0  0  0  0  0  0  0  0  0  0  0  0
  -28.1653  -24.1431   19.0907 C   0  0  0  0  0  0  0  0  0  0  0  0
  -29.0487  -29.2835   23.6652 C   0  0  0  0  0  0  0  0  0  0  0  0
  -30.1815  -12.3440   20.4743 C   0  0  0  0  0  0  0  0  0  0  0  0
  -29.2151  -29.2272   22.1500 C   0  0  0  0  0  0  0  0  0  0  0  0
  -28.7257  -12.0139   20.8035 C   0  0  0  0  0  0  0  0  0  0  0  0
  -30.3563  -12.6955   19.0000 C   0  0  0  0  0  0  0  0  0  0  0  0
  -28.0060  -13.4738   18.8618 C   0  0  0  0  0  0  0  0  0  0  0  0
  -27.8551  -29.1251   21.4490 C   0  0  1  0  0  0  0  0  0  0  0  0
  -27.0457  -25.4506   20.9235 C   0  0  1  0  0  0  0  0  0  0  0  0
  -27.7858  -13.1445   20.3481 C   0  0  1  0  0  0  0  0  0  0  0  0
  -30.3240  -18.4638   21.5866 C   0  0  0  0  0  0  0  0  0  0  0  0
  -26.8861  -23.0970   12.7456 C   0  0  0  0  0  0  0  0  0  0  0  0
  -31.6351  -24.9124   20.8340 C   0  0  0  0  0  0  0  0  0  0  0  0
  -32.4431  -22.5428   20.8169 C   0  0  0  0  0  0  0  0  0  0  0  0
  -31.5121  -23.5262   22.9119 C   0  0  0  0  0  0  0  0  0  0  0  0
  -26.7042  -19.1970   20.6728 C   0  0  0  0  0  0  0  0  0  0  0  0
  -29.9495  -22.9642   21.0054 C   0  0  1  0  0  0  0  0  0  0  0  0
  -29.0643  -19.3093   21.4827 C   0  0  2  0  0  0  0  0  0  0  0  0
  -26.9076  -23.2059   14.2630 C   0  0  1  0  0  0  0  0  0  1  0  0
  -31.3636  -23.4945   21.3751 C   0  0  0  0  0  0  0  0  0  0  0  0
  -25.9262  -11.5448   20.6039 N   0  0  0  0  0  0  0  0  0  0  0  0
  -28.5691  -19.0704   16.0700 N   0  0  0  0  0  0  0  0  0  0  0  0
  -28.9025  -15.8240   17.6315 N   0  0  0  0  0  0  0  0  0  0  0  0
  -26.3325  -12.8251   20.6462 N   0  0  0  0  0  0  0  0  0  0  0  0
  -28.0017  -24.4141   20.5285 N   0  0  0  0  0  0  0  0  0  0  0  0
  -29.4242  -13.7492   18.5963 N   0  0  0  0  0  0  0  0  0  0  0  0
  -25.5786  -15.0337   21.0518 N   0  0  0  0  0  0  0  0  0  0  0  0
  -21.8596  -12.5391   21.6371 N   0  0  0  0  0  0  0  0  0  0  0  0
  -27.4789  -21.0667   15.2200 N   0  0  0  0  0  0  0  0  0  0  0  0
  -27.3434  -27.7739   21.5328 N   0  0  0  0  0  0  0  0  0  0  0  0
  -29.6547  -21.6344   21.5279 N   0  0  0  0  0  0  0  0  0  0  0  0
  -28.0058  -18.4963   20.8197 N   0  3  0  0  0  0  0  0  0  0  0  0
  -22.6900  -14.6766   21.6561 O   0  0  0  0  0  0  0  0  0  0  0  0
  -28.4626  -26.8847   19.6945 O   0  0  0  0  0  0  0  0  0  0  0  0
  -28.7371  -24.0752   22.7149 O   0  0  0  0  0  0  0  0  0  0  0  0
  -29.2304  -20.6430   19.4750 O   0  0  0  0  0  0  0  0  0  0  0  0
  -25.2294  -21.7362   15.1595 O   0  0  0  0  0  0  0  0  0  0  0  0
  -31.0888  -15.0887   17.7306 O   0  0  0  0  0  0  0  0  0  0  0  0
  -21.4955   -7.0025   21.1385 O   0  0  0  0  0  0  0  0  0  0  0  0
  -26.0735  -24.2898   14.6702 O   0  0  0  0  0  0  0  0  0  1  0  0
  -23.5793   -2.6260   23.7669 F   0  0  0  0  0  0  0  0  0  0  0  0
  -23.8554   -5.8338   20.2971 F   0  0  0  0  0  0  0  0  0  0  0  0
  -26.5822  -17.6920   16.9836 S   0  0  0  0  0  0  0  0  0  0  0  0
  1  2  1  0  0  0  0
  1  5  2  0  0  0  0
  2  6  2  0  0  0  0
  3  8  2  0  0  0  0
  3 16  1  0  0  0  0
  4  9  1  0  0  0  0
  4 16  2  0  0  0  0
  5 18  1  0  0  0  0
  6 20  1  0  0  0  0
  7 10  2  0  0  0  0
  7 19  1  0  0  0  0
  8 22  1  0  0  0  0
  9 22  2  0  0  0  0
 10 23  1  0  0  0  0
 11 12  2  0  0  0  0
 11 24  1  0  0  0  0
 12 25  1  0  0  0  0
 13 21  1  0  0  0  0
 13 23  2  0  0  0  0
 14 25  2  0  0  0  0
 14 26  1  0  0  0  0
 15 28  2  0  0  0  0
 15 82  1  0  0  0  0
 16 27  1  0  0  0  0
 17 27  1  0  0  0  0
 17 29  2  0  0  0  0
 17 32  1  0  0  0  0
 18 20  2  0  0  0  0
 18 38  1  0  0  0  0
 19 21  2  0  0  0  0
 19 39  1  0  0  0  0
 20 47  1  0  0  0  0
 21 40  1  0  0  0  0
 22 78  1  0  0  0  0
 23 79  1  0  0  0  0
 24 26  2  0  0  0  0
 24 78  1  0  0  0  0
 25 80  1  0  0  0  0
 26 81  1  0  0  0  0
 27 60  2  0  0  0  0
 28 61  1  0  0  0  0
 28 68  1  0  0  0  0
 29 63  1  0  0  0  0
 29 66  1  0  0  0  0
 30 31  1  0  0  0  0
 30 61  2  0  0  0  0
 30 82  1  0  0  0  0
 31 62  2  0  0  0  0
 32 67  1  0  0  0  0
 32 72  2  0  0  0  0
 33 48  1  0  0  0  0
 33 69  1  0  0  0  0
 33 73  2  0  0  0  0
 34 56  1  0  0  0  0
 34 64  1  0  0  0  0
 34 74  2  0  0  0  0
 35 57  1  0  0  0  0
 35 70  1  0  0  0  0
 35 75  2  0  0  0  0
 36 58  1  0  0  0  0
 36 68  1  0  0  0  0
 36 76  2  0  0  0  0
 37 62  1  0  0  0  0
 37 65  1  0  0  0  0
 37 77  2  0  0  0  0
 38 41  1  0  0  0  0
 39 48  1  0  0  0  0
 40 64  1  0  0  0  0
 41 43  1  0  0  0  0
 42 44  1  0  0  0  0
 42 45  1  0  0  0  0
 43 47  1  0  0  0  0
 44 49  1  0  0  0  0
 45 65  1  0  0  0  0
 46 49  1  0  0  0  0
 46 65  1  0  0  0  0
 47 69  1  0  0  0  0
 48 64  1  0  0  0  0
 49 63  1  0  0  0  0
 50 57  1  0  0  0  0
 51 58  1  0  0  0  0
 52 59  1  0  0  0  0
 53 59  1  0  0  0  0
 54 59  1  0  0  0  0
 55 71  1  0  0  0  0
 56 59  1  0  0  0  0
 56 70  1  0  0  0  0
 57 71  1  0  0  0  0
 58 79  1  0  0  0  0
 60 63  1  0  0  0  0
M  CHG  1  71   1
M  ISO  4  37 100  58 101  62 100  79 101
M  END
> <Batch ID>
0184

> <Smiles>
CNC(C)C(=O)NC(C(=O)N1Cc2cc([101O:1][101CH:1](C)C(=O)Nc3csc(C=[100N:0][100C:0](=O)N4CCCC(n5nc(-c6ccc(Oc7ccc(F)cc7F)cc6)c(C(N)=O)c5N)C4)n3)ccc2CC1C(=O)NC1CCCc2ccccc21)C(C)(C)C

> <Shape>
0.273

> <Color>
0.180

> <Negative vol penalty>
0.000

$$$$

  -OEChem-04052305023D

 82 90  0     1  0  0  0  0  0999 V2000
  -25.5870  -11.4821   20.6402 C   0  0  0  0  0  0  0  0  0  0  0  0
  -26.1594  -12.4438   21.4652 C   0  0  0  0  0  0  0  0  0  0  0  0
  -26.0664  -27.5758   18.9068 C   0  0  0  0  0  0  0  0  0  0  0  0
  -26.1971  -26.9521   21.2372 C   0  0  0  0  0  0  0  0  0  0  0  0
  -24.4880  -11.8120   19.8500 C   0  0  0  0  0  0  0  0  0  0  0  0
  -25.6256  -13.7322   21.5093 C   0  0  0  0  0  0  0  0  0  0  0  0
  -27.4772  -16.8046   24.8760 C   0  0  0  0  0  0  0  0  0  0  0  0
  -25.4943  -28.7963   19.2655 C   0  0  0  0  0  0  0  0  0  0  0  0
  -25.6251  -28.1727   21.5960 C   0  0  0  0  0  0  0  0  0  0  0  0
  -28.7523  -17.3585   24.7706 C   0  0  0  0  0  0  0  0  0  0  0  0
  -26.6213  -31.3839   21.9374 C   0  0  0  0  0  0  0  0  0  0  0  0
  -27.1997  -32.0824   22.9971 C   0  0  0  0  0  0  0  0  0  0  0  0
  -27.7783  -19.4531   24.0755 C   0  0  0  0  0  0  0  0  0  0  0  0
  -25.1123  -31.9727   24.2087 C   0  0  0  0  0  0  0  0  0  0  0  0
  -29.8740  -15.3375   20.6907 C   0  0  0  0  0  0  0  0  0  0  0  0
  -26.4177  -26.6537   19.8927 C   0  0  0  0  0  0  0  0  0  0  0  0
  -30.1745  -17.6145   21.0475 C   0  0  0  0  0  0  0  0  0  0  0  0
  -28.3783  -25.1075   19.3698 C   0  0  0  0  0  0  0  0  0  0  0  0
  -23.9488  -13.1088   19.8757 C   0  0  0  0  0  0  0  0  0  0  0  0
  -26.3417  -17.5689   24.5709 C   0  0  0  0  0  0  0  0  0  0  0  0
  -24.5018  -14.0780   20.7371 C   0  0  0  0  0  0  0  0  0  0  0  0
  -26.4898  -18.9074   24.1803 C   0  0  0  0  0  0  0  0  0  0  0  0
  -25.2737  -29.0948   20.6101 C   0  0  0  0  0  0  0  0  0  0  0  0
  -28.9032  -18.6821   24.3676 C   0  0  0  0  0  0  0  0  0  0  0  0
  -25.2883  -30.9798   22.0132 C   0  0  0  0  0  0  0  0  0  0  0  0
  -26.4452  -32.3767   24.1328 C   0  0  0  0  0  0  0  0  0  0  0  0
  -24.5338  -31.2742   23.1488 C   0  0  0  0  0  0  0  0  0  0  0  0
  -30.7332  -16.3083   21.1564 C   0  0  0  0  0  0  0  0  0  0  0  0
  -27.0082  -25.3925   19.5227 C   0  0  0  0  0  0  0  0  0  0  0  0
  -28.4156  -23.7815   19.0137 C   0  0  0  0  0  0  0  0  0  0  0  0
  -28.9095  -17.5923   20.5024 C   0  0  0  0  0  0  0  0  0  0  0  0
  -30.8560  -18.8752   21.4663 C   0  0  0  0  0  0  0  0  0  0  0  0
  -29.5156  -25.9648   19.5349 C   0  0  0  0  0  0  0  0  0  0  0  0
  -24.0116  -17.3636   22.4187 C   0  0  0  0  0  0  0  0  0  0  0  0
  -22.7898  -19.8702   24.0758 C   0  0  0  0  0  0  0  0  0  0  0  0
  -23.3513  -22.5242   26.1466 C   0  0  0  0  0  0  0  0  0  0  0  0
  -26.7235  -18.5160   19.6570 C   0  0  0  0  0  0  0  0  0  0  0  0
  -22.7537  -13.4093   19.0057 C   0  0  0  0  0  0  0  0  0  0  0  0
  -24.9719  -16.9646   24.7153 C   0  0  0  0  0  0  0  0  0  0  0  0
  -25.3018  -19.7764   23.8609 C   0  0  0  0  0  0  0  0  0  0  0  0
  -22.5384  -14.9033   18.7869 C   0  0  0  0  0  0  0  0  0  0  0  0
  -24.6976  -20.6349   17.6364 C   0  0  0  0  0  0  0  0  0  0  0  0
  -22.5789  -15.6351   20.1201 C   0  0  0  0  0  0  0  0  0  0  0  0
  -25.2308  -22.0381   17.9344 C   0  0  0  0  0  0  0  0  0  0  0  0
  -24.7100  -19.7475   18.8798 C   0  0  0  0  0  0  0  0  0  0  0  0
  -26.5351  -21.0721   19.8716 C   0  0  0  0  0  0  0  0  0  0  0  0
  -23.9572  -15.4943   20.7786 C   0  0  1  0  0  0  0  0  0  0  0  0
  -23.9122  -17.6810   23.8840 C   0  0  1  0  0  0  0  0  0  0  0  0
  -26.6027  -21.9827   18.6347 C   0  0  2  0  0  0  0  0  0  0  0  0
  -22.1623  -24.4104   27.2981 C   0  0  0  0  0  0  0  0  0  0  0  0
  -32.2275  -18.3484   25.0650 C   0  0  0  0  0  0  0  0  0  0  0  0
  -22.6206  -21.3769   21.4279 C   0  0  0  0  0  0  0  0  0  0  0  0
  -22.3486  -23.4970   22.7316 C   0  0  0  0  0  0  0  0  0  0  0  0
  -20.6460  -21.6848   22.9314 C   0  0  0  0  0  0  0  0  0  0  0  0
  -24.1269  -21.5318   28.8247 C   0  0  0  0  0  0  0  0  0  0  0  0
  -31.8519  -18.8196   22.6191 C   0  0  0  0  0  0  0  0  0  0  0  0
  -22.9194  -21.3720   23.9924 C   0  0  1  0  0  0  0  0  0  0  0  0
  -22.6536  -22.9760   27.4168 C   0  0  2  0  0  0  0  0  0  0  0  0
  -31.2152  -18.3411   23.9268 C   0  0  2  0  0  0  0  0  0  1  0  0
  -22.1563  -21.9660   22.7749 C   0  0  0  0  0  0  0  0  0  0  0  0
  -26.2312  -24.3327   19.2832 N   0  0  0  0  0  0  0  0  0  0  0  0
  -27.1161  -23.3690   18.9761 N   0  0  0  0  0  0  0  0  0  0  0  0
  -23.9837  -19.1380   24.0110 N   0  0  0  0  0  0  0  0  0  0  0  0
  -26.0425  -19.7400   19.4873 N   0  0  0  0  0  0  0  0  0  0  0  0
  -29.4328  -22.9399   18.7321 N   0  0  0  0  0  0  0  0  0  0  0  0
  -29.2983  -27.2995   19.9035 N   0  0  0  0  0  0  0  0  0  0  0  0
  -27.9958  -18.6365   20.2150 N   0  0  0  0  0  0  0  0  0  0  0  0
  -23.8928  -16.0185   22.1250 N   0  0  0  0  0  0  0  0  0  0  0  0
  -22.4817  -21.8918   25.2834 N   0  0  0  0  0  0  0  0  0  0  0  0
  -23.5850  -22.8927   28.5771 N   0  3  0  0  0  0  0  0  0  0  0  0
  -30.5969  -19.9204   20.8744 O   0  0  0  0  0  0  0  0  0  0  0  0
  -30.6888  -25.5636   19.3447 O   0  0  0  0  0  0  0  0  0  0  0  0
  -24.1819  -18.2719   21.6139 O   0  0  0  0  0  0  0  0  0  0  0  0
  -21.6711  -19.3658   24.2012 O   0  0  0  0  0  0  0  0  0  0  0  0
  -24.5473  -22.7166   25.9391 O   0  0  0  0  0  0  0  0  0  0  0  0
  -26.2264  -17.4427   19.3061 O   0  0  0  0  0  0  0  0  0  0  0  0
  -24.7158  -30.2858   20.9605 O   0  0  0  0  0  0  0  0  0  0  0  0
  -30.1466  -19.2250   24.2633 O   0  0  0  0  0  0  0  0  0  1  0  0
  -27.0012  -33.0461   25.1511 F   0  0  0  0  0  0  0  0  0  0  0  0
  -23.2532  -30.8876   23.2279 F   0  0  0  0  0  0  0  0  0  0  0  0
  -31.9459  -16.0504   21.6505 F   0  0  0  0  0  0  0  0  0  0  0  0
  -28.4004  -16.0015   20.1250 S   0  0  0  0  0  0  0  0  0  0  0  0
  1  2  1  0  0  0  0
  1  5  2  0  0  0  0
  2  6  2  0  0  0  0
  3  8  2  0  0  0  0
  3 16  1  0  0  0  0
  4  9  1  0  0  0  0
  4 16  2  0  0  0  0
  5 19  1  0  0  0  0
  6 21  1  0  0  0  0
  7 10  2  0  0  0  0
  7 20  1  0  0  0  0
  8 23  1  0  0  0  0
  9 23  2  0  0  0  0
 10 24  1  0  0  0  0
 11 12  2  0  0  0  0
 11 25  1  0  0  0  0
 12 26  1  0  0  0  0
 13 22  1  0  0  0  0
 13 24  2  0  0  0  0
 14 26  2  0  0  0  0
 14 27  1  0  0  0  0
 15 28  2  0  0  0  0
 15 82  1  0  0  0  0
 16 29  1  0  0  0  0
 17 28  1  0  0  0  0
 17 31  2  0  0  0  0
 17 32  1  0  0  0  0
 18 29  1  0  0  0  0
 18 30  2  0  0  0  0
 18 33  1  0  0  0  0
 19 21  2  0  0  0  0
 19 38  1  0  0  0  0
 20 22  2  0  0  0  0
 20 39  1  0  0  0  0
 21 47  1  0  0  0  0
 22 40  1  0  0  0  0
 23 77  1  0  0  0  0
 24 78  1  0  0  0  0
 25 27  2  0  0  0  0
 25 77  1  0  0  0  0
 26 79  1  0  0  0  0
 27 80  1  0  0  0  0
 28 81  1  0  0  0  0
 29 61  2  0  0  0  0
 30 62  1  0  0  0  0
 30 65  1  0  0  0  0
 31 67  1  0  0  0  0
 31 82  1  0  0  0  0
 32 56  1  0  0  0  0
 32 71  2  0  0  0  0
 33 66  1  0  0  0  0
 33 72  2  0  0  0  0
 34 48  1  0  0  0  0
 34 68  1  0  0  0  0
 34 73  2  0  0  0  0
 35 57  1  0  0  0  0
 35 63  1  0  0  0  0
 35 74  2  0  0  0  0
 36 58  1  0  0  0  0
 36 69  1  0  0  0  0
 36 75  2  0  0  0  0
 37 64  1  0  0  0  0
 37 67  1  0  0  0  0
 37 76  2  0  0  0  0
 38 41  1  0  0  0  0
 39 48  1  0  0  0  0
 40 63  1  0  0  0  0
 41 43  1  0  0  0  0
 42 44  1  0  0  0  0
 42 45  1  0  0  0  0
 43 47  1  0  0  0  0
 44 49  1  0  0  0  0
 45 64  1  0  0  0  0
 46 49  1  0  0  0  0
 46 64  1  0  0  0  0
 47 68  1  0  0  0  0
 48 63  1  0  0  0  0
 49 62  1  0  0  0  0
 50 58  1  0  0  0  0
 51 59  1  0  0  0  0
 52 60  1  0  0  0  0
 53 60  1  0  0  0  0
 54 60  1  0  0  0  0
 55 70  1  0  0  0  0
 56 59  1  0  0  0  0
 57 60  1  0  0  0  0
 57 69  1  0  0  0  0
 58 70  1  0  0  0  0
 59 78  1  0  0  0  0
 61 62  1  0  0  0  0
M  CHG  1  70   1
M  ISO  4  37 100  59 101  67 100  78 101
M  END
> <Batch ID>
0184

> <Smiles>
CNC(C)C(=O)NC(C(=O)N1Cc2cc([101O:1][101CH:1](C)CC(=O)c3c(F)csc3[100NH:0][100C:0](=O)N3CCCC(n4nc(-c5ccc(Oc6ccc(F)cc6F)cc5)c(C(N)=O)c4N)C3)ccc2CC1C(=O)NC1CCCc2ccccc21)C(C)(C)C

> <Shape>
0.191

> <Color>
0.070

> <Negative vol penalty>
0.000

$$$$
