
  -OEChem-04052305053D

 86 94  0     1  0  0  0  0  0999 V2000
  -18.1670  -32.7483   20.8168 C   0  0  0  0  0  0  0  0  0  0  0  0
  -19.3976  -32.4264   20.2533 C   0  0  0  0  0  0  0  0  0  0  0  0
  -25.8479  -12.3437   19.9197 C   0  0  0  0  0  0  0  0  0  0  0  0
  -24.6077  -13.8860   21.3054 C   0  0  0  0  0  0  0  0  0  0  0  0
  -17.8970  -32.4056   22.1410 C   0  0  0  0  0  0  0  0  0  0  0  0
  -20.3593  -31.7626   21.0141 C   0  0  0  0  0  0  0  0  0  0  0  0
  -24.3921  -27.6012   19.0329 C   0  0  0  0  0  0  0  0  0  0  0  0
  -25.2948  -11.2709   20.6186 C   0  0  0  0  0  0  0  0  0  0  0  0
  -24.0545  -12.8131   22.0044 C   0  0  0  0  0  0  0  0  0  0  0  0
  -25.7361  -27.6941   18.6741 C   0  0  0  0  0  0  0  0  0  0  0  0
  -23.9321   -8.1152   21.8019 C   0  0  0  0  0  0  0  0  0  0  0  0
  -23.4600   -7.0323   21.0603 C   0  0  0  0  0  0  0  0  0  0  0  0
  -26.3706  -26.9867   20.8914 C   0  0  0  0  0  0  0  0  0  0  0  0
  -21.8993   -8.4880   19.9280 C   0  0  0  0  0  0  0  0  0  0  0  0
  -25.5044  -13.6513   20.2631 C   0  0  0  0  0  0  0  0  0  0  0  0
  -25.5592  -15.3809   18.3888 C   0  0  0  0  0  0  0  0  0  0  0  0
  -18.8523  -31.7287   22.9155 C   0  0  0  0  0  0  0  0  0  0  0  0
  -24.0268  -27.2102   20.3291 C   0  0  0  0  0  0  0  0  0  0  0  0
  -20.1023  -31.4117   22.3503 C   0  0  0  0  0  0  0  0  0  0  0  0
  -25.0212  -26.8872   21.2633 C   0  0  0  0  0  0  0  0  0  0  0  0
  -27.3270  -22.8926   17.8918 C   0  0  0  0  0  0  0  0  0  0  0  0
  -24.3981  -11.5055   21.6610 C   0  0  0  0  0  0  0  0  0  0  0  0
  -26.7257  -27.3897   19.6043 C   0  0  0  0  0  0  0  0  0  0  0  0
  -23.3877   -9.3846   21.6066 C   0  0  0  0  0  0  0  0  0  0  0  0
  -22.4436   -7.2187   20.1233 C   0  0  0  0  0  0  0  0  0  0  0  0
  -22.3713   -9.5710   20.6697 C   0  0  0  0  0  0  0  0  0  0  0  0
  -26.0758  -14.7601   19.5418 C   0  0  0  0  0  0  0  0  0  0  0  0
  -28.4997  -22.4016   18.4964 C   0  0  0  0  0  0  0  0  0  0  0  0
  -26.4646  -16.3719   18.0976 C   0  0  0  0  0  0  0  0  0  0  0  0
  -27.6533  -24.1660   17.4936 C   0  0  0  0  0  0  0  0  0  0  0  0
  -24.3675  -15.0882   17.6473 C   0  0  0  0  0  0  0  0  0  0  0  0
  -22.4446  -28.5783   22.7225 C   0  0  0  0  0  0  0  0  0  0  0  0
  -22.7546  -25.6509   24.0851 C   0  0  0  0  0  0  0  0  0  0  0  0
  -24.4705  -22.7065   24.2661 C   0  0  0  0  0  0  0  0  0  0  0  0
  -29.7665  -20.5693   19.6730 C   0  0  0  0  0  0  0  0  0  0  0  0
  -18.5324  -31.4211   24.3569 C   0  0  0  0  0  0  0  0  0  0  0  0
  -22.5722  -27.0891   20.6922 C   0  0  0  0  0  0  0  0  0  0  0  0
  -24.6813  -26.4429   22.6617 C   0  0  0  0  0  0  0  0  0  0  0  0
  -19.4653  -30.3860   24.9803 C   0  0  0  0  0  0  0  0  0  0  0  0
  -31.0787  -17.2731   19.9735 C   0  0  0  0  0  0  0  0  0  0  0  0
  -20.9188  -30.7093   24.6494 C   0  0  0  0  0  0  0  0  0  0  0  0
  -29.8516  -16.3766   19.7931 C   0  0  0  0  0  0  0  0  0  0  0  0
  -30.7408  -18.5490   20.7427 C   0  0  0  0  0  0  0  0  0  0  0  0
  -28.3890  -18.4251   20.0196 C   0  0  0  0  0  0  0  0  0  0  0  0
  -21.1619  -30.6699   23.1359 C   0  0  1  0  0  0  0  0  0  0  0  0
  -22.3221  -27.1769   22.1946 C   0  0  1  0  0  0  0  0  0  0  0  0
  -28.6659  -17.1580   19.1940 C   0  0  2  0  0  0  0  0  0  0  0  0
  -26.0351  -22.2028   17.7203 C   0  0  0  0  0  0  0  0  0  0  0  0
  -31.2464  -27.7931   15.8926 C   0  0  0  0  0  0  0  0  0  0  0  0
  -24.5102  -20.5223   25.5010 C   0  0  0  0  0  0  0  0  0  0  0  0
  -30.6907  -24.8126   15.3466 C   0  0  0  0  0  0  0  0  0  0  0  0
  -23.9732  -27.0466   26.5094 C   0  0  0  0  0  0  0  0  0  0  0  0
  -24.8420  -24.8234   27.2652 C   0  0  0  0  0  0  0  0  0  0  0  0
  -22.3839  -25.1959   27.0607 C   0  0  0  0  0  0  0  0  0  0  0  0
  -24.0309  -21.1606   21.7809 C   0  0  0  0  0  0  0  0  0  0  0  0
  -31.9477  -26.6150   16.5548 C   0  0  0  0  0  0  0  0  0  0  0  0
  -28.9463  -26.5966   19.9137 C   0  0  0  0  0  0  0  0  0  1  0  0
  -23.7841  -24.9854   24.9661 C   0  0  1  0  0  0  0  0  0  0  0  0
  -23.9976  -21.2641   24.2763 C   0  0  2  0  0  0  0  0  0  0  0  0
  -31.0432  -25.3727   16.7314 C   0  0  1  0  0  0  0  0  0  0  0  0
  -29.8043  -25.6077   17.6606 C   0  0  2  0  0  0  0  0  0  0  0  0
  -30.1521  -26.2795   19.0233 C   0  0  2  0  0  0  0  0  0  0  0  0
  -23.7526  -25.5230   26.4246 C   0  0  0  0  0  0  0  0  0  0  0  0
  -27.2206  -15.3104   19.9547 N   0  0  0  0  0  0  0  0  0  0  0  0
  -29.4965  -23.2905   18.4854 N   0  0  0  0  0  0  0  0  0  0  0  0
  -27.4309  -16.2874   19.0563 N   0  0  0  0  0  0  0  0  0  0  0  0
  -28.9511  -24.3528   17.8690 N   0  0  0  0  0  0  0  0  0  0  0  0
  -23.2451  -26.3461   22.9707 N   0  0  0  0  0  0  0  0  0  0  0  0
  -29.6113  -19.2384   20.1151 N   0  0  0  0  0  0  0  0  0  0  0  0
  -26.5204  -17.2986   17.1175 N   0  0  0  0  0  0  0  0  0  0  0  0
  -26.9518  -25.1307   16.8624 N   0  0  0  0  0  0  0  0  0  0  0  0
  -23.5500  -14.0369   18.0843 N   0  0  0  0  0  0  0  0  0  0  0  0
  -28.6351  -21.1098   19.0628 N   0  0  0  0  0  0  0  0  0  0  0  0
  -21.2681  -29.3017   22.6765 N   0  0  0  0  0  0  0  0  0  0  0  0
  -23.5510  -23.5497   24.8533 N   0  0  0  0  0  0  0  0  0  0  0  0
  -24.4804  -20.5520   23.0594 N   0  3  0  0  0  0  0  0  0  0  0  0
  -24.0459  -15.7288   16.6179 O   0  0  0  0  0  0  0  0  0  0  0  0
  -23.5260  -28.9736   23.1420 O   0  0  0  0  0  0  0  0  0  0  0  0
  -21.5588  -25.5515   24.3711 O   0  0  0  0  0  0  0  0  0  0  0  0
  -25.5495  -23.0504   23.7885 O   0  0  0  0  0  0  0  0  0  0  0  0
  -30.8337  -21.1751   19.8000 O   0  0  0  0  0  0  0  0  0  0  0  0
  -30.9965  -25.3778   19.7532 O   0  0  0  0  0  0  0  0  0  0  0  0
  -23.8580  -10.4588   22.3431 O   0  0  0  0  0  0  0  0  0  0  0  0
  -28.0383  -27.4801   19.2570 O   0  0  0  0  0  0  0  0  0  1  0  0
  -21.9915   -6.1789   19.4101 F   0  0  0  0  0  0  0  0  0  0  0  0
  -21.8452  -10.7883   20.4769 F   0  0  0  0  0  0  0  0  0  0  0  0
  1  2  1  0  0  0  0
  1  5  2  0  0  0  0
  2  6  2  0  0  0  0
  3  8  2  0  0  0  0
  3 15  1  0  0  0  0
  4  9  1  0  0  0  0
  4 15  2  0  0  0  0
  5 17  1  0  0  0  0
  6 19  1  0  0  0  0
  7 10  2  0  0  0  0
  7 18  1  0  0  0  0
  8 22  1  0  0  0  0
  9 22  2  0  0  0  0
 10 23  1  0  0  0  0
 11 12  2  0  0  0  0
 11 24  1  0  0  0  0
 12 25  1  0  0  0  0
 13 20  1  0  0  0  0
 13 23  2  0  0  0  0
 14 25  2  0  0  0  0
 14 26  1  0  0  0  0
 15 27  1  0  0  0  0
 16 27  1  0  0  0  0
 16 29  2  0  0  0  0
 16 31  1  0  0  0  0
 17 19  2  0  0  0  0
 17 36  1  0  0  0  0
 18 20  2  0  0  0  0
 18 37  1  0  0  0  0
 19 45  1  0  0  0  0
 20 38  1  0  0  0  0
 21 28  1  0  0  0  0
 21 30  2  0  0  0  0
 21 48  1  0  0  0  0
 22 83  1  0  0  0  0
 23 84  1  0  0  0  0
 24 26  2  0  0  0  0
 24 83  1  0  0  0  0
 25 85  1  0  0  0  0
 26 86  1  0  0  0  0
 27 64  2  0  0  0  0
 28 65  2  0  0  0  0
 28 73  1  0  0  0  0
 29 66  1  0  0  0  0
 29 70  1  0  0  0  0
 30 67  1  0  0  0  0
 30 71  1  0  0  0  0
 31 72  1  0  0  0  0
 31 77  2  0  0  0  0
 32 46  1  0  0  0  0
 32 74  1  0  0  0  0
 32 78  2  0  0  0  0
 33 58  1  0  0  0  0
 33 68  1  0  0  0  0
 33 79  2  0  0  0  0
 34 59  1  0  0  0  0
 34 75  1  0  0  0  0
 34 80  2  0  0  0  0
 35 69  1  0  0  0  0
 35 73  1  0  0  0  0
 35 81  2  0  0  0  0
 36 39  1  0  0  0  0
 37 46  1  0  0  0  0
 38 68  1  0  0  0  0
 39 41  1  0  0  0  0
 40 42  1  0  0  0  0
 40 43  1  0  0  0  0
 41 45  1  0  0  0  0
 42 47  1  0  0  0  0
 43 69  1  0  0  0  0
 44 47  1  0  0  0  0
 44 69  1  0  0  0  0
 45 74  1  0  0  0  0
 46 68  1  0  0  0  0
 47 66  1  0  0  0  0
 49 56  1  0  0  0  0
 50 59  1  0  0  0  0
 51 60  1  0  0  0  0
 52 63  1  0  0  0  0
 53 63  1  0  0  0  0
 54 63  1  0  0  0  0
 55 76  1  0  0  0  0
 56 60  1  0  0  0  0
 57 62  1  0  0  0  0
 57 84  1  0  0  0  0
 58 63  1  0  0  0  0
 58 75  1  0  0  0  0
 59 76  1  0  0  0  0
 60 61  1  0  0  0  0
 61 62  1  0  0  0  0
 61 67  1  0  0  0  0
 62 82  1  0  0  0  0
 64 66  1  0  0  0  0
 65 67  1  0  0  0  0
M  CHG  1  76   1
M  ISO  4  35 100  57 101  73 100  84 101
M  END
> <Batch ID>
0185

> <Smiles>
CCC(C)C(C(O)[101CH2:1][101O:1]c1ccc2c(c1)CN(C(=O)C(NC(=O)C(C)NC)C(C)(C)C)C(C(=O)NC1CCCc3ccccc31)C2)n1nc([100NH:0][100C:0](=O)N2CCCC(n3nc(-c4ccc(Oc5ccc(F)cc5F)cc4)c(C(N)=O)c3N)C2)c(C)c1N

> <Shape>
0.220

> <Color>
0.092

> <Negative vol penalty>
0.000

$$$$

  -OEChem-04052305053D

 82 90  0     1  0  0  0  0  0999 V2000
  -18.5020  -26.6170   19.4209 C   0  0  0  0  0  0  0  0  0  0  0  0
  -19.8648  -26.8298   19.2395 C   0  0  0  0  0  0  0  0  0  0  0  0
  -25.0440  -11.9474   21.6324 C   0  0  0  0  0  0  0  0  0  0  0  0
  -26.1242  -11.7692   19.4787 C   0  0  0  0  0  0  0  0  0  0  0  0
  -17.8680  -27.1019   20.5640 C   0  0  0  0  0  0  0  0  0  0  0  0
  -20.5942  -27.5286   20.2008 C   0  0  0  0  0  0  0  0  0  0  0  0
  -25.0147  -25.3063   21.2803 C   0  0  0  0  0  0  0  0  0  0  0  0
  -24.5007  -10.6736   21.4654 C   0  0  0  0  0  0  0  0  0  0  0  0
  -25.5809  -10.4954   19.3116 C   0  0  0  0  0  0  0  0  0  0  0  0
  -26.0560  -25.4849   20.3707 C   0  0  0  0  0  0  0  0  0  0  0  0
  -22.5369   -7.6131   21.4462 C   0  0  0  0  0  0  0  0  0  0  0  0
  -21.1912   -7.4333   21.7659 C   0  0  0  0  0  0  0  0  0  0  0  0
  -26.9927  -27.1972   21.7885 C   0  0  0  0  0  0  0  0  0  0  0  0
  -20.5776   -9.0826   20.1105 C   0  0  0  0  0  0  0  0  0  0  0  0
  -30.5266  -21.0428   19.8039 C   0  0  0  0  0  0  0  0  0  0  0  0
  -25.8557  -12.4952   20.6390 C   0  0  0  0  0  0  0  0  0  0  0  0
  -27.6514  -14.1384   21.4027 C   0  0  0  0  0  0  0  0  0  0  0  0
  -18.5919  -27.7986   21.5444 C   0  0  0  0  0  0  0  0  0  0  0  0
  -24.9484  -26.0807   22.4475 C   0  0  0  0  0  0  0  0  0  0  0  0
  -19.9690  -28.0245   21.3575 C   0  0  0  0  0  0  0  0  0  0  0  0
  -25.9508  -27.0246   22.7125 C   0  0  0  0  0  0  0  0  0  0  0  0
  -24.7692   -9.9476   20.3050 C   0  0  0  0  0  0  0  0  0  0  0  0
  -27.0437  -26.4325   20.6233 C   0  0  0  0  0  0  0  0  0  0  0  0
  -22.9030   -8.5277   20.4586 C   0  0  0  0  0  0  0  0  0  0  0  0
  -20.2115   -8.1680   21.0980 C   0  0  0  0  0  0  0  0  0  0  0  0
  -21.9233   -9.2624   19.7908 C   0  0  0  0  0  0  0  0  0  0  0  0
  -26.4167  -13.8112   20.8108 C   0  0  0  0  0  0  0  0  0  0  0  0
  -29.3368  -21.1743   19.1188 C   0  0  0  0  0  0  0  0  0  0  0  0
  -27.7186  -15.5079   21.3221 C   0  0  0  0  0  0  0  0  0  0  0  0
  -30.2782  -23.0591   18.5095 C   0  0  0  0  0  0  0  0  0  0  0  0
  -28.6484  -13.2810   21.9742 C   0  0  0  0  0  0  0  0  0  0  0  0
  -22.8774  -28.1815   23.6311 C   0  0  0  0  0  0  0  0  0  0  0  0
  -24.8288  -28.0595   26.2194 C   0  0  0  0  0  0  0  0  0  0  0  0
  -27.9319  -27.4048   27.4800 C   0  0  0  0  0  0  0  0  0  0  0  0
  -27.0763  -20.2580   18.4890 C   0  0  0  0  0  0  0  0  0  0  0  0
  -17.8536  -28.3449   22.7408 C   0  0  0  0  0  0  0  0  0  0  0  0
  -23.8332  -25.8571   23.4317 C   0  0  0  0  0  0  0  0  0  0  0  0
  -25.9366  -27.8672   23.9609 C   0  0  0  0  0  0  0  0  0  0  0  0
  -18.7724  -28.7501   23.8905 C   0  0  0  0  0  0  0  0  0  0  0  0
  -24.1861  -18.9114   20.0735 C   0  0  0  0  0  0  0  0  0  0  0  0
  -19.9479  -29.5715   23.3705 C   0  0  0  0  0  0  0  0  0  0  0  0
  -24.6103  -17.4914   20.4553 C   0  0  0  0  0  0  0  0  0  0  0  0
  -24.7801  -19.3397   18.7329 C   0  0  0  0  0  0  0  0  0  0  0  0
  -26.6614  -17.7728   19.0058 C   0  0  0  0  0  0  0  0  0  0  0  0
  -20.7992  -28.7564   22.3895 C   0  0  1  0  0  0  0  0  0  0  0  0
  -23.5852  -27.0598   24.3370 C   0  0  1  0  0  0  0  0  0  0  0  0
  -26.1403  -17.3209   20.3798 C   0  0  2  0  0  0  0  0  0  0  0  0
  -29.2324  -27.4327   29.6260 C   0  0  0  0  0  0  0  0  0  0  0  0
  -25.0273  -31.0999   26.0568 C   0  0  0  0  0  0  0  0  0  0  0  0
  -27.0248  -30.9803   27.5615 C   0  0  0  0  0  0  0  0  0  0  0  0
  -24.8028  -30.1917   28.3761 C   0  0  0  0  0  0  0  0  0  0  0  0
  -28.4555  -24.4955   27.3356 C   0  0  0  0  0  0  0  0  0  0  0  0
  -31.9312  -26.2823   19.7074 C   0  0  0  0  0  0  0  0  0  0  0  0
  -28.4629  -25.4722   18.9741 C   0  0  0  0  0  0  0  0  0  1  0  0
  -30.4952  -24.4010   17.8458 C   0  0  2  0  0  0  0  0  0  0  0  0
  -26.0576  -28.8129   26.6684 C   0  0  1  0  0  0  0  0  0  0  0  0
  -28.3799  -26.5965   28.6843 C   0  0  2  0  0  0  0  0  0  0  0  0
  -29.9500  -25.6044   18.6406 C   0  0  2  0  0  0  0  0  0  0  0  0
  -25.7276  -30.2569   27.1412 C   0  0  0  0  0  0  0  0  0  0  0  0
  -25.7477  -14.8863   20.3857 N   0  0  0  0  0  0  0  0  0  0  0  0
  -29.1925  -22.3301   18.3764 N   0  0  0  0  0  0  0  0  0  0  0  0
  -26.5649  -15.9024   20.7110 N   0  0  0  0  0  0  0  0  0  0  0  0
  -24.8221  -27.6159   24.8894 N   0  0  0  0  0  0  0  0  0  0  0  0
  -26.2329  -19.1543   18.7365 N   0  0  0  0  0  0  0  0  0  0  0  0
  -28.6514  -16.4011   21.7153 N   0  0  0  0  0  0  0  0  0  0  0  0
  -28.4198  -11.8983   21.9748 N   0  0  0  0  0  0  0  0  0  0  0  0
  -28.3039  -20.2048   19.1484 N   0  0  0  0  0  0  0  0  0  0  0  0
  -21.6484  -27.8295   23.1065 N   0  0  0  0  0  0  0  0  0  0  0  0
  -26.6968  -27.9831   27.6838 N   0  0  0  0  0  0  0  0  0  0  0  0
  -29.8741  -24.4344   16.4775 N   0  3  0  0  0  0  0  0  0  0  0  0
  -29.1799  -25.4173   28.2481 N   0  3  0  0  0  0  0  0  0  0  0  0
  -29.7031  -13.7291   22.4844 O   0  0  0  0  0  0  0  0  0  0  0  0
  -23.4064  -29.2851   23.5683 O   0  0  0  0  0  0  0  0  0  0  0  0
  -23.9118  -27.8654   27.0214 O   0  0  0  0  0  0  0  0  0  0  0  0
  -28.6113  -27.5155   26.4619 O   0  0  0  0  0  0  0  0  0  0  0  0
  -26.7239  -21.1953   17.7685 O   0  0  0  0  0  0  0  0  0  0  0  0
  -24.2395   -8.7045   20.1418 O   0  0  0  0  0  0  0  0  0  0  0  0
  -28.0609  -26.6093   19.7368 O   0  0  0  0  0  0  0  0  0  1  0  0
  -30.6638  -25.6739   19.8819 O   0  0  0  0  0  0  0  0  0  0  0  0
  -18.9191   -7.9942   21.4041 F   0  0  0  0  0  0  0  0  0  0  0  0
  -22.2688  -10.1417   18.8403 F   0  0  0  0  0  0  0  0  0  0  0  0
  -31.5129  -22.4152   19.5124 S   0  0  0  0  0  0  0  0  0  0  0  0
  1  2  1  0  0  0  0
  1  5  2  0  0  0  0
  2  6  2  0  0  0  0
  3  8  2  0  0  0  0
  3 16  1  0  0  0  0
  4  9  1  0  0  0  0
  4 16  2  0  0  0  0
  5 18  1  0  0  0  0
  6 20  1  0  0  0  0
  7 10  2  0  0  0  0
  7 19  1  0  0  0  0
  8 22  1  0  0  0  0
  9 22  2  0  0  0  0
 10 23  1  0  0  0  0
 11 12  2  0  0  0  0
 11 24  1  0  0  0  0
 12 25  1  0  0  0  0
 13 21  1  0  0  0  0
 13 23  2  0  0  0  0
 14 25  2  0  0  0  0
 14 26  1  0  0  0  0
 15 28  2  0  0  0  0
 15 82  1  0  0  0  0
 16 27  1  0  0  0  0
 17 27  1  0  0  0  0
 17 29  2  0  0  0  0
 17 31  1  0  0  0  0
 18 20  2  0  0  0  0
 18 36  1  0  0  0  0
 19 21  2  0  0  0  0
 19 37  1  0  0  0  0
 20 45  1  0  0  0  0
 21 38  1  0  0  0  0
 22 77  1  0  0  0  0
 23 78  1  0  0  0  0
 24 26  2  0  0  0  0
 24 77  1  0  0  0  0
 25 80  1  0  0  0  0
 26 81  1  0  0  0  0
 27 60  2  0  0  0  0
 28 61  1  0  0  0  0
 28 67  1  0  0  0  0
 29 62  1  0  0  0  0
 29 65  1  0  0  0  0
 30 55  1  0  0  0  0
 30 61  2  0  0  0  0
 30 82  1  0  0  0  0
 31 66  1  0  0  0  0
 31 72  2  0  0  0  0
 32 46  1  0  0  0  0
 32 68  1  0  0  0  0
 32 73  2  0  0  0  0
 33 56  1  0  0  0  0
 33 63  1  0  0  0  0
 33 74  2  0  0  0  0
 34 57  1  0  0  0  0
 34 69  1  0  0  0  0
 34 75  2  0  0  0  0
 35 64  1  0  0  0  0
 35 67  1  0  0  0  0
 35 76  2  0  0  0  0
 36 39  1  0  0  0  0
 37 46  1  0  0  0  0
 38 63  1  0  0  0  0
 39 41  1  0  0  0  0
 40 42  1  0  0  0  0
 40 43  1  0  0  0  0
 41 45  1  0  0  0  0
 42 47  1  0  0  0  0
 43 64  1  0  0  0  0
 44 47  1  0  0  0  0
 44 64  1  0  0  0  0
 45 68  1  0  0  0  0
 46 63  1  0  0  0  0
 47 62  1  0  0  0  0
 48 57  1  0  0  0  0
 49 59  1  0  0  0  0
 50 59  1  0  0  0  0
 51 59  1  0  0  0  0
 52 71  1  0  0  0  0
 53 79  1  0  0  0  0
 54 58  1  0  0  0  0
 54 78  1  0  0  0  0
 55 58  1  0  0  0  0
 55 70  1  0  0  0  0
 56 59  1  0  0  0  0
 56 69  1  0  0  0  0
 57 71  1  0  0  0  0
 58 79  1  0  0  0  0
 60 62  1  0  0  0  0
M  CHG  2  70   1  71   1
M  ISO  4  35 100  54 101  67 100  78 101
M  END
> <Batch ID>
0185

> <Smiles>
CNC(C)C(=O)NC(C(=O)N1Cc2cc([101O:1][101CH2:1]C(OC)C(N)c3nc([100NH:0][100C:0](=O)N4CCCC(n5nc(-c6ccc(Oc7ccc(F)cc7F)cc6)c(C(N)=O)c5N)C4)cs3)ccc2CC1C(=O)NC1CCCc2ccccc21)C(C)(C)C

> <Shape>
0.234

> <Color>
0.080

> <Negative vol penalty>
0.000

$$$$

  -OEChem-04052305053D

 87 95  0     1  0  0  0  0  0999 V2000
  -29.5303  -31.7752   25.8472 C   0  0  0  0  0  0  0  0  0  0  0  0
  -29.3050  -30.7091   24.9823 C   0  0  0  0  0  0  0  0  0  0  0  0
  -21.8532  -11.2964   21.3168 C   0  0  0  0  0  0  0  0  0  0  0  0
  -24.1715  -11.9433   21.1069 C   0  0  0  0  0  0  0  0  0  0  0  0
  -28.4620  -32.3549   26.5303 C   0  0  0  0  0  0  0  0  0  0  0  0
  -28.0114  -30.2214   24.8008 C   0  0  0  0  0  0  0  0  0  0  0  0
  -26.9174  -29.3823   19.9280 C   0  0  0  0  0  0  0  0  0  0  0  0
  -22.1964   -9.9744   21.0340 C   0  0  0  0  0  0  0  0  0  0  0  0
  -24.5148  -10.6212   20.8241 C   0  0  0  0  0  0  0  0  0  0  0  0
  -27.4286  -28.2203   19.3516 C   0  0  0  0  0  0  0  0  0  0  0  0
  -22.5119   -6.3662   20.7228 C   0  0  0  0  0  0  0  0  0  0  0  0
  -21.9517   -5.3665   21.5179 C   0  0  0  0  0  0  0  0  0  0  0  0
  -25.2877  -27.1453   19.6344 C   0  0  0  0  0  0  0  0  0  0  0  0
  -22.9828   -6.3431   23.4724 C   0  0  0  0  0  0  0  0  0  0  0  0
  -25.6142  -22.9733   19.6936 C   0  0  0  0  0  0  0  0  0  0  0  0
  -22.8407  -12.2809   21.3533 C   0  0  0  0  0  0  0  0  0  0  0  0
  -22.4308  -14.2587   22.9114 C   0  0  0  0  0  0  0  0  0  0  0  0
  -27.1532  -31.8803   26.3497 C   0  0  0  0  0  0  0  0  0  0  0  0
  -25.5884  -29.4310   20.3726 C   0  0  0  0  0  0  0  0  0  0  0  0
  -26.9247  -30.7944   25.4831 C   0  0  0  0  0  0  0  0  0  0  0  0
  -24.7613  -28.3099   20.2138 C   0  0  0  0  0  0  0  0  0  0  0  0
  -23.5272   -9.6368   20.7877 C   0  0  0  0  0  0  0  0  0  0  0  0
  -26.6146  -27.1007   19.2073 C   0  0  0  0  0  0  0  0  0  0  0  0
  -23.3077   -7.3544   21.3025 C   0  0  0  0  0  0  0  0  0  0  0  0
  -22.1871   -5.3549   22.8927 C   0  0  0  0  0  0  0  0  0  0  0  0
  -23.5430   -7.3428   22.6773 C   0  0  0  0  0  0  0  0  0  0  0  0
  -22.4867  -13.6468   21.6448 C   0  0  0  0  0  0  0  0  0  0  0  0
  -22.0474  -15.5517   22.6514 C   0  0  0  0  0  0  0  0  0  0  0  0
  -26.5051  -22.3840   20.5660 C   0  0  0  0  0  0  0  0  0  0  0  0
  -24.7351  -20.9650   19.7559 C   0  0  0  0  0  0  0  0  0  0  0  0
  -22.7014  -13.7077   24.2070 C   0  0  0  0  0  0  0  0  0  0  0  0
  -24.1795  -29.8746   23.1872 C   0  0  0  0  0  0  0  0  0  0  0  0
  -28.6759  -24.4167   19.6122 C   0  0  0  0  0  0  0  0  0  0  0  0
  -21.4752  -29.8695   21.3959 C   0  0  0  0  0  0  0  0  0  0  0  0
  -19.9069  -28.9126   18.5199 C   0  0  0  0  0  0  0  0  0  0  0  0
  -22.7836  -19.7377   18.7403 C   0  0  0  0  0  0  0  0  0  0  0  0
  -26.0369  -32.5084   27.1459 C   0  0  0  0  0  0  0  0  0  0  0  0
  -25.0444  -30.7007   20.9679 C   0  0  0  0  0  0  0  0  0  0  0  0
  -23.3217  -28.3174   20.6563 C   0  0  0  0  0  0  0  0  0  0  0  0
  -24.6460  -32.1755   26.6121 C   0  0  0  0  0  0  0  0  0  0  0  0
  -19.7840  -17.8249   18.8841 C   0  0  0  0  0  0  0  0  0  0  0  0
  -24.5299  -30.6832   26.3186 C   0  0  0  0  0  0  0  0  0  0  0  0
  -20.1680  -16.6118   19.7343 C   0  0  0  0  0  0  0  0  0  0  0  0
  -20.9309  -18.2679   17.9774 C   0  0  0  0  0  0  0  0  0  0  0  0
  -22.5919  -17.2918   19.5127 C   0  0  0  0  0  0  0  0  0  0  0  0
  -25.5324  -30.2532   25.2408 C   0  0  1  0  0  0  0  0  0  0  0  0
  -23.8243  -30.4702   21.8543 C   0  0  1  0  0  0  0  0  0  0  0  0
  -21.4905  -16.8488   20.4896 C   0  0  2  0  0  0  0  0  0  0  0  0
  -29.1730  -25.6309   17.4573 C   0  0  0  0  0  0  0  0  0  0  0  0
  -17.6858  -29.0223   17.3571 C   0  0  0  0  0  0  0  0  0  0  0  0
  -29.4309  -25.8596   24.3438 C   0  0  0  0  0  0  0  0  0  0  0  0
  -27.6120  -24.1720   24.0737 C   0  0  0  0  0  0  0  0  0  0  0  0
  -27.3249  -26.4641   23.1277 C   0  0  0  0  0  0  0  0  0  0  0  0
  -20.3984  -27.7016   23.2535 C   0  0  0  0  0  0  0  0  0  0  0  0
  -18.6520  -27.1927   21.5333 C   0  0  0  0  0  0  0  0  0  0  0  0
  -18.7262  -29.4443   22.6045 C   0  0  0  0  0  0  0  0  0  0  0  0
  -21.0459  -30.4115   16.2362 C   0  0  0  0  0  0  0  0  0  0  0  0
  -28.9710  -24.8077   22.0667 C   0  0  0  0  0  0  0  0  0  0  0  0
  -27.9956  -24.3429   20.9748 C   0  0  2  0  0  0  0  0  0  0  0  0
  -28.5011  -25.7060   18.8174 C   0  0  1  0  0  0  0  0  0  1  0  0
  -20.5068  -28.8114   20.9249 C   0  0  1  0  0  0  0  0  0  0  0  0
  -19.0427  -29.6844   17.5391 C   0  0  2  0  0  0  0  0  0  0  0  0
  -28.3433  -25.3432   23.3856 C   0  0  0  0  0  0  0  0  0  0  0  0
  -19.5985  -28.2864   22.0724 C   0  0  0  0  0  0  0  0  0  0  0  0
  -24.5989  -22.1611   19.2277 N   0  0  0  0  0  0  0  0  0  0  0  0
  -22.1644  -14.4823   20.6538 N   0  0  0  0  0  0  0  0  0  0  0  0
  -21.9022  -15.6325   21.2977 N   0  0  0  0  0  0  0  0  0  0  0  0
  -22.8380  -29.5804   21.2382 N   0  0  0  0  0  0  0  0  0  0  0  0
  -22.1494  -18.4775   18.7623 N   0  0  0  0  0  0  0  0  0  0  0  0
  -21.8236  -16.6161   23.4510 N   0  0  0  0  0  0  0  0  0  0  0  0
  -23.0840  -12.3621   24.2942 N   0  0  0  0  0  0  0  0  0  0  0  0
  -27.6034  -22.9650   21.1760 N   0  0  0  0  0  0  0  0  0  0  0  0
  -23.9149  -19.8280   19.5507 N   0  0  0  0  0  0  0  0  0  0  0  0
  -25.0601  -30.6393   23.9285 N   0  0  0  0  0  0  0  0  0  0  0  0
  -19.7770  -29.3956   19.8048 N   0  0  0  0  0  0  0  0  0  0  0  0
  -19.7106  -29.7609   16.2090 N   0  3  0  0  0  0  0  0  0  0  0  0
  -22.5909  -14.3838   25.2578 O   0  0  0  0  0  0  0  0  0  0  0  0
  -23.6898  -28.8015   23.5193 O   0  0  0  0  0  0  0  0  0  0  0  0
  -29.3272  -23.4688   19.1688 O   0  0  0  0  0  0  0  0  0  0  0  0
  -21.0384  -30.9170   21.8793 O   0  0  0  0  0  0  0  0  0  0  0  0
  -20.6225  -27.9727   18.1807 O   0  0  0  0  0  0  0  0  0  0  0  0
  -22.3392  -20.6763   18.0744 O   0  0  0  0  0  0  0  0  0  0  0  0
  -23.8625   -8.3468   20.5119 O   0  0  0  0  0  0  0  0  0  0  0  0
  -27.1152  -25.9560   18.6412 O   0  0  0  0  0  0  0  0  0  1  0  0
  -21.6477   -4.3956   23.6563 F   0  0  0  0  0  0  0  0  0  0  0  0
  -24.3057   -8.2902   23.2401 F   0  0  0  0  0  0  0  0  0  0  0  0
  -26.0621  -20.7471   20.8221 S   0  0  0  0  0  0  0  0  0  0  0  0
  1  2  1  0  0  0  0
  1  5  2  0  0  0  0
  2  6  2  0  0  0  0
  3  8  2  0  0  0  0
  3 16  1  0  0  0  0
  4  9  1  0  0  0  0
  4 16  2  0  0  0  0
  5 18  1  0  0  0  0
  6 20  1  0  0  0  0
  7 10  2  0  0  0  0
  7 19  1  0  0  0  0
  8 22  1  0  0  0  0
  9 22  2  0  0  0  0
 10 23  1  0  0  0  0
 11 12  2  0  0  0  0
 11 24  1  0  0  0  0
 12 25  1  0  0  0  0
 13 21  1  0  0  0  0
 13 23  2  0  0  0  0
 14 25  2  0  0  0  0
 14 26  1  0  0  0  0
 15 29  2  0  0  0  0
 15 65  1  0  0  0  0
 16 27  1  0  0  0  0
 17 27  1  0  0  0  0
 17 28  2  0  0  0  0
 17 31  1  0  0  0  0
 18 20  2  0  0  0  0
 18 37  1  0  0  0  0
 19 21  2  0  0  0  0
 19 38  1  0  0  0  0
 20 46  1  0  0  0  0
 21 39  1  0  0  0  0
 22 83  1  0  0  0  0
 23 84  1  0  0  0  0
 24 26  2  0  0  0  0
 24 83  1  0  0  0  0
 25 85  1  0  0  0  0
 26 86  1  0  0  0  0
 27 66  2  0  0  0  0
 28 67  1  0  0  0  0
 28 70  1  0  0  0  0
 29 72  1  0  0  0  0
 29 87  1  0  0  0  0
 30 65  2  0  0  0  0
 30 73  1  0  0  0  0
 30 87  1  0  0  0  0
 31 71  1  0  0  0  0
 31 77  2  0  0  0  0
 32 47  1  0  0  0  0
 32 74  1  0  0  0  0
 32 78  2  0  0  0  0
 33 59  1  0  0  0  0
 33 60  1  0  0  0  0
 33 79  2  0  0  0  0
 34 61  1  0  0  0  0
 34 68  1  0  0  0  0
 34 80  2  0  0  0  0
 35 62  1  0  0  0  0
 35 75  1  0  0  0  0
 35 81  2  0  0  0  0
 36 69  1  0  0  0  0
 36 73  1  0  0  0  0
 36 82  2  0  0  0  0
 37 40  1  0  0  0  0
 38 47  1  0  0  0  0
 39 68  1  0  0  0  0
 40 42  1  0  0  0  0
 41 43  1  0  0  0  0
 41 44  1  0  0  0  0
 42 46  1  0  0  0  0
 43 48  1  0  0  0  0
 44 69  1  0  0  0  0
 45 48  1  0  0  0  0
 45 69  1  0  0  0  0
 46 74  1  0  0  0  0
 47 68  1  0  0  0  0
 48 67  1  0  0  0  0
 49 60  1  0  0  0  0
 50 62  1  0  0  0  0
 51 63  1  0  0  0  0
 52 63  1  0  0  0  0
 53 63  1  0  0  0  0
 54 64  1  0  0  0  0
 55 64  1  0  0  0  0
 56 64  1  0  0  0  0
 57 76  1  0  0  0  0
 58 59  1  0  0  0  0
 58 63  1  0  0  0  0
 59 72  1  0  0  0  0
 60 84  1  0  0  0  0
 61 64  1  0  0  0  0
 61 75  1  0  0  0  0
 62 76  1  0  0  0  0
 66 67  1  0  0  0  0
M  CHG  1  76   1
M  ISO  4  36 100  60 101  73 100  84 101
M  END
> <Batch ID>
0185

> <Smiles>
CNC(C)C(=O)NC(C(=O)N1Cc2cc([101O:1][101CH:1](C)C(=O)C(CC(C)(C)C)Nc3cnc([100NH:0][100C:0](=O)N4CCCC(n5nc(-c6ccc(Oc7ccc(F)cc7F)cc6)c(C(N)=O)c5N)C4)s3)ccc2CC1C(=O)NC1CCCc2ccccc21)C(C)(C)C

> <Shape>
0.256

> <Color>
0.073

> <Negative vol penalty>
0.000

$$$$

  -OEChem-04052305053D

 85 93  0     1  0  0  0  0  0999 V2000
  -34.0954  -31.2124   16.2406 C   0  0  0  0  0  0  0  0  0  0  0  0
  -34.7250  -30.1178   16.8245 C   0  0  0  0  0  0  0  0  0  0  0  0
  -23.1215   -9.8181   19.8892 C   0  0  0  0  0  0  0  0  0  0  0  0
  -23.8892   -9.7813   22.1797 C   0  0  0  0  0  0  0  0  0  0  0  0
  -32.7065  -31.3237   16.2886 C   0  0  0  0  0  0  0  0  0  0  0  0
  -33.9658  -29.1343   17.4577 C   0  0  0  0  0  0  0  0  0  0  0  0
  -35.1368  -23.1257   17.6363 C   0  0  0  0  0  0  0  0  0  0  0  0
  -22.4186   -8.6330   20.1057 C   0  0  0  0  0  0  0  0  0  0  0  0
  -23.1862   -8.5961   22.3962 C   0  0  0  0  0  0  0  0  0  0  0  0
  -35.7313  -22.3142   18.6016 C   0  0  0  0  0  0  0  0  0  0  0  0
  -19.9895   -7.6698   22.9825 C   0  0  0  0  0  0  0  0  0  0  0  0
  -19.2387   -7.5682   24.1537 C   0  0  0  0  0  0  0  0  0  0  0  0
  -33.5485  -21.7293   19.4456 C   0  0  0  0  0  0  0  0  0  0  0  0
  -20.5485   -5.6530   24.8272 C   0  0  0  0  0  0  0  0  0  0  0  0
  -23.8569  -10.3922   20.9262 C   0  0  0  0  0  0  0  0  0  0  0  0
  -24.1116  -12.9301   20.8826 C   0  0  0  0  0  0  0  0  0  0  0  0
  -31.9293  -30.3362   16.9142 C   0  0  0  0  0  0  0  0  0  0  0  0
  -33.7417  -23.2539   17.5752 C   0  0  0  0  0  0  0  0  0  0  0  0
  -32.5652  -29.2331   17.5152 C   0  0  0  0  0  0  0  0  0  0  0  0
  -32.9386  -22.5410   18.4769 C   0  0  0  0  0  0  0  0  0  0  0  0
  -22.4508   -8.0220   21.3592 C   0  0  0  0  0  0  0  0  0  0  0  0
  -34.9373  -21.6182   19.5083 C   0  0  0  0  0  0  0  0  0  0  0  0
  -21.0198   -6.7630   22.7337 C   0  0  0  0  0  0  0  0  0  0  0  0
  -19.5181   -6.5599   25.0760 C   0  0  0  0  0  0  0  0  0  0  0  0
  -21.2992   -5.7546   23.6560 C   0  0  0  0  0  0  0  0  0  0  0  0
  -24.5838  -11.6161   20.7030 C   0  0  0  0  0  0  0  0  0  0  0  0
  -30.4470  -19.2040   23.2016 C   0  0  0  0  0  0  0  0  0  0  0  0
  -31.5578  -18.8966   22.4442 C   0  0  0  0  0  0  0  0  0  0  0  0
  -25.1760  -13.7274   20.5396 C   0  0  0  0  0  0  0  0  0  0  0  0
  -30.3793  -17.0896   22.0497 C   0  0  0  0  0  0  0  0  0  0  0  0
  -22.8257  -13.3890   21.3205 C   0  0  0  0  0  0  0  0  0  0  0  0
  -31.6940  -25.6631   17.9010 C   0  0  0  0  0  0  0  0  0  0  0  0
  -29.5228  -23.4271   17.0020 C   0  0  0  0  0  0  0  0  0  0  0  0
  -28.6853  -20.1260   16.7814 C   0  0  0  0  0  0  0  0  0  0  0  0
  -33.8399  -19.5103   21.5757 C   0  0  0  0  0  0  0  0  0  0  0  0
  -30.6038  -14.9543   20.7318 C   0  0  0  0  0  0  0  0  0  0  0  0
  -30.4343  -30.5238   16.9820 C   0  0  0  0  0  0  0  0  0  0  0  0
  -33.1148  -24.1122   16.5110 C   0  0  0  0  0  0  0  0  0  0  0  0
  -31.4355  -22.6286   18.4406 C   0  0  0  0  0  0  0  0  0  0  0  0
  -29.6764  -29.2495   17.3451 C   0  0  0  0  0  0  0  0  0  0  0  0
  -29.5640  -12.5772   18.2936 C   0  0  0  0  0  0  0  0  0  0  0  0
  -30.3393  -28.5531   18.5293 C   0  0  0  0  0  0  0  0  0  0  0  0
  -28.1368  -12.2233   18.7178 C   0  0  0  0  0  0  0  0  0  0  0  0
  -30.4752  -12.8004   19.4993 C   0  0  0  0  0  0  0  0  0  0  0  0
  -28.5497  -13.4164   20.9072 C   0  0  0  0  0  0  0  0  0  0  0  0
  -31.7745  -28.1332   18.1896 C   0  0  1  0  0  0  0  0  0  0  0  0
  -31.7047  -24.5720   16.8680 C   0  0  1  0  0  0  0  0  0  0  0  0
  -27.5790  -13.2459   19.7272 C   0  0  2  0  0  0  0  0  0  0  0  0
  -26.8296  -18.6101   16.0360 C   0  0  0  0  0  0  0  0  0  0  0  0
  -35.8254  -20.4573   22.8088 C   0  0  0  0  0  0  0  0  0  0  0  0
  -27.9364  -24.1404   19.5089 C   0  0  0  0  0  0  0  0  0  0  0  0
  -26.6556  -22.0086   19.2205 C   0  0  0  0  0  0  0  0  0  0  0  0
  -26.5454  -23.7753   17.4628 C   0  0  0  0  0  0  0  0  0  0  0  0
  -30.4128  -18.8079   14.7720 C   0  0  0  0  0  0  0  0  0  0  0  0
  -28.6631  -22.4196   17.7266 C   0  0  1  0  0  0  0  0  0  0  0  0
  -28.1224  -19.3040   15.6360 C   0  0  2  0  0  0  0  0  0  0  0  0
  -34.8192  -20.6759   21.6886 C   0  0  1  0  0  0  0  0  0  1  0  0
  -30.1521  -20.3940   24.0258 C   0  0  0  0  0  0  0  0  0  0  0  0
  -27.4785  -23.0857   18.4819 C   0  0  0  0  0  0  0  0  0  0  0  0
  -25.8496  -11.5766   20.2786 N   0  0  0  0  0  0  0  0  0  0  0  0
  -31.5210  -17.6844   21.7832 N   0  0  0  0  0  0  0  0  0  0  0  0
  -26.1819  -12.8757   20.1887 N   0  0  0  0  0  0  0  0  0  0  0  0
  -30.8701  -23.4858   17.3856 N   0  0  0  0  0  0  0  0  0  0  0  0
  -29.8845  -13.7842   20.4093 N   0  0  0  0  0  0  0  0  0  0  0  0
  -25.3404  -15.0669   20.5068 N   0  0  0  0  0  0  0  0  0  0  0  0
  -21.8468  -12.4357   21.6324 N   0  0  0  0  0  0  0  0  0  0  0  0
  -32.6880  -19.7395   22.3210 N   0  0  0  0  0  0  0  0  0  0  0  0
  -29.9282  -15.8311   21.5800 N   0  0  0  0  0  0  0  0  0  0  0  0
  -31.7716  -26.9380   17.3735 N   0  0  0  0  0  0  0  0  0  0  0  0
  -28.2578  -21.4359   16.7284 N   0  0  0  0  0  0  0  0  0  0  0  0
  -29.1028  -18.2641   15.2139 N   0  3  0  0  0  0  0  0  0  0  0  0
  -22.5476  -14.6084   21.4161 O   0  0  0  0  0  0  0  0  0  0  0  0
  -31.6194  -25.3701   19.0885 O   0  0  0  0  0  0  0  0  0  0  0  0
  -29.0192  -24.1308   16.1229 O   0  0  0  0  0  0  0  0  0  0  0  0
  -29.4270  -19.6526   17.6395 O   0  0  0  0  0  0  0  0  0  0  0  0
  -34.0946  -18.5301   20.8817 O   0  0  0  0  0  0  0  0  0  0  0  0
  -31.7248  -15.1759   20.2666 O   0  0  0  0  0  0  0  0  0  0  0  0
  -21.7648   -6.8657   21.5709 O   0  0  0  0  0  0  0  0  0  0  0  0
  -35.5151  -20.8259   20.4519 O   0  0  0  0  0  0  0  0  0  1  0  0
  -18.7981   -6.4633   26.2013 F   0  0  0  0  0  0  0  0  0  0  0  0
  -22.2886   -4.8813   23.4230 F   0  0  0  0  0  0  0  0  0  0  0  0
  -31.1496  -21.3355   24.0301 F   0  0  0  0  0  0  0  0  0  0  0  0
  -29.0319  -21.0829   23.6357 F   0  0  0  0  0  0  0  0  0  0  0  0
  -29.9417  -20.0963   25.3468 F   0  0  0  0  0  0  0  0  0  0  0  0
  -29.3028  -17.9316   23.0875 S   0  0  0  0  0  0  0  0  0  0  0  0
  1  2  1  0  0  0  0
  1  5  2  0  0  0  0
  2  6  2  0  0  0  0
  3  8  2  0  0  0  0
  3 15  1  0  0  0  0
  4  9  1  0  0  0  0
  4 15  2  0  0  0  0
  5 17  1  0  0  0  0
  6 19  1  0  0  0  0
  7 10  2  0  0  0  0
  7 18  1  0  0  0  0
  8 21  1  0  0  0  0
  9 21  2  0  0  0  0
 10 22  1  0  0  0  0
 11 12  2  0  0  0  0
 11 23  1  0  0  0  0
 12 24  1  0  0  0  0
 13 20  1  0  0  0  0
 13 22  2  0  0  0  0
 14 24  2  0  0  0  0
 14 25  1  0  0  0  0
 15 26  1  0  0  0  0
 16 26  1  0  0  0  0
 16 29  2  0  0  0  0
 16 31  1  0  0  0  0
 17 19  2  0  0  0  0
 17 37  1  0  0  0  0
 18 20  2  0  0  0  0
 18 38  1  0  0  0  0
 19 46  1  0  0  0  0
 20 39  1  0  0  0  0
 21 78  1  0  0  0  0
 22 79  1  0  0  0  0
 23 25  2  0  0  0  0
 23 78  1  0  0  0  0
 24 80  1  0  0  0  0
 25 81  1  0  0  0  0
 26 60  2  0  0  0  0
 27 28  2  0  0  0  0
 27 58  1  0  0  0  0
 27 85  1  0  0  0  0
 28 61  1  0  0  0  0
 28 67  1  0  0  0  0
 29 62  1  0  0  0  0
 29 65  1  0  0  0  0
 30 61  2  0  0  0  0
 30 68  1  0  0  0  0
 30 85  1  0  0  0  0
 31 66  1  0  0  0  0
 31 72  2  0  0  0  0
 32 47  1  0  0  0  0
 32 69  1  0  0  0  0
 32 73  2  0  0  0  0
 33 55  1  0  0  0  0
 33 63  1  0  0  0  0
 33 74  2  0  0  0  0
 34 56  1  0  0  0  0
 34 70  1  0  0  0  0
 34 75  2  0  0  0  0
 35 57  1  0  0  0  0
 35 67  1  0  0  0  0
 35 76  2  0  0  0  0
 36 64  1  0  0  0  0
 36 68  1  0  0  0  0
 36 77  2  0  0  0  0
 37 40  1  0  0  0  0
 38 47  1  0  0  0  0
 39 63  1  0  0  0  0
 40 42  1  0  0  0  0
 41 43  1  0  0  0  0
 41 44  1  0  0  0  0
 42 46  1  0  0  0  0
 43 48  1  0  0  0  0
 44 64  1  0  0  0  0
 45 48  1  0  0  0  0
 45 64  1  0  0  0  0
 46 69  1  0  0  0  0
 47 63  1  0  0  0  0
 48 62  1  0  0  0  0
 49 56  1  0  0  0  0
 50 57  1  0  0  0  0
 51 59  1  0  0  0  0
 52 59  1  0  0  0  0
 53 59  1  0  0  0  0
 54 71  1  0  0  0  0
 55 59  1  0  0  0  0
 55 70  1  0  0  0  0
 56 71  1  0  0  0  0
 57 79  1  0  0  0  0
 58 82  1  0  0  0  0
 58 83  1  0  0  0  0
 58 84  1  0  0  0  0
 60 62  1  0  0  0  0
M  CHG  1  71   1
M  ISO  4  36 100  57 101  68 100  79 101
M  END
> <Batch ID>
0185

> <Smiles>
CNC(C)C(=O)NC(C(=O)N1Cc2cc([101O:1][101CH:1](C)C(=O)Nc3nc([100NH:0][100C:0](=O)N4CCCC(n5nc(-c6ccc(Oc7ccc(F)cc7F)cc6)c(C(N)=O)c5N)C4)sc3C(F)(F)F)ccc2CC1C(=O)NC1CCCc2ccccc21)C(C)(C)C

> <Shape>
0.214

> <Color>
0.192

> <Negative vol penalty>
0.000

$$$$

  -OEChem-04052305053D

 86 94  0     1  0  0  0  0  0999 V2000
  -17.0662  -24.7203   24.1803 C   0  0  0  0  0  0  0  0  0  0  0  0
  -17.5309  -23.9076   23.1512 C   0  0  0  0  0  0  0  0  0  0  0  0
  -25.2803  -13.6109   21.9518 C   0  0  0  0  0  0  0  0  0  0  0  0
  -26.0991  -13.7868   19.6856 C   0  0  0  0  0  0  0  0  0  0  0  0
  -17.5378  -26.0267   24.3023 C   0  0  0  0  0  0  0  0  0  0  0  0
  -18.4668  -24.4012   22.2430 C   0  0  0  0  0  0  0  0  0  0  0  0
  -24.0205  -22.2844   18.2440 C   0  0  0  0  0  0  0  0  0  0  0  0
  -24.3326  -12.6754   21.5369 C   0  0  0  0  0  0  0  0  0  0  0  0
  -25.1513  -12.8512   19.2706 C   0  0  0  0  0  0  0  0  0  0  0  0
  -24.4777  -22.3260   16.9275 C   0  0  0  0  0  0  0  0  0  0  0  0
  -24.2512   -9.3822   20.7743 C   0  0  0  0  0  0  0  0  0  0  0  0
  -24.0847   -8.2383   21.5548 C   0  0  0  0  0  0  0  0  0  0  0  0
  -25.2806  -24.5727   17.2837 C   0  0  0  0  0  0  0  0  0  0  0  0
  -21.7696   -8.8247   21.9203 C   0  0  0  0  0  0  0  0  0  0  0  0
  -30.8751  -22.2853   16.4598 C   0  0  0  0  0  0  0  0  0  0  0  0
  -26.1635  -14.1666   21.0262 C   0  0  0  0  0  0  0  0  0  0  0  0
  -28.4504  -14.8760   21.9064 C   0  0  0  0  0  0  0  0  0  0  0  0
  -18.4871  -26.5334   23.4009 C   0  0  0  0  0  0  0  0  0  0  0  0
  -24.1804  -23.3925   19.0883 C   0  0  0  0  0  0  0  0  0  0  0  0
  -18.9505  -25.7160   22.3523 C   0  0  0  0  0  0  0  0  0  0  0  0
  -24.8268  -24.5417   18.6112 C   0  0  0  0  0  0  0  0  0  0  0  0
  -24.2681  -12.2955   20.1963 C   0  0  0  0  0  0  0  0  0  0  0  0
  -25.1052  -23.4713   16.4463 C   0  0  0  0  0  0  0  0  0  0  0  0
  -23.1769  -10.2475   20.5668 C   0  0  0  0  0  0  0  0  0  0  0  0
  -22.8439   -7.9594   22.1278 C   0  0  0  0  0  0  0  0  0  0  0  0
  -21.9361   -9.9687   21.1398 C   0  0  0  0  0  0  0  0  0  0  0  0
  -27.1424  -15.1335   21.4541 C   0  0  0  0  0  0  0  0  0  0  0  0
  -30.0739  -23.3290   16.8731 C   0  0  0  0  0  0  0  0  0  0  0  0
  -28.9668  -16.1171   22.1884 C   0  0  0  0  0  0  0  0  0  0  0  0
  -29.3858  -21.8037   18.2909 C   0  0  0  0  0  0  0  0  0  0  0  0
  -29.0648  -24.8123   15.1593 C   0  0  0  0  0  0  0  0  0  0  0  0
  -29.1372  -13.6266   22.0581 C   0  0  0  0  0  0  0  0  0  0  0  0
  -22.1994  -25.3402   20.6328 C   0  0  0  0  0  0  0  0  0  0  0  0
  -24.9519  -26.5117   21.8871 C   0  0  0  0  0  0  0  0  0  0  0  0
  -28.3226  -26.9466   21.5766 C   0  0  0  0  0  0  0  0  0  0  0  0
  -27.7289  -21.6064   20.1782 C   0  0  0  0  0  0  0  0  0  0  0  0
  -18.9319  -27.9673   23.5449 C   0  0  0  0  0  0  0  0  0  0  0  0
  -23.7056  -23.3221   20.5138 C   0  0  0  0  0  0  0  0  0  0  0  0
  -25.0413  -25.7508   19.4833 C   0  0  0  0  0  0  0  0  0  0  0  0
  -20.2033  -28.2919   22.7647 C   0  0  0  0  0  0  0  0  0  0  0  0
  -27.6298  -20.5054   23.5628 C   0  0  0  0  0  0  0  0  0  0  0  0
  -20.1167  -27.7349   21.3473 C   0  0  0  0  0  0  0  0  0  0  0  0
  -27.6187  -18.9794   23.4475 C   0  0  0  0  0  0  0  0  0  0  0  0
  -26.8192  -21.1643   22.4480 C   0  0  0  0  0  0  0  0  0  0  0  0
  -27.1727  -19.2239   20.9719 C   0  0  0  0  0  0  0  0  0  0  0  0
  -19.9841  -26.2072   21.3621 C   0  0  1  0  0  0  0  0  0  0  0  0
  -23.4619  -24.6957   21.1310 C   0  0  1  0  0  0  0  0  0  0  0  0
  -28.0296  -18.5180   22.0354 C   0  0  2  0  0  0  0  0  0  0  0  0
  -22.4909  -25.4714   14.6294 C   0  0  0  0  0  0  0  0  0  0  0  0
  -30.2918  -27.9756   22.7432 C   0  0  0  0  0  0  0  0  0  0  0  0
  -25.1012  -23.7718   12.2456 C   0  0  0  0  0  0  0  0  0  0  0  0
  -27.1355  -26.5808   13.6123 C   0  0  0  0  0  0  0  0  0  0  0  0
  -24.0425  -29.2783   20.9766 C   0  0  0  0  0  0  0  0  0  0  0  0
  -26.3934  -30.0790   21.2941 C   0  0  0  0  0  0  0  0  0  0  0  0
  -25.0960  -29.2202   23.2441 C   0  0  0  0  0  0  0  0  0  0  0  0
  -29.6782  -24.3295   21.8455 C   0  0  0  0  0  0  0  0  0  0  0  0
  -30.0588  -24.7124   16.2821 C   0  0  0  0  0  0  0  0  0  0  0  0
  -23.1300  -24.4711   13.6757 C   0  0  0  0  0  0  0  0  0  0  0  0
  -25.9291  -27.5941   21.4966 C   0  0  1  0  0  0  0  0  0  0  0  0
  -29.4622  -26.7153   22.5525 C   0  0  2  0  0  0  0  0  0  0  0  0
  -24.6002  -24.7600   13.3106 C   0  0  1  0  0  0  0  0  0  0  0  0
  -27.0211  -25.1710   14.1853 C   0  0  2  0  0  0  0  0  0  0  0  0
  -25.5672  -24.7904   14.5221 C   0  0  2  0  0  0  0  0  0  1  0  0
  -25.3596  -29.0210   21.7356 C   0  0  0  0  0  0  0  0  0  0  0  0
  -26.8461  -16.4359   21.4476 N   0  0  0  0  0  0  0  0  0  0  0  0
  -29.2190  -23.0546   17.9227 N   0  0  0  0  0  0  0  0  0  0  0  0
  -27.8398  -25.1125   15.4034 N   0  0  0  0  0  0  0  0  0  0  0  0
  -27.9752  -17.0078   21.8994 N   0  0  0  0  0  0  0  0  0  0  0  0
  -24.5537  -25.6354   20.8676 N   0  0  0  0  0  0  0  0  0  0  0  0
  -27.2668  -20.6826   21.1394 N   0  0  0  0  0  0  0  0  0  0  0  0
  -30.1677  -16.5224   22.6529 N   0  0  0  0  0  0  0  0  0  0  0  0
  -28.4595  -12.4466   21.7225 N   0  0  0  0  0  0  0  0  0  0  0  0
  -28.7142  -21.1079   19.3265 N   0  0  0  0  0  0  0  0  0  0  0  0
  -21.2675  -25.5910   21.6219 N   0  0  0  0  0  0  0  0  0  0  0  0
  -27.1619  -27.3131   22.2244 N   0  0  0  0  0  0  0  0  0  0  0  0
  -30.3584  -25.6334   22.0554 N   0  3  0  0  0  0  0  0  0  0  0  0
  -30.3113  -13.5575   22.4943 O   0  0  0  0  0  0  0  0  0  0  0  0
  -22.0800  -25.5928   19.4396 O   0  0  0  0  0  0  0  0  0  0  0  0
  -24.5621  -26.4417   23.0553 O   0  0  0  0  0  0  0  0  0  0  0  0
  -28.4504  -26.8187   20.3610 O   0  0  0  0  0  0  0  0  0  0  0  0
  -27.3031  -22.7634   20.1328 O   0  0  0  0  0  0  0  0  0  0  0  0
  -23.3436  -11.3824   19.7911 O   0  0  0  0  0  0  0  0  0  0  0  0
  -25.5518  -23.5147   15.1616 O   0  0  0  0  0  0  0  0  0  1  0  0
  -22.6837   -6.8600   22.8760 F   0  0  0  0  0  0  0  0  0  0  0  0
  -20.9001  -10.7956   20.9431 F   0  0  0  0  0  0  0  0  0  0  0  0
  -30.5548  -20.8997   17.4184 S   0  0  0  0  0  0  0  0  0  0  0  0
  1  2  1  0  0  0  0
  1  5  2  0  0  0  0
  2  6  2  0  0  0  0
  3  8  2  0  0  0  0
  3 16  1  0  0  0  0
  4  9  1  0  0  0  0
  4 16  2  0  0  0  0
  5 18  1  0  0  0  0
  6 20  1  0  0  0  0
  7 10  2  0  0  0  0
  7 19  1  0  0  0  0
  8 22  1  0  0  0  0
  9 22  2  0  0  0  0
 10 23  1  0  0  0  0
 11 12  2  0  0  0  0
 11 24  1  0  0  0  0
 12 25  1  0  0  0  0
 13 21  1  0  0  0  0
 13 23  2  0  0  0  0
 14 25  2  0  0  0  0
 14 26  1  0  0  0  0
 15 28  2  0  0  0  0
 15 86  1  0  0  0  0
 16 27  1  0  0  0  0
 17 27  1  0  0  0  0
 17 29  2  0  0  0  0
 17 32  1  0  0  0  0
 18 20  2  0  0  0  0
 18 37  1  0  0  0  0
 19 21  2  0  0  0  0
 19 38  1  0  0  0  0
 20 46  1  0  0  0  0
 21 39  1  0  0  0  0
 22 82  1  0  0  0  0
 23 83  1  0  0  0  0
 24 26  2  0  0  0  0
 24 82  1  0  0  0  0
 25 84  1  0  0  0  0
 26 85  1  0  0  0  0
 27 65  2  0  0  0  0
 28 57  1  0  0  0  0
 28 66  1  0  0  0  0
 29 68  1  0  0  0  0
 29 71  1  0  0  0  0
 30 66  2  0  0  0  0
 30 73  1  0  0  0  0
 30 86  1  0  0  0  0
 31 57  1  0  0  0  0
 31 67  2  0  0  0  0
 32 72  1  0  0  0  0
 32 77  2  0  0  0  0
 33 47  1  0  0  0  0
 33 74  1  0  0  0  0
 33 78  2  0  0  0  0
 34 59  1  0  0  0  0
 34 69  1  0  0  0  0
 34 79  2  0  0  0  0
 35 60  1  0  0  0  0
 35 75  1  0  0  0  0
 35 80  2  0  0  0  0
 36 70  1  0  0  0  0
 36 73  1  0  0  0  0
 36 81  2  0  0  0  0
 37 40  1  0  0  0  0
 38 47  1  0  0  0  0
 39 69  1  0  0  0  0
 40 42  1  0  0  0  0
 41 43  1  0  0  0  0
 41 44  1  0  0  0  0
 42 46  1  0  0  0  0
 43 48  1  0  0  0  0
 44 70  1  0  0  0  0
 45 48  1  0  0  0  0
 45 70  1  0  0  0  0
 46 74  1  0  0  0  0
 47 69  1  0  0  0  0
 48 68  1  0  0  0  0
 49 58  1  0  0  0  0
 50 60  1  0  0  0  0
 51 61  1  0  0  0  0
 52 62  1  0  0  0  0
 53 64  1  0  0  0  0
 54 64  1  0  0  0  0
 55 64  1  0  0  0  0
 56 76  1  0  0  0  0
 58 61  1  0  0  0  0
 59 64  1  0  0  0  0
 59 75  1  0  0  0  0
 60 76  1  0  0  0  0
 61 63  1  0  0  0  0
 62 63  1  0  0  0  0
 62 67  1  0  0  0  0
 63 83  1  0  0  0  0
 65 68  1  0  0  0  0
M  CHG  1  76   1
M  ISO  4  36 100  63 101  73 100  83 101
M  END
> <Batch ID>
0185

> <Smiles>
CCC(C)[101CH:1](C(C)NC=Cc1csc([100NH:0][100C:0](=O)N2CCCC(n3nc(-c4ccc(Oc5ccc(F)cc5F)cc4)c(C(N)=O)c3N)C2)n1)[101O:1]c1ccc2c(c1)CN(C(=O)C(NC(=O)C(C)NC)C(C)(C)C)C(C(=O)NC1CCCc3ccccc31)C2

> <Shape>
0.212

> <Color>
0.067

> <Negative vol penalty>
0.000

$$$$

  -OEChem-04052305053D

 84 92  0     1  0  0  0  0  0999 V2000
  -21.5832  -11.5483   21.6833 C   0  0  0  0  0  0  0  0  0  0  0  0
  -21.9903  -12.5054   22.6072 C   0  0  0  0  0  0  0  0  0  0  0  0
  -23.5251  -28.5820   19.0530 C   0  0  0  0  0  0  0  0  0  0  0  0
  -23.8923  -27.6425   21.2484 C   0  0  0  0  0  0  0  0  0  0  0  0
  -22.4433  -11.1624   20.6561 C   0  0  0  0  0  0  0  0  0  0  0  0
  -23.2583  -13.0765   22.5050 C   0  0  0  0  0  0  0  0  0  0  0  0
  -24.8235  -18.8359   23.8783 C   0  0  0  0  0  0  0  0  0  0  0  0
  -22.1873  -28.1914   19.1096 C   0  0  0  0  0  0  0  0  0  0  0  0
  -22.5544  -27.2519   21.3050 C   0  0  0  0  0  0  0  0  0  0  0  0
  -25.4142  -19.4038   25.0063 C   0  0  0  0  0  0  0  0  0  0  0  0
  -19.5642  -28.6959   21.9326 C   0  0  0  0  0  0  0  0  0  0  0  0
  -18.8681  -28.9429   23.1158 C   0  0  0  0  0  0  0  0  0  0  0  0
  -27.5729  -19.2643   23.9387 C   0  0  0  0  0  0  0  0  0  0  0  0
  -18.4523  -26.5761   23.3653 C   0  0  0  0  0  0  0  0  0  0  0  0
  -24.3777  -28.3075   20.1224 C   0  0  0  0  0  0  0  0  0  0  0  0
  -26.3080  -29.9329   20.4961 C   0  0  0  0  0  0  0  0  0  0  0  0
  -23.7189  -11.7361   20.5355 C   0  0  0  0  0  0  0  0  0  0  0  0
  -25.6059  -18.4672   22.7745 C   0  0  0  0  0  0  0  0  0  0  0  0
  -24.1368  -12.6970   21.4759 C   0  0  0  0  0  0  0  0  0  0  0  0
  -26.9894  -18.6942   22.7969 C   0  0  0  0  0  0  0  0  0  0  0  0
  -21.7019  -27.5264   20.2356 C   0  0  0  0  0  0  0  0  0  0  0  0
  -26.7894  -19.6154   25.0378 C   0  0  0  0  0  0  0  0  0  0  0  0
  -19.7044  -27.3890   21.4657 C   0  0  0  0  0  0  0  0  0  0  0  0
  -18.3121  -27.8830   23.8321 C   0  0  0  0  0  0  0  0  0  0  0  0
  -19.1485  -26.3291   22.1820 C   0  0  0  0  0  0  0  0  0  0  0  0
  -30.1966  -23.2903   23.5412 C   0  0  0  0  0  0  0  0  0  0  0  0
  -25.7599  -28.7102   20.0643 C   0  0  0  0  0  0  0  0  0  0  0  0
  -31.2687  -24.1102   23.2535 C   0  0  0  0  0  0  0  0  0  0  0  0
  -29.7594  -23.3163   24.8498 C   0  0  0  0  0  0  0  0  0  0  0  0
  -27.6499  -29.8224   20.2253 C   0  0  0  0  0  0  0  0  0  0  0  0
  -31.3558  -24.8359   25.4060 C   0  0  0  0  0  0  0  0  0  0  0  0
  -25.6618  -31.0672   21.0891 C   0  0  0  0  0  0  0  0  0  0  0  0
  -26.2387  -15.7301   21.2875 C   0  0  0  0  0  0  0  0  0  0  0  0
  -27.7804  -17.6731   19.1969 C   0  0  0  0  0  0  0  0  0  0  0  0
  -29.3441  -20.6517   18.6230 C   0  0  0  0  0  0  0  0  0  0  0  0
  -31.3177  -25.1262   19.6382 C   0  0  0  0  0  0  0  0  0  0  0  0
  -24.6313  -11.2527   19.4363 C   0  0  0  0  0  0  0  0  0  0  0  0
  -24.9500  -17.8803   21.5547 C   0  0  0  0  0  0  0  0  0  0  0  0
  -27.8711  -18.3348   21.6299 C   0  0  0  0  0  0  0  0  0  0  0  0
  -25.8168  -12.1789   19.1772 C   0  0  0  0  0  0  0  0  0  0  0  0
  -30.7009  -27.6751   17.2300 C   0  0  0  0  0  0  0  0  0  0  0  0
  -26.4747  -12.5846   20.4923 C   0  0  0  0  0  0  0  0  0  0  0  0
  -29.4141  -28.3397   17.7223 C   0  0  0  0  0  0  0  0  0  0  0  0
  -30.6896  -26.1687   17.4806 C   0  0  0  0  0  0  0  0  0  0  0  0
  -29.1273  -26.4396   19.3673 C   0  0  0  0  0  0  0  0  0  0  0  0
  -25.4952  -13.3576   21.3838 C   0  0  1  0  0  0  0  0  0  0  0  0
  -25.9114  -17.0697   20.6910 C   0  0  1  0  0  0  0  0  0  0  0  0
  -29.1155  -27.9673   19.1870 C   0  0  2  0  0  0  0  0  0  0  0  0
  -30.5347  -21.9376   16.8268 C   0  0  0  0  0  0  0  0  0  0  0  0
  -26.3115  -21.3708   27.9004 C   0  0  0  0  0  0  0  0  0  0  0  0
  -30.2487  -15.9213   19.5824 C   0  0  0  0  0  0  0  0  0  0  0  0
  -31.6195  -17.7480   18.5567 C   0  0  0  0  0  0  0  0  0  0  0  0
  -29.8324  -16.6322   17.2211 C   0  0  0  0  0  0  0  0  0  0  0  0
  -27.3509  -22.8379   18.7052 C   0  0  0  0  0  0  0  0  0  0  0  0
  -31.8149  -24.1518   21.8659 C   0  0  0  0  0  0  0  0  0  0  0  0
  -28.1200  -22.4330   26.5105 C   0  0  0  0  0  0  0  0  0  0  0  0
  -29.1831  -18.2186   19.0795 C   0  0  1  0  0  0  0  0  0  0  0  0
  -29.1997  -21.6657   17.5026 C   0  0  2  0  0  0  0  0  0  0  0  0
  -26.9316  -21.4742   26.5145 C   0  0  1  0  0  0  0  0  0  1  0  0
  -30.2049  -17.1351   18.6328 C   0  0  0  0  0  0  0  0  0  0  0  0
  -26.6786  -27.8837   19.5575 N   0  0  0  0  0  0  0  0  0  0  0  0
  -31.8747  -24.8992   24.1649 N   0  0  0  0  0  0  0  0  0  0  0  0
  -30.3178  -24.0800   25.8117 N   0  0  0  0  0  0  0  0  0  0  0  0
  -27.8175  -28.5884   19.6690 N   0  0  0  0  0  0  0  0  0  0  0  0
  -27.1836  -17.7579   20.4628 N   0  0  0  0  0  0  0  0  0  0  0  0
  -30.4024  -25.8833   18.8885 N   0  0  0  0  0  0  0  0  0  0  0  0
  -28.6911  -30.6613   20.4109 N   0  0  0  0  0  0  0  0  0  0  0  0
  -31.9659  -25.6479   26.3867 N   0  0  0  0  0  0  0  0  0  0  0  0
  -24.2768  -31.0140   21.2971 N   0  0  0  0  0  0  0  0  0  0  0  0
  -28.6847  -22.5086   25.1821 N   0  0  0  0  0  0  0  0  0  0  0  0
  -25.3641  -14.7237   20.9245 N   0  0  0  0  0  0  0  0  0  0  0  0
  -29.1007  -19.3674   18.1841 N   0  0  0  0  0  0  0  0  0  0  0  0
  -30.9719  -24.9071   20.9661 N   0  0  0  0  0  0  0  0  0  0  0  0
  -28.6713  -22.9537   18.0344 N   0  3  0  0  0  0  0  0  0  0  0  0
  -26.2913  -32.1038   21.4094 O   0  0  0  0  0  0  0  0  0  0  0  0
  -27.2136  -15.6174   22.0214 O   0  0  0  0  0  0  0  0  0  0  0  0
  -27.2317  -17.1960   18.2005 O   0  0  0  0  0  0  0  0  0  0  0  0
  -29.6465  -20.9670   19.7718 O   0  0  0  0  0  0  0  0  0  0  0  0
  -32.3680  -24.6833   19.1611 O   0  0  0  0  0  0  0  0  0  0  0  0
  -20.3965  -27.1453   20.2912 O   0  0  0  0  0  0  0  0  0  0  0  0
  -27.3686  -20.1690   26.1378 O   0  0  0  0  0  0  0  0  0  1  0  0
  -17.6450  -28.1202   24.9691 F   0  0  0  0  0  0  0  0  0  0  0  0
  -19.2809  -25.0713   21.7391 F   0  0  0  0  0  0  0  0  0  0  0  0
  -29.6219  -22.5220   22.6086 F   0  0  0  0  0  0  0  0  0  0  0  0
  1  2  1  0  0  0  0
  1  5  2  0  0  0  0
  2  6  2  0  0  0  0
  3  8  2  0  0  0  0
  3 15  1  0  0  0  0
  4  9  1  0  0  0  0
  4 15  2  0  0  0  0
  5 17  1  0  0  0  0
  6 19  1  0  0  0  0
  7 10  2  0  0  0  0
  7 18  1  0  0  0  0
  8 21  1  0  0  0  0
  9 21  2  0  0  0  0
 10 22  1  0  0  0  0
 11 12  2  0  0  0  0
 11 23  1  0  0  0  0
 12 24  1  0  0  0  0
 13 20  1  0  0  0  0
 13 22  2  0  0  0  0
 14 24  2  0  0  0  0
 14 25  1  0  0  0  0
 15 27  1  0  0  0  0
 16 27  1  0  0  0  0
 16 30  2  0  0  0  0
 16 32  1  0  0  0  0
 17 19  2  0  0  0  0
 17 37  1  0  0  0  0
 18 20  2  0  0  0  0
 18 38  1  0  0  0  0
 19 46  1  0  0  0  0
 20 39  1  0  0  0  0
 21 80  1  0  0  0  0
 22 81  1  0  0  0  0
 23 25  2  0  0  0  0
 23 80  1  0  0  0  0
 24 82  1  0  0  0  0
 25 83  1  0  0  0  0
 26 28  1  0  0  0  0
 26 29  2  0  0  0  0
 26 84  1  0  0  0  0
 27 61  2  0  0  0  0
 28 55  1  0  0  0  0
 28 62  2  0  0  0  0
 29 63  1  0  0  0  0
 29 70  1  0  0  0  0
 30 64  1  0  0  0  0
 30 67  1  0  0  0  0
 31 62  1  0  0  0  0
 31 63  2  0  0  0  0
 31 68  1  0  0  0  0
 32 69  1  0  0  0  0
 32 75  2  0  0  0  0
 33 47  1  0  0  0  0
 33 71  1  0  0  0  0
 33 76  2  0  0  0  0
 34 57  1  0  0  0  0
 34 65  1  0  0  0  0
 34 77  2  0  0  0  0
 35 58  1  0  0  0  0
 35 72  1  0  0  0  0
 35 78  2  0  0  0  0
 36 66  1  0  0  0  0
 36 73  1  0  0  0  0
 36 79  2  0  0  0  0
 37 40  1  0  0  0  0
 38 47  1  0  0  0  0
 39 65  1  0  0  0  0
 40 42  1  0  0  0  0
 41 43  1  0  0  0  0
 41 44  1  0  0  0  0
 42 46  1  0  0  0  0
 43 48  1  0  0  0  0
 44 66  1  0  0  0  0
 45 48  1  0  0  0  0
 45 66  1  0  0  0  0
 46 71  1  0  0  0  0
 47 65  1  0  0  0  0
 48 64  1  0  0  0  0
 49 58  1  0  0  0  0
 50 59  1  0  0  0  0
 51 60  1  0  0  0  0
 52 60  1  0  0  0  0
 53 60  1  0  0  0  0
 54 74  1  0  0  0  0
 55 73  1  0  0  0  0
 56 59  1  0  0  0  0
 56 70  1  0  0  0  0
 57 60  1  0  0  0  0
 57 72  1  0  0  0  0
 58 74  1  0  0  0  0
 59 81  1  0  0  0  0
 61 64  1  0  0  0  0
M  CHG  1  74   1
M  ISO  4  36 100  59 101  73 100  81 101
M  END
> <Batch ID>
0185

> <Smiles>
CNC(C)C(=O)NC(C(=O)N1Cc2cc([101O:1][101CH:1](C)CNc3nc(N)nc(C[100NH:0][100C:0](=O)N4CCCC(n5nc(-c6ccc(Oc7ccc(F)cc7F)cc6)c(C(N)=O)c5N)C4)c3F)ccc2CC1C(=O)NC1CCCc2ccccc21)C(C)(C)C

> <Shape>
0.232

> <Color>
0.060

> <Negative vol penalty>
0.000

$$$$

  -OEChem-04052305053D

 87 95  0     1  0  0  0  0  0999 V2000
  -39.1585  -34.8839   22.3230 C   0  0  0  0  0  0  0  0  0  0  0  0
  -38.6767  -33.7260   22.9251 C   0  0  0  0  0  0  0  0  0  0  0  0
  -23.0733   -9.8668   19.9447 C   0  0  0  0  0  0  0  0  0  0  0  0
  -23.8312   -9.8798   22.2387 C   0  0  0  0  0  0  0  0  0  0  0  0
  -38.7066  -35.2491   21.0556 C   0  0  0  0  0  0  0  0  0  0  0  0
  -37.7417  -32.9331   22.2605 C   0  0  0  0  0  0  0  0  0  0  0  0
  -37.2757  -26.8304   22.4725 C   0  0  0  0  0  0  0  0  0  0  0  0
  -22.3292   -8.7143   20.1970 C   0  0  0  0  0  0  0  0  0  0  0  0
  -23.0870   -8.7273   22.4911 C   0  0  0  0  0  0  0  0  0  0  0  0
  -36.4526  -25.9774   23.2065 C   0  0  0  0  0  0  0  0  0  0  0  0
  -22.9012   -5.3966   20.4972 C   0  0  0  0  0  0  0  0  0  0  0  0
  -22.9688   -4.3645   19.5614 C   0  0  0  0  0  0  0  0  0  0  0  0
  -34.9320  -25.8469   21.3383 C   0  0  0  0  0  0  0  0  0  0  0  0
  -29.7489  -17.7178   22.7102 C   0  0  0  0  0  0  0  0  0  0  0  0
  -20.5846   -4.5295   19.2072 C   0  0  0  0  0  0  0  0  0  0  0  0
  -32.2322  -18.5380   21.9316 C   0  0  0  0  0  0  0  0  0  0  0  0
  -23.8244  -10.4495   20.9655 C   0  0  0  0  0  0  0  0  0  0  0  0
  -24.1664  -12.9743   20.8391 C   0  0  0  0  0  0  0  0  0  0  0  0
  -37.7729  -34.4552   20.3711 C   0  0  0  0  0  0  0  0  0  0  0  0
  -36.9270  -27.2073   21.1676 C   0  0  0  0  0  0  0  0  0  0  0  0
  -37.2759  -33.2887   20.9833 C   0  0  0  0  0  0  0  0  0  0  0  0
  -35.7537  -26.7027   20.5889 C   0  0  0  0  0  0  0  0  0  0  0  0
  -30.2252  -18.9518   23.1388 C   0  0  0  0  0  0  0  0  0  0  0  0
  -31.4895  -19.3772   22.7466 C   0  0  0  0  0  0  0  0  0  0  0  0
  -22.3360   -8.1446   21.4702 C   0  0  0  0  0  0  0  0  0  0  0  0
  -35.2791  -25.4879   22.6405 C   0  0  0  0  0  0  0  0  0  0  0  0
  -21.6752   -5.9951   20.7881 C   0  0  0  0  0  0  0  0  0  0  0  0
  -21.8105   -3.9310   18.9163 C   0  0  0  0  0  0  0  0  0  0  0  0
  -20.5170   -5.5616   20.1431 C   0  0  0  0  0  0  0  0  0  0  0  0
  -24.5937  -11.6397   20.7053 C   0  0  0  0  0  0  0  0  0  0  0  0
  -30.5694  -16.9531   21.8967 C   0  0  0  0  0  0  0  0  0  0  0  0
  -25.2589  -13.7228   20.4748 C   0  0  0  0  0  0  0  0  0  0  0  0
  -34.2347  -23.4062   22.8557 C   0  0  0  0  0  0  0  0  0  1  0  0
  -22.8956  -13.4913   21.2555 C   0  0  0  0  0  0  0  0  0  0  0  0
  -33.4593  -22.5073   23.4741 C   0  0  0  0  0  0  0  0  0  0  0  0
  -33.2607  -21.1615   22.8436 C   0  0  0  0  0  0  0  0  0  0  0  0
  -36.2619  -29.9636   19.7309 C   0  0  0  0  0  0  0  0  0  0  0  0
  -36.2175  -28.1158   17.0652 C   0  0  0  0  0  0  0  0  0  0  0  0
  -35.8173  -25.0159   15.6952 C   0  0  0  0  0  0  0  0  0  0  0  0
  -30.7250  -14.7687   20.6516 C   0  0  0  0  0  0  0  0  0  0  0  0
  -37.2785  -34.9157   19.0227 C   0  0  0  0  0  0  0  0  0  0  0  0
  -37.8392  -28.1068   20.3794 C   0  0  0  0  0  0  0  0  0  0  0  0
  -35.3447  -27.0608   19.1843 C   0  0  0  0  0  0  0  0  0  0  0  0
  -36.5683  -33.8225   18.2285 C   0  0  0  0  0  0  0  0  0  0  0  0
  -29.6126  -12.3486   18.2887 C   0  0  0  0  0  0  0  0  0  0  0  0
  -35.5709  -33.0819   19.1136 C   0  0  0  0  0  0  0  0  0  0  0  0
  -28.1725  -12.0582   18.7178 C   0  0  0  0  0  0  0  0  0  0  0  0
  -30.5266  -12.5806   19.4905 C   0  0  0  0  0  0  0  0  0  0  0  0
  -28.6185  -13.3088   20.8682 C   0  0  0  0  0  0  0  0  0  0  0  0
  -36.2798  -32.3895   20.2839 C   0  0  1  0  0  0  0  0  0  0  0  0
  -37.1258  -28.8347   19.2442 C   0  0  1  0  0  0  0  0  0  0  0  0
  -27.6467  -13.1324   19.6900 C   0  0  2  0  0  0  0  0  0  0  0  0
  -35.8003  -23.8258   13.4860 C   0  0  0  0  0  0  0  0  0  0  0  0
  -33.4417  -29.2410   16.4832 C   0  0  0  0  0  0  0  0  0  0  0  0
  -33.0984  -27.3661   14.8598 C   0  0  0  0  0  0  0  0  0  0  0  0
  -34.9215  -29.0256   14.4786 C   0  0  0  0  0  0  0  0  0  0  0  0
  -38.0989  -23.2982   16.4716 C   0  0  0  0  0  0  0  0  0  0  0  0
  -35.1631  -27.3227   16.3316 C   0  0  1  0  0  0  0  0  0  0  0  0
  -36.6438  -24.2497   14.6782 C   0  0  2  0  0  0  0  0  0  0  0  0
  -29.3620  -19.7972   24.0170 C   0  0  0  0  0  0  0  0  0  0  0  0
  -34.1626  -28.2335   15.5655 C   0  0  0  0  0  0  0  0  0  0  0  0
  -31.8032  -17.3327   21.4951 N   0  0  0  0  0  0  0  0  0  0  0  0
  -25.8590  -11.5427   20.2884 N   0  0  0  0  0  0  0  0  0  0  0  0
  -26.2360  -12.8259   20.1570 N   0  0  0  0  0  0  0  0  0  0  0  0
  -36.2665  -27.9485   18.4564 N   0  0  0  0  0  0  0  0  0  0  0  0
  -29.9669  -13.6138   20.3647 N   0  0  0  0  0  0  0  0  0  0  0  0
  -25.4694  -15.0541   20.3985 N   0  0  0  0  0  0  0  0  0  0  0  0
  -21.8833  -12.5830   21.5943 N   0  0  0  0  0  0  0  0  0  0  0  0
  -32.0211  -20.6226   23.1596 N   0  0  0  0  0  0  0  0  0  0  0  0
  -30.0769  -15.6959   21.4669 N   0  0  0  0  0  0  0  0  0  0  0  0
  -36.9228  -31.1726   19.8366 N   0  0  0  0  0  0  0  0  0  0  0  0
  -35.8803  -26.3769   15.4834 N   0  0  0  0  0  0  0  0  0  0  0  0
  -37.2268  -23.0271   15.2999 N   0  3  0  0  0  0  0  0  0  0  0  0
  -22.6593  -14.7220   21.3094 O   0  0  0  0  0  0  0  0  0  0  0  0
  -34.1333  -20.6587   22.1438 O   0  0  0  0  0  0  0  0  0  0  0  0
  -35.0827  -29.7538   19.9899 O   0  0  0  0  0  0  0  0  0  0  0  0
  -36.9747  -28.8510   16.4266 O   0  0  0  0  0  0  0  0  0  0  0  0
  -35.1766  -24.4622   16.5860 O   0  0  0  0  0  0  0  0  0  0  0  0
  -31.8545  -14.9361   20.1845 O   0  0  0  0  0  0  0  0  0  0  0  0
  -32.8327  -22.7692   24.6756 O   0  0  0  0  0  0  0  0  0  0  0  0
  -21.6098   -7.0202   21.7169 O   0  0  0  0  0  0  0  0  0  0  0  0
  -34.4736  -24.6557   23.3550 O   0  0  0  0  0  0  0  0  0  1  0  0
  -21.8759   -2.9409   18.0165 F   0  0  0  0  0  0  0  0  0  0  0  0
  -19.3365   -6.1335   20.4175 F   0  0  0  0  0  0  0  0  0  0  0  0
  -28.1548  -19.2287   24.3051 F   0  0  0  0  0  0  0  0  0  0  0  0
  -29.9251  -20.0751   25.2291 F   0  0  0  0  0  0  0  0  0  0  0  0
  -29.0746  -21.0080   23.4584 F   0  0  0  0  0  0  0  0  0  0  0  0
  1  2  1  0  0  0  0
  1  5  2  0  0  0  0
  2  6  2  0  0  0  0
  3  8  2  0  0  0  0
  3 17  1  0  0  0  0
  4  9  1  0  0  0  0
  4 17  2  0  0  0  0
  5 19  1  0  0  0  0
  6 21  1  0  0  0  0
  7 10  2  0  0  0  0
  7 20  1  0  0  0  0
  8 25  1  0  0  0  0
  9 25  2  0  0  0  0
 10 26  1  0  0  0  0
 11 12  2  0  0  0  0
 11 27  1  0  0  0  0
 12 28  1  0  0  0  0
 13 22  1  0  0  0  0
 13 26  2  0  0  0  0
 14 23  1  0  0  0  0
 14 31  2  0  0  0  0
 15 28  2  0  0  0  0
 15 29  1  0  0  0  0
 16 24  1  0  0  0  0
 16 62  2  0  0  0  0
 17 30  1  0  0  0  0
 18 30  1  0  0  0  0
 18 32  2  0  0  0  0
 18 34  1  0  0  0  0
 19 21  2  0  0  0  0
 19 41  1  0  0  0  0
 20 22  2  0  0  0  0
 20 42  1  0  0  0  0
 21 50  1  0  0  0  0
 22 43  1  0  0  0  0
 23 24  2  0  0  0  0
 23 60  1  0  0  0  0
 24 69  1  0  0  0  0
 25 81  1  0  0  0  0
 26 82  1  0  0  0  0
 27 29  2  0  0  0  0
 27 81  1  0  0  0  0
 28 83  1  0  0  0  0
 29 84  1  0  0  0  0
 30 63  2  0  0  0  0
 31 62  1  0  0  0  0
 31 70  1  0  0  0  0
 32 64  1  0  0  0  0
 32 67  1  0  0  0  0
 33 35  2  0  0  0  0
 33 82  1  0  0  0  0
 34 68  1  0  0  0  0
 34 74  2  0  0  0  0
 35 36  1  0  0  0  0
 35 80  1  0  0  0  0
 36 69  1  0  0  0  0
 36 75  2  0  0  0  0
 37 51  1  0  0  0  0
 37 71  1  0  0  0  0
 37 76  2  0  0  0  0
 38 58  1  0  0  0  0
 38 65  1  0  0  0  0
 38 77  2  0  0  0  0
 39 59  1  0  0  0  0
 39 72  1  0  0  0  0
 39 78  2  0  0  0  0
 40 66  1  0  0  0  0
 40 70  1  0  0  0  0
 40 79  2  0  0  0  0
 41 44  1  0  0  0  0
 42 51  1  0  0  0  0
 43 65  1  0  0  0  0
 44 46  1  0  0  0  0
 45 47  1  0  0  0  0
 45 48  1  0  0  0  0
 46 50  1  0  0  0  0
 47 52  1  0  0  0  0
 48 66  1  0  0  0  0
 49 52  1  0  0  0  0
 49 66  1  0  0  0  0
 50 71  1  0  0  0  0
 51 65  1  0  0  0  0
 52 64  1  0  0  0  0
 53 59  1  0  0  0  0
 54 61  1  0  0  0  0
 55 61  1  0  0  0  0
 56 61  1  0  0  0  0
 57 73  1  0  0  0  0
 58 61  1  0  0  0  0
 58 72  1  0  0  0  0
 59 73  1  0  0  0  0
 60 85  1  0  0  0  0
 60 86  1  0  0  0  0
 60 87  1  0  0  0  0
 63 64  1  0  0  0  0
M  CHG  1  73   1
M  ISO  4  33 101  40 100  70 100  82 101
M  END
> <Batch ID>
0185

> <Smiles>
CNC(C)C(=O)NC(C(=O)N1Cc2cc([101O:1][101CH2:1]C(=O)C(=O)Nc3cnc([100NH:0][100C:0](=O)N4CCCC(n5nc(-c6ccc(Oc7ccc(F)cc7F)cc6)c(C(N)=O)c5N)C4)cc3C(F)(F)F)ccc2CC1C(=O)NC1CCCc2ccccc21)C(C)(C)C

> <Shape>
0.152

> <Color>
0.184

> <Negative vol penalty>
0.000

$$$$

  -OEChem-04052305053D

 83 91  0     1  0  0  0  0  0999 V2000
  -27.6108  -23.4137   18.0134 C   0  0  0  0  0  0  0  0  0  0  0  0
  -26.4108  -23.8740   18.5461 C   0  0  0  0  0  0  0  0  0  0  0  0
  -27.2460  -16.9088   22.5229 C   0  0  0  0  0  0  0  0  0  0  0  0
  -25.4004  -17.5926   21.1217 C   0  0  0  0  0  0  0  0  0  0  0  0
  -28.8215  -23.8160   18.5757 C   0  0  0  0  0  0  0  0  0  0  0  0
  -26.4210  -24.7360   19.6421 C   0  0  0  0  0  0  0  0  0  0  0  0
  -23.2015  -28.6071   19.0989 C   0  0  0  0  0  0  0  0  0  0  0  0
  -27.2634  -15.6645   21.8928 C   0  0  0  0  0  0  0  0  0  0  0  0
  -25.4178  -16.3484   20.4915 C   0  0  0  0  0  0  0  0  0  0  0  0
  -21.8503  -28.3479   19.3244 C   0  0  0  0  0  0  0  0  0  0  0  0
  -28.0289  -12.4367   20.4062 C   0  0  0  0  0  0  0  0  0  0  0  0
  -29.2675  -11.9179   20.0291 C   0  0  0  0  0  0  0  0  0  0  0  0
  -22.0425  -29.2996   21.5327 C   0  0  0  0  0  0  0  0  0  0  0  0
  -29.6403  -13.8385   18.6115 C   0  0  0  0  0  0  0  0  0  0  0  0
  -26.3145  -17.8729   22.1374 C   0  0  0  0  0  0  0  0  0  0  0  0
  -27.0087  -20.3122   22.4120 C   0  0  0  0  0  0  0  0  0  0  0  0
  -28.8468  -24.6910   19.6731 C   0  0  0  0  0  0  0  0  0  0  0  0
  -23.9873  -29.2055   20.0944 C   0  0  0  0  0  0  0  0  0  0  0  0
  -27.6332  -25.1493   20.2204 C   0  0  0  0  0  0  0  0  0  0  0  0
  -23.4028  -29.5676   21.3165 C   0  0  0  0  0  0  0  0  0  0  0  0
  -26.3493  -15.3843   20.8771 C   0  0  0  0  0  0  0  0  0  0  0  0
  -21.2713  -28.6915   20.5425 C   0  0  0  0  0  0  0  0  0  0  0  0
  -27.5958  -13.6563   19.8859 C   0  0  0  0  0  0  0  0  0  0  0  0
  -30.0733  -12.6189   19.1318 C   0  0  0  0  0  0  0  0  0  0  0  0
  -28.4015  -14.3572   18.9886 C   0  0  0  0  0  0  0  0  0  0  0  0
  -26.2956  -19.1582   22.7883 C   0  0  0  0  0  0  0  0  0  0  0  0
  -18.8686  -24.8901   24.2133 C   0  0  0  0  0  0  0  0  0  0  0  0
  -18.5249  -24.5432   25.5031 C   0  0  0  0  0  0  0  0  0  0  0  0
  -26.6504  -21.2561   23.3432 C   0  0  0  0  0  0  0  0  0  0  0  0
  -20.4168  -23.4433   25.3588 C   0  0  0  0  0  0  0  0  0  0  0  0
  -27.9139  -20.5130   21.3185 C   0  0  0  0  0  0  0  0  0  0  0  0
  -18.1708  -25.7486   23.2218 C   0  0  0  0  0  0  0  0  0  0  0  0
  -26.5486  -28.3284   21.7599 C   0  0  0  0  0  0  0  0  0  0  0  0
  -26.4006  -31.3789   22.8531 C   0  0  0  0  0  0  0  0  0  0  0  0
  -24.5086  -34.1584   23.4377 C   0  0  0  0  0  0  0  0  0  0  0  0
  -21.8325  -21.9474   26.8095 C   0  0  0  0  0  0  0  0  0  0  0  0
  -30.1787  -25.0605   20.2765 C   0  0  0  0  0  0  0  0  0  0  0  0
  -25.4370  -29.5028   19.8257 C   0  0  0  0  0  0  0  0  0  0  0  0
  -24.1981  -30.2307   22.4102 C   0  0  0  0  0  0  0  0  0  0  0  0
  -30.1130  -26.2727   21.2019 C   0  0  0  0  0  0  0  0  0  0  0  0
  -25.2131  -21.6716   27.8924 C   0  0  0  0  0  0  0  0  0  0  0  0
  -28.9315  -26.1502   22.1590 C   0  0  0  0  0  0  0  0  0  0  0  0
  -25.9403  -21.1065   26.6702 C   0  0  0  0  0  0  0  0  0  0  0  0
  -23.8109  -21.0835   28.0402 C   0  0  0  0  0  0  0  0  0  0  0  0
  -23.6915  -20.6241   25.6228 C   0  0  0  0  0  0  0  0  0  0  0  0
  -27.6037  -26.1050   21.3934 C   0  0  1  0  0  0  0  0  0  0  0  0
  -26.2634  -29.6477   21.0998 C   0  0  1  0  0  0  0  0  0  0  0  0
  -25.0837  -21.2353   25.3953 C   0  0  2  0  0  0  0  0  0  0  0  0
  -24.6579  -36.4816   24.3745 C   0  0  0  0  0  0  0  0  0  0  0  0
  -17.3092  -25.8915   20.0774 C   0  0  0  0  0  0  0  0  0  0  0  0
  -26.4276  -30.2341   25.6813 C   0  0  0  0  0  0  0  0  0  0  0  0
  -25.6295  -32.4564   26.5135 C   0  0  0  0  0  0  0  0  0  0  0  0
  -27.8383  -32.2753   25.3685 C   0  0  0  0  0  0  0  0  0  0  0  0
  -23.7282  -35.3748   20.8551 C   0  0  0  0  0  0  0  0  0  0  0  0
  -19.3845  -27.3144   20.0958 C   0  0  0  0  0  0  0  0  0  1  0  0
  -25.7168  -32.0683   24.0090 C   0  0  1  0  0  0  0  0  0  0  0  0
  -24.7471  -35.6239   23.1219 C   0  0  2  0  0  0  0  0  0  0  0  0
  -18.2605  -26.7131   20.9375 C   0  0  2  0  0  0  0  0  0  0  0  0
  -26.3883  -31.7443   25.3734 C   0  0  0  0  0  0  0  0  0  0  0  0
  -25.5414  -19.3492   23.8740 N   0  0  0  0  0  0  0  0  0  0  0  0
  -19.4113  -23.7132   26.1614 N   0  0  0  0  0  0  0  0  0  0  0  0
  -25.7787  -20.6342   24.1880 N   0  0  0  0  0  0  0  0  0  0  0  0
  -25.6132  -30.4948   22.1018 N   0  0  0  0  0  0  0  0  0  0  0  0
  -23.0564  -21.2457   26.7955 N   0  0  0  0  0  0  0  0  0  0  0  0
  -17.3987  -24.9681   26.1246 N   0  0  0  0  0  0  0  0  0  0  0  0
  -26.9991  -22.5490   23.5137 N   0  0  0  0  0  0  0  0  0  0  0  0
  -28.1703  -19.4374   20.4572 N   0  0  0  0  0  0  0  0  0  0  0  0
  -21.5472  -22.6328   25.6291 N   0  0  0  0  0  0  0  0  0  0  0  0
  -18.8015  -25.8912   21.9961 N   0  0  0  0  0  0  0  0  0  0  0  0
  -27.2270  -27.4322   20.9561 N   0  0  0  0  0  0  0  0  0  0  0  0
  -25.6898  -33.4891   23.6787 N   0  0  0  0  0  0  0  0  0  0  0  0
  -23.7355  -36.1142   22.1436 N   0  3  0  0  0  0  0  0  0  0  0  0
  -28.4914  -21.6089   21.1208 O   0  0  0  0  0  0  0  0  0  0  0  0
  -17.1132  -26.2891   23.5350 O   0  0  0  0  0  0  0  0  0  0  0  0
  -26.1817  -28.1382   22.9135 O   0  0  0  0  0  0  0  0  0  0  0  0
  -27.5875  -31.6214   22.6207 O   0  0  0  0  0  0  0  0  0  0  0  0
  -23.3865  -33.6582   23.4712 O   0  0  0  0  0  0  0  0  0  0  0  0
  -21.1049  -21.9632   27.8057 O   0  0  0  0  0  0  0  0  0  0  0  0
  -26.3662  -14.1703   20.2618 O   0  0  0  0  0  0  0  0  0  0  0  0
  -19.9528  -28.4391   20.7654 O   0  0  0  0  0  0  0  0  0  1  0  0
  -31.2634  -12.1214   18.7710 F   0  0  0  0  0  0  0  0  0  0  0  0
  -27.9914  -15.5300   18.4863 F   0  0  0  0  0  0  0  0  0  0  0  0
  -20.3612  -24.1546   23.7981 S   0  0  0  0  0  0  0  0  0  0  0  0
  1  2  1  0  0  0  0
  1  5  2  0  0  0  0
  2  6  2  0  0  0  0
  3  8  2  0  0  0  0
  3 15  1  0  0  0  0
  4  9  1  0  0  0  0
  4 15  2  0  0  0  0
  5 17  1  0  0  0  0
  6 19  1  0  0  0  0
  7 10  2  0  0  0  0
  7 18  1  0  0  0  0
  8 21  1  0  0  0  0
  9 21  2  0  0  0  0
 10 22  1  0  0  0  0
 11 12  2  0  0  0  0
 11 23  1  0  0  0  0
 12 24  1  0  0  0  0
 13 20  1  0  0  0  0
 13 22  2  0  0  0  0
 14 24  2  0  0  0  0
 14 25  1  0  0  0  0
 15 26  1  0  0  0  0
 16 26  1  0  0  0  0
 16 29  2  0  0  0  0
 16 31  1  0  0  0  0
 17 19  2  0  0  0  0
 17 37  1  0  0  0  0
 18 20  2  0  0  0  0
 18 38  1  0  0  0  0
 19 46  1  0  0  0  0
 20 39  1  0  0  0  0
 21 79  1  0  0  0  0
 22 80  1  0  0  0  0
 23 25  2  0  0  0  0
 23 79  1  0  0  0  0
 24 81  1  0  0  0  0
 25 82  1  0  0  0  0
 26 60  2  0  0  0  0
 27 28  2  0  0  0  0
 27 32  1  0  0  0  0
 27 83  1  0  0  0  0
 28 61  1  0  0  0  0
 28 65  1  0  0  0  0
 29 62  1  0  0  0  0
 29 66  1  0  0  0  0
 30 61  2  0  0  0  0
 30 68  1  0  0  0  0
 30 83  1  0  0  0  0
 31 67  1  0  0  0  0
 31 73  2  0  0  0  0
 32 69  1  0  0  0  0
 32 74  2  0  0  0  0
 33 47  1  0  0  0  0
 33 70  1  0  0  0  0
 33 75  2  0  0  0  0
 34 56  1  0  0  0  0
 34 63  1  0  0  0  0
 34 76  2  0  0  0  0
 35 57  1  0  0  0  0
 35 71  1  0  0  0  0
 35 77  2  0  0  0  0
 36 64  1  0  0  0  0
 36 68  1  0  0  0  0
 36 78  2  0  0  0  0
 37 40  1  0  0  0  0
 38 47  1  0  0  0  0
 39 63  1  0  0  0  0
 40 42  1  0  0  0  0
 41 43  1  0  0  0  0
 41 44  1  0  0  0  0
 42 46  1  0  0  0  0
 43 48  1  0  0  0  0
 44 64  1  0  0  0  0
 45 48  1  0  0  0  0
 45 64  1  0  0  0  0
 46 70  1  0  0  0  0
 47 63  1  0  0  0  0
 48 62  1  0  0  0  0
 49 57  1  0  0  0  0
 50 58  1  0  0  0  0
 51 59  1  0  0  0  0
 52 59  1  0  0  0  0
 53 59  1  0  0  0  0
 54 72  1  0  0  0  0
 55 58  1  0  0  0  0
 55 80  1  0  0  0  0
 56 59  1  0  0  0  0
 56 71  1  0  0  0  0
 57 72  1  0  0  0  0
 58 69  1  0  0  0  0
 60 62  1  0  0  0  0
M  CHG  1  72   1
M  ISO  4  36 100  55 101  68 100  80 101
M  END
> <Batch ID>
0185

> <Smiles>
CNC(C)C(=O)NC(C(=O)N1Cc2cc([101O:1][101CH2:1]C(C)NC(=O)c3sc([100NH:0][100C:0](=O)N4CCCC(n5nc(-c6ccc(Oc7ccc(F)cc7F)cc6)c(C(N)=O)c5N)C4)nc3N)ccc2CC1C(=O)NC1CCCc2ccccc21)C(C)(C)C

> <Shape>
0.262

> <Color>
0.061

> <Negative vol penalty>
0.000

$$$$

  -OEChem-04052305053D

 84 92  0     1  0  0  0  0  0999 V2000
  -24.2179  -19.4569   17.7604 C   0  0  0  0  0  0  0  0  0  0  0  0
  -25.1968  -19.7878   18.6918 C   0  0  0  0  0  0  0  0  0  0  0  0
  -22.9938   -9.9182   19.9726 C   0  0  0  0  0  0  0  0  0  0  0  0
  -23.7335   -9.9394   22.2725 C   0  0  0  0  0  0  0  0  0  0  0  0
  -23.8376  -20.3841   16.7912 C   0  0  0  0  0  0  0  0  0  0  0  0
  -25.7968  -21.0460   18.6538 C   0  0  0  0  0  0  0  0  0  0  0  0
  -26.1895  -23.1504   23.2432 C   0  0  0  0  0  0  0  0  0  0  0  0
  -22.2253   -8.7830   20.2302 C   0  0  0  0  0  0  0  0  0  0  0  0
  -22.9650   -8.8042   22.5301 C   0  0  0  0  0  0  0  0  0  0  0  0
  -27.2169  -22.6934   24.0674 C   0  0  0  0  0  0  0  0  0  0  0  0
  -21.4810   -5.7017   23.7059 C   0  0  0  0  0  0  0  0  0  0  0  0
  -22.0684   -4.6752   24.4452 C   0  0  0  0  0  0  0  0  0  0  0  0
  -28.5406  -24.6215   23.4766 C   0  0  0  0  0  0  0  0  0  0  0  0
  -23.7834   -4.4425   22.7595 C   0  0  0  0  0  0  0  0  0  0  0  0
  -29.8217  -17.6769   22.7110 C   0  0  0  0  0  0  0  0  0  0  0  0
  -23.7480  -10.4963   20.9937 C   0  0  0  0  0  0  0  0  0  0  0  0
  -24.1404  -13.0126   20.8452 C   0  0  0  0  0  0  0  0  0  0  0  0
  -24.4263  -21.6578   16.7473 C   0  0  0  0  0  0  0  0  0  0  0  0
  -26.3345  -24.3429   22.5198 C   0  0  0  0  0  0  0  0  0  0  0  0
  -25.4250  -21.9907   17.6823 C   0  0  0  0  0  0  0  0  0  0  0  0
  -27.5126  -25.0929   22.6458 C   0  0  0  0  0  0  0  0  0  0  0  0
  -22.2108   -8.2261   21.5090 C   0  0  0  0  0  0  0  0  0  0  0  0
  -28.3938  -23.4274   24.1820 C   0  0  0  0  0  0  0  0  0  0  0  0
  -22.0447   -6.0986   22.4933 C   0  0  0  0  0  0  0  0  0  0  0  0
  -23.2196   -4.0455   23.9721 C   0  0  0  0  0  0  0  0  0  0  0  0
  -23.1960   -5.4690   22.0201 C   0  0  0  0  0  0  0  0  0  0  0  0
  -24.5425  -11.6686   20.7281 C   0  0  0  0  0  0  0  0  0  0  0  0
  -31.4771  -19.2536   22.7675 C   0  0  0  0  0  0  0  0  0  0  0  0
  -30.6115  -16.8761   21.9158 C   0  0  0  0  0  0  0  0  0  0  0  0
  -32.2673  -18.4525   21.9728 C   0  0  0  0  0  0  0  0  0  0  0  0
  -25.2502  -13.7359   20.4825 C   0  0  0  0  0  0  0  0  0  0  0  0
  -22.8767  -13.5584   21.2462 C   0  0  0  0  0  0  0  0  0  0  0  0
  -31.9187  -20.5826   23.2634 C   0  0  0  0  0  0  0  0  0  0  0  0
  -26.3673  -25.1047   19.4339 C   0  0  0  0  0  0  0  0  0  0  0  0
  -26.4591  -28.1366   20.5833 C   0  0  0  0  0  0  0  0  0  0  0  0
  -27.2458  -30.2375   23.1551 C   0  0  0  0  0  0  0  0  0  0  0  0
  -30.7341  -14.6767   20.6934 C   0  0  0  0  0  0  0  0  0  0  0  0
  -24.0162  -22.6097   15.6517 C   0  0  0  0  0  0  0  0  0  0  0  0
  -25.2064  -24.8360   21.6557 C   0  0  0  0  0  0  0  0  0  0  0  0
  -27.7099  -26.3899   21.9061 C   0  0  0  0  0  0  0  0  0  0  0  0
  -24.4336  -24.0547   15.9125 C   0  0  0  0  0  0  0  0  0  0  0  0
  -29.5933  -12.2553   18.3455 C   0  0  0  0  0  0  0  0  0  0  0  0
  -25.8867  -24.1159   16.3723 C   0  0  0  0  0  0  0  0  0  0  0  0
  -28.1445  -11.9974   18.7657 C   0  0  0  0  0  0  0  0  0  0  0  0
  -30.5022  -12.4814   19.5524 C   0  0  0  0  0  0  0  0  0  0  0  0
  -28.5978  -13.2604   20.9073 C   0  0  0  0  0  0  0  0  0  0  0  0
  -26.0814  -23.3542   17.6889 C   0  0  1  0  0  0  0  0  0  0  0  0
  -25.6657  -25.8000   20.5661 C   0  0  1  0  0  0  0  0  0  0  0  0
  -27.6321  -13.0913   19.7230 C   0  0  2  0  0  0  0  0  0  0  0  0
  -27.2439  -32.6665   23.7855 C   0  0  0  0  0  0  0  0  0  0  0  0
  -31.6889  -22.1285   26.6034 C   0  0  0  0  0  0  0  0  0  0  0  0
  -28.9269  -28.5870   18.8463 C   0  0  0  0  0  0  0  0  0  0  0  0
  -29.4216  -30.6331   20.2016 C   0  0  0  0  0  0  0  0  0  0  0  0
  -27.3114  -30.4957   18.8784 C   0  0  0  0  0  0  0  0  0  0  0  0
  -25.3838  -29.7708   25.4076 C   0  0  0  0  0  0  0  0  0  0  0  0
  -30.7312  -23.3277   24.6093 C   0  0  0  0  0  0  0  0  0  1  0  0
  -27.5546  -29.0998   20.9723 C   0  0  1  0  0  0  0  0  0  0  0  0
  -26.4649  -31.3607   23.8131 C   0  0  2  0  0  0  0  0  0  0  0  0
  -31.7069  -22.2531   25.0855 C   0  0  2  0  0  0  0  0  0  0  0  0
  -28.3010  -29.6785   19.7372 C   0  0  0  0  0  0  0  0  0  0  0  0
  -30.2403  -18.8801   23.1511 N   0  0  0  0  0  0  0  0  0  0  0  0
  -25.8089  -11.5428   20.3224 N   0  0  0  0  0  0  0  0  0  0  0  0
  -31.8485  -17.2495   21.5325 N   0  0  0  0  0  0  0  0  0  0  0  0
  -26.2121  -12.8170   20.1815 N   0  0  0  0  0  0  0  0  0  0  0  0
  -26.5805  -26.8270   21.0689 N   0  0  0  0  0  0  0  0  0  0  0  0
  -29.9559  -13.5340   20.4118 N   0  0  0  0  0  0  0  0  0  0  0  0
  -33.5562  -18.8998   21.6045 N   0  0  0  0  0  0  0  0  0  0  0  0
  -25.4873  -15.0620   20.3948 N   0  0  0  0  0  0  0  0  0  0  0  0
  -21.8442  -12.6735   21.5857 N   0  0  0  0  0  0  0  0  0  0  0  0
  -30.0979  -15.6245   21.4944 N   0  0  0  0  0  0  0  0  0  0  0  0
  -31.3926  -20.9776   24.4830 N   0  0  0  0  0  0  0  0  0  0  0  0
  -25.6017  -24.1420   18.8042 N   0  0  0  0  0  0  0  0  0  0  0  0
  -26.9287  -30.1093   21.8193 N   0  0  0  0  0  0  0  0  0  0  0  0
  -26.1666  -31.0213   25.2333 N   0  3  0  0  0  0  0  0  0  0  0  0
  -22.6641  -14.7940   21.2861 O   0  0  0  0  0  0  0  0  0  0  0  0
  -32.6877  -21.2530   22.5795 O   0  0  0  0  0  0  0  0  0  0  0  0
  -27.5175  -25.4193   19.1516 O   0  0  0  0  0  0  0  0  0  0  0  0
  -25.5263  -28.5336   19.8805 O   0  0  0  0  0  0  0  0  0  0  0  0
  -28.0589  -29.5457   23.7641 O   0  0  0  0  0  0  0  0  0  0  0  0
  -31.8704  -14.8174   20.2340 O   0  0  0  0  0  0  0  0  0  0  0  0
  -21.4608   -7.1185   21.7608 O   0  0  0  0  0  0  0  0  0  0  0  0
  -29.3984  -22.9833   24.9853 O   0  0  0  0  0  0  0  0  0  1  0  0
  -23.7845   -3.0608   24.6829 F   0  0  0  0  0  0  0  0  0  0  0  0
  -23.7428   -5.8468   20.8565 F   0  0  0  0  0  0  0  0  0  0  0  0
  1  2  1  0  0  0  0
  1  5  2  0  0  0  0
  2  6  2  0  0  0  0
  3  8  2  0  0  0  0
  3 16  1  0  0  0  0
  4  9  1  0  0  0  0
  4 16  2  0  0  0  0
  5 18  1  0  0  0  0
  6 20  1  0  0  0  0
  7 10  2  0  0  0  0
  7 19  1  0  0  0  0
  8 22  1  0  0  0  0
  9 22  2  0  0  0  0
 10 23  1  0  0  0  0
 11 12  2  0  0  0  0
 11 24  1  0  0  0  0
 12 25  1  0  0  0  0
 13 21  1  0  0  0  0
 13 23  2  0  0  0  0
 14 25  2  0  0  0  0
 14 26  1  0  0  0  0
 15 29  1  0  0  0  0
 15 61  2  0  0  0  0
 16 27  1  0  0  0  0
 17 27  1  0  0  0  0
 17 31  2  0  0  0  0
 17 32  1  0  0  0  0
 18 20  2  0  0  0  0
 18 38  1  0  0  0  0
 19 21  2  0  0  0  0
 19 39  1  0  0  0  0
 20 47  1  0  0  0  0
 21 40  1  0  0  0  0
 22 81  1  0  0  0  0
 23 82  1  0  0  0  0
 24 26  2  0  0  0  0
 24 81  1  0  0  0  0
 25 83  1  0  0  0  0
 26 84  1  0  0  0  0
 27 62  2  0  0  0  0
 28 30  2  0  0  0  0
 28 33  1  0  0  0  0
 28 61  1  0  0  0  0
 29 63  2  0  0  0  0
 29 70  1  0  0  0  0
 30 63  1  0  0  0  0
 30 67  1  0  0  0  0
 31 64  1  0  0  0  0
 31 68  1  0  0  0  0
 32 69  1  0  0  0  0
 32 75  2  0  0  0  0
 33 71  1  0  0  0  0
 33 76  2  0  0  0  0
 34 48  1  0  0  0  0
 34 72  1  0  0  0  0
 34 77  2  0  0  0  0
 35 57  1  0  0  0  0
 35 65  1  0  0  0  0
 35 78  2  0  0  0  0
 36 58  1  0  0  0  0
 36 73  1  0  0  0  0
 36 79  2  0  0  0  0
 37 66  1  0  0  0  0
 37 70  1  0  0  0  0
 37 80  2  0  0  0  0
 38 41  1  0  0  0  0
 39 48  1  0  0  0  0
 40 65  1  0  0  0  0
 41 43  1  0  0  0  0
 42 44  1  0  0  0  0
 42 45  1  0  0  0  0
 43 47  1  0  0  0  0
 44 49  1  0  0  0  0
 45 66  1  0  0  0  0
 46 49  1  0  0  0  0
 46 66  1  0  0  0  0
 47 72  1  0  0  0  0
 48 65  1  0  0  0  0
 49 64  1  0  0  0  0
 50 58  1  0  0  0  0
 51 59  1  0  0  0  0
 52 60  1  0  0  0  0
 53 60  1  0  0  0  0
 54 60  1  0  0  0  0
 55 74  1  0  0  0  0
 56 59  1  0  0  0  0
 56 82  1  0  0  0  0
 57 60  1  0  0  0  0
 57 73  1  0  0  0  0
 58 74  1  0  0  0  0
 59 71  1  0  0  0  0
 62 64  1  0  0  0  0
M  CHG  1  74   1
M  ISO  4  37 100  56 101  70 100  82 101
M  END
> <Batch ID>
0185

> <Smiles>
CNC(C)C(=O)NC(C(=O)N1Cc2cc([101O:1][101CH2:1]C(C)NC(=O)c3ncc([100NH:0][100C:0](=O)N4CCCC(n5nc(-c6ccc(Oc7ccc(F)cc7F)cc6)c(C(N)=O)c5N)C4)nc3N)ccc2CC1C(=O)NC1CCCc2ccccc21)C(C)(C)C

> <Shape>
0.256

> <Color>
0.183

> <Negative vol penalty>
0.000

$$$$

  -OEChem-04052305053D

 88 96  0     1  0  0  0  0  0999 V2000
  -21.8296  -23.3346   14.9107 C   0  0  0  0  0  0  0  0  0  0  0  0
  -22.6199  -22.2927   15.3854 C   0  0  0  0  0  0  0  0  0  0  0  0
  -21.5655  -22.6403   23.1859 C   0  0  0  0  0  0  0  0  0  0  0  0
  -21.2062  -21.8901   20.9176 C   0  0  0  0  0  0  0  0  0  0  0  0
  -22.3822  -24.6023   14.7334 C   0  0  0  0  0  0  0  0  0  0  0  0
  -23.9637  -22.5177   15.6821 C   0  0  0  0  0  0  0  0  0  0  0  0
  -27.2305  -19.9164   20.1617 C   0  0  0  0  0  0  0  0  0  0  0  0
  -21.5127  -23.9661   22.7558 C   0  0  0  0  0  0  0  0  0  0  0  0
  -21.1533  -23.2159   20.4875 C   0  0  0  0  0  0  0  0  0  0  0  0
  -28.1208  -18.8436   20.1718 C   0  0  0  0  0  0  0  0  0  0  0  0
  -21.1124  -27.5518   22.3110 C   0  0  0  0  0  0  0  0  0  0  0  0
  -20.3561  -28.4487   23.0654 C   0  0  0  0  0  0  0  0  0  0  0  0
  -29.9675  -20.3820   19.9660 C   0  0  0  0  0  0  0  0  0  0  0  0
  -26.9963  -14.4302   17.2952 C   0  0  0  0  0  0  0  0  0  0  0  0
  -18.3798  -27.1170   22.6674 C   0  0  0  0  0  0  0  0  0  0  0  0
  -21.4123  -21.6023   22.2668 C   0  0  0  0  0  0  0  0  0  0  0  0
  -20.3910  -19.4356   23.1443 C   0  0  0  0  0  0  0  0  0  0  0  0
  -23.7310  -24.8453   15.0372 C   0  0  0  0  0  0  0  0  0  0  0  0
  -27.7021  -21.2316   20.0425 C   0  0  0  0  0  0  0  0  0  0  0  0
  -24.5352  -23.7896   15.5074 C   0  0  0  0  0  0  0  0  0  0  0  0
  -29.0813  -21.4699   19.9573 C   0  0  0  0  0  0  0  0  0  0  0  0
  -26.9484  -14.6620   18.7002 C   0  0  0  0  0  0  0  0  0  0  0  0
  -21.3066  -24.2540   21.4066 C   0  0  0  0  0  0  0  0  0  0  0  0
  -29.4894  -19.0761   20.0710 C   0  0  0  0  0  0  0  0  0  0  0  0
  -20.5024  -26.4375   21.7347 C   0  0  0  0  0  0  0  0  0  0  0  0
  -18.9898  -28.2313   23.2436 C   0  0  0  0  0  0  0  0  0  0  0  0
  -19.1362  -26.2201   21.9129 C   0  0  0  0  0  0  0  0  0  0  0  0
  -21.4673  -20.2325   22.7104 C   0  0  0  0  0  0  0  0  0  0  0  0
  -25.8068  -14.7482   16.6774 C   0  0  0  0  0  0  0  0  0  0  0  0
  -20.9624  -18.2254   23.4531 C   0  0  0  0  0  0  0  0  0  0  0  0
  -25.7240  -15.1487   19.1028 C   0  0  0  0  0  0  0  0  0  0  0  0
  -18.9991  -19.7601   23.2579 C   0  0  0  0  0  0  0  0  0  0  0  0
  -27.3277  -23.5650   17.9167 C   0  0  0  0  0  0  0  0  0  0  0  0
  -29.1086  -12.4163   18.8913 C   0  0  0  0  0  0  0  0  0  0  0  0
  -28.9965  -25.2911   20.0979 C   0  0  0  0  0  0  0  0  0  0  0  0
  -31.2033  -25.3126   22.7011 C   0  0  0  0  0  0  0  0  0  0  0  0
  -25.9230  -15.4605   21.5947 C   0  0  0  0  0  0  0  0  0  0  0  0
  -24.2956  -26.2208   14.7845 C   0  0  0  0  0  0  0  0  0  0  0  0
  -26.7304  -22.3796   20.0602 C   0  0  0  0  0  0  0  0  0  0  0  0
  -29.6398  -22.8644   19.8479 C   0  0  0  0  0  0  0  0  0  0  0  0
  -25.6333  -26.4669   15.4775 C   0  0  0  0  0  0  0  0  0  0  0  0
  -25.0857  -16.3045   24.9508 C   0  0  0  0  0  0  0  0  0  0  0  0
  -26.5724  -25.2845   15.2606 C   0  0  0  0  0  0  0  0  0  0  0  0
  -23.9607  -17.3305   24.7968 C   0  0  0  0  0  0  0  0  0  0  0  0
  -26.1449  -16.4563   23.8606 C   0  0  0  0  0  0  0  0  0  0  0  0
  -24.5021  -17.4736   22.3323 C   0  0  0  0  0  0  0  0  0  0  0  0
  -25.9908  -24.0003   15.8639 C   0  0  1  0  0  0  0  0  0  0  0  0
  -27.2889  -23.6451   19.4166 C   0  0  1  0  0  0  0  0  0  0  0  0
  -23.3782  -17.3182   23.3698 C   0  0  2  0  0  0  0  0  0  0  0  0
  -25.4589  -14.6496   15.2431 C   0  0  0  0  0  0  0  0  0  0  0  0
  -29.6681  -10.3144   17.6031 C   0  0  0  0  0  0  0  0  0  0  0  0
  -32.5711  -26.2464   24.5865 C   0  0  0  0  0  0  0  0  0  0  0  0
  -30.9236  -26.0324   17.8514 C   0  0  0  0  0  0  0  0  0  0  0  0
  -32.5637  -26.7666   19.5949 C   0  0  0  0  0  0  0  0  0  0  0  0
  -30.3558  -27.9113   19.4012 C   0  0  0  0  0  0  0  0  0  0  0  0
  -31.9200  -15.8480   21.2853 C   0  0  0  0  0  0  0  0  0  0  0  0
  -29.0047  -24.9221   24.6435 C   0  0  0  0  0  0  0  0  0  0  0  0
  -29.9295  -11.8001   17.7709 C   0  0  0  0  0  0  0  0  0  0  0  0
  -30.3605  -14.2244   20.1695 C   0  0  0  0  0  0  0  0  0  0  0  0
  -29.8035  -16.7220   20.1952 C   0  0  0  0  0  0  0  0  0  1  0  0
  -29.2918  -13.9113   19.1127 C   0  0  2  0  0  0  0  0  0  0  0  0
  -30.4589  -25.5695   20.3486 C   0  0  1  0  0  0  0  0  0  0  0  0
  -31.1684  -26.0171   24.0453 C   0  0  2  0  0  0  0  0  0  0  0  0
  -31.0652  -26.5434   19.2991 C   0  0  0  0  0  0  0  0  0  0  0  0
  -30.9111  -15.6657   20.1495 C   0  0  1  0  0  0  0  0  0  0  0  0
  -22.6342  -19.5833   22.7397 N   0  0  0  0  0  0  0  0  0  0  0  0
  -22.2945  -18.3657   23.1958 N   0  0  0  0  0  0  0  0  0  0  0  0
  -28.6490  -23.9532   19.8631 N   0  0  0  0  0  0  0  0  0  0  0  0
  -25.5204  -16.4313   22.5361 N   0  0  0  0  0  0  0  0  0  0  0  0
  -20.4505  -17.0656   23.9170 N   0  0  0  0  0  0  0  0  0  0  0  0
  -18.5821  -21.0490   22.8984 N   0  0  0  0  0  0  0  0  0  0  0  0
  -28.0110  -14.4233   19.5532 N   0  0  0  0  0  0  0  0  0  0  0  0
  -25.2363  -15.5136   20.3821 N   0  0  0  0  0  0  0  0  0  0  0  0
  -26.1669  -23.9917   17.3003 N   0  0  0  0  0  0  0  0  0  0  0  0
  -30.5545  -26.0404   21.7261 N   0  0  0  0  0  0  0  0  0  0  0  0
  -30.4093  -25.2038   25.0369 N   0  3  0  0  0  0  0  0  0  0  0  0
  -18.1527  -18.9369   23.6816 O   0  0  0  0  0  0  0  0  0  0  0  0
  -28.3366  -23.1482   17.3598 O   0  0  0  0  0  0  0  0  0  0  0  0
  -28.3139  -11.7575   19.5624 O   0  0  0  0  0  0  0  0  0  0  0  0
  -28.1911  -26.2252   20.1171 O   0  0  0  0  0  0  0  0  0  0  0  0
  -31.7543  -24.2271   22.5321 O   0  0  0  0  0  0  0  0  0  0  0  0
  -26.7925  -14.6251   21.8554 O   0  0  0  0  0  0  0  0  0  0  0  0
  -21.2548  -25.5476   20.9866 O   0  0  0  0  0  0  0  0  0  0  0  0
  -30.3605  -18.0307   20.0799 O   0  0  0  0  0  0  0  0  0  1  0  0
  -18.2640  -29.0918   23.9694 F   0  0  0  0  0  0  0  0  0  0  0  0
  -18.5448  -25.1508   21.3627 F   0  0  0  0  0  0  0  0  0  0  0  0
  -31.5991  -15.8416   18.9809 F   0  0  0  0  0  0  0  0  0  0  0  0
  -24.6390  -15.3239   17.7897 S   0  0  0  0  0  0  0  0  0  0  0  0
  1  2  1  0  0  0  0
  1  5  2  0  0  0  0
  2  6  2  0  0  0  0
  3  8  2  0  0  0  0
  3 16  1  0  0  0  0
  4  9  1  0  0  0  0
  4 16  2  0  0  0  0
  5 18  1  0  0  0  0
  6 20  1  0  0  0  0
  7 10  2  0  0  0  0
  7 19  1  0  0  0  0
  8 23  1  0  0  0  0
  9 23  2  0  0  0  0
 10 24  1  0  0  0  0
 11 12  2  0  0  0  0
 11 25  1  0  0  0  0
 12 26  1  0  0  0  0
 13 21  1  0  0  0  0
 13 24  2  0  0  0  0
 14 22  1  0  0  0  0
 14 29  2  0  0  0  0
 15 26  2  0  0  0  0
 15 27  1  0  0  0  0
 16 28  1  0  0  0  0
 17 28  1  0  0  0  0
 17 30  2  0  0  0  0
 17 32  1  0  0  0  0
 18 20  2  0  0  0  0
 18 38  1  0  0  0  0
 19 21  2  0  0  0  0
 19 39  1  0  0  0  0
 20 47  1  0  0  0  0
 21 40  1  0  0  0  0
 22 31  2  0  0  0  0
 22 72  1  0  0  0  0
 23 83  1  0  0  0  0
 24 84  1  0  0  0  0
 25 27  2  0  0  0  0
 25 83  1  0  0  0  0
 26 85  1  0  0  0  0
 27 86  1  0  0  0  0
 28 66  2  0  0  0  0
 29 50  1  0  0  0  0
 29 88  1  0  0  0  0
 30 67  1  0  0  0  0
 30 70  1  0  0  0  0
 31 73  1  0  0  0  0
 31 88  1  0  0  0  0
 32 71  1  0  0  0  0
 32 77  2  0  0  0  0
 33 48  1  0  0  0  0
 33 74  1  0  0  0  0
 33 78  2  0  0  0  0
 34 58  1  0  0  0  0
 34 61  1  0  0  0  0
 34 79  2  0  0  0  0
 35 62  1  0  0  0  0
 35 68  1  0  0  0  0
 35 80  2  0  0  0  0
 36 63  1  0  0  0  0
 36 75  1  0  0  0  0
 36 81  2  0  0  0  0
 37 69  1  0  0  0  0
 37 73  1  0  0  0  0
 37 82  2  0  0  0  0
 38 41  1  0  0  0  0
 39 48  1  0  0  0  0
 40 68  1  0  0  0  0
 41 43  1  0  0  0  0
 42 44  1  0  0  0  0
 42 45  1  0  0  0  0
 43 47  1  0  0  0  0
 44 49  1  0  0  0  0
 45 69  1  0  0  0  0
 46 49  1  0  0  0  0
 46 69  1  0  0  0  0
 47 74  1  0  0  0  0
 48 68  1  0  0  0  0
 49 67  1  0  0  0  0
 51 58  1  0  0  0  0
 52 63  1  0  0  0  0
 53 64  1  0  0  0  0
 54 64  1  0  0  0  0
 55 64  1  0  0  0  0
 56 65  1  0  0  0  0
 57 76  1  0  0  0  0
 59 61  1  0  0  0  0
 59 65  1  0  0  0  0
 60 65  1  0  0  0  0
 60 84  1  0  0  0  0
 61 72  1  0  0  0  0
 62 64  1  0  0  0  0
 62 75  1  0  0  0  0
 63 76  1  0  0  0  0
 65 87  1  0  0  0  0
 66 67  1  0  0  0  0
M  CHG  1  76   1
M  ISO  4  37 100  60 101  73 100  84 101
M  END
> <Batch ID>
0185

> <Smiles>
CCC(=O)C(CC(C)(F)[101CH2:1][101O:1]c1ccc2c(c1)CN(C(=O)C(NC(=O)C(C)NC)C(C)(C)C)C(C(=O)NC1CCCc3ccccc31)C2)Nc1cc(C)sc1[100NH:0][100C:0](=O)N1CCCC(n2nc(-c3ccc(Oc4ccc(F)cc4F)cc3)c(C(N)=O)c2N)C1

> <Shape>
0.197

> <Color>
0.062

> <Negative vol penalty>
0.000

$$$$

  -OEChem-04052305053D

 84 92  0     1  0  0  0  0  0999 V2000
  -19.4654  -24.9484   24.3319 C   0  0  0  0  0  0  0  0  0  0  0  0
  -20.7941  -25.0278   23.9273 C   0  0  0  0  0  0  0  0  0  0  0  0
  -25.5665  -14.0329   21.6019 C   0  0  0  0  0  0  0  0  0  0  0  0
  -25.4433  -14.4396   19.2235 C   0  0  0  0  0  0  0  0  0  0  0  0
  -18.5547  -25.9225   23.9249 C   0  0  0  0  0  0  0  0  0  0  0  0
  -21.2126  -26.0808   23.1146 C   0  0  0  0  0  0  0  0  0  0  0  0
  -26.6619  -28.8736   23.2222 C   0  0  0  0  0  0  0  0  0  0  0  0
  -25.4400  -12.6626   21.3742 C   0  0  0  0  0  0  0  0  0  0  0  0
  -25.3169  -13.0692   18.9958 C   0  0  0  0  0  0  0  0  0  0  0  0
  -27.8074  -28.7255   22.4414 C   0  0  0  0  0  0  0  0  0  0  0  0
  -24.7883   -9.0857   21.4416 C   0  0  0  0  0  0  0  0  0  0  0  0
  -23.9068   -8.3707   22.2522 C   0  0  0  0  0  0  0  0  0  0  0  0
  -27.0943  -30.5675   21.0566 C   0  0  0  0  0  0  0  0  0  0  0  0
  -24.2520  -25.4474   19.1087 C   0  0  0  0  0  0  0  0  0  0  0  0
  -22.0803   -9.7544   21.4866 C   0  0  0  0  0  0  0  0  0  0  0  0
  -25.5680  -14.9214   20.5266 C   0  0  0  0  0  0  0  0  0  0  0  0
  -26.8908  -17.0820   20.8266 C   0  0  0  0  0  0  0  0  0  0  0  0
  -18.9643  -26.9932   23.1147 C   0  0  0  0  0  0  0  0  0  0  0  0
  -25.7170  -29.8644   22.9190 C   0  0  0  0  0  0  0  0  0  0  0  0
  -20.3061  -27.0694   22.6953 C   0  0  0  0  0  0  0  0  0  0  0  0
  -25.9389  -30.7277   21.8366 C   0  0  0  0  0  0  0  0  0  0  0  0
  -25.1117  -26.4451   18.5650 C   0  0  0  0  0  0  0  0  0  0  0  0
  -25.3153  -12.1808   20.0712 C   0  0  0  0  0  0  0  0  0  0  0  0
  -28.0223  -29.5706   21.3567 C   0  0  0  0  0  0  0  0  0  0  0  0
  -24.3159  -10.1352   20.6535 C   0  0  0  0  0  0  0  0  0  0  0  0
  -22.5528   -8.7049   22.2747 C   0  0  0  0  0  0  0  0  0  0  0  0
  -22.9618  -10.4695   20.6759 C   0  0  0  0  0  0  0  0  0  0  0  0
  -25.6980  -16.3371   20.7612 C   0  0  0  0  0  0  0  0  0  0  0  0
  -26.4786  -18.3699   21.0672 C   0  0  0  0  0  0  0  0  0  0  0  0
  -24.8100  -24.1899   19.0397 C   0  0  0  0  0  0  0  0  0  0  0  0
  -26.2944  -25.9120   18.1013 C   0  0  0  0  0  0  0  0  0  0  0  0
  -28.2498  -16.6485   20.6825 C   0  0  0  0  0  0  0  0  0  0  0  0
  -22.6506  -29.8587   22.0818 C   0  0  0  0  0  0  0  0  0  0  0  0
  -22.9666  -33.0736   22.3763 C   0  0  0  0  0  0  0  0  0  0  0  0
  -25.0243  -35.7962   22.3583 C   0  0  0  0  0  0  0  0  0  0  0  0
  -23.0827  -22.6659   20.0595 C   0  0  0  0  0  0  0  0  0  0  0  0
  -17.9332  -27.9963   22.6613 C   0  0  0  0  0  0  0  0  0  0  0  0
  -24.4997  -30.0285   23.7871 C   0  0  0  0  0  0  0  0  0  0  0  0
  -24.9651  -31.8205   21.4813 C   0  0  0  0  0  0  0  0  0  0  0  0
  -18.5383  -29.2841   22.1085 C   0  0  0  0  0  0  0  0  0  0  0  0
  -21.9302  -20.1887   22.3426 C   0  0  0  0  0  0  0  0  0  0  0  0
  -19.6688  -28.9677   21.1345 C   0  0  0  0  0  0  0  0  0  0  0  0
  -22.9059  -19.0271   22.1401 C   0  0  0  0  0  0  0  0  0  0  0  0
  -21.6214  -20.9054   21.0294 C   0  0  0  0  0  0  0  0  0  0  0  0
  -23.7745  -20.1886   20.0705 C   0  0  0  0  0  0  0  0  0  0  0  0
  -20.8037  -28.2099   21.8340 C   0  0  1  0  0  0  0  0  0  0  0  0
  -23.3512  -30.7391   23.0776 C   0  0  1  0  0  0  0  0  0  0  0  0
  -24.1664  -19.4766   21.3755 C   0  0  2  0  0  0  0  0  0  0  0  0
  -24.7682  -27.8853   18.5088 C   0  0  0  0  0  0  0  0  0  0  0  0
  -24.9875  -38.2947   22.5894 C   0  0  0  0  0  0  0  0  0  0  0  0
  -30.9346  -28.1790   19.6115 C   0  0  0  0  0  0  0  0  0  0  0  0
  -21.8527  -33.3166   19.5461 C   0  0  0  0  0  0  0  0  0  0  0  0
  -22.7158  -35.6659   19.4829 C   0  0  0  0  0  0  0  0  0  0  0  0
  -20.9846  -35.0197   21.1587 C   0  0  0  0  0  0  0  0  0  0  0  0
  -26.7762  -35.7176   24.7423 C   0  0  0  0  0  0  0  0  0  0  0  0
  -28.6351  -27.1969   19.8722 C   0  0  0  0  0  0  0  0  0  0  0  0
  -23.3582  -34.1987   21.4491 C   0  0  1  0  0  0  0  0  0  0  0  0
  -25.1525  -36.9682   23.3145 C   0  0  2  0  0  0  0  0  0  0  0  0
  -29.6881  -28.1151   20.4835 C   0  0  2  0  0  0  0  0  0  1  0  0
  -22.2454  -34.5285   20.4145 C   0  0  0  0  0  0  0  0  0  0  0  0
  -24.6097  -17.0891   20.9456 N   0  0  0  0  0  0  0  0  0  0  0  0
  -25.1170  -18.3200   21.1293 N   0  0  0  0  0  0  0  0  0  0  0  0
  -23.7870  -31.9367   22.3564 N   0  0  0  0  0  0  0  0  0  0  0  0
  -22.8626  -21.3056   20.3630 N   0  0  0  0  0  0  0  0  0  0  0  0
  -27.1516  -19.5288   21.2298 N   0  0  0  0  0  0  0  0  0  0  0  0
  -28.4957  -15.2905   20.4384 N   0  0  0  0  0  0  0  0  0  0  0  0
  -24.3116  -22.9305   19.4560 N   0  0  0  0  0  0  0  0  0  0  0  0
  -21.6122  -29.1202   22.6165 N   0  0  0  0  0  0  0  0  0  0  0  0
  -23.7311  -35.3208   22.3036 N   0  0  0  0  0  0  0  0  0  0  0  0
  -28.2628  -27.6984   18.5282 N   0  0  0  0  0  0  0  0  0  0  0  0
  -26.4895  -36.9556   23.9729 N   0  3  0  0  0  0  0  0  0  0  0  0
  -29.2184  -17.4392   20.7841 O   0  0  0  0  0  0  0  0  0  0  0  0
  -23.0235  -29.8511   20.9145 O   0  0  0  0  0  0  0  0  0  0  0  0
  -21.9738  -33.2017   23.0970 O   0  0  0  0  0  0  0  0  0  0  0  0
  -25.9753  -35.3496   21.7206 O   0  0  0  0  0  0  0  0  0  0  0  0
  -22.2543  -23.5358   20.3408 O   0  0  0  0  0  0  0  0  0  0  0  0
  -28.7075  -25.5543   17.1744 O   0  0  0  0  0  0  0  0  0  0  0  0
  -27.2685  -27.3654   16.1877 O   0  0  0  0  0  0  0  0  0  0  0  0
  -25.1922  -10.8436   19.8486 O   0  0  0  0  0  0  0  0  0  0  0  0
  -29.1392  -29.4278   20.5925 O   0  0  0  0  0  0  0  0  0  1  0  0
  -21.7061   -8.0172   23.0521 F   0  0  0  0  0  0  0  0  0  0  0  0
  -22.5019  -11.4759   19.9201 F   0  0  0  0  0  0  0  0  0  0  0  0
  -26.3645  -24.2153   18.3219 S   0  0  0  0  0  0  0  0  0  0  0  0
  -27.7275  -26.6111   17.3382 S   0  0  0  0  0  0  0  0  0  0  0  0
  1  2  1  0  0  0  0
  1  5  2  0  0  0  0
  2  6  2  0  0  0  0
  3  8  2  0  0  0  0
  3 16  1  0  0  0  0
  4  9  1  0  0  0  0
  4 16  2  0  0  0  0
  5 18  1  0  0  0  0
  6 20  1  0  0  0  0
  7 10  2  0  0  0  0
  7 19  1  0  0  0  0
  8 23  1  0  0  0  0
  9 23  2  0  0  0  0
 10 24  1  0  0  0  0
 11 12  2  0  0  0  0
 11 25  1  0  0  0  0
 12 26  1  0  0  0  0
 13 21  1  0  0  0  0
 13 24  2  0  0  0  0
 14 22  1  0  0  0  0
 14 30  2  0  0  0  0
 15 26  2  0  0  0  0
 15 27  1  0  0  0  0
 16 28  1  0  0  0  0
 17 28  1  0  0  0  0
 17 29  2  0  0  0  0
 17 32  1  0  0  0  0
 18 20  2  0  0  0  0
 18 37  1  0  0  0  0
 19 21  2  0  0  0  0
 19 38  1  0  0  0  0
 20 46  1  0  0  0  0
 21 39  1  0  0  0  0
 22 31  2  0  0  0  0
 22 49  1  0  0  0  0
 23 79  1  0  0  0  0
 24 80  1  0  0  0  0
 25 27  2  0  0  0  0
 25 79  1  0  0  0  0
 26 81  1  0  0  0  0
 27 82  1  0  0  0  0
 28 61  2  0  0  0  0
 29 62  1  0  0  0  0
 29 65  1  0  0  0  0
 30 67  1  0  0  0  0
 30 83  1  0  0  0  0
 31 83  1  0  0  0  0
 31 84  1  0  0  0  0
 32 66  1  0  0  0  0
 32 72  2  0  0  0  0
 33 47  1  0  0  0  0
 33 68  1  0  0  0  0
 33 73  2  0  0  0  0
 34 57  1  0  0  0  0
 34 63  1  0  0  0  0
 34 74  2  0  0  0  0
 35 58  1  0  0  0  0
 35 69  1  0  0  0  0
 35 75  2  0  0  0  0
 36 64  1  0  0  0  0
 36 67  1  0  0  0  0
 36 76  2  0  0  0  0
 37 40  1  0  0  0  0
 38 47  1  0  0  0  0
 39 63  1  0  0  0  0
 40 42  1  0  0  0  0
 41 43  1  0  0  0  0
 41 44  1  0  0  0  0
 42 46  1  0  0  0  0
 43 48  1  0  0  0  0
 44 64  1  0  0  0  0
 45 48  1  0  0  0  0
 45 64  1  0  0  0  0
 46 68  1  0  0  0  0
 47 63  1  0  0  0  0
 48 62  1  0  0  0  0
 50 58  1  0  0  0  0
 51 59  1  0  0  0  0
 52 60  1  0  0  0  0
 53 60  1  0  0  0  0
 54 60  1  0  0  0  0
 55 71  1  0  0  0  0
 56 59  1  0  0  0  0
 56 70  1  0  0  0  0
 57 60  1  0  0  0  0
 57 69  1  0  0  0  0
 58 71  1  0  0  0  0
 59 80  1  0  0  0  0
 61 62  1  0  0  0  0
 70 84  1  0  0  0  0
 77 84  2  0  0  0  0
 78 84  2  0  0  0  0
M  CHG  1  71   1
M  ISO  4  36 100  59 101  67 100  80 101
M  END
> <Batch ID>
0185

> <Smiles>
CNC(C)C(=O)NC(C(=O)N1Cc2cc([101O:1][101CH:1](C)CNS(=O)(=O)c3sc([100NH:0][100C:0](=O)N4CCCC(n5nc(-c6ccc(Oc7ccc(F)cc7F)cc6)c(C(N)=O)c5N)C4)cc3C)ccc2CC1C(=O)NC1CCCc2ccccc21)C(C)(C)C

> <Shape>
0.260

> <Color>
0.101

> <Negative vol penalty>
0.000

$$$$

  -OEChem-04052305053D

 84 92  0     1  0  0  0  0  0999 V2000
  -27.9373  -32.4294   14.3297 C   0  0  0  0  0  0  0  0  0  0  0  0
  -27.6573  -31.2287   14.9742 C   0  0  0  0  0  0  0  0  0  0  0  0
  -24.0041   -8.8759   20.5076 C   0  0  0  0  0  0  0  0  0  0  0  0
  -22.7999  -10.7148   21.5104 C   0  0  0  0  0  0  0  0  0  0  0  0
  -28.2931  -33.5528   15.0749 C   0  0  0  0  0  0  0  0  0  0  0  0
  -27.7342  -31.1504   16.3643 C   0  0  0  0  0  0  0  0  0  0  0  0
  -23.7957  -28.6969   18.3925 C   0  0  0  0  0  0  0  0  0  0  0  0
  -23.0322   -7.9880   20.9688 C   0  0  0  0  0  0  0  0  0  0  0  0
  -21.8280   -9.8269   21.9715 C   0  0  0  0  0  0  0  0  0  0  0  0
  -23.8074  -27.3046   18.3206 C   0  0  0  0  0  0  0  0  0  0  0  0
  -21.0542   -5.1919   22.1906 C   0  0  0  0  0  0  0  0  0  0  0  0
  -21.4863   -4.0049   22.7820 C   0  0  0  0  0  0  0  0  0  0  0  0
  -24.5757  -27.1991   20.6049 C   0  0  0  0  0  0  0  0  0  0  0  0
  -22.6619   -5.2733   24.4691 C   0  0  0  0  0  0  0  0  0  0  0  0
  -23.8880  -10.2393   20.7785 C   0  0  0  0  0  0  0  0  0  0  0  0
  -24.9058  -11.8381   19.0710 C   0  0  0  0  0  0  0  0  0  0  0  0
  -28.3650  -33.4907   16.4755 C   0  0  0  0  0  0  0  0  0  0  0  0
  -24.1851  -29.3521   19.5696 C   0  0  0  0  0  0  0  0  0  0  0  0
  -28.0926  -32.2736   17.1288 C   0  0  0  0  0  0  0  0  0  0  0  0
  -24.5657  -28.5997   20.6900 C   0  0  0  0  0  0  0  0  0  0  0  0
  -21.9441   -8.4634   21.7007 C   0  0  0  0  0  0  0  0  0  0  0  0
  -24.2001  -26.5555   19.4260 C   0  0  0  0  0  0  0  0  0  0  0  0
  -21.4259   -6.4197   22.7384 C   0  0  0  0  0  0  0  0  0  0  0  0
  -22.2901   -4.0456   23.9213 C   0  0  0  0  0  0  0  0  0  0  0  0
  -22.2298   -6.4604   23.8776 C   0  0  0  0  0  0  0  0  0  0  0  0
  -24.8919  -11.1570   20.3029 C   0  0  0  0  0  0  0  0  0  0  0  0
  -27.6973  -19.3543   19.1968 C   0  0  0  0  0  0  0  0  0  0  0  0
  -28.4647  -19.3046   20.3417 C   0  0  0  0  0  0  0  0  0  0  0  0
  -26.0617  -12.5794   19.1016 C   0  0  0  0  0  0  0  0  0  0  0  0
  -27.0972  -21.2703   20.0795 C   0  0  0  0  0  0  0  0  0  0  0  0
  -23.9586  -11.8038   17.9952 C   0  0  0  0  0  0  0  0  0  0  0  0
  -26.5034  -31.3843   20.3438 C   0  0  0  0  0  0  0  0  0  0  0  0
  -29.5362  -15.9809   21.8669 C   0  0  0  0  0  0  0  0  0  0  0  0
  -24.9448  -31.4716   23.1874 C   0  0  0  0  0  0  0  0  0  0  0  0
  -25.5706  -23.1944   19.5310 C   0  0  0  0  0  0  0  0  0  0  0  0
  -22.8422  -29.9271   25.3874 C   0  0  0  0  0  0  0  0  0  0  0  0
  -28.8000  -34.7189   17.2352 C   0  0  0  0  0  0  0  0  0  0  0  0
  -24.1414  -30.8540   19.6396 C   0  0  0  0  0  0  0  0  0  0  0  0
  -24.9733  -29.2545   21.9837 C   0  0  0  0  0  0  0  0  0  0  0  0
  -28.4939  -34.6512   18.7292 C   0  0  0  0  0  0  0  0  0  0  0  0
  -29.9832  -12.4499   22.2816 C   0  0  0  0  0  0  0  0  0  0  0  0
  -28.9156  -33.3009   19.2998 C   0  0  0  0  0  0  0  0  0  0  0  0
  -28.6872  -11.8568   21.7305 C   0  0  0  0  0  0  0  0  0  0  0  0
  -29.7343  -13.7824   22.9812 C   0  0  0  0  0  0  0  0  0  0  0  0
  -27.7397  -14.2029   21.5789 C   0  0  0  0  0  0  0  0  0  0  0  0
  -28.1410  -32.1555   18.6367 C   0  0  1  0  0  0  0  0  0  0  0  0
  -25.0499  -31.4283   20.7223 C   0  0  1  0  0  0  0  0  0  0  0  0
  -27.9511  -12.8711   20.8373 C   0  0  2  0  0  0  0  0  0  0  0  0
  -27.6449  -18.3240   18.1397 C   0  0  0  0  0  0  0  0  0  0  0  0
  -21.7845  -30.2274   27.6431 C   0  0  0  0  0  0  0  0  0  0  0  0
  -27.6002  -30.7801   24.5218 C   0  0  0  0  0  0  0  0  0  0  0  0
  -26.3233  -30.1672   26.5863 C   0  0  0  0  0  0  0  0  0  0  0  0
  -26.2473  -32.5064   25.7233 C   0  0  0  0  0  0  0  0  0  0  0  0
  -20.1125  -29.8504   24.2463 C   0  0  0  0  0  0  0  0  0  0  0  0
  -31.4494  -19.1848   20.1198 C   0  0  0  0  0  0  0  0  0  0  0  0
  -28.7391  -16.8784   20.9542 C   0  0  0  0  0  0  0  0  0  0  0  0
  -25.1737  -24.5151   20.1641 C   0  0  0  0  0  0  0  0  0  1  0  0
  -29.4012  -18.2658   20.8150 C   0  0  1  0  0  0  0  0  0  0  0  0
  -25.0206  -30.6834   24.4727 C   0  0  1  0  0  0  0  0  0  0  0  0
  -21.6277  -30.4332   26.1445 C   0  0  2  0  0  0  0  0  0  0  0  0
  -26.2921  -31.0217   25.3012 C   0  0  0  0  0  0  0  0  0  0  0  0
  -25.9546  -11.4403   21.0608 N   0  0  0  0  0  0  0  0  0  0  0  0
  -26.9122  -20.4805   19.0450 N   0  0  0  0  0  0  0  0  0  0  0  0
  -26.6472  -12.3076   20.3030 N   0  0  0  0  0  0  0  0  0  0  0  0
  -24.9201  -30.7257   22.0004 N   0  0  0  0  0  0  0  0  0  0  0  0
  -29.0134  -14.7102   22.1079 N   0  0  0  0  0  0  0  0  0  0  0  0
  -26.6242  -13.4307   18.2177 N   0  0  0  0  0  0  0  0  0  0  0  0
  -22.8261  -10.9889   18.1279 N   0  0  0  0  0  0  0  0  0  0  0  0
  -26.4926  -22.5252   20.3286 N   0  0  0  0  0  0  0  0  0  0  0  0
  -26.8030  -32.0685   19.1813 N   0  0  0  0  0  0  0  0  0  0  0  0
  -23.7663  -30.9284   25.1763 N   0  0  0  0  0  0  0  0  0  0  0  0
  -20.4015  -29.7140   25.6971 N   0  3  0  0  0  0  0  0  0  0  0  0
  -24.1202  -12.4633   16.9405 O   0  0  0  0  0  0  0  0  0  0  0  0
  -27.2947  -30.7759   21.0548 O   0  0  0  0  0  0  0  0  0  0  0  0
  -30.5931  -16.3975   22.3481 O   0  0  0  0  0  0  0  0  0  0  0  0
  -24.9018  -32.7035   23.2350 O   0  0  0  0  0  0  0  0  0  0  0  0
  -25.1016  -22.8297   18.4579 O   0  0  0  0  0  0  0  0  0  0  0  0
  -22.9610  -28.7593   25.0231 O   0  0  0  0  0  0  0  0  0  0  0  0
  -20.9955   -7.5973   22.1506 O   0  0  0  0  0  0  0  0  0  0  0  0
  -24.2130  -25.1965   19.3583 O   0  0  0  0  0  0  0  0  0  1  0  0
  -30.5023  -18.1585   19.8941 O   0  0  0  0  0  0  0  0  0  0  0  0
  -22.7037   -2.9055   24.4900 F   0  0  0  0  0  0  0  0  0  0  0  0
  -22.5892   -7.6369   24.4091 F   0  0  0  0  0  0  0  0  0  0  0  0
  -28.2020  -20.7211   21.2723 S   0  0  0  0  0  0  0  0  0  0  0  0
  1  2  1  0  0  0  0
  1  5  2  0  0  0  0
  2  6  2  0  0  0  0
  3  8  2  0  0  0  0
  3 15  1  0  0  0  0
  4  9  1  0  0  0  0
  4 15  2  0  0  0  0
  5 17  1  0  0  0  0
  6 19  1  0  0  0  0
  7 10  2  0  0  0  0
  7 18  1  0  0  0  0
  8 21  1  0  0  0  0
  9 21  2  0  0  0  0
 10 22  1  0  0  0  0
 11 12  2  0  0  0  0
 11 23  1  0  0  0  0
 12 24  1  0  0  0  0
 13 20  1  0  0  0  0
 13 22  2  0  0  0  0
 14 24  2  0  0  0  0
 14 25  1  0  0  0  0
 15 26  1  0  0  0  0
 16 26  1  0  0  0  0
 16 29  2  0  0  0  0
 16 31  1  0  0  0  0
 17 19  2  0  0  0  0
 17 37  1  0  0  0  0
 18 20  2  0  0  0  0
 18 38  1  0  0  0  0
 19 46  1  0  0  0  0
 20 39  1  0  0  0  0
 21 79  1  0  0  0  0
 22 80  1  0  0  0  0
 23 25  2  0  0  0  0
 23 79  1  0  0  0  0
 24 82  1  0  0  0  0
 25 83  1  0  0  0  0
 26 62  2  0  0  0  0
 27 28  2  0  0  0  0
 27 49  1  0  0  0  0
 27 63  1  0  0  0  0
 28 58  1  0  0  0  0
 28 84  1  0  0  0  0
 29 64  1  0  0  0  0
 29 67  1  0  0  0  0
 30 63  2  0  0  0  0
 30 69  1  0  0  0  0
 30 84  1  0  0  0  0
 31 68  1  0  0  0  0
 31 73  2  0  0  0  0
 32 47  1  0  0  0  0
 32 70  1  0  0  0  0
 32 74  2  0  0  0  0
 33 56  1  0  0  0  0
 33 66  1  0  0  0  0
 33 75  2  0  0  0  0
 34 59  1  0  0  0  0
 34 65  1  0  0  0  0
 34 76  2  0  0  0  0
 35 57  1  0  0  0  0
 35 69  1  0  0  0  0
 35 77  2  0  0  0  0
 36 60  1  0  0  0  0
 36 71  1  0  0  0  0
 36 78  2  0  0  0  0
 37 40  1  0  0  0  0
 38 47  1  0  0  0  0
 39 65  1  0  0  0  0
 40 42  1  0  0  0  0
 41 43  1  0  0  0  0
 41 44  1  0  0  0  0
 42 46  1  0  0  0  0
 43 48  1  0  0  0  0
 44 66  1  0  0  0  0
 45 48  1  0  0  0  0
 45 66  1  0  0  0  0
 46 70  1  0  0  0  0
 47 65  1  0  0  0  0
 48 64  1  0  0  0  0
 50 60  1  0  0  0  0
 51 61  1  0  0  0  0
 52 61  1  0  0  0  0
 53 61  1  0  0  0  0
 54 72  1  0  0  0  0
 55 81  1  0  0  0  0
 56 58  1  0  0  0  0
 57 80  1  0  0  0  0
 58 81  1  0  0  0  0
 59 61  1  0  0  0  0
 59 71  1  0  0  0  0
 60 72  1  0  0  0  0
 62 64  1  0  0  0  0
M  CHG  1  72   1
M  ISO  4  33 100  56 100  57 101  80 101
M  END
> <Batch ID>
0185

> <Smiles>
CNC(C)C(=O)NC(C(=O)N1Cc2cc([101O:1][101CH2:1]C(=O)Nc3nc(C)c(C([100CH2:0][100C:0](=O)N4CCCC(n5nc(-c6ccc(Oc7ccc(F)cc7F)cc6)c(C(N)=O)c5N)C4)OC)s3)ccc2CC1C(=O)NC1CCCc2ccccc21)C(C)(C)C

> <Shape>
0.275

> <Color>
0.114

> <Negative vol penalty>
0.000

$$$$

  -OEChem-04052305053D

 81 89  0     1  0  0  0  0  0999 V2000
  -28.4639  -32.6697   27.1215 C   0  0  0  0  0  0  0  0  0  0  0  0
  -28.5802  -31.5179   26.3499 C   0  0  0  0  0  0  0  0  0  0  0  0
  -24.5849   -9.0467   21.4665 C   0  0  0  0  0  0  0  0  0  0  0  0
  -22.6439  -10.4173   21.0295 C   0  0  0  0  0  0  0  0  0  0  0  0
  -27.2019  -33.1627   27.4502 C   0  0  0  0  0  0  0  0  0  0  0  0
  -27.4343  -30.8579   25.9074 C   0  0  0  0  0  0  0  0  0  0  0  0
  -27.7326  -29.5003   21.0378 C   0  0  0  0  0  0  0  0  0  0  0  0
  -23.7675   -7.9208   21.5661 C   0  0  0  0  0  0  0  0  0  0  0  0
  -21.8265   -9.2914   21.1291 C   0  0  0  0  0  0  0  0  0  0  0  0
  -28.4912  -28.3698   20.7373 C   0  0  0  0  0  0  0  0  0  0  0  0
  -21.7129   -6.5302   23.8616 C   0  0  0  0  0  0  0  0  0  0  0  0
  -21.9426   -5.6554   24.9234 C   0  0  0  0  0  0  0  0  0  0  0  0
  -26.4708  -27.0593   20.5957 C   0  0  0  0  0  0  0  0  0  0  0  0
  -22.3828   -3.8696   23.3567 C   0  0  0  0  0  0  0  0  0  0  0  0
  -24.0231  -10.2949   21.1983 C   0  0  0  0  0  0  0  0  0  0  0  0
  -25.4835  -11.9618   19.9347 C   0  0  0  0  0  0  0  0  0  0  0  0
  -26.0400  -32.5138   27.0034 C   0  0  0  0  0  0  0  0  0  0  0  0
  -26.3359  -29.4164   21.1304 C   0  0  0  0  0  0  0  0  0  0  0  0
  -26.1555  -31.3419   26.2315 C   0  0  0  0  0  0  0  0  0  0  0  0
  -25.6967  -28.1908   20.8950 C   0  0  0  0  0  0  0  0  0  0  0  0
  -22.3883   -8.0432   21.3974 C   0  0  0  0  0  0  0  0  0  0  0  0
  -27.8605  -27.1484   20.5190 C   0  0  0  0  0  0  0  0  0  0  0  0
  -21.8180   -6.0748   22.5473 C   0  0  0  0  0  0  0  0  0  0  0  0
  -22.2775   -4.3250   24.6710 C   0  0  0  0  0  0  0  0  0  0  0  0
  -22.1530   -4.7445   22.2949 C   0  0  0  0  0  0  0  0  0  0  0  0
  -24.8669  -11.4584   21.0959 C   0  0  0  0  0  0  0  0  0  0  0  0
  -26.1695  -13.0716   20.3639 C   0  0  0  0  0  0  0  0  0  0  0  0
  -27.2095  -21.3794   20.8979 C   0  0  0  0  0  0  0  0  0  0  0  0
  -26.5962  -19.3503   21.3902 C   0  0  0  0  0  0  0  0  0  0  0  0
  -25.4400  -11.4702   18.5886 C   0  0  0  0  0  0  0  0  0  0  0  0
  -24.2078  -29.9024   23.4410 C   0  0  0  0  0  0  0  0  0  0  0  0
  -22.0756  -29.4128   21.0460 C   0  0  0  0  0  0  0  0  0  0  0  0
  -21.4124  -28.0387   17.9933 C   0  0  0  0  0  0  0  0  0  0  0  0
  -27.9310  -23.7341   20.3747 C   0  0  0  0  0  0  0  0  0  0  0  0
  -26.4631  -17.7658   23.3441 C   0  0  0  0  0  0  0  0  0  0  0  0
  -24.6975  -33.0577   27.4237 C   0  0  0  0  0  0  0  0  0  0  0  0
  -25.5301  -30.6508   21.4292 C   0  0  0  0  0  0  0  0  0  0  0  0
  -24.1985  -28.0520   20.9626 C   0  0  0  0  0  0  0  0  0  0  0  0
  -23.5339  -32.5104   26.6011 C   0  0  0  0  0  0  0  0  0  0  0  0
  -27.1721  -14.7187   25.0440 C   0  0  0  0  0  0  0  0  0  0  0  0
  -23.6501  -30.9966   26.4533 C   0  0  0  0  0  0  0  0  0  0  0  0
  -26.6863  -13.6402   24.0729 C   0  0  0  0  0  0  0  0  0  0  0  0
  -26.2650  -15.9478   25.0266 C   0  0  0  0  0  0  0  0  0  0  0  0
  -25.5403  -15.4458   22.7261 C   0  0  0  0  0  0  0  0  0  0  0  0
  -24.9361  -30.6118   25.7120 C   0  0  1  0  0  0  0  0  0  0  0  0
  -24.1519  -30.3399   22.0046 C   0  0  1  0  0  0  0  0  0  0  0  0
  -26.4587  -14.2146   22.6608 C   0  0  2  0  0  0  0  0  0  0  0  0
  -19.5697  -27.7739   16.3106 C   0  0  0  0  0  0  0  0  0  0  0  0
  -29.8684  -24.6398   21.7111 C   0  0  0  0  0  0  0  0  0  0  0  0
  -20.7798  -27.2820   22.8040 C   0  0  0  0  0  0  0  0  0  0  0  0
  -19.6004  -26.4208   20.7704 C   0  0  0  0  0  0  0  0  0  0  0  0
  -19.1651  -28.7422   21.5732 C   0  0  0  0  0  0  0  0  0  0  0  0
  -22.9463  -29.4817   15.9139 C   0  0  0  0  0  0  0  0  0  0  0  0
  -21.3752  -28.2068   20.4681 C   0  0  1  0  0  0  0  0  0  0  0  0
  -20.7584  -28.6144   16.7502 C   0  0  2  0  0  0  0  0  0  0  0  0
  -28.4971  -24.9381   21.1232 C   0  0  1  0  0  0  0  0  0  1  0  0
  -20.2585  -27.6648   21.4045 C   0  0  0  0  0  0  0  0  0  0  0  0
  -25.1374  -12.1884   22.1812 N   0  0  0  0  0  0  0  0  0  0  0  0
  -27.0998  -20.4460   21.9147 N   0  0  0  0  0  0  0  0  0  0  0  0
  -26.8308  -21.0823   19.6549 N   0  0  0  0  0  0  0  0  0  0  0  0
  -25.9316  -13.1618   21.7038 N   0  0  0  0  0  0  0  0  0  0  0  0
  -23.4548  -29.2863   21.2642 N   0  0  0  0  0  0  0  0  0  0  0  0
  -26.0987  -16.4391   23.6570 N   0  0  0  0  0  0  0  0  0  0  0  0
  -26.9470  -13.9693   19.7220 N   0  0  0  0  0  0  0  0  0  0  0  0
  -24.6875  -10.3182   18.3220 N   0  0  0  0  0  0  0  0  0  0  0  0
  -27.7328  -22.6525   21.2267 N   0  0  0  0  0  0  0  0  0  0  0  0
  -26.2910  -18.1101   22.0038 N   0  0  0  0  0  0  0  0  0  0  0  0
  -24.7836  -30.8289   24.2893 N   0  0  0  0  0  0  0  0  0  0  0  0
  -20.9054  -28.6027   19.1449 N   0  0  0  0  0  0  0  0  0  0  0  0
  -21.7370  -28.6678   15.6275 N   0  3  0  0  0  0  0  0  0  0  0  0
  -26.0636  -12.0262   17.6530 O   0  0  0  0  0  0  0  0  0  0  0  0
  -23.7603  -28.8061   23.7566 O   0  0  0  0  0  0  0  0  0  0  0  0
  -21.4243  -30.4321   21.2879 O   0  0  0  0  0  0  0  0  0  0  0  0
  -22.2832  -27.1726   17.9475 O   0  0  0  0  0  0  0  0  0  0  0  0
  -27.6884  -23.7886   19.1725 O   0  0  0  0  0  0  0  0  0  0  0  0
  -26.9215  -18.5310   24.1963 O   0  0  0  0  0  0  0  0  0  0  0  0
  -21.5904   -6.9448   21.4943 O   0  0  0  0  0  0  0  0  0  0  0  0
  -28.5985  -26.0433   20.2262 O   0  0  0  0  0  0  0  0  0  1  0  0
  -22.4996   -3.4854   25.6907 F   0  0  0  0  0  0  0  0  0  0  0  0
  -22.2566   -4.3014   21.0345 F   0  0  0  0  0  0  0  0  0  0  0  0
  -26.2821  -19.5022   19.7100 S   0  0  0  0  0  0  0  0  0  0  0  0
  1  2  1  0  0  0  0
  1  5  2  0  0  0  0
  2  6  2  0  0  0  0
  3  8  2  0  0  0  0
  3 15  1  0  0  0  0
  4  9  1  0  0  0  0
  4 15  2  0  0  0  0
  5 17  1  0  0  0  0
  6 19  1  0  0  0  0
  7 10  2  0  0  0  0
  7 18  1  0  0  0  0
  8 21  1  0  0  0  0
  9 21  2  0  0  0  0
 10 22  1  0  0  0  0
 11 12  2  0  0  0  0
 11 23  1  0  0  0  0
 12 24  1  0  0  0  0
 13 20  1  0  0  0  0
 13 22  2  0  0  0  0
 14 24  2  0  0  0  0
 14 25  1  0  0  0  0
 15 26  1  0  0  0  0
 16 26  1  0  0  0  0
 16 27  2  0  0  0  0
 16 30  1  0  0  0  0
 17 19  2  0  0  0  0
 17 36  1  0  0  0  0
 18 20  2  0  0  0  0
 18 37  1  0  0  0  0
 19 45  1  0  0  0  0
 20 38  1  0  0  0  0
 21 77  1  0  0  0  0
 22 78  1  0  0  0  0
 23 25  2  0  0  0  0
 23 77  1  0  0  0  0
 24 79  1  0  0  0  0
 25 80  1  0  0  0  0
 26 58  2  0  0  0  0
 27 61  1  0  0  0  0
 27 64  1  0  0  0  0
 28 59  1  0  0  0  0
 28 60  2  0  0  0  0
 28 66  1  0  0  0  0
 29 59  2  0  0  0  0
 29 67  1  0  0  0  0
 29 81  1  0  0  0  0
 30 65  1  0  0  0  0
 30 71  2  0  0  0  0
 31 46  1  0  0  0  0
 31 68  1  0  0  0  0
 31 72  2  0  0  0  0
 32 54  1  0  0  0  0
 32 62  1  0  0  0  0
 32 73  2  0  0  0  0
 33 55  1  0  0  0  0
 33 69  1  0  0  0  0
 33 74  2  0  0  0  0
 34 56  1  0  0  0  0
 34 66  1  0  0  0  0
 34 75  2  0  0  0  0
 35 63  1  0  0  0  0
 35 67  1  0  0  0  0
 35 76  2  0  0  0  0
 36 39  1  0  0  0  0
 37 46  1  0  0  0  0
 38 62  1  0  0  0  0
 39 41  1  0  0  0  0
 40 42  1  0  0  0  0
 40 43  1  0  0  0  0
 41 45  1  0  0  0  0
 42 47  1  0  0  0  0
 43 63  1  0  0  0  0
 44 47  1  0  0  0  0
 44 63  1  0  0  0  0
 45 68  1  0  0  0  0
 46 62  1  0  0  0  0
 47 61  1  0  0  0  0
 48 55  1  0  0  0  0
 49 56  1  0  0  0  0
 50 57  1  0  0  0  0
 51 57  1  0  0  0  0
 52 57  1  0  0  0  0
 53 70  1  0  0  0  0
 54 57  1  0  0  0  0
 54 69  1  0  0  0  0
 55 70  1  0  0  0  0
 56 78  1  0  0  0  0
 58 61  1  0  0  0  0
 60 81  1  0  0  0  0
M  CHG  1  70   1
M  ISO  4  35 100  56 101  67 100  78 101
M  END
> <Batch ID>
0185

> <Smiles>
CNC(C)C(=O)NC(C(=O)N1Cc2cc([101O:1][101CH:1](C)C(=O)Nc3nsc([100NH:0][100C:0](=O)N4CCCC(n5nc(-c6ccc(Oc7ccc(F)cc7F)cc6)c(C(N)=O)c5N)C4)n3)ccc2CC1C(=O)NC1CCCc2ccccc21)C(C)(C)C

> <Shape>
0.279

> <Color>
0.109

> <Negative vol penalty>
0.000

$$$$

  -OEChem-04052305053D

 84 92  0     1  0  0  0  0  0999 V2000
  -18.4855  -25.5421   19.4642 C   0  0  0  0  0  0  0  0  0  0  0  0
  -19.7097  -26.0767   19.0758 C   0  0  0  0  0  0  0  0  0  0  0  0
  -23.3086  -14.1978   20.9180 C   0  0  0  0  0  0  0  0  0  0  0  0
  -25.6619  -14.4783   21.3875 C   0  0  0  0  0  0  0  0  0  0  0  0
  -18.0126  -25.7542   20.7585 C   0  0  0  0  0  0  0  0  0  0  0  0
  -20.4613  -26.8248   19.9812 C   0  0  0  0  0  0  0  0  0  0  0  0
  -25.3679  -25.5728   19.9345 C   0  0  0  0  0  0  0  0  0  0  0  0
  -23.5363  -12.8658   20.5724 C   0  0  0  0  0  0  0  0  0  0  0  0
  -25.8896  -13.1462   21.0419 C   0  0  0  0  0  0  0  0  0  0  0  0
  -26.1428  -26.0731   18.8891 C   0  0  0  0  0  0  0  0  0  0  0  0
  -23.4407   -9.2922   19.9125 C   0  0  0  0  0  0  0  0  0  0  0  0
  -22.5582   -8.3332   20.4096 C   0  0  0  0  0  0  0  0  0  0  0  0
  -26.9788  -27.8049   20.3455 C   0  0  0  0  0  0  0  0  0  0  0  0
  -23.1423   -8.9660   22.6670 C   0  0  0  0  0  0  0  0  0  0  0  0
  -30.0704  -23.7370   20.8401 C   0  0  0  0  0  0  0  0  0  0  0  0
  -24.3714  -15.0041   21.3255 C   0  0  0  0  0  0  0  0  0  0  0  0
  -23.8224  -16.8862   22.9576 C   0  0  0  0  0  0  0  0  0  0  0  0
  -18.7633  -26.4972   21.6833 C   0  0  0  0  0  0  0  0  0  0  0  0
  -25.3844  -26.1924   21.1924 C   0  0  0  0  0  0  0  0  0  0  0  0
  -19.9974  -27.0482   21.2888 C   0  0  0  0  0  0  0  0  0  0  0  0
  -26.2052  -27.3090   21.4060 C   0  0  0  0  0  0  0  0  0  0  0  0
  -24.8268  -12.3400   20.6344 C   0  0  0  0  0  0  0  0  0  0  0  0
  -26.9462  -27.1911   19.0936 C   0  0  0  0  0  0  0  0  0  0  0  0
  -24.1741  -10.0880   20.7925 C   0  0  0  0  0  0  0  0  0  0  0  0
  -22.4090   -8.1701   21.7868 C   0  0  0  0  0  0  0  0  0  0  0  0
  -24.0249   -9.9249   22.1698 C   0  0  0  0  0  0  0  0  0  0  0  0
  -24.1369  -16.3803   21.6822 C   0  0  0  0  0  0  0  0  0  0  0  0
  -29.6475  -24.2675   19.6393 C   0  0  0  0  0  0  0  0  0  0  0  0
  -23.6994  -18.2411   22.7689 C   0  0  0  0  0  0  0  0  0  0  0  0
  -28.0461  -22.7980   19.9327 C   0  0  0  0  0  0  0  0  0  0  0  0
  -23.6563  -16.1934   24.2019 C   0  0  0  0  0  0  0  0  0  0  0  0
  -30.3639  -25.3488   18.9149 C   0  0  0  0  0  0  0  0  0  0  0  0
  -23.2137  -27.6383   23.0093 C   0  0  0  0  0  0  0  0  0  0  0  0
  -29.9448  -28.1839   17.3124 C   0  0  0  0  0  0  0  0  0  0  0  0
  -25.6350  -27.7089   25.1667 C   0  0  0  0  0  0  0  0  0  0  0  0
  -28.9969  -27.6572   25.7514 C   0  0  0  0  0  0  0  0  0  0  0  0
  -25.9682  -22.0234   18.7375 C   0  0  0  0  0  0  0  0  0  0  0  0
  -18.1890  -26.7397   23.0566 C   0  0  0  0  0  0  0  0  0  0  0  0
  -24.5632  -25.6244   22.3173 C   0  0  0  0  0  0  0  0  0  0  0  0
  -26.2741  -27.9984   22.7433 C   0  0  0  0  0  0  0  0  0  0  0  0
  -19.2203  -27.2280   24.0706 C   0  0  0  0  0  0  0  0  0  0  0  0
  -22.5205  -21.4650   19.4296 C   0  0  0  0  0  0  0  0  0  0  0  0
  -20.0717  -28.3429   23.4715 C   0  0  0  0  0  0  0  0  0  0  0  0
  -22.5157  -20.1469   20.2071 C   0  0  0  0  0  0  0  0  0  0  0  0
  -23.5802  -21.4705   18.3292 C   0  0  0  0  0  0  0  0  0  0  0  0
  -24.9334  -19.8136   19.5509 C   0  0  0  0  0  0  0  0  0  0  0  0
  -20.8533  -27.8444   22.2499 C   0  0  1  0  0  0  0  0  0  0  0  0
  -24.2647  -26.6433   23.4128 C   0  0  1  0  0  0  0  0  0  0  0  0
  -23.9263  -19.7854   20.7122 C   0  0  2  0  0  0  0  0  0  0  0  0
  -30.0586  -26.5297   15.4248 C   0  0  0  0  0  0  0  0  0  0  0  0
  -30.6742  -27.7684   27.6147 C   0  0  0  0  0  0  0  0  0  0  0  0
  -25.1704  -30.7153   25.4024 C   0  0  0  0  0  0  0  0  0  0  0  0
  -27.4142  -30.9059   26.4965 C   0  0  0  0  0  0  0  0  0  0  0  0
  -25.6144  -29.5551   27.5729 C   0  0  0  0  0  0  0  0  0  0  0  0
  -30.0635  -24.9728   25.1071 C   0  0  0  0  0  0  0  0  0  0  0  0
  -28.9244  -28.3305   18.4268 C   0  0  0  0  0  0  0  0  0  1  0  0
  -30.3829  -26.7817   16.8895 C   0  0  2  0  0  0  0  0  0  0  0  0
  -26.7490  -28.6743   25.4923 C   0  0  1  0  0  0  0  0  0  0  0  0
  -29.8368  -26.8573   26.7308 C   0  0  2  0  0  0  0  0  0  0  0  0
  -26.2345  -29.9510   26.2152 C   0  0  0  0  0  0  0  0  0  0  0  0
  -24.2092  -17.3359   20.7518 N   0  0  0  0  0  0  0  0  0  0  0  0
  -28.4872  -23.7301   19.1173 N   0  0  0  0  0  0  0  0  0  0  0  0
  -23.9382  -18.4559   21.4433 N   0  0  0  0  0  0  0  0  0  0  0  0
  -25.4479  -27.4092   23.8099 N   0  0  0  0  0  0  0  0  0  0  0  0
  -24.8911  -21.1236   18.8823 N   0  0  0  0  0  0  0  0  0  0  0  0
  -23.4114  -19.2577   23.6090 N   0  0  0  0  0  0  0  0  0  0  0  0
  -23.8182  -14.8013   24.2183 N   0  0  0  0  0  0  0  0  0  0  0  0
  -26.8884  -21.9945   19.7848 N   0  0  0  0  0  0  0  0  0  0  0  0
  -29.7945  -25.7623   17.7170 N   0  0  0  0  0  0  0  0  0  0  0  0
  -22.0020  -27.0692   22.6668 N   0  0  0  0  0  0  0  0  0  0  0  0
  -27.7379  -27.9158   26.2507 N   0  0  0  0  0  0  0  0  0  0  0  0
  -30.7548  -25.9405   25.9975 N   0  3  0  0  0  0  0  0  0  0  0  0
  -23.3565  -16.7891   25.2643 O   0  0  0  0  0  0  0  0  0  0  0  0
  -31.4059  -25.7979   19.3851 O   0  0  0  0  0  0  0  0  0  0  0  0
  -23.4817  -28.8341   23.0101 O   0  0  0  0  0  0  0  0  0  0  0  0
  -30.4548  -29.1781   16.7883 O   0  0  0  0  0  0  0  0  0  0  0  0
  -24.9605  -27.2326   26.0831 O   0  0  0  0  0  0  0  0  0  0  0  0
  -29.4170  -28.0200   24.6549 O   0  0  0  0  0  0  0  0  0  0  0  0
  -26.0526  -22.7843   17.7701 O   0  0  0  0  0  0  0  0  0  0  0  0
  -25.0493  -11.0401   20.2974 O   0  0  0  0  0  0  0  0  0  0  0  0
  -27.7030  -27.6819   18.0747 O   0  0  0  0  0  0  0  0  0  1  0  0
  -21.5603   -7.2503   22.2641 F   0  0  0  0  0  0  0  0  0  0  0  0
  -24.7258  -10.6873   23.0202 F   0  0  0  0  0  0  0  0  0  0  0  0
  -28.9773  -22.5162   21.3463 S   0  0  0  0  0  0  0  0  0  0  0  0
  1  2  1  0  0  0  0
  1  5  2  0  0  0  0
  2  6  2  0  0  0  0
  3  8  2  0  0  0  0
  3 16  1  0  0  0  0
  4  9  1  0  0  0  0
  4 16  2  0  0  0  0
  5 18  1  0  0  0  0
  6 20  1  0  0  0  0
  7 10  2  0  0  0  0
  7 19  1  0  0  0  0
  8 22  1  0  0  0  0
  9 22  2  0  0  0  0
 10 23  1  0  0  0  0
 11 12  2  0  0  0  0
 11 24  1  0  0  0  0
 12 25  1  0  0  0  0
 13 21  1  0  0  0  0
 13 23  2  0  0  0  0
 14 25  2  0  0  0  0
 14 26  1  0  0  0  0
 15 28  2  0  0  0  0
 15 84  1  0  0  0  0
 16 27  1  0  0  0  0
 17 27  1  0  0  0  0
 17 29  2  0  0  0  0
 17 31  1  0  0  0  0
 18 20  2  0  0  0  0
 18 38  1  0  0  0  0
 19 21  2  0  0  0  0
 19 39  1  0  0  0  0
 20 47  1  0  0  0  0
 21 40  1  0  0  0  0
 22 80  1  0  0  0  0
 23 81  1  0  0  0  0
 24 26  2  0  0  0  0
 24 80  1  0  0  0  0
 25 82  1  0  0  0  0
 26 83  1  0  0  0  0
 27 61  2  0  0  0  0
 28 32  1  0  0  0  0
 28 62  1  0  0  0  0
 29 63  1  0  0  0  0
 29 66  1  0  0  0  0
 30 62  2  0  0  0  0
 30 68  1  0  0  0  0
 30 84  1  0  0  0  0
 31 67  1  0  0  0  0
 31 73  2  0  0  0  0
 32 69  1  0  0  0  0
 32 74  2  0  0  0  0
 33 48  1  0  0  0  0
 33 70  1  0  0  0  0
 33 75  2  0  0  0  0
 34 56  1  0  0  0  0
 34 57  1  0  0  0  0
 34 76  2  0  0  0  0
 35 58  1  0  0  0  0
 35 64  1  0  0  0  0
 35 77  2  0  0  0  0
 36 59  1  0  0  0  0
 36 71  1  0  0  0  0
 36 78  2  0  0  0  0
 37 65  1  0  0  0  0
 37 68  1  0  0  0  0
 37 79  2  0  0  0  0
 38 41  1  0  0  0  0
 39 48  1  0  0  0  0
 40 64  1  0  0  0  0
 41 43  1  0  0  0  0
 42 44  1  0  0  0  0
 42 45  1  0  0  0  0
 43 47  1  0  0  0  0
 44 49  1  0  0  0  0
 45 65  1  0  0  0  0
 46 49  1  0  0  0  0
 46 65  1  0  0  0  0
 47 70  1  0  0  0  0
 48 64  1  0  0  0  0
 49 63  1  0  0  0  0
 50 57  1  0  0  0  0
 51 59  1  0  0  0  0
 52 60  1  0  0  0  0
 53 60  1  0  0  0  0
 54 60  1  0  0  0  0
 55 72  1  0  0  0  0
 56 81  1  0  0  0  0
 57 69  1  0  0  0  0
 58 60  1  0  0  0  0
 58 71  1  0  0  0  0
 59 72  1  0  0  0  0
 61 63  1  0  0  0  0
M  CHG  1  72   1
M  ISO  4  37 100  56 101  68 100  81 101
M  END
> <Batch ID>
0185

> <Smiles>
CNC(C)C(=O)NC(C(=O)N1Cc2cc([101O:1][101CH2:1]C(=O)C(C)NC(=O)c3csc([100NH:0][100C:0](=O)N4CCCC(n5nc(-c6ccc(Oc7ccc(F)cc7F)cc6)c(C(N)=O)c5N)C4)n3)ccc2CC1C(=O)NC1CCCc2ccccc21)C(C)(C)C

> <Shape>
0.208

> <Color>
0.081

> <Negative vol penalty>
0.000

$$$$

  -OEChem-04052305053D

 82 90  0     1  0  0  0  0  0999 V2000
  -17.7678  -23.5946   23.5621 C   0  0  0  0  0  0  0  0  0  0  0  0
  -19.0621  -23.1562   23.8231 C   0  0  0  0  0  0  0  0  0  0  0  0
  -23.5691  -14.0888   20.0262 C   0  0  0  0  0  0  0  0  0  0  0  0
  -25.5166  -14.6498   21.3414 C   0  0  0  0  0  0  0  0  0  0  0  0
  -17.5615  -24.7178   22.7622 C   0  0  0  0  0  0  0  0  0  0  0  0
  -20.1508  -23.8402   23.2835 C   0  0  0  0  0  0  0  0  0  0  0  0
  -25.6370  -24.6601   25.8787 C   0  0  0  0  0  0  0  0  0  0  0  0
  -23.9624  -12.7507   20.0145 C   0  0  0  0  0  0  0  0  0  0  0  0
  -25.9099  -13.3115   21.3298 C   0  0  0  0  0  0  0  0  0  0  0  0
  -26.8554  -24.0001   25.7250 C   0  0  0  0  0  0  0  0  0  0  0  0
  -24.2639   -9.1286   19.9441 C   0  0  0  0  0  0  0  0  0  0  0  0
  -23.2882   -8.1637   20.1943 C   0  0  0  0  0  0  0  0  0  0  0  0
  -27.5571  -25.6771   24.1393 C   0  0  0  0  0  0  0  0  0  0  0  0
  -22.8812   -9.1386   22.3671 C   0  0  0  0  0  0  0  0  0  0  0  0
  -24.3463  -15.0384   20.6896 C   0  0  0  0  0  0  0  0  0  0  0  0
  -23.1174  -17.0573   21.6497 C   0  0  0  0  0  0  0  0  0  0  0  0
  -18.6486  -25.4216   22.2204 C   0  0  0  0  0  0  0  0  0  0  0  0
  -25.3648  -25.8296   25.1544 C   0  0  0  0  0  0  0  0  0  0  0  0
  -19.9588  -24.9731   22.4745 C   0  0  0  0  0  0  0  0  0  0  0  0
  -26.3355  -26.3515   24.2875 C   0  0  0  0  0  0  0  0  0  0  0  0
  -25.1328  -12.3620   20.6663 C   0  0  0  0  0  0  0  0  0  0  0  0
  -27.8146  -24.5069   24.8531 C   0  0  0  0  0  0  0  0  0  0  0  0
  -24.5483  -10.0985   20.9055 C   0  0  0  0  0  0  0  0  0  0  0  0
  -22.5969   -8.1687   21.4057 C   0  0  0  0  0  0  0  0  0  0  0  0
  -23.8570  -10.1035   22.1169 C   0  0  0  0  0  0  0  0  0  0  0  0
  -23.9408  -16.4210   20.7015 C   0  0  0  0  0  0  0  0  0  0  0  0
  -30.2130  -22.8886   20.6272 C   0  0  0  0  0  0  0  0  0  0  0  0
  -30.0412  -23.8321   19.6448 C   0  0  0  0  0  0  0  0  0  0  0  0
  -23.0365  -18.3581   21.2163 C   0  0  0  0  0  0  0  0  0  0  0  0
  -28.5606  -22.3631   19.3743 C   0  0  0  0  0  0  0  0  0  0  0  0
  -22.4826  -16.5205   22.8178 C   0  0  0  0  0  0  0  0  0  0  0  0
  -23.2010  -26.6709   22.9832 C   0  0  0  0  0  0  0  0  0  0  0  0
  -30.4567  -22.7292   23.1288 C   0  0  0  0  0  0  0  0  0  0  0  0
  -24.5501  -29.5990   23.3417 C   0  0  0  0  0  0  0  0  0  0  0  0
  -27.2772  -31.4416   24.2440 C   0  0  0  0  0  0  0  0  0  0  0  0
  -26.6214  -21.7785   17.8764 C   0  0  0  0  0  0  0  0  0  0  0  0
  -18.3744  -26.6022   21.3229 C   0  0  0  0  0  0  0  0  0  0  0  0
  -24.0562  -26.5445   25.3515 C   0  0  0  0  0  0  0  0  0  0  0  0
  -26.1003  -27.6149   23.5020 C   0  0  0  0  0  0  0  0  0  0  0  0
  -19.5942  -27.4916   21.0966 C   0  0  0  0  0  0  0  0  0  0  0  0
  -23.2115  -20.9916   17.2202 C   0  0  0  0  0  0  0  0  0  0  0  0
  -20.8192  -26.6442   20.7678 C   0  0  0  0  0  0  0  0  0  0  0  0
  -22.9348  -19.7919   18.1293 C   0  0  0  0  0  0  0  0  0  0  0  0
  -24.6264  -20.9534   16.6457 C   0  0  0  0  0  0  0  0  0  0  0  0
  -25.4200  -19.6061   18.5494 C   0  0  0  0  0  0  0  0  0  0  0  0
  -21.1664  -25.7030   21.9276 C   0  0  1  0  0  0  0  0  0  0  0  0
  -23.6842  -27.4446   24.1772 C   0  0  1  0  0  0  0  0  0  0  0  0
  -24.0289  -19.6347   19.2035 C   0  0  2  0  0  0  0  0  0  0  0  0
  -32.0286  -21.4328   21.6848 C   0  0  0  0  0  0  0  0  0  0  0  0
  -28.0928  -33.8102   24.3928 C   0  0  0  0  0  0  0  0  0  0  0  0
  -24.9351  -29.6540   20.3153 C   0  0  0  0  0  0  0  0  0  0  0  0
  -26.5592  -31.5339   20.6261 C   0  0  0  0  0  0  0  0  0  0  0  0
  -24.1773  -31.8198   21.3101 C   0  0  0  0  0  0  0  0  0  0  0  0
  -27.6689  -31.2454   27.1710 C   0  0  0  0  0  0  0  0  0  0  0  0
  -29.6447  -23.9757   23.4304 C   0  0  0  0  0  0  0  0  0  1  0  0
  -31.1806  -22.7020   21.7830 C   0  0  1  0  0  0  0  0  0  0  0  0
  -25.6929  -30.3369   22.6871 C   0  0  1  0  0  0  0  0  0  0  0  0
  -27.4174  -32.6652   25.1315 C   0  0  2  0  0  0  0  0  0  0  0  0
  -25.3451  -30.8113   21.2478 C   0  0  0  0  0  0  0  0  0  0  0  0
  -24.3533  -17.2493   19.7383 N   0  0  0  0  0  0  0  0  0  0  0  0
  -28.9810  -23.4898   18.8450 N   0  0  0  0  0  0  0  0  0  0  0  0
  -23.7868  -18.4194   20.0790 N   0  0  0  0  0  0  0  0  0  0  0  0
  -24.8027  -28.2740   23.7244 N   0  0  0  0  0  0  0  0  0  0  0  0
  -25.6095  -20.8074   17.7213 N   0  0  0  0  0  0  0  0  0  0  0  0
  -30.7828  -24.9439   19.4594 N   0  0  0  0  0  0  0  0  0  0  0  0
  -22.3974  -19.4440   21.7008 N   0  0  0  0  0  0  0  0  0  0  0  0
  -22.6705  -15.1642   23.1168 N   0  0  0  0  0  0  0  0  0  0  0  0
  -27.4783  -21.5516   18.9528 N   0  0  0  0  0  0  0  0  0  0  0  0
  -21.8406  -26.4286   22.9828 N   0  0  0  0  0  0  0  0  0  0  0  0
  -26.0586  -31.4150   23.5995 N   0  0  0  0  0  0  0  0  0  0  0  0
  -28.2298  -32.3399   26.3378 N   0  3  0  0  0  0  0  0  0  0  0  0
  -21.7565  -17.2190   23.5651 O   0  0  0  0  0  0  0  0  0  0  0  0
  -24.0028  -26.3210   22.1251 O   0  0  0  0  0  0  0  0  0  0  0  0
  -30.5371  -21.8037   23.9370 O   0  0  0  0  0  0  0  0  0  0  0  0
  -23.4752  -30.1791   23.5137 O   0  0  0  0  0  0  0  0  0  0  0  0
  -28.1620  -30.5961   24.1308 O   0  0  0  0  0  0  0  0  0  0  0  0
  -26.7038  -22.7551   17.1271 O   0  0  0  0  0  0  0  0  0  0  0  0
  -29.2579  -21.9316   20.4608 O   0  0  0  0  0  0  0  0  0  0  0  0
  -25.5167  -11.0562   20.6553 O   0  0  0  0  0  0  0  0  0  0  0  0
  -29.0044  -23.8643   24.7008 O   0  0  0  0  0  0  0  0  0  1  0  0
  -21.6588   -7.2430   21.6452 F   0  0  0  0  0  0  0  0  0  0  0  0
  -24.1250  -11.0334   23.0439 F   0  0  0  0  0  0  0  0  0  0  0  0
  1  2  1  0  0  0  0
  1  5  2  0  0  0  0
  2  6  2  0  0  0  0
  3  8  2  0  0  0  0
  3 15  1  0  0  0  0
  4  9  1  0  0  0  0
  4 15  2  0  0  0  0
  5 17  1  0  0  0  0
  6 19  1  0  0  0  0
  7 10  2  0  0  0  0
  7 18  1  0  0  0  0
  8 21  1  0  0  0  0
  9 21  2  0  0  0  0
 10 22  1  0  0  0  0
 11 12  2  0  0  0  0
 11 23  1  0  0  0  0
 12 24  1  0  0  0  0
 13 20  1  0  0  0  0
 13 22  2  0  0  0  0
 14 24  2  0  0  0  0
 14 25  1  0  0  0  0
 15 26  1  0  0  0  0
 16 26  1  0  0  0  0
 16 29  2  0  0  0  0
 16 31  1  0  0  0  0
 17 19  2  0  0  0  0
 17 37  1  0  0  0  0
 18 20  2  0  0  0  0
 18 38  1  0  0  0  0
 19 46  1  0  0  0  0
 20 39  1  0  0  0  0
 21 79  1  0  0  0  0
 22 80  1  0  0  0  0
 23 25  2  0  0  0  0
 23 79  1  0  0  0  0
 24 81  1  0  0  0  0
 25 82  1  0  0  0  0
 26 60  2  0  0  0  0
 27 28  2  0  0  0  0
 27 56  1  0  0  0  0
 27 78  1  0  0  0  0
 28 61  1  0  0  0  0
 28 65  1  0  0  0  0
 29 62  1  0  0  0  0
 29 66  1  0  0  0  0
 30 61  2  0  0  0  0
 30 68  1  0  0  0  0
 30 78  1  0  0  0  0
 31 67  1  0  0  0  0
 31 72  2  0  0  0  0
 32 47  1  0  0  0  0
 32 69  1  0  0  0  0
 32 73  2  0  0  0  0
 33 55  1  0  0  0  0
 33 56  1  0  0  0  0
 33 74  2  0  0  0  0
 34 57  1  0  0  0  0
 34 63  1  0  0  0  0
 34 75  2  0  0  0  0
 35 58  1  0  0  0  0
 35 70  1  0  0  0  0
 35 76  2  0  0  0  0
 36 64  1  0  0  0  0
 36 68  1  0  0  0  0
 36 77  2  0  0  0  0
 37 40  1  0  0  0  0
 38 47  1  0  0  0  0
 39 63  1  0  0  0  0
 40 42  1  0  0  0  0
 41 43  1  0  0  0  0
 41 44  1  0  0  0  0
 42 46  1  0  0  0  0
 43 48  1  0  0  0  0
 44 64  1  0  0  0  0
 45 48  1  0  0  0  0
 45 64  1  0  0  0  0
 46 69  1  0  0  0  0
 47 63  1  0  0  0  0
 48 62  1  0  0  0  0
 49 56  1  0  0  0  0
 50 58  1  0  0  0  0
 51 59  1  0  0  0  0
 52 59  1  0  0  0  0
 53 59  1  0  0  0  0
 54 71  1  0  0  0  0
 55 80  1  0  0  0  0
 57 59  1  0  0  0  0
 57 70  1  0  0  0  0
 58 71  1  0  0  0  0
 60 62  1  0  0  0  0
M  CHG  1  71   1
M  ISO  4  36 100  55 101  68 100  80 101
M  END
> <Batch ID>
0185

> <Smiles>
CNC(C)C(=O)NC(C(=O)N1Cc2cc([101O:1][101CH2:1]C(=O)C(C)c3oc([100NH:0][100C:0](=O)N4CCCC(n5nc(-c6ccc(Oc7ccc(F)cc7F)cc6)c(C(N)=O)c5N)C4)nc3N)ccc2CC1C(=O)NC1CCCc2ccccc21)C(C)(C)C

> <Shape>
0.208

> <Color>
0.064

> <Negative vol penalty>
0.000

$$$$

  -OEChem-04052305053D

 84 92  0     1  0  0  0  0  0999 V2000
  -16.2901  -19.1575   17.8443 C   0  0  0  0  0  0  0  0  0  0  0  0
  -16.8504  -17.8987   17.6519 C   0  0  0  0  0  0  0  0  0  0  0  0
  -26.0543  -27.4716   18.9108 C   0  0  0  0  0  0  0  0  0  0  0  0
  -26.1913  -26.7579   21.2149 C   0  0  0  0  0  0  0  0  0  0  0  0
  -17.0328  -20.1628   18.4620 C   0  0  0  0  0  0  0  0  0  0  0  0
  -18.1542  -17.6449   18.0762 C   0  0  0  0  0  0  0  0  0  0  0  0
  -22.2490  -12.3813   20.6923 C   0  0  0  0  0  0  0  0  0  0  0  0
  -25.3586  -28.6141   19.3060 C   0  0  0  0  0  0  0  0  0  0  0  0
  -25.4956  -27.9004   21.6102 C   0  0  0  0  0  0  0  0  0  0  0  0
  -23.4636  -11.7406   20.4514 C   0  0  0  0  0  0  0  0  0  0  0  0
  -24.0706  -30.8083   23.2631 C   0  0  0  0  0  0  0  0  0  0  0  0
  -24.5506  -31.5108   24.3683 C   0  0  0  0  0  0  0  0  0  0  0  0
  -24.6242  -13.5304   21.5779 C   0  0  0  0  0  0  0  0  0  0  0  0
  -26.6469  -31.8779   23.2247 C   0  0  0  0  0  0  0  0  0  0  0  0
  -26.4707  -26.5434   19.8652 C   0  0  0  0  0  0  0  0  0  0  0  0
  -28.5833  -25.2177   19.3299 C   0  0  0  0  0  0  0  0  0  0  0  0
  -18.3430  -19.9184   18.9028 C   0  0  0  0  0  0  0  0  0  0  0  0
  -22.2137  -13.6088   21.3694 C   0  0  0  0  0  0  0  0  0  0  0  0
  -18.9157  -18.6483   18.6992 C   0  0  0  0  0  0  0  0  0  0  0  0
  -23.4076  -14.1833   21.8284 C   0  0  0  0  0  0  0  0  0  0  0  0
  -25.0792  -28.8285   20.6557 C   0  0  0  0  0  0  0  0  0  0  0  0
  -24.6517  -12.3165   20.8917 C   0  0  0  0  0  0  0  0  0  0  0  0
  -24.8788  -30.6405   22.1386 C   0  0  0  0  0  0  0  0  0  0  0  0
  -25.8387  -32.0456   24.3492 C   0  0  0  0  0  0  0  0  0  0  0  0
  -26.1669  -31.1753   22.1194 C   0  0  0  0  0  0  0  0  0  0  0  0
  -27.1889  -25.3627   19.4575 C   0  0  0  0  0  0  0  0  0  0  0  0
  -31.0000  -15.9006   20.2404 C   0  0  0  0  0  0  0  0  0  0  0  0
  -28.7571  -23.9189   18.9181 C   0  0  0  0  0  0  0  0  0  0  0  0
  -31.9049  -16.7579   20.8306 C   0  0  0  0  0  0  0  0  0  0  0  0
  -29.8263  -17.7496   20.1246 C   0  0  0  0  0  0  0  0  0  0  0  0
  -30.1136  -13.6256   20.6739 C   0  0  0  0  0  0  0  0  0  0  0  0
  -29.6281  -26.1715   19.5628 C   0  0  0  0  0  0  0  0  0  0  0  0
  -21.2665  -16.5517   20.6307 C   0  0  0  0  0  0  0  0  0  0  0  0
  -28.0605  -12.6261   20.7200 C   0  0  0  0  0  0  0  0  0  0  0  0
  -21.9052  -17.1233   23.7592 C   0  0  0  0  0  0  0  0  0  0  0  0
  -23.6164  -16.2369   26.5757 C   0  0  0  0  0  0  0  0  0  0  0  0
  -27.5690  -18.4916   19.2875 C   0  0  0  0  0  0  0  0  0  0  0  0
  -19.1235  -21.0503   19.5227 C   0  0  0  0  0  0  0  0  0  0  0  0
  -20.8931  -14.2740   21.6448 C   0  0  0  0  0  0  0  0  0  0  0  0
  -23.4222  -15.4897   22.5778 C   0  0  0  0  0  0  0  0  0  0  0  0
  -20.3662  -20.5901   20.2804 C   0  0  0  0  0  0  0  0  0  0  0  0
  -25.3943  -20.4965   17.3056 C   0  0  0  0  0  0  0  0  0  0  0  0
  -21.1541  -19.5812   19.4509 C   0  0  0  0  0  0  0  0  0  0  0  0
  -25.7820  -21.9293   17.6783 C   0  0  0  0  0  0  0  0  0  0  0  0
  -25.4641  -19.5587   18.5095 C   0  0  0  0  0  0  0  0  0  0  0  0
  -27.1289  -21.0056   19.6069 C   0  0  0  0  0  0  0  0  0  0  0  0
  -20.3183  -18.3271   19.1679 C   0  0  1  0  0  0  0  0  0  0  0  0
  -21.0197  -15.7740   21.8924 C   0  0  1  0  0  0  0  0  0  0  0  0
  -27.1364  -21.9738   18.4126 C   0  0  2  0  0  0  0  0  0  0  0  0
  -27.1122  -11.5902   18.6405 C   0  0  0  0  0  0  0  0  0  0  0  0
  -23.9608  -16.9157   28.9670 C   0  0  0  0  0  0  0  0  0  0  0  0
  -23.6804  -19.4308   22.8459 C   0  0  0  0  0  0  0  0  0  0  0  0
  -24.7109  -19.4492   25.1276 C   0  0  0  0  0  0  0  0  0  0  0  0
  -22.2775  -19.9262   24.8561 C   0  0  0  0  0  0  0  0  0  0  0  0
  -22.5815  -13.6524   27.5798 C   0  0  0  0  0  0  0  0  0  0  0  0
  -31.1943  -14.4277   20.0039 C   0  0  0  0  0  0  0  0  0  0  0  0
  -26.8046  -12.4059   19.8854 C   0  0  1  0  0  0  0  0  0  1  0  0
  -23.1204  -17.5638   24.5391 C   0  0  1  0  0  0  0  0  0  0  0  0
  -23.1622  -16.0431   28.0112 C   0  0  2  0  0  0  0  0  0  0  0  0
  -23.4475  -19.0688   24.3264 C   0  0  0  0  0  0  0  0  0  0  0  0
  -26.5241  -24.2454   19.1515 N   0  0  0  0  0  0  0  0  0  0  0  0
  -29.8074  -16.4674   19.8352 N   0  0  0  0  0  0  0  0  0  0  0  0
  -29.0069  -13.3783   20.0559 N   0  0  0  0  0  0  0  0  0  0  0  0
  -27.5050  -23.3859   18.8274 N   0  0  0  0  0  0  0  0  0  0  0  0
  -22.1060  -16.1045   22.8170 N   0  0  0  0  0  0  0  0  0  0  0  0
  -26.7767  -19.6513   19.1523 N   0  0  0  0  0  0  0  0  0  0  0  0
  -29.8574  -23.1923   18.6284 N   0  0  0  0  0  0  0  0  0  0  0  0
  -33.1370  -16.4686   21.3153 N   0  0  0  0  0  0  0  0  0  0  0  0
  -29.2741  -27.4611   19.9825 N   0  0  0  0  0  0  0  0  0  0  0  0
  -28.8105  -18.7080   19.8847 N   0  0  0  0  0  0  0  0  0  0  0  0
  -20.2790  -17.4719   20.3347 N   0  0  0  0  0  0  0  0  0  0  0  0
  -22.8684  -17.1977   25.9286 N   0  0  0  0  0  0  0  0  0  0  0  0
  -23.3321  -14.6202   28.4206 N   0  3  0  0  0  0  0  0  0  0  0  0
  -30.8387  -25.8936   19.3876 O   0  0  0  0  0  0  0  0  0  0  0  0
  -22.2786  -16.3341   19.9750 O   0  0  0  0  0  0  0  0  0  0  0  0
  -28.1526  -12.1907   21.8664 O   0  0  0  0  0  0  0  0  0  0  0  0
  -20.8164  -17.6582   23.9829 O   0  0  0  0  0  0  0  0  0  0  0  0
  -24.5446  -15.6024   26.0793 O   0  0  0  0  0  0  0  0  0  0  0  0
  -27.1865  -17.3928   18.8773 O   0  0  0  0  0  0  0  0  0  0  0  0
  -24.4006  -29.9434   21.0417 O   0  0  0  0  0  0  0  0  0  0  0  0
  -25.8386  -11.6936   20.6573 O   0  0  0  0  0  0  0  0  0  1  0  0
  -26.2989  -32.7216   25.4100 F   0  0  0  0  0  0  0  0  0  0  0  0
  -26.9475  -31.0184   21.0415 F   0  0  0  0  0  0  0  0  0  0  0  0
  -31.2471  -18.3409   20.8840 S   0  0  0  0  0  0  0  0  0  0  0  0
  1  2  1  0  0  0  0
  1  5  2  0  0  0  0
  2  6  2  0  0  0  0
  3  8  2  0  0  0  0
  3 15  1  0  0  0  0
  4  9  1  0  0  0  0
  4 15  2  0  0  0  0
  5 17  1  0  0  0  0
  6 19  1  0  0  0  0
  7 10  2  0  0  0  0
  7 18  1  0  0  0  0
  8 21  1  0  0  0  0
  9 21  2  0  0  0  0
 10 22  1  0  0  0  0
 11 12  2  0  0  0  0
 11 23  1  0  0  0  0
 12 24  1  0  0  0  0
 13 20  1  0  0  0  0
 13 22  2  0  0  0  0
 14 24  2  0  0  0  0
 14 25  1  0  0  0  0
 15 26  1  0  0  0  0
 16 26  1  0  0  0  0
 16 28  2  0  0  0  0
 16 32  1  0  0  0  0
 17 19  2  0  0  0  0
 17 38  1  0  0  0  0
 18 20  2  0  0  0  0
 18 39  1  0  0  0  0
 19 47  1  0  0  0  0
 20 40  1  0  0  0  0
 21 80  1  0  0  0  0
 22 81  1  0  0  0  0
 23 25  2  0  0  0  0
 23 80  1  0  0  0  0
 24 82  1  0  0  0  0
 25 83  1  0  0  0  0
 26 61  2  0  0  0  0
 27 29  2  0  0  0  0
 27 56  1  0  0  0  0
 27 62  1  0  0  0  0
 28 64  1  0  0  0  0
 28 67  1  0  0  0  0
 29 68  1  0  0  0  0
 29 84  1  0  0  0  0
 30 62  2  0  0  0  0
 30 70  1  0  0  0  0
 30 84  1  0  0  0  0
 31 56  1  0  0  0  0
 31 63  2  0  0  0  0
 32 69  1  0  0  0  0
 32 74  2  0  0  0  0
 33 48  1  0  0  0  0
 33 71  1  0  0  0  0
 33 75  2  0  0  0  0
 34 57  1  0  0  0  0
 34 63  1  0  0  0  0
 34 76  2  0  0  0  0
 35 58  1  0  0  0  0
 35 65  1  0  0  0  0
 35 77  2  0  0  0  0
 36 59  1  0  0  0  0
 36 72  1  0  0  0  0
 36 78  2  0  0  0  0
 37 66  1  0  0  0  0
 37 70  1  0  0  0  0
 37 79  2  0  0  0  0
 38 41  1  0  0  0  0
 39 48  1  0  0  0  0
 40 65  1  0  0  0  0
 41 43  1  0  0  0  0
 42 44  1  0  0  0  0
 42 45  1  0  0  0  0
 43 47  1  0  0  0  0
 44 49  1  0  0  0  0
 45 66  1  0  0  0  0
 46 49  1  0  0  0  0
 46 66  1  0  0  0  0
 47 71  1  0  0  0  0
 48 65  1  0  0  0  0
 49 64  1  0  0  0  0
 50 57  1  0  0  0  0
 51 59  1  0  0  0  0
 52 60  1  0  0  0  0
 53 60  1  0  0  0  0
 54 60  1  0  0  0  0
 55 73  1  0  0  0  0
 57 81  1  0  0  0  0
 58 60  1  0  0  0  0
 58 72  1  0  0  0  0
 59 73  1  0  0  0  0
 61 64  1  0  0  0  0
M  CHG  1  73   1
M  ISO  4  37 100  57 101  70 100  81 101
M  END
> <Batch ID>
0185

> <Smiles>
CNC(C)C(=O)NC(C(=O)N1Cc2cc([101O:1][101CH:1](C)C(=O)NC=Cc3nc([100NH:0][100C:0](=O)N4CCCC(n5nc(-c6ccc(Oc7ccc(F)cc7F)cc6)c(C(N)=O)c5N)C4)sc3N)ccc2CC1C(=O)NC1CCCc2ccccc21)C(C)(C)C

> <Shape>
0.233

> <Color>
0.053

> <Negative vol penalty>
0.000

$$$$

  -OEChem-04052305053D

 82 90  0     1  0  0  0  0  0999 V2000
  -26.8653  -35.4703   24.8399 C   0  0  0  0  0  0  0  0  0  0  0  0
  -27.7974  -34.8614   24.0058 C   0  0  0  0  0  0  0  0  0  0  0  0
  -22.1900  -10.4169   21.3245 C   0  0  0  0  0  0  0  0  0  0  0  0
  -24.5598   -9.9528   21.2501 C   0  0  0  0  0  0  0  0  0  0  0  0
  -25.8811  -34.7027   25.4611 C   0  0  0  0  0  0  0  0  0  0  0  0
  -27.7466  -33.4842   23.7933 C   0  0  0  0  0  0  0  0  0  0  0  0
  -29.0524  -28.5604   18.7567 C   0  0  0  0  0  0  0  0  0  0  0  0
  -21.9187   -9.0613   21.1396 C   0  0  0  0  0  0  0  0  0  0  0  0
  -24.2885   -8.5971   21.0652 C   0  0  0  0  0  0  0  0  0  0  0  0
  -29.7529  -27.3695   18.5707 C   0  0  0  0  0  0  0  0  0  0  0  0
  -24.2218   -4.9644   20.9344 C   0  0  0  0  0  0  0  0  0  0  0  0
  -24.9565   -4.0469   21.6854 C   0  0  0  0  0  0  0  0  0  0  0  0
  -27.9598  -26.1557   19.6341 C   0  0  0  0  0  0  0  0  0  0  0  0
  -24.1132   -5.0379   23.7211 C   0  0  0  0  0  0  0  0  0  0  0  0
  -23.5106  -10.8627   21.3797 C   0  0  0  0  0  0  0  0  0  0  0  0
  -23.9622  -12.9370   22.7942 C   0  0  0  0  0  0  0  0  0  0  0  0
  -25.8122  -33.3168   25.2486 C   0  0  0  0  0  0  0  0  0  0  0  0
  -27.8031  -28.5593   19.3936 C   0  0  0  0  0  0  0  0  0  0  0  0
  -26.7613  -32.6971   24.4134 C   0  0  0  0  0  0  0  0  0  0  0  0
  -27.2443  -27.3477   19.8246 C   0  0  0  0  0  0  0  0  0  0  0  0
  -22.9679   -8.1514   21.0100 C   0  0  0  0  0  0  0  0  0  0  0  0
  -29.2080  -26.1672   19.0120 C   0  0  0  0  0  0  0  0  0  0  0  0
  -23.4329   -5.9187   21.5767 C   0  0  0  0  0  0  0  0  0  0  0  0
  -24.9022   -4.0836   23.0787 C   0  0  0  0  0  0  0  0  0  0  0  0
  -23.3785   -5.9554   22.9701 C   0  0  0  0  0  0  0  0  0  0  0  0
  -23.7916  -12.2630   21.5701 C   0  0  0  0  0  0  0  0  0  0  0  0
  -29.3057  -20.8798   21.4375 C   0  0  0  0  0  0  0  0  0  0  0  0
  -24.2072  -14.2405   22.4372 C   0  0  0  0  0  0  0  0  0  0  0  0
  -29.5843  -20.2328   22.6231 C   0  0  0  0  0  0  0  0  0  0  0  0
  -28.1942  -19.0252   21.0702 C   0  0  0  0  0  0  0  0  0  0  0  0
  -23.9046  -12.4302   24.1342 C   0  0  0  0  0  0  0  0  0  0  0  0
  -26.6385  -29.8592   22.0503 C   0  0  0  0  0  0  0  0  0  0  0  0
  -23.8328  -28.6715   20.9370 C   0  0  0  0  0  0  0  0  0  0  0  0
  -22.2293  -26.3817   18.9793 C   0  0  0  0  0  0  0  0  0  0  0  0
  -29.5516  -22.8997   19.9547 C   0  0  0  0  0  0  0  0  0  0  0  0
  -26.7720  -18.0183   19.2508 C   0  0  0  0  0  0  0  0  0  0  0  0
  -24.7593  -32.5217   25.9793 C   0  0  0  0  0  0  0  0  0  0  0  0
  -27.0480  -29.8492   19.5627 C   0  0  0  0  0  0  0  0  0  0  0  0
  -25.8973  -27.2900   20.4960 C   0  0  0  0  0  0  0  0  0  0  0  0
  -24.5448  -31.1234   25.4058 C   0  0  0  0  0  0  0  0  0  0  0  0
  -23.7900  -16.5634   17.9593 C   0  0  0  0  0  0  0  0  0  0  0  0
  -25.8841  -30.4352   25.1617 C   0  0  0  0  0  0  0  0  0  0  0  0
  -23.5386  -15.3704   18.8843 C   0  0  0  0  0  0  0  0  0  0  0  0
  -25.2804  -16.7756   17.6997 C   0  0  0  0  0  0  0  0  0  0  0  0
  -25.8610  -15.6839   19.8305 C   0  0  0  0  0  0  0  0  0  0  0  0
  -26.7237  -31.2095   24.1384 C   0  0  1  0  0  0  0  0  0  0  0  0
  -26.0156  -29.7945   20.6845 C   0  0  1  0  0  0  0  0  0  0  0  0
  -24.3776  -15.4701   20.1734 C   0  0  2  0  0  0  0  0  0  0  0  0
  -19.9316  -25.6334   18.3025 C   0  0  0  0  0  0  0  0  0  0  0  0
  -31.7471  -24.1331   20.0896 C   0  0  0  0  0  0  0  0  0  0  0  0
  -23.4887  -27.2935   23.6375 C   0  0  0  0  0  0  0  0  0  0  0  0
  -21.7331  -25.8441   22.5957 C   0  0  0  0  0  0  0  0  0  0  0  0
  -21.4007  -28.3136   22.7132 C   0  0  0  0  0  0  0  0  0  0  0  0
  -22.7421  -26.9965   16.1301 C   0  0  0  0  0  0  0  0  0  0  0  0
  -23.0895  -27.3662   21.0877 C   0  0  1  0  0  0  0  0  0  0  0  0
  -21.1110  -26.5318   17.9638 C   0  0  2  0  0  0  0  0  0  0  0  0
  -30.2337  -24.2645   20.0037 C   0  0  1  0  0  0  0  0  0  1  0  0
  -22.4543  -27.2053   22.4977 C   0  0  0  0  0  0  0  0  0  0  0  0
  -23.9173  -13.0715   20.5144 N   0  0  0  0  0  0  0  0  0  0  0  0
  -28.5091  -20.1887   20.5456 N   0  0  0  0  0  0  0  0  0  0  0  0
  -24.1695  -14.2670   21.0741 N   0  0  0  0  0  0  0  0  0  0  0  0
  -25.2007  -28.5785   20.6440 N   0  0  0  0  0  0  0  0  0  0  0  0
  -26.0107  -16.8650   18.9661 N   0  0  0  0  0  0  0  0  0  0  0  0
  -24.4489  -15.3551   23.1595 N   0  0  0  0  0  0  0  0  0  0  0  0
  -23.6426  -11.0662   24.3219 N   0  0  0  0  0  0  0  0  0  0  0  0
  -29.7871  -22.1713   21.1162 N   0  0  0  0  0  0  0  0  0  0  0  0
  -27.3957  -18.0040   20.4980 N   0  0  0  0  0  0  0  0  0  0  0  0
  -26.2463  -30.9543   22.7963 N   0  0  0  0  0  0  0  0  0  0  0  0
  -22.1296  -27.3140   19.9903 N   0  0  0  0  0  0  0  0  0  0  0  0
  -21.5975  -26.1749   16.6011 N   0  3  0  0  0  0  0  0  0  0  0  0
  -24.0640  -13.1682   25.1359 O   0  0  0  0  0  0  0  0  0  0  0  0
  -27.4163  -28.9799   22.4018 O   0  0  0  0  0  0  0  0  0  0  0  0
  -23.2206  -29.7345   21.0671 O   0  0  0  0  0  0  0  0  0  0  0  0
  -23.1017  -25.5210   18.8871 O   0  0  0  0  0  0  0  0  0  0  0  0
  -28.8795  -22.5586   18.9857 O   0  0  0  0  0  0  0  0  0  0  0  0
  -26.8419  -18.9616   18.4589 O   0  0  0  0  0  0  0  0  0  0  0  0
  -22.7034   -6.8284   20.8297 O   0  0  0  0  0  0  0  0  0  0  0  0
  -29.8900  -25.0034   18.8323 O   0  0  0  0  0  0  0  0  0  1  0  0
  -25.6065   -3.2014   23.7998 F   0  0  0  0  0  0  0  0  0  0  0  0
  -22.6215   -6.8691   23.5928 F   0  0  0  0  0  0  0  0  0  0  0  0
  -30.3318  -20.7212   23.6166 F   0  0  0  0  0  0  0  0  0  0  0  0
  -28.8215  -18.6968   22.6334 S   0  0  0  0  0  0  0  0  0  0  0  0
  1  2  1  0  0  0  0
  1  5  2  0  0  0  0
  2  6  2  0  0  0  0
  3  8  2  0  0  0  0
  3 15  1  0  0  0  0
  4  9  1  0  0  0  0
  4 15  2  0  0  0  0
  5 17  1  0  0  0  0
  6 19  1  0  0  0  0
  7 10  2  0  0  0  0
  7 18  1  0  0  0  0
  8 21  1  0  0  0  0
  9 21  2  0  0  0  0
 10 22  1  0  0  0  0
 11 12  2  0  0  0  0
 11 23  1  0  0  0  0
 12 24  1  0  0  0  0
 13 20  1  0  0  0  0
 13 22  2  0  0  0  0
 14 24  2  0  0  0  0
 14 25  1  0  0  0  0
 15 26  1  0  0  0  0
 16 26  1  0  0  0  0
 16 28  2  0  0  0  0
 16 31  1  0  0  0  0
 17 19  2  0  0  0  0
 17 37  1  0  0  0  0
 18 20  2  0  0  0  0
 18 38  1  0  0  0  0
 19 46  1  0  0  0  0
 20 39  1  0  0  0  0
 21 77  1  0  0  0  0
 22 78  1  0  0  0  0
 23 25  2  0  0  0  0
 23 77  1  0  0  0  0
 24 79  1  0  0  0  0
 25 80  1  0  0  0  0
 26 59  2  0  0  0  0
 27 29  2  0  0  0  0
 27 60  1  0  0  0  0
 27 66  1  0  0  0  0
 28 61  1  0  0  0  0
 28 64  1  0  0  0  0
 29 81  1  0  0  0  0
 29 82  1  0  0  0  0
 30 60  2  0  0  0  0
 30 67  1  0  0  0  0
 30 82  1  0  0  0  0
 31 65  1  0  0  0  0
 31 71  2  0  0  0  0
 32 47  1  0  0  0  0
 32 68  1  0  0  0  0
 32 72  2  0  0  0  0
 33 55  1  0  0  0  0
 33 62  1  0  0  0  0
 33 73  2  0  0  0  0
 34 56  1  0  0  0  0
 34 69  1  0  0  0  0
 34 74  2  0  0  0  0
 35 57  1  0  0  0  0
 35 66  1  0  0  0  0
 35 75  2  0  0  0  0
 36 63  1  0  0  0  0
 36 67  1  0  0  0  0
 36 76  2  0  0  0  0
 37 40  1  0  0  0  0
 38 47  1  0  0  0  0
 39 62  1  0  0  0  0
 40 42  1  0  0  0  0
 41 43  1  0  0  0  0
 41 44  1  0  0  0  0
 42 46  1  0  0  0  0
 43 48  1  0  0  0  0
 44 63  1  0  0  0  0
 45 48  1  0  0  0  0
 45 63  1  0  0  0  0
 46 68  1  0  0  0  0
 47 62  1  0  0  0  0
 48 61  1  0  0  0  0
 49 56  1  0  0  0  0
 50 57  1  0  0  0  0
 51 58  1  0  0  0  0
 52 58  1  0  0  0  0
 53 58  1  0  0  0  0
 54 70  1  0  0  0  0
 55 58  1  0  0  0  0
 55 69  1  0  0  0  0
 56 70  1  0  0  0  0
 57 78  1  0  0  0  0
 59 61  1  0  0  0  0
M  CHG  1  70   1
M  ISO  4  36 100  57 101  67 100  78 101
M  END
> <Batch ID>
0185

> <Smiles>
CNC(C)C(=O)NC(C(=O)N1Cc2cc([101O:1][101CH:1](C)C(=O)Nc3nc([100NH:0][100C:0](=O)N4CCCC(n5nc(-c6ccc(Oc7ccc(F)cc7F)cc6)c(C(N)=O)c5N)C4)sc3F)ccc2CC1C(=O)NC1CCCc2ccccc21)C(C)(C)C

> <Shape>
0.271

> <Color>
0.062

> <Negative vol penalty>
0.000

$$$$

  -OEChem-04052305053D

 88 96  0     1  0  0  0  0  0999 V2000
  -26.3815  -16.4222   16.7470 C   0  0  0  0  0  0  0  0  0  0  0  0
  -26.9256  -17.1988   17.7649 C   0  0  0  0  0  0  0  0  0  0  0  0
  -23.0929   -9.8514   19.9667 C   0  0  0  0  0  0  0  0  0  0  0  0
  -23.8121   -9.9290   22.2719 C   0  0  0  0  0  0  0  0  0  0  0  0
  -25.8227  -17.0356   15.6265 C   0  0  0  0  0  0  0  0  0  0  0  0
  -26.9123  -18.5894   17.6625 C   0  0  0  0  0  0  0  0  0  0  0  0
  -25.4859  -20.8410   21.9683 C   0  0  0  0  0  0  0  0  0  0  0  0
  -22.3502   -8.7021   20.2371 C   0  0  0  0  0  0  0  0  0  0  0  0
  -23.0694   -8.7797   22.5423 C   0  0  0  0  0  0  0  0  0  0  0  0
  -26.4363  -20.9322   22.9843 C   0  0  0  0  0  0  0  0  0  0  0  0
  -19.8349   -7.9827   23.1111 C   0  0  0  0  0  0  0  0  0  0  0  0
  -19.0576   -7.9728   24.2692 C   0  0  0  0  0  0  0  0  0  0  0  0
  -26.8709  -23.2225   22.3639 C   0  0  0  0  0  0  0  0  0  0  0  0
  -20.2950   -6.0642   25.0834 C   0  0  0  0  0  0  0  0  0  0  0  0
  -23.8239  -10.4649   20.9841 C   0  0  0  0  0  0  0  0  0  0  0  0
  -24.1557  -12.9873   20.7965 C   0  0  0  0  0  0  0  0  0  0  0  0
  -25.7939  -18.4347   15.5147 C   0  0  0  0  0  0  0  0  0  0  0  0
  -25.2282  -21.9384   21.1341 C   0  0  0  0  0  0  0  0  0  0  0  0
  -26.3538  -19.2221   16.5388 C   0  0  0  0  0  0  0  0  0  0  0  0
  -25.9149  -23.1435   21.3397 C   0  0  0  0  0  0  0  0  0  0  0  0
  -22.3384   -8.1663   21.5248 C   0  0  0  0  0  0  0  0  0  0  0  0
  -27.1310  -22.1222   23.1804 C   0  0  0  0  0  0  0  0  0  0  0  0
  -20.8422   -7.0333   22.9391 C   0  0  0  0  0  0  0  0  0  0  0  0
  -19.2876   -7.0136   25.2554 C   0  0  0  0  0  0  0  0  0  0  0  0
  -21.0723   -6.0741   23.9252 C   0  0  0  0  0  0  0  0  0  0  0  0
  -24.5917  -11.6518   20.7053 C   0  0  0  0  0  0  0  0  0  0  0  0
  -31.7449  -18.8187   22.1691 C   0  0  0  0  0  0  0  0  0  0  0  0
  -25.2506  -13.7316   20.4308 C   0  0  0  0  0  0  0  0  0  0  0  0
  -30.6286  -19.2023   22.8826 C   0  0  0  0  0  0  0  0  0  0  0  0
  -30.5208  -17.0262   21.8551 C   0  0  0  0  0  0  0  0  0  0  0  0
  -22.8756  -13.5083   21.1779 C   0  0  0  0  0  0  0  0  0  0  0  0
  -25.4994  -22.4989   18.0171 C   0  0  0  0  0  0  0  0  0  0  0  0
  -24.0441  -25.2933   18.7889 C   0  0  0  0  0  0  0  0  0  0  0  0
  -23.3418  -27.6322   21.1728 C   0  0  0  0  0  0  0  0  0  0  0  0
  -31.1124  -21.5004   23.7999 C   0  0  0  0  0  0  0  0  0  0  0  0
  -30.7078  -14.8106   20.6709 C   0  0  0  0  0  0  0  0  0  0  0  0
  -25.2216  -19.0512   14.2629 C   0  0  0  0  0  0  0  0  0  0  0  0
  -24.1808  -21.8322   20.0598 C   0  0  0  0  0  0  0  0  0  0  0  0
  -25.6607  -24.3569   20.4845 C   0  0  0  0  0  0  0  0  0  0  0  0
  -24.9104  -20.5390   14.4041 C   0  0  0  0  0  0  0  0  0  0  0  0
  -29.6469  -12.3233   18.3546 C   0  0  0  0  0  0  0  0  0  0  0  0
  -26.0775  -21.2685   15.0618 C   0  0  0  0  0  0  0  0  0  0  0  0
  -28.2013  -12.0367   18.7672 C   0  0  0  0  0  0  0  0  0  0  0  0
  -30.5395  -12.5916   19.5650 C   0  0  0  0  0  0  0  0  0  0  0  0
  -28.6051  -13.3458   20.8909 C   0  0  0  0  0  0  0  0  0  0  0  0
  -26.3359  -20.7340   16.4756 C   0  0  1  0  0  0  0  0  0  0  0  0
  -24.3677  -22.8516   18.9403 C   0  0  1  0  0  0  0  0  0  0  0  0
  -27.6540  -13.1334   19.7018 C   0  0  2  0  0  0  0  0  0  0  0  0
  -22.1634  -29.8243   21.4950 C   0  0  0  0  0  0  0  0  0  0  0  0
  -35.5328  -20.4847   22.7440 C   0  0  0  0  0  0  0  0  0  0  0  0
  -36.2255  -19.7317   20.4525 C   0  0  0  0  0  0  0  0  0  0  0  0
  -31.3899  -23.7878   24.8238 C   0  0  0  0  0  0  0  0  0  0  0  0
  -30.0607  -22.0282   26.0461 C   0  0  0  0  0  0  0  0  0  0  0  0
  -26.3439  -26.7322   17.3922 C   0  0  0  0  0  0  0  0  0  0  0  0
  -25.6348  -28.8381   18.5457 C   0  0  0  0  0  0  0  0  0  0  0  0
  -24.0831  -27.7072   16.9532 C   0  0  0  0  0  0  0  0  0  0  0  0
  -21.4865  -26.4742   23.1668 C   0  0  0  0  0  0  0  0  0  0  0  0
  -33.9360  -19.1518   21.3066 C   0  0  0  0  0  0  0  0  0  0  0  0
  -29.1529  -23.1053   23.9559 C   0  0  0  0  0  0  0  0  0  1  0  0
  -24.5161  -26.6627   19.2145 C   0  0  1  0  0  0  0  0  0  0  0  0
  -22.0419  -28.3101   21.5668 C   0  0  2  0  0  0  0  0  0  0  0  0
  -35.0565  -20.1951   21.3189 C   0  0  0  0  0  0  0  0  0  0  0  0
  -30.4306  -22.5951   24.6640 C   0  0  0  0  0  0  0  0  0  0  0  0
  -25.1509  -27.4617   18.0414 C   0  0  0  0  0  0  0  0  0  0  0  0
  -25.8642  -11.5505   20.3122 N   0  0  0  0  0  0  0  0  0  0  0  0
  -31.6850  -17.5710   21.5796 N   0  0  0  0  0  0  0  0  0  0  0  0
  -26.2372  -12.8318   20.1532 N   0  0  0  0  0  0  0  0  0  0  0  0
  -24.6316  -24.2013   19.4432 N   0  0  0  0  0  0  0  0  0  0  0  0
  -29.9603  -13.6445   20.4021 N   0  0  0  0  0  0  0  0  0  0  0  0
  -25.4559  -15.0615   20.3227 N   0  0  0  0  0  0  0  0  0  0  0  0
  -21.8622  -12.6040   21.5237 N   0  0  0  0  0  0  0  0  0  0  0  0
  -30.3153  -20.3747   23.6128 N   0  0  0  0  0  0  0  0  0  0  0  0
  -30.0417  -15.7555   21.4506 N   0  0  0  0  0  0  0  0  0  0  0  0
  -25.3624  -21.2683   17.4037 N   0  0  0  0  0  0  0  0  0  0  0  0
  -23.3671  -27.3173   19.8307 N   0  0  0  0  0  0  0  0  0  0  0  0
  -21.6628  -27.9345   22.9583 N   0  3  0  0  0  0  0  0  0  0  0  0
  -22.6325  -14.7388   21.1952 O   0  0  0  0  0  0  0  0  0  0  0  0
  -26.4274  -23.2857   17.8708 O   0  0  0  0  0  0  0  0  0  0  0  0
  -23.1805  -25.1964   17.9134 O   0  0  0  0  0  0  0  0  0  0  0  0
  -24.2459  -27.4082   21.9747 O   0  0  0  0  0  0  0  0  0  0  0  0
  -32.2488  -21.6582   23.3575 O   0  0  0  0  0  0  0  0  0  0  0  0
  -31.8442  -14.9716   20.2184 O   0  0  0  0  0  0  0  0  0  0  0  0
  -21.6136   -7.0449   21.7891 O   0  0  0  0  0  0  0  0  0  0  0  0
  -28.0596  -22.2137   24.1709 O   0  0  0  0  0  0  0  0  0  1  0  0
  -32.8179  -19.6273   22.0665 O   0  0  0  0  0  0  0  0  0  0  0  0
  -18.5420   -7.0052   26.3681 F   0  0  0  0  0  0  0  0  0  0  0  0
  -22.0394   -5.1602   23.7662 F   0  0  0  0  0  0  0  0  0  0  0  0
  -29.4492  -17.9588   22.8179 S   0  0  0  0  0  0  0  0  0  0  0  0
  1  2  1  0  0  0  0
  1  5  2  0  0  0  0
  2  6  2  0  0  0  0
  3  8  2  0  0  0  0
  3 15  1  0  0  0  0
  4  9  1  0  0  0  0
  4 15  2  0  0  0  0
  5 17  1  0  0  0  0
  6 19  1  0  0  0  0
  7 10  2  0  0  0  0
  7 18  1  0  0  0  0
  8 21  1  0  0  0  0
  9 21  2  0  0  0  0
 10 22  1  0  0  0  0
 11 12  2  0  0  0  0
 11 23  1  0  0  0  0
 12 24  1  0  0  0  0
 13 20  1  0  0  0  0
 13 22  2  0  0  0  0
 14 24  2  0  0  0  0
 14 25  1  0  0  0  0
 15 26  1  0  0  0  0
 16 26  1  0  0  0  0
 16 28  2  0  0  0  0
 16 31  1  0  0  0  0
 17 19  2  0  0  0  0
 17 37  1  0  0  0  0
 18 20  2  0  0  0  0
 18 38  1  0  0  0  0
 19 46  1  0  0  0  0
 20 39  1  0  0  0  0
 21 83  1  0  0  0  0
 22 84  1  0  0  0  0
 23 25  2  0  0  0  0
 23 83  1  0  0  0  0
 24 86  1  0  0  0  0
 25 87  1  0  0  0  0
 26 65  2  0  0  0  0
 27 29  2  0  0  0  0
 27 66  1  0  0  0  0
 27 85  1  0  0  0  0
 28 67  1  0  0  0  0
 28 70  1  0  0  0  0
 29 72  1  0  0  0  0
 29 88  1  0  0  0  0
 30 66  2  0  0  0  0
 30 73  1  0  0  0  0
 30 88  1  0  0  0  0
 31 71  1  0  0  0  0
 31 77  2  0  0  0  0
 32 47  1  0  0  0  0
 32 74  1  0  0  0  0
 32 78  2  0  0  0  0
 33 60  1  0  0  0  0
 33 68  1  0  0  0  0
 33 79  2  0  0  0  0
 34 61  1  0  0  0  0
 34 75  1  0  0  0  0
 34 80  2  0  0  0  0
 35 63  1  0  0  0  0
 35 72  1  0  0  0  0
 35 81  2  0  0  0  0
 36 69  1  0  0  0  0
 36 73  1  0  0  0  0
 36 82  2  0  0  0  0
 37 40  1  0  0  0  0
 38 47  1  0  0  0  0
 39 68  1  0  0  0  0
 40 42  1  0  0  0  0
 41 43  1  0  0  0  0
 41 44  1  0  0  0  0
 42 46  1  0  0  0  0
 43 48  1  0  0  0  0
 44 69  1  0  0  0  0
 45 48  1  0  0  0  0
 45 69  1  0  0  0  0
 46 74  1  0  0  0  0
 47 68  1  0  0  0  0
 48 67  1  0  0  0  0
 49 61  1  0  0  0  0
 50 62  1  0  0  0  0
 51 62  1  0  0  0  0
 52 63  1  0  0  0  0
 53 63  1  0  0  0  0
 54 64  1  0  0  0  0
 55 64  1  0  0  0  0
 56 64  1  0  0  0  0
 57 76  1  0  0  0  0
 58 62  1  0  0  0  0
 58 85  1  0  0  0  0
 59 63  1  0  0  0  0
 59 84  1  0  0  0  0
 60 64  1  0  0  0  0
 60 75  1  0  0  0  0
 61 76  1  0  0  0  0
 65 67  1  0  0  0  0
M  CHG  1  76   1
M  ISO  4  36 100  59 101  73 100  84 101
M  END
> <Batch ID>
0185

> <Smiles>
CNC(C)C(=O)NC(C(=O)N1Cc2cc([101O:1][101CH2:1]C(C)(C)C(=O)Nc3sc([100NH:0][100C:0](=O)N4CCCC(n5nc(-c6ccc(Oc7ccc(F)cc7F)cc6)c(C(N)=O)c5N)C4)nc3OCC(C)C)ccc2CC1C(=O)NC1CCCc2ccccc21)C(C)(C)C

> <Shape>
0.212

> <Color>
0.178

> <Negative vol penalty>
0.000

$$$$

  -OEChem-04052305053D

 88 96  0     1  0  0  0  0  0999 V2000
  -20.6068  -34.4900   22.2981 C   0  0  0  0  0  0  0  0  0  0  0  0
  -21.8826  -33.9508   22.1676 C   0  0  0  0  0  0  0  0  0  0  0  0
  -24.6837  -10.1281   22.1991 C   0  0  0  0  0  0  0  0  0  0  0  0
  -24.8180  -11.5540   24.1448 C   0  0  0  0  0  0  0  0  0  0  0  0
  -19.5637  -33.7007   22.7806 C   0  0  0  0  0  0  0  0  0  0  0  0
  -22.1162  -32.6221   22.5207 C   0  0  0  0  0  0  0  0  0  0  0  0
  -26.0124  -28.7310   19.8403 C   0  0  0  0  0  0  0  0  0  0  0  0
  -24.3813   -9.0398   23.0174 C   0  0  0  0  0  0  0  0  0  0  0  0
  -24.5155  -10.4656   24.9632 C   0  0  0  0  0  0  0  0  0  0  0  0
  -27.3052  -28.3241   20.1671 C   0  0  0  0  0  0  0  0  0  0  0  0
  -21.6808   -7.8253   24.6500 C   0  0  0  0  0  0  0  0  0  0  0  0
  -20.6392   -6.9863   24.2542 C   0  0  0  0  0  0  0  0  0  0  0  0
  -26.4067  -26.3776   21.2728 C   0  0  0  0  0  0  0  0  0  0  0  0
  -22.1737   -5.1222   24.1675 C   0  0  0  0  0  0  0  0  0  0  0  0
  -24.9021  -11.3852   22.7628 C   0  0  0  0  0  0  0  0  0  0  0  0
  -24.3063  -13.4059   21.3242 C   0  0  0  0  0  0  0  0  0  0  0  0
  -19.7825  -32.3590   23.1307 C   0  0  0  0  0  0  0  0  0  0  0  0
  -24.9045  -27.9686   20.2374 C   0  0  0  0  0  0  0  0  0  0  0  0
  -21.0753  -31.8146   23.0096 C   0  0  0  0  0  0  0  0  0  0  0  0
  -25.1009  -26.7756   20.9476 C   0  0  0  0  0  0  0  0  0  0  0  0
  -24.2972   -9.2085   24.3995 C   0  0  0  0  0  0  0  0  0  0  0  0
  -27.5024  -27.1488   20.8860 C   0  0  0  0  0  0  0  0  0  0  0  0
  -22.9689   -7.3128   24.8045 C   0  0  0  0  0  0  0  0  0  0  0  0
  -20.8856   -5.6348   24.0130 C   0  0  0  0  0  0  0  0  0  0  0  0
  -23.2153   -5.9612   24.5633 C   0  0  0  0  0  0  0  0  0  0  0  0
  -25.2151  -12.5097   21.9180 C   0  0  0  0  0  0  0  0  0  0  0  0
  -25.0975  -14.2852   20.6263 C   0  0  0  0  0  0  0  0  0  0  0  0
  -29.1023  -21.6553   19.4211 C   0  0  0  0  0  0  0  0  0  0  0  0
  -28.3398  -19.7558   20.1599 C   0  0  0  0  0  0  0  0  0  0  0  0
  -22.8748  -13.4404   21.3971 C   0  0  0  0  0  0  0  0  0  0  0  0
  -22.3828  -28.4795   22.1039 C   0  0  0  0  0  0  0  0  0  0  0  0
  -30.4373  -22.4105   17.4250 C   0  0  0  0  0  0  0  0  0  0  0  0
  -30.4257  -25.0050   20.9695 C   0  0  0  0  0  0  0  0  0  0  0  0
  -21.4743  -25.5626   21.0136 C   0  0  0  0  0  0  0  0  0  0  0  0
  -22.3847  -22.5531   19.6867 C   0  0  0  0  0  0  0  0  0  0  0  0
  -29.5812  -17.5659   20.2572 C   0  0  0  0  0  0  0  0  0  0  0  0
  -18.6341  -31.5587   23.6923 C   0  0  0  0  0  0  0  0  0  0  0  0
  -23.5178  -28.4073   19.8539 C   0  0  0  0  0  0  0  0  0  0  0  0
  -23.9461  -25.9108   21.3799 C   0  0  0  0  0  0  0  0  0  0  0  0
  -18.8829  -30.0526   23.6907 C   0  0  0  0  0  0  0  0  0  0  0  0
  -30.0344  -14.1117   19.5222 C   0  0  0  0  0  0  0  0  0  0  0  0
  -20.2733  -29.7407   24.2350 C   0  0  0  0  0  0  0  0  0  0  0  0
  -28.7462  -13.4607   20.0311 C   0  0  0  0  0  0  0  0  0  0  0  0
  -30.4860  -15.2576   20.4258 C   0  0  0  0  0  0  0  0  0  0  0  0
  -28.1766  -15.6281   21.1994 C   0  0  0  0  0  0  0  0  0  0  0  0
  -21.3629  -30.3705   23.3588 C   0  0  1  0  0  0  0  0  0  0  0  0
  -22.4351  -27.8207   20.7545 C   0  0  1  0  0  0  0  0  0  0  0  0
  -27.6469  -14.5105   20.2861 C   0  0  2  0  0  0  0  0  0  0  0  0
  -30.0746  -22.5394   14.9249 C   0  0  0  0  0  0  0  0  0  0  0  0
  -31.7141  -23.7743   23.4355 C   0  0  0  0  0  0  0  0  0  0  0  0
  -21.4245  -20.3584   18.9392 C   0  0  0  0  0  0  0  0  0  0  0  0
  -21.1638  -24.7091   23.9266 C   0  0  0  0  0  0  0  0  0  0  0  0
  -21.1435  -22.3277   23.1540 C   0  0  0  0  0  0  0  0  0  0  0  0
  -19.3550  -23.8962   22.4029 C   0  0  0  0  0  0  0  0  0  0  0  0
  -23.3329  -22.9512   16.9115 C   0  0  0  0  0  0  0  0  0  0  0  0
  -29.5567  -22.9305   16.2976 C   0  0  0  0  0  0  0  0  0  0  0  0
  -28.9903  -25.3456   21.3227 C   0  0  0  0  0  0  0  0  0  1  0  0
  -32.0003  -23.3470   22.0025 C   0  0  0  0  0  0  0  0  0  0  0  0
  -29.9820  -22.7377   18.8421 C   0  0  2  0  0  0  0  0  0  0  0  0
  -30.8124  -23.5366   21.0582 C   0  0  2  0  0  0  0  0  0  0  0  0
  -21.6901  -24.1380   21.4643 C   0  0  1  0  0  0  0  0  0  0  0  0
  -21.8332  -21.7605   18.5153 C   0  0  2  0  0  0  0  0  0  0  0  0
  -20.8600  -23.7848   22.7306 C   0  0  0  0  0  0  0  0  0  0  0  0
  -26.4865  -12.7936   21.6229 N   0  0  0  0  0  0  0  0  0  0  0  0
  -29.4368  -20.3979   19.6109 N   0  0  0  0  0  0  0  0  0  0  0  0
  -27.2090  -20.4198   20.3981 N   0  0  0  0  0  0  0  0  0  0  0  0
  -26.3821  -13.8780   20.8360 N   0  0  0  0  0  0  0  0  0  0  0  0
  -22.6092  -26.3854   20.9865 N   0  0  0  0  0  0  0  0  0  0  0  0
  -29.3946  -16.2149   20.6190 N   0  0  0  0  0  0  0  0  0  0  0  0
  -24.8127  -15.3593   19.8597 N   0  0  0  0  0  0  0  0  0  0  0  0
  -22.2207  -12.4620   22.1582 N   0  0  0  0  0  0  0  0  0  0  0  0
  -28.4635  -18.3756   20.4559 N   0  0  0  0  0  0  0  0  0  0  0  0
  -21.5600  -29.5883   22.1572 N   0  0  0  0  0  0  0  0  0  0  0  0
  -21.4032  -23.2962   20.3078 N   0  0  0  0  0  0  0  0  0  0  0  0
  -22.8577  -21.6463   17.4390 N   0  3  0  0  0  0  0  0  0  0  0  0
  -31.1592  -23.0262   19.7005 N   0  3  0  0  0  0  0  0  0  0  0  0
  -22.1948  -14.3032   20.7915 O   0  0  0  0  0  0  0  0  0  0  0  0
  -23.0392  -28.0152   23.0287 O   0  0  0  0  0  0  0  0  0  0  0  0
  -31.4565  -21.7547   17.2067 O   0  0  0  0  0  0  0  0  0  0  0  0
  -31.2339  -25.8733   20.6401 O   0  0  0  0  0  0  0  0  0  0  0  0
  -20.3418  -25.9297   20.6906 O   0  0  0  0  0  0  0  0  0  0  0  0
  -23.5671  -22.5138   20.0198 O   0  0  0  0  0  0  0  0  0  0  0  0
  -30.6448  -17.9687   19.7790 O   0  0  0  0  0  0  0  0  0  0  0  0
  -24.0018   -8.1468   25.1983 O   0  0  0  0  0  0  0  0  0  0  0  0
  -28.7632  -26.7497   21.2068 O   0  0  0  0  0  0  0  0  0  1  0  0
  -19.8849   -4.8289   23.6344 F   0  0  0  0  0  0  0  0  0  0  0  0
  -24.4504   -5.4628   24.7112 F   0  0  0  0  0  0  0  0  0  0  0  0
  -27.4930  -21.9953   19.9102 S   0  0  0  0  0  0  0  0  0  0  0  0
  1  2  1  0  0  0  0
  1  5  2  0  0  0  0
  2  6  2  0  0  0  0
  3  8  2  0  0  0  0
  3 15  1  0  0  0  0
  4  9  1  0  0  0  0
  4 15  2  0  0  0  0
  5 17  1  0  0  0  0
  6 19  1  0  0  0  0
  7 10  2  0  0  0  0
  7 18  1  0  0  0  0
  8 21  1  0  0  0  0
  9 21  2  0  0  0  0
 10 22  1  0  0  0  0
 11 12  2  0  0  0  0
 11 23  1  0  0  0  0
 12 24  1  0  0  0  0
 13 20  1  0  0  0  0
 13 22  2  0  0  0  0
 14 24  2  0  0  0  0
 14 25  1  0  0  0  0
 15 26  1  0  0  0  0
 16 26  1  0  0  0  0
 16 27  2  0  0  0  0
 16 30  1  0  0  0  0
 17 19  2  0  0  0  0
 17 37  1  0  0  0  0
 18 20  2  0  0  0  0
 18 38  1  0  0  0  0
 19 46  1  0  0  0  0
 20 39  1  0  0  0  0
 21 84  1  0  0  0  0
 22 85  1  0  0  0  0
 23 25  2  0  0  0  0
 23 84  1  0  0  0  0
 24 86  1  0  0  0  0
 25 87  1  0  0  0  0
 26 64  2  0  0  0  0
 27 67  1  0  0  0  0
 27 70  1  0  0  0  0
 28 59  1  0  0  0  0
 28 65  2  0  0  0  0
 28 88  1  0  0  0  0
 29 65  1  0  0  0  0
 29 66  2  0  0  0  0
 29 72  1  0  0  0  0
 30 71  1  0  0  0  0
 30 77  2  0  0  0  0
 31 47  1  0  0  0  0
 31 73  1  0  0  0  0
 31 78  2  0  0  0  0
 32 56  1  0  0  0  0
 32 59  1  0  0  0  0
 32 79  2  0  0  0  0
 33 57  1  0  0  0  0
 33 60  1  0  0  0  0
 33 80  2  0  0  0  0
 34 61  1  0  0  0  0
 34 68  1  0  0  0  0
 34 81  2  0  0  0  0
 35 62  1  0  0  0  0
 35 74  1  0  0  0  0
 35 82  2  0  0  0  0
 36 69  1  0  0  0  0
 36 72  1  0  0  0  0
 36 83  2  0  0  0  0
 37 40  1  0  0  0  0
 38 47  1  0  0  0  0
 39 68  1  0  0  0  0
 40 42  1  0  0  0  0
 41 43  1  0  0  0  0
 41 44  1  0  0  0  0
 42 46  1  0  0  0  0
 43 48  1  0  0  0  0
 44 69  1  0  0  0  0
 45 48  1  0  0  0  0
 45 69  1  0  0  0  0
 46 73  1  0  0  0  0
 47 68  1  0  0  0  0
 48 67  1  0  0  0  0
 49 56  1  0  0  0  0
 50 58  1  0  0  0  0
 51 62  1  0  0  0  0
 52 63  1  0  0  0  0
 53 63  1  0  0  0  0
 54 63  1  0  0  0  0
 55 75  1  0  0  0  0
 57 85  1  0  0  0  0
 58 60  1  0  0  0  0
 59 76  1  0  0  0  0
 60 76  1  0  0  0  0
 61 63  1  0  0  0  0
 61 74  1  0  0  0  0
 62 75  1  0  0  0  0
 64 67  1  0  0  0  0
 66 88  1  0  0  0  0
M  CHG  2  75   1  76   1
M  ISO  4  36 100  57 101  72 100  85 101
M  END
> <Batch ID>
0185

> <Smiles>
CCC(=O)C(NC(CC)C(=O)[101CH2:1][101O:1]c1ccc2c(c1)CN(C(=O)C(NC(=O)C(C)NC)C(C)(C)C)C(C(=O)NC1CCCc3ccccc31)C2)c1nc([100NH:0][100C:0](=O)N2CCCC(n3nc(-c4ccc(Oc5ccc(F)cc5F)cc4)c(C(N)=O)c3N)C2)ns1

> <Shape>
0.256

> <Color>
0.131

> <Negative vol penalty>
0.000

$$$$

  -OEChem-04052305053D

 88 96  0     1  0  0  0  0  0999 V2000
  -17.6962  -16.7812   17.9363 C   0  0  0  0  0  0  0  0  0  0  0  0
  -19.0572  -16.5596   17.7522 C   0  0  0  0  0  0  0  0  0  0  0  0
  -26.6109  -28.5905   19.1610 C   0  0  0  0  0  0  0  0  0  0  0  0
  -26.1084  -27.2667   21.1186 C   0  0  0  0  0  0  0  0  0  0  0  0
  -17.2606  -17.9355   18.5857 C   0  0  0  0  0  0  0  0  0  0  0  0
  -19.9835  -17.4927   18.2166 C   0  0  0  0  0  0  0  0  0  0  0  0
  -23.8892  -15.3296   20.6063 C   0  0  0  0  0  0  0  0  0  0  0  0
  -25.6019  -29.4884   19.5091 C   0  0  0  0  0  0  0  0  0  0  0  0
  -25.0994  -28.1647   21.4667 C   0  0  0  0  0  0  0  0  0  0  0  0
  -24.8798  -14.7517   19.8135 C   0  0  0  0  0  0  0  0  0  0  0  0
  -21.9145  -28.8160   20.5377 C   0  0  0  0  0  0  0  0  0  0  0  0
  -20.6885  -28.2881   20.9423 C   0  0  0  0  0  0  0  0  0  0  0  0
  -26.2562  -16.7094   20.1168 C   0  0  0  0  0  0  0  0  0  0  0  0
  -20.9232  -29.3837   23.0828 C   0  0  0  0  0  0  0  0  0  0  0  0
  -26.8642  -27.4796   19.9657 C   0  0  0  0  0  0  0  0  0  0  0  0
  -29.2597  -26.6030   19.9890 C   0  0  0  0  0  0  0  0  0  0  0  0
  -18.1823  -18.8786   19.0669 C   0  0  0  0  0  0  0  0  0  0  0  0
  -24.0705  -16.6085   21.1523 C   0  0  0  0  0  0  0  0  0  0  0  0
  -19.5597  -18.6614   18.8720 C   0  0  0  0  0  0  0  0  0  0  0  0
  -25.2675  -17.3003   20.9183 C   0  0  0  0  0  0  0  0  0  0  0  0
  -24.8461  -29.2755   20.6619 C   0  0  0  0  0  0  0  0  0  0  0  0
  -26.0623  -15.4428   19.5662 C   0  0  0  0  0  0  0  0  0  0  0  0
  -22.6450  -29.6277   21.4056 C   0  0  0  0  0  0  0  0  0  0  0  0
  -20.1928  -28.5719   22.2149 C   0  0  0  0  0  0  0  0  0  0  0  0
  -22.1493  -29.9115   22.6781 C   0  0  0  0  0  0  0  0  0  0  0  0
  -27.9060  -26.5514   19.6063 C   0  0  0  0  0  0  0  0  0  0  0  0
  -30.8882  -16.9469   20.2412 C   0  0  0  0  0  0  0  0  0  0  0  0
  -29.8274  -25.5038   19.3924 C   0  0  0  0  0  0  0  0  0  0  0  0
  -31.6497  -17.6746   21.1315 C   0  0  0  0  0  0  0  0  0  0  0  0
  -30.2144  -18.9583   19.6842 C   0  0  0  0  0  0  0  0  0  0  0  0
  -29.9430  -27.5592   20.8104 C   0  0  0  0  0  0  0  0  0  0  0  0
  -30.9074  -15.4653   20.1341 C   0  0  0  0  0  0  0  0  0  0  0  0
  -22.5833  -19.4027   20.8623 C   0  0  0  0  0  0  0  0  0  0  0  0
  -29.2261  -12.8894   20.9702 C   0  0  0  0  0  0  0  0  0  0  0  0
  -24.6362  -20.2973   23.2091 C   0  0  0  0  0  0  0  0  0  0  0  0
  -27.6062  -19.7861   24.8105 C   0  0  0  0  0  0  0  0  0  0  0  0
  -28.6194  -20.0181   18.0474 C   0  0  0  0  0  0  0  0  0  0  0  0
  -17.6620  -20.1341   19.7208 C   0  0  0  0  0  0  0  0  0  0  0  0
  -23.0035  -17.2068   22.0274 C   0  0  0  0  0  0  0  0  0  0  0  0
  -25.5196  -18.6674   21.4978 C   0  0  0  0  0  0  0  0  0  0  0  0
  -18.7228  -20.8919   20.5148 C   0  0  0  0  0  0  0  0  0  0  0  0
  -28.6115  -22.5886   15.5837 C   0  0  0  0  0  0  0  0  0  0  0  0
  -20.0083  -21.0179   19.7034 C   0  0  0  0  0  0  0  0  0  0  0  0
  -28.5612  -23.8785   16.4057 C   0  0  0  0  0  0  0  0  0  0  0  0
  -27.7785  -21.4775   16.2203 C   0  0  0  0  0  0  0  0  0  0  0  0
  -28.0359  -22.4904   18.4513 C   0  0  0  0  0  0  0  0  0  0  0  0
  -20.5962  -19.6382   19.3835 C   0  0  1  0  0  0  0  0  0  0  0  0
  -23.0814  -18.7282   22.1091 C   0  0  1  0  0  0  0  0  0  0  0  0
  -28.9124  -23.6188   17.8838 C   0  0  2  0  0  0  0  0  0  0  0  0
  -29.4617  -11.0793   22.7213 C   0  0  0  0  0  0  0  0  0  0  0  0
  -29.0267  -20.7006   26.6660 C   0  0  0  0  0  0  0  0  0  0  0  0
  -29.0135  -13.5032   17.1269 C   0  0  0  0  0  0  0  0  0  0  0  0
  -25.4693  -22.6250   21.4208 C   0  0  0  0  0  0  0  0  0  0  0  0
  -27.4933  -22.9190   22.8648 C   0  0  0  0  0  0  0  0  0  0  0  0
  -25.2152  -23.2068   23.8398 C   0  0  0  0  0  0  0  0  0  0  0  0
  -27.4839  -17.2405   26.3151 C   0  0  0  0  0  0  0  0  0  0  0  0
  -29.8359  -11.5416   21.3245 C   0  0  0  0  0  0  0  0  0  0  0  0
  -27.1265  -13.4576   18.8032 C   0  0  0  0  0  0  0  0  0  1  0  0
  -29.5779  -13.4421   19.5908 C   0  0  1  0  0  0  0  0  0  0  0  0
  -26.0256  -20.8865   23.2468 C   0  0  1  0  0  0  0  0  0  0  0  0
  -27.9524  -19.6937   26.2856 C   0  0  2  0  0  0  0  0  0  0  0  0
  -28.5678  -13.0094   18.5105 C   0  0  2  0  0  0  0  0  0  0  0  0
  -26.0456  -22.3844   22.8304 C   0  0  0  0  0  0  0  0  0  0  0  0
  -27.6301  -25.5024   18.8268 N   0  0  0  0  0  0  0  0  0  0  0  0
  -30.0642  -17.6813   19.4108 N   0  0  0  0  0  0  0  0  0  0  0  0
  -28.8185  -24.8848   18.7148 N   0  0  0  0  0  0  0  0  0  0  0  0
  -24.4435  -19.2127   22.3417 N   0  0  0  0  0  0  0  0  0  0  0  0
  -28.1694  -21.2848   17.6185 N   0  0  0  0  0  0  0  0  0  0  0  0
  -31.0861  -25.0160   19.3866 N   0  0  0  0  0  0  0  0  0  0  0  0
  -32.5331  -17.2161   22.0520 N   0  0  0  0  0  0  0  0  0  0  0  0
  -29.2091  -28.6276   21.3435 N   0  0  0  0  0  0  0  0  0  0  0  0
  -29.5629  -20.0585   19.0734 N   0  0  0  0  0  0  0  0  0  0  0  0
  -29.7239  -14.8691   19.7195 N   0  0  0  0  0  0  0  0  0  0  0  0
  -21.2744  -19.0969   20.5417 N   0  0  0  0  0  0  0  0  0  0  0  0
  -26.5405  -20.6322   24.5879 N   0  0  0  0  0  0  0  0  0  0  0  0
  -28.4497  -18.3284   26.6165 N   0  3  0  0  0  0  0  0  0  0  0  0
  -31.1715  -27.4778   21.0506 O   0  0  0  0  0  0  0  0  0  0  0  0
  -31.9322  -14.8557   20.4285 O   0  0  0  0  0  0  0  0  0  0  0  0
  -23.3307  -20.1468   20.2381 O   0  0  0  0  0  0  0  0  0  0  0  0
  -28.4689  -13.4845   21.7374 O   0  0  0  0  0  0  0  0  0  0  0  0
  -23.7562  -20.7769   23.9282 O   0  0  0  0  0  0  0  0  0  0  0  0
  -28.2222  -19.1721   23.9420 O   0  0  0  0  0  0  0  0  0  0  0  0
  -28.2191  -18.9755   17.5232 O   0  0  0  0  0  0  0  0  0  0  0  0
  -23.8616  -30.1517   21.0021 O   0  0  0  0  0  0  0  0  0  0  0  0
  -27.0305  -14.8813   18.7922 O   0  0  0  0  0  0  0  0  0  1  0  0
  -19.0147  -28.0662   22.6028 F   0  0  0  0  0  0  0  0  0  0  0  0
  -22.8460  -30.6917   23.5159 F   0  0  0  0  0  0  0  0  0  0  0  0
  -31.3307  -19.3474   20.9282 S   0  0  0  0  0  0  0  0  0  0  0  0
  1  2  1  0  0  0  0
  1  5  2  0  0  0  0
  2  6  2  0  0  0  0
  3  8  2  0  0  0  0
  3 15  1  0  0  0  0
  4  9  1  0  0  0  0
  4 15  2  0  0  0  0
  5 17  1  0  0  0  0
  6 19  1  0  0  0  0
  7 10  2  0  0  0  0
  7 18  1  0  0  0  0
  8 21  1  0  0  0  0
  9 21  2  0  0  0  0
 10 22  1  0  0  0  0
 11 12  2  0  0  0  0
 11 23  1  0  0  0  0
 12 24  1  0  0  0  0
 13 20  1  0  0  0  0
 13 22  2  0  0  0  0
 14 24  2  0  0  0  0
 14 25  1  0  0  0  0
 15 26  1  0  0  0  0
 16 26  1  0  0  0  0
 16 28  2  0  0  0  0
 16 31  1  0  0  0  0
 17 19  2  0  0  0  0
 17 38  1  0  0  0  0
 18 20  2  0  0  0  0
 18 39  1  0  0  0  0
 19 47  1  0  0  0  0
 20 40  1  0  0  0  0
 21 84  1  0  0  0  0
 22 85  1  0  0  0  0
 23 25  2  0  0  0  0
 23 84  1  0  0  0  0
 24 86  1  0  0  0  0
 25 87  1  0  0  0  0
 26 64  2  0  0  0  0
 27 29  2  0  0  0  0
 27 32  1  0  0  0  0
 27 65  1  0  0  0  0
 28 66  1  0  0  0  0
 28 69  1  0  0  0  0
 29 70  1  0  0  0  0
 29 88  1  0  0  0  0
 30 65  2  0  0  0  0
 30 72  1  0  0  0  0
 30 88  1  0  0  0  0
 31 71  1  0  0  0  0
 31 77  2  0  0  0  0
 32 73  1  0  0  0  0
 32 78  2  0  0  0  0
 33 48  1  0  0  0  0
 33 74  1  0  0  0  0
 33 79  2  0  0  0  0
 34 57  1  0  0  0  0
 34 59  1  0  0  0  0
 34 80  2  0  0  0  0
 35 60  1  0  0  0  0
 35 67  1  0  0  0  0
 35 81  2  0  0  0  0
 36 61  1  0  0  0  0
 36 75  1  0  0  0  0
 36 82  2  0  0  0  0
 37 68  1  0  0  0  0
 37 72  1  0  0  0  0
 37 83  2  0  0  0  0
 38 41  1  0  0  0  0
 39 48  1  0  0  0  0
 40 67  1  0  0  0  0
 41 43  1  0  0  0  0
 42 44  1  0  0  0  0
 42 45  1  0  0  0  0
 43 47  1  0  0  0  0
 44 49  1  0  0  0  0
 45 68  1  0  0  0  0
 46 49  1  0  0  0  0
 46 68  1  0  0  0  0
 47 74  1  0  0  0  0
 48 67  1  0  0  0  0
 49 66  1  0  0  0  0
 50 57  1  0  0  0  0
 51 61  1  0  0  0  0
 52 62  1  0  0  0  0
 53 63  1  0  0  0  0
 54 63  1  0  0  0  0
 55 63  1  0  0  0  0
 56 76  1  0  0  0  0
 58 62  1  0  0  0  0
 58 85  1  0  0  0  0
 59 62  1  0  0  0  0
 59 73  1  0  0  0  0
 60 63  1  0  0  0  0
 60 75  1  0  0  0  0
 61 76  1  0  0  0  0
 64 66  1  0  0  0  0
M  CHG  1  76   1
M  ISO  4  37 100  58 101  72 100  85 101
M  END
> <Batch ID>
0185

> <Smiles>
CCC(=O)C(NC(=O)c1nc([100NH:0][100C:0](=O)N2CCCC(n3nc(-c4ccc(Oc5ccc(F)cc5F)cc4)c(C(N)=O)c3N)C2)sc1N)C(C)[101CH2:1][101O:1]c1ccc2c(c1)CN(C(=O)C(NC(=O)C(C)NC)C(C)(C)C)C(C(=O)NC1CCCc3ccccc31)C2

> <Shape>
0.219

> <Color>
0.056

> <Negative vol penalty>
0.000

$$$$

  -OEChem-04052305053D

 86 94  0     1  0  0  0  0  0999 V2000
  -22.8958  -23.1037   21.0752 C   0  0  0  0  0  0  0  0  0  0  0  0
  -23.8393  -22.5086   20.2439 C   0  0  0  0  0  0  0  0  0  0  0  0
  -26.4303  -28.3677   19.0164 C   0  0  0  0  0  0  0  0  0  0  0  0
  -26.0577  -27.1007   21.0396 C   0  0  0  0  0  0  0  0  0  0  0  0
  -22.5296  -22.4830   22.2687 C   0  0  0  0  0  0  0  0  0  0  0  0
  -24.4180  -21.2927   20.6063 C   0  0  0  0  0  0  0  0  0  0  0  0
  -26.9996  -15.2614   17.7298 C   0  0  0  0  0  0  0  0  0  0  0  0
  -25.3357  -29.1767   19.3214 C   0  0  0  0  0  0  0  0  0  0  0  0
  -24.9632  -27.9098   21.3447 C   0  0  0  0  0  0  0  0  0  0  0  0
  -28.1392  -14.4586   17.7534 C   0  0  0  0  0  0  0  0  0  0  0  0
  -22.2894  -29.8684   22.8390 C   0  0  0  0  0  0  0  0  0  0  0  0
  -22.1688  -30.3304   24.1495 C   0  0  0  0  0  0  0  0  0  0  0  0
  -27.3712  -13.4390   19.8003 C   0  0  0  0  0  0  0  0  0  0  0  0
  -24.3018  -31.4478   23.9519 C   0  0  0  0  0  0  0  0  0  0  0  0
  -31.4885  -17.0691   21.9094 C   0  0  0  0  0  0  0  0  0  0  0  0
  -26.7912  -27.3296   19.8755 C   0  0  0  0  0  0  0  0  0  0  0  0
  -29.2623  -26.6991   19.9367 C   0  0  0  0  0  0  0  0  0  0  0  0
  -23.0970  -21.2541   22.6412 C   0  0  0  0  0  0  0  0  0  0  0  0
  -26.0409  -15.1665   18.7487 C   0  0  0  0  0  0  0  0  0  0  0  0
  -24.0600  -20.6556   21.8065 C   0  0  0  0  0  0  0  0  0  0  0  0
  -26.2190  -14.2399   19.7859 C   0  0  0  0  0  0  0  0  0  0  0  0
  -24.6022  -28.9478   20.4856 C   0  0  0  0  0  0  0  0  0  0  0  0
  -28.3266  -13.5493   18.7903 C   0  0  0  0  0  0  0  0  0  0  0  0
  -23.4163  -30.1960   22.0849 C   0  0  0  0  0  0  0  0  0  0  0  0
  -23.1750  -31.1201   24.7060 C   0  0  0  0  0  0  0  0  0  0  0  0
  -24.4224  -30.9857   22.6414 C   0  0  0  0  0  0  0  0  0  0  0  0
  -31.1863  -18.2884   22.5056 C   0  0  0  0  0  0  0  0  0  0  0  0
  -30.5741  -19.2885   21.7584 C   0  0  0  0  0  0  0  0  0  0  0  0
  -27.9215  -26.4932   19.5606 C   0  0  0  0  0  0  0  0  0  0  0  0
  -31.1605  -16.9013   20.5737 C   0  0  0  0  0  0  0  0  0  0  0  0
  -30.2872  -19.0214   20.4294 C   0  0  0  0  0  0  0  0  0  0  0  0
  -29.9384  -25.6334   19.3948 C   0  0  0  0  0  0  0  0  0  0  0  0
  -29.8447  -27.7589   20.7070 C   0  0  0  0  0  0  0  0  0  0  0  0
  -24.8925  -17.1612   20.9410 C   0  0  0  0  0  0  0  0  0  0  0  0
  -22.8525  -14.7111   21.5388 C   0  0  0  0  0  0  0  0  0  0  0  0
  -32.0793  -14.5560   20.5730 C   0  0  0  0  0  0  0  0  0  0  0  0
  -22.2227  -11.3608   21.3790 C   0  0  0  0  0  0  0  0  0  0  0  0
  -29.2881  -19.9937   18.3311 C   0  0  0  0  0  0  0  0  0  0  0  0
  -22.7045  -20.6445   23.9637 C   0  0  0  0  0  0  0  0  0  0  0  0
  -24.8039  -16.0206   18.6944 C   0  0  0  0  0  0  0  0  0  0  0  0
  -25.2096  -14.0849   20.8930 C   0  0  0  0  0  0  0  0  0  0  0  0
  -23.0881  -19.1727   24.0937 C   0  0  0  0  0  0  0  0  0  0  0  0
  -29.0292  -22.4230   15.7410 C   0  0  0  0  0  0  0  0  0  0  0  0
  -24.5250  -18.9527   23.6313 C   0  0  0  0  0  0  0  0  0  0  0  0
  -28.8482  -23.7412   16.4971 C   0  0  0  0  0  0  0  0  0  0  0  0
  -28.3099  -21.2678   16.4351 C   0  0  0  0  0  0  0  0  0  0  0  0
  -28.4595  -22.4125   18.6114 C   0  0  0  0  0  0  0  0  0  0  0  0
  -24.6919  -19.3249   22.1531 C   0  0  1  0  0  0  0  0  0  0  0  0
  -24.1439  -16.2037   20.0576 C   0  0  1  0  0  0  0  0  0  0  0  0
  -29.2201  -23.5928   17.9855 C   0  0  2  0  0  0  0  0  0  0  0  0
  -33.7137  -13.0706   19.3416 C   0  0  0  0  0  0  0  0  0  0  0  0
  -20.4865   -9.6519   21.9811 C   0  0  0  0  0  0  0  0  0  0  0  0
  -23.7009  -14.8835   24.4646 C   0  0  0  0  0  0  0  0  0  0  0  0
  -22.7014  -12.6151   24.8158 C   0  0  0  0  0  0  0  0  0  0  0  0
  -21.2526  -14.5186   24.1082 C   0  0  0  0  0  0  0  0  0  0  0  0
  -21.8585  -10.5649   18.5519 C   0  0  0  0  0  0  0  0  0  0  0  0
  -31.4364  -12.1609   20.0276 C   0  0  0  0  0  0  0  0  0  0  0  0
  -29.9262  -12.3719   20.0983 C   0  0  0  0  0  0  0  0  0  1  0  0
  -22.8669  -13.5053   22.4470 C   0  0  1  0  0  0  0  0  0  0  0  0
  -32.2397  -13.3951   19.5829 C   0  0  1  0  0  0  0  0  0  0  0  0
  -21.0082  -10.5859   20.9003 C   0  0  2  0  0  0  0  0  0  0  0  0
  -22.6506  -13.8847   23.9392 C   0  0  0  0  0  0  0  0  0  0  0  0
  -27.7537  -25.3840   18.8357 N   0  0  0  0  0  0  0  0  0  0  0  0
  -30.5655  -17.8494   19.8156 N   0  0  0  0  0  0  0  0  0  0  0  0
  -28.9981  -24.8834   18.7519 N   0  0  0  0  0  0  0  0  0  0  0  0
  -24.0198  -14.9469   20.7988 N   0  0  0  0  0  0  0  0  0  0  0  0
  -28.7148  -21.1858   17.8401 N   0  0  0  0  0  0  0  0  0  0  0  0
  -31.2396  -25.2741   19.4103 N   0  0  0  0  0  0  0  0  0  0  0  0
  -29.0064  -28.7742   21.1875 N   0  0  0  0  0  0  0  0  0  0  0  0
  -31.4720  -15.6569   19.9761 N   0  0  0  0  0  0  0  0  0  0  0  0
  -29.6636  -20.0446   19.6732 N   0  0  0  0  0  0  0  0  0  0  0  0
  -24.1640  -18.2774   21.3054 N   0  0  0  0  0  0  0  0  0  0  0  0
  -21.8708  -12.5816   21.9149 N   0  0  0  0  0  0  0  0  0  0  0  0
  -21.3534   -9.7708   19.7014 N   0  3  0  0  0  0  0  0  0  0  0  0
  -31.0746  -27.8129   20.9478 O   0  0  0  0  0  0  0  0  0  0  0  0
  -26.0453  -16.9056   21.2689 O   0  0  0  0  0  0  0  0  0  0  0  0
  -21.8401  -15.4137   21.4824 O   0  0  0  0  0  0  0  0  0  0  0  0
  -32.4587  -14.4634   21.7370 O   0  0  0  0  0  0  0  0  0  0  0  0
  -23.3684  -10.9250   21.2901 O   0  0  0  0  0  0  0  0  0  0  0  0
  -29.4602  -19.0100   17.6068 O   0  0  0  0  0  0  0  0  0  0  0  0
  -23.5342  -29.7371   20.7837 O   0  0  0  0  0  0  0  0  0  0  0  0
  -29.4384  -12.7651   18.8162 O   0  0  0  0  0  0  0  0  0  1  0  0
  -23.0583  -31.5651   25.9640 F   0  0  0  0  0  0  0  0  0  0  0  0
  -25.5068  -31.3046   21.9214 F   0  0  0  0  0  0  0  0  0  0  0  0
  -31.4843  -18.4990   23.7943 F   0  0  0  0  0  0  0  0  0  0  0  0
  -30.2774  -20.4677   22.3195 F   0  0  0  0  0  0  0  0  0  0  0  0
  1  2  1  0  0  0  0
  1  5  2  0  0  0  0
  2  6  2  0  0  0  0
  3  8  2  0  0  0  0
  3 16  1  0  0  0  0
  4  9  1  0  0  0  0
  4 16  2  0  0  0  0
  5 18  1  0  0  0  0
  6 20  1  0  0  0  0
  7 10  2  0  0  0  0
  7 19  1  0  0  0  0
  8 22  1  0  0  0  0
  9 22  2  0  0  0  0
 10 23  1  0  0  0  0
 11 12  2  0  0  0  0
 11 24  1  0  0  0  0
 12 25  1  0  0  0  0
 13 21  1  0  0  0  0
 13 23  2  0  0  0  0
 14 25  2  0  0  0  0
 14 26  1  0  0  0  0
 15 27  2  0  0  0  0
 15 30  1  0  0  0  0
 16 29  1  0  0  0  0
 17 29  1  0  0  0  0
 17 32  2  0  0  0  0
 17 33  1  0  0  0  0
 18 20  2  0  0  0  0
 18 39  1  0  0  0  0
 19 21  2  0  0  0  0
 19 40  1  0  0  0  0
 20 48  1  0  0  0  0
 21 41  1  0  0  0  0
 22 81  1  0  0  0  0
 23 82  1  0  0  0  0
 24 26  2  0  0  0  0
 24 81  1  0  0  0  0
 25 83  1  0  0  0  0
 26 84  1  0  0  0  0
 27 28  1  0  0  0  0
 27 85  1  0  0  0  0
 28 31  2  0  0  0  0
 28 86  1  0  0  0  0
 29 63  2  0  0  0  0
 30 64  2  0  0  0  0
 30 70  1  0  0  0  0
 31 64  1  0  0  0  0
 31 71  1  0  0  0  0
 32 65  1  0  0  0  0
 32 68  1  0  0  0  0
 33 69  1  0  0  0  0
 33 75  2  0  0  0  0
 34 49  1  0  0  0  0
 34 72  1  0  0  0  0
 34 76  2  0  0  0  0
 35 59  1  0  0  0  0
 35 66  1  0  0  0  0
 35 77  2  0  0  0  0
 36 60  1  0  0  0  0
 36 70  1  0  0  0  0
 36 78  2  0  0  0  0
 37 61  1  0  0  0  0
 37 73  1  0  0  0  0
 37 79  2  0  0  0  0
 38 67  1  0  0  0  0
 38 71  1  0  0  0  0
 38 80  2  0  0  0  0
 39 42  1  0  0  0  0
 40 49  1  0  0  0  0
 41 66  1  0  0  0  0
 42 44  1  0  0  0  0
 43 45  1  0  0  0  0
 43 46  1  0  0  0  0
 44 48  1  0  0  0  0
 45 50  1  0  0  0  0
 46 67  1  0  0  0  0
 47 50  1  0  0  0  0
 47 67  1  0  0  0  0
 48 72  1  0  0  0  0
 49 66  1  0  0  0  0
 50 65  1  0  0  0  0
 51 60  1  0  0  0  0
 52 61  1  0  0  0  0
 53 62  1  0  0  0  0
 54 62  1  0  0  0  0
 55 62  1  0  0  0  0
 56 74  1  0  0  0  0
 57 58  1  0  0  0  0
 57 60  1  0  0  0  0
 58 82  1  0  0  0  0
 59 62  1  0  0  0  0
 59 73  1  0  0  0  0
 61 74  1  0  0  0  0
 63 65  1  0  0  0  0
M  CHG  1  74   1
M  ISO  4  38 100  58 101  71 100  82 101
M  END
> <Batch ID>
0185

> <Smiles>
CNC(C)C(=O)NC(C(=O)N1Cc2cc([101O:1][101CH2:1]CC(C)C(=O)Nc3cc(F)c(F)c([100NH:0][100C:0](=O)N4CCCC(n5nc(-c6ccc(Oc7ccc(F)cc7F)cc6)c(C(N)=O)c5N)C4)n3)ccc2CC1C(=O)NC1CCCc2ccccc21)C(C)(C)C

> <Shape>
0.266

> <Color>
0.069

> <Negative vol penalty>
0.000

$$$$

  -OEChem-04052305053D

 85 93  0     1  0  0  0  0  0999 V2000
  -27.4005  -33.2777   13.4924 C   0  0  0  0  0  0  0  0  0  0  0  0
  -26.5464  -32.3458   14.0733 C   0  0  0  0  0  0  0  0  0  0  0  0
  -24.4033   -9.3102   21.8410 C   0  0  0  0  0  0  0  0  0  0  0  0
  -22.9044  -10.1037   20.1205 C   0  0  0  0  0  0  0  0  0  0  0  0
  -28.4304  -33.8414   14.2444 C   0  0  0  0  0  0  0  0  0  0  0  0
  -26.7224  -31.9762   15.4063 C   0  0  0  0  0  0  0  0  0  0  0  0
  -22.3415  -30.5446   19.4391 C   0  0  0  0  0  0  0  0  0  0  0  0
  -23.6008   -8.1835   22.0206 C   0  0  0  0  0  0  0  0  0  0  0  0
  -22.1018   -8.9770   20.3000 C   0  0  0  0  0  0  0  0  0  0  0  0
  -21.8402  -29.3225   19.8851 C   0  0  0  0  0  0  0  0  0  0  0  0
  -20.6965   -7.4161   23.5699 C   0  0  0  0  0  0  0  0  0  0  0  0
  -20.3996   -7.0346   24.8783 C   0  0  0  0  0  0  0  0  0  0  0  0
  -23.3116  -29.4225   21.7941 C   0  0  0  0  0  0  0  0  0  0  0  0
  -21.4545   -4.8953   24.4939 C   0  0  0  0  0  0  0  0  0  0  0  0
  -24.0551  -10.2703   20.8910 C   0  0  0  0  0  0  0  0  0  0  0  0
  -25.9704  -11.5724   19.8216 C   0  0  0  0  0  0  0  0  0  0  0  0
  -28.6132  -33.4858   15.5900 C   0  0  0  0  0  0  0  0  0  0  0  0
  -23.3410  -31.2106   20.1627 C   0  0  0  0  0  0  0  0  0  0  0  0
  -27.7566  -32.5347   16.1765 C   0  0  0  0  0  0  0  0  0  0  0  0
  -23.8220  -30.6542   21.3565 C   0  0  0  0  0  0  0  0  0  0  0  0
  -22.4501   -8.0170   21.2501 C   0  0  0  0  0  0  0  0  0  0  0  0
  -22.3273  -28.7598   21.0612 C   0  0  0  0  0  0  0  0  0  0  0  0
  -21.3722   -6.5371   22.7234 C   0  0  0  0  0  0  0  0  0  0  0  0
  -20.7787   -5.7743   25.3403 C   0  0  0  0  0  0  0  0  0  0  0  0
  -21.7512   -5.2768   23.1854 C   0  0  0  0  0  0  0  0  0  0  0  0
  -24.8834  -11.4346   20.7054 C   0  0  0  0  0  0  0  0  0  0  0  0
  -20.9370  -19.6281   18.4085 C   0  0  0  0  0  0  0  0  0  0  0  0
  -21.4339  -20.4791   19.3734 C   0  0  0  0  0  0  0  0  0  0  0  0
  -26.4166  -12.8556   20.0236 C   0  0  0  0  0  0  0  0  0  0  0  0
  -22.3075  -18.6052   20.1049 C   0  0  0  0  0  0  0  0  0  0  0  0
  -20.1081  -19.8875   17.2777 C   0  0  0  0  0  0  0  0  0  0  0  0
  -26.5271  -10.6252   18.9004 C   0  0  0  0  0  0  0  0  0  0  0  0
  -26.3317  -32.1019   19.5581 C   0  0  0  0  0  0  0  0  0  0  0  0
  -26.0738  -33.5453   22.4517 C   0  0  0  0  0  0  0  0  0  0  0  0
  -21.6413  -22.7944   20.3428 C   0  0  0  0  0  0  0  0  0  0  0  0
  -24.5408  -33.6756   25.4980 C   0  0  0  0  0  0  0  0  0  0  0  0
  -23.7702  -17.8332   22.0051 C   0  0  0  0  0  0  0  0  0  0  0  0
  -29.7697  -34.0867   16.3490 C   0  0  0  0  0  0  0  0  0  0  0  0
  -23.8522  -32.5412   19.6823 C   0  0  0  0  0  0  0  0  0  0  0  0
  -24.8804  -31.3390   22.1807 C   0  0  0  0  0  0  0  0  0  0  0  0
  -29.6569  -33.9210   17.8623 C   0  0  0  0  0  0  0  0  0  0  0  0
  -26.6457  -16.2545   23.3895 C   0  0  0  0  0  0  0  0  0  0  0  0
  -29.2692  -32.4885   18.2151 C   0  0  0  0  0  0  0  0  0  0  0  0
  -26.6224  -14.8539   22.7732 C   0  0  0  0  0  0  0  0  0  0  0  0
  -25.2382  -16.7612   23.6995 C   0  0  0  0  0  0  0  0  0  0  0  0
  -24.2752  -15.3116   21.9558 C   0  0  0  0  0  0  0  0  0  0  0  0
  -27.9001  -32.1267   17.6267 C   0  0  1  0  0  0  0  0  0  0  0  0
  -25.2357  -32.8820   20.2275 C   0  0  1  0  0  0  0  0  0  0  0  0
  -25.6662  -14.7851   21.5663 C   0  0  2  0  0  0  0  0  0  0  0  0
  -24.5705  -34.9395   27.6657 C   0  0  0  0  0  0  0  0  0  0  0  0
  -28.6141  -32.0690   23.2747 C   0  0  0  0  0  0  0  0  0  0  0  0
  -28.0663  -32.5993   25.6595 C   0  0  0  0  0  0  0  0  0  0  0  0
  -28.4953  -34.4471   24.0395 C   0  0  0  0  0  0  0  0  0  0  0  0
  -21.7407  -34.5685   25.1496 C   0  0  0  0  0  0  0  0  0  0  0  0
  -21.1287  -24.1903   20.0116 C   0  0  0  0  0  0  0  0  0  0  0  0
  -21.3834  -26.6487   20.5060 C   0  0  0  0  0  0  0  0  0  1  0  0
  -26.3410  -33.1336   23.8793 C   0  0  1  0  0  0  0  0  0  0  0  0
  -23.9518  -34.8355   26.2804 C   0  0  2  0  0  0  0  0  0  0  0  0
  -21.5713  -25.2341   21.0299 C   0  0  1  0  0  0  0  0  0  0  0  0
  -27.8606  -33.0482   24.1969 C   0  0  0  0  0  0  0  0  0  0  0  0
  -24.6530  -12.5418   21.4161 N   0  0  0  0  0  0  0  0  0  0  0  0
  -22.2196  -19.8942   20.3472 N   0  0  0  0  0  0  0  0  0  0  0  0
  -19.6482  -21.0756   16.9481 N   0  0  0  0  0  0  0  0  0  0  0  0
  -25.6016  -13.3876   20.9791 N   0  0  0  0  0  0  0  0  0  0  0  0
  -25.3529  -32.6348   21.6660 N   0  0  0  0  0  0  0  0  0  0  0  0
  -24.3901  -16.6701   22.5090 N   0  0  0  0  0  0  0  0  0  0  0  0
  -27.4227  -13.5695   19.4753 N   0  0  0  0  0  0  0  0  0  0  0  0
  -25.9472   -9.3518   18.8194 N   0  0  0  0  0  0  0  0  0  0  0  0
  -21.1802  -21.8709   19.4086 N   0  0  0  0  0  0  0  0  0  0  0  0
  -23.0146  -17.6298   20.8509 N   0  0  0  0  0  0  0  0  0  0  0  0
  -26.8390  -32.7050   18.4230 N   0  0  0  0  0  0  0  0  0  0  0  0
  -25.6069  -34.0737   24.7194 N   0  0  0  0  0  0  0  0  0  0  0  0
  -22.4798  -34.6617   26.4350 N   0  3  0  0  0  0  0  0  0  0  0  0
  -27.5199  -10.8944   18.1826 O   0  0  0  0  0  0  0  0  0  0  0  0
  -26.6915  -31.0329   20.0370 O   0  0  0  0  0  0  0  0  0  0  0  0
  -26.4832  -34.6376   22.0505 O   0  0  0  0  0  0  0  0  0  0  0  0
  -22.3567  -22.5761   21.3148 O   0  0  0  0  0  0  0  0  0  0  0  0
  -24.1016  -32.5302   25.5730 O   0  0  0  0  0  0  0  0  0  0  0  0
  -23.9223  -18.9338   22.5413 O   0  0  0  0  0  0  0  0  0  0  0  0
  -21.6669   -6.9176   21.4249 O   0  0  0  0  0  0  0  0  0  0  0  0
  -21.8402  -27.5667   21.4985 O   0  0  0  0  0  0  0  0  0  1  0  0
  -20.4949   -5.4087   26.5973 F   0  0  0  0  0  0  0  0  0  0  0  0
  -22.4017   -4.4285   22.3773 F   0  0  0  0  0  0  0  0  0  0  0  0
  -20.7878  -25.0981   22.1406 F   0  0  0  0  0  0  0  0  0  0  0  0
  -21.4704  -18.0286   18.7222 S   0  0  0  0  0  0  0  0  0  0  0  0
  1  2  1  0  0  0  0
  1  5  2  0  0  0  0
  2  6  2  0  0  0  0
  3  8  2  0  0  0  0
  3 15  1  0  0  0  0
  4  9  1  0  0  0  0
  4 15  2  0  0  0  0
  5 17  1  0  0  0  0
  6 19  1  0  0  0  0
  7 10  2  0  0  0  0
  7 18  1  0  0  0  0
  8 21  1  0  0  0  0
  9 21  2  0  0  0  0
 10 22  1  0  0  0  0
 11 12  2  0  0  0  0
 11 23  1  0  0  0  0
 12 24  1  0  0  0  0
 13 20  1  0  0  0  0
 13 22  2  0  0  0  0
 14 24  2  0  0  0  0
 14 25  1  0  0  0  0
 15 26  1  0  0  0  0
 16 26  1  0  0  0  0
 16 29  2  0  0  0  0
 16 32  1  0  0  0  0
 17 19  2  0  0  0  0
 17 38  1  0  0  0  0
 18 20  2  0  0  0  0
 18 39  1  0  0  0  0
 19 47  1  0  0  0  0
 20 40  1  0  0  0  0
 21 80  1  0  0  0  0
 22 81  1  0  0  0  0
 23 25  2  0  0  0  0
 23 80  1  0  0  0  0
 24 82  1  0  0  0  0
 25 83  1  0  0  0  0
 26 61  2  0  0  0  0
 27 28  2  0  0  0  0
 27 31  1  0  0  0  0
 27 85  1  0  0  0  0
 28 62  1  0  0  0  0
 28 69  1  0  0  0  0
 29 64  1  0  0  0  0
 29 67  1  0  0  0  0
 30 62  2  0  0  0  0
 30 70  1  0  0  0  0
 30 85  1  0  0  0  0
 31 63  2  0  0  0  0
 32 68  1  0  0  0  0
 32 74  2  0  0  0  0
 33 48  1  0  0  0  0
 33 71  1  0  0  0  0
 33 75  2  0  0  0  0
 34 57  1  0  0  0  0
 34 65  1  0  0  0  0
 34 76  2  0  0  0  0
 35 55  1  0  0  0  0
 35 69  1  0  0  0  0
 35 77  2  0  0  0  0
 36 58  1  0  0  0  0
 36 72  1  0  0  0  0
 36 78  2  0  0  0  0
 37 66  1  0  0  0  0
 37 70  1  0  0  0  0
 37 79  2  0  0  0  0
 38 41  1  0  0  0  0
 39 48  1  0  0  0  0
 40 65  1  0  0  0  0
 41 43  1  0  0  0  0
 42 44  1  0  0  0  0
 42 45  1  0  0  0  0
 43 47  1  0  0  0  0
 44 49  1  0  0  0  0
 45 66  1  0  0  0  0
 46 49  1  0  0  0  0
 46 66  1  0  0  0  0
 47 71  1  0  0  0  0
 48 65  1  0  0  0  0
 49 64  1  0  0  0  0
 50 58  1  0  0  0  0
 51 60  1  0  0  0  0
 52 60  1  0  0  0  0
 53 60  1  0  0  0  0
 54 73  1  0  0  0  0
 55 59  1  0  0  0  0
 56 59  1  0  0  0  0
 56 81  1  0  0  0  0
 57 60  1  0  0  0  0
 57 72  1  0  0  0  0
 58 73  1  0  0  0  0
 59 84  1  0  0  0  0
 61 64  1  0  0  0  0
M  CHG  1  73   1
M  ISO  4  37 100  56 101  70 100  81 101
M  END
> <Batch ID>
0185

> <Smiles>
CNC(C)C(=O)NC(C(=O)N1Cc2cc([101O:1][101CH2:1]C(F)CC(=O)Nc3nc([100NH:0][100C:0](=O)N4CCCC(n5nc(-c6ccc(Oc7ccc(F)cc7F)cc6)c(C(N)=O)c5N)C4)sc3C=N)ccc2CC1C(=O)NC1CCCc2ccccc21)C(C)(C)C

> <Shape>
0.208

> <Color>
0.087

> <Negative vol penalty>
0.000

$$$$

  -OEChem-04052305053D

 85 93  0     1  0  0  0  0  0999 V2000
  -38.3272  -18.4323   29.9897 C   0  0  0  0  0  0  0  0  0  0  0  0
  -37.8527  -19.1670   28.9077 C   0  0  0  0  0  0  0  0  0  0  0  0
  -22.9975   -9.8794   19.9842 C   0  0  0  0  0  0  0  0  0  0  0  0
  -23.7214   -9.9413   22.2884 C   0  0  0  0  0  0  0  0  0  0  0  0
  -37.4872  -17.5288   30.6394 C   0  0  0  0  0  0  0  0  0  0  0  0
  -36.5382  -18.9977   28.4742 C   0  0  0  0  0  0  0  0  0  0  0  0
  -32.8435  -23.2974   26.1573 C   0  0  0  0  0  0  0  0  0  0  0  0
  -22.2333   -8.7444   20.2548 C   0  0  0  0  0  0  0  0  0  0  0  0
  -22.9571   -8.8063   22.5590 C   0  0  0  0  0  0  0  0  0  0  0  0
  -32.5030  -23.6354   24.8483 C   0  0  0  0  0  0  0  0  0  0  0  0
  -23.2088   -5.4660   22.1008 C   0  0  0  0  0  0  0  0  0  0  0  0
  -23.7981   -4.4531   22.8574 C   0  0  0  0  0  0  0  0  0  0  0  0
  -30.5156  -22.2790   25.0215 C   0  0  0  0  0  0  0  0  0  0  0  0
  -22.0729   -4.6991   24.5307 C   0  0  0  0  0  0  0  0  0  0  0  0
  -31.1615  -17.6290   20.5623 C   0  0  0  0  0  0  0  0  0  0  0  0
  -23.7416  -10.4779   21.0010 C   0  0  0  0  0  0  0  0  0  0  0  0
  -24.1216  -12.9935   20.8150 C   0  0  0  0  0  0  0  0  0  0  0  0
  -36.1589  -17.3555   30.2197 C   0  0  0  0  0  0  0  0  0  0  0  0
  -32.0269  -22.4375   26.9058 C   0  0  0  0  0  0  0  0  0  0  0  0
  -35.6801  -18.0901   29.1181 C   0  0  0  0  0  0  0  0  0  0  0  0
  -30.8467  -21.9337   26.3407 C   0  0  0  0  0  0  0  0  0  0  0  0
  -30.2512  -17.0515   21.4328 C   0  0  0  0  0  0  0  0  0  0  0  0
  -22.2130   -8.2078   21.5422 C   0  0  0  0  0  0  0  0  0  0  0  0
  -31.3404  -23.1239   24.2792 C   0  0  0  0  0  0  0  0  0  0  0  0
  -22.0515   -6.0955   22.5592 C   0  0  0  0  0  0  0  0  0  0  0  0
  -23.2302   -4.0697   24.0723 C   0  0  0  0  0  0  0  0  0  0  0  0
  -21.4836   -5.7121   23.7742 C   0  0  0  0  0  0  0  0  0  0  0  0
  -29.5322  -17.8926   22.2748 C   0  0  0  0  0  0  0  0  0  0  0  0
  -29.7425  -19.2660   22.2214 C   0  0  0  0  0  0  0  0  0  0  0  0
  -24.5317  -11.6500   20.7220 C   0  0  0  0  0  0  0  0  0  0  0  0
  -30.6756  -19.7443   21.3157 C   0  0  0  0  0  0  0  0  0  0  0  0
  -25.2300  -13.7170   20.4482 C   0  0  0  0  0  0  0  0  0  0  0  0
  -22.8523  -13.5388   21.1986 C   0  0  0  0  0  0  0  0  0  0  0  0
  -32.4135  -19.5840   28.2518 C   0  0  0  0  0  0  0  0  0  0  0  0
  -29.4525  -20.1746   29.4375 C   0  0  0  0  0  0  0  0  0  0  0  0
  -26.4903  -21.8422   29.1354 C   0  0  0  0  0  0  0  0  0  0  0  0
  -31.7584  -21.8414   20.4400 C   0  0  0  0  0  0  0  0  0  0  0  0
  -30.7073  -14.6908   20.6810 C   0  0  0  0  0  0  0  0  0  0  0  0
  -35.3028  -16.3326   30.9235 C   0  0  0  0  0  0  0  0  0  0  0  0
  -32.3944  -22.1039   28.3257 C   0  0  0  0  0  0  0  0  0  0  0  0
  -29.9255  -21.0228   27.1089 C   0  0  0  0  0  0  0  0  0  0  0  0
  -33.8111  -16.4864   30.6378 C   0  0  0  0  0  0  0  0  0  0  0  0
  -29.5955  -12.2261   18.3645 C   0  0  0  0  0  0  0  0  0  0  0  0
  -33.5707  -16.6775   29.1437 C   0  0  0  0  0  0  0  0  0  0  0  0
  -28.1452  -11.9670   18.7790 C   0  0  0  0  0  0  0  0  0  0  0  0
  -30.4948  -12.4763   19.5738 C   0  0  0  0  0  0  0  0  0  0  0  0
  -28.5771  -13.2665   20.9031 C   0  0  0  0  0  0  0  0  0  0  0  0
  -34.2530  -17.9527   28.6338 C   0  0  1  0  0  0  0  0  0  0  0  0
  -31.7557  -20.8096   28.8199 C   0  0  1  0  0  0  0  0  0  0  0  0
  -27.6205  -13.0733   19.7152 C   0  0  2  0  0  0  0  0  0  0  0  0
  -24.2485  -22.0907   30.2355 C   0  0  0  0  0  0  0  0  0  0  0  0
  -28.5899  -17.4857   28.2817 C   0  0  0  0  0  0  0  0  0  0  0  0
  -26.2091  -18.2084   28.5606 C   0  0  0  0  0  0  0  0  0  0  0  0
  -27.6839  -17.9811   30.5595 C   0  0  0  0  0  0  0  0  0  0  0  0
  -26.9305  -24.7241   29.6451 C   0  0  0  0  0  0  0  0  0  0  0  0
  -32.0773  -23.7267   22.0999 C   0  0  0  0  0  0  0  0  0  1  0  0
  -28.0415  -19.9133   28.9687 C   0  0  1  0  0  0  0  0  0  0  0  0
  -25.6687  -22.6266   30.1424 C   0  0  2  0  0  0  0  0  0  0  0  0
  -31.6709  -23.3481   20.6797 C   0  0  1  0  0  0  0  0  0  0  0  0
  -27.6492  -18.4127   29.0772 C   0  0  0  0  0  0  0  0  0  0  0  0
  -31.3930  -18.9585   20.4818 N   0  0  0  0  0  0  0  0  0  0  0  0
  -25.8014  -11.5246   20.3270 N   0  0  0  0  0  0  0  0  0  0  0  0
  -26.1988  -12.7986   20.1684 N   0  0  0  0  0  0  0  0  0  0  0  0
  -30.3315  -20.7209   28.4915 N   0  0  0  0  0  0  0  0  0  0  0  0
  -29.9371  -13.5395   20.4125 N   0  0  0  0  0  0  0  0  0  0  0  0
  -25.4607  -15.0428   20.3409 N   0  0  0  0  0  0  0  0  0  0  0  0
  -21.8222  -12.6538   21.5452 N   0  0  0  0  0  0  0  0  0  0  0  0
  -30.0606  -15.6478   21.4624 N   0  0  0  0  0  0  0  0  0  0  0  0
  -30.8854  -21.1430   21.2672 N   0  0  0  0  0  0  0  0  0  0  0  0
  -33.4796  -19.1202   28.9987 N   0  0  0  0  0  0  0  0  0  0  0  0
  -27.1841  -20.8119   29.7341 N   0  0  0  0  0  0  0  0  0  0  0  0
  -25.6042  -24.0633   29.7515 N   0  3  0  0  0  0  0  0  0  0  0  0
  -22.6329  -14.7737   21.2173 O   0  0  0  0  0  0  0  0  0  0  0  0
  -31.9846  -19.0944   27.2135 O   0  0  0  0  0  0  0  0  0  0  0  0
  -29.7615  -19.9106   30.6022 O   0  0  0  0  0  0  0  0  0  0  0  0
  -26.5113  -22.1137   27.9369 O   0  0  0  0  0  0  0  0  0  0  0  0
  -32.5147  -21.3751   19.5928 O   0  0  0  0  0  0  0  0  0  0  0  0
  -31.8459  -14.8303   20.2270 O   0  0  0  0  0  0  0  0  0  0  0  0
  -32.5218  -24.0243   19.7679 O   0  0  0  0  0  0  0  0  0  0  0  0
  -21.4672   -7.1004   21.8066 O   0  0  0  0  0  0  0  0  0  0  0  0
  -31.0060  -23.4516   23.0015 O   0  0  0  0  0  0  0  0  0  1  0  0
  -23.7953   -3.0959   24.7979 F   0  0  0  0  0  0  0  0  0  0  0  0
  -20.3712   -6.3124   24.2192 F   0  0  0  0  0  0  0  0  0  0  0  0
  -28.6376  -17.3918   23.1384 F   0  0  0  0  0  0  0  0  0  0  0  0
  -29.0574  -20.0878   23.0267 F   0  0  0  0  0  0  0  0  0  0  0  0
  1  2  1  0  0  0  0
  1  5  2  0  0  0  0
  2  6  2  0  0  0  0
  3  8  2  0  0  0  0
  3 16  1  0  0  0  0
  4  9  1  0  0  0  0
  4 16  2  0  0  0  0
  5 18  1  0  0  0  0
  6 20  1  0  0  0  0
  7 10  2  0  0  0  0
  7 19  1  0  0  0  0
  8 23  1  0  0  0  0
  9 23  2  0  0  0  0
 10 24  1  0  0  0  0
 11 12  2  0  0  0  0
 11 25  1  0  0  0  0
 12 26  1  0  0  0  0
 13 21  1  0  0  0  0
 13 24  2  0  0  0  0
 14 26  2  0  0  0  0
 14 27  1  0  0  0  0
 15 22  1  0  0  0  0
 15 61  2  0  0  0  0
 16 30  1  0  0  0  0
 17 30  1  0  0  0  0
 17 32  2  0  0  0  0
 17 33  1  0  0  0  0
 18 20  2  0  0  0  0
 18 39  1  0  0  0  0
 19 21  2  0  0  0  0
 19 40  1  0  0  0  0
 20 48  1  0  0  0  0
 21 41  1  0  0  0  0
 22 28  2  0  0  0  0
 22 68  1  0  0  0  0
 23 80  1  0  0  0  0
 24 81  1  0  0  0  0
 25 27  2  0  0  0  0
 25 80  1  0  0  0  0
 26 82  1  0  0  0  0
 27 83  1  0  0  0  0
 28 29  1  0  0  0  0
 28 84  1  0  0  0  0
 29 31  2  0  0  0  0
 29 85  1  0  0  0  0
 30 62  2  0  0  0  0
 31 61  1  0  0  0  0
 31 69  1  0  0  0  0
 32 63  1  0  0  0  0
 32 66  1  0  0  0  0
 33 67  1  0  0  0  0
 33 73  2  0  0  0  0
 34 49  1  0  0  0  0
 34 70  1  0  0  0  0
 34 74  2  0  0  0  0
 35 57  1  0  0  0  0
 35 64  1  0  0  0  0
 35 75  2  0  0  0  0
 36 58  1  0  0  0  0
 36 71  1  0  0  0  0
 36 76  2  0  0  0  0
 37 59  1  0  0  0  0
 37 69  1  0  0  0  0
 37 77  2  0  0  0  0
 38 65  1  0  0  0  0
 38 68  1  0  0  0  0
 38 78  2  0  0  0  0
 39 42  1  0  0  0  0
 40 49  1  0  0  0  0
 41 64  1  0  0  0  0
 42 44  1  0  0  0  0
 43 45  1  0  0  0  0
 43 46  1  0  0  0  0
 44 48  1  0  0  0  0
 45 50  1  0  0  0  0
 46 65  1  0  0  0  0
 47 50  1  0  0  0  0
 47 65  1  0  0  0  0
 48 70  1  0  0  0  0
 49 64  1  0  0  0  0
 50 63  1  0  0  0  0
 51 58  1  0  0  0  0
 52 60  1  0  0  0  0
 53 60  1  0  0  0  0
 54 60  1  0  0  0  0
 55 72  1  0  0  0  0
 56 59  1  0  0  0  0
 56 81  1  0  0  0  0
 57 60  1  0  0  0  0
 57 71  1  0  0  0  0
 58 72  1  0  0  0  0
 59 79  1  0  0  0  0
 62 63  1  0  0  0  0
M  CHG  1  72   1
M  ISO  4  38 100  56 101  68 100  81 101
M  END
> <Batch ID>
0185

> <Smiles>
CNC(C)C(=O)NC(C(=O)N1Cc2cc([101O:1][101CH2:1]C(O)C(=O)Nc3ncc([100NH:0][100C:0](=O)N4CCCC(n5nc(-c6ccc(Oc7ccc(F)cc7F)cc6)c(C(N)=O)c5N)C4)c(F)c3F)ccc2CC1C(=O)NC1CCCc2ccccc21)C(C)(C)C

> <Shape>
0.188

> <Color>
0.187

> <Negative vol penalty>
0.000

$$$$

  -OEChem-04052305053D

 84 92  0     1  0  0  0  0  0999 V2000
  -19.1171  -34.1353   21.0887 C   0  0  0  0  0  0  0  0  0  0  0  0
  -20.3658  -33.7385   20.6211 C   0  0  0  0  0  0  0  0  0  0  0  0
  -26.5534  -12.2632   21.1139 C   0  0  0  0  0  0  0  0  0  0  0  0
  -25.4584  -13.4977   19.3493 C   0  0  0  0  0  0  0  0  0  0  0  0
  -18.6171  -33.6025   22.2762 C   0  0  0  0  0  0  0  0  0  0  0  0
  -21.1158  -32.8093   21.3413 C   0  0  0  0  0  0  0  0  0  0  0  0
  -24.8361  -28.5153   19.0552 C   0  0  0  0  0  0  0  0  0  0  0  0
  -25.3543  -11.6116   21.4022 C   0  0  0  0  0  0  0  0  0  0  0  0
  -24.2592  -12.8461   19.6375 C   0  0  0  0  0  0  0  0  0  0  0  0
  -26.2188  -28.4670   18.8833 C   0  0  0  0  0  0  0  0  0  0  0  0
  -22.6676   -9.3602   22.3654 C   0  0  0  0  0  0  0  0  0  0  0  0
  -22.7118   -7.9812   22.5703 C   0  0  0  0  0  0  0  0  0  0  0  0
  -26.4312  -27.2803   20.9727 C   0  0  0  0  0  0  0  0  0  0  0  0
  -23.5826   -7.6774   20.3372 C   0  0  0  0  0  0  0  0  0  0  0  0
  -26.6055  -13.2063   20.0874 C   0  0  0  0  0  0  0  0  0  0  0  0
  -28.8391  -13.4681   18.8833 C   0  0  0  0  0  0  0  0  0  0  0  0
  -19.3572  -32.6591   23.0063 C   0  0  0  0  0  0  0  0  0  0  0  0
  -24.2405  -27.9550   20.1945 C   0  0  0  0  0  0  0  0  0  0  0  0
  -20.6258  -32.2644   22.5403 C   0  0  0  0  0  0  0  0  0  0  0  0
  -25.0405  -27.3205   21.1555 C   0  0  0  0  0  0  0  0  0  0  0  0
  -24.2072  -11.9030   20.6640 C   0  0  0  0  0  0  0  0  0  0  0  0
  -27.0168  -27.8520   19.8435 C   0  0  0  0  0  0  0  0  0  0  0  0
  -23.0808   -9.8978   21.1464 C   0  0  0  0  0  0  0  0  0  0  0  0
  -23.1694   -7.1398   21.5562 C   0  0  0  0  0  0  0  0  0  0  0  0
  -23.5383   -9.0564   20.1324 C   0  0  0  0  0  0  0  0  0  0  0  0
  -27.8437  -13.8801   19.7895 C   0  0  0  0  0  0  0  0  0  0  0  0
  -27.7438  -21.3732   17.4932 C   0  0  0  0  0  0  0  0  0  0  0  0
  -28.5770  -21.3929   18.5921 C   0  0  0  0  0  0  0  0  0  0  0  0
  -29.8033  -14.4429   18.9658 C   0  0  0  0  0  0  0  0  0  0  0  0
  -28.7879  -23.4886   17.9807 C   0  0  0  0  0  0  0  0  0  0  0  0
  -28.8878  -12.3081   18.0422 C   0  0  0  0  0  0  0  0  0  0  0  0
  -22.5136  -29.0888   22.6102 C   0  0  0  0  0  0  0  0  0  0  0  0
  -22.2515  -25.9498   23.3852 C   0  0  0  0  0  0  0  0  0  0  0  0
  -23.5383  -22.7961   23.1731 C   0  0  0  0  0  0  0  0  0  0  0  0
  -30.0164  -25.5519   18.7361 C   0  0  0  0  0  0  0  0  0  0  0  0
  -29.6572  -20.2068   20.5344 C   0  0  0  0  0  0  0  0  0  0  0  0
  -18.7957  -32.1466   24.3089 C   0  0  0  0  0  0  0  0  0  0  0  0
  -22.7451  -27.9919   20.3521 C   0  0  0  0  0  0  0  0  0  0  0  0
  -24.4483  -26.6861   22.3865 C   0  0  0  0  0  0  0  0  0  0  0  0
  -19.4905  -30.8861   24.8176 C   0  0  0  0  0  0  0  0  0  0  0  0
  -31.6383  -17.6462   22.0163 C   0  0  0  0  0  0  0  0  0  0  0  0
  -21.0056  -31.0400   24.7318 C   0  0  0  0  0  0  0  0  0  0  0  0
  -30.9843  -16.3524   21.5260 C   0  0  0  0  0  0  0  0  0  0  0  0
  -30.6030  -18.7337   22.2980 C   0  0  0  0  0  0  0  0  0  0  0  0
  -29.0252  -17.7192   20.7010 C   0  0  0  0  0  0  0  0  0  0  0  0
  -21.4585  -31.2402   23.2804 C   0  0  1  0  0  0  0  0  0  0  0  0
  -22.2932  -27.8418   21.8015 C   0  0  1  0  0  0  0  0  0  0  0  0
  -30.0332  -16.6152   20.3420 C   0  0  2  0  0  0  0  0  0  0  0  0
  -27.8084  -19.2869   16.1041 C   0  0  0  0  0  0  0  0  0  0  0  0
  -23.1231  -20.4434   23.9411 C   0  0  0  0  0  0  0  0  0  0  0  0
  -23.2722  -26.6801   26.1664 C   0  0  0  0  0  0  0  0  0  0  0  0
  -23.7353  -24.2510   26.5581 C   0  0  0  0  0  0  0  0  0  0  0  0
  -21.3995  -25.0227   26.1443 C   0  0  0  0  0  0  0  0  0  0  0  0
  -23.2719  -21.8128   20.3944 C   0  0  0  0  0  0  0  0  0  0  0  0
  -26.9539  -20.2680   16.9129 C   0  0  0  0  0  0  0  0  0  0  0  0
  -28.8564  -27.7672   18.3385 C   0  0  0  0  0  0  0  0  0  1  0  0
  -23.0504  -24.9869   24.2299 C   0  0  1  0  0  0  0  0  0  0  0  0
  -22.8909  -21.4645   22.8383 C   0  0  2  0  0  0  0  0  0  0  0  0
  -30.1758  -27.0043   18.2888 C   0  0  1  0  0  0  0  0  0  0  0  0
  -22.8760  -25.2487   25.7525 C   0  0  0  0  0  0  0  0  0  0  0  0
  -28.1475  -15.0272   20.4028 N   0  0  0  0  0  0  0  0  0  0  0  0
  -29.1769  -22.6050   18.8729 N   0  0  0  0  0  0  0  0  0  0  0  0
  -29.3448  -15.3442   19.8810 N   0  0  0  0  0  0  0  0  0  0  0  0
  -22.9819  -26.7536   22.4984 N   0  0  0  0  0  0  0  0  0  0  0  0
  -29.7405  -18.9309   21.1309 N   0  0  0  0  0  0  0  0  0  0  0  0
  -30.9901  -14.6083   18.3441 N   0  0  0  0  0  0  0  0  0  0  0  0
  -27.8133  -11.4090   18.0810 N   0  0  0  0  0  0  0  0  0  0  0  0
  -28.8317  -20.2658   19.4121 N   0  0  0  0  0  0  0  0  0  0  0  0
  -29.1588  -24.8515   17.8945 N   0  0  0  0  0  0  0  0  0  0  0  0
  -21.4568  -29.9783   22.5719 N   0  0  0  0  0  0  0  0  0  0  0  0
  -22.6571  -23.6478   23.8050 N   0  0  0  0  0  0  0  0  0  0  0  0
  -23.4512  -20.9208   21.5688 N   0  3  0  0  0  0  0  0  0  0  0  0
  -29.8630  -12.0672   17.2908 O   0  0  0  0  0  0  0  0  0  0  0  0
  -23.5639  -29.2326   23.2248 O   0  0  0  0  0  0  0  0  0  0  0  0
  -21.0240  -25.9824   23.5026 O   0  0  0  0  0  0  0  0  0  0  0  0
  -24.7097  -23.0535   22.9047 O   0  0  0  0  0  0  0  0  0  0  0  0
  -30.6157  -25.1188   19.7161 O   0  0  0  0  0  0  0  0  0  0  0  0
  -30.2943  -21.1695   20.9696 O   0  0  0  0  0  0  0  0  0  0  0  0
  -31.1119  -27.6601   19.1293 O   0  0  0  0  0  0  0  0  0  0  0  0
  -23.0370  -11.2672   20.9449 O   0  0  0  0  0  0  0  0  0  0  0  0
  -28.3668  -27.8041   19.6784 O   0  0  0  0  0  0  0  0  0  1  0  0
  -23.2133   -5.8157   21.7537 F   0  0  0  0  0  0  0  0  0  0  0  0
  -23.9378   -9.5672   18.9596 F   0  0  0  0  0  0  0  0  0  0  0  0
  -27.7007  -22.9305   16.7760 S   0  0  0  0  0  0  0  0  0  0  0  0
  1  2  1  0  0  0  0
  1  5  2  0  0  0  0
  2  6  2  0  0  0  0
  3  8  2  0  0  0  0
  3 15  1  0  0  0  0
  4  9  1  0  0  0  0
  4 15  2  0  0  0  0
  5 17  1  0  0  0  0
  6 19  1  0  0  0  0
  7 10  2  0  0  0  0
  7 18  1  0  0  0  0
  8 21  1  0  0  0  0
  9 21  2  0  0  0  0
 10 22  1  0  0  0  0
 11 12  2  0  0  0  0
 11 23  1  0  0  0  0
 12 24  1  0  0  0  0
 13 20  1  0  0  0  0
 13 22  2  0  0  0  0
 14 24  2  0  0  0  0
 14 25  1  0  0  0  0
 15 26  1  0  0  0  0
 16 26  1  0  0  0  0
 16 29  2  0  0  0  0
 16 31  1  0  0  0  0
 17 19  2  0  0  0  0
 17 37  1  0  0  0  0
 18 20  2  0  0  0  0
 18 38  1  0  0  0  0
 19 46  1  0  0  0  0
 20 39  1  0  0  0  0
 21 80  1  0  0  0  0
 22 81  1  0  0  0  0
 23 25  2  0  0  0  0
 23 80  1  0  0  0  0
 24 82  1  0  0  0  0
 25 83  1  0  0  0  0
 26 61  2  0  0  0  0
 27 28  2  0  0  0  0
 27 55  1  0  0  0  0
 27 84  1  0  0  0  0
 28 62  1  0  0  0  0
 28 68  1  0  0  0  0
 29 63  1  0  0  0  0
 29 66  1  0  0  0  0
 30 62  2  0  0  0  0
 30 69  1  0  0  0  0
 30 84  1  0  0  0  0
 31 67  1  0  0  0  0
 31 73  2  0  0  0  0
 32 47  1  0  0  0  0
 32 70  1  0  0  0  0
 32 74  2  0  0  0  0
 33 57  1  0  0  0  0
 33 64  1  0  0  0  0
 33 75  2  0  0  0  0
 34 58  1  0  0  0  0
 34 71  1  0  0  0  0
 34 76  2  0  0  0  0
 35 59  1  0  0  0  0
 35 69  1  0  0  0  0
 35 77  2  0  0  0  0
 36 65  1  0  0  0  0
 36 68  1  0  0  0  0
 36 78  2  0  0  0  0
 37 40  1  0  0  0  0
 38 47  1  0  0  0  0
 39 64  1  0  0  0  0
 40 42  1  0  0  0  0
 41 43  1  0  0  0  0
 41 44  1  0  0  0  0
 42 46  1  0  0  0  0
 43 48  1  0  0  0  0
 44 65  1  0  0  0  0
 45 48  1  0  0  0  0
 45 65  1  0  0  0  0
 46 70  1  0  0  0  0
 47 64  1  0  0  0  0
 48 63  1  0  0  0  0
 49 55  1  0  0  0  0
 50 58  1  0  0  0  0
 51 60  1  0  0  0  0
 52 60  1  0  0  0  0
 53 60  1  0  0  0  0
 54 72  1  0  0  0  0
 56 59  1  0  0  0  0
 56 81  1  0  0  0  0
 57 60  1  0  0  0  0
 57 71  1  0  0  0  0
 58 72  1  0  0  0  0
 59 79  1  0  0  0  0
 61 63  1  0  0  0  0
M  CHG  1  72   1
M  ISO  4  36 100  56 101  68 100  81 101
M  END
> <Batch ID>
0185

> <Smiles>
CCc1sc(NC(=O)C(O)[101CH2:1][101O:1]c2ccc3c(c2)CN(C(=O)C(NC(=O)C(C)NC)C(C)(C)C)C(C(=O)NC2CCCc4ccccc42)C3)nc1[100NH:0][100C:0](=O)N1CCCC(n2nc(-c3ccc(Oc4ccc(F)cc4F)cc3)c(C(N)=O)c2N)C1

> <Shape>
0.259

> <Color>
0.108

> <Negative vol penalty>
0.000

$$$$

  -OEChem-04052305053D

 85 93  0     1  0  0  0  0  0999 V2000
  -17.7552  -32.1327   23.6052 C   0  0  0  0  0  0  0  0  0  0  0  0
  -18.9315  -32.3819   22.9055 C   0  0  0  0  0  0  0  0  0  0  0  0
  -29.4313  -12.1640   18.5001 C   0  0  0  0  0  0  0  0  0  0  0  0
  -30.2689  -12.8166   20.6702 C   0  0  0  0  0  0  0  0  0  0  0  0
  -17.6619  -31.0157   24.4342 C   0  0  0  0  0  0  0  0  0  0  0  0
  -20.0157  -31.5147   23.0354 C   0  0  0  0  0  0  0  0  0  0  0  0
  -25.5095  -28.8458   19.2922 C   0  0  0  0  0  0  0  0  0  0  0  0
  -30.4058  -11.1690   18.4232 C   0  0  0  0  0  0  0  0  0  0  0  0
  -31.2434  -11.8216   20.5934 C   0  0  0  0  0  0  0  0  0  0  0  0
  -26.8928  -28.6913   19.3715 C   0  0  0  0  0  0  0  0  0  0  0  0
  -33.7238   -9.2178   21.1278 C   0  0  0  0  0  0  0  0  0  0  0  0
  -33.9345   -8.4267   22.2571 C   0  0  0  0  0  0  0  0  0  0  0  0
  -26.5898  -26.7498   20.7708 C   0  0  0  0  0  0  0  0  0  0  0  0
  -31.6377   -7.6829   22.1646 C   0  0  0  0  0  0  0  0  0  0  0  0
  -30.3049  -21.5734   24.0661 C   0  0  0  0  0  0  0  0  0  0  0  0
  -29.3629  -12.9879   19.6236 C   0  0  0  0  0  0  0  0  0  0  0  0
  -27.0606  -13.8977   20.2395 C   0  0  0  0  0  0  0  0  0  0  0  0
  -18.7421  -30.1290   24.5669 C   0  0  0  0  0  0  0  0  0  0  0  0
  -24.6547  -27.9584   19.9618 C   0  0  0  0  0  0  0  0  0  0  0  0
  -19.9372  -30.3855   23.8681 C   0  0  0  0  0  0  0  0  0  0  0  0
  -25.1960  -26.8937   20.6964 C   0  0  0  0  0  0  0  0  0  0  0  0
  -30.2265  -22.9408   23.8973 C   0  0  0  0  0  0  0  0  0  0  0  0
  -31.3118  -10.9978   19.4698 C   0  0  0  0  0  0  0  0  0  0  0  0
  -27.4333  -27.6449   20.1132 C   0  0  0  0  0  0  0  0  0  0  0  0
  -32.4700   -9.2415   20.5169 C   0  0  0  0  0  0  0  0  0  0  0  0
  -32.8914   -7.6593   22.7755 C   0  0  0  0  0  0  0  0  0  0  0  0
  -31.4270   -8.4740   21.0352 C   0  0  0  0  0  0  0  0  0  0  0  0
  -28.3568  -14.0163   19.7033 C   0  0  0  0  0  0  0  0  0  0  0  0
  -29.8094  -23.3656   22.6524 C   0  0  0  0  0  0  0  0  0  0  0  0
  -26.5072  -15.1445   20.0790 C   0  0  0  0  0  0  0  0  0  0  0  0
  -29.6076  -21.2192   21.9318 C   0  0  0  0  0  0  0  0  0  0  0  0
  -26.4145  -12.7620   20.8299 C   0  0  0  0  0  0  0  0  0  0  0  0
  -22.4882  -28.2424   22.2703 C   0  0  0  0  0  0  0  0  0  0  0  0
  -21.9293  -25.1192   21.5954 C   0  0  0  0  0  0  0  0  0  0  0  0
  -23.0963  -22.1770   20.3193 C   0  0  0  0  0  0  0  0  0  0  0  0
  -29.3006  -25.3839   21.2367 C   0  0  0  0  0  0  0  0  0  0  0  0
  -28.8509  -20.6205   19.6047 C   0  0  0  0  0  0  0  0  0  0  0  0
  -18.6106  -28.9607   25.5115 C   0  0  0  0  0  0  0  0  0  0  0  0
  -23.1642  -28.1229   19.8444 C   0  0  0  0  0  0  0  0  0  0  0  0
  -24.3212  -25.9018   21.4170 C   0  0  0  0  0  0  0  0  0  0  0  0
  -19.6748  -27.8863   25.3034 C   0  0  0  0  0  0  0  0  0  0  0  0
  -26.7256  -19.0026   17.2504 C   0  0  0  0  0  0  0  0  0  0  0  0
  -21.0564  -28.5207   25.1780 C   0  0  0  0  0  0  0  0  0  0  0  0
  -26.7800  -17.5304   17.6648 C   0  0  0  0  0  0  0  0  0  0  0  0
  -28.0758  -19.6935   17.4333 C   0  0  0  0  0  0  0  0  0  0  0  0
  -28.7205  -18.0862   19.1855 C   0  0  0  0  0  0  0  0  0  0  0  0
  -21.1265  -29.4545   23.9636 C   0  0  1  0  0  0  0  0  0  0  0  0
  -22.3985  -27.4644   20.9879 C   0  0  1  0  0  0  0  0  0  0  0  0
  -27.3670  -17.3647   19.0802 C   0  0  2  0  0  0  0  0  0  0  0  0
  -22.4230  -19.7895   19.9399 C   0  0  0  0  0  0  0  0  0  0  0  0
  -31.7167  -27.1230   20.5754 C   0  0  0  0  0  0  0  0  0  0  0  0
  -30.6590  -28.9813   21.8706 C   0  0  0  0  0  0  0  0  0  0  0  0
  -22.3431  -24.5338   24.5612 C   0  0  0  0  0  0  0  0  0  0  0  0
  -22.6052  -22.1137   23.9756 C   0  0  0  0  0  0  0  0  0  0  0  0
  -20.4525  -23.2830   23.5049 C   0  0  0  0  0  0  0  0  0  0  0  0
  -23.4064  -22.4339   17.3873 C   0  0  0  0  0  0  0  0  0  0  0  0
  -22.4812  -23.8035   22.0887 C   0  0  1  0  0  0  0  0  0  0  0  0
  -22.4826  -21.1878   19.3450 C   0  0  2  0  0  0  0  0  0  0  0  0
  -29.3013  -26.9064   21.3863 C   0  0  1  0  0  0  0  0  0  1  0  0
  -30.7104  -27.4618   21.6809 C   0  0  0  0  0  0  0  0  0  0  0  0
  -21.9873  -23.4532   23.5207 C   0  0  0  0  0  0  0  0  0  0  0  0
  -30.0018  -20.6804   23.1012 N   0  0  0  0  0  0  0  0  0  0  0  0
  -28.6118  -15.2416   19.2370 N   0  0  0  0  0  0  0  0  0  0  0  0
  -29.4909  -22.5294   21.6427 N   0  0  0  0  0  0  0  0  0  0  0  0
  -27.4681  -15.9044   19.4795 N   0  0  0  0  0  0  0  0  0  0  0  0
  -22.8702  -26.1087   21.2772 N   0  0  0  0  0  0  0  0  0  0  0  0
  -28.5678  -19.4975   18.7987 N   0  0  0  0  0  0  0  0  0  0  0  0
  -30.5551  -23.8170   24.9400 N   0  0  0  0  0  0  0  0  0  0  0  0
  -25.2973  -15.6539   20.3936 N   0  0  0  0  0  0  0  0  0  0  0  0
  -27.1268  -11.5581   20.9162 N   0  0  0  0  0  0  0  0  0  0  0  0
  -29.7064  -24.7559   22.4093 N   0  0  0  0  0  0  0  0  0  0  0  0
  -29.2810  -20.3108   20.8945 N   0  0  0  0  0  0  0  0  0  0  0  0
  -21.2691  -28.6881   22.7443 N   0  0  0  0  0  0  0  0  0  0  0  0
  -22.1346  -22.8106   21.0775 N   0  0  0  0  0  0  0  0  0  0  0  0
  -23.2850  -21.1309   18.0904 N   0  3  0  0  0  0  0  0  0  0  0  0
  -25.2345  -12.8089   21.2530 O   0  0  0  0  0  0  0  0  0  0  0  0
  -23.5822  -28.4236   22.7918 O   0  0  0  0  0  0  0  0  0  0  0  0
  -20.7085  -25.2612   21.4894 O   0  0  0  0  0  0  0  0  0  0  0  0
  -24.3079  -22.3658   20.4023 O   0  0  0  0  0  0  0  0  0  0  0  0
  -28.9539  -24.8483   20.1877 O   0  0  0  0  0  0  0  0  0  0  0  0
  -28.6954  -21.7722   19.1907 O   0  0  0  0  0  0  0  0  0  0  0  0
  -32.2627  -10.0268   19.3953 O   0  0  0  0  0  0  0  0  0  0  0  0
  -28.7832  -27.4922   20.1927 O   0  0  0  0  0  0  0  0  0  1  0  0
  -33.0943   -6.8985   23.8591 F   0  0  0  0  0  0  0  0  0  0  0  0
  -30.2206   -8.4918   20.4520 F   0  0  0  0  0  0  0  0  0  0  0  0
  1  2  1  0  0  0  0
  1  5  2  0  0  0  0
  2  6  2  0  0  0  0
  3  8  2  0  0  0  0
  3 16  1  0  0  0  0
  4  9  1  0  0  0  0
  4 16  2  0  0  0  0
  5 18  1  0  0  0  0
  6 20  1  0  0  0  0
  7 10  2  0  0  0  0
  7 19  1  0  0  0  0
  8 23  1  0  0  0  0
  9 23  2  0  0  0  0
 10 24  1  0  0  0  0
 11 12  2  0  0  0  0
 11 25  1  0  0  0  0
 12 26  1  0  0  0  0
 13 21  1  0  0  0  0
 13 24  2  0  0  0  0
 14 26  2  0  0  0  0
 14 27  1  0  0  0  0
 15 22  1  0  0  0  0
 15 62  2  0  0  0  0
 16 28  1  0  0  0  0
 17 28  1  0  0  0  0
 17 30  2  0  0  0  0
 17 32  1  0  0  0  0
 18 20  2  0  0  0  0
 18 38  1  0  0  0  0
 19 21  2  0  0  0  0
 19 39  1  0  0  0  0
 20 47  1  0  0  0  0
 21 40  1  0  0  0  0
 22 29  2  0  0  0  0
 22 68  1  0  0  0  0
 23 82  1  0  0  0  0
 24 83  1  0  0  0  0
 25 27  2  0  0  0  0
 25 82  1  0  0  0  0
 26 84  1  0  0  0  0
 27 85  1  0  0  0  0
 28 63  2  0  0  0  0
 29 64  1  0  0  0  0
 29 71  1  0  0  0  0
 30 65  1  0  0  0  0
 30 69  1  0  0  0  0
 31 62  1  0  0  0  0
 31 64  2  0  0  0  0
 31 72  1  0  0  0  0
 32 70  1  0  0  0  0
 32 76  2  0  0  0  0
 33 48  1  0  0  0  0
 33 73  1  0  0  0  0
 33 77  2  0  0  0  0
 34 57  1  0  0  0  0
 34 66  1  0  0  0  0
 34 78  2  0  0  0  0
 35 58  1  0  0  0  0
 35 74  1  0  0  0  0
 35 79  2  0  0  0  0
 36 59  1  0  0  0  0
 36 71  1  0  0  0  0
 36 80  2  0  0  0  0
 37 67  1  0  0  0  0
 37 72  1  0  0  0  0
 37 81  2  0  0  0  0
 38 41  1  0  0  0  0
 39 48  1  0  0  0  0
 40 66  1  0  0  0  0
 41 43  1  0  0  0  0
 42 44  1  0  0  0  0
 42 45  1  0  0  0  0
 43 47  1  0  0  0  0
 44 49  1  0  0  0  0
 45 67  1  0  0  0  0
 46 49  1  0  0  0  0
 46 67  1  0  0  0  0
 47 73  1  0  0  0  0
 48 66  1  0  0  0  0
 49 65  1  0  0  0  0
 50 58  1  0  0  0  0
 51 60  1  0  0  0  0
 52 60  1  0  0  0  0
 53 61  1  0  0  0  0
 54 61  1  0  0  0  0
 55 61  1  0  0  0  0
 56 75  1  0  0  0  0
 57 61  1  0  0  0  0
 57 74  1  0  0  0  0
 58 75  1  0  0  0  0
 59 60  1  0  0  0  0
 59 83  1  0  0  0  0
 63 65  1  0  0  0  0
M  CHG  1  75   1
M  ISO  4  37 100  59 101  72 100  83 101
M  END
> <Batch ID>
0185

> <Smiles>
CNC(C)C(=O)NC(C(=O)N1Cc2cc([101O:1][101CH:1](C(=O)Nc3nc([100NH:0][100C:0](=O)N4CCCC(n5nc(-c6ccc(Oc7ccc(F)cc7F)cc6)c(C(N)=O)c5N)C4)ncc3N)C(C)C)ccc2CC1C(=O)NC1CCCc2ccccc21)C(C)(C)C

> <Shape>
0.215

> <Color>
0.081

> <Negative vol penalty>
0.000

$$$$

  -OEChem-04052305053D

 82 90  0     1  0  0  0  0  0999 V2000
  -33.8906  -35.0746   22.7947 C   0  0  0  0  0  0  0  0  0  0  0  0
  -32.7811  -34.2663   22.5684 C   0  0  0  0  0  0  0  0  0  0  0  0
  -24.4534   -9.8013   21.3626 C   0  0  0  0  0  0  0  0  0  0  0  0
  -24.8799  -10.8329   23.5052 C   0  0  0  0  0  0  0  0  0  0  0  0
  -35.0994  -34.7906   22.1606 C   0  0  0  0  0  0  0  0  0  0  0  0
  -32.8796  -33.1742   21.7069 C   0  0  0  0  0  0  0  0  0  0  0  0
  -30.0040  -27.7935   22.2406 C   0  0  0  0  0  0  0  0  0  0  0  0
  -24.1341   -8.6038   22.0027 C   0  0  0  0  0  0  0  0  0  0  0  0
  -24.5606   -9.6355   24.1453 C   0  0  0  0  0  0  0  0  0  0  0  0
  -28.8518  -27.2826   21.6446 C   0  0  0  0  0  0  0  0  0  0  0  0
  -21.4965   -7.2936   23.6638 C   0  0  0  0  0  0  0  0  0  0  0  0
  -20.3567   -6.6133   23.2352 C   0  0  0  0  0  0  0  0  0  0  0  0
  -30.2076  -26.1865   19.9773 C   0  0  0  0  0  0  0  0  0  0  0  0
  -21.7145   -4.6983   22.6638 C   0  0  0  0  0  0  0  0  0  0  0  0
  -27.6883  -20.1684   21.1446 C   0  0  0  0  0  0  0  0  0  0  0  0
  -29.3406  -21.3737   20.3235 C   0  0  0  0  0  0  0  0  0  0  0  0
  -24.8264  -10.9158   22.1139 C   0  0  0  0  0  0  0  0  0  0  0  0
  -24.2777  -13.2018   21.1234 C   0  0  0  0  0  0  0  0  0  0  0  0
  -35.2154  -33.6888   21.2985 C   0  0  0  0  0  0  0  0  0  0  0  0
  -31.2681  -27.5133   21.7021 C   0  0  0  0  0  0  0  0  0  0  0  0
  -34.0907  -32.8760   21.0597 C   0  0  0  0  0  0  0  0  0  0  0  0
  -31.3744  -26.6930   20.5698 C   0  0  0  0  0  0  0  0  0  0  0  0
  -24.1876   -8.5209   23.3940 C   0  0  0  0  0  0  0  0  0  0  0  0
  -28.9533  -26.4813   20.5111 C   0  0  0  0  0  0  0  0  0  0  0  0
  -22.7453   -6.6763   23.5924 C   0  0  0  0  0  0  0  0  0  0  0  0
  -20.4657   -5.3157   22.7353 C   0  0  0  0  0  0  0  0  0  0  0  0
  -22.8543   -5.3787   23.0924 C   0  0  0  0  0  0  0  0  0  0  0  0
  -25.1569  -12.1529   21.4532 C   0  0  0  0  0  0  0  0  0  0  0  0
  -28.7136  -19.3729   20.6901 C   0  0  0  0  0  0  0  0  0  0  0  0
  -25.0752  -14.1395   20.5141 C   0  0  0  0  0  0  0  0  0  0  0  0
  -22.8664  -13.3182   21.3479 C   0  0  0  0  0  0  0  0  0  0  0  0
  -33.6154  -29.2610   20.4614 C   0  0  0  0  0  0  0  0  0  0  0  0
  -35.1871  -26.4235   20.4327 C   0  0  0  0  0  0  0  0  0  0  0  0
  -35.0132  -23.0155   20.3889 C   0  0  0  0  0  0  0  0  0  0  0  0
  -29.7694  -17.1243   20.2714 C   0  0  0  0  0  0  0  0  0  0  0  0
  -36.5300  -33.4495   20.5991 C   0  0  0  0  0  0  0  0  0  0  0  0
  -32.5029  -28.0501   22.3724 C   0  0  0  0  0  0  0  0  0  0  0  0
  -32.7092  -26.3457   19.9647 C   0  0  0  0  0  0  0  0  0  0  0  0
  -36.6520  -32.0540   19.9925 C   0  0  0  0  0  0  0  0  0  0  0  0
  -29.8621  -13.8416   18.8957 C   0  0  0  0  0  0  0  0  0  0  0  0
  -35.3850  -31.6936   19.2233 C   0  0  0  0  0  0  0  0  0  0  0  0
  -28.5739  -13.1959   19.4113 C   0  0  0  0  0  0  0  0  0  0  0  0
  -30.4874  -14.7691   19.9361 C   0  0  0  0  0  0  0  0  0  0  0  0
  -28.2954  -15.1448   20.9960 C   0  0  0  0  0  0  0  0  0  0  0  0
  -34.1646  -31.6678   20.1515 C   0  0  1  0  0  0  0  0  0  0  0  0
  -33.7065  -28.1226   21.4379 C   0  0  1  0  0  0  0  0  0  0  0  0
  -27.5942  -14.2522   19.9591 C   0  0  2  0  0  0  0  0  0  0  0  0
  -36.4651  -20.9695   20.3304 C   0  0  0  0  0  0  0  0  0  0  0  0
  -35.7313  -26.8973   17.4681 C   0  0  0  0  0  0  0  0  0  0  0  0
  -36.3160  -24.4719   17.2592 C   0  0  0  0  0  0  0  0  0  0  0  0
  -37.6634  -25.9543   18.7456 C   0  0  0  0  0  0  0  0  0  0  0  0
  -24.6848  -24.2420   21.1251 C   0  0  0  0  0  0  0  0  0  0  0  0
  -33.9618  -22.0535   22.9827 C   0  0  0  0  0  0  0  0  0  0  0  0
  -26.7018  -23.3070   19.9543 C   0  0  0  0  0  0  0  0  0  0  0  0
  -27.3391  -22.7095   21.2144 C   0  0  0  0  0  0  0  0  0  0  0  0
  -26.7143  -25.7254   20.7787 C   0  0  0  0  0  0  0  0  0  1  0  0
  -35.3273  -25.2889   19.4469 C   0  0  1  0  0  0  0  0  0  0  0  0
  -35.7248  -21.9598   21.2158 C   0  0  2  0  0  0  0  0  0  0  0  0
  -36.2341  -25.6611   18.2400 C   0  0  0  0  0  0  0  0  0  0  0  0
  -25.8714  -24.5756   20.2201 C   0  0  2  0  0  0  0  0  0  0  0  0
  -29.7392  -20.1292   20.1805 N   0  0  0  0  0  0  0  0  0  0  0  0
  -26.4164  -12.4004   21.0839 N   0  0  0  0  0  0  0  0  0  0  0  0
  -28.1046  -21.4474   20.9034 N   0  0  0  0  0  0  0  0  0  0  0  0
  -26.3344  -13.6155   20.5156 N   0  0  0  0  0  0  0  0  0  0  0  0
  -33.8869  -26.8999   20.6527 N   0  0  0  0  0  0  0  0  0  0  0  0
  -29.5022  -15.7454   20.4063 N   0  0  0  0  0  0  0  0  0  0  0  0
  -24.8152  -15.3528   19.9825 N   0  0  0  0  0  0  0  0  0  0  0  0
  -22.2024  -12.2626   21.9875 N   0  0  0  0  0  0  0  0  0  0  0  0
  -28.7461  -17.9567   20.7236 N   0  0  0  0  0  0  0  0  0  0  0  0
  -34.1469  -30.4476   20.9293 N   0  0  0  0  0  0  0  0  0  0  0  0
  -35.7941  -24.1381   20.2125 N   0  0  0  0  0  0  0  0  0  0  0  0
  -34.7446  -21.2055   22.0472 N   0  3  0  0  0  0  0  0  0  0  0  0
  -22.2107  -14.3212   20.9771 O   0  0  0  0  0  0  0  0  0  0  0  0
  -33.1023  -29.0760   19.3640 O   0  0  0  0  0  0  0  0  0  0  0  0
  -36.1933  -26.8659   20.9926 O   0  0  0  0  0  0  0  0  0  0  0  0
  -33.8796  -22.8583   19.9408 O   0  0  0  0  0  0  0  0  0  0  0  0
  -30.8164  -17.5360   19.7652 O   0  0  0  0  0  0  0  0  0  0  0  0
  -23.8759   -7.3527   24.0190 O   0  0  0  0  0  0  0  0  0  0  0  0
  -27.8302  -25.9818   19.9270 O   0  0  0  0  0  0  0  0  0  1  0  0
  -19.3708   -4.6620   22.3252 F   0  0  0  0  0  0  0  0  0  0  0  0
  -24.0512   -4.7800   23.0224 F   0  0  0  0  0  0  0  0  0  0  0  0
  -25.3549  -24.9881   19.0218 F   0  0  0  0  0  0  0  0  0  0  0  0
  1  2  1  0  0  0  0
  1  5  2  0  0  0  0
  2  6  2  0  0  0  0
  3  8  2  0  0  0  0
  3 17  1  0  0  0  0
  4  9  1  0  0  0  0
  4 17  2  0  0  0  0
  5 19  1  0  0  0  0
  6 21  1  0  0  0  0
  7 10  2  0  0  0  0
  7 20  1  0  0  0  0
  8 23  1  0  0  0  0
  9 23  2  0  0  0  0
 10 24  1  0  0  0  0
 11 12  2  0  0  0  0
 11 25  1  0  0  0  0
 12 26  1  0  0  0  0
 13 22  1  0  0  0  0
 13 24  2  0  0  0  0
 14 26  2  0  0  0  0
 14 27  1  0  0  0  0
 15 29  2  0  0  0  0
 15 63  1  0  0  0  0
 16 61  2  0  0  0  0
 16 63  1  0  0  0  0
 17 28  1  0  0  0  0
 18 28  1  0  0  0  0
 18 30  2  0  0  0  0
 18 31  1  0  0  0  0
 19 21  2  0  0  0  0
 19 36  1  0  0  0  0
 20 22  2  0  0  0  0
 20 37  1  0  0  0  0
 21 45  1  0  0  0  0
 22 38  1  0  0  0  0
 23 78  1  0  0  0  0
 24 79  1  0  0  0  0
 25 27  2  0  0  0  0
 25 78  1  0  0  0  0
 26 80  1  0  0  0  0
 27 81  1  0  0  0  0
 28 62  2  0  0  0  0
 29 61  1  0  0  0  0
 29 69  1  0  0  0  0
 30 64  1  0  0  0  0
 30 67  1  0  0  0  0
 31 68  1  0  0  0  0
 31 73  2  0  0  0  0
 32 46  1  0  0  0  0
 32 70  1  0  0  0  0
 32 74  2  0  0  0  0
 33 57  1  0  0  0  0
 33 65  1  0  0  0  0
 33 75  2  0  0  0  0
 34 58  1  0  0  0  0
 34 71  1  0  0  0  0
 34 76  2  0  0  0  0
 35 66  1  0  0  0  0
 35 69  1  0  0  0  0
 35 77  2  0  0  0  0
 36 39  1  0  0  0  0
 37 46  1  0  0  0  0
 38 65  1  0  0  0  0
 39 41  1  0  0  0  0
 40 42  1  0  0  0  0
 40 43  1  0  0  0  0
 41 45  1  0  0  0  0
 42 47  1  0  0  0  0
 43 66  1  0  0  0  0
 44 47  1  0  0  0  0
 44 66  1  0  0  0  0
 45 70  1  0  0  0  0
 46 65  1  0  0  0  0
 47 64  1  0  0  0  0
 48 58  1  0  0  0  0
 49 59  1  0  0  0  0
 50 59  1  0  0  0  0
 51 59  1  0  0  0  0
 52 60  1  0  0  0  0
 53 72  1  0  0  0  0
 54 55  1  0  0  0  0
 54 60  1  0  0  0  0
 55 63  1  0  0  0  0
 56 60  1  0  0  0  0
 56 79  1  0  0  0  0
 57 59  1  0  0  0  0
 57 71  1  0  0  0  0
 58 72  1  0  0  0  0
 60 82  1  0  0  0  0
 62 64  1  0  0  0  0
M  CHG  1  72   1
M  ISO  4  35 100  56 101  69 100  79 101
M  END
> <Batch ID>
0185

> <Smiles>
CNC(C)C(=O)NC(C(=O)N1Cc2cc([101O:1][101CH2:1]C(C)(F)CCn3cnc([100NH:0][100C:0](=O)N4CCCC(n5nc(-c6ccc(Oc7ccc(F)cc7F)cc6)c(C(N)=O)c5N)C4)c3)ccc2CC1C(=O)NC1CCCc2ccccc21)C(C)(C)C

> <Shape>
0.198

> <Color>
0.124

> <Negative vol penalty>
0.000

$$$$

  -OEChem-04052305053D

 85 93  0     1  0  0  0  0  0999 V2000
  -21.1675  -33.1944   24.8621 C   0  0  0  0  0  0  0  0  0  0  0  0
  -22.3811  -32.5928   24.5444 C   0  0  0  0  0  0  0  0  0  0  0  0
  -23.4486  -10.0117   19.8464 C   0  0  0  0  0  0  0  0  0  0  0  0
  -24.4976   -9.9892   22.0226 C   0  0  0  0  0  0  0  0  0  0  0  0
  -19.9808  -32.4721   24.7442 C   0  0  0  0  0  0  0  0  0  0  0  0
  -22.4086  -31.2682   24.1097 C   0  0  0  0  0  0  0  0  0  0  0  0
  -26.2329  -28.8213   19.9995 C   0  0  0  0  0  0  0  0  0  0  0  0
  -23.0087   -8.7030   20.0449 C   0  0  0  0  0  0  0  0  0  0  0  0
  -24.0577   -8.6805   22.2212 C   0  0  0  0  0  0  0  0  0  0  0  0
  -27.4048  -28.0781   20.1347 C   0  0  0  0  0  0  0  0  0  0  0  0
  -21.1874   -7.1246   23.0938 C   0  0  0  0  0  0  0  0  0  0  0  0
  -20.6247   -6.8124   24.3313 C   0  0  0  0  0  0  0  0  0  0  0  0
  -26.1339  -26.0418   19.8946 C   0  0  0  0  0  0  0  0  0  0  0  0
  -29.6857  -19.3716   20.4719 C   0  0  0  0  0  0  0  0  0  0  0  0
  -22.3391   -5.1485   24.6911 C   0  0  0  0  0  0  0  0  0  0  0  0
  -24.1931  -10.6548   20.8352 C   0  0  0  0  0  0  0  0  0  0  0  0
  -23.9699  -13.1925   20.9699 C   0  0  0  0  0  0  0  0  0  0  0  0
  -19.9929  -31.1410   24.2986 C   0  0  0  0  0  0  0  0  0  0  0  0
  -24.9992  -28.1789   19.8215 C   0  0  0  0  0  0  0  0  0  0  0  0
  -21.2210  -30.5270   23.9870 C   0  0  0  0  0  0  0  0  0  0  0  0
  -24.9482  -26.7792   19.7548 C   0  0  0  0  0  0  0  0  0  0  0  0
  -29.0626  -18.5140   21.3785 C   0  0  0  0  0  0  0  0  0  0  0  0
  -28.8046  -21.2766   21.6684 C   0  0  0  0  0  0  0  0  0  0  0  0
  -23.3132   -8.0374   21.2323 C   0  0  0  0  0  0  0  0  0  0  0  0
  -27.3550  -26.6881   20.0851 C   0  0  0  0  0  0  0  0  0  0  0  0
  -22.3260   -6.4488   22.6549 C   0  0  0  0  0  0  0  0  0  0  0  0
  -21.2005   -5.8244   25.1300 C   0  0  0  0  0  0  0  0  0  0  0  0
  -29.5567  -20.7529   20.6168 C   0  0  0  0  0  0  0  0  0  0  0  0
  -22.9018   -5.4607   23.4535 C   0  0  0  0  0  0  0  0  0  0  0  0
  -28.3105  -19.0377   22.4301 C   0  0  0  0  0  0  0  0  0  0  0  0
  -28.1815  -20.4191   22.5750 C   0  0  0  0  0  0  0  0  0  0  0  0
  -24.6482  -12.0065   20.6306 C   0  0  0  0  0  0  0  0  0  0  0  0
  -24.8170  -14.1981   20.5729 C   0  0  0  0  0  0  0  0  0  0  0  0
  -22.6888  -13.3693   21.5888 C   0  0  0  0  0  0  0  0  0  0  0  0
  -22.2834  -28.0417   21.4675 C   0  0  0  0  0  0  0  0  0  0  0  0
  -21.2468  -26.3978   18.8704 C   0  0  0  0  0  0  0  0  0  0  0  0
  -22.0223  -24.4792   16.1566 C   0  0  0  0  0  0  0  0  0  0  0  0
  -28.7105  -23.6246   20.7644 C   0  0  0  0  0  0  0  0  0  0  0  0
  -29.9064  -16.4318   20.2389 C   0  0  0  0  0  0  0  0  0  0  0  0
  -18.6891  -30.3857   24.2323 C   0  0  0  0  0  0  0  0  0  0  0  0
  -23.7478  -28.9957   19.6505 C   0  0  0  0  0  0  0  0  0  0  0  0
  -23.6517  -26.0420   19.5452 C   0  0  0  0  0  0  0  0  0  0  0  0
  -18.7687  -29.1044   23.4064 C   0  0  0  0  0  0  0  0  0  0  0  0
  -29.0163  -14.0456   17.7508 C   0  0  0  0  0  0  0  0  0  0  0  0
  -20.0120  -28.3040   23.7813 C   0  0  0  0  0  0  0  0  0  0  0  0
  -27.7447  -13.3999   18.3061 C   0  0  0  0  0  0  0  0  0  0  0  0
  -30.0181  -14.3690   18.8578 C   0  0  0  0  0  0  0  0  0  0  0  0
  -28.2092  -14.5203   20.5233 C   0  0  0  0  0  0  0  0  0  0  0  0
  -21.2896  -29.0999   23.4883 C   0  0  1  0  0  0  0  0  0  0  0  0
  -22.4778  -28.2210   19.9884 C   0  0  1  0  0  0  0  0  0  0  0  0
  -27.1430  -14.2356   19.4529 C   0  0  2  0  0  0  0  0  0  0  0  0
  -20.9594  -23.2525   14.2428 C   0  0  0  0  0  0  0  0  0  0  0  0
  -29.7198  -25.4213   22.2179 C   0  0  0  0  0  0  0  0  0  0  0  0
  -20.3844  -24.1765   20.7763 C   0  0  0  0  0  0  0  0  0  0  0  0
  -20.2271  -22.6413   18.8048 C   0  0  0  0  0  0  0  0  0  0  0  0
  -18.7637  -24.6574   18.9334 C   0  0  0  0  0  0  0  0  0  0  0  0
  -23.4386  -26.1372   14.1556 C   0  0  0  0  0  0  0  0  0  0  0  0
  -21.2308  -24.9447   18.4612 C   0  0  1  0  0  0  0  0  0  0  0  0
  -21.5813  -24.5606   14.7063 C   0  0  2  0  0  0  0  0  0  0  0  0
  -28.5601  -25.0429   21.3086 C   0  0  1  0  0  0  0  0  0  1  0  0
  -20.1758  -24.1185   19.2498 C   0  0  0  0  0  0  0  0  0  0  0  0
  -25.8347  -12.2358   20.0616 N   0  0  0  0  0  0  0  0  0  0  0  0
  -25.9085  -13.5775   20.0403 N   0  0  0  0  0  0  0  0  0  0  0  0
  -22.4546  -26.8849   19.3897 N   0  0  0  0  0  0  0  0  0  0  0  0
  -29.3787  -15.1661   19.9069 N   0  0  0  0  0  0  0  0  0  0  0  0
  -24.7272  -15.5438   20.6309 N   0  0  0  0  0  0  0  0  0  0  0  0
  -21.9497  -12.2291   21.9325 N   0  0  0  0  0  0  0  0  0  0  0  0
  -28.6916  -22.6823   21.7874 N   0  0  0  0  0  0  0  0  0  0  0  0
  -29.1959  -17.1114   21.2278 N   0  0  0  0  0  0  0  0  0  0  0  0
  -21.5890  -29.0718   22.0726 N   0  0  0  0  0  0  0  0  0  0  0  0
  -21.0417  -24.9300   17.0147 N   0  0  0  0  0  0  0  0  0  0  0  0
  -22.7456  -24.8649   13.8272 N   0  3  0  0  0  0  0  0  0  0  0  0
  -22.2062  -14.5049   21.8150 O   0  0  0  0  0  0  0  0  0  0  0  0
  -22.7292  -27.0421   22.0187 O   0  0  0  0  0  0  0  0  0  0  0  0
  -20.2273  -27.0774   18.7276 O   0  0  0  0  0  0  0  0  0  0  0  0
  -23.1250  -24.0545   16.4947 O   0  0  0  0  0  0  0  0  0  0  0  0
  -28.8139  -23.4130   19.5595 O   0  0  0  0  0  0  0  0  0  0  0  0
  -30.8985  -16.8915   19.6674 O   0  0  0  0  0  0  0  0  0  0  0  0
  -22.8839   -6.7604   21.4264 O   0  0  0  0  0  0  0  0  0  0  0  0
  -28.4972  -25.9603   20.2174 O   0  0  0  0  0  0  0  0  0  1  0  0
  -20.6609   -5.5257   26.3190 F   0  0  0  0  0  0  0  0  0  0  0  0
  -30.1604  -21.5662   19.7382 F   0  0  0  0  0  0  0  0  0  0  0  0
  -23.9964   -4.8089   23.0378 F   0  0  0  0  0  0  0  0  0  0  0  0
  -27.7132  -18.2072   23.2987 F   0  0  0  0  0  0  0  0  0  0  0  0
  -27.2421  -21.0329   23.8898 Cl  0  0  0  0  0  0  0  0  0  0  0  0
  1  2  1  0  0  0  0
  1  5  2  0  0  0  0
  2  6  2  0  0  0  0
  3  8  2  0  0  0  0
  3 16  1  0  0  0  0
  4  9  1  0  0  0  0
  4 16  2  0  0  0  0
  5 18  1  0  0  0  0
  6 20  1  0  0  0  0
  7 10  2  0  0  0  0
  7 19  1  0  0  0  0
  8 24  1  0  0  0  0
  9 24  2  0  0  0  0
 10 25  1  0  0  0  0
 11 12  2  0  0  0  0
 11 26  1  0  0  0  0
 12 27  1  0  0  0  0
 13 21  1  0  0  0  0
 13 25  2  0  0  0  0
 14 22  1  0  0  0  0
 14 28  2  0  0  0  0
 15 27  2  0  0  0  0
 15 29  1  0  0  0  0
 16 32  1  0  0  0  0
 17 32  1  0  0  0  0
 17 33  2  0  0  0  0
 17 34  1  0  0  0  0
 18 20  2  0  0  0  0
 18 40  1  0  0  0  0
 19 21  2  0  0  0  0
 19 41  1  0  0  0  0
 20 49  1  0  0  0  0
 21 42  1  0  0  0  0
 22 30  2  0  0  0  0
 22 69  1  0  0  0  0
 23 28  1  0  0  0  0
 23 31  2  0  0  0  0
 23 68  1  0  0  0  0
 24 79  1  0  0  0  0
 25 80  1  0  0  0  0
 26 29  2  0  0  0  0
 26 79  1  0  0  0  0
 27 81  1  0  0  0  0
 28 82  1  0  0  0  0
 29 83  1  0  0  0  0
 30 31  1  0  0  0  0
 30 84  1  0  0  0  0
 31 85  1  0  0  0  0
 32 62  2  0  0  0  0
 33 63  1  0  0  0  0
 33 66  1  0  0  0  0
 34 67  1  0  0  0  0
 34 73  2  0  0  0  0
 35 50  1  0  0  0  0
 35 70  1  0  0  0  0
 35 74  2  0  0  0  0
 36 58  1  0  0  0  0
 36 64  1  0  0  0  0
 36 75  2  0  0  0  0
 37 59  1  0  0  0  0
 37 71  1  0  0  0  0
 37 76  2  0  0  0  0
 38 60  1  0  0  0  0
 38 68  1  0  0  0  0
 38 77  2  0  0  0  0
 39 65  1  0  0  0  0
 39 69  1  0  0  0  0
 39 78  2  0  0  0  0
 40 43  1  0  0  0  0
 41 50  1  0  0  0  0
 42 64  1  0  0  0  0
 43 45  1  0  0  0  0
 44 46  1  0  0  0  0
 44 47  1  0  0  0  0
 45 49  1  0  0  0  0
 46 51  1  0  0  0  0
 47 65  1  0  0  0  0
 48 51  1  0  0  0  0
 48 65  1  0  0  0  0
 49 70  1  0  0  0  0
 50 64  1  0  0  0  0
 51 63  1  0  0  0  0
 52 59  1  0  0  0  0
 53 60  1  0  0  0  0
 54 61  1  0  0  0  0
 55 61  1  0  0  0  0
 56 61  1  0  0  0  0
 57 72  1  0  0  0  0
 58 61  1  0  0  0  0
 58 71  1  0  0  0  0
 59 72  1  0  0  0  0
 60 80  1  0  0  0  0
 62 63  1  0  0  0  0
M  CHG  1  72   1
M  ISO  4  39 100  60 101  69 100  80 101
M  END
> <Batch ID>
0185

> <Smiles>
CNC(C)C(=O)NC(C(=O)N1Cc2cc([101O:1][101CH:1](C)C(=O)Nc3c(F)cc([100NH:0][100C:0](=O)N4CCCC(n5nc(-c6ccc(Oc7ccc(F)cc7F)cc6)c(C(N)=O)c5N)C4)c(F)c3Cl)ccc2CC1C(=O)NC1CCCc2ccccc21)C(C)(C)C

> <Shape>
0.297

> <Color>
0.152

> <Negative vol penalty>
0.000

$$$$

  -OEChem-04052305053D

 87 95  0     1  0  0  0  0  0999 V2000
  -29.4049  -24.5465   14.1034 C   0  0  0  0  0  0  0  0  0  0  0  0
  -28.1913  -24.6927   14.7677 C   0  0  0  0  0  0  0  0  0  0  0  0
  -26.9131  -13.0477   21.0525 C   0  0  0  0  0  0  0  0  0  0  0  0
  -26.5877  -13.5382   18.7093 C   0  0  0  0  0  0  0  0  0  0  0  0
  -30.5998  -24.5822   14.8210 C   0  0  0  0  0  0  0  0  0  0  0  0
  -28.1719  -24.8736   16.1502 C   0  0  0  0  0  0  0  0  0  0  0  0
  -24.9860  -28.5390   17.5854 C   0  0  0  0  0  0  0  0  0  0  0  0
  -26.2806  -11.8162   20.8825 C   0  0  0  0  0  0  0  0  0  0  0  0
  -25.9553  -12.3067   18.5393 C   0  0  0  0  0  0  0  0  0  0  0  0
  -23.6276  -28.2266   17.6145 C   0  0  0  0  0  0  0  0  0  0  0  0
  -24.4309   -8.6960   21.1410 C   0  0  0  0  0  0  0  0  0  0  0  0
  -23.4856   -8.3139   22.0928 C   0  0  0  0  0  0  0  0  0  0  0  0
  -23.7570  -27.9129   20.0028 C   0  0  0  0  0  0  0  0  0  0  0  0
  -23.6946  -22.5019   17.6797 C   0  0  0  0  0  0  0  0  0  0  0  0
  -22.1698  -10.2721   21.5722 C   0  0  0  0  0  0  0  0  0  0  0  0
  -27.0666  -13.9088   19.9658 C   0  0  0  0  0  0  0  0  0  0  0  0
  -29.0933  -15.4574   20.0077 C   0  0  0  0  0  0  0  0  0  0  0  0
  -30.5955  -24.7733   16.2117 C   0  0  0  0  0  0  0  0  0  0  0  0
  -25.7438  -28.5301   18.7653 C   0  0  0  0  0  0  0  0  0  0  0  0
  -29.3678  -24.9105   16.8873 C   0  0  0  0  0  0  0  0  0  0  0  0
  -25.1243  -28.2281   19.9864 C   0  0  0  0  0  0  0  0  0  0  0  0
  -22.9243  -23.0095   16.6335 C   0  0  0  0  0  0  0  0  0  0  0  0
  -24.6570  -21.5244   17.4266 C   0  0  0  0  0  0  0  0  0  0  0  0
  -23.1161  -22.5396   15.3343 C   0  0  0  0  0  0  0  0  0  0  0  0
  -25.8017  -11.4456   19.6259 C   0  0  0  0  0  0  0  0  0  0  0  0
  -23.0135  -27.9107   18.8229 C   0  0  0  0  0  0  0  0  0  0  0  0
  -24.2457   -9.8663   20.4048 C   0  0  0  0  0  0  0  0  0  0  0  0
  -22.3550   -9.1019   22.3084 C   0  0  0  0  0  0  0  0  0  0  0  0
  -23.1151  -10.6543   20.6204 C   0  0  0  0  0  0  0  0  0  0  0  0
  -24.8489  -21.0545   16.1273 C   0  0  0  0  0  0  0  0  0  0  0  0
  -24.0785  -21.5621   15.0812 C   0  0  0  0  0  0  0  0  0  0  0  0
  -27.7193  -15.1813   20.1409 C   0  0  0  0  0  0  0  0  0  0  0  0
  -29.2009  -16.8007   20.2731 C   0  0  0  0  0  0  0  0  0  0  0  0
  -30.1756  -14.5782   19.6739 C   0  0  0  0  0  0  0  0  0  0  0  0
  -28.2502  -26.8771   19.8090 C   0  0  0  0  0  0  0  0  0  0  0  0
  -28.0817  -28.9434   22.3039 C   0  0  0  0  0  0  0  0  0  0  0  0
  -21.6500  -24.5654   18.1506 C   0  0  0  0  0  0  0  0  0  0  0  0
  -26.1842  -31.0694   24.1818 C   0  0  0  0  0  0  0  0  0  0  0  0
  -25.3721  -21.3675   19.8370 C   0  0  0  0  0  0  0  0  0  0  0  0
  -31.9101  -24.7575   16.9507 C   0  0  0  0  0  0  0  0  0  0  0  0
  -27.2022  -28.8955   18.7209 C   0  0  0  0  0  0  0  0  0  0  0  0
  -25.8889  -28.2243   21.2840 C   0  0  0  0  0  0  0  0  0  0  0  0
  -31.8214  -25.3280   18.3638 C   0  0  0  0  0  0  0  0  0  0  0  0
  -27.0954  -20.3057   22.7663 C   0  0  0  0  0  0  0  0  0  0  0  0
  -30.6112  -24.7561   19.0954 C   0  0  0  0  0  0  0  0  0  0  0  0
  -27.5812  -18.8986   22.4111 C   0  0  0  0  0  0  0  0  0  0  0  0
  -25.7175  -20.5963   22.1739 C   0  0  0  0  0  0  0  0  0  0  0  0
  -26.0870  -18.9557   20.3736 C   0  0  0  0  0  0  0  0  0  0  0  0
  -29.3068  -25.1334   18.3828 C   0  0  1  0  0  0  0  0  0  0  0  0
  -27.9904  -28.3536   19.9094 C   0  0  1  0  0  0  0  0  0  0  0  0
  -27.4989  -18.6403   20.8938 C   0  0  2  0  0  0  0  0  0  0  0  0
  -19.6762  -25.6209   19.3009 C   0  0  0  0  0  0  0  0  0  0  0  0
  -26.3146  -32.5849   26.1777 C   0  0  0  0  0  0  0  0  0  0  0  0
  -20.1051  -27.9510   17.1078 C   0  0  0  0  0  0  0  0  0  0  0  0
  -28.0188  -26.5143   24.1493 C   0  0  0  0  0  0  0  0  0  0  0  0
  -27.2050  -28.0144   25.9812 C   0  0  0  0  0  0  0  0  0  0  0  0
  -29.4466  -28.4019   24.9575 C   0  0  0  0  0  0  0  0  0  0  0  0
  -25.4869  -33.4489   22.5660 C   0  0  0  0  0  0  0  0  0  0  0  0
  -27.3662  -28.9584   23.6331 C   0  0  1  0  0  0  0  0  0  0  0  0
  -20.5311  -25.6114   18.0310 C   0  0  1  0  0  0  0  0  0  0  0  0
  -26.4381  -32.4859   24.6652 C   0  0  2  0  0  0  0  0  0  0  0  0
  -21.1355  -26.9908   17.6901 C   0  0  2  0  0  0  0  0  0  1  0  0
  -27.9949  -27.9703   24.6557 C   0  0  0  0  0  0  0  0  0  0  0  0
  -27.0053  -16.2624   20.4658 N   0  0  0  0  0  0  0  0  0  0  0  0
  -27.9342  -17.2308   20.5391 N   0  0  0  0  0  0  0  0  0  0  0  0
  -27.3138  -28.5821   21.1878 N   0  0  0  0  0  0  0  0  0  0  0  0
  -25.7163  -20.3334   20.7332 N   0  0  0  0  0  0  0  0  0  0  0  0
  -22.3463  -23.0424   14.2612 N   0  0  0  0  0  0  0  0  0  0  0  0
  -30.2546  -17.6442   20.3026 N   0  0  0  0  0  0  0  0  0  0  0  0
  -29.8890  -13.2278   19.4318 N   0  0  0  0  0  0  0  0  0  0  0  0
  -21.9545  -24.0010   16.9150 N   0  0  0  0  0  0  0  0  0  0  0  0
  -25.4379  -21.0095   18.4909 N   0  0  0  0  0  0  0  0  0  0  0  0
  -28.9489  -26.5046   18.6765 N   0  0  0  0  0  0  0  0  0  0  0  0
  -27.3549  -30.3488   24.0749 N   0  0  0  0  0  0  0  0  0  0  0  0
  -25.4584  -33.4262   24.0511 N   0  3  0  0  0  0  0  0  0  0  0  0
  -31.3638  -14.9749   19.6088 O   0  0  0  0  0  0  0  0  0  0  0  0
  -27.8480  -26.1313   20.6942 O   0  0  0  0  0  0  0  0  0  0  0  0
  -29.2760  -29.2481   22.2565 O   0  0  0  0  0  0  0  0  0  0  0  0
  -22.1805  -24.3134   19.2288 O   0  0  0  0  0  0  0  0  0  0  0  0
  -25.0596  -30.6437   23.9282 O   0  0  0  0  0  0  0  0  0  0  0  0
  -25.0696  -22.4959   20.2335 O   0  0  0  0  0  0  0  0  0  0  0  0
  -25.1847  -10.2439   19.4597 O   0  0  0  0  0  0  0  0  0  0  0  0
  -21.6879  -27.6047   18.8539 O   0  0  0  0  0  0  0  0  0  1  0  0
  -21.4465   -8.7340   23.2214 F   0  0  0  0  0  0  0  0  0  0  0  0
  -22.9311  -11.7790   19.9153 F   0  0  0  0  0  0  0  0  0  0  0  0
  -25.7708  -20.1151   15.8729 F   0  0  0  0  0  0  0  0  0  0  0  0
  -24.2723  -21.1034   13.8364 F   0  0  0  0  0  0  0  0  0  0  0  0
  1  2  1  0  0  0  0
  1  5  2  0  0  0  0
  2  6  2  0  0  0  0
  3  8  2  0  0  0  0
  3 16  1  0  0  0  0
  4  9  1  0  0  0  0
  4 16  2  0  0  0  0
  5 18  1  0  0  0  0
  6 20  1  0  0  0  0
  7 10  2  0  0  0  0
  7 19  1  0  0  0  0
  8 25  1  0  0  0  0
  9 25  2  0  0  0  0
 10 26  1  0  0  0  0
 11 12  2  0  0  0  0
 11 27  1  0  0  0  0
 12 28  1  0  0  0  0
 13 21  1  0  0  0  0
 13 26  2  0  0  0  0
 14 22  1  0  0  0  0
 14 23  2  0  0  0  0
 15 28  2  0  0  0  0
 15 29  1  0  0  0  0
 16 32  1  0  0  0  0
 17 32  1  0  0  0  0
 17 33  2  0  0  0  0
 17 34  1  0  0  0  0
 18 20  2  0  0  0  0
 18 40  1  0  0  0  0
 19 21  2  0  0  0  0
 19 41  1  0  0  0  0
 20 49  1  0  0  0  0
 21 42  1  0  0  0  0
 22 24  2  0  0  0  0
 22 71  1  0  0  0  0
 23 30  1  0  0  0  0
 23 72  1  0  0  0  0
 24 31  1  0  0  0  0
 24 68  1  0  0  0  0
 25 82  1  0  0  0  0
 26 83  1  0  0  0  0
 27 29  2  0  0  0  0
 27 82  1  0  0  0  0
 28 84  1  0  0  0  0
 29 85  1  0  0  0  0
 30 31  2  0  0  0  0
 30 86  1  0  0  0  0
 31 87  1  0  0  0  0
 32 64  2  0  0  0  0
 33 65  1  0  0  0  0
 33 69  1  0  0  0  0
 34 70  1  0  0  0  0
 34 76  2  0  0  0  0
 35 50  1  0  0  0  0
 35 73  1  0  0  0  0
 35 77  2  0  0  0  0
 36 59  1  0  0  0  0
 36 66  1  0  0  0  0
 36 78  2  0  0  0  0
 37 60  1  0  0  0  0
 37 71  1  0  0  0  0
 37 79  2  0  0  0  0
 38 61  1  0  0  0  0
 38 74  1  0  0  0  0
 38 80  2  0  0  0  0
 39 67  1  0  0  0  0
 39 72  1  0  0  0  0
 39 81  2  0  0  0  0
 40 43  1  0  0  0  0
 41 50  1  0  0  0  0
 42 66  1  0  0  0  0
 43 45  1  0  0  0  0
 44 46  1  0  0  0  0
 44 47  1  0  0  0  0
 45 49  1  0  0  0  0
 46 51  1  0  0  0  0
 47 67  1  0  0  0  0
 48 51  1  0  0  0  0
 48 67  1  0  0  0  0
 49 73  1  0  0  0  0
 50 66  1  0  0  0  0
 51 65  1  0  0  0  0
 52 60  1  0  0  0  0
 53 61  1  0  0  0  0
 54 62  1  0  0  0  0
 55 63  1  0  0  0  0
 56 63  1  0  0  0  0
 57 63  1  0  0  0  0
 58 75  1  0  0  0  0
 59 63  1  0  0  0  0
 59 74  1  0  0  0  0
 60 62  1  0  0  0  0
 61 75  1  0  0  0  0
 62 83  1  0  0  0  0
 64 65  1  0  0  0  0
M  CHG  1  75   1
M  ISO  4  39 100  62 101  72 100  83 101
M  END
> <Batch ID>
0185

> <Smiles>
CNC(C)C(=O)NC(C(=O)N1Cc2cc([101O:1][101CH:1](C)C(C)C(=O)Nc3cc([100NH:0][100C:0](=O)N4CCCC(n5nc(-c6ccc(Oc7ccc(F)cc7F)cc6)c(C(N)=O)c5N)C4)c(F)c(F)c3N)ccc2CC1C(=O)NC1CCCc2ccccc21)C(C)(C)C

> <Shape>
0.217

> <Color>
0.081

> <Negative vol penalty>
0.000

$$$$

  -OEChem-04052305053D

 83 91  0     1  0  0  0  0  0999 V2000
  -15.2908  -27.6324   21.3632 C   0  0  0  0  0  0  0  0  0  0  0  0
  -16.3727  -27.4236   20.5139 C   0  0  0  0  0  0  0  0  0  0  0  0
  -26.5980  -12.4840   21.5945 C   0  0  0  0  0  0  0  0  0  0  0  0
  -25.7393  -13.8349   19.7850 C   0  0  0  0  0  0  0  0  0  0  0  0
  -15.4669  -28.3344   22.5549 C   0  0  0  0  0  0  0  0  0  0  0  0
  -17.6312  -27.9177   20.8554 C   0  0  0  0  0  0  0  0  0  0  0  0
  -21.3212  -24.5370   20.0811 C   0  0  0  0  0  0  0  0  0  0  0  0
  -25.3492  -11.8788   21.7354 C   0  0  0  0  0  0  0  0  0  0  0  0
  -24.4905  -13.2297   19.9257 C   0  0  0  0  0  0  0  0  0  0  0  0
  -21.7556  -24.3580   18.7684 C   0  0  0  0  0  0  0  0  0  0  0  0
  -22.4855   -9.7207   22.3326 C   0  0  0  0  0  0  0  0  0  0  0  0
  -22.4498   -8.3343   22.4818 C   0  0  0  0  0  0  0  0  0  0  0  0
  -23.6550  -25.7782   19.2097 C   0  0  0  0  0  0  0  0  0  0  0  0
  -23.5263   -8.0755   20.3344 C   0  0  0  0  0  0  0  0  0  0  0  0
  -26.7930  -13.4621   20.6194 C   0  0  0  0  0  0  0  0  0  0  0  0
  -29.1453  -13.6647   19.6532 C   0  0  0  0  0  0  0  0  0  0  0  0
  -16.7302  -28.8289   22.9158 C   0  0  0  0  0  0  0  0  0  0  0  0
  -22.0458  -25.3481   20.9663 C   0  0  0  0  0  0  0  0  0  0  0  0
  -17.8240  -28.6281   22.0524 C   0  0  0  0  0  0  0  0  0  0  0  0
  -23.2290  -25.9638   20.5338 C   0  0  0  0  0  0  0  0  0  0  0  0
  -24.2954  -12.2516   20.9009 C   0  0  0  0  0  0  0  0  0  0  0  0
  -22.9211  -24.9809   18.3317 C   0  0  0  0  0  0  0  0  0  0  0  0
  -23.0415  -10.2845   21.1842 C   0  0  0  0  0  0  0  0  0  0  0  0
  -22.9703   -7.5117   21.4828 C   0  0  0  0  0  0  0  0  0  0  0  0
  -23.5619   -9.4619   20.1852 C   0  0  0  0  0  0  0  0  0  0  0  0
  -28.0826  -14.0881   20.4738 C   0  0  0  0  0  0  0  0  0  0  0  0
  -28.8784  -23.8625   19.3877 C   0  0  0  0  0  0  0  0  0  0  0  0
  -30.1372  -14.5894   19.8717 C   0  0  0  0  0  0  0  0  0  0  0  0
  -27.6289  -23.5378   18.9025 C   0  0  0  0  0  0  0  0  0  0  0  0
  -28.7080  -21.8477   20.2372 C   0  0  0  0  0  0  0  0  0  0  0  0
  -29.5392  -25.1146   19.1427 C   0  0  0  0  0  0  0  0  0  0  0  0
  -29.2283  -12.5366   18.7723 C   0  0  0  0  0  0  0  0  0  0  0  0
  -21.4307  -28.0192   22.5758 C   0  0  0  0  0  0  0  0  0  0  0  0
  -24.3438  -27.4417   23.8807 C   0  0  0  0  0  0  0  0  0  0  0  0
  -27.4025  -25.9549   23.5965 C   0  0  0  0  0  0  0  0  0  0  0  0
  -25.4487  -23.8108   17.6731 C   0  0  0  0  0  0  0  0  0  0  0  0
  -30.0815  -20.2897   21.6629 C   0  0  0  0  0  0  0  0  0  0  0  0
  -16.8617  -29.6227   24.1915 C   0  0  0  0  0  0  0  0  0  0  0  0
  -21.5783  -25.5095   22.3867 C   0  0  0  0  0  0  0  0  0  0  0  0
  -24.0541  -26.8282   21.4506 C   0  0  0  0  0  0  0  0  0  0  0  0
  -18.3052  -29.7891   24.6592 C   0  0  0  0  0  0  0  0  0  0  0  0
  -31.7929  -17.5844   23.2217 C   0  0  0  0  0  0  0  0  0  0  0  0
  -19.1997  -30.2011   23.4942 C   0  0  0  0  0  0  0  0  0  0  0  0
  -31.1365  -16.3423   22.6147 C   0  0  0  0  0  0  0  0  0  0  0  0
  -30.7820  -18.7075   23.4464 C   0  0  0  0  0  0  0  0  0  0  0  0
  -29.3301  -17.8298   21.6602 C   0  0  0  0  0  0  0  0  0  0  0  0
  -19.2098  -29.1271   22.3998 C   0  0  1  0  0  0  0  0  0  0  0  0
  -22.1176  -26.7712   23.0536 C   0  0  1  0  0  0  0  0  0  0  0  0
  -30.3208  -16.6945   21.3552 C   0  0  2  0  0  0  0  0  0  0  0  0
  -29.5855  -25.6931   24.8061 C   0  0  0  0  0  0  0  0  0  0  0  0
  -25.0302  -24.6663   15.3380 C   0  0  0  0  0  0  0  0  0  0  0  0
  -25.1300  -30.2763   23.0703 C   0  0  0  0  0  0  0  0  0  0  0  0
  -27.5250  -29.6385   23.4242 C   0  0  0  0  0  0  0  0  0  0  0  0
  -25.9251  -29.5809   25.3372 C   0  0  0  0  0  0  0  0  0  0  0  0
  -27.0856  -23.0176   23.7726 C   0  0  0  0  0  0  0  0  0  0  0  0
  -25.7642  -27.8168   23.5333 C   0  0  1  0  0  0  0  0  0  0  0  0
  -28.2036  -25.1053   24.5665 C   0  0  2  0  0  0  0  0  0  0  0  0
  -24.7539  -24.8693   16.8204 C   0  0  1  0  0  0  0  0  0  1  0  0
  -26.0697  -29.3135   23.8232 C   0  0  0  0  0  0  0  0  0  0  0  0
  -28.3723  -15.1954   21.1623 N   0  0  0  0  0  0  0  0  0  0  0  0
  -29.4985  -22.8947   20.1536 N   0  0  0  0  0  0  0  0  0  0  0  0
  -30.7260  -25.4207   19.6045 N   0  0  0  0  0  0  0  0  0  0  0  0
  -29.6283  -15.4756   20.7749 N   0  0  0  0  0  0  0  0  0  0  0  0
  -23.5521  -26.9604   22.8283 N   0  0  0  0  0  0  0  0  0  0  0  0
  -30.0499  -18.9894   22.2097 N   0  0  0  0  0  0  0  0  0  0  0  0
  -31.3863  -14.7226   19.3775 N   0  0  0  0  0  0  0  0  0  0  0  0
  -28.1179  -11.6881   18.6667 N   0  0  0  0  0  0  0  0  0  0  0  0
  -26.7004  -24.2424   18.0998 N   0  0  0  0  0  0  0  0  0  0  0  0
  -28.9488  -20.6326   20.9253 N   0  0  0  0  0  0  0  0  0  0  0  0
  -20.0644  -28.0236   22.7824 N   0  0  0  0  0  0  0  0  0  0  0  0
  -26.6213  -26.8816   24.2539 N   0  0  0  0  0  0  0  0  0  0  0  0
  -28.3666  -23.7236   24.0324 N   0  3  0  0  0  0  0  0  0  0  0  0
  -30.2627  -12.2792   18.1110 O   0  0  0  0  0  0  0  0  0  0  0  0
  -22.0916  -28.9126   22.0593 O   0  0  0  0  0  0  0  0  0  0  0  0
  -23.9533  -27.5642   25.0444 O   0  0  0  0  0  0  0  0  0  0  0  0
  -27.4664  -25.8133   22.3773 O   0  0  0  0  0  0  0  0  0  0  0  0
  -24.9050  -22.7395   17.9256 O   0  0  0  0  0  0  0  0  0  0  0  0
  -31.0542  -21.0335   21.8133 O   0  0  0  0  0  0  0  0  0  0  0  0
  -23.0768  -11.6611   21.0379 O   0  0  0  0  0  0  0  0  0  0  0  0
  -23.3470  -24.8084   17.0508 O   0  0  0  0  0  0  0  0  0  1  0  0
  -22.9374   -6.1804   21.6269 F   0  0  0  0  0  0  0  0  0  0  0  0
  -24.0984   -9.9977   19.0803 F   0  0  0  0  0  0  0  0  0  0  0  0
  -27.2040  -21.9583   19.4183 S   0  0  0  0  0  0  0  0  0  0  0  0
  1  2  1  0  0  0  0
  1  5  2  0  0  0  0
  2  6  2  0  0  0  0
  3  8  2  0  0  0  0
  3 15  1  0  0  0  0
  4  9  1  0  0  0  0
  4 15  2  0  0  0  0
  5 17  1  0  0  0  0
  6 19  1  0  0  0  0
  7 10  2  0  0  0  0
  7 18  1  0  0  0  0
  8 21  1  0  0  0  0
  9 21  2  0  0  0  0
 10 22  1  0  0  0  0
 11 12  2  0  0  0  0
 11 23  1  0  0  0  0
 12 24  1  0  0  0  0
 13 20  1  0  0  0  0
 13 22  2  0  0  0  0
 14 24  2  0  0  0  0
 14 25  1  0  0  0  0
 15 26  1  0  0  0  0
 16 26  1  0  0  0  0
 16 28  2  0  0  0  0
 16 32  1  0  0  0  0
 17 19  2  0  0  0  0
 17 38  1  0  0  0  0
 18 20  2  0  0  0  0
 18 39  1  0  0  0  0
 19 47  1  0  0  0  0
 20 40  1  0  0  0  0
 21 79  1  0  0  0  0
 22 80  1  0  0  0  0
 23 25  2  0  0  0  0
 23 79  1  0  0  0  0
 24 81  1  0  0  0  0
 25 82  1  0  0  0  0
 26 60  2  0  0  0  0
 27 29  2  0  0  0  0
 27 31  1  0  0  0  0
 27 61  1  0  0  0  0
 28 63  1  0  0  0  0
 28 66  1  0  0  0  0
 29 68  1  0  0  0  0
 29 83  1  0  0  0  0
 30 61  2  0  0  0  0
 30 69  1  0  0  0  0
 30 83  1  0  0  0  0
 31 62  2  0  0  0  0
 32 67  1  0  0  0  0
 32 73  2  0  0  0  0
 33 48  1  0  0  0  0
 33 70  1  0  0  0  0
 33 74  2  0  0  0  0
 34 56  1  0  0  0  0
 34 64  1  0  0  0  0
 34 75  2  0  0  0  0
 35 57  1  0  0  0  0
 35 71  1  0  0  0  0
 35 76  2  0  0  0  0
 36 58  1  0  0  0  0
 36 68  1  0  0  0  0
 36 77  2  0  0  0  0
 37 65  1  0  0  0  0
 37 69  1  0  0  0  0
 37 78  2  0  0  0  0
 38 41  1  0  0  0  0
 39 48  1  0  0  0  0
 40 64  1  0  0  0  0
 41 43  1  0  0  0  0
 42 44  1  0  0  0  0
 42 45  1  0  0  0  0
 43 47  1  0  0  0  0
 44 49  1  0  0  0  0
 45 65  1  0  0  0  0
 46 49  1  0  0  0  0
 46 65  1  0  0  0  0
 47 70  1  0  0  0  0
 48 64  1  0  0  0  0
 49 63  1  0  0  0  0
 50 57  1  0  0  0  0
 51 58  1  0  0  0  0
 52 59  1  0  0  0  0
 53 59  1  0  0  0  0
 54 59  1  0  0  0  0
 55 72  1  0  0  0  0
 56 59  1  0  0  0  0
 56 71  1  0  0  0  0
 57 72  1  0  0  0  0
 58 80  1  0  0  0  0
 60 63  1  0  0  0  0
M  CHG  1  72   1
M  ISO  4  37 100  58 101  69 100  80 101
M  END
> <Batch ID>
0185

> <Smiles>
CNC(C)C(=O)NC(C(=O)N1Cc2cc([101O:1][101CH:1](C)C(=O)Nc3sc([100NH:0][100C:0](=O)N4CCCC(n5nc(-c6ccc(Oc7ccc(F)cc7F)cc6)c(C(N)=O)c5N)C4)nc3C=N)ccc2CC1C(=O)NC1CCCc2ccccc21)C(C)(C)C

> <Shape>
0.273

> <Color>
0.081

> <Negative vol penalty>
0.000

$$$$

  -OEChem-04052305053D

 88 96  0     1  0  0  0  0  0999 V2000
  -16.7746  -25.4433   23.2176 C   0  0  0  0  0  0  0  0  0  0  0  0
  -17.7820  -24.4933   23.0833 C   0  0  0  0  0  0  0  0  0  0  0  0
  -30.3072  -19.7888   19.4120 C   0  0  0  0  0  0  0  0  0  0  0  0
  -28.4057  -19.9564   20.8929 C   0  0  0  0  0  0  0  0  0  0  0  0
  -17.0717  -26.7979   23.0736 C   0  0  0  0  0  0  0  0  0  0  0  0
  -19.0870  -24.8973   22.8039 C   0  0  0  0  0  0  0  0  0  0  0  0
  -22.5165  -22.4942   25.6514 C   0  0  0  0  0  0  0  0  0  0  0  0
  -30.0172  -21.0520   18.8965 C   0  0  0  0  0  0  0  0  0  0  0  0
  -28.1156  -21.2197   20.3774 C   0  0  0  0  0  0  0  0  0  0  0  0
  -22.8489  -21.1911   25.2838 C   0  0  0  0  0  0  0  0  0  0  0  0
  -30.4487  -24.2770   19.8164 C   0  0  0  0  0  0  0  0  0  0  0  0
  -31.5081  -25.1695   19.6535 C   0  0  0  0  0  0  0  0  0  0  0  0
  -24.8519  -22.0094   24.2172 C   0  0  0  0  0  0  0  0  0  0  0  0
  -31.0506  -25.2799   17.2838 C   0  0  0  0  0  0  0  0  0  0  0  0
  -29.5014  -19.2409   20.4101 C   0  0  0  0  0  0  0  0  0  0  0  0
  -30.6284  -17.6348   22.0405 C   0  0  0  0  0  0  0  0  0  0  0  0
  -18.3829  -27.2193   22.8018 C   0  0  0  0  0  0  0  0  0  0  0  0
  -23.3452  -23.5678   25.2947 C   0  0  0  0  0  0  0  0  0  0  0  0
  -19.4017  -26.2587   22.6548 C   0  0  0  0  0  0  0  0  0  0  0  0
  -24.5291  -23.3249   24.5837 C   0  0  0  0  0  0  0  0  0  0  0  0
  -28.9214  -21.7675   19.3792 C   0  0  0  0  0  0  0  0  0  0  0  0
  -24.0153  -20.9488   24.5640 C   0  0  0  0  0  0  0  0  0  0  0  0
  -29.6902  -23.8858   18.7131 C   0  0  0  0  0  0  0  0  0  0  0  0
  -31.8091  -25.6710   18.3872 C   0  0  0  0  0  0  0  0  0  0  0  0
  -29.9911  -24.3873   17.4467 C   0  0  0  0  0  0  0  0  0  0  0  0
  -29.8002  -17.9358   20.9426 C   0  0  0  0  0  0  0  0  0  0  0  0
  -23.5222  -13.2019   22.2833 C   0  0  0  0  0  0  0  0  0  0  0  0
  -22.1657  -12.9564   22.2429 C   0  0  0  0  0  0  0  0  0  0  0  0
  -30.5835  -16.2656   22.1392 C   0  0  0  0  0  0  0  0  0  0  0  0
  -22.8101  -15.1823   22.9006 C   0  0  0  0  0  0  0  0  0  0  0  0
  -31.3717  -18.5143   22.8947 C   0  0  0  0  0  0  0  0  0  0  0  0
  -22.9953  -26.1751   23.5106 C   0  0  0  0  0  0  0  0  0  0  0  0
  -25.9534  -26.8740   24.6435 C   0  0  0  0  0  0  0  0  0  0  0  0
  -23.7846  -17.4098   23.5505 C   0  0  0  0  0  0  0  0  0  0  0  0
  -28.8956  -25.7449   25.9530 C   0  0  0  0  0  0  0  0  0  0  0  0
  -26.5464  -12.1850   20.4358 C   0  0  0  0  0  0  0  0  0  0  0  0
  -18.6467  -28.6916   22.6077 C   0  0  0  0  0  0  0  0  0  0  0  0
  -22.9862  -24.9645   25.7220 C   0  0  0  0  0  0  0  0  0  0  0  0
  -25.4631  -24.4403   24.1938 C   0  0  0  0  0  0  0  0  0  0  0  0
  -20.1261  -29.0604   22.6831 C   0  0  0  0  0  0  0  0  0  0  0  0
  -29.9720  -12.3375   19.4771 C   0  0  0  0  0  0  0  0  0  0  0  0
  -20.9605  -28.0936   21.8489 C   0  0  0  0  0  0  0  0  0  0  0  0
  -30.3911  -13.7625   19.8430 C   0  0  0  0  0  0  0  0  0  0  0  0
  -28.5352  -12.2865   18.9623 C   0  0  0  0  0  0  0  0  0  0  0  0
  -27.9538  -14.3228   20.2230 C   0  0  0  0  0  0  0  0  0  0  0  0
  -20.8343  -26.6592   22.3763 C   0  0  1  0  0  0  0  0  0  0  0  0
  -23.6411  -26.0399   24.8605 C   0  0  1  0  0  0  0  0  0  0  0  0
  -29.3767  -14.4170   20.8000 C   0  0  2  0  0  0  0  0  0  0  0  0
  -25.0592  -11.4157   23.1827 C   0  0  0  0  0  0  0  0  0  0  0  0
  -31.1381  -26.5491   26.7418 C   0  0  0  0  0  0  0  0  0  0  0  0
  -26.8423  -27.2292   21.7463 C   0  0  0  0  0  0  0  0  0  0  0  0
  -29.2158  -27.0839   22.5298 C   0  0  0  0  0  0  0  0  0  0  0  0
  -27.7502  -28.9360   23.3328 C   0  0  0  0  0  0  0  0  0  0  0  0
  -28.4247  -24.7311   28.6934 C   0  0  0  0  0  0  0  0  0  0  0  0
  -23.2643  -18.7702   23.9761 C   0  0  0  0  0  0  0  0  0  1  0  0
  -24.5911  -12.2339   21.9634 C   0  0  2  0  0  0  0  0  0  0  0  0
  -27.3657  -26.5896   24.1924 C   0  0  1  0  0  0  0  0  0  0  0  0
  -29.7117  -26.2099   27.1456 C   0  0  2  0  0  0  0  0  0  0  0  0
  -21.1060  -11.6468   20.3951 C   0  0  0  0  0  0  0  0  0  0  0  0
  -21.4319  -11.7255   21.8873 C   0  0  0  0  0  0  0  0  0  0  0  0
  -27.7751  -27.4387   22.9559 C   0  0  0  0  0  0  0  0  0  0  0  0
  -29.2682  -16.8455   20.3838 N   0  0  0  0  0  0  0  0  0  0  0  0
  -23.8936  -14.4779   22.6598 N   0  0  0  0  0  0  0  0  0  0  0  0
  -29.7634  -15.8461   21.1335 N   0  0  0  0  0  0  0  0  0  0  0  0
  -25.0652  -25.7892   24.6293 N   0  0  0  0  0  0  0  0  0  0  0  0
  -27.6235  -12.9222   19.9167 N   0  0  0  0  0  0  0  0  0  0  0  0
  -31.1660  -15.3917   22.9873 N   0  0  0  0  0  0  0  0  0  0  0  0
  -31.3063  -19.8933   22.6533 N   0  0  0  0  0  0  0  0  0  0  0  0
  -22.7310  -16.5339   23.3120 N   0  0  0  0  0  0  0  0  0  0  0  0
  -21.6489  -26.4822   23.5593 N   0  0  0  0  0  0  0  0  0  0  0  0
  -28.2154  -26.7883   25.3615 N   0  0  0  0  0  0  0  0  0  0  0  0
  -25.7348  -12.8606   21.3389 N   0  0  0  0  0  0  0  0  0  0  0  0
  -29.7587  -25.1457   28.1878 N   0  3  0  0  0  0  0  0  0  0  0  0
  -32.0863  -18.0886   23.8338 O   0  0  0  0  0  0  0  0  0  0  0  0
  -23.6689  -26.0143   22.4997 O   0  0  0  0  0  0  0  0  0  0  0  0
  -25.6513  -28.0149   25.0022 O   0  0  0  0  0  0  0  0  0  0  0  0
  -24.9861  -17.1837   23.4516 O   0  0  0  0  0  0  0  0  0  0  0  0
  -28.8676  -24.5738   25.5810 O   0  0  0  0  0  0  0  0  0  0  0  0
  -26.3277  -11.0100   20.1221 O   0  0  0  0  0  0  0  0  0  0  0  0
  -28.6382  -23.0003   18.8766 O   0  0  0  0  0  0  0  0  0  0  0  0
  -24.3417  -19.6779   24.2033 O   0  0  0  0  0  0  0  0  0  1  0  0
  -32.8255  -26.5293   18.2311 F   0  0  0  0  0  0  0  0  0  0  0  0
  -29.2653  -24.0162   16.3832 F   0  0  0  0  0  0  0  0  0  0  0  0
  -20.4544  -10.4881   20.1182 F   0  0  0  0  0  0  0  0  0  0  0  0
  -22.2547  -11.6246   19.6752 F   0  0  0  0  0  0  0  0  0  0  0  0
  -20.2325  -11.5973   22.5531 F   0  0  0  0  0  0  0  0  0  0  0  0
  -22.1082  -10.5674   22.2012 F   0  0  0  0  0  0  0  0  0  0  0  0
  -21.3110  -14.3729   22.6947 S   0  0  0  0  0  0  0  0  0  0  0  0
  1  2  1  0  0  0  0
  1  5  2  0  0  0  0
  2  6  2  0  0  0  0
  3  8  2  0  0  0  0
  3 15  1  0  0  0  0
  4  9  1  0  0  0  0
  4 15  2  0  0  0  0
  5 17  1  0  0  0  0
  6 19  1  0  0  0  0
  7 10  2  0  0  0  0
  7 18  1  0  0  0  0
  8 21  1  0  0  0  0
  9 21  2  0  0  0  0
 10 22  1  0  0  0  0
 11 12  2  0  0  0  0
 11 23  1  0  0  0  0
 12 24  1  0  0  0  0
 13 20  1  0  0  0  0
 13 22  2  0  0  0  0
 14 24  2  0  0  0  0
 14 25  1  0  0  0  0
 15 26  1  0  0  0  0
 16 26  1  0  0  0  0
 16 29  2  0  0  0  0
 16 31  1  0  0  0  0
 17 19  2  0  0  0  0
 17 37  1  0  0  0  0
 18 20  2  0  0  0  0
 18 38  1  0  0  0  0
 19 46  1  0  0  0  0
 20 39  1  0  0  0  0
 21 80  1  0  0  0  0
 22 81  1  0  0  0  0
 23 25  2  0  0  0  0
 23 80  1  0  0  0  0
 24 82  1  0  0  0  0
 25 83  1  0  0  0  0
 26 62  2  0  0  0  0
 27 28  2  0  0  0  0
 27 56  1  0  0  0  0
 27 63  1  0  0  0  0
 28 60  1  0  0  0  0
 28 88  1  0  0  0  0
 29 64  1  0  0  0  0
 29 67  1  0  0  0  0
 30 63  2  0  0  0  0
 30 69  1  0  0  0  0
 30 88  1  0  0  0  0
 31 68  1  0  0  0  0
 31 74  2  0  0  0  0
 32 47  1  0  0  0  0
 32 70  1  0  0  0  0
 32 75  2  0  0  0  0
 33 57  1  0  0  0  0
 33 65  1  0  0  0  0
 33 76  2  0  0  0  0
 34 55  1  0  0  0  0
 34 69  1  0  0  0  0
 34 77  2  0  0  0  0
 35 58  1  0  0  0  0
 35 71  1  0  0  0  0
 35 78  2  0  0  0  0
 36 66  1  0  0  0  0
 36 72  1  0  0  0  0
 36 79  2  0  0  0  0
 37 40  1  0  0  0  0
 38 47  1  0  0  0  0
 39 65  1  0  0  0  0
 40 42  1  0  0  0  0
 41 43  1  0  0  0  0
 41 44  1  0  0  0  0
 42 46  1  0  0  0  0
 43 48  1  0  0  0  0
 44 66  1  0  0  0  0
 45 48  1  0  0  0  0
 45 66  1  0  0  0  0
 46 70  1  0  0  0  0
 47 65  1  0  0  0  0
 48 64  1  0  0  0  0
 49 56  1  0  0  0  0
 50 58  1  0  0  0  0
 51 61  1  0  0  0  0
 52 61  1  0  0  0  0
 53 61  1  0  0  0  0
 54 73  1  0  0  0  0
 55 81  1  0  0  0  0
 56 72  1  0  0  0  0
 57 61  1  0  0  0  0
 57 71  1  0  0  0  0
 58 73  1  0  0  0  0
 59 60  1  0  0  0  0
 59 84  1  0  0  0  0
 59 85  1  0  0  0  0
 60 86  1  0  0  0  0
 60 87  1  0  0  0  0
 62 64  1  0  0  0  0
M  CHG  1  73   1
M  ISO  4  36 100  55 101  72 100  81 101
M  END
> <Batch ID>
0185

> <Smiles>
CNC(C)C(=O)NC(C(=O)N1Cc2cc([101O:1][101CH2:1]C(=O)Nc3nc(C(C)[100NH:0][100C:0](=O)N4CCCC(n5nc(-c6ccc(Oc7ccc(F)cc7F)cc6)c(C(N)=O)c5N)C4)c(C(F)(F)C(F)F)s3)ccc2CC1C(=O)NC1CCCc2ccccc21)C(C)(C)C

> <Shape>
0.236

> <Color>
0.055

> <Negative vol penalty>
0.000

$$$$

  -OEChem-04052305053D

 85 93  0     1  0  0  0  0  0999 V2000
  -17.7908  -27.0426   23.0434 C   0  0  0  0  0  0  0  0  0  0  0  0
  -18.5893  -26.6107   21.9892 C   0  0  0  0  0  0  0  0  0  0  0  0
  -24.3031   -8.9672   20.3623 C   0  0  0  0  0  0  0  0  0  0  0  0
  -22.7886  -10.6759   21.1521 C   0  0  0  0  0  0  0  0  0  0  0  0
  -18.0662  -28.2554   23.6736 C   0  0  0  0  0  0  0  0  0  0  0  0
  -19.6630  -27.3921   21.5638 C   0  0  0  0  0  0  0  0  0  0  0  0
  -23.8579  -24.6663   20.7775 C   0  0  0  0  0  0  0  0  0  0  0  0
  -23.4292   -7.9811   20.8202 C   0  0  0  0  0  0  0  0  0  0  0  0
  -21.9148   -9.6898   21.6099 C   0  0  0  0  0  0  0  0  0  0  0  0
  -23.9295  -23.9355   19.5924 C   0  0  0  0  0  0  0  0  0  0  0  0
  -22.6273   -6.5385   23.7698 C   0  0  0  0  0  0  0  0  0  0  0  0
  -23.1740   -5.4644   24.4719 C   0  0  0  0  0  0  0  0  0  0  0  0
  -25.3113  -25.6577   18.6210 C   0  0  0  0  0  0  0  0  0  0  0  0
  -22.3132   -3.9388   22.8079 C   0  0  0  0  0  0  0  0  0  0  0  0
  -23.9828  -10.3146   20.5283 C   0  0  0  0  0  0  0  0  0  0  0  0
  -24.8984  -11.9340   18.7828 C   0  0  0  0  0  0  0  0  0  0  0  0
  -19.1497  -29.0474   23.2620 C   0  0  0  0  0  0  0  0  0  0  0  0
  -24.5045  -25.9055   20.8898 C   0  0  0  0  0  0  0  0  0  0  0  0
  -19.9524  -28.6173   22.1882 C   0  0  0  0  0  0  0  0  0  0  0  0
  -25.2485  -26.4011   19.8095 C   0  0  0  0  0  0  0  0  0  0  0  0
  -22.2351   -8.3424   21.4439 C   0  0  0  0  0  0  0  0  0  0  0  0
  -24.6539  -24.4325   18.5129 C   0  0  0  0  0  0  0  0  0  0  0  0
  -21.9235   -6.3129   22.5868 C   0  0  0  0  0  0  0  0  0  0  0  0
  -23.0170   -4.1645   23.9909 C   0  0  0  0  0  0  0  0  0  0  0  0
  -21.7665   -5.0130   22.1059 C   0  0  0  0  0  0  0  0  0  0  0  0
  -24.8853  -11.3337   20.0561 C   0  0  0  0  0  0  0  0  0  0  0  0
  -29.0305  -20.6585   19.3226 C   0  0  0  0  0  0  0  0  0  0  0  0
  -25.9372  -12.8309   18.8368 C   0  0  0  0  0  0  0  0  0  0  0  0
  -27.9573  -20.6177   18.4574 C   0  0  0  0  0  0  0  0  0  0  0  0
  -28.2420  -18.6861   19.8681 C   0  0  0  0  0  0  0  0  0  0  0  0
  -24.0476  -11.7018   17.6524 C   0  0  0  0  0  0  0  0  0  0  0  0
  -23.5518  -28.8947   21.4005 C   0  0  0  0  0  0  0  0  0  0  0  0
  -26.7405  -29.4770   21.5245 C   0  0  0  0  0  0  0  0  0  0  0  0
  -26.3630  -21.3860   16.6660 C   0  0  0  0  0  0  0  0  0  0  0  0
  -29.8963  -28.5224   20.6434 C   0  0  0  0  0  0  0  0  0  0  0  0
  -28.7969  -16.8196   21.4665 C   0  0  0  0  0  0  0  0  0  0  0  0
  -19.3795  -30.3734   23.9429 C   0  0  0  0  0  0  0  0  0  0  0  0
  -24.4397  -26.6690   22.1841 C   0  0  0  0  0  0  0  0  0  0  0  0
  -25.9776  -27.7168   19.8859 C   0  0  0  0  0  0  0  0  0  0  0  0
  -20.7622  -30.9631   23.6769 C   0  0  0  0  0  0  0  0  0  0  0  0
  -29.5809  -13.4470   22.2959 C   0  0  0  0  0  0  0  0  0  0  0  0
  -21.1006  -30.8816   22.1917 C   0  0  0  0  0  0  0  0  0  0  0  0
  -28.4303  -12.6459   21.6824 C   0  0  0  0  0  0  0  0  0  0  0  0
  -29.1038  -14.7845   22.8590 C   0  0  0  0  0  0  0  0  0  0  0  0
  -27.1916  -14.8164   21.3061 C   0  0  0  0  0  0  0  0  0  0  0  0
  -21.1411  -29.4250   21.7142 C   0  0  1  0  0  0  0  0  0  0  0  0
  -24.7112  -28.1604   22.0123 C   0  0  1  0  0  0  0  0  0  0  0  0
  -27.6343  -13.4898   20.6675 C   0  0  2  0  0  0  0  0  0  0  0  0
  -31.4453  -21.3457   19.0983 C   0  0  0  0  0  0  0  0  0  0  0  0
  -29.9881  -22.4159   20.8551 C   0  0  0  0  0  0  0  0  0  0  0  0
  -32.4048  -28.5496   20.5800 C   0  0  0  0  0  0  0  0  0  0  0  0
  -26.3021  -31.6333   19.4108 C   0  0  0  0  0  0  0  0  0  0  0  0
  -28.7693  -31.6201   18.9858 C   0  0  0  0  0  0  0  0  0  0  0  0
  -27.8958  -32.2658   21.2314 C   0  0  0  0  0  0  0  0  0  0  0  0
  -30.0910  -26.7678   23.0188 C   0  0  0  0  0  0  0  0  0  0  0  0
  -25.9077  -23.8733   16.5709 C   0  0  0  0  0  0  0  0  0  1  0  0
  -30.0003  -21.7654   19.4528 C   0  0  0  0  0  0  0  0  0  0  0  0
  -27.8004  -29.8434   20.5140 C   0  0  1  0  0  0  0  0  0  0  0  0
  -26.1786  -22.6045   15.7693 C   0  0  2  0  0  0  0  0  0  0  0  0
  -31.1718  -28.3885   21.4556 C   0  0  2  0  0  0  0  0  0  0  0  0
  -27.6767  -31.3168   20.0331 C   0  0  0  0  0  0  0  0  0  0  0  0
  -25.8401  -11.8090   20.8601 N   0  0  0  0  0  0  0  0  0  0  0  0
  -29.1951  -19.5519   20.1326 N   0  0  0  0  0  0  0  0  0  0  0  0
  -26.4630  -12.7175   20.0901 N   0  0  0  0  0  0  0  0  0  0  0  0
  -25.8788  -28.4291   21.1706 N   0  0  0  0  0  0  0  0  0  0  0  0
  -28.3616  -15.5307   21.8406 N   0  0  0  0  0  0  0  0  0  0  0  0
  -26.4432  -13.6976   17.9338 N   0  0  0  0  0  0  0  0  0  0  0  0
  -23.0297  -10.7453   17.7677 N   0  0  0  0  0  0  0  0  0  0  0  0
  -27.4711  -21.5339   17.4948 N   0  0  0  0  0  0  0  0  0  0  0  0
  -28.0322  -17.4187   20.4660 N   0  0  0  0  0  0  0  0  0  0  0  0
  -22.3777  -28.7936   22.1223 N   0  0  0  0  0  0  0  0  0  0  0  0
  -29.0822  -29.5223   21.1322 N   0  0  0  0  0  0  0  0  0  0  0  0
  -25.0503  -22.3852   14.8186 N   0  3  0  0  0  0  0  0  0  0  0  0
  -31.2314  -27.0508   22.1097 N   0  3  0  0  0  0  0  0  0  0  0  0
  -24.1963  -12.3122   16.5667 O   0  0  0  0  0  0  0  0  0  0  0  0
  -23.7109  -29.5088   20.3521 O   0  0  0  0  0  0  0  0  0  0  0  0
  -26.6838  -30.0930   22.5917 O   0  0  0  0  0  0  0  0  0  0  0  0
  -25.5955  -20.4293   16.6152 O   0  0  0  0  0  0  0  0  0  0  0  0
  -29.6487  -27.8137   19.6704 O   0  0  0  0  0  0  0  0  0  0  0  0
  -29.7921  -17.3416   21.9755 O   0  0  0  0  0  0  0  0  0  0  0  0
  -21.3820   -7.3804   21.8906 O   0  0  0  0  0  0  0  0  0  0  0  0
  -24.7249  -23.7216   17.3547 O   0  0  0  0  0  0  0  0  0  1  0  0
  -23.5434   -3.1332   24.6643 F   0  0  0  0  0  0  0  0  0  0  0  0
  -21.0924   -4.7901   20.9693 F   0  0  0  0  0  0  0  0  0  0  0  0
  -27.1141  -19.1375   18.6561 S   0  0  0  0  0  0  0  0  0  0  0  0
  1  2  1  0  0  0  0
  1  5  2  0  0  0  0
  2  6  2  0  0  0  0
  3  8  2  0  0  0  0
  3 15  1  0  0  0  0
  4  9  1  0  0  0  0
  4 15  2  0  0  0  0
  5 17  1  0  0  0  0
  6 19  1  0  0  0  0
  7 10  2  0  0  0  0
  7 18  1  0  0  0  0
  8 21  1  0  0  0  0
  9 21  2  0  0  0  0
 10 22  1  0  0  0  0
 11 12  2  0  0  0  0
 11 23  1  0  0  0  0
 12 24  1  0  0  0  0
 13 20  1  0  0  0  0
 13 22  2  0  0  0  0
 14 24  2  0  0  0  0
 14 25  1  0  0  0  0
 15 26  1  0  0  0  0
 16 26  1  0  0  0  0
 16 28  2  0  0  0  0
 16 31  1  0  0  0  0
 17 19  2  0  0  0  0
 17 37  1  0  0  0  0
 18 20  2  0  0  0  0
 18 38  1  0  0  0  0
 19 46  1  0  0  0  0
 20 39  1  0  0  0  0
 21 81  1  0  0  0  0
 22 82  1  0  0  0  0
 23 25  2  0  0  0  0
 23 81  1  0  0  0  0
 24 83  1  0  0  0  0
 25 84  1  0  0  0  0
 26 62  2  0  0  0  0
 27 29  2  0  0  0  0
 27 57  1  0  0  0  0
 27 63  1  0  0  0  0
 28 64  1  0  0  0  0
 28 67  1  0  0  0  0
 29 69  1  0  0  0  0
 29 85  1  0  0  0  0
 30 63  2  0  0  0  0
 30 70  1  0  0  0  0
 30 85  1  0  0  0  0
 31 68  1  0  0  0  0
 31 75  2  0  0  0  0
 32 47  1  0  0  0  0
 32 71  1  0  0  0  0
 32 76  2  0  0  0  0
 33 58  1  0  0  0  0
 33 65  1  0  0  0  0
 33 77  2  0  0  0  0
 34 59  1  0  0  0  0
 34 69  1  0  0  0  0
 34 78  2  0  0  0  0
 35 60  1  0  0  0  0
 35 72  1  0  0  0  0
 35 79  2  0  0  0  0
 36 66  1  0  0  0  0
 36 70  1  0  0  0  0
 36 80  2  0  0  0  0
 37 40  1  0  0  0  0
 38 47  1  0  0  0  0
 39 65  1  0  0  0  0
 40 42  1  0  0  0  0
 41 43  1  0  0  0  0
 41 44  1  0  0  0  0
 42 46  1  0  0  0  0
 43 48  1  0  0  0  0
 44 66  1  0  0  0  0
 45 48  1  0  0  0  0
 45 66  1  0  0  0  0
 46 71  1  0  0  0  0
 47 65  1  0  0  0  0
 48 64  1  0  0  0  0
 49 57  1  0  0  0  0
 50 57  1  0  0  0  0
 51 60  1  0  0  0  0
 52 61  1  0  0  0  0
 53 61  1  0  0  0  0
 54 61  1  0  0  0  0
 55 74  1  0  0  0  0
 56 59  1  0  0  0  0
 56 82  1  0  0  0  0
 58 61  1  0  0  0  0
 58 72  1  0  0  0  0
 59 73  1  0  0  0  0
 60 74  1  0  0  0  0
 62 64  1  0  0  0  0
M  CHG  2  73   1  74   1
M  ISO  4  36 100  56 101  70 100  82 101
M  END
> <Batch ID>
0185

> <Smiles>
CNC(C)C(=O)NC(C(=O)N1Cc2cc([101O:1][101CH2:1]C(N)C(=O)Nc3sc([100NH:0][100C:0](=O)N4CCCC(n5nc(-c6ccc(Oc7ccc(F)cc7F)cc6)c(C(N)=O)c5N)C4)nc3C(C)C)ccc2CC1C(=O)NC1CCCc2ccccc21)C(C)(C)C

> <Shape>
0.288

> <Color>
0.087

> <Negative vol penalty>
0.000

$$$$

  -OEChem-04052305053D

 90 98  0     1  0  0  0  0  0999 V2000
  -20.2960  -18.7020   16.2320 C   0  0  0  0  0  0  0  0  0  0  0  0
  -20.9973  -17.5293   16.4891 C   0  0  0  0  0  0  0  0  0  0  0  0
  -23.9947  -29.3423   24.4039 C   0  0  0  0  0  0  0  0  0  0  0  0
  -24.6522  -29.7153   22.1092 C   0  0  0  0  0  0  0  0  0  0  0  0
  -20.3946  -19.7761   17.1139 C   0  0  0  0  0  0  0  0  0  0  0  0
  -21.7878  -17.4262   17.6342 C   0  0  0  0  0  0  0  0  0  0  0  0
  -25.4715  -12.9516   19.5146 C   0  0  0  0  0  0  0  0  0  0  0  0
  -24.4291  -30.6253   24.7369 C   0  0  0  0  0  0  0  0  0  0  0  0
  -25.0865  -30.9983   22.4422 C   0  0  0  0  0  0  0  0  0  0  0  0
  -26.8171  -12.6073   19.3940 C   0  0  0  0  0  0  0  0  0  0  0  0
  -23.6992  -34.0277   23.0063 C   0  0  0  0  0  0  0  0  0  0  0  0
  -23.3419  -35.0728   22.1544 C   0  0  0  0  0  0  0  0  0  0  0  0
  -27.2640  -13.6291   21.5330 C   0  0  0  0  0  0  0  0  0  0  0  0
  -25.6773  -35.5496   21.7598 C   0  0  0  0  0  0  0  0  0  0  0  0
  -30.3395  -18.8771   20.1084 C   0  0  0  0  0  0  0  0  0  0  0  0
  -24.1063  -28.8873   23.0900 C   0  0  0  0  0  0  0  0  0  0  0  0
  -22.3721  -27.1843   22.3154 C   0  0  0  0  0  0  0  0  0  0  0  0
  -21.1968  -19.6897   18.2636 C   0  0  0  0  0  0  0  0  0  0  0  0
  -25.0133  -13.6479   20.6422 C   0  0  0  0  0  0  0  0  0  0  0  0
  -21.8813  -18.4907   18.5488 C   0  0  0  0  0  0  0  0  0  0  0  0
  -25.9116  -13.9788   21.6667 C   0  0  0  0  0  0  0  0  0  0  0  0
  -24.9750  -31.4533   23.7561 C   0  0  0  0  0  0  0  0  0  0  0  0
  -27.7142  -12.9486   20.4019 C   0  0  0  0  0  0  0  0  0  0  0  0
  -25.0456  -33.7437   23.2351 C   0  0  0  0  0  0  0  0  0  0  0  0
  -24.3309  -35.8337   21.5311 C   0  0  0  0  0  0  0  0  0  0  0  0
  -26.0346  -34.5046   22.6118 C   0  0  0  0  0  0  0  0  0  0  0  0
  -23.6583  -27.5619   22.7455 C   0  0  0  0  0  0  0  0  0  0  0  0
  -29.0861  -19.2706   19.6888 C   0  0  0  0  0  0  0  0  0  0  0  0
  -22.4602  -25.8277   22.1193 C   0  0  0  0  0  0  0  0  0  0  0  0
  -29.5443  -16.9096   19.5547 C   0  0  0  0  0  0  0  0  0  0  0  0
  -21.2024  -27.9879   22.1114 C   0  0  0  0  0  0  0  0  0  0  0  0
  -23.6579  -16.4812   21.1312 C   0  0  0  0  0  0  0  0  0  0  0  0
  -23.3974  -15.3954   24.1767 C   0  0  0  0  0  0  0  0  0  0  0  0
  -27.1239  -22.3701   20.8664 C   0  0  0  0  0  0  0  0  0  0  0  0
  -24.5408  -13.2950   26.6115 C   0  0  0  0  0  0  0  0  0  0  0  0
  -30.3080  -14.5105   19.5333 C   0  0  0  0  0  0  0  0  0  0  0  0
  -29.7486  -21.9840   17.9984 C   0  0  0  0  0  0  0  0  0  0  0  0
  -21.2612  -20.8798   19.1882 C   0  0  0  0  0  0  0  0  0  0  0  0
  -23.5537  -13.9884   20.7695 C   0  0  0  0  0  0  0  0  0  0  0  0
  -25.4664  -14.7084   22.9068 C   0  0  0  0  0  0  0  0  0  0  0  0
  -22.4609  -20.8374   20.1291 C   0  0  0  0  0  0  0  0  0  0  0  0
  -24.8140  -21.9606   23.6455 C   0  0  0  0  0  0  0  0  0  0  0  0
  -22.5432  -19.4771   20.8053 C   0  0  0  0  0  0  0  0  0  0  0  0
  -24.1574  -23.3393   23.7029 C   0  0  0  0  0  0  0  0  0  0  0  0
  -26.2839  -22.0551   23.2448 C   0  0  0  0  0  0  0  0  0  0  0  0
  -25.8565  -24.1588   22.0134 C   0  0  0  0  0  0  0  0  0  0  0  0
  -22.7715  -18.3665   19.7721 C   0  0  1  0  0  0  0  0  0  0  0  0
  -23.2921  -15.1497   21.7236 C   0  0  1  0  0  0  0  0  0  0  0  0
  -24.3651  -24.1048   22.3843 C   0  0  2  0  0  0  0  0  0  0  0  0
  -24.1534  -12.6624   29.0088 C   0  0  0  0  0  0  0  0  0  0  0  0
  -30.8317  -12.1687   18.7579 C   0  0  0  0  0  0  0  0  0  0  0  0
  -32.1211  -22.6700   18.5190 C   0  0  0  0  0  0  0  0  0  0  0  0
  -31.0636  -23.3803   16.3712 C   0  0  0  0  0  0  0  0  0  0  0  0
  -30.2851  -24.3946   18.5166 C   0  0  0  0  0  0  0  0  0  0  0  0
  -24.7993  -17.9522   25.0754 C   0  0  0  0  0  0  0  0  0  0  0  0
  -25.2299  -16.8566   27.2851 C   0  0  0  0  0  0  0  0  0  0  0  0
  -22.8865  -17.2468   26.5240 C   0  0  0  0  0  0  0  0  0  0  0  0
  -23.8783  -10.5026   25.8886 C   0  0  0  0  0  0  0  0  0  0  0  0
  -28.4856  -20.6177   19.6407 C   0  0  1  0  0  0  0  0  0  0  0  0
  -24.2687  -15.4475   25.4085 C   0  0  1  0  0  0  0  0  0  0  0  0
  -27.7398  -20.9959   20.9444 C   0  0  1  0  0  0  0  0  0  0  0  0
  -23.8115  -12.3590   27.5583 C   0  0  2  0  0  0  0  0  0  0  0  0
  -29.7369  -13.1432   19.1663 C   0  0  1  0  0  0  0  0  0  1  0  0
  -30.8015  -23.1040   17.8628 C   0  0  0  0  0  0  0  0  0  0  0  0
  -24.3052  -16.8638   26.0491 C   0  0  0  0  0  0  0  0  0  0  0  0
  -30.6040  -17.5235   20.0326 N   0  0  0  0  0  0  0  0  0  0  0  0
  -24.5016  -26.5286   22.8187 N   0  0  0  0  0  0  0  0  0  0  0  0
  -23.7437  -25.4884   22.4320 N   0  0  0  0  0  0  0  0  0  0  0  0
  -24.0305  -15.0249   22.9819 N   0  0  0  0  0  0  0  0  0  0  0  0
  -26.4415  -22.8149   21.9989 N   0  0  0  0  0  0  0  0  0  0  0  0
  -21.5642  -24.9039   21.7116 N   0  0  0  0  0  0  0  0  0  0  0  0
  -21.2860  -29.3647   22.3599 N   0  0  0  0  0  0  0  0  0  0  0  0
  -29.3810  -15.5244   19.3149 N   0  0  0  0  0  0  0  0  0  0  0  0
  -22.6351  -17.0817   20.4222 N   0  0  0  0  0  0  0  0  0  0  0  0
  -29.4602  -21.6536   19.3049 N   0  0  0  0  0  0  0  0  0  0  0  0
  -23.7790  -14.4011   26.2994 N   0  0  0  0  0  0  0  0  0  0  0  0
  -24.1815  -10.9436   27.2745 N   0  3  0  0  0  0  0  0  0  0  0  0
  -20.1108  -27.4970   21.7360 O   0  0  0  0  0  0  0  0  0  0  0  0
  -24.7843  -16.9312   21.3058 O   0  0  0  0  0  0  0  0  0  0  0  0
  -22.1979  -15.6664   24.2726 O   0  0  0  0  0  0  0  0  0  0  0  0
  -27.2445  -23.0258   19.8283 O   0  0  0  0  0  0  0  0  0  0  0  0
  -25.6744  -13.0695   26.1937 O   0  0  0  0  0  0  0  0  0  0  0  0
  -31.4468  -14.6263   19.9769 O   0  0  0  0  0  0  0  0  0  0  0  0
  -29.2263  -21.4518   17.0185 O   0  0  0  0  0  0  0  0  0  0  0  0
  -25.3987  -32.7054   24.0806 O   0  0  0  0  0  0  0  0  0  0  0  0
  -29.0282  -12.6144   20.2864 O   0  0  0  0  0  0  0  0  0  1  0  0
  -23.9876  -36.8362   20.7118 F   0  0  0  0  0  0  0  0  0  0  0  0
  -27.3297  -34.2357   22.8268 F   0  0  0  0  0  0  0  0  0  0  0  0
  -28.6022  -20.9277   21.9941 F   0  0  0  0  0  0  0  0  0  0  0  0
  -28.1945  -17.8987   19.1746 S   0  0  0  0  0  0  0  0  0  0  0  0
  1  2  1  0  0  0  0
  1  5  2  0  0  0  0
  2  6  2  0  0  0  0
  3  8  2  0  0  0  0
  3 16  1  0  0  0  0
  4  9  1  0  0  0  0
  4 16  2  0  0  0  0
  5 18  1  0  0  0  0
  6 20  1  0  0  0  0
  7 10  2  0  0  0  0
  7 19  1  0  0  0  0
  8 22  1  0  0  0  0
  9 22  2  0  0  0  0
 10 23  1  0  0  0  0
 11 12  2  0  0  0  0
 11 24  1  0  0  0  0
 12 25  1  0  0  0  0
 13 21  1  0  0  0  0
 13 23  2  0  0  0  0
 14 25  2  0  0  0  0
 14 26  1  0  0  0  0
 15 28  2  0  0  0  0
 15 66  1  0  0  0  0
 16 27  1  0  0  0  0
 17 27  1  0  0  0  0
 17 29  2  0  0  0  0
 17 31  1  0  0  0  0
 18 20  2  0  0  0  0
 18 38  1  0  0  0  0
 19 21  2  0  0  0  0
 19 39  1  0  0  0  0
 20 47  1  0  0  0  0
 21 40  1  0  0  0  0
 22 85  1  0  0  0  0
 23 86  1  0  0  0  0
 24 26  2  0  0  0  0
 24 85  1  0  0  0  0
 25 87  1  0  0  0  0
 26 88  1  0  0  0  0
 27 67  2  0  0  0  0
 28 59  1  0  0  0  0
 28 90  1  0  0  0  0
 29 68  1  0  0  0  0
 29 71  1  0  0  0  0
 30 66  2  0  0  0  0
 30 73  1  0  0  0  0
 30 90  1  0  0  0  0
 31 72  1  0  0  0  0
 31 78  2  0  0  0  0
 32 48  1  0  0  0  0
 32 74  1  0  0  0  0
 32 79  2  0  0  0  0
 33 60  1  0  0  0  0
 33 69  1  0  0  0  0
 33 80  2  0  0  0  0
 34 61  1  0  0  0  0
 34 70  1  0  0  0  0
 34 81  2  0  0  0  0
 35 62  1  0  0  0  0
 35 76  1  0  0  0  0
 35 82  2  0  0  0  0
 36 63  1  0  0  0  0
 36 73  1  0  0  0  0
 36 83  2  0  0  0  0
 37 64  1  0  0  0  0
 37 75  1  0  0  0  0
 37 84  2  0  0  0  0
 38 41  1  0  0  0  0
 39 48  1  0  0  0  0
 40 69  1  0  0  0  0
 41 43  1  0  0  0  0
 42 44  1  0  0  0  0
 42 45  1  0  0  0  0
 43 47  1  0  0  0  0
 44 49  1  0  0  0  0
 45 70  1  0  0  0  0
 46 49  1  0  0  0  0
 46 70  1  0  0  0  0
 47 74  1  0  0  0  0
 48 69  1  0  0  0  0
 49 68  1  0  0  0  0
 50 62  1  0  0  0  0
 51 63  1  0  0  0  0
 52 64  1  0  0  0  0
 53 64  1  0  0  0  0
 54 64  1  0  0  0  0
 55 65  1  0  0  0  0
 56 65  1  0  0  0  0
 57 65  1  0  0  0  0
 58 77  1  0  0  0  0
 59 61  1  0  0  0  0
 59 75  1  0  0  0  0
 60 65  1  0  0  0  0
 60 76  1  0  0  0  0
 61 89  1  0  0  0  0
 62 77  1  0  0  0  0
 63 86  1  0  0  0  0
 67 68  1  0  0  0  0
M  CHG  1  77   1
M  ISO  4  34 100  61 100  63 101  86 101
M  END
> <Batch ID>
0185

> <Smiles>
CNC(C)C(=O)NC(C(=O)N1Cc2cc([101O:1][101CH:1](C)C(=O)Nc3ncc(C(NC(=O)C(C)(C)C)[100CH:0](F)[100C:0](=O)N4CCCC(n5nc(-c6ccc(Oc7ccc(F)cc7F)cc6)c(C(N)=O)c5N)C4)s3)ccc2CC1C(=O)NC1CCCc2ccccc21)C(C)(C)C

> <Shape>
0.215

> <Color>
0.054

> <Negative vol penalty>
0.000

$$$$

  -OEChem-04052305053D

 81 89  0     1  0  0  0  0  0999 V2000
  -36.5154  -29.8374   17.7771 C   0  0  0  0  0  0  0  0  0  0  0  0
  -36.4805  -28.6148   18.4401 C   0  0  0  0  0  0  0  0  0  0  0  0
  -23.1021   -9.8526   19.8659 C   0  0  0  0  0  0  0  0  0  0  0  0
  -23.8976   -9.7462   22.1447 C   0  0  0  0  0  0  0  0  0  0  0  0
  -35.3286  -30.4315   17.3500 C   0  0  0  0  0  0  0  0  0  0  0  0
  -35.2586  -27.9862   18.6773 C   0  0  0  0  0  0  0  0  0  0  0  0
  -35.3861  -23.0334   17.6290 C   0  0  0  0  0  0  0  0  0  0  0  0
  -22.3956   -8.6653   20.0571 C   0  0  0  0  0  0  0  0  0  0  0  0
  -23.1910   -8.5589   22.3359 C   0  0  0  0  0  0  0  0  0  0  0  0
  -35.9896  -22.1990   18.5689 C   0  0  0  0  0  0  0  0  0  0  0  0
  -19.9969   -7.6319   22.9351 C   0  0  0  0  0  0  0  0  0  0  0  0
  -19.2600   -7.5004   24.1121 C   0  0  0  0  0  0  0  0  0  0  0  0
  -33.8144  -21.5875   19.4137 C   0  0  0  0  0  0  0  0  0  0  0  0
  -20.5678   -5.5602   24.7141 C   0  0  0  0  0  0  0  0  0  0  0  0
  -29.7032  -17.8114   23.0160 C   0  0  0  0  0  0  0  0  0  0  0  0
  -23.8532  -10.3931   20.9097 C   0  0  0  0  0  0  0  0  0  0  0  0
  -24.1207  -12.9299   20.9357 C   0  0  0  0  0  0  0  0  0  0  0  0
  -34.0923  -29.8052   17.5735 C   0  0  0  0  0  0  0  0  0  0  0  0
  -33.9903  -23.1597   17.5815 C   0  0  0  0  0  0  0  0  0  0  0  0
  -34.0541  -28.5732   18.2539 C   0  0  0  0  0  0  0  0  0  0  0  0
  -33.1956  -22.4222   18.4707 C   0  0  0  0  0  0  0  0  0  0  0  0
  -22.4400   -8.0184   21.2921 C   0  0  0  0  0  0  0  0  0  0  0  0
  -35.2039  -21.4781   19.4633 C   0  0  0  0  0  0  0  0  0  0  0  0
  -21.0192   -6.7275   22.6476 C   0  0  0  0  0  0  0  0  0  0  0  0
  -19.5454   -6.4646   25.0016 C   0  0  0  0  0  0  0  0  0  0  0  0
  -21.3047   -5.6917   23.5371 C   0  0  0  0  0  0  0  0  0  0  0  0
  -24.5837  -11.6193   20.7126 C   0  0  0  0  0  0  0  0  0  0  0  0
  -30.4240  -17.0236   22.1430 C   0  0  0  0  0  0  0  0  0  0  0  0
  -25.1851  -13.7314   20.6024 C   0  0  0  0  0  0  0  0  0  0  0  0
  -31.8524  -18.6744   22.3536 C   0  0  0  0  0  0  0  0  0  0  0  0
  -22.8428  -13.3823   21.4024 C   0  0  0  0  0  0  0  0  0  0  0  0
  -31.9398  -25.5549   17.9838 C   0  0  0  0  0  0  0  0  0  0  0  0
  -29.7669  -23.3373   17.0441 C   0  0  0  0  0  0  0  0  0  0  0  0
  -28.9352  -20.0410   16.7454 C   0  0  0  0  0  0  0  0  0  0  0  0
  -34.1267  -19.3155   21.4843 C   0  0  0  0  0  0  0  0  0  0  0  0
  -30.6212  -14.9258   20.7622 C   0  0  0  0  0  0  0  0  0  0  0  0
  -32.8324  -30.5088   17.1351 C   0  0  0  0  0  0  0  0  0  0  0  0
  -33.3537  -24.0435   16.5442 C   0  0  0  0  0  0  0  0  0  0  0  0
  -31.6920  -22.5070   18.4476 C   0  0  0  0  0  0  0  0  0  0  0  0
  -31.6086  -29.5972   17.0939 C   0  0  0  0  0  0  0  0  0  0  0  0
  -29.5391  -12.6243   18.2703 C   0  0  0  0  0  0  0  0  0  0  0  0
  -31.5245  -28.7587   18.3653 C   0  0  0  0  0  0  0  0  0  0  0  0
  -28.1154  -12.2655   18.7019 C   0  0  0  0  0  0  0  0  0  0  0  0
  -30.4661  -12.8086   19.4705 C   0  0  0  0  0  0  0  0  0  0  0  0
  -28.5612  -13.3935   20.9191 C   0  0  0  0  0  0  0  0  0  0  0  0
  -32.7502  -27.8483   18.5079 C   0  0  1  0  0  0  0  0  0  0  0  0
  -31.9452  -24.4906   16.9232 C   0  0  1  0  0  0  0  0  0  0  0  0
  -27.5753  -13.2616   19.7468 C   0  0  2  0  0  0  0  0  0  0  0  0
  -27.0773  -18.5401   15.9753 C   0  0  0  0  0  0  0  0  0  0  0  0
  -36.1191  -20.2356   22.7265 C   0  0  0  0  0  0  0  0  0  0  0  0
  -28.1976  -23.9827   19.5800 C   0  0  0  0  0  0  0  0  0  0  0  0
  -26.9194  -21.8558   19.2468 C   0  0  0  0  0  0  0  0  0  0  0  0
  -26.7923  -23.6665   17.5356 C   0  0  0  0  0  0  0  0  0  0  0  0
  -30.6506  -18.7788   14.6904 C   0  0  0  0  0  0  0  0  0  0  0  0
  -28.9149  -22.3096   17.7490 C   0  0  1  0  0  0  0  0  0  0  0  0
  -28.3655  -19.2471   15.5836 C   0  0  2  0  0  0  0  0  0  0  0  0
  -35.1041  -20.4802   21.6197 C   0  0  1  0  0  0  0  0  0  1  0  0
  -27.7344  -22.9533   18.5298 C   0  0  0  0  0  0  0  0  0  0  0  0
  -25.8440  -11.5857   20.2716 N   0  0  0  0  0  0  0  0  0  0  0  0
  -31.6564  -17.5170   21.7618 N   0  0  0  0  0  0  0  0  0  0  0  0
  -26.1820  -12.8852   20.2148 N   0  0  0  0  0  0  0  0  0  0  0  0
  -31.1169  -23.3895   17.4191 N   0  0  0  0  0  0  0  0  0  0  0  0
  -29.8918  -13.7688   20.4154 N   0  0  0  0  0  0  0  0  0  0  0  0
  -25.3562  -15.0705   20.6060 N   0  0  0  0  0  0  0  0  0  0  0  0
  -21.8627  -12.4253   21.6991 N   0  0  0  0  0  0  0  0  0  0  0  0
  -29.9606  -15.7813   21.6433 N   0  0  0  0  0  0  0  0  0  0  0  0
  -32.9798  -19.5228   22.2437 N   0  0  0  0  0  0  0  0  0  0  0  0
  -32.6308  -26.6998   17.6355 N   0  0  0  0  0  0  0  0  0  0  0  0
  -28.5044  -21.3507   16.7290 N   0  0  0  0  0  0  0  0  0  0  0  0
  -29.3451  -18.2207   15.1278 N   0  3  0  0  0  0  0  0  0  0  0  0
  -22.5724  -14.5999   21.5364 O   0  0  0  0  0  0  0  0  0  0  0  0
  -31.3509  -25.3531   19.0394 O   0  0  0  0  0  0  0  0  0  0  0  0
  -29.2552  -24.0620   16.1870 O   0  0  0  0  0  0  0  0  0  0  0  0
  -29.6842  -19.5476   17.5857 O   0  0  0  0  0  0  0  0  0  0  0  0
  -34.3783  -18.3540   20.7636 O   0  0  0  0  0  0  0  0  0  0  0  0
  -31.7375  -15.1551   20.2897 O   0  0  0  0  0  0  0  0  0  0  0  0
  -21.7504   -6.8599   21.4791 O   0  0  0  0  0  0  0  0  0  0  0  0
  -35.7904  -20.6634   20.3821 O   0  0  0  0  0  0  0  0  0  1  0  0
  -18.8387   -6.3394   26.1325 F   0  0  0  0  0  0  0  0  0  0  0  0
  -22.2864   -4.8205   23.2669 F   0  0  0  0  0  0  0  0  0  0  0  0
  -30.5960  -19.2291   23.3826 S   0  0  0  0  0  0  0  0  0  0  0  0
  1  2  1  0  0  0  0
  1  5  2  0  0  0  0
  2  6  2  0  0  0  0
  3  8  2  0  0  0  0
  3 16  1  0  0  0  0
  4  9  1  0  0  0  0
  4 16  2  0  0  0  0
  5 18  1  0  0  0  0
  6 20  1  0  0  0  0
  7 10  2  0  0  0  0
  7 19  1  0  0  0  0
  8 22  1  0  0  0  0
  9 22  2  0  0  0  0
 10 23  1  0  0  0  0
 11 12  2  0  0  0  0
 11 24  1  0  0  0  0
 12 25  1  0  0  0  0
 13 21  1  0  0  0  0
 13 23  2  0  0  0  0
 14 25  2  0  0  0  0
 14 26  1  0  0  0  0
 15 28  2  0  0  0  0
 15 81  1  0  0  0  0
 16 27  1  0  0  0  0
 17 27  1  0  0  0  0
 17 29  2  0  0  0  0
 17 31  1  0  0  0  0
 18 20  2  0  0  0  0
 18 37  1  0  0  0  0
 19 21  2  0  0  0  0
 19 38  1  0  0  0  0
 20 46  1  0  0  0  0
 21 39  1  0  0  0  0
 22 77  1  0  0  0  0
 23 78  1  0  0  0  0
 24 26  2  0  0  0  0
 24 77  1  0  0  0  0
 25 79  1  0  0  0  0
 26 80  1  0  0  0  0
 27 59  2  0  0  0  0
 28 60  1  0  0  0  0
 28 66  1  0  0  0  0
 29 61  1  0  0  0  0
 29 64  1  0  0  0  0
 30 60  2  0  0  0  0
 30 67  1  0  0  0  0
 30 81  1  0  0  0  0
 31 65  1  0  0  0  0
 31 71  2  0  0  0  0
 32 47  1  0  0  0  0
 32 68  1  0  0  0  0
 32 72  2  0  0  0  0
 33 55  1  0  0  0  0
 33 62  1  0  0  0  0
 33 73  2  0  0  0  0
 34 56  1  0  0  0  0
 34 69  1  0  0  0  0
 34 74  2  0  0  0  0
 35 57  1  0  0  0  0
 35 67  1  0  0  0  0
 35 75  2  0  0  0  0
 36 63  1  0  0  0  0
 36 66  1  0  0  0  0
 36 76  2  0  0  0  0
 37 40  1  0  0  0  0
 38 47  1  0  0  0  0
 39 62  1  0  0  0  0
 40 42  1  0  0  0  0
 41 43  1  0  0  0  0
 41 44  1  0  0  0  0
 42 46  1  0  0  0  0
 43 48  1  0  0  0  0
 44 63  1  0  0  0  0
 45 48  1  0  0  0  0
 45 63  1  0  0  0  0
 46 68  1  0  0  0  0
 47 62  1  0  0  0  0
 48 61  1  0  0  0  0
 49 56  1  0  0  0  0
 50 57  1  0  0  0  0
 51 58  1  0  0  0  0
 52 58  1  0  0  0  0
 53 58  1  0  0  0  0
 54 70  1  0  0  0  0
 55 58  1  0  0  0  0
 55 69  1  0  0  0  0
 56 70  1  0  0  0  0
 57 78  1  0  0  0  0
 59 61  1  0  0  0  0
M  CHG  1  70   1
M  ISO  4  36 100  57 101  66 100  78 101
M  END
> <Batch ID>
0185

> <Smiles>
CNC(C)C(=O)NC(C(=O)N1Cc2cc([101O:1][101CH:1](C)C(=O)Nc3nc([100NH:0][100C:0](=O)N4CCCC(n5nc(-c6ccc(Oc7ccc(F)cc7F)cc6)c(C(N)=O)c5N)C4)cs3)ccc2CC1C(=O)NC1CCCc2ccccc21)C(C)(C)C

> <Shape>
0.216

> <Color>
0.194

> <Negative vol penalty>
0.000

$$$$

  -OEChem-04052305053D

 84 92  0     1  0  0  0  0  0999 V2000
  -23.6687  -23.1710   19.1824 C   0  0  0  0  0  0  0  0  0  0  0  0
  -24.8957  -22.5174   19.1311 C   0  0  0  0  0  0  0  0  0  0  0  0
  -26.5494  -29.2389   19.4259 C   0  0  0  0  0  0  0  0  0  0  0  0
  -26.0701  -28.0819   21.4919 C   0  0  0  0  0  0  0  0  0  0  0  0
  -22.6461  -22.6694   19.9865 C   0  0  0  0  0  0  0  0  0  0  0  0
  -25.1012  -21.3624   19.8848 C   0  0  0  0  0  0  0  0  0  0  0  0
  -28.4966  -16.5082   18.3312 C   0  0  0  0  0  0  0  0  0  0  0  0
  -25.2546  -29.7576   19.4159 C   0  0  0  0  0  0  0  0  0  0  0  0
  -24.7753  -28.6006   21.4820 C   0  0  0  0  0  0  0  0  0  0  0  0
  -29.7958  -16.1270   18.6639 C   0  0  0  0  0  0  0  0  0  0  0  0
  -21.8462  -27.9588   19.9201 C   0  0  0  0  0  0  0  0  0  0  0  0
  -20.7965  -27.0867   20.2080 C   0  0  0  0  0  0  0  0  0  0  0  0
  -28.9273  -14.7271   20.4260 C   0  0  0  0  0  0  0  0  0  0  0  0
  -20.1781  -28.4556   22.1003 C   0  0  0  0  0  0  0  0  0  0  0  0
  -28.4747  -20.0092   22.4093 C   0  0  0  0  0  0  0  0  0  0  0  0
  -26.9571  -28.4010   20.4638 C   0  0  0  0  0  0  0  0  0  0  0  0
  -29.4367  -28.4400   21.0620 C   0  0  0  0  0  0  0  0  0  0  0  0
  -22.8360  -21.5022   20.7430 C   0  0  0  0  0  0  0  0  0  0  0  0
  -27.4019  -16.0092   19.0517 C   0  0  0  0  0  0  0  0  0  0  0  0
  -24.0807  -20.8454   20.7008 C   0  0  0  0  0  0  0  0  0  0  0  0
  -27.6151  -15.1014   20.0988 C   0  0  0  0  0  0  0  0  0  0  0  0
  -24.3676  -29.4385   20.4440 C   0  0  0  0  0  0  0  0  0  0  0  0
  -30.0115  -15.2386   19.7133 C   0  0  0  0  0  0  0  0  0  0  0  0
  -22.0620  -29.0794   20.7224 C   0  0  0  0  0  0  0  0  0  0  0  0
  -19.9623  -27.3351   21.2980 C   0  0  0  0  0  0  0  0  0  0  0  0
  -21.2279  -29.3278   21.8124 C   0  0  0  0  0  0  0  0  0  0  0  0
  -28.2943  -27.8644   20.4743 C   0  0  0  0  0  0  0  0  0  0  0  0
  -29.4870  -20.2366   21.5007 C   0  0  0  0  0  0  0  0  0  0  0  0
  -30.4461  -27.5470   20.7970 C   0  0  0  0  0  0  0  0  0  0  0  0
  -30.2128  -18.3431   22.3361 C   0  0  0  0  0  0  0  0  0  0  0  0
  -29.5732  -29.6718   21.7830 C   0  0  0  0  0  0  0  0  0  0  0  0
  -25.1214  -17.3032   20.8486 C   0  0  0  0  0  0  0  0  0  0  0  0
  -23.9619  -14.2737   20.8717 C   0  0  0  0  0  0  0  0  0  0  0  0
  -24.5791  -10.9328   20.5491 C   0  0  0  0  0  0  0  0  0  0  0  0
  -30.5173  -21.6727   19.7055 C   0  0  0  0  0  0  0  0  0  0  0  0
  -21.7167  -21.0246   21.6340 C   0  0  0  0  0  0  0  0  0  0  0  0
  -26.0050  -16.4094   18.6631 C   0  0  0  0  0  0  0  0  0  0  0  0
  -26.4726  -14.5213   20.8904 C   0  0  0  0  0  0  0  0  0  0  0  0
  -21.8909  -19.5854   22.1123 C   0  0  0  0  0  0  0  0  0  0  0  0
  -31.7807  -24.2462   17.5942 C   0  0  0  0  0  0  0  0  0  0  0  0
  -23.3148  -19.3568   22.6095 C   0  0  0  0  0  0  0  0  0  0  0  0
  -31.1388  -25.5193   18.1505 C   0  0  0  0  0  0  0  0  0  0  0  0
  -30.8281  -23.0539   17.6633 C   0  0  0  0  0  0  0  0  0  0  0  0
  -29.6055  -24.0723   19.5441 C   0  0  0  0  0  0  0  0  0  0  0  0
  -24.3338  -19.5760   21.4847 C   0  0  1  0  0  0  0  0  0  0  0  0
  -24.9975  -16.2383   19.7958 C   0  0  1  0  0  0  0  0  0  0  0  0
  -30.5494  -25.2857   19.5554 C   0  0  2  0  0  0  0  0  0  0  0  0
  -23.4397   -8.6996   20.6583 C   0  0  0  0  0  0  0  0  0  0  0  0
  -31.9764  -13.0851   21.4901 C   0  0  0  0  0  0  0  0  0  0  0  0
  -23.9232  -14.4452   23.9178 C   0  0  0  0  0  0  0  0  0  0  0  0
  -23.7055  -11.9520   23.9859 C   0  0  0  0  0  0  0  0  0  0  0  0
  -21.9250  -13.3288   22.9103 C   0  0  0  0  0  0  0  0  0  0  0  0
  -25.2438  -10.3258   17.7297 C   0  0  0  0  0  0  0  0  0  0  0  0
  -32.6021  -15.4819   21.9635 C   0  0  0  0  0  0  0  0  0  0  0  0
  -24.1555  -13.0616   21.7504 C   0  0  1  0  0  0  0  0  0  0  0  0
  -23.8681   -9.8488   19.7592 C   0  0  2  0  0  0  0  0  0  0  0  0
  -32.2361  -16.9697   21.8407 C   0  0  2  0  0  0  0  0  0  0  0  0
  -31.5269  -14.5383   21.4072 C   0  0  1  0  0  0  0  0  0  1  0  0
  -33.3384  -17.8510   22.4142 C   0  0  0  0  0  0  0  0  0  0  0  0
  -23.4492  -13.2092   23.1276 C   0  0  0  0  0  0  0  0  0  0  0  0
  -28.5529  -26.6962   19.8807 N   0  0  0  0  0  0  0  0  0  0  0  0
  -30.4848  -19.2825   21.4576 N   0  0  0  0  0  0  0  0  0  0  0  0
  -29.8694  -26.5306   20.0939 N   0  0  0  0  0  0  0  0  0  0  0  0
  -25.1259  -14.9481   20.4763 N   0  0  0  0  0  0  0  0  0  0  0  0
  -30.3129  -22.8914   19.0246 N   0  0  0  0  0  0  0  0  0  0  0  0
  -31.7618  -27.5400   21.0992 N   0  0  0  0  0  0  0  0  0  0  0  0
  -28.4351  -30.4693   21.9647 N   0  0  0  0  0  0  0  0  0  0  0  0
  -29.5359  -21.3671   20.6479 N   0  0  0  0  0  0  0  0  0  0  0  0
  -31.0045  -17.2315   22.5582 N   0  0  0  0  0  0  0  0  0  0  0  0
  -24.3635  -18.4314   20.5995 N   0  0  0  0  0  0  0  0  0  0  0  0
  -23.7066  -11.9147   20.9685 N   0  0  0  0  0  0  0  0  0  0  0  0
  -24.7652   -9.3073   18.6995 N   0  3  0  0  0  0  0  0  0  0  0  0
  -30.6752  -30.0618   22.2380 O   0  0  0  0  0  0  0  0  0  0  0  0
  -25.8496  -17.1145   21.8160 O   0  0  0  0  0  0  0  0  0  0  0  0
  -22.8205  -14.6057   20.5421 O   0  0  0  0  0  0  0  0  0  0  0  0
  -25.7870  -10.9089   20.7748 O   0  0  0  0  0  0  0  0  0  0  0  0
  -31.5054  -20.9663   19.4895 O   0  0  0  0  0  0  0  0  0  0  0  0
  -23.1042  -29.9447   20.4348 O   0  0  0  0  0  0  0  0  0  0  0  0
  -31.2786  -14.8654   20.0405 O   0  0  0  0  0  0  0  0  0  1  0  0
  -18.9533  -26.4983   21.5735 F   0  0  0  0  0  0  0  0  0  0  0  0
  -21.4295  -30.4033   22.5860 F   0  0  0  0  0  0  0  0  0  0  0  0
  -32.9869  -19.1573   22.3094 F   0  0  0  0  0  0  0  0  0  0  0  0
  -33.5141  -17.5949   23.7341 F   0  0  0  0  0  0  0  0  0  0  0  0
  -28.7728  -18.5432   23.2479 S   0  0  0  0  0  0  0  0  0  0  0  0
  1  2  1  0  0  0  0
  1  5  2  0  0  0  0
  2  6  2  0  0  0  0
  3  8  2  0  0  0  0
  3 16  1  0  0  0  0
  4  9  1  0  0  0  0
  4 16  2  0  0  0  0
  5 18  1  0  0  0  0
  6 20  1  0  0  0  0
  7 10  2  0  0  0  0
  7 19  1  0  0  0  0
  8 22  1  0  0  0  0
  9 22  2  0  0  0  0
 10 23  1  0  0  0  0
 11 12  2  0  0  0  0
 11 24  1  0  0  0  0
 12 25  1  0  0  0  0
 13 21  1  0  0  0  0
 13 23  2  0  0  0  0
 14 25  2  0  0  0  0
 14 26  1  0  0  0  0
 15 28  2  0  0  0  0
 15 84  1  0  0  0  0
 16 27  1  0  0  0  0
 17 27  1  0  0  0  0
 17 29  2  0  0  0  0
 17 31  1  0  0  0  0
 18 20  2  0  0  0  0
 18 36  1  0  0  0  0
 19 21  2  0  0  0  0
 19 37  1  0  0  0  0
 20 45  1  0  0  0  0
 21 38  1  0  0  0  0
 22 78  1  0  0  0  0
 23 79  1  0  0  0  0
 24 26  2  0  0  0  0
 24 78  1  0  0  0  0
 25 80  1  0  0  0  0
 26 81  1  0  0  0  0
 27 61  2  0  0  0  0
 28 62  1  0  0  0  0
 28 68  1  0  0  0  0
 29 63  1  0  0  0  0
 29 66  1  0  0  0  0
 30 62  2  0  0  0  0
 30 69  1  0  0  0  0
 30 84  1  0  0  0  0
 31 67  1  0  0  0  0
 31 73  2  0  0  0  0
 32 46  1  0  0  0  0
 32 70  1  0  0  0  0
 32 74  2  0  0  0  0
 33 55  1  0  0  0  0
 33 64  1  0  0  0  0
 33 75  2  0  0  0  0
 34 56  1  0  0  0  0
 34 71  1  0  0  0  0
 34 76  2  0  0  0  0
 35 65  1  0  0  0  0
 35 68  1  0  0  0  0
 35 77  2  0  0  0  0
 36 39  1  0  0  0  0
 37 46  1  0  0  0  0
 38 64  1  0  0  0  0
 39 41  1  0  0  0  0
 40 42  1  0  0  0  0
 40 43  1  0  0  0  0
 41 45  1  0  0  0  0
 42 47  1  0  0  0  0
 43 65  1  0  0  0  0
 44 47  1  0  0  0  0
 44 65  1  0  0  0  0
 45 70  1  0  0  0  0
 46 64  1  0  0  0  0
 47 63  1  0  0  0  0
 48 56  1  0  0  0  0
 49 58  1  0  0  0  0
 50 60  1  0  0  0  0
 51 60  1  0  0  0  0
 52 60  1  0  0  0  0
 53 72  1  0  0  0  0
 54 57  1  0  0  0  0
 54 58  1  0  0  0  0
 55 60  1  0  0  0  0
 55 71  1  0  0  0  0
 56 72  1  0  0  0  0
 57 59  1  0  0  0  0
 57 69  1  0  0  0  0
 58 79  1  0  0  0  0
 59 82  1  0  0  0  0
 59 83  1  0  0  0  0
 61 63  1  0  0  0  0
M  CHG  1  72   1
M  ISO  4  35 100  58 101  68 100  79 101
M  END
> <Batch ID>
0185

> <Smiles>
CNC(C)C(=O)NC(C(=O)N1Cc2cc([101O:1][101CH:1](C)CC(Nc3nc([100NH:0][100C:0](=O)N4CCCC(n5nc(-c6ccc(Oc7ccc(F)cc7F)cc6)c(C(N)=O)c5N)C4)cs3)C(F)F)ccc2CC1C(=O)NC1CCCc2ccccc21)C(C)(C)C

> <Shape>
0.258

> <Color>
0.070

> <Negative vol penalty>
0.000

$$$$

  -OEChem-04052305053D

 86 94  0     1  0  0  0  0  0999 V2000
  -19.8354  -33.7689   20.4691 C   0  0  0  0  0  0  0  0  0  0  0  0
  -20.7351  -32.8928   19.8705 C   0  0  0  0  0  0  0  0  0  0  0  0
  -23.3557   -9.6488   21.2142 C   0  0  0  0  0  0  0  0  0  0  0  0
  -23.9515  -10.5432   23.3780 C   0  0  0  0  0  0  0  0  0  0  0  0
  -19.6787  -33.7665   21.8545 C   0  0  0  0  0  0  0  0  0  0  0  0
  -21.4796  -32.0145   20.6571 C   0  0  0  0  0  0  0  0  0  0  0  0
  -23.2111  -26.3257   19.1925 C   0  0  0  0  0  0  0  0  0  0  0  0
  -22.7051   -8.5821   21.8342 C   0  0  0  0  0  0  0  0  0  0  0  0
  -23.3009   -9.4765   23.9980 C   0  0  0  0  0  0  0  0  0  0  0  0
  -24.4075  -25.8071   18.6990 C   0  0  0  0  0  0  0  0  0  0  0  0
  -23.5575   -5.6610   23.3055 C   0  0  0  0  0  0  0  0  0  0  0  0
  -23.7830   -4.3817   22.7975 C   0  0  0  0  0  0  0  0  0  0  0  0
  -25.0805  -25.2388   20.9448 C   0  0  0  0  0  0  0  0  0  0  0  0
  -31.1930  -18.3764   20.4092 C   0  0  0  0  0  0  0  0  0  0  0  0
  -21.4234   -4.1499   22.3334 C   0  0  0  0  0  0  0  0  0  0  0  0
  -23.9790  -10.6293   21.9861 C   0  0  0  0  0  0  0  0  0  0  0  0
  -24.0956  -12.9733   20.9861 C   0  0  0  0  0  0  0  0  0  0  0  0
  -20.4146  -32.8810   22.6577 C   0  0  0  0  0  0  0  0  0  0  0  0
  -22.9447  -26.3146   20.5692 C   0  0  0  0  0  0  0  0  0  0  0  0
  -21.3336  -32.0012   22.0547 C   0  0  0  0  0  0  0  0  0  0  0  0
  -23.8789  -25.7555   21.4529 C   0  0  0  0  0  0  0  0  0  0  0  0
  -31.1180  -19.7891   20.5794 C   0  0  0  0  0  0  0  0  0  0  0  0
  -22.6776   -8.4959   23.2261 C   0  0  0  0  0  0  0  0  0  0  0  0
  -25.3436  -25.2662   19.5754 C   0  0  0  0  0  0  0  0  0  0  0  0
  -22.2648   -6.1848   23.3275 C   0  0  0  0  0  0  0  0  0  0  0  0
  -22.7160   -3.6261   22.3114 C   0  0  0  0  0  0  0  0  0  0  0  0
  -21.1978   -5.4292   22.8414 C   0  0  0  0  0  0  0  0  0  0  0  0
  -24.6518  -11.7312   21.3462 C   0  0  0  0  0  0  0  0  0  0  0  0
  -29.9016  -20.1849   21.0906 C   0  0  0  0  0  0  0  0  0  0  0  0
  -25.1370  -13.6632   20.4151 C   0  0  0  0  0  0  0  0  0  0  0  0
  -30.0309  -17.7462   20.7972 C   0  0  0  0  0  0  0  0  0  0  0  0
  -22.7573  -13.4600   21.1529 C   0  0  0  0  0  0  0  0  0  0  0  0
  -22.4326  -28.5473   22.7729 C   0  0  0  0  0  0  0  0  0  0  0  0
  -21.8150  -25.9857   24.6648 C   0  0  0  0  0  0  0  0  0  0  0  0
  -22.2707  -22.6594   25.2773 C   0  0  0  0  0  0  0  0  0  0  0  0
  -28.0276  -23.2632   20.2151 C   0  0  0  0  0  0  0  0  0  0  0  0
  -30.4593  -15.2987   20.3819 C   0  0  0  0  0  0  0  0  0  0  0  0
  -20.2458  -32.9479   24.1549 C   0  0  0  0  0  0  0  0  0  0  0  0
  -21.6379  -26.8536   21.0830 C   0  0  0  0  0  0  0  0  0  0  0  0
  -23.6321  -25.7012   22.9377 C   0  0  0  0  0  0  0  0  0  0  0  0
  -20.7984  -31.7267   24.8854 C   0  0  0  0  0  0  0  0  0  0  0  0
  -29.7369  -12.1008   18.9933 C   0  0  0  0  0  0  0  0  0  0  0  0
  -22.1874  -31.3751   24.3622 C   0  0  0  0  0  0  0  0  0  0  0  0
  -28.3038  -11.8217   19.4520 C   0  0  0  0  0  0  0  0  0  0  0  0
  -30.5420  -12.8356   20.0635 C   0  0  0  0  0  0  0  0  0  0  0  0
  -28.4859  -13.7837   21.0345 C   0  0  0  0  0  0  0  0  0  0  0  0
  -22.1412  -31.0163   22.8720 C   0  0  1  0  0  0  0  0  0  0  0  0
  -21.6946  -27.2571   22.5532 C   0  0  1  0  0  0  0  0  0  0  0  0
  -27.6167  -13.1025   19.9648 C   0  0  2  0  0  0  0  0  0  0  0  0
  -29.0613  -21.7426   22.8960 C   0  0  0  0  0  0  0  0  0  0  0  0
  -21.6722  -20.8587   26.9195 C   0  0  0  0  0  0  0  0  0  0  0  0
  -23.8616  -27.1033   26.6325 C   0  0  0  0  0  0  0  0  0  0  0  0
  -23.9212  -24.8579   27.7383 C   0  0  0  0  0  0  0  0  0  0  0  0
  -21.7986  -26.1675   27.6921 C   0  0  0  0  0  0  0  0  0  0  0  0
  -20.8634  -21.0791   23.2082 C   0  0  0  0  0  0  0  0  0  0  0  0
  -29.4144  -21.5797   21.4190 C   0  0  2  0  0  0  0  0  0  0  0  0
  -22.6404  -25.0959   25.5625 C   0  0  1  0  0  0  0  0  0  0  0  0
  -21.2883  -21.5550   25.6231 C   0  0  2  0  0  0  0  0  0  0  0  0
  -26.7767  -23.3813   19.3531 C   0  0  2  0  0  0  0  0  0  1  0  0
  -26.9078  -22.6425   18.0330 C   0  0  0  0  0  0  0  0  0  0  0  0
  -23.0612  -25.8088   26.8786 C   0  0  0  0  0  0  0  0  0  0  0  0
  -25.9459  -11.6346   21.0303 N   0  0  0  0  0  0  0  0  0  0  0  0
  -26.2117  -12.8249   20.4656 N   0  0  0  0  0  0  0  0  0  0  0  0
  -22.3422  -26.2465   23.3920 N   0  0  0  0  0  0  0  0  0  0  0  0
  -29.8317  -14.0404   20.4982 N   0  0  0  0  0  0  0  0  0  0  0  0
  -32.1273  -20.6375   20.2720 N   0  0  0  0  0  0  0  0  0  0  0  0
  -25.2291  -14.8990   19.8798 N   0  0  0  0  0  0  0  0  0  0  0  0
  -21.8121  -12.6213   21.7590 N   0  0  0  0  0  0  0  0  0  0  0  0
  -29.6750  -16.3747   20.7962 N   0  0  0  0  0  0  0  0  0  0  0  0
  -21.6349  -29.6727   22.6911 N   0  0  0  0  0  0  0  0  0  0  0  0
  -28.2959  -21.9545   20.5844 N   0  0  0  0  0  0  0  0  0  0  0  0
  -21.8578  -23.8814   25.7647 N   0  0  0  0  0  0  0  0  0  0  0  0
  -21.2503  -20.5364   24.5359 N   0  3  0  0  0  0  0  0  0  0  0  0
  -22.4060  -14.5986   20.7608 O   0  0  0  0  0  0  0  0  0  0  0  0
  -23.6363  -28.5235   23.0014 O   0  0  0  0  0  0  0  0  0  0  0  0
  -20.7386  -26.4270   25.0749 O   0  0  0  0  0  0  0  0  0  0  0  0
  -23.3031  -22.4576   24.6418 O   0  0  0  0  0  0  0  0  0  0  0  0
  -28.6933  -24.2423   20.5450 O   0  0  0  0  0  0  0  0  0  0  0  0
  -31.5978  -15.4160   19.9214 O   0  0  0  0  0  0  0  0  0  0  0  0
  -22.0426   -7.4553   23.8314 O   0  0  0  0  0  0  0  0  0  0  0  0
  -26.5125  -24.7599   19.0965 O   0  0  0  0  0  0  0  0  0  1  0  0
  -22.9330   -2.3982   21.8222 F   0  0  0  0  0  0  0  0  0  0  0  0
  -19.9539   -5.9276   22.8589 F   0  0  0  0  0  0  0  0  0  0  0  0
  -27.9235  -23.1616   17.3018 F   0  0  0  0  0  0  0  0  0  0  0  0
  -25.7758  -22.7888   17.2997 F   0  0  0  0  0  0  0  0  0  0  0  0
  -28.8563  -18.8562   21.3634 S   0  0  0  0  0  0  0  0  0  0  0  0
  1  2  1  0  0  0  0
  1  5  2  0  0  0  0
  2  6  2  0  0  0  0
  3  8  2  0  0  0  0
  3 16  1  0  0  0  0
  4  9  1  0  0  0  0
  4 16  2  0  0  0  0
  5 18  1  0  0  0  0
  6 20  1  0  0  0  0
  7 10  2  0  0  0  0
  7 19  1  0  0  0  0
  8 23  1  0  0  0  0
  9 23  2  0  0  0  0
 10 24  1  0  0  0  0
 11 12  2  0  0  0  0
 11 25  1  0  0  0  0
 12 26  1  0  0  0  0
 13 21  1  0  0  0  0
 13 24  2  0  0  0  0
 14 22  1  0  0  0  0
 14 31  2  0  0  0  0
 15 26  2  0  0  0  0
 15 27  1  0  0  0  0
 16 28  1  0  0  0  0
 17 28  1  0  0  0  0
 17 30  2  0  0  0  0
 17 32  1  0  0  0  0
 18 20  2  0  0  0  0
 18 38  1  0  0  0  0
 19 21  2  0  0  0  0
 19 39  1  0  0  0  0
 20 47  1  0  0  0  0
 21 40  1  0  0  0  0
 22 29  2  0  0  0  0
 22 66  1  0  0  0  0
 23 80  1  0  0  0  0
 24 81  1  0  0  0  0
 25 27  2  0  0  0  0
 25 80  1  0  0  0  0
 26 82  1  0  0  0  0
 27 83  1  0  0  0  0
 28 62  2  0  0  0  0
 29 56  1  0  0  0  0
 29 86  1  0  0  0  0
 30 63  1  0  0  0  0
 30 67  1  0  0  0  0
 31 69  1  0  0  0  0
 31 86  1  0  0  0  0
 32 68  1  0  0  0  0
 32 74  2  0  0  0  0
 33 48  1  0  0  0  0
 33 70  1  0  0  0  0
 33 75  2  0  0  0  0
 34 57  1  0  0  0  0
 34 64  1  0  0  0  0
 34 76  2  0  0  0  0
 35 58  1  0  0  0  0
 35 72  1  0  0  0  0
 35 77  2  0  0  0  0
 36 59  1  0  0  0  0
 36 71  1  0  0  0  0
 36 78  2  0  0  0  0
 37 65  1  0  0  0  0
 37 69  1  0  0  0  0
 37 79  2  0  0  0  0
 38 41  1  0  0  0  0
 39 48  1  0  0  0  0
 40 64  1  0  0  0  0
 41 43  1  0  0  0  0
 42 44  1  0  0  0  0
 42 45  1  0  0  0  0
 43 47  1  0  0  0  0
 44 49  1  0  0  0  0
 45 65  1  0  0  0  0
 46 49  1  0  0  0  0
 46 65  1  0  0  0  0
 47 70  1  0  0  0  0
 48 64  1  0  0  0  0
 49 63  1  0  0  0  0
 50 56  1  0  0  0  0
 51 58  1  0  0  0  0
 52 61  1  0  0  0  0
 53 61  1  0  0  0  0
 54 61  1  0  0  0  0
 55 73  1  0  0  0  0
 56 71  1  0  0  0  0
 57 61  1  0  0  0  0
 57 72  1  0  0  0  0
 58 73  1  0  0  0  0
 59 60  1  0  0  0  0
 59 81  1  0  0  0  0
 60 84  1  0  0  0  0
 60 85  1  0  0  0  0
 62 63  1  0  0  0  0
M  CHG  1  73   1
M  ISO  4  37 100  59 101  69 100  81 101
M  END
> <Batch ID>
0185

> <Smiles>
CNC(C)C(=O)NC(C(=O)N1Cc2cc([101O:1][101CH:1](C(=O)NC(C)c3sc([100NH:0][100C:0](=O)N4CCCC(n5nc(-c6ccc(Oc7ccc(F)cc7F)cc6)c(C(N)=O)c5N)C4)cc3N)C(F)F)ccc2CC1C(=O)NC1CCCc2ccccc21)C(C)(C)C

> <Shape>
0.232

> <Color>
0.166

> <Negative vol penalty>
0.000

$$$$

  -OEChem-04052305053D

 86 94  0     1  0  0  0  0  0999 V2000
  -29.6527  -35.6510   26.6600 C   0  0  0  0  0  0  0  0  0  0  0  0
  -30.1731  -34.5806   25.9398 C   0  0  0  0  0  0  0  0  0  0  0  0
  -23.3990   -9.6939   19.9444 C   0  0  0  0  0  0  0  0  0  0  0  0
  -23.8025   -9.9805   22.3091 C   0  0  0  0  0  0  0  0  0  0  0  0
  -28.4521  -35.5051   27.3537 C   0  0  0  0  0  0  0  0  0  0  0  0
  -29.4938  -33.3631   25.9138 C   0  0  0  0  0  0  0  0  0  0  0  0
  -28.2227  -27.7698   21.6224 C   0  0  0  0  0  0  0  0  0  0  0  0
  -22.7260   -8.5000   20.2039 C   0  0  0  0  0  0  0  0  0  0  0  0
  -23.1294   -8.7866   22.5687 C   0  0  0  0  0  0  0  0  0  0  0  0
  -28.2978  -26.3777   21.6168 C   0  0  0  0  0  0  0  0  0  0  0  0
  -19.9264   -7.7318   22.7877 C   0  0  0  0  0  0  0  0  0  0  0  0
  -19.0083   -7.7222   23.8378 C   0  0  0  0  0  0  0  0  0  0  0  0
  -26.1918  -26.2654   22.7879 C   0  0  0  0  0  0  0  0  0  0  0  0
  -20.2840   -5.9900   24.9374 C   0  0  0  0  0  0  0  0  0  0  0  0
  -23.9373  -10.4341   20.9970 C   0  0  0  0  0  0  0  0  0  0  0  0
  -24.0790  -12.9598   20.6676 C   0  0  0  0  0  0  0  0  0  0  0  0
  -27.7527  -34.2881   27.3283 C   0  0  0  0  0  0  0  0  0  0  0  0
  -27.1352  -28.4216   22.2215 C   0  0  0  0  0  0  0  0  0  0  0  0
  -28.2834  -33.2003   26.6089 C   0  0  0  0  0  0  0  0  0  0  0  0
  -26.1040  -27.6659   22.7975 C   0  0  0  0  0  0  0  0  0  0  0  0
  -22.5912   -8.0464   21.5160 C   0  0  0  0  0  0  0  0  0  0  0  0
  -27.2836  -25.6253   22.2021 C   0  0  0  0  0  0  0  0  0  0  0  0
  -21.0233   -6.8704   22.8125 C   0  0  0  0  0  0  0  0  0  0  0  0
  -19.1870   -6.8514   24.9126 C   0  0  0  0  0  0  0  0  0  0  0  0
  -21.2021   -5.9996   23.8873 C   0  0  0  0  0  0  0  0  0  0  0  0
  -24.6331  -11.6671   20.7295 C   0  0  0  0  0  0  0  0  0  0  0  0
  -28.9604  -18.0197   20.3266 C   0  0  0  0  0  0  0  0  0  0  0  0
  -29.6990  -18.1500   19.1692 C   0  0  0  0  0  0  0  0  0  0  0  0
  -25.1462  -13.7777   20.3872 C   0  0  0  0  0  0  0  0  0  0  0  0
  -28.7090  -20.1762   20.0161 C   0  0  0  0  0  0  0  0  0  0  0  0
  -22.7211  -13.3833   20.8475 C   0  0  0  0  0  0  0  0  0  0  0  0
  -26.7927  -30.4463   24.6478 C   0  0  0  0  0  0  0  0  0  0  0  0
  -23.7128  -30.5315   23.6334 C   0  0  0  0  0  0  0  0  0  0  0  0
  -21.1692  -28.9877   21.9620 C   0  0  0  0  0  0  0  0  0  0  0  0
  -27.5570  -22.1141   21.1359 C   0  0  0  0  0  0  0  0  0  0  0  0
  -30.5154  -15.0916   21.7146 C   0  0  0  0  0  0  0  0  0  0  0  0
  -26.4828  -34.1637   28.1324 C   0  0  0  0  0  0  0  0  0  0  0  0
  -27.0559  -29.9234   22.1956 C   0  0  0  0  0  0  0  0  0  0  0  0
  -24.9051  -28.3169   23.4358 C   0  0  0  0  0  0  0  0  0  0  0  0
  -25.6342  -32.9546   27.7475 C   0  0  0  0  0  0  0  0  0  0  0  0
  -29.8697  -12.6888   18.9739 C   0  0  0  0  0  0  0  0  0  0  0  0
  -26.5039  -31.7067   27.6328 C   0  0  0  0  0  0  0  0  0  0  0  0
  -28.4242  -12.2680   19.2336 C   0  0  0  0  0  0  0  0  0  0  0  0
  -30.5809  -13.0988   20.2599 C   0  0  0  0  0  0  0  0  0  0  0  0
  -28.4248  -13.7343   21.2904 C   0  0  0  0  0  0  0  0  0  0  0  0
  -27.5632  -31.8714   26.5363 C   0  0  1  0  0  0  0  0  0  0  0  0
  -26.1558  -30.4931   23.2877 C   0  0  1  0  0  0  0  0  0  0  0  0
  -27.6658  -13.3595   20.0086 C   0  0  2  0  0  0  0  0  0  0  0  0
  -30.4325  -17.1334   18.3891 C   0  0  0  0  0  0  0  0  0  0  0  0
  -18.7581  -29.2859   21.3336 C   0  0  0  0  0  0  0  0  0  0  0  0
  -26.1752  -23.3504   18.7020 C   0  0  0  0  0  0  0  0  0  0  0  0
  -24.8842  -23.5199   20.8360 C   0  0  0  0  0  0  0  0  0  0  0  0
  -22.8853  -29.8304   26.4853 C   0  0  0  0  0  0  0  0  0  0  0  0
  -20.6238  -29.2164   25.6039 C   0  0  0  0  0  0  0  0  0  0  0  0
  -21.4547  -31.5577   25.3787 C   0  0  0  0  0  0  0  0  0  0  0  0
  -30.5865  -17.4028   22.5707 C   0  0  0  0  0  0  0  0  0  0  0  0
  -21.7943  -28.9203   19.0700 C   0  0  0  0  0  0  0  0  0  0  0  0
  -28.7305  -16.7672   21.0751 C   0  0  0  0  0  0  0  0  0  0  0  0
  -22.4640  -29.7404   23.9396 C   0  0  1  0  0  0  0  0  0  0  0  0
  -20.2027  -29.4953   20.9071 C   0  0  2  0  0  0  0  0  0  0  0  0
  -27.4070  -23.6220   20.9264 C   0  0  1  0  0  0  0  0  0  1  0  0
  -26.1506  -23.9732   20.1024 C   0  0  0  0  0  0  0  0  0  0  0  0
  -21.8803  -30.0737   25.3417 C   0  0  0  0  0  0  0  0  0  0  0  0
  -25.9500  -11.6594   20.5062 N   0  0  0  0  0  0  0  0  0  0  0  0
  -28.3923  -19.1805   20.8139 N   0  0  0  0  0  0  0  0  0  0  0  0
  -26.2323  -12.9572   20.3012 N   0  0  0  0  0  0  0  0  0  0  0  0
  -24.8766  -29.7881   23.3907 N   0  0  0  0  0  0  0  0  0  0  0  0
  -29.8175  -14.1055   20.9982 N   0  0  0  0  0  0  0  0  0  0  0  0
  -25.2521  -15.1116   20.2082 N   0  0  0  0  0  0  0  0  0  0  0  0
  -21.7504  -12.4127   21.1301 N   0  0  0  0  0  0  0  0  0  0  0  0
  -28.3380  -21.5360   20.1408 N   0  0  0  0  0  0  0  0  0  0  0  0
  -26.9702  -31.6873   25.2290 N   0  0  0  0  0  0  0  0  0  0  0  0
  -21.5434  -29.9871   22.8351 N   0  0  0  0  0  0  0  0  0  0  0  0
  -29.8973  -16.3443   21.8465 N   0  0  0  0  0  0  0  0  0  0  0  0
  -20.4206  -28.7801   19.6179 N   0  3  0  0  0  0  0  0  0  0  0  0
  -22.3760  -14.5848   20.7441 O   0  0  0  0  0  0  0  0  0  0  0  0
  -27.0989  -29.3642   25.1346 O   0  0  0  0  0  0  0  0  0  0  0  0
  -23.6561  -31.7634   23.6032 O   0  0  0  0  0  0  0  0  0  0  0  0
  -21.5509  -27.8203   22.0091 O   0  0  0  0  0  0  0  0  0  0  0  0
  -27.0406  -21.5512   22.0970 O   0  0  0  0  0  0  0  0  0  0  0  0
  -31.6319  -14.8681   22.2000 O   0  0  0  0  0  0  0  0  0  0  0  0
  -21.9343   -6.8816   21.7696 O   0  0  0  0  0  0  0  0  0  0  0  0
  -27.3547  -24.2663   22.1986 O   0  0  0  0  0  0  0  0  0  1  0  0
  -18.3061   -6.8434   25.9216 F   0  0  0  0  0  0  0  0  0  0  0  0
  -22.2545   -5.1706   23.9173 F   0  0  0  0  0  0  0  0  0  0  0  0
  -29.6869  -19.7878   18.6604 S   0  0  0  0  0  0  0  0  0  0  0  0
  1  2  1  0  0  0  0
  1  5  2  0  0  0  0
  2  6  2  0  0  0  0
  3  8  2  0  0  0  0
  3 15  1  0  0  0  0
  4  9  1  0  0  0  0
  4 15  2  0  0  0  0
  5 17  1  0  0  0  0
  6 19  1  0  0  0  0
  7 10  2  0  0  0  0
  7 18  1  0  0  0  0
  8 21  1  0  0  0  0
  9 21  2  0  0  0  0
 10 22  1  0  0  0  0
 11 12  2  0  0  0  0
 11 23  1  0  0  0  0
 12 24  1  0  0  0  0
 13 20  1  0  0  0  0
 13 22  2  0  0  0  0
 14 24  2  0  0  0  0
 14 25  1  0  0  0  0
 15 26  1  0  0  0  0
 16 26  1  0  0  0  0
 16 29  2  0  0  0  0
 16 31  1  0  0  0  0
 17 19  2  0  0  0  0
 17 37  1  0  0  0  0
 18 20  2  0  0  0  0
 18 38  1  0  0  0  0
 19 46  1  0  0  0  0
 20 39  1  0  0  0  0
 21 82  1  0  0  0  0
 22 83  1  0  0  0  0
 23 25  2  0  0  0  0
 23 82  1  0  0  0  0
 24 84  1  0  0  0  0
 25 85  1  0  0  0  0
 26 64  2  0  0  0  0
 27 28  2  0  0  0  0
 27 58  1  0  0  0  0
 27 65  1  0  0  0  0
 28 49  1  0  0  0  0
 28 86  1  0  0  0  0
 29 66  1  0  0  0  0
 29 69  1  0  0  0  0
 30 65  2  0  0  0  0
 30 71  1  0  0  0  0
 30 86  1  0  0  0  0
 31 70  1  0  0  0  0
 31 76  2  0  0  0  0
 32 47  1  0  0  0  0
 32 72  1  0  0  0  0
 32 77  2  0  0  0  0
 33 59  1  0  0  0  0
 33 67  1  0  0  0  0
 33 78  2  0  0  0  0
 34 60  1  0  0  0  0
 34 73  1  0  0  0  0
 34 79  2  0  0  0  0
 35 61  1  0  0  0  0
 35 71  1  0  0  0  0
 35 80  2  0  0  0  0
 36 68  1  0  0  0  0
 36 74  1  0  0  0  0
 36 81  2  0  0  0  0
 37 40  1  0  0  0  0
 38 47  1  0  0  0  0
 39 67  1  0  0  0  0
 40 42  1  0  0  0  0
 41 43  1  0  0  0  0
 41 44  1  0  0  0  0
 42 46  1  0  0  0  0
 43 48  1  0  0  0  0
 44 68  1  0  0  0  0
 45 48  1  0  0  0  0
 45 68  1  0  0  0  0
 46 72  1  0  0  0  0
 47 67  1  0  0  0  0
 48 66  1  0  0  0  0
 50 60  1  0  0  0  0
 51 62  1  0  0  0  0
 52 62  1  0  0  0  0
 53 63  1  0  0  0  0
 54 63  1  0  0  0  0
 55 63  1  0  0  0  0
 56 74  1  0  0  0  0
 57 75  1  0  0  0  0
 58 74  1  0  0  0  0
 59 63  1  0  0  0  0
 59 73  1  0  0  0  0
 60 75  1  0  0  0  0
 61 62  1  0  0  0  0
 61 83  1  0  0  0  0
 64 66  1  0  0  0  0
M  CHG  1  75   1
M  ISO  4  36 100  61 101  74 100  83 101
M  END
> <Batch ID>
0185

> <Smiles>
CNC(C)C(=O)NC(C(=O)N1Cc2cc([101O:1][101CH:1](C(=O)Nc3nc(C[100N:0](C)[100C:0](=O)N4CCCC(n5nc(-c6ccc(Oc7ccc(F)cc7F)cc6)c(C(N)=O)c5N)C4)c(C)s3)C(C)C)ccc2CC1C(=O)NC1CCCc2ccccc21)C(C)(C)C

> <Shape>
0.331

> <Color>
0.188

> <Negative vol penalty>
0.000

$$$$

  -OEChem-04052305053D

 89 97  0     1  0  0  0  0  0999 V2000
  -28.2311  -31.8118   27.4551 C   0  0  0  0  0  0  0  0  0  0  0  0
  -28.2481  -30.7787   26.5235 C   0  0  0  0  0  0  0  0  0  0  0  0
  -24.7109   -7.5349   19.6067 C   0  0  0  0  0  0  0  0  0  0  0  0
  -23.3030   -8.8389   21.0745 C   0  0  0  0  0  0  0  0  0  0  0  0
  -27.0249  -32.4232   27.7944 C   0  0  0  0  0  0  0  0  0  0  0  0
  -27.0586  -30.3557   25.9314 C   0  0  0  0  0  0  0  0  0  0  0  0
  -27.5073  -29.6876   20.9317 C   0  0  0  0  0  0  0  0  0  0  0  0
  -24.6789   -6.4772   20.5154 C   0  0  0  0  0  0  0  0  0  0  0  0
  -23.2709   -7.7811   21.9833 C   0  0  0  0  0  0  0  0  0  0  0  0
  -28.1303  -28.5178   20.4990 C   0  0  0  0  0  0  0  0  0  0  0  0
  -22.5221   -5.2913   24.5246 C   0  0  0  0  0  0  0  0  0  0  0  0
  -21.2896   -4.9517   25.0823 C   0  0  0  0  0  0  0  0  0  0  0  0
  -25.9704  -27.5360   20.0632 C   0  0  0  0  0  0  0  0  0  0  0  0
  -20.4180   -4.4923   22.8763 C   0  0  0  0  0  0  0  0  0  0  0  0
  -24.0231   -8.7158   19.8862 C   0  0  0  0  0  0  0  0  0  0  0  0
  -23.1645  -10.0437   17.8845 C   0  0  0  0  0  0  0  0  0  0  0  0
  -25.8213  -32.0139   27.1990 C   0  0  0  0  0  0  0  0  0  0  0  0
  -26.1086  -29.7866   20.9437 C   0  0  0  0  0  0  0  0  0  0  0  0
  -25.8350  -30.9612   26.2641 C   0  0  0  0  0  0  0  0  0  0  0  0
  -25.3322  -28.7090   20.4940 C   0  0  0  0  0  0  0  0  0  0  0  0
  -23.9589   -6.6003   21.7038 C   0  0  0  0  0  0  0  0  0  0  0  0
  -27.3618  -27.4407   20.0674 C   0  0  0  0  0  0  0  0  0  0  0  0
  -22.7026   -5.2316   23.1427 C   0  0  0  0  0  0  0  0  0  0  0  0
  -20.2375   -4.5521   24.2582 C   0  0  0  0  0  0  0  0  0  0  0  0
  -21.6506   -4.8321   22.3186 C   0  0  0  0  0  0  0  0  0  0  0  0
  -24.0563   -9.8089   18.9481 C   0  0  0  0  0  0  0  0  0  0  0  0
  -23.6236  -11.1988   17.3001 C   0  0  0  0  0  0  0  0  0  0  0  0
  -26.2038  -18.5092   19.8544 C   0  0  0  0  0  0  0  0  0  0  0  0
  -27.4036  -18.0288   19.5337 C   0  0  0  0  0  0  0  0  0  0  0  0
  -26.2472  -19.9874   19.8903 C   0  0  0  0  0  0  0  0  0  0  0  0
  -22.0231   -9.2855   17.4625 C   0  0  0  0  0  0  0  0  0  0  0  0
  -23.9101  -30.2255   23.1971 C   0  0  0  0  0  0  0  0  0  0  0  0
  -21.8999  -30.3889   20.6564 C   0  0  0  0  0  0  0  0  0  0  0  0
  -21.2720  -29.5761   17.4019 C   0  0  0  0  0  0  0  0  0  0  0  0
  -26.8099  -15.6736   19.6179 C   0  0  0  0  0  0  0  0  0  0  0  0
  -24.5360  -32.6730   27.6328 C   0  0  0  0  0  0  0  0  0  0  0  0
  -25.4525  -31.0650   21.3882 C   0  0  0  0  0  0  0  0  0  0  0  0
  -23.8276  -28.7720   20.4682 C   0  0  0  0  0  0  0  0  0  0  0  0
  -23.3694  -32.4178   26.6818 C   0  0  0  0  0  0  0  0  0  0  0  0
  -27.6052  -13.7183   16.5842 C   0  0  0  0  0  0  0  0  0  0  0  0
  -23.2966  -30.9400   26.3108 C   0  0  0  0  0  0  0  0  0  0  0  0
  -26.7315  -12.4851   16.7931 C   0  0  0  0  0  0  0  0  0  0  0  0
  -28.1279  -14.2816   17.9051 C   0  0  0  0  0  0  0  0  0  0  0  0
  -26.1762  -13.3355   19.1045 C   0  0  0  0  0  0  0  0  0  0  0  0
  -24.5688  -30.4909   25.5817 C   0  0  1  0  0  0  0  0  0  0  0  0
  -24.0096  -30.8693   21.8431 C   0  0  1  0  0  0  0  0  0  0  0  0
  -25.6020  -12.7844   17.7903 C   0  0  2  0  0  0  0  0  0  0  0  0
  -19.5291  -29.8164   15.6125 C   0  0  0  0  0  0  0  0  0  0  0  0
  -30.7709  -24.1327   20.9286 C   0  0  0  0  0  0  0  0  0  0  0  0
  -20.2205  -28.2280   22.0055 C   0  0  0  0  0  0  0  0  0  0  0  0
  -19.0796  -27.8424   19.8105 C   0  0  0  0  0  0  0  0  0  0  0  0
  -18.8978  -30.0612   20.9358 C   0  0  0  0  0  0  0  0  0  0  0  0
  -25.3699  -22.1023   20.2034 C   0  0  0  0  0  0  0  0  0  0  0  0
  -23.1191  -31.0764   15.6423 C   0  0  0  0  0  0  0  0  0  0  0  0
  -29.2264  -25.9739   20.2335 C   0  0  0  0  0  0  0  0  0  1  0  0
  -27.9133  -21.8587   19.5736 C   0  0  0  0  0  0  0  0  0  0  0  0
  -21.0889  -29.3884   19.8688 C   0  0  1  0  0  0  0  0  0  0  0  0
  -20.7848  -30.4107   16.2312 C   0  0  2  0  0  0  0  0  0  0  0  0
  -29.4246  -24.4505   20.2680 C   0  0  1  0  0  0  0  0  0  0  0  0
  -29.2208  -23.7701   18.8844 C   0  0  1  0  0  0  0  0  0  0  0  0
  -19.8500  -28.8778   20.6574 C   0  0  0  0  0  0  0  0  0  0  0  0
  -30.2496  -24.1228   17.8156 C   0  0  0  0  0  0  0  0  0  0  0  0
  -25.0099  -10.7399   19.0366 N   0  0  0  0  0  0  0  0  0  0  0  0
  -25.1867  -20.6598   20.2077 N   0  0  0  0  0  0  0  0  0  0  0  0
  -24.7199  -11.5709   18.0210 N   0  0  0  0  0  0  0  0  0  0  0  0
  -27.5031  -20.4686   19.5607 N   0  0  0  0  0  0  0  0  0  0  0  0
  -23.2327  -30.0412   20.9184 N   0  0  0  0  0  0  0  0  0  0  0  0
  -27.0381  -14.5011   18.8698 N   0  0  0  0  0  0  0  0  0  0  0  0
  -23.1924  -11.9222   16.2451 N   0  0  0  0  0  0  0  0  0  0  0  0
  -21.6916   -8.1247   18.1745 N   0  0  0  0  0  0  0  0  0  0  0  0
  -27.7224  -16.7053   19.4141 N   0  0  0  0  0  0  0  0  0  0  0  0
  -24.5430  -30.9304   24.2031 N   0  0  0  0  0  0  0  0  0  0  0  0
  -20.7659  -30.0329   18.6005 N   0  0  0  0  0  0  0  0  0  0  0  0
  -29.2016  -22.3106   19.0421 N   0  0  0  0  0  0  0  0  0  0  0  0
  -21.8361  -30.4889   15.1778 N   0  3  0  0  0  0  0  0  0  0  0  0
  -21.3277   -9.6184   16.4730 O   0  0  0  0  0  0  0  0  0  0  0  0
  -23.3028  -29.1683   23.3202 O   0  0  0  0  0  0  0  0  0  0  0  0
  -21.3725  -31.4432   21.0195 O   0  0  0  0  0  0  0  0  0  0  0  0
  -22.0232  -28.6128   17.2663 O   0  0  0  0  0  0  0  0  0  0  0  0
  -25.8677  -15.7798   20.4114 O   0  0  0  0  0  0  0  0  0  0  0  0
  -23.9272   -5.5684   22.5907 O   0  0  0  0  0  0  0  0  0  0  0  0
  -27.9673  -26.2975   19.6451 O   0  0  0  0  0  0  0  0  0  1  0  0
  -19.0545   -4.2245   24.7940 F   0  0  0  0  0  0  0  0  0  0  0  0
  -21.8183   -4.7716   20.9904 F   0  0  0  0  0  0  0  0  0  0  0  0
  -25.0826  -17.8323   20.1246 F   0  0  0  0  0  0  0  0  0  0  0  0
  -30.2459  -25.4444   17.5382 F   0  0  0  0  0  0  0  0  0  0  0  0
  -31.5043  -23.7793   18.1732 F   0  0  0  0  0  0  0  0  0  0  0  0
  -29.9698  -23.4810   16.6556 F   0  0  0  0  0  0  0  0  0  0  0  0
  -28.6151  -19.2458   19.2626 S   0  0  0  0  0  0  0  0  0  0  0  0
  1  2  1  0  0  0  0
  1  5  2  0  0  0  0
  2  6  2  0  0  0  0
  3  8  2  0  0  0  0
  3 15  1  0  0  0  0
  4  9  1  0  0  0  0
  4 15  2  0  0  0  0
  5 17  1  0  0  0  0
  6 19  1  0  0  0  0
  7 10  2  0  0  0  0
  7 18  1  0  0  0  0
  8 21  1  0  0  0  0
  9 21  2  0  0  0  0
 10 22  1  0  0  0  0
 11 12  2  0  0  0  0
 11 23  1  0  0  0  0
 12 24  1  0  0  0  0
 13 20  1  0  0  0  0
 13 22  2  0  0  0  0
 14 24  2  0  0  0  0
 14 25  1  0  0  0  0
 15 26  1  0  0  0  0
 16 26  1  0  0  0  0
 16 27  2  0  0  0  0
 16 31  1  0  0  0  0
 17 19  2  0  0  0  0
 17 36  1  0  0  0  0
 18 20  2  0  0  0  0
 18 37  1  0  0  0  0
 19 45  1  0  0  0  0
 20 38  1  0  0  0  0
 21 81  1  0  0  0  0
 22 82  1  0  0  0  0
 23 25  2  0  0  0  0
 23 81  1  0  0  0  0
 24 83  1  0  0  0  0
 25 84  1  0  0  0  0
 26 63  2  0  0  0  0
 27 65  1  0  0  0  0
 27 69  1  0  0  0  0
 28 29  2  0  0  0  0
 28 30  1  0  0  0  0
 28 85  1  0  0  0  0
 29 71  1  0  0  0  0
 29 89  1  0  0  0  0
 30 64  2  0  0  0  0
 30 66  1  0  0  0  0
 31 70  1  0  0  0  0
 31 76  2  0  0  0  0
 32 46  1  0  0  0  0
 32 72  1  0  0  0  0
 32 77  2  0  0  0  0
 33 57  1  0  0  0  0
 33 67  1  0  0  0  0
 33 78  2  0  0  0  0
 34 58  1  0  0  0  0
 34 73  1  0  0  0  0
 34 79  2  0  0  0  0
 35 68  1  0  0  0  0
 35 71  1  0  0  0  0
 35 80  2  0  0  0  0
 36 39  1  0  0  0  0
 37 46  1  0  0  0  0
 38 67  1  0  0  0  0
 39 41  1  0  0  0  0
 40 42  1  0  0  0  0
 40 43  1  0  0  0  0
 41 45  1  0  0  0  0
 42 47  1  0  0  0  0
 43 68  1  0  0  0  0
 44 47  1  0  0  0  0
 44 68  1  0  0  0  0
 45 72  1  0  0  0  0
 46 67  1  0  0  0  0
 47 65  1  0  0  0  0
 48 58  1  0  0  0  0
 49 59  1  0  0  0  0
 50 61  1  0  0  0  0
 51 61  1  0  0  0  0
 52 61  1  0  0  0  0
 53 64  1  0  0  0  0
 54 75  1  0  0  0  0
 55 59  1  0  0  0  0
 55 82  1  0  0  0  0
 56 66  1  0  0  0  0
 56 74  1  0  0  0  0
 57 61  1  0  0  0  0
 57 73  1  0  0  0  0
 58 75  1  0  0  0  0
 59 60  1  0  0  0  0
 60 62  1  0  0  0  0
 60 74  1  0  0  0  0
 62 86  1  0  0  0  0
 62 87  1  0  0  0  0
 62 88  1  0  0  0  0
 63 65  1  0  0  0  0
 66 89  1  0  0  0  0
M  CHG  1  75   1
M  ISO  4  35 100  55 101  71 100  82 101
M  END
> <Batch ID>
0185

> <Smiles>
CN=c1c(F)c([100NH:0][100C:0](=O)N2CCCC(n3nc(-c4ccc(Oc5ccc(F)cc5F)cc4)c(C(N)=O)c3N)C2)sn1CNC(C(C)[101CH2:1][101O:1]c1ccc2c(c1)CN(C(=O)C(NC(=O)C(C)NC)C(C)(C)C)C(C(=O)NC1CCCc3ccccc31)C2)C(F)(F)F

> <Shape>
0.267

> <Color>
0.081

> <Negative vol penalty>
0.000

$$$$

  -OEChem-04052305053D

 85 93  0     1  0  0  0  0  0999 V2000
  -19.6196  -11.2048   21.4791 C   0  0  0  0  0  0  0  0  0  0  0  0
  -20.0729  -12.2884   22.2247 C   0  0  0  0  0  0  0  0  0  0  0  0
  -19.6563  -28.6725   21.5573 C   0  0  0  0  0  0  0  0  0  0  0  0
  -20.7198  -27.1704   23.1225 C   0  0  0  0  0  0  0  0  0  0  0  0
  -20.5349  -10.3347   20.8884 C   0  0  0  0  0  0  0  0  0  0  0  0
  -21.4420  -12.5017   22.3809 C   0  0  0  0  0  0  0  0  0  0  0  0
  -24.3089  -17.9015   22.7406 C   0  0  0  0  0  0  0  0  0  0  0  0
  -18.4045  -28.2797   22.0309 C   0  0  0  0  0  0  0  0  0  0  0  0
  -19.4680  -26.7776   23.5961 C   0  0  0  0  0  0  0  0  0  0  0  0
  -24.7684  -18.6492   23.8239 C   0  0  0  0  0  0  0  0  0  0  0  0
  -14.9177  -27.4059   22.5812 C   0  0  0  0  0  0  0  0  0  0  0  0
  -13.9249  -27.1286   21.6416 C   0  0  0  0  0  0  0  0  0  0  0  0
  -26.9694  -17.7054   23.5340 C   0  0  0  0  0  0  0  0  0  0  0  0
  -27.8037  -23.3759   21.2432 C   0  0  0  0  0  0  0  0  0  0  0  0
  -15.3056  -25.3854   20.6971 C   0  0  0  0  0  0  0  0  0  0  0  0
  -29.6847  -22.4586   19.4921 C   0  0  0  0  0  0  0  0  0  0  0  0
  -20.8140  -28.1178   22.1031 C   0  0  0  0  0  0  0  0  0  0  0  0
  -22.9029  -29.5820   22.0902 C   0  0  0  0  0  0  0  0  0  0  0  0
  -21.9160  -10.5431   21.0295 C   0  0  0  0  0  0  0  0  0  0  0  0
  -25.1750  -17.0405   22.0515 C   0  0  0  0  0  0  0  0  0  0  0  0
  -22.3767  -11.6328   21.7927 C   0  0  0  0  0  0  0  0  0  0  0  0
  -26.5190  -16.9498   22.4406 C   0  0  0  0  0  0  0  0  0  0  0  0
  -28.7676  -22.4772   21.6865 C   0  0  0  0  0  0  0  0  0  0  0  0
  -29.7296  -22.0050   20.8006 C   0  0  0  0  0  0  0  0  0  0  0  0
  -18.3103  -27.3323   23.0503 C   0  0  0  0  0  0  0  0  0  0  0  0
  -26.0981  -18.5491   24.2225 C   0  0  0  0  0  0  0  0  0  0  0  0
  -16.1046  -26.6730   22.5788 C   0  0  0  0  0  0  0  0  0  0  0  0
  -14.1188  -26.1184   20.6995 C   0  0  0  0  0  0  0  0  0  0  0  0
  -16.2985  -25.6627   21.6368 C   0  0  0  0  0  0  0  0  0  0  0  0
  -22.1073  -28.5228   21.6139 C   0  0  0  0  0  0  0  0  0  0  0  0
  -27.8451  -23.7683   19.9150 C   0  0  0  0  0  0  0  0  0  0  0  0
  -24.0252  -29.5511   21.2991 C   0  0  0  0  0  0  0  0  0  0  0  0
  -22.6499  -30.5109   23.1527 C   0  0  0  0  0  0  0  0  0  0  0  0
  -25.2780  -13.9061   21.5328 C   0  0  0  0  0  0  0  0  0  0  0  0
  -27.7680  -14.6997   19.6113 C   0  0  0  0  0  0  0  0  0  0  0  0
  -27.8578  -22.4404   24.0350 C   0  0  0  0  0  0  0  0  0  0  0  0
  -30.2429  -16.9211   18.8448 C   0  0  0  0  0  0  0  0  0  0  0  0
  -26.7099  -25.2115   18.1902 C   0  0  0  0  0  0  0  0  0  0  0  0
  -22.8670   -9.5486   20.4120 C   0  0  0  0  0  0  0  0  0  0  0  0
  -24.6703  -16.2609   20.8683 C   0  0  0  0  0  0  0  0  0  0  0  0
  -27.4942  -16.0553   21.7214 C   0  0  0  0  0  0  0  0  0  0  0  0
  -24.3023  -10.0588   20.3131 C   0  0  0  0  0  0  0  0  0  0  0  0
  -25.4812  -28.2992   16.9120 C   0  0  0  0  0  0  0  0  0  0  0  0
  -24.7325  -10.7006   21.6284 C   0  0  0  0  0  0  0  0  0  0  0  0
  -24.5537  -28.8063   18.0187 C   0  0  0  0  0  0  0  0  0  0  0  0
  -25.4119  -26.7801   16.7656 C   0  0  0  0  0  0  0  0  0  0  0  0
  -24.7055  -26.5332   19.1128 C   0  0  0  0  0  0  0  0  0  0  0  0
  -23.8542  -11.9118   21.9644 C   0  0  1  0  0  0  0  0  0  0  0  0
  -25.5143  -15.0277   20.5613 C   0  0  1  0  0  0  0  0  0  0  0  0
  -24.7894  -28.0512   19.3415 C   0  0  2  0  0  0  0  0  0  0  0  0
  -29.2142  -22.5575   26.1659 C   0  0  0  0  0  0  0  0  0  0  0  0
  -32.1354  -17.9441   17.5529 C   0  0  0  0  0  0  0  0  0  0  0  0
  -29.4383  -12.6560   21.1421 C   0  0  0  0  0  0  0  0  0  0  0  0
  -31.4916  -13.7150   20.1773 C   0  0  0  0  0  0  0  0  0  0  0  0
  -29.8070  -12.6620   18.6686 C   0  0  0  0  0  0  0  0  0  0  0  0
  -28.3914  -18.4865   17.1476 C   0  0  0  0  0  0  0  0  0  0  0  0
  -26.9044  -21.4857   26.1861 C   0  0  0  0  0  0  0  0  0  0  0  0
  -25.9142  -20.5321   25.5224 C   0  0  0  0  0  0  0  0  0  1  0  0
  -29.2577  -14.8548   19.8009 C   0  0  1  0  0  0  0  0  0  0  0  0
  -28.1803  -21.7597   25.3716 C   0  0  1  0  0  0  0  0  0  0  0  0
  -30.6705  -17.5366   17.5247 C   0  0  2  0  0  0  0  0  0  0  0  0
  -29.9801  -13.4874   19.9622 C   0  0  0  0  0  0  0  0  0  0  0  0
  -28.7639  -23.3312   19.0248 N   0  0  0  0  0  0  0  0  0  0  0  0
  -22.6760  -27.8668   20.5988 N   0  0  0  0  0  0  0  0  0  0  0  0
  -23.8408  -28.5157   20.4307 N   0  0  0  0  0  0  0  0  0  0  0  0
  -26.9513  -15.3086   20.5746 N   0  0  0  0  0  0  0  0  0  0  0  0
  -25.6490  -26.1322   18.0574 N   0  0  0  0  0  0  0  0  0  0  0  0
  -30.7255  -21.0947   21.1989 N   0  0  0  0  0  0  0  0  0  0  0  0
  -25.1421  -30.3089   21.2686 N   0  0  0  0  0  0  0  0  0  0  0  0
  -21.4471  -30.4013   23.8637 N   0  0  0  0  0  0  0  0  0  0  0  0
  -28.7507  -22.0581   23.0381 N   0  0  0  0  0  0  0  0  0  0  0  0
  -26.8587  -24.6843   19.4726 N   0  0  0  0  0  0  0  0  0  0  0  0
  -24.2487  -13.0574   21.1729 N   0  0  0  0  0  0  0  0  0  0  0  0
  -29.7317  -15.6518   18.6747 N   0  0  0  0  0  0  0  0  0  0  0  0
  -29.8520  -18.7461   17.2279 N   0  3  0  0  0  0  0  0  0  0  0  0
  -23.4591  -31.4216   23.4517 O   0  0  0  0  0  0  0  0  0  0  0  0
  -25.9788  -13.8165   22.5342 O   0  0  0  0  0  0  0  0  0  0  0  0
  -27.3446  -14.0678   18.6402 O   0  0  0  0  0  0  0  0  0  0  0  0
  -26.9130  -23.2162   23.9218 O   0  0  0  0  0  0  0  0  0  0  0  0
  -30.3547  -17.5061   19.9199 O   0  0  0  0  0  0  0  0  0  0  0  0
  -27.4500  -24.9333   17.2432 O   0  0  0  0  0  0  0  0  0  0  0  0
  -17.0890  -26.9489   23.5129 O   0  0  0  0  0  0  0  0  0  0  0  0
  -26.5490  -19.2773   25.2800 O   0  0  0  0  0  0  0  0  0  1  0  0
  -13.1647  -25.8512   19.7982 F   0  0  0  0  0  0  0  0  0  0  0  0
  -17.4361  -24.9544   21.6303 F   0  0  0  0  0  0  0  0  0  0  0  0
  1  2  1  0  0  0  0
  1  5  2  0  0  0  0
  2  6  2  0  0  0  0
  3  8  2  0  0  0  0
  3 17  1  0  0  0  0
  4  9  1  0  0  0  0
  4 17  2  0  0  0  0
  5 19  1  0  0  0  0
  6 21  1  0  0  0  0
  7 10  2  0  0  0  0
  7 20  1  0  0  0  0
  8 25  1  0  0  0  0
  9 25  2  0  0  0  0
 10 26  1  0  0  0  0
 11 12  2  0  0  0  0
 11 27  1  0  0  0  0
 12 28  1  0  0  0  0
 13 22  1  0  0  0  0
 13 26  2  0  0  0  0
 14 23  1  0  0  0  0
 14 31  2  0  0  0  0
 15 28  2  0  0  0  0
 15 29  1  0  0  0  0
 16 24  1  0  0  0  0
 16 63  2  0  0  0  0
 17 30  1  0  0  0  0
 18 30  1  0  0  0  0
 18 32  2  0  0  0  0
 18 33  1  0  0  0  0
 19 21  2  0  0  0  0
 19 39  1  0  0  0  0
 20 22  2  0  0  0  0
 20 40  1  0  0  0  0
 21 48  1  0  0  0  0
 22 41  1  0  0  0  0
 23 24  2  0  0  0  0
 23 71  1  0  0  0  0
 24 68  1  0  0  0  0
 25 82  1  0  0  0  0
 26 83  1  0  0  0  0
 27 29  2  0  0  0  0
 27 82  1  0  0  0  0
 28 84  1  0  0  0  0
 29 85  1  0  0  0  0
 30 64  2  0  0  0  0
 31 63  1  0  0  0  0
 31 72  1  0  0  0  0
 32 65  1  0  0  0  0
 32 69  1  0  0  0  0
 33 70  1  0  0  0  0
 33 76  2  0  0  0  0
 34 49  1  0  0  0  0
 34 73  1  0  0  0  0
 34 77  2  0  0  0  0
 35 59  1  0  0  0  0
 35 66  1  0  0  0  0
 35 78  2  0  0  0  0
 36 60  1  0  0  0  0
 36 71  1  0  0  0  0
 36 79  2  0  0  0  0
 37 61  1  0  0  0  0
 37 74  1  0  0  0  0
 37 80  2  0  0  0  0
 38 67  1  0  0  0  0
 38 72  1  0  0  0  0
 38 81  2  0  0  0  0
 39 42  1  0  0  0  0
 40 49  1  0  0  0  0
 41 66  1  0  0  0  0
 42 44  1  0  0  0  0
 43 45  1  0  0  0  0
 43 46  1  0  0  0  0
 44 48  1  0  0  0  0
 45 50  1  0  0  0  0
 46 67  1  0  0  0  0
 47 50  1  0  0  0  0
 47 67  1  0  0  0  0
 48 73  1  0  0  0  0
 49 66  1  0  0  0  0
 50 65  1  0  0  0  0
 51 60  1  0  0  0  0
 52 61  1  0  0  0  0
 53 62  1  0  0  0  0
 54 62  1  0  0  0  0
 55 62  1  0  0  0  0
 56 75  1  0  0  0  0
 57 58  1  0  0  0  0
 57 60  1  0  0  0  0
 58 83  1  0  0  0  0
 59 62  1  0  0  0  0
 59 74  1  0  0  0  0
 61 75  1  0  0  0  0
 64 65  1  0  0  0  0
M  CHG  1  75   1
M  ISO  4  38 100  58 101  72 100  83 101
M  END
> <Batch ID>
0185

> <Smiles>
CNC(C)C(=O)NC(C(=O)N1Cc2cc([101O:1][101CH2:1]CC(C)C(=O)Nc3cc([100NH:0][100C:0](=O)N4CCCC(n5nc(-c6ccc(Oc7ccc(F)cc7F)cc6)c(C(N)=O)c5N)C4)ncc3N)ccc2CC1C(=O)NC1CCCc2ccccc21)C(C)(C)C

> <Shape>
0.245

> <Color>
0.061

> <Negative vol penalty>
0.000

$$$$

  -OEChem-04052305053D

 83 91  0     1  0  0  0  0  0999 V2000
  -23.5729  -35.6979   15.8338 C   0  0  0  0  0  0  0  0  0  0  0  0
  -24.1404  -34.4280   15.8078 C   0  0  0  0  0  0  0  0  0  0  0  0
  -27.7185  -10.3029   21.5816 C   0  0  0  0  0  0  0  0  0  0  0  0
  -25.9622  -11.7459   20.7629 C   0  0  0  0  0  0  0  0  0  0  0  0
  -23.6691  -36.4798   16.9842 C   0  0  0  0  0  0  0  0  0  0  0  0
  -24.8055  -33.9396   16.9319 C   0  0  0  0  0  0  0  0  0  0  0  0
  -24.9766  -28.1345   18.8753 C   0  0  0  0  0  0  0  0  0  0  0  0
  -26.7811   -9.5811   22.3205 C   0  0  0  0  0  0  0  0  0  0  0  0
  -25.0248  -11.0241   21.5018 C   0  0  0  0  0  0  0  0  0  0  0  0
  -25.9250  -27.1233   18.7271 C   0  0  0  0  0  0  0  0  0  0  0  0
  -22.1175   -9.3384   22.8890 C   0  0  0  0  0  0  0  0  0  0  0  0
  -20.9230   -8.9899   22.2588 C   0  0  0  0  0  0  0  0  0  0  0  0
  -26.8486  -27.6817   20.8845 C   0  0  0  0  0  0  0  0  0  0  0  0
  -22.1618   -7.7469   20.5982 C   0  0  0  0  0  0  0  0  0  0  0  0
  -27.3091  -11.3853   20.8028 C   0  0  0  0  0  0  0  0  0  0  0  0
  -28.6903  -11.8844   18.7170 C   0  0  0  0  0  0  0  0  0  0  0  0
  -24.3273  -35.9969   18.1262 C   0  0  0  0  0  0  0  0  0  0  0  0
  -24.9640  -28.9354   20.0264 C   0  0  0  0  0  0  0  0  0  0  0  0
  -24.9117  -34.7163   18.0982 C   0  0  0  0  0  0  0  0  0  0  0  0
  -25.8975  -28.7007   21.0460 C   0  0  0  0  0  0  0  0  0  0  0  0
  -25.4343   -9.9417   22.2805 C   0  0  0  0  0  0  0  0  0  0  0  0
  -26.8630  -26.8987   19.7305 C   0  0  0  0  0  0  0  0  0  0  0  0
  -23.3342   -8.8913   22.3739 C   0  0  0  0  0  0  0  0  0  0  0  0
  -20.9451   -8.1941   21.1134 C   0  0  0  0  0  0  0  0  0  0  0  0
  -23.3564   -8.0955   21.2285 C   0  0  0  0  0  0  0  0  0  0  0  0
  -28.2770  -12.1316   20.0398 C   0  0  0  0  0  0  0  0  0  0  0  0
  -28.6710  -19.7570   19.7058 C   0  0  0  0  0  0  0  0  0  0  0  0
  -29.6160  -12.8653   18.4575 C   0  0  0  0  0  0  0  0  0  0  0  0
  -27.4094  -19.8652   19.1592 C   0  0  0  0  0  0  0  0  0  0  0  0
  -28.6440  -21.9233   19.3645 C   0  0  0  0  0  0  0  0  0  0  0  0
  -28.2745  -10.8598   17.8043 C   0  0  0  0  0  0  0  0  0  0  0  0
  -25.3481  -32.0372   20.6051 C   0  0  0  0  0  0  0  0  0  0  0  0
  -24.5388  -31.1758   23.6260 C   0  0  0  0  0  0  0  0  0  0  0  0
  -24.3665  -28.7215   25.9911 C   0  0  0  0  0  0  0  0  0  0  0  0
  -30.1675  -23.8989   19.7010 C   0  0  0  0  0  0  0  0  0  0  0  0
  -30.5025  -18.3358   20.6918 C   0  0  0  0  0  0  0  0  0  0  0  0
  -24.4467  -36.8972   19.3303 C   0  0  0  0  0  0  0  0  0  0  0  0
  -23.9177  -30.0046   20.1828 C   0  0  0  0  0  0  0  0  0  0  0  0
  -25.9136  -29.5194   22.3102 C   0  0  0  0  0  0  0  0  0  0  0  0
  -24.8434  -36.1587   20.6061 C   0  0  0  0  0  0  0  0  0  0  0  0
  -32.8377  -15.6484   20.6505 C   0  0  0  0  0  0  0  0  0  0  0  0
  -26.0075  -35.2111   20.3343 C   0  0  0  0  0  0  0  0  0  0  0  0
  -31.9716  -14.4199   20.3628 C   0  0  0  0  0  0  0  0  0  0  0  0
  -32.1173  -16.6525   21.5485 C   0  0  0  0  0  0  0  0  0  0  0  0
  -29.9206  -15.8325   20.7928 C   0  0  0  0  0  0  0  0  0  0  0  0
  -25.6198  -34.1417   19.3059 C   0  0  1  0  0  0  0  0  0  0  0  0
  -24.3216  -31.0960   21.1692 C   0  0  1  0  0  0  0  0  0  0  0  0
  -30.5790  -14.8224   19.8390 C   0  0  2  0  0  0  0  0  0  0  0  0
  -23.6955  -28.3287   28.3770 C   0  0  0  0  0  0  0  0  0  0  0  0
  -27.0960  -32.5480   24.5684 C   0  0  0  0  0  0  0  0  0  0  0  0
  -26.8650  -31.3301   26.7437 C   0  0  0  0  0  0  0  0  0  0  0  0
  -25.1023  -32.9427   26.0258 C   0  0  0  0  0  0  0  0  0  0  0  0
  -22.3050  -26.7477   25.2080 C   0  0  0  0  0  0  0  0  0  0  0  0
  -29.0515  -26.1104   20.2256 C   0  0  0  0  0  0  0  0  0  1  0  0
  -25.2989  -30.7151   24.8462 C   0  0  1  0  0  0  0  0  0  0  0  0
  -23.2463  -28.2990   26.9244 C   0  0  2  0  0  0  0  0  0  0  0  0
  -30.1483  -25.4038   19.4363 C   0  0  1  0  0  0  0  0  0  0  0  0
  -26.0917  -31.8697   25.5215 C   0  0  0  0  0  0  0  0  0  0  0  0
  -28.8901  -13.1867   20.5829 N   0  0  0  0  0  0  0  0  0  0  0  0
  -29.3806  -20.9361   19.8239 N   0  0  0  0  0  0  0  0  0  0  0  0
  -29.6980  -13.6112   19.5964 N   0  0  0  0  0  0  0  0  0  0  0  0
  -24.8744  -30.5571   22.4134 N   0  0  0  0  0  0  0  0  0  0  0  0
  -30.8075  -16.9903   20.9872 N   0  0  0  0  0  0  0  0  0  0  0  0
  -30.3598  -13.1539   17.3685 N   0  0  0  0  0  0  0  0  0  0  0  0
  -27.3143   -9.9330   18.2327 N   0  0  0  0  0  0  0  0  0  0  0  0
  -29.2405  -18.5315   20.1318 N   0  0  0  0  0  0  0  0  0  0  0  0
  -28.9814  -23.2960   19.2961 N   0  0  0  0  0  0  0  0  0  0  0  0
  -24.8111  -33.1141   19.9259 N   0  0  0  0  0  0  0  0  0  0  0  0
  -24.3212  -30.0722   25.7175 N   0  0  0  0  0  0  0  0  0  0  0  0
  -22.7958  -26.9160   26.6000 N   0  3  0  0  0  0  0  0  0  0  0  0
  -28.7526  -10.7589   16.6490 O   0  0  0  0  0  0  0  0  0  0  0  0
  -26.5392  -31.8044   20.7750 O   0  0  0  0  0  0  0  0  0  0  0  0
  -23.6741  -32.0474   23.7455 O   0  0  0  0  0  0  0  0  0  0  0  0
  -25.2006  -27.9330   25.5517 O   0  0  0  0  0  0  0  0  0  0  0  0
  -31.1493  -23.3526   20.1958 O   0  0  0  0  0  0  0  0  0  0  0  0
  -31.3125  -19.2442   20.8938 O   0  0  0  0  0  0  0  0  0  0  0  0
  -31.4006  -25.9653   19.7959 O   0  0  0  0  0  0  0  0  0  0  0  0
  -24.5192   -9.2375   23.0012 O   0  0  0  0  0  0  0  0  0  0  0  0
  -27.7901  -25.9128   19.5881 O   0  0  0  0  0  0  0  0  0  1  0  0
  -19.7979   -7.8583   20.5091 F   0  0  0  0  0  0  0  0  0  0  0  0
  -24.5221   -7.6619   20.7296 F   0  0  0  0  0  0  0  0  0  0  0  0
  -26.5618  -18.8527   18.9574 F   0  0  0  0  0  0  0  0  0  0  0  0
  -27.0873  -21.5054   18.7756 S   0  0  0  0  0  0  0  0  0  0  0  0
  1  2  1  0  0  0  0
  1  5  2  0  0  0  0
  2  6  2  0  0  0  0
  3  8  2  0  0  0  0
  3 15  1  0  0  0  0
  4  9  1  0  0  0  0
  4 15  2  0  0  0  0
  5 17  1  0  0  0  0
  6 19  1  0  0  0  0
  7 10  2  0  0  0  0
  7 18  1  0  0  0  0
  8 21  1  0  0  0  0
  9 21  2  0  0  0  0
 10 22  1  0  0  0  0
 11 12  2  0  0  0  0
 11 23  1  0  0  0  0
 12 24  1  0  0  0  0
 13 20  1  0  0  0  0
 13 22  2  0  0  0  0
 14 24  2  0  0  0  0
 14 25  1  0  0  0  0
 15 26  1  0  0  0  0
 16 26  1  0  0  0  0
 16 28  2  0  0  0  0
 16 31  1  0  0  0  0
 17 19  2  0  0  0  0
 17 37  1  0  0  0  0
 18 20  2  0  0  0  0
 18 38  1  0  0  0  0
 19 46  1  0  0  0  0
 20 39  1  0  0  0  0
 21 78  1  0  0  0  0
 22 79  1  0  0  0  0
 23 25  2  0  0  0  0
 23 78  1  0  0  0  0
 24 80  1  0  0  0  0
 25 81  1  0  0  0  0
 26 59  2  0  0  0  0
 27 29  2  0  0  0  0
 27 60  1  0  0  0  0
 27 66  1  0  0  0  0
 28 61  1  0  0  0  0
 28 64  1  0  0  0  0
 29 82  1  0  0  0  0
 29 83  1  0  0  0  0
 30 60  2  0  0  0  0
 30 67  1  0  0  0  0
 30 83  1  0  0  0  0
 31 65  1  0  0  0  0
 31 71  2  0  0  0  0
 32 47  1  0  0  0  0
 32 68  1  0  0  0  0
 32 72  2  0  0  0  0
 33 55  1  0  0  0  0
 33 62  1  0  0  0  0
 33 73  2  0  0  0  0
 34 56  1  0  0  0  0
 34 69  1  0  0  0  0
 34 74  2  0  0  0  0
 35 57  1  0  0  0  0
 35 67  1  0  0  0  0
 35 75  2  0  0  0  0
 36 63  1  0  0  0  0
 36 66  1  0  0  0  0
 36 76  2  0  0  0  0
 37 40  1  0  0  0  0
 38 47  1  0  0  0  0
 39 62  1  0  0  0  0
 40 42  1  0  0  0  0
 41 43  1  0  0  0  0
 41 44  1  0  0  0  0
 42 46  1  0  0  0  0
 43 48  1  0  0  0  0
 44 63  1  0  0  0  0
 45 48  1  0  0  0  0
 45 63  1  0  0  0  0
 46 68  1  0  0  0  0
 47 62  1  0  0  0  0
 48 61  1  0  0  0  0
 49 56  1  0  0  0  0
 50 58  1  0  0  0  0
 51 58  1  0  0  0  0
 52 58  1  0  0  0  0
 53 70  1  0  0  0  0
 54 57  1  0  0  0  0
 54 79  1  0  0  0  0
 55 58  1  0  0  0  0
 55 69  1  0  0  0  0
 56 70  1  0  0  0  0
 57 77  1  0  0  0  0
 59 61  1  0  0  0  0
M  CHG  1  70   1
M  ISO  4  36 100  54 101  66 100  79 101
M  END
> <Batch ID>
0185

> <Smiles>
CNC(C)C(=O)NC(C(=O)N1Cc2cc([101O:1][101CH2:1]C(O)C(=O)Nc3nc([100NH:0][100C:0](=O)N4CCCC(n5nc(-c6ccc(Oc7ccc(F)cc7F)cc6)c(C(N)=O)c5N)C4)c(F)s3)ccc2CC1C(=O)NC1CCCc2ccccc21)C(C)(C)C

> <Shape>
0.307

> <Color>
0.107

> <Negative vol penalty>
0.000

$$$$

  -OEChem-04052305053D

 81 89  0     1  0  0  0  0  0999 V2000
  -16.9803  -30.3435   23.5009 C   0  0  0  0  0  0  0  0  0  0  0  0
  -18.2695  -30.8309   23.3117 C   0  0  0  0  0  0  0  0  0  0  0  0
  -23.6074  -14.0076   21.0005 C   0  0  0  0  0  0  0  0  0  0  0  0
  -25.0228  -14.1131   22.9556 C   0  0  0  0  0  0  0  0  0  0  0  0
  -16.7508  -28.9683   23.5120 C   0  0  0  0  0  0  0  0  0  0  0  0
  -19.3302  -29.9433   23.1346 C   0  0  0  0  0  0  0  0  0  0  0  0
  -25.5846  -29.3334   19.6956 C   0  0  0  0  0  0  0  0  0  0  0  0
  -23.1094  -12.7767   21.4274 C   0  0  0  0  0  0  0  0  0  0  0  0
  -24.5247  -12.8822   23.3827 C   0  0  0  0  0  0  0  0  0  0  0  0
  -26.9237  -29.0326   19.9407 C   0  0  0  0  0  0  0  0  0  0  0  0
  -24.1122   -9.5489   21.4276 C   0  0  0  0  0  0  0  0  0  0  0  0
  -24.0058   -8.5300   20.4809 C   0  0  0  0  0  0  0  0  0  0  0  0
  -26.3963  -26.6790   19.8994 C   0  0  0  0  0  0  0  0  0  0  0  0
  -21.6244   -8.4151   20.8722 C   0  0  0  0  0  0  0  0  0  0  0  0
  -30.0197  -22.7366   21.8244 C   0  0  0  0  0  0  0  0  0  0  0  0
  -31.6384  -23.7182   20.6963 C   0  0  0  0  0  0  0  0  0  0  0  0
  -24.5642  -14.6758   21.7645 C   0  0  0  0  0  0  0  0  0  0  0  0
  -24.5673  -17.2230   21.6259 C   0  0  0  0  0  0  0  0  0  0  0  0
  -17.8078  -28.0636   23.3253 C   0  0  0  0  0  0  0  0  0  0  0  0
  -24.6378  -28.3078   19.5611 C   0  0  0  0  0  0  0  0  0  0  0  0
  -19.1149  -28.5547   23.1446 C   0  0  0  0  0  0  0  0  0  0  0  0
  -25.0463  -26.9694   19.6500 C   0  0  0  0  0  0  0  0  0  0  0  0
  -23.5679  -12.2140   22.6186 C   0  0  0  0  0  0  0  0  0  0  0  0
  -27.3293  -27.7053   20.0456 C   0  0  0  0  0  0  0  0  0  0  0  0
  -22.9747  -10.0009   22.0966 C   0  0  0  0  0  0  0  0  0  0  0  0
  -22.7619   -7.9632   20.2032 C   0  0  0  0  0  0  0  0  0  0  0  0
  -21.7309   -9.4340   21.8190 C   0  0  0  0  0  0  0  0  0  0  0  0
  -25.0796  -15.9471   21.3237 C   0  0  0  0  0  0  0  0  0  0  0  0
  -30.5013  -21.9236   20.8256 C   0  0  0  0  0  0  0  0  0  0  0  0
  -25.4058  -18.0932   20.9730 C   0  0  0  0  0  0  0  0  0  0  0  0
  -23.4348  -17.5890   22.4254 C   0  0  0  0  0  0  0  0  0  0  0  0
  -22.0203  -27.4493   21.1471 C   0  0  0  0  0  0  0  0  0  0  0  0
  -30.2008  -26.3373   21.7921 C   0  0  0  0  0  0  0  0  0  0  0  0
  -21.7262  -25.3107   18.7259 C   0  0  0  0  0  0  0  0  0  0  0  0
  -23.2392  -23.4969   16.2626 C   0  0  0  0  0  0  0  0  0  0  0  0
  -30.5124  -19.7699   19.5189 C   0  0  0  0  0  0  0  0  0  0  0  0
  -17.5182  -26.5849   23.3925 C   0  0  0  0  0  0  0  0  0  0  0  0
  -23.2019  -28.6483   19.2703 C   0  0  0  0  0  0  0  0  0  0  0  0
  -24.0726  -25.8310   19.4932 C   0  0  0  0  0  0  0  0  0  0  0  0
  -18.6387  -25.7183   22.8236 C   0  0  0  0  0  0  0  0  0  0  0  0
  -29.0096  -17.2320   17.5243 C   0  0  0  0  0  0  0  0  0  0  0  0
  -19.9926  -26.1814   23.3523 C   0  0  0  0  0  0  0  0  0  0  0  0
  -27.8110  -16.7765   18.3598 C   0  0  0  0  0  0  0  0  0  0  0  0
  -30.2149  -17.5713   18.3995 C   0  0  0  0  0  0  0  0  0  0  0  0
  -28.7493  -18.0746   20.3147 C   0  0  0  0  0  0  0  0  0  0  0  0
  -20.2878  -27.6241   22.9244 C   0  0  1  0  0  0  0  0  0  0  0  0
  -22.2331  -27.5369   19.6622 C   0  0  1  0  0  0  0  0  0  0  0  0
  -27.4904  -17.7838   19.4814 C   0  0  2  0  0  0  0  0  0  0  0  0
  -31.8800  -25.4476   23.4111 C   0  0  0  0  0  0  0  0  0  0  0  0
  -22.7450  -21.8085   14.4731 C   0  0  0  0  0  0  0  0  0  0  0  0
  -21.5178  -23.1272   20.8469 C   0  0  0  0  0  0  0  0  0  0  0  0
  -21.9821  -21.4403   19.0561 C   0  0  0  0  0  0  0  0  0  0  0  0
  -19.9403  -22.8674   18.9238 C   0  0  0  0  0  0  0  0  0  0  0  0
  -24.1585  -25.3236   14.1232 C   0  0  0  0  0  0  0  0  0  0  0  0
  -28.9071  -26.2092   21.0088 C   0  0  0  0  0  0  0  0  0  1  0  0
  -30.6225  -25.1149   22.6065 C   0  0  2  0  0  0  0  0  0  0  0  0
  -22.2052  -23.9001   18.4813 C   0  0  1  0  0  0  0  0  0  0  0  0
  -22.8819  -23.2869   14.8023 C   0  0  2  0  0  0  0  0  0  0  0  0
  -21.4296  -22.8550   19.3320 C   0  0  0  0  0  0  0  0  0  0  0  0
  -31.5089  -22.5403   20.1272 N   0  0  0  0  0  0  0  0  0  0  0  0
  -26.1598  -15.9976   20.5397 N   0  0  0  0  0  0  0  0  0  0  0  0
  -30.7580  -23.8824   21.7294 N   0  0  0  0  0  0  0  0  0  0  0  0
  -26.3330  -17.3158   20.3436 N   0  0  0  0  0  0  0  0  0  0  0  0
  -22.6787  -26.2153   19.2161 N   0  0  0  0  0  0  0  0  0  0  0  0
  -29.8369  -18.5338   19.4366 N   0  0  0  0  0  0  0  0  0  0  0  0
  -25.4330  -19.4397   20.8815 N   0  0  0  0  0  0  0  0  0  0  0  0
  -22.6823  -16.5696   23.0243 N   0  0  0  0  0  0  0  0  0  0  0  0
  -30.0447  -20.6167   20.5232 N   0  0  0  0  0  0  0  0  0  0  0  0
  -20.7135  -27.6641   21.5418 N   0  0  0  0  0  0  0  0  0  0  0  0
  -22.1166  -23.6828   17.0414 N   0  0  0  0  0  0  0  0  0  0  0  0
  -23.9348  -23.8687   13.9226 N   0  3  0  0  0  0  0  0  0  0  0  0
  -23.0904  -18.7840   22.5900 O   0  0  0  0  0  0  0  0  0  0  0  0
  -22.9710  -27.2036   21.8802 O   0  0  0  0  0  0  0  0  0  0  0  0
  -30.8578  -27.3786   21.7821 O   0  0  0  0  0  0  0  0  0  0  0  0
  -20.5520  -25.6011   18.4839 O   0  0  0  0  0  0  0  0  0  0  0  0
  -24.3980  -23.4925   16.6722 O   0  0  0  0  0  0  0  0  0  0  0  0
  -31.4194  -20.0670   18.7372 O   0  0  0  0  0  0  0  0  0  0  0  0
  -23.0819  -11.0130   23.0356 O   0  0  0  0  0  0  0  0  0  0  0  0
  -28.6356  -27.4089   20.2855 O   0  0  0  0  0  0  0  0  0  1  0  0
  -22.6596   -6.9858   19.2930 F   0  0  0  0  0  0  0  0  0  0  0  0
  -20.6344   -9.8649   22.4577 F   0  0  0  0  0  0  0  0  0  0  0  0
  1  2  1  0  0  0  0
  1  5  2  0  0  0  0
  2  6  2  0  0  0  0
  3  8  2  0  0  0  0
  3 17  1  0  0  0  0
  4  9  1  0  0  0  0
  4 17  2  0  0  0  0
  5 19  1  0  0  0  0
  6 21  1  0  0  0  0
  7 10  2  0  0  0  0
  7 20  1  0  0  0  0
  8 23  1  0  0  0  0
  9 23  2  0  0  0  0
 10 24  1  0  0  0  0
 11 12  2  0  0  0  0
 11 25  1  0  0  0  0
 12 26  1  0  0  0  0
 13 22  1  0  0  0  0
 13 24  2  0  0  0  0
 14 26  2  0  0  0  0
 14 27  1  0  0  0  0
 15 29  2  0  0  0  0
 15 62  1  0  0  0  0
 16 60  2  0  0  0  0
 16 62  1  0  0  0  0
 17 28  1  0  0  0  0
 18 28  1  0  0  0  0
 18 30  2  0  0  0  0
 18 31  1  0  0  0  0
 19 21  2  0  0  0  0
 19 37  1  0  0  0  0
 20 22  2  0  0  0  0
 20 38  1  0  0  0  0
 21 46  1  0  0  0  0
 22 39  1  0  0  0  0
 23 78  1  0  0  0  0
 24 79  1  0  0  0  0
 25 27  2  0  0  0  0
 25 78  1  0  0  0  0
 26 80  1  0  0  0  0
 27 81  1  0  0  0  0
 28 61  2  0  0  0  0
 29 60  1  0  0  0  0
 29 68  1  0  0  0  0
 30 63  1  0  0  0  0
 30 66  1  0  0  0  0
 31 67  1  0  0  0  0
 31 72  2  0  0  0  0
 32 47  1  0  0  0  0
 32 69  1  0  0  0  0
 32 73  2  0  0  0  0
 33 55  1  0  0  0  0
 33 56  1  0  0  0  0
 33 74  2  0  0  0  0
 34 57  1  0  0  0  0
 34 64  1  0  0  0  0
 34 75  2  0  0  0  0
 35 58  1  0  0  0  0
 35 70  1  0  0  0  0
 35 76  2  0  0  0  0
 36 65  1  0  0  0  0
 36 68  1  0  0  0  0
 36 77  2  0  0  0  0
 37 40  1  0  0  0  0
 38 47  1  0  0  0  0
 39 64  1  0  0  0  0
 40 42  1  0  0  0  0
 41 43  1  0  0  0  0
 41 44  1  0  0  0  0
 42 46  1  0  0  0  0
 43 48  1  0  0  0  0
 44 65  1  0  0  0  0
 45 48  1  0  0  0  0
 45 65  1  0  0  0  0
 46 69  1  0  0  0  0
 47 64  1  0  0  0  0
 48 63  1  0  0  0  0
 49 56  1  0  0  0  0
 50 58  1  0  0  0  0
 51 59  1  0  0  0  0
 52 59  1  0  0  0  0
 53 59  1  0  0  0  0
 54 71  1  0  0  0  0
 55 79  1  0  0  0  0
 56 62  1  0  0  0  0
 57 59  1  0  0  0  0
 57 70  1  0  0  0  0
 58 71  1  0  0  0  0
 61 63  1  0  0  0  0
M  CHG  1  71   1
M  ISO  4  36 100  55 101  68 100  79 101
M  END
> <Batch ID>
0185

> <Smiles>
CNC(C)C(=O)NC(C(=O)N1Cc2cc([101O:1][101CH2:1]C(=O)C(C)n3cnc([100NH:0][100C:0](=O)N4CCCC(n5nc(-c6ccc(Oc7ccc(F)cc7F)cc6)c(C(N)=O)c5N)C4)c3)ccc2CC1C(=O)NC1CCCc2ccccc21)C(C)(C)C

> <Shape>
0.216

> <Color>
0.075

> <Negative vol penalty>
0.000

$$$$

  -OEChem-04052305053D

 84 92  0     1  0  0  0  0  0999 V2000
  -29.6995  -29.6467   17.1214 C   0  0  0  0  0  0  0  0  0  0  0  0
  -30.1358  -29.0494   18.2997 C   0  0  0  0  0  0  0  0  0  0  0  0
  -23.0753   -9.8693   19.9374 C   0  0  0  0  0  0  0  0  0  0  0  0
  -23.8362   -9.8707   22.2305 C   0  0  0  0  0  0  0  0  0  0  0  0
  -29.4922  -28.8696   15.9825 C   0  0  0  0  0  0  0  0  0  0  0  0
  -30.3641  -27.6744   18.3400 C   0  0  0  0  0  0  0  0  0  0  0  0
  -34.6786  -24.7517   21.5569 C   0  0  0  0  0  0  0  0  0  0  0  0
  -22.3316   -8.7155   20.1849 C   0  0  0  0  0  0  0  0  0  0  0  0
  -23.0924   -8.7169   22.4780 C   0  0  0  0  0  0  0  0  0  0  0  0
  -34.6459  -24.0855   22.7812 C   0  0  0  0  0  0  0  0  0  0  0  0
  -21.1080   -5.9766   23.8089 C   0  0  0  0  0  0  0  0  0  0  0  0
  -20.3523   -5.9302   24.9803 C   0  0  0  0  0  0  0  0  0  0  0  0
  -34.3447  -21.9894   21.6257 C   0  0  0  0  0  0  0  0  0  0  0  0
  -19.1074   -7.8693   24.2540 C   0  0  0  0  0  0  0  0  0  0  0  0
  -31.7887  -17.5756   21.7375 C   0  0  0  0  0  0  0  0  0  0  0  0
  -23.8277  -10.4468   20.9602 C   0  0  0  0  0  0  0  0  0  0  0  0
  -24.1696  -12.9723   20.8462 C   0  0  0  0  0  0  0  0  0  0  0  0
  -29.7274  -27.4858   16.0062 C   0  0  0  0  0  0  0  0  0  0  0  0
  -34.5335  -24.0419   20.3562 C   0  0  0  0  0  0  0  0  0  0  0  0
  -30.1585  -26.8778   17.2008 C   0  0  0  0  0  0  0  0  0  0  0  0
  -34.3785  -22.6487   20.3874 C   0  0  0  0  0  0  0  0  0  0  0  0
  -22.3401   -8.1394   21.4552 C   0  0  0  0  0  0  0  0  0  0  0  0
  -34.4761  -22.7045   22.8158 C   0  0  0  0  0  0  0  0  0  0  0  0
  -20.8636   -6.9694   22.8600 C   0  0  0  0  0  0  0  0  0  0  0  0
  -19.3520   -6.8765   25.2029 C   0  0  0  0  0  0  0  0  0  0  0  0
  -19.8632   -7.9157   23.0825 C   0  0  0  0  0  0  0  0  0  0  0  0
  -24.5967  -11.6383   20.7050 C   0  0  0  0  0  0  0  0  0  0  0  0
  -25.2616  -13.7226   20.4842 C   0  0  0  0  0  0  0  0  0  0  0  0
  -30.5857  -16.9321   21.9401 C   0  0  0  0  0  0  0  0  0  0  0  0
  -30.8291  -19.0684   23.0261 C   0  0  0  0  0  0  0  0  0  0  0  0
  -22.8993  -13.4871   21.2669 C   0  0  0  0  0  0  0  0  0  0  0  0
  -32.4247  -24.0648   17.9779 C   0  0  0  0  0  0  0  0  0  0  0  0
  -34.5160  -21.9882   16.6227 C   0  0  0  0  0  0  0  0  0  0  0  0
  -37.0049  -19.6920   17.0470 C   0  0  0  0  0  0  0  0  0  0  0  0
  -31.8470  -21.4688   25.6557 C   0  0  0  0  0  0  0  0  0  0  0  0
  -30.7279  -14.7676   20.6591 C   0  0  0  0  0  0  0  0  0  0  0  0
  -29.4440  -26.6799   14.7633 C   0  0  0  0  0  0  0  0  0  0  0  0
  -34.5977  -24.7720   19.0428 C   0  0  0  0  0  0  0  0  0  0  0  0
  -34.2385  -21.8379   19.1258 C   0  0  0  0  0  0  0  0  0  0  0  0
  -30.0684  -25.2871   14.7849 C   0  0  0  0  0  0  0  0  0  0  0  0
  -29.6123  -12.3597   18.2854 C   0  0  0  0  0  0  0  0  0  0  0  0
  -29.8068  -24.6056   16.1243 C   0  0  0  0  0  0  0  0  0  0  0  0
  -28.1729  -12.0671   18.7149 C   0  0  0  0  0  0  0  0  0  0  0  0
  -30.5280  -12.5855   19.4872 C   0  0  0  0  0  0  0  0  0  0  0  0
  -28.6217  -13.3066   20.8711 C   0  0  0  0  0  0  0  0  0  0  0  0
  -30.4409  -25.3931   17.2772 C   0  0  1  0  0  0  0  0  0  0  0  0
  -33.9246  -24.0128   17.9036 C   0  0  1  0  0  0  0  0  0  0  0  0
  -27.6483  -13.1363   19.6933 C   0  0  2  0  0  0  0  0  0  0  0  0
  -29.9685  -21.4457   23.0154 C   0  0  0  0  0  0  0  0  0  0  0  0
  -38.4898  -18.1351   15.7554 C   0  0  0  0  0  0  0  0  0  0  0  0
  -32.1740  -20.0684   16.2488 C   0  0  0  0  0  0  0  0  0  0  0  0
  -33.8313  -18.2330   15.8579 C   0  0  0  0  0  0  0  0  0  0  0  0
  -33.7469  -20.1857   14.3079 C   0  0  0  0  0  0  0  0  0  0  0  0
  -39.4540  -21.0624   17.9864 C   0  0  0  0  0  0  0  0  0  0  0  0
  -33.9372  -22.7745   25.1312 C   0  0  0  0  0  0  0  0  0  1  0  0
  -30.6031  -20.3258   23.8376 C   0  0  2  0  0  0  0  0  0  0  0  0
  -34.6923  -20.4889   16.6331 C   0  0  1  0  0  0  0  0  0  0  0  0
  -38.3478  -19.5235   16.3595 C   0  0  2  0  0  0  0  0  0  0  0  0
  -33.2608  -21.8196   26.1074 C   0  0  1  0  0  0  0  0  0  0  0  0
  -33.6118  -19.7592   15.7860 C   0  0  0  0  0  0  0  0  0  0  0  0
  -31.9298  -18.8009   22.3591 N   0  0  0  0  0  0  0  0  0  0  0  0
  -25.8614  -11.5435   20.2860 N   0  0  0  0  0  0  0  0  0  0  0  0
  -26.2383  -12.8273   20.1606 N   0  0  0  0  0  0  0  0  0  0  0  0
  -34.3014  -22.5983   17.8667 N   0  0  0  0  0  0  0  0  0  0  0  0
  -29.9694  -13.6141   20.3673 N   0  0  0  0  0  0  0  0  0  0  0  0
  -25.4720  -15.0542   20.4143 N   0  0  0  0  0  0  0  0  0  0  0  0
  -21.8875  -12.5771   21.6024 N   0  0  0  0  0  0  0  0  0  0  0  0
  -30.0809  -15.6906   21.4801 N   0  0  0  0  0  0  0  0  0  0  0  0
  -31.8667  -25.1507   17.3307 N   0  0  0  0  0  0  0  0  0  0  0  0
  -31.8278  -20.7791   24.4536 N   0  0  0  0  0  0  0  0  0  0  0  0
  -36.0623  -20.2360   16.2002 N   0  0  0  0  0  0  0  0  0  0  0  0
  -39.4574  -19.7282   17.3331 N   0  3  0  0  0  0  0  0  0  0  0  0
  -22.6631  -14.7175   21.3273 O   0  0  0  0  0  0  0  0  0  0  0  0
  -31.8186  -23.1841   18.5767 O   0  0  0  0  0  0  0  0  0  0  0  0
  -34.5739  -22.5964   15.5511 O   0  0  0  0  0  0  0  0  0  0  0  0
  -36.8103  -19.3697   18.2169 O   0  0  0  0  0  0  0  0  0  0  0  0
  -30.8508  -21.7632   26.3130 O   0  0  0  0  0  0  0  0  0  0  0  0
  -31.8568  -14.9374   20.1914 O   0  0  0  0  0  0  0  0  0  0  0  0
  -33.1742  -22.4657   27.3683 O   0  0  0  0  0  0  0  0  0  0  0  0
  -21.6142   -7.0137   21.6971 O   0  0  0  0  0  0  0  0  0  0  0  0
  -34.4431  -22.0518   24.0095 O   0  0  0  0  0  0  0  0  0  1  0  0
  -18.6252   -6.8309   26.3271 F   0  0  0  0  0  0  0  0  0  0  0  0
  -19.6230   -8.8711   22.1741 F   0  0  0  0  0  0  0  0  0  0  0  0
  -29.5838  -17.8901   22.9499 S   0  0  0  0  0  0  0  0  0  0  0  0
  1  2  1  0  0  0  0
  1  5  2  0  0  0  0
  2  6  2  0  0  0  0
  3  8  2  0  0  0  0
  3 16  1  0  0  0  0
  4  9  1  0  0  0  0
  4 16  2  0  0  0  0
  5 18  1  0  0  0  0
  6 20  1  0  0  0  0
  7 10  2  0  0  0  0
  7 19  1  0  0  0  0
  8 22  1  0  0  0  0
  9 22  2  0  0  0  0
 10 23  1  0  0  0  0
 11 12  2  0  0  0  0
 11 24  1  0  0  0  0
 12 25  1  0  0  0  0
 13 21  1  0  0  0  0
 13 23  2  0  0  0  0
 14 25  2  0  0  0  0
 14 26  1  0  0  0  0
 15 29  2  0  0  0  0
 15 61  1  0  0  0  0
 16 27  1  0  0  0  0
 17 27  1  0  0  0  0
 17 28  2  0  0  0  0
 17 31  1  0  0  0  0
 18 20  2  0  0  0  0
 18 37  1  0  0  0  0
 19 21  2  0  0  0  0
 19 38  1  0  0  0  0
 20 46  1  0  0  0  0
 21 39  1  0  0  0  0
 22 80  1  0  0  0  0
 23 81  1  0  0  0  0
 24 26  2  0  0  0  0
 24 80  1  0  0  0  0
 25 82  1  0  0  0  0
 26 83  1  0  0  0  0
 27 62  2  0  0  0  0
 28 63  1  0  0  0  0
 28 66  1  0  0  0  0
 29 68  1  0  0  0  0
 29 84  1  0  0  0  0
 30 56  1  0  0  0  0
 30 61  2  0  0  0  0
 30 84  1  0  0  0  0
 31 67  1  0  0  0  0
 31 73  2  0  0  0  0
 32 47  1  0  0  0  0
 32 69  1  0  0  0  0
 32 74  2  0  0  0  0
 33 57  1  0  0  0  0
 33 64  1  0  0  0  0
 33 75  2  0  0  0  0
 34 58  1  0  0  0  0
 34 71  1  0  0  0  0
 34 76  2  0  0  0  0
 35 59  1  0  0  0  0
 35 70  1  0  0  0  0
 35 77  2  0  0  0  0
 36 65  1  0  0  0  0
 36 68  1  0  0  0  0
 36 78  2  0  0  0  0
 37 40  1  0  0  0  0
 38 47  1  0  0  0  0
 39 64  1  0  0  0  0
 40 42  1  0  0  0  0
 41 43  1  0  0  0  0
 41 44  1  0  0  0  0
 42 46  1  0  0  0  0
 43 48  1  0  0  0  0
 44 65  1  0  0  0  0
 45 48  1  0  0  0  0
 45 65  1  0  0  0  0
 46 69  1  0  0  0  0
 47 64  1  0  0  0  0
 48 63  1  0  0  0  0
 49 56  1  0  0  0  0
 50 58  1  0  0  0  0
 51 60  1  0  0  0  0
 52 60  1  0  0  0  0
 53 60  1  0  0  0  0
 54 72  1  0  0  0  0
 55 59  1  0  0  0  0
 55 81  1  0  0  0  0
 56 70  1  0  0  0  0
 57 60  1  0  0  0  0
 57 71  1  0  0  0  0
 58 72  1  0  0  0  0
 59 79  1  0  0  0  0
 62 63  1  0  0  0  0
M  CHG  1  72   1
M  ISO  4  36 100  55 101  68 100  81 101
M  END
> <Batch ID>
0185

> <Smiles>
CNC(C)C(=O)NC(C(=O)N1Cc2cc([101O:1][101CH2:1]C(O)C(=O)NC(C)c3ncc([100NH:0][100C:0](=O)N4CCCC(n5nc(-c6ccc(Oc7ccc(F)cc7F)cc6)c(C(N)=O)c5N)C4)s3)ccc2CC1C(=O)NC1CCCc2ccccc21)C(C)(C)C

> <Shape>
0.184

> <Color>
0.180

> <Negative vol penalty>
0.000

$$$$

  -OEChem-04052305053D

 85 93  0     1  0  0  0  0  0999 V2000
  -17.7750  -31.4486   20.0961 C   0  0  0  0  0  0  0  0  0  0  0  0
  -19.1311  -31.4560   19.7859 C   0  0  0  0  0  0  0  0  0  0  0  0
  -26.4464  -13.0180   21.6430 C   0  0  0  0  0  0  0  0  0  0  0  0
  -25.7642  -14.1551   19.6234 C   0  0  0  0  0  0  0  0  0  0  0  0
  -17.3374  -30.8779   21.2906 C   0  0  0  0  0  0  0  0  0  0  0  0
  -20.0506  -30.8938   20.6707 C   0  0  0  0  0  0  0  0  0  0  0  0
  -25.2067  -27.9219   19.2254 C   0  0  0  0  0  0  0  0  0  0  0  0
  -25.1938  -12.4096   21.7236 C   0  0  0  0  0  0  0  0  0  0  0  0
  -24.5116  -13.5466   19.7040 C   0  0  0  0  0  0  0  0  0  0  0  0
  -26.5404  -28.3255   19.1787 C   0  0  0  0  0  0  0  0  0  0  0  0
  -23.5869   -9.8143   20.2693 C   0  0  0  0  0  0  0  0  0  0  0  0
  -23.5462   -8.4503   20.5581 C   0  0  0  0  0  0  0  0  0  0  0  0
  -26.8761  -27.4533   21.4025 C   0  0  0  0  0  0  0  0  0  0  0  0
  -22.2583   -8.9104   22.5498 C   0  0  0  0  0  0  0  0  0  0  0  0
  -26.7316  -13.8908   20.5929 C   0  0  0  0  0  0  0  0  0  0  0  0
  -29.1673  -14.0307   19.8478 C   0  0  0  0  0  0  0  0  0  0  0  0
  -18.2510  -30.2997   22.1859 C   0  0  0  0  0  0  0  0  0  0  0  0
  -24.6941  -27.2896   20.3673 C   0  0  0  0  0  0  0  0  0  0  0  0
  -19.6250  -30.3160   21.8789 C   0  0  0  0  0  0  0  0  0  0  0  0
  -25.5362  -27.0403   21.4603 C   0  0  0  0  0  0  0  0  0  0  0  0
  -24.2264  -12.6739   20.7541 C   0  0  0  0  0  0  0  0  0  0  0  0
  -27.3745  -28.0939   20.2684 C   0  0  0  0  0  0  0  0  0  0  0  0
  -22.9634  -10.7264   21.1208 C   0  0  0  0  0  0  0  0  0  0  0  0
  -22.8818   -7.9983   21.6983 C   0  0  0  0  0  0  0  0  0  0  0  0
  -22.2991  -10.2745   22.2610 C   0  0  0  0  0  0  0  0  0  0  0  0
  -28.0251  -14.5200   20.5094 C   0  0  0  0  0  0  0  0  0  0  0  0
  -30.1262  -14.9902   20.0631 C   0  0  0  0  0  0  0  0  0  0  0  0
  -29.3877  -23.8152   17.9713 C   0  0  0  0  0  0  0  0  0  0  0  0
  -29.2196  -21.9231   19.0329 C   0  0  0  0  0  0  0  0  0  0  0  0
  -29.3456  -12.8174   19.1050 C   0  0  0  0  0  0  0  0  0  0  0  0
  -29.8019  -25.2316   17.7993 C   0  0  0  0  0  0  0  0  0  0  0  0
  -22.4183  -27.9728   22.4786 C   0  0  0  0  0  0  0  0  0  0  0  0
  -23.0985  -25.0017   23.5887 C   0  0  0  0  0  0  0  0  0  0  0  0
  -25.3543  -22.4548   23.8557 C   0  0  0  0  0  0  0  0  0  0  0  0
  -29.8539  -20.8461   21.2202 C   0  0  0  0  0  0  0  0  0  0  0  0
  -17.7355  -29.7370   23.4868 C   0  0  0  0  0  0  0  0  0  0  0  0
  -23.2601  -26.8363   20.3916 C   0  0  0  0  0  0  0  0  0  0  0  0
  -25.0400  -26.3470   22.7019 C   0  0  0  0  0  0  0  0  0  0  0  0
  -18.7358  -28.8279   24.1961 C   0  0  0  0  0  0  0  0  0  0  0  0
  -31.4185  -18.3508   23.2207 C   0  0  0  0  0  0  0  0  0  0  0  0
  -20.1179  -29.4728   24.2223 C   0  0  0  0  0  0  0  0  0  0  0  0
  -30.8344  -17.0403   22.6882 C   0  0  0  0  0  0  0  0  0  0  0  0
  -30.3828  -19.4737   23.2231 C   0  0  0  0  0  0  0  0  0  0  0  0
  -29.1228  -18.3872   21.4063 C   0  0  0  0  0  0  0  0  0  0  0  0
  -20.6506  -29.6938   22.8014 C   0  0  1  0  0  0  0  0  0  0  0  0
  -22.7123  -26.6624   21.8048 C   0  0  1  0  0  0  0  0  0  0  0  0
  -30.1466  -17.2432   21.3239 C   0  0  2  0  0  0  0  0  0  0  0  0
  -25.6365  -20.1699   24.8543 C   0  0  0  0  0  0  0  0  0  0  0  0
  -32.3112  -27.2560   18.1998 C   0  0  0  0  0  0  0  0  0  0  0  0
  -23.4886  -26.2561   26.3427 C   0  0  0  0  0  0  0  0  0  0  0  0
  -24.6645  -24.1629   27.0526 C   0  0  0  0  0  0  0  0  0  0  0  0
  -22.2715  -24.0715   26.3544 C   0  0  0  0  0  0  0  0  0  0  0  0
  -25.7538  -21.2157   21.1980 C   0  0  0  0  0  0  0  0  0  0  0  0
  -29.6132  -27.7160   20.9764 C   0  0  0  0  0  0  0  0  0  1  0  0
  -24.0601  -24.4343   24.6048 C   0  0  1  0  0  0  0  0  0  0  0  0
  -25.2186  -20.9606   23.6243 C   0  0  2  0  0  0  0  0  0  0  0  0
  -30.9367  -27.1677   18.8573 C   0  0  2  0  0  0  0  0  0  0  0  0
  -23.6303  -24.7460   26.0661 C   0  0  0  0  0  0  0  0  0  0  0  0
  -30.9573  -27.7597   20.2686 C   0  0  0  0  0  0  0  0  0  0  0  0
  -28.2371  -15.6987   21.1008 N   0  0  0  0  0  0  0  0  0  0  0  0
  -29.6948  -23.1443   19.1429 N   0  0  0  0  0  0  0  0  0  0  0  0
  -28.7216  -23.2062   16.9905 N   0  0  0  0  0  0  0  0  0  0  0  0
  -29.5236  -15.9580   20.8117 N   0  0  0  0  0  0  0  0  0  0  0  0
  -23.6286  -25.9284   22.6799 N   0  0  0  0  0  0  0  0  0  0  0  0
  -29.7764  -19.6106   21.8971 N   0  0  0  0  0  0  0  0  0  0  0  0
  -31.4177  -15.0919   19.6833 N   0  0  0  0  0  0  0  0  0  0  0  0
  -28.2569  -11.9434   18.9817 N   0  0  0  0  0  0  0  0  0  0  0  0
  -29.2703  -20.8473   19.9537 N   0  0  0  0  0  0  0  0  0  0  0  0
  -30.4896  -25.7952   18.8634 N   0  0  0  0  0  0  0  0  0  0  0  0
  -21.1426  -28.4508   22.2471 N   0  0  0  0  0  0  0  0  0  0  0  0
  -24.1759  -23.0109   24.3067 N   0  0  0  0  0  0  0  0  0  0  0  0
  -26.0717  -20.5343   22.4792 N   0  3  0  0  0  0  0  0  0  0  0  0
  -30.4427  -12.5093   18.5805 O   0  0  0  0  0  0  0  0  0  0  0  0
  -29.5058  -25.8217   16.7636 O   0  0  0  0  0  0  0  0  0  0  0  0
  -23.2842  -28.5097   23.1595 O   0  0  0  0  0  0  0  0  0  0  0  0
  -21.9221  -24.6309   23.5965 O   0  0  0  0  0  0  0  0  0  0  0  0
  -26.4020  -23.0667   23.6599 O   0  0  0  0  0  0  0  0  0  0  0  0
  -30.4218  -21.8230   21.7155 O   0  0  0  0  0  0  0  0  0  0  0  0
  -23.0041  -12.0802   20.8324 O   0  0  0  0  0  0  0  0  0  0  0  0
  -28.6765  -28.4874   20.2256 O   0  0  0  0  0  0  0  0  0  1  0  0
  -22.8415   -6.6883   21.9746 F   0  0  0  0  0  0  0  0  0  0  0  0
  -21.6973  -11.1459   23.0822 F   0  0  0  0  0  0  0  0  0  0  0  0
  -31.8800  -27.1074   21.0230 F   0  0  0  0  0  0  0  0  0  0  0  0
  -31.3643  -29.0561   20.1938 F   0  0  0  0  0  0  0  0  0  0  0  0
  -28.4316  -21.6499   17.5332 S   0  0  0  0  0  0  0  0  0  0  0  0
  1  2  1  0  0  0  0
  1  5  2  0  0  0  0
  2  6  2  0  0  0  0
  3  8  2  0  0  0  0
  3 15  1  0  0  0  0
  4  9  1  0  0  0  0
  4 15  2  0  0  0  0
  5 17  1  0  0  0  0
  6 19  1  0  0  0  0
  7 10  2  0  0  0  0
  7 18  1  0  0  0  0
  8 21  1  0  0  0  0
  9 21  2  0  0  0  0
 10 22  1  0  0  0  0
 11 12  2  0  0  0  0
 11 23  1  0  0  0  0
 12 24  1  0  0  0  0
 13 20  1  0  0  0  0
 13 22  2  0  0  0  0
 14 24  2  0  0  0  0
 14 25  1  0  0  0  0
 15 26  1  0  0  0  0
 16 26  1  0  0  0  0
 16 27  2  0  0  0  0
 16 30  1  0  0  0  0
 17 19  2  0  0  0  0
 17 36  1  0  0  0  0
 18 20  2  0  0  0  0
 18 37  1  0  0  0  0
 19 45  1  0  0  0  0
 20 38  1  0  0  0  0
 21 79  1  0  0  0  0
 22 80  1  0  0  0  0
 23 25  2  0  0  0  0
 23 79  1  0  0  0  0
 24 81  1  0  0  0  0
 25 82  1  0  0  0  0
 26 60  2  0  0  0  0
 27 63  1  0  0  0  0
 27 66  1  0  0  0  0
 28 31  1  0  0  0  0
 28 61  1  0  0  0  0
 28 62  2  0  0  0  0
 29 61  2  0  0  0  0
 29 68  1  0  0  0  0
 29 85  1  0  0  0  0
 30 67  1  0  0  0  0
 30 73  2  0  0  0  0
 31 69  1  0  0  0  0
 31 74  2  0  0  0  0
 32 46  1  0  0  0  0
 32 70  1  0  0  0  0
 32 75  2  0  0  0  0
 33 55  1  0  0  0  0
 33 64  1  0  0  0  0
 33 76  2  0  0  0  0
 34 56  1  0  0  0  0
 34 71  1  0  0  0  0
 34 77  2  0  0  0  0
 35 65  1  0  0  0  0
 35 68  1  0  0  0  0
 35 78  2  0  0  0  0
 36 39  1  0  0  0  0
 37 46  1  0  0  0  0
 38 64  1  0  0  0  0
 39 41  1  0  0  0  0
 40 42  1  0  0  0  0
 40 43  1  0  0  0  0
 41 45  1  0  0  0  0
 42 47  1  0  0  0  0
 43 65  1  0  0  0  0
 44 47  1  0  0  0  0
 44 65  1  0  0  0  0
 45 70  1  0  0  0  0
 46 64  1  0  0  0  0
 47 63  1  0  0  0  0
 48 56  1  0  0  0  0
 49 57  1  0  0  0  0
 50 58  1  0  0  0  0
 51 58  1  0  0  0  0
 52 58  1  0  0  0  0
 53 72  1  0  0  0  0
 54 59  1  0  0  0  0
 54 80  1  0  0  0  0
 55 58  1  0  0  0  0
 55 71  1  0  0  0  0
 56 72  1  0  0  0  0
 57 59  1  0  0  0  0
 57 69  1  0  0  0  0
 59 83  1  0  0  0  0
 59 84  1  0  0  0  0
 60 63  1  0  0  0  0
 62 85  1  0  0  0  0
M  CHG  1  72   1
M  ISO  4  35 100  54 101  68 100  80 101
M  END
> <Batch ID>
0185

> <Smiles>
CNC(C)C(=O)NC(C(=O)N1Cc2cc([101O:1][101CH2:1]C(F)(F)C(C)NC(=O)c3nsc([100NH:0][100C:0](=O)N4CCCC(n5nc(-c6ccc(Oc7ccc(F)cc7F)cc6)c(C(N)=O)c5N)C4)n3)ccc2CC1C(=O)NC1CCCc2ccccc21)C(C)(C)C

> <Shape>
0.284

> <Color>
0.092

> <Negative vol penalty>
0.000

$$$$

  -OEChem-04052305053D

 83 91  0     1  0  0  0  0  0999 V2000
  -21.7813  -12.5821   19.2544 C   0  0  0  0  0  0  0  0  0  0  0  0
  -21.6633  -13.8906   19.7121 C   0  0  0  0  0  0  0  0  0  0  0  0
  -26.5253  -26.4763   15.5657 C   0  0  0  0  0  0  0  0  0  0  0  0
  -28.6729  -26.4441   16.6720 C   0  0  0  0  0  0  0  0  0  0  0  0
  -22.9781  -11.8887   19.4299 C   0  0  0  0  0  0  0  0  0  0  0  0
  -22.7418  -14.5060   20.3466 C   0  0  0  0  0  0  0  0  0  0  0  0
  -23.5116  -19.2385   18.7170 C   0  0  0  0  0  0  0  0  0  0  0  0
  -27.1622  -26.4013   14.3271 C   0  0  0  0  0  0  0  0  0  0  0  0
  -29.3099  -26.3691   15.4333 C   0  0  0  0  0  0  0  0  0  0  0  0
  -22.6643  -20.2284   19.2129 C   0  0  0  0  0  0  0  0  0  0  0  0
  -31.4885  -25.8054   12.5778 C   0  0  0  0  0  0  0  0  0  0  0  0
  -32.5299  -24.8881   12.4377 C   0  0  0  0  0  0  0  0  0  0  0  0
  -24.3674  -20.8883   20.7888 C   0  0  0  0  0  0  0  0  0  0  0  0
  -31.0130  -23.0847   12.9707 C   0  0  0  0  0  0  0  0  0  0  0  0
  -27.2806  -26.4978   16.7382 C   0  0  0  0  0  0  0  0  0  0  0  0
  -26.1942  -25.5015   18.8202 C   0  0  0  0  0  0  0  0  0  0  0  0
  -24.0750  -12.4992   20.0582 C   0  0  0  0  0  0  0  0  0  0  0  0
  -24.7913  -19.0586   19.2616 C   0  0  0  0  0  0  0  0  0  0  0  0
  -23.9540  -13.8196   20.5318 C   0  0  0  0  0  0  0  0  0  0  0  0
  -25.2300  -19.8971   20.2963 C   0  0  0  0  0  0  0  0  0  0  0  0
  -28.5545  -26.3477   14.2609 C   0  0  0  0  0  0  0  0  0  0  0  0
  -23.0911  -21.0516   20.2509 C   0  0  0  0  0  0  0  0  0  0  0  0
  -30.2093  -25.3624   12.9144 C   0  0  0  0  0  0  0  0  0  0  0  0
  -32.2921  -23.5277   12.6341 C   0  0  0  0  0  0  0  0  0  0  0  0
  -29.9716  -24.0020   13.1108 C   0  0  0  0  0  0  0  0  0  0  0  0
  -26.6233  -26.5758   18.0180 C   0  0  0  0  0  0  0  0  0  0  0  0
  -20.1031  -27.0860   23.0838 C   0  0  0  0  0  0  0  0  0  0  0  0
  -25.6356  -26.0987   19.9238 C   0  0  0  0  0  0  0  0  0  0  0  0
  -19.0851  -26.6007   23.8777 C   0  0  0  0  0  0  0  0  0  0  0  0
  -19.8586  -25.1207   22.1417 C   0  0  0  0  0  0  0  0  0  0  0  0
  -26.2919  -24.0899   18.5886 C   0  0  0  0  0  0  0  0  0  0  0  0
  -20.7243  -28.4264   23.2398 C   0  0  0  0  0  0  0  0  0  0  0  0
  -26.2742  -16.6855   20.7692 C   0  0  0  0  0  0  0  0  0  0  0  0
  -28.8401  -18.6553   20.5274 C   0  0  0  0  0  0  0  0  0  0  0  0
  -30.0286  -21.8353   20.1785 C   0  0  0  0  0  0  0  0  0  0  0  0
  -22.4230  -29.9488   22.2807 C   0  0  0  0  0  0  0  0  0  0  0  0
  -25.3327  -11.6936   20.2674 C   0  0  0  0  0  0  0  0  0  0  0  0
  -25.7032  -18.0038   18.6975 C   0  0  0  0  0  0  0  0  0  0  0  0
  -26.6020  -19.7582   20.9018 C   0  0  0  0  0  0  0  0  0  0  0  0
  -26.5509  -12.5453   20.6151 C   0  0  0  0  0  0  0  0  0  0  0  0
  -25.7197  -30.9249   21.4583 C   0  0  0  0  0  0  0  0  0  0  0  0
  -26.1983  -13.5669   21.6916 C   0  0  0  0  0  0  0  0  0  0  0  0
  -26.2196  -29.7889   20.5615 C   0  0  0  0  0  0  0  0  0  0  0  0
  -24.2460  -31.2403   21.2062 C   0  0  0  0  0  0  0  0  0  0  0  0
  -23.8406  -28.9567   20.3823 C   0  0  0  0  0  0  0  0  0  0  0  0
  -25.1096  -14.5299   21.2028 C   0  0  1  0  0  0  0  0  0  0  0  0
  -26.7937  -17.5726   19.6733 C   0  0  1  0  0  0  0  0  0  0  0  0
  -25.3003  -28.5540   20.6476 C   0  0  1  0  0  0  0  0  0  0  0  0
  -31.7100  -23.6709   19.8612 C   0  0  0  0  0  0  0  0  0  0  0  0
  -20.4850  -24.8305   19.0422 C   0  0  0  0  0  0  0  0  0  0  0  0
  -29.1961  -18.3564   23.5430 C   0  0  0  0  0  0  0  0  0  0  0  0
  -30.6953  -20.3610   23.4945 C   0  0  0  0  0  0  0  0  0  0  0  0
  -31.3246  -18.3042   22.2310 C   0  0  0  0  0  0  0  0  0  0  0  0
  -29.8626  -21.6357   17.2304 C   0  0  0  0  0  0  0  0  0  0  0  0
  -21.3298  -22.5921   19.8257 C   0  0  0  0  0  0  0  0  0  1  0  0
  -29.4320  -19.7498   21.3823 C   0  0  1  0  0  0  0  0  0  0  0  0
  -31.0874  -22.4200   19.2611 C   0  0  2  0  0  0  0  0  0  0  0  0
  -21.0269  -24.0353   20.2227 C   0  0  2  0  0  0  0  0  0  0  0  0
  -30.1354  -19.1944   22.6528 C   0  0  0  0  0  0  0  0  0  0  0  0
  -26.3598  -27.7654   18.5653 N   0  0  0  0  0  0  0  0  0  0  0  0
  -20.5482  -26.2386   22.0881 N   0  0  0  0  0  0  0  0  0  0  0  0
  -25.7590  -27.4421   19.7231 N   0  0  0  0  0  0  0  0  0  0  0  0
  -27.4544  -18.7080   20.3203 N   0  0  0  0  0  0  0  0  0  0  0  0
  -23.4425  -30.0215   21.3154 N   0  0  0  0  0  0  0  0  0  0  0  0
  -25.0558  -25.6005   21.0364 N   0  0  0  0  0  0  0  0  0  0  0  0
  -18.4658  -27.2125   24.9167 N   0  0  0  0  0  0  0  0  0  0  0  0
  -26.8949  -23.6475   17.4033 N   0  0  0  0  0  0  0  0  0  0  0  0
  -20.0436  -24.0495   21.2872 N   0  0  0  0  0  0  0  0  0  0  0  0
  -21.7416  -28.7278   22.3339 N   0  0  0  0  0  0  0  0  0  0  0  0
  -25.6755  -15.5250   20.3173 N   0  0  0  0  0  0  0  0  0  0  0  0
  -30.3045  -20.5248   20.5068 N   0  0  0  0  0  0  0  0  0  0  0  0
  -30.4904  -22.7779   17.9433 N   0  3  0  0  0  0  0  0  0  0  0  0
  -25.8424  -23.2462   19.4008 O   0  0  0  0  0  0  0  0  0  0  0  0
  -20.2960  -29.1872   24.1033 O   0  0  0  0  0  0  0  0  0  0  0  0
  -26.4081  -17.0278   21.9382 O   0  0  0  0  0  0  0  0  0  0  0  0
  -29.5810  -17.7897   20.0548 O   0  0  0  0  0  0  0  0  0  0  0  0
  -29.0563  -22.4781   20.5683 O   0  0  0  0  0  0  0  0  0  0  0  0
  -22.1668  -30.8769   23.0541 O   0  0  0  0  0  0  0  0  0  0  0  0
  -29.1763  -26.2743   13.0523 O   0  0  0  0  0  0  0  0  0  0  0  0
  -22.2658  -22.0182   20.7372 O   0  0  0  0  0  0  0  0  0  1  0  0
  -33.2919  -22.6468   12.4981 F   0  0  0  0  0  0  0  0  0  0  0  0
  -28.7446  -23.5703   13.4331 F   0  0  0  0  0  0  0  0  0  0  0  0
  -18.6586  -25.0208   23.3644 S   0  0  0  0  0  0  0  0  0  0  0  0
  1  2  1  0  0  0  0
  1  5  2  0  0  0  0
  2  6  2  0  0  0  0
  3  8  2  0  0  0  0
  3 15  1  0  0  0  0
  4  9  1  0  0  0  0
  4 15  2  0  0  0  0
  5 17  1  0  0  0  0
  6 19  1  0  0  0  0
  7 10  2  0  0  0  0
  7 18  1  0  0  0  0
  8 21  1  0  0  0  0
  9 21  2  0  0  0  0
 10 22  1  0  0  0  0
 11 12  2  0  0  0  0
 11 23  1  0  0  0  0
 12 24  1  0  0  0  0
 13 20  1  0  0  0  0
 13 22  2  0  0  0  0
 14 24  2  0  0  0  0
 14 25  1  0  0  0  0
 15 26  1  0  0  0  0
 16 26  1  0  0  0  0
 16 28  2  0  0  0  0
 16 31  1  0  0  0  0
 17 19  2  0  0  0  0
 17 37  1  0  0  0  0
 18 20  2  0  0  0  0
 18 38  1  0  0  0  0
 19 46  1  0  0  0  0
 20 39  1  0  0  0  0
 21 79  1  0  0  0  0
 22 80  1  0  0  0  0
 23 25  2  0  0  0  0
 23 79  1  0  0  0  0
 24 81  1  0  0  0  0
 25 82  1  0  0  0  0
 26 60  2  0  0  0  0
 27 29  2  0  0  0  0
 27 32  1  0  0  0  0
 27 61  1  0  0  0  0
 28 62  1  0  0  0  0
 28 65  1  0  0  0  0
 29 66  1  0  0  0  0
 29 83  1  0  0  0  0
 30 61  2  0  0  0  0
 30 68  1  0  0  0  0
 30 83  1  0  0  0  0
 31 67  1  0  0  0  0
 31 73  2  0  0  0  0
 32 69  1  0  0  0  0
 32 74  2  0  0  0  0
 33 47  1  0  0  0  0
 33 70  1  0  0  0  0
 33 75  2  0  0  0  0
 34 56  1  0  0  0  0
 34 63  1  0  0  0  0
 34 76  2  0  0  0  0
 35 57  1  0  0  0  0
 35 71  1  0  0  0  0
 35 77  2  0  0  0  0
 36 64  1  0  0  0  0
 36 69  1  0  0  0  0
 36 78  2  0  0  0  0
 37 40  1  0  0  0  0
 38 47  1  0  0  0  0
 39 63  1  0  0  0  0
 40 42  1  0  0  0  0
 41 43  1  0  0  0  0
 41 44  1  0  0  0  0
 42 46  1  0  0  0  0
 43 48  1  0  0  0  0
 44 64  1  0  0  0  0
 45 48  1  0  0  0  0
 45 64  1  0  0  0  0
 46 70  1  0  0  0  0
 47 63  1  0  0  0  0
 48 62  1  0  0  0  0
 49 57  1  0  0  0  0
 50 58  1  0  0  0  0
 51 59  1  0  0  0  0
 52 59  1  0  0  0  0
 53 59  1  0  0  0  0
 54 72  1  0  0  0  0
 55 58  1  0  0  0  0
 55 80  1  0  0  0  0
 56 59  1  0  0  0  0
 56 71  1  0  0  0  0
 57 72  1  0  0  0  0
 58 68  1  0  0  0  0
 60 62  1  0  0  0  0
M  CHG  1  72   1
M  ISO  4  36 100  55 101  69 100  80 101
M  END
> <Batch ID>
0185

> <Smiles>
CNC(C)C(=O)NC(C(=O)N1Cc2cc([101O:1][101CH2:1]C(C)Nc3nc(C(=O)[100NH:0][100C:0](=O)N4CCCC(n5nc(-c6ccc(Oc7ccc(F)cc7F)cc6)c(C(N)=O)c5N)C4)c(N)s3)ccc2CC1C(=O)NC1CCCc2ccccc21)C(C)(C)C

> <Shape>
0.208

> <Color>
0.071

> <Negative vol penalty>
0.000

$$$$

  -OEChem-04052305053D

 78 86  0     1  0  0  0  0  0999 V2000
  -28.1162  -24.0024   17.8410 C   0  0  0  0  0  0  0  0  0  0  0  0
  -26.9183  -24.3143   18.4760 C   0  0  0  0  0  0  0  0  0  0  0  0
  -24.8745  -14.5051   19.2040 C   0  0  0  0  0  0  0  0  0  0  0  0
  -23.4236  -14.1978   21.1112 C   0  0  0  0  0  0  0  0  0  0  0  0
  -29.3135  -24.5410   18.3104 C   0  0  0  0  0  0  0  0  0  0  0  0
  -26.9172  -25.1641   19.5815 C   0  0  0  0  0  0  0  0  0  0  0  0
  -23.2330  -28.6317   19.3626 C   0  0  0  0  0  0  0  0  0  0  0  0
  -25.3819  -13.2182   19.3826 C   0  0  0  0  0  0  0  0  0  0  0  0
  -23.9310  -12.9108   21.2898 C   0  0  0  0  0  0  0  0  0  0  0  0
  -21.9445  -28.2134   19.6919 C   0  0  0  0  0  0  0  0  0  0  0  0
  -23.5077   -9.8547   19.9107 C   0  0  0  0  0  0  0  0  0  0  0  0
  -22.5957   -8.8287   20.1577 C   0  0  0  0  0  0  0  0  0  0  0  0
  -22.2042  -29.1663   21.8928 C   0  0  0  0  0  0  0  0  0  0  0  0
  -23.6694   -8.3844   22.2760 C   0  0  0  0  0  0  0  0  0  0  0  0
  -19.1287  -23.5136   20.6049 C   0  0  0  0  0  0  0  0  0  0  0  0
  -23.8954  -14.9950   20.0684 C   0  0  0  0  0  0  0  0  0  0  0  0
  -22.2629  -16.7008   19.1025 C   0  0  0  0  0  0  0  0  0  0  0  0
  -29.3259  -25.4055   19.4163 C   0  0  0  0  0  0  0  0  0  0  0  0
  -24.0222  -29.3120   20.3011 C   0  0  0  0  0  0  0  0  0  0  0  0
  -28.1159  -25.7137   20.0670 C   0  0  0  0  0  0  0  0  0  0  0  0
  -23.5014  -29.5944   21.5720 C   0  0  0  0  0  0  0  0  0  0  0  0
  -24.9101  -12.4210   20.4255 C   0  0  0  0  0  0  0  0  0  0  0  0
  -21.4310  -28.4781   20.9581 C   0  0  0  0  0  0  0  0  0  0  0  0
  -24.5007  -10.1456   20.8462 C   0  0  0  0  0  0  0  0  0  0  0  0
  -22.6765   -8.0936   21.3404 C   0  0  0  0  0  0  0  0  0  0  0  0
  -24.5814   -9.4105   22.0289 C   0  0  0  0  0  0  0  0  0  0  0  0
  -23.3712  -16.3245   19.8848 C   0  0  0  0  0  0  0  0  0  0  0  0
  -20.1748  -23.5893   21.5005 C   0  0  0  0  0  0  0  0  0  0  0  0
  -22.1788  -18.0628   19.2591 C   0  0  0  0  0  0  0  0  0  0  0  0
  -19.1341  -25.4393   22.0519 C   0  0  0  0  0  0  0  0  0  0  0  0
  -21.3877  -15.8917   18.3057 C   0  0  0  0  0  0  0  0  0  0  0  0
  -26.7964  -28.7322   21.7404 C   0  0  0  0  0  0  0  0  0  0  0  0
  -26.3822  -31.7365   22.8915 C   0  0  0  0  0  0  0  0  0  0  0  0
  -24.2322  -34.2693   23.6719 C   0  0  0  0  0  0  0  0  0  0  0  0
  -22.2868  -22.6130   22.4663 C   0  0  0  0  0  0  0  0  0  0  0  0
  -30.6504  -25.9255   19.9164 C   0  0  0  0  0  0  0  0  0  0  0  0
  -25.4003  -29.7801   19.9214 C   0  0  0  0  0  0  0  0  0  0  0  0
  -24.3005  -30.3394   22.6089 C   0  0  0  0  0  0  0  0  0  0  0  0
  -30.5191  -27.1153   20.8637 C   0  0  0  0  0  0  0  0  0  0  0  0
  -25.4190  -21.3451   21.3445 C   0  0  0  0  0  0  0  0  0  0  0  0
  -29.4426  -26.8479   21.9107 C   0  0  0  0  0  0  0  0  0  0  0  0
  -25.0743  -19.9569   20.8004 C   0  0  0  0  0  0  0  0  0  0  0  0
  -24.5915  -21.6911   22.5811 C   0  0  0  0  0  0  0  0  0  0  0  0
  -22.7945  -20.1628   21.8713 C   0  0  0  0  0  0  0  0  0  0  0  0
  -28.0709  -26.6514   21.2539 C   0  0  1  0  0  0  0  0  0  0  0  0
  -26.3055  -30.0130   21.1270 C   0  0  1  0  0  0  0  0  0  0  0  0
  -23.5563  -19.7961   20.5873 C   0  0  2  0  0  0  0  0  0  0  0  0
  -24.1847  -36.5876   24.6313 C   0  0  0  0  0  0  0  0  0  0  0  0
  -26.7747  -30.5840   25.6893 C   0  0  0  0  0  0  0  0  0  0  0  0
  -25.7928  -32.6910   26.6192 C   0  0  0  0  0  0  0  0  0  0  0  0
  -27.9063  -32.7795   25.2972 C   0  0  0  0  0  0  0  0  0  0  0  0
  -23.1057  -35.4024   21.1806 C   0  0  0  0  0  0  0  0  0  0  0  0
  -18.7981  -26.7345   22.7505 C   0  0  0  0  0  0  0  0  0  0  0  0
  -19.9260  -27.7559   22.6521 C   0  0  0  0  0  0  0  0  0  1  0  0
  -25.7195  -32.3327   24.1098 C   0  0  1  0  0  0  0  0  0  0  0  0
  -24.2708  -35.7548   23.3617 C   0  0  2  0  0  0  0  0  0  0  0  0
  -26.5337  -32.0810   25.4102 C   0  0  0  0  0  0  0  0  0  0  0  0
  -23.9497  -17.3635   20.4930 N   0  0  0  0  0  0  0  0  0  0  0  0
  -20.1798  -24.6931   22.3308 N   0  0  0  0  0  0  0  0  0  0  0  0
  -23.2021  -18.4061   20.0928 N   0  0  0  0  0  0  0  0  0  0  0  0
  -25.6450  -30.7707   22.1918 N   0  0  0  0  0  0  0  0  0  0  0  0
  -23.1638  -21.5199   22.3033 N   0  0  0  0  0  0  0  0  0  0  0  0
  -21.3301  -18.9882   18.7635 N   0  0  0  0  0  0  0  0  0  0  0  0
  -21.6162  -14.5098   18.2559 N   0  0  0  0  0  0  0  0  0  0  0  0
  -21.1986  -22.6142   21.5943 N   0  0  0  0  0  0  0  0  0  0  0  0
  -27.5069  -27.9277   20.8701 N   0  0  0  0  0  0  0  0  0  0  0  0
  -25.4994  -33.7425   23.8060 N   0  0  0  0  0  0  0  0  0  0  0  0
  -23.1320  -36.1289   22.4762 N   0  3  0  0  0  0  0  0  0  0  0  0
  -20.4414  -16.3817   17.6441 O   0  0  0  0  0  0  0  0  0  0  0  0
  -26.5500  -28.4923   22.9166 O   0  0  0  0  0  0  0  0  0  0  0  0
  -27.5096  -32.1190   22.5683 O   0  0  0  0  0  0  0  0  0  0  0  0
  -23.1828  -33.6400   23.7875 O   0  0  0  0  0  0  0  0  0  0  0  0
  -22.5009  -23.4983   23.2984 O   0  0  0  0  0  0  0  0  0  0  0  0
  -25.4049  -11.1651   20.5999 O   0  0  0  0  0  0  0  0  0  0  0  0
  -20.1738  -28.0703   21.2824 O   0  0  0  0  0  0  0  0  0  1  0  0
  -21.7997   -7.1093   21.5782 F   0  0  0  0  0  0  0  0  0  0  0  0
  -25.5324   -9.6861   22.9320 F   0  0  0  0  0  0  0  0  0  0  0  0
  -18.1025  -24.8733   20.8028 S   0  0  0  0  0  0  0  0  0  0  0  0
  1  2  1  0  0  0  0
  1  5  2  0  0  0  0
  2  6  2  0  0  0  0
  3  8  2  0  0  0  0
  3 16  1  0  0  0  0
  4  9  1  0  0  0  0
  4 16  2  0  0  0  0
  5 18  1  0  0  0  0
  6 20  1  0  0  0  0
  7 10  2  0  0  0  0
  7 19  1  0  0  0  0
  8 22  1  0  0  0  0
  9 22  2  0  0  0  0
 10 23  1  0  0  0  0
 11 12  2  0  0  0  0
 11 24  1  0  0  0  0
 12 25  1  0  0  0  0
 13 21  1  0  0  0  0
 13 23  2  0  0  0  0
 14 25  2  0  0  0  0
 14 26  1  0  0  0  0
 15 28  2  0  0  0  0
 15 78  1  0  0  0  0
 16 27  1  0  0  0  0
 17 27  1  0  0  0  0
 17 29  2  0  0  0  0
 17 31  1  0  0  0  0
 18 20  2  0  0  0  0
 18 36  1  0  0  0  0
 19 21  2  0  0  0  0
 19 37  1  0  0  0  0
 20 45  1  0  0  0  0
 21 38  1  0  0  0  0
 22 74  1  0  0  0  0
 23 75  1  0  0  0  0
 24 26  2  0  0  0  0
 24 74  1  0  0  0  0
 25 76  1  0  0  0  0
 26 77  1  0  0  0  0
 27 58  2  0  0  0  0
 28 59  1  0  0  0  0
 28 65  1  0  0  0  0
 29 60  1  0  0  0  0
 29 63  1  0  0  0  0
 30 53  1  0  0  0  0
 30 59  2  0  0  0  0
 30 78  1  0  0  0  0
 31 64  1  0  0  0  0
 31 69  2  0  0  0  0
 32 46  1  0  0  0  0
 32 66  1  0  0  0  0
 32 70  2  0  0  0  0
 33 55  1  0  0  0  0
 33 61  1  0  0  0  0
 33 71  2  0  0  0  0
 34 56  1  0  0  0  0
 34 67  1  0  0  0  0
 34 72  2  0  0  0  0
 35 62  1  0  0  0  0
 35 65  1  0  0  0  0
 35 73  2  0  0  0  0
 36 39  1  0  0  0  0
 37 46  1  0  0  0  0
 38 61  1  0  0  0  0
 39 41  1  0  0  0  0
 40 42  1  0  0  0  0
 40 43  1  0  0  0  0
 41 45  1  0  0  0  0
 42 47  1  0  0  0  0
 43 62  1  0  0  0  0
 44 47  1  0  0  0  0
 44 62  1  0  0  0  0
 45 66  1  0  0  0  0
 46 61  1  0  0  0  0
 47 60  1  0  0  0  0
 48 56  1  0  0  0  0
 49 57  1  0  0  0  0
 50 57  1  0  0  0  0
 51 57  1  0  0  0  0
 52 68  1  0  0  0  0
 53 54  1  0  0  0  0
 54 75  1  0  0  0  0
 55 57  1  0  0  0  0
 55 67  1  0  0  0  0
 56 68  1  0  0  0  0
 58 60  1  0  0  0  0
M  CHG  1  68   1
M  ISO  4  35 100  54 101  65 100  75 101
M  END
> <Batch ID>
0185

> <Smiles>
CNC(C)C(=O)NC(C(=O)N1Cc2cc([101O:1][101CH2:1]Cc3nc([100NH:0][100C:0](=O)N4CCCC(n5nc(-c6ccc(Oc7ccc(F)cc7F)cc6)c(C(N)=O)c5N)C4)cs3)ccc2CC1C(=O)NC1CCCc2ccccc21)C(C)(C)C

> <Shape>
0.282

> <Color>
0.077

> <Negative vol penalty>
0.000

$$$$

  -OEChem-04052305053D

 85 93  0     1  0  0  0  0  0999 V2000
  -17.4526  -30.1152   24.3197 C   0  0  0  0  0  0  0  0  0  0  0  0
  -18.8341  -29.9517   24.3322 C   0  0  0  0  0  0  0  0  0  0  0  0
  -25.3696  -15.3652   20.2935 C   0  0  0  0  0  0  0  0  0  0  0  0
  -27.6178  -14.7966   20.9711 C   0  0  0  0  0  0  0  0  0  0  0  0
  -16.6689  -29.3490   23.4579 C   0  0  0  0  0  0  0  0  0  0  0  0
  -19.4326  -29.0210   23.4837 C   0  0  0  0  0  0  0  0  0  0  0  0
  -23.5481  -30.8605   21.1763 C   0  0  0  0  0  0  0  0  0  0  0  0
  -25.0274  -14.0130   20.2939 C   0  0  0  0  0  0  0  0  0  0  0  0
  -27.2757  -13.4443   20.9716 C   0  0  0  0  0  0  0  0  0  0  0  0
  -24.7229  -30.9232   21.9244 C   0  0  0  0  0  0  0  0  0  0  0  0
  -24.2238  -11.6476   22.5726 C   0  0  0  0  0  0  0  0  0  0  0  0
  -23.0158  -11.2849   23.1680 C   0  0  0  0  0  0  0  0  0  0  0  0
  -25.4938  -28.8937   20.8727 C   0  0  0  0  0  0  0  0  0  0  0  0
  -22.2532  -10.3724   21.0649 C   0  0  0  0  0  0  0  0  0  0  0  0
  -26.6648  -15.7570   20.6320 C   0  0  0  0  0  0  0  0  0  0  0  0
  -26.9230  -18.0557   21.7077 C   0  0  0  0  0  0  0  0  0  0  0  0
  -17.2590  -28.4153   22.5915 C   0  0  0  0  0  0  0  0  0  0  0  0
  -23.3322  -29.8061   20.2773 C   0  0  0  0  0  0  0  0  0  0  0  0
  -18.6560  -28.2406   22.6105 C   0  0  0  0  0  0  0  0  0  0  0  0
  -24.3165  -28.8212   20.1126 C   0  0  0  0  0  0  0  0  0  0  0  0
  -25.9804  -13.0526   20.6330 C   0  0  0  0  0  0  0  0  0  0  0  0
  -25.6947  -29.9382   21.7748 C   0  0  0  0  0  0  0  0  0  0  0  0
  -24.4466  -11.3729   21.2233 C   0  0  0  0  0  0  0  0  0  0  0  0
  -22.0305  -10.6472   22.4142 C   0  0  0  0  0  0  0  0  0  0  0  0
  -23.4613  -10.7353   20.4694 C   0  0  0  0  0  0  0  0  0  0  0  0
  -27.0191  -17.1537   20.6312 C   0  0  0  0  0  0  0  0  0  0  0  0
  -30.4567  -26.7144   19.8823 C   0  0  0  0  0  0  0  0  0  0  0  0
  -27.3786  -19.2473   21.1990 C   0  0  0  0  0  0  0  0  0  0  0  0
  -29.8731  -26.3978   21.0911 C   0  0  0  0  0  0  0  0  0  0  0  0
  -31.3625  -24.7391   20.1784 C   0  0  0  0  0  0  0  0  0  0  0  0
  -26.4630  -17.8361   23.0479 C   0  0  0  0  0  0  0  0  0  0  0  0
  -21.1839  -27.4769   20.0261 C   0  0  0  0  0  0  0  0  0  0  0  0
  -22.7080  -26.9037   17.2206 C   0  0  0  0  0  0  0  0  0  0  0  0
  -25.5535  -27.1891   15.3582 C   0  0  0  0  0  0  0  0  0  0  0  0
  -28.4020  -28.3490   21.6954 C   0  0  0  0  0  0  0  0  0  0  0  0
  -31.0699  -22.1632   18.1961 C   0  0  0  0  0  0  0  0  0  0  0  0
  -16.3665  -27.5764   21.7115 C   0  0  0  0  0  0  0  0  0  0  0  0
  -22.0712  -29.7673   19.4582 C   0  0  0  0  0  0  0  0  0  0  0  0
  -24.1420  -27.6795   19.1459 C   0  0  0  0  0  0  0  0  0  0  0  0
  -17.1120  -26.8783   20.5770 C   0  0  0  0  0  0  0  0  0  0  0  0
  -28.3844  -20.6241   16.4366 C   0  0  0  0  0  0  0  0  0  0  0  0
  -18.3834  -26.2178   21.1006 C   0  0  0  0  0  0  0  0  0  0  0  0
  -27.7863  -19.6545   17.4575 C   0  0  0  0  0  0  0  0  0  0  0  0
  -29.9037  -20.7105   16.5632 C   0  0  0  0  0  0  0  0  0  0  0  0
  -29.7973  -20.0592   18.9377 C   0  0  0  0  0  0  0  0  0  0  0  0
  -19.3444  -27.2588   21.6873 C   0  0  1  0  0  0  0  0  0  0  0  0
  -21.7322  -28.3697   18.9491 C   0  0  1  0  0  0  0  0  0  0  0  0
  -28.2619  -19.9806   18.8861 C   0  0  2  0  0  0  0  0  0  0  0  0
  -26.5086  -26.5909   13.1161 C   0  0  0  0  0  0  0  0  0  0  0  0
  -29.3336  -29.9167   24.1395 C   0  0  0  0  0  0  0  0  0  0  0  0
  -27.2267  -29.2404   25.3026 C   0  0  0  0  0  0  0  0  0  0  0  0
  -23.0429  -24.0127   18.1373 C   0  0  0  0  0  0  0  0  0  0  0  0
  -24.7793  -23.7226   16.3571 C   0  0  0  0  0  0  0  0  0  0  0  0
  -22.4305  -24.2786   15.7272 C   0  0  0  0  0  0  0  0  0  0  0  0
  -25.9838  -30.0312   14.6538 C   0  0  0  0  0  0  0  0  0  0  0  0
  -32.1762  -23.5254   19.9510 C   0  0  0  0  0  0  0  0  0  0  0  0
  -23.8804  -26.0531   16.7952 C   0  0  1  0  0  0  0  0  0  0  0  0
  -25.7804  -27.6495   13.9296 C   0  0  2  0  0  0  0  0  0  0  0  0
  -27.4657  -28.7564   22.8345 C   0  0  1  0  0  0  0  0  0  1  0  0
  -28.2070  -28.8783   24.1823 C   0  0  0  0  0  0  0  0  0  0  0  0
  -23.5360  -24.5371   16.7739 C   0  0  0  0  0  0  0  0  0  0  0  0
  -27.4980  -17.7235   19.5222 N   0  0  0  0  0  0  0  0  0  0  0  0
  -31.3114  -25.7647   19.3576 N   0  0  0  0  0  0  0  0  0  0  0  0
  -27.7068  -18.9965   19.8991 N   0  0  0  0  0  0  0  0  0  0  0  0
  -22.8893  -27.6822   18.3725 N   0  0  0  0  0  0  0  0  0  0  0  0
  -30.2885  -21.0240   17.9415 N   0  0  0  0  0  0  0  0  0  0  0  0
  -27.5264  -20.4748   21.7411 N   0  0  0  0  0  0  0  0  0  0  0  0
  -26.0301  -16.5514   23.4035 N   0  0  0  0  0  0  0  0  0  0  0  0
  -28.9649  -27.0974   21.9207 N   0  0  0  0  0  0  0  0  0  0  0  0
  -20.0379  -27.9602   20.6282 N   0  0  0  0  0  0  0  0  0  0  0  0
  -24.3243  -26.5831   15.5105 N   0  0  0  0  0  0  0  0  0  0  0  0
  -31.3847  -22.3908   19.5302 N   0  0  0  0  0  0  0  0  0  0  0  0
  -26.5932  -28.8984   13.9107 N   0  3  0  0  0  0  0  0  0  0  0  0
  -26.4213  -18.7558   23.8999 O   0  0  0  0  0  0  0  0  0  0  0  0
  -21.7572  -26.4265   20.2901 O   0  0  0  0  0  0  0  0  0  0  0  0
  -21.6720  -26.8836   16.5513 O   0  0  0  0  0  0  0  0  0  0  0  0
  -26.3851  -27.3477   16.2492 O   0  0  0  0  0  0  0  0  0  0  0  0
  -28.5741  -29.0776   20.7224 O   0  0  0  0  0  0  0  0  0  0  0  0
  -31.4538  -22.9241   17.3013 O   0  0  0  0  0  0  0  0  0  0  0  0
  -25.6468  -11.7330   20.6338 O   0  0  0  0  0  0  0  0  0  0  0  0
  -26.8421  -29.9967   22.5042 O   0  0  0  0  0  0  0  0  0  1  0  0
  -20.8710  -10.2975   22.9865 F   0  0  0  0  0  0  0  0  0  0  0  0
  -23.6700  -10.4676   19.1730 F   0  0  0  0  0  0  0  0  0  0  0  0
  -30.2170  -27.8698   19.2522 F   0  0  0  0  0  0  0  0  0  0  0  0
  -30.4075  -24.8496   21.6000 S   0  0  0  0  0  0  0  0  0  0  0  0
  1  2  1  0  0  0  0
  1  5  2  0  0  0  0
  2  6  2  0  0  0  0
  3  8  2  0  0  0  0
  3 15  1  0  0  0  0
  4  9  1  0  0  0  0
  4 15  2  0  0  0  0
  5 17  1  0  0  0  0
  6 19  1  0  0  0  0
  7 10  2  0  0  0  0
  7 18  1  0  0  0  0
  8 21  1  0  0  0  0
  9 21  2  0  0  0  0
 10 22  1  0  0  0  0
 11 12  2  0  0  0  0
 11 23  1  0  0  0  0
 12 24  1  0  0  0  0
 13 20  1  0  0  0  0
 13 22  2  0  0  0  0
 14 24  2  0  0  0  0
 14 25  1  0  0  0  0
 15 26  1  0  0  0  0
 16 26  1  0  0  0  0
 16 28  2  0  0  0  0
 16 31  1  0  0  0  0
 17 19  2  0  0  0  0
 17 37  1  0  0  0  0
 18 20  2  0  0  0  0
 18 38  1  0  0  0  0
 19 46  1  0  0  0  0
 20 39  1  0  0  0  0
 21 80  1  0  0  0  0
 22 81  1  0  0  0  0
 23 25  2  0  0  0  0
 23 80  1  0  0  0  0
 24 82  1  0  0  0  0
 25 83  1  0  0  0  0
 26 62  2  0  0  0  0
 27 29  2  0  0  0  0
 27 63  1  0  0  0  0
 27 84  1  0  0  0  0
 28 64  1  0  0  0  0
 28 67  1  0  0  0  0
 29 69  1  0  0  0  0
 29 85  1  0  0  0  0
 30 56  1  0  0  0  0
 30 63  2  0  0  0  0
 30 85  1  0  0  0  0
 31 68  1  0  0  0  0
 31 74  2  0  0  0  0
 32 47  1  0  0  0  0
 32 70  1  0  0  0  0
 32 75  2  0  0  0  0
 33 57  1  0  0  0  0
 33 65  1  0  0  0  0
 33 76  2  0  0  0  0
 34 58  1  0  0  0  0
 34 71  1  0  0  0  0
 34 77  2  0  0  0  0
 35 59  1  0  0  0  0
 35 69  1  0  0  0  0
 35 78  2  0  0  0  0
 36 66  1  0  0  0  0
 36 72  1  0  0  0  0
 36 79  2  0  0  0  0
 37 40  1  0  0  0  0
 38 47  1  0  0  0  0
 39 65  1  0  0  0  0
 40 42  1  0  0  0  0
 41 43  1  0  0  0  0
 41 44  1  0  0  0  0
 42 46  1  0  0  0  0
 43 48  1  0  0  0  0
 44 66  1  0  0  0  0
 45 48  1  0  0  0  0
 45 66  1  0  0  0  0
 46 70  1  0  0  0  0
 47 65  1  0  0  0  0
 48 64  1  0  0  0  0
 49 58  1  0  0  0  0
 50 60  1  0  0  0  0
 51 60  1  0  0  0  0
 52 61  1  0  0  0  0
 53 61  1  0  0  0  0
 54 61  1  0  0  0  0
 55 73  1  0  0  0  0
 56 72  1  0  0  0  0
 57 61  1  0  0  0  0
 57 71  1  0  0  0  0
 58 73  1  0  0  0  0
 59 60  1  0  0  0  0
 59 81  1  0  0  0  0
 62 64  1  0  0  0  0
M  CHG  1  73   1
M  ISO  4  36 100  59 101  72 100  81 101
M  END
> <Batch ID>
0185

> <Smiles>
CNC(C)C(=O)NC(C(=O)N1Cc2cc([101O:1][101CH:1](C(=O)Nc3sc(C[100NH:0][100C:0](=O)N4CCCC(n5nc(-c6ccc(Oc7ccc(F)cc7F)cc6)c(C(N)=O)c5N)C4)nc3F)C(C)C)ccc2CC1C(=O)NC1CCCc2ccccc21)C(C)(C)C

> <Shape>
0.260

> <Color>
0.063

> <Negative vol penalty>
0.000

$$$$

  -OEChem-04052305053D

 86 94  0     1  0  0  0  0  0999 V2000
  -27.6533  -36.4018   22.5785 C   0  0  0  0  0  0  0  0  0  0  0  0
  -28.0323  -35.0778   22.3812 C   0  0  0  0  0  0  0  0  0  0  0  0
  -29.2183  -17.9661   15.3638 C   0  0  0  0  0  0  0  0  0  0  0  0
  -24.7754   -8.4592   21.1717 C   0  0  0  0  0  0  0  0  0  0  0  0
  -23.1722   -9.8761   20.0495 C   0  0  0  0  0  0  0  0  0  0  0  0
  -26.4704  -36.6935   23.2563 C   0  0  0  0  0  0  0  0  0  0  0  0
  -27.2289  -34.0447   22.8626 C   0  0  0  0  0  0  0  0  0  0  0  0
  -26.6110  -30.3268   19.4803 C   0  0  0  0  0  0  0  0  0  0  0  0
  -23.7445   -7.6081   21.5698 C   0  0  0  0  0  0  0  0  0  0  0  0
  -22.1413   -9.0249   20.4476 C   0  0  0  0  0  0  0  0  0  0  0  0
  -27.6637  -29.4260   19.3248 C   0  0  0  0  0  0  0  0  0  0  0  0
  -21.8664   -5.1565   20.1931 C   0  0  0  0  0  0  0  0  0  0  0  0
  -22.0674   -3.7837   20.0497 C   0  0  0  0  0  0  0  0  0  0  0  0
  -29.9131  -19.1058   15.7532 C   0  0  0  0  0  0  0  0  0  0  0  0
  -28.6578  -17.1367   16.3288 C   0  0  0  0  0  0  0  0  0  0  0  0
  -26.5063  -27.8408   20.7272 C   0  0  0  0  0  0  0  0  0  0  0  0
  -21.7782   -3.4927   22.4306 C   0  0  0  0  0  0  0  0  0  0  0  0
  -24.4892   -9.5933   20.4115 C   0  0  0  0  0  0  0  0  0  0  0  0
  -26.3122  -10.3947   18.8172 C   0  0  0  0  0  0  0  0  0  0  0  0
  -25.6472  -35.6634   23.7378 C   0  0  0  0  0  0  0  0  0  0  0  0
  -25.5011  -29.9950   20.2706 C   0  0  0  0  0  0  0  0  0  0  0  0
  -26.0345  -34.3230   23.5487 C   0  0  0  0  0  0  0  0  0  0  0  0
  -25.4397  -28.7381   20.8890 C   0  0  0  0  0  0  0  0  0  0  0  0
  -22.4275   -7.8909   21.2078 C   0  0  0  0  0  0  0  0  0  0  0  0
  -27.6128  -28.1839   19.9507 C   0  0  0  0  0  0  0  0  0  0  0  0
  -21.6215   -5.6975   21.4553 C   0  0  0  0  0  0  0  0  0  0  0  0
  -22.0233   -2.9518   21.1684 C   0  0  0  0  0  0  0  0  0  0  0  0
  -21.5773   -4.8655   22.5740 C   0  0  0  0  0  0  0  0  0  0  0  0
  -25.5535  -10.4732   20.0004 C   0  0  0  0  0  0  0  0  0  0  0  0
  -30.0182  -19.3695   17.1094 C   0  0  0  0  0  0  0  0  0  0  0  0
  -28.8192  -17.4885   17.6592 C   0  0  0  0  0  0  0  0  0  0  0  0
  -27.1866  -11.4507   18.8993 C   0  0  0  0  0  0  0  0  0  0  0  0
  -26.2334   -9.4517   17.7400 C   0  0  0  0  0  0  0  0  0  0  0  0
  -24.1931  -31.1833   22.9127 C   0  0  0  0  0  0  0  0  0  0  0  0
  -21.8916  -28.9820   22.2962 C   0  0  0  0  0  0  0  0  0  0  0  0
  -30.0877  -22.8993   18.2346 C   0  0  0  0  0  0  0  0  0  0  0  0
  -21.0227  -26.0400   20.8009 C   0  0  0  0  0  0  0  0  0  0  0  0
  -28.2793  -16.7942   20.0199 C   0  0  0  0  0  0  0  0  0  0  0  0
  -24.4017  -36.0284   24.5059 C   0  0  0  0  0  0  0  0  0  0  0  0
  -24.3616  -30.9674   20.4065 C   0  0  0  0  0  0  0  0  0  0  0  0
  -24.2614  -28.3256   21.7315 C   0  0  0  0  0  0  0  0  0  0  0  0
  -23.4178  -34.8711   24.6564 C   0  0  0  0  0  0  0  0  0  0  0  0
  -28.2808  -14.5282   22.7662 C   0  0  0  0  0  0  0  0  0  0  0  0
  -24.1475  -33.6026   25.0869 C   0  0  0  0  0  0  0  0  0  0  0  0
  -27.6339  -13.2648   22.1941 C   0  0  0  0  0  0  0  0  0  0  0  0
  -27.6414  -15.7969   22.2047 C   0  0  0  0  0  0  0  0  0  0  0  0
  -26.9385  -14.6042   20.1669 C   0  0  0  0  0  0  0  0  0  0  0  0
  -25.1772  -33.1744   24.0343 C   0  0  1  0  0  0  0  0  0  0  0  0
  -23.5151  -30.7254   21.6524 C   0  0  1  0  0  0  0  0  0  0  0  0
  -27.5925  -13.3008   20.6538 C   0  0  2  0  0  0  0  0  0  0  0  0
  -31.9652  -20.2604   18.4538 C   0  0  0  0  0  0  0  0  0  0  0  0
  -19.0802  -24.4789   20.5053 C   0  0  0  0  0  0  0  0  0  0  0  0
  -22.2866  -27.9557   25.1424 C   0  0  0  0  0  0  0  0  0  0  0  0
  -21.0626  -25.8724   24.4865 C   0  0  0  0  0  0  0  0  0  0  0  0
  -19.9018  -28.0786   24.3992 C   0  0  0  0  0  0  0  0  0  0  0  0
  -21.0383  -26.3911   17.8623 C   0  0  0  0  0  0  0  0  0  0  0  0
  -29.0158  -23.6538   18.9949 C   0  0  0  0  0  0  0  0  0  0  0  0
  -28.3170  -25.9142   19.8599 C   0  0  0  0  0  0  0  0  0  1  0  0
  -30.7672  -20.6014   17.5700 C   0  0  2  0  0  0  0  0  0  0  0  0
  -21.6662  -27.5372   22.6713 C   0  0  1  0  0  0  0  0  0  0  0  0
  -19.8381  -25.6646   19.9288 C   0  0  2  0  0  0  0  0  0  0  0  0
  -29.3121  -25.1477   19.0042 C   0  0  1  0  0  0  0  0  0  0  0  0
  -21.2525  -27.3692   24.1606 C   0  0  0  0  0  0  0  0  0  0  0  0
  -25.9145  -11.4979   20.7774 N   0  0  0  0  0  0  0  0  0  0  0  0
  -29.4873  -18.5874   18.0758 N   0  0  0  0  0  0  0  0  0  0  0  0
  -26.9096  -12.0730   20.0809 N   0  0  0  0  0  0  0  0  0  0  0  0
  -23.1751  -29.3134   21.8393 N   0  0  0  0  0  0  0  0  0  0  0  0
  -27.6413  -15.7626   20.7406 N   0  0  0  0  0  0  0  0  0  0  0  0
  -28.1578  -11.8983   18.0753 N   0  0  0  0  0  0  0  0  0  0  0  0
  -25.2778   -8.4292   17.8158 N   0  0  0  0  0  0  0  0  0  0  0  0
  -28.2426  -16.6377   18.6347 N   0  0  0  0  0  0  0  0  0  0  0  0
  -24.5206  -32.5257   22.9196 N   0  0  0  0  0  0  0  0  0  0  0  0
  -29.8872  -21.5292   18.2423 N   0  0  0  0  0  0  0  0  0  0  0  0
  -20.6928  -27.0151   21.7182 N   0  0  0  0  0  0  0  0  0  0  0  0
  -20.2976  -25.3068   18.5571 N   0  3  0  0  0  0  0  0  0  0  0  0
  -26.9990   -9.5042   16.7478 O   0  0  0  0  0  0  0  0  0  0  0  0
  -24.4022  -30.3785   23.8129 O   0  0  0  0  0  0  0  0  0  0  0  0
  -20.9612  -29.7855   22.3979 O   0  0  0  0  0  0  0  0  0  0  0  0
  -31.0111  -23.4839   17.6725 O   0  0  0  0  0  0  0  0  0  0  0  0
  -22.1288  -25.5175   20.6828 O   0  0  0  0  0  0  0  0  0  0  0  0
  -28.8420  -17.7323   20.5903 O   0  0  0  0  0  0  0  0  0  0  0  0
  -21.4214   -7.0605   21.5959 O   0  0  0  0  0  0  0  0  0  0  0  0
  -28.6393  -27.3031   19.8011 O   0  0  0  0  0  0  0  0  0  1  0  0
  -22.2147   -1.6333   21.0303 F   0  0  0  0  0  0  0  0  0  0  0  0
  -21.3412   -5.3792   23.7890 F   0  0  0  0  0  0  0  0  0  0  0  0
  -30.5513  -25.3257   19.5516 F   0  0  0  0  0  0  0  0  0  0  0  0
  1  2  1  0  0  0  0
  1  6  2  0  0  0  0
  2  7  2  0  0  0  0
  3 14  2  0  0  0  0
  3 15  1  0  0  0  0
  4  9  2  0  0  0  0
  4 18  1  0  0  0  0
  5 10  1  0  0  0  0
  5 18  2  0  0  0  0
  6 20  1  0  0  0  0
  7 22  1  0  0  0  0
  8 11  2  0  0  0  0
  8 21  1  0  0  0  0
  9 24  1  0  0  0  0
 10 24  2  0  0  0  0
 11 25  1  0  0  0  0
 12 13  2  0  0  0  0
 12 26  1  0  0  0  0
 13 27  1  0  0  0  0
 14 30  1  0  0  0  0
 15 31  2  0  0  0  0
 16 23  1  0  0  0  0
 16 25  2  0  0  0  0
 17 27  2  0  0  0  0
 17 28  1  0  0  0  0
 18 29  1  0  0  0  0
 19 29  1  0  0  0  0
 19 32  2  0  0  0  0
 19 33  1  0  0  0  0
 20 22  2  0  0  0  0
 20 39  1  0  0  0  0
 21 23  2  0  0  0  0
 21 40  1  0  0  0  0
 22 48  1  0  0  0  0
 23 41  1  0  0  0  0
 24 82  1  0  0  0  0
 25 83  1  0  0  0  0
 26 28  2  0  0  0  0
 26 82  1  0  0  0  0
 27 84  1  0  0  0  0
 28 85  1  0  0  0  0
 29 64  2  0  0  0  0
 30 59  1  0  0  0  0
 30 65  2  0  0  0  0
 31 65  1  0  0  0  0
 31 71  1  0  0  0  0
 32 66  1  0  0  0  0
 32 69  1  0  0  0  0
 33 70  1  0  0  0  0
 33 76  2  0  0  0  0
 34 49  1  0  0  0  0
 34 72  1  0  0  0  0
 34 77  2  0  0  0  0
 35 60  1  0  0  0  0
 35 67  1  0  0  0  0
 35 78  2  0  0  0  0
 36 57  1  0  0  0  0
 36 73  1  0  0  0  0
 36 79  2  0  0  0  0
 37 61  1  0  0  0  0
 37 74  1  0  0  0  0
 37 80  2  0  0  0  0
 38 68  1  0  0  0  0
 38 71  1  0  0  0  0
 38 81  2  0  0  0  0
 39 42  1  0  0  0  0
 40 49  1  0  0  0  0
 41 67  1  0  0  0  0
 42 44  1  0  0  0  0
 43 45  1  0  0  0  0
 43 46  1  0  0  0  0
 44 48  1  0  0  0  0
 45 50  1  0  0  0  0
 46 68  1  0  0  0  0
 47 50  1  0  0  0  0
 47 68  1  0  0  0  0
 48 72  1  0  0  0  0
 49 67  1  0  0  0  0
 50 66  1  0  0  0  0
 51 59  1  0  0  0  0
 52 61  1  0  0  0  0
 53 63  1  0  0  0  0
 54 63  1  0  0  0  0
 55 63  1  0  0  0  0
 56 75  1  0  0  0  0
 57 62  1  0  0  0  0
 58 62  1  0  0  0  0
 58 83  1  0  0  0  0
 59 73  1  0  0  0  0
 60 63  1  0  0  0  0
 60 74  1  0  0  0  0
 61 75  1  0  0  0  0
 62 86  1  0  0  0  0
 64 66  1  0  0  0  0
M  CHG  1  75   1
M  ISO  4  38 100  58 101  71 100  83 101
M  END
> <Batch ID>
0185

> <Smiles>
CNC(C)C(=O)NC(C(=O)N1Cc2cc([101O:1][101CH2:1]C(F)CC(=O)NC(C)c3cccc([100NH:0][100C:0](=O)N4CCCC(n5nc(-c6ccc(Oc7ccc(F)cc7F)cc6)c(C(N)=O)c5N)C4)n3)ccc2CC1C(=O)NC1CCCc2ccccc21)C(C)(C)C

> <Shape>
0.324

> <Color>
0.083

> <Negative vol penalty>
0.000

$$$$

  -OEChem-04052305053D

 83 91  0     1  0  0  0  0  0999 V2000
  -30.5899  -22.3114   25.2713 C   0  0  0  0  0  0  0  0  0  0  0  0
  -30.5289  -22.2087   23.8853 C   0  0  0  0  0  0  0  0  0  0  0  0
  -23.0573   -9.8421   20.0209 C   0  0  0  0  0  0  0  0  0  0  0  0
  -23.7121  -10.0226   22.3395 C   0  0  0  0  0  0  0  0  0  0  0  0
  -30.0096  -23.4039   25.9144 C   0  0  0  0  0  0  0  0  0  0  0  0
  -29.8866  -23.1980   23.1415 C   0  0  0  0  0  0  0  0  0  0  0  0
  -32.5392  -24.5885   19.0580 C   0  0  0  0  0  0  0  0  0  0  0  0
  -22.3066   -8.7056   20.3215 C   0  0  0  0  0  0  0  0  0  0  0  0
  -22.9613   -8.8861   22.6400 C   0  0  0  0  0  0  0  0  0  0  0  0
  -32.4973  -23.7402   17.9523 C   0  0  0  0  0  0  0  0  0  0  0  0
  -23.2879   -5.5341   22.3429 C   0  0  0  0  0  0  0  0  0  0  0  0
  -23.8734   -4.5684   23.1615 C   0  0  0  0  0  0  0  0  0  0  0  0
  -30.8577  -25.1771   16.9197 C   0  0  0  0  0  0  0  0  0  0  0  0
  -22.0956   -4.8559   24.7721 C   0  0  0  0  0  0  0  0  0  0  0  0
  -23.7602  -10.5006   21.0300 C   0  0  0  0  0  0  0  0  0  0  0  0
  -24.0990  -13.0122   20.7396 C   0  0  0  0  0  0  0  0  0  0  0  0
  -29.3682  -24.4120   25.1775 C   0  0  0  0  0  0  0  0  0  0  0  0
  -31.7312  -25.7335   19.1076 C   0  0  0  0  0  0  0  0  0  0  0  0
  -29.2960  -24.3043   23.7755 C   0  0  0  0  0  0  0  0  0  0  0  0
  -30.8931  -26.0396   18.0260 C   0  0  0  0  0  0  0  0  0  0  0  0
  -22.2585   -8.2276   21.6310 C   0  0  0  0  0  0  0  0  0  0  0  0
  -31.6543  -24.0329   16.8842 C   0  0  0  0  0  0  0  0  0  0  0  0
  -22.1063   -6.1608   22.7389 C   0  0  0  0  0  0  0  0  0  0  0  0
  -23.2773   -4.2293   24.3761 C   0  0  0  0  0  0  0  0  0  0  0  0
  -21.5101   -5.8217   23.9535 C   0  0  0  0  0  0  0  0  0  0  0  0
  -24.5364  -11.6743   20.7201 C   0  0  0  0  0  0  0  0  0  0  0  0
  -29.4269  -18.8350   20.4155 C   0  0  0  0  0  0  0  0  0  0  0  0
  -30.5197  -18.0649   20.7543 C   0  0  0  0  0  0  0  0  0  0  0  0
  -25.2041  -13.7401   20.3717 C   0  0  0  0  0  0  0  0  0  0  0  0
  -30.8422  -19.5964   18.9232 C   0  0  0  0  0  0  0  0  0  0  0  0
  -22.8091  -13.5491   21.0616 C   0  0  0  0  0  0  0  0  0  0  0  0
  -29.3901  -26.7464   21.0042 C   0  0  0  0  0  0  0  0  0  0  0  0
  -29.6507  -29.4503   19.2311 C   0  0  0  0  0  0  0  0  0  0  0  0
  -30.5995  -30.9097   16.2957 C   0  0  0  0  0  0  0  0  0  0  0  0
  -30.8768  -21.2836   17.0548 C   0  0  0  0  0  0  0  0  0  0  0  0
  -30.6704  -14.8061   20.7315 C   0  0  0  0  0  0  0  0  0  0  0  0
  -28.7144  -25.5501   25.9204 C   0  0  0  0  0  0  0  0  0  0  0  0
  -31.8078  -26.6526   20.2958 C   0  0  0  0  0  0  0  0  0  0  0  0
  -30.0208  -27.2674   18.0213 C   0  0  0  0  0  0  0  0  0  0  0  0
  -28.3791  -26.7449   25.0315 C   0  0  0  0  0  0  0  0  0  0  0  0
  -29.6501  -12.2452   18.4782 C   0  0  0  0  0  0  0  0  0  0  0  0
  -27.7024  -26.2805   23.7458 C   0  0  0  0  0  0  0  0  0  0  0  0
  -28.1954  -11.9747   18.8664 C   0  0  0  0  0  0  0  0  0  0  0  0
  -30.5110  -12.5597   19.6997 C   0  0  0  0  0  0  0  0  0  0  0  0
  -28.5458  -13.3783   20.9414 C   0  0  0  0  0  0  0  0  0  0  0  0
  -28.6297  -25.3697   22.9322 C   0  0  1  0  0  0  0  0  0  0  0  0
  -30.5618  -27.5166   20.4642 C   0  0  1  0  0  0  0  0  0  0  0  0
  -27.6268  -13.1112   19.7371 C   0  0  2  0  0  0  0  0  0  0  0  0
  -28.1023  -18.7999   21.0684 C   0  0  0  0  0  0  0  0  0  0  0  0
  -30.6535  -33.1295   15.1266 C   0  0  0  0  0  0  0  0  0  0  0  0
  -31.7923  -21.0690   14.7149 C   0  0  0  0  0  0  0  0  0  0  0  0
  -26.6544  -29.2382   18.6953 C   0  0  0  0  0  0  0  0  0  0  0  0
  -26.9466  -30.8633   16.8133 C   0  0  0  0  0  0  0  0  0  0  0  0
  -27.4711  -31.5576   19.1512 C   0  0  0  0  0  0  0  0  0  0  0  0
  -33.5509  -30.8564   16.0827 C   0  0  0  0  0  0  0  0  0  0  0  0
  -30.6730  -17.0422   21.8082 C   0  0  0  0  0  0  0  0  0  0  0  0
  -29.0214  -29.9575   17.9561 C   0  0  1  0  0  0  0  0  0  0  0  0
  -31.4186  -32.1551   16.0086 C   0  0  2  0  0  0  0  0  0  0  0  0
  -31.8754  -21.8229   16.0339 C   0  0  1  0  0  0  0  0  0  1  0  0
  -27.5383  -30.3799   18.1546 C   0  0  0  0  0  0  0  0  0  0  0  0
  -25.8192  -11.5562   20.3675 N   0  0  0  0  0  0  0  0  0  0  0  0
  -29.6101  -19.7140   19.3660 N   0  0  0  0  0  0  0  0  0  0  0  0
  -26.1975  -12.8293   20.1620 N   0  0  0  0  0  0  0  0  0  0  0  0
  -30.1265  -28.1316   19.2086 N   0  0  0  0  0  0  0  0  0  0  0  0
  -29.9174  -13.6470   20.4817 N   0  0  0  0  0  0  0  0  0  0  0  0
  -25.4134  -15.0640   20.2102 N   0  0  0  0  0  0  0  0  0  0  0  0
  -21.7859  -12.6606   21.4190 N   0  0  0  0  0  0  0  0  0  0  0  0
  -31.4511  -20.3064   17.8611 N   0  0  0  0  0  0  0  0  0  0  0  0
  -29.6226  -26.1556   22.2315 N   0  0  0  0  0  0  0  0  0  0  0  0
  -29.8873  -31.0265   17.4706 N   0  0  0  0  0  0  0  0  0  0  0  0
  -30.0306  -15.7904   21.4749 N   0  0  0  0  0  0  0  0  0  0  0  0
  -32.6879  -31.7923   15.3170 N   0  3  0  0  0  0  0  0  0  0  0  0
  -22.5666  -14.7791   21.0173 O   0  0  0  0  0  0  0  0  0  0  0  0
  -28.3515  -26.6934   20.3560 O   0  0  0  0  0  0  0  0  0  0  0  0
  -29.7242  -30.1990   20.2087 O   0  0  0  0  0  0  0  0  0  0  0  0
  -30.5894  -29.9326   15.5503 O   0  0  0  0  0  0  0  0  0  0  0  0
  -29.7293  -21.7162   17.1125 O   0  0  0  0  0  0  0  0  0  0  0  0
  -31.8252  -14.9552   20.3179 O   0  0  0  0  0  0  0  0  0  0  0  0
  -21.5258   -7.1188   21.9246 O   0  0  0  0  0  0  0  0  0  0  0  0
  -31.6110  -23.2063   15.8041 O   0  0  0  0  0  0  0  0  0  1  0  0
  -23.8388   -3.3008   25.1615 F   0  0  0  0  0  0  0  0  0  0  0  0
  -20.3743   -6.4194   24.3387 F   0  0  0  0  0  0  0  0  0  0  0  0
  -31.8351  -18.4472   19.7223 S   0  0  0  0  0  0  0  0  0  0  0  0
  1  2  1  0  0  0  0
  1  5  2  0  0  0  0
  2  6  2  0  0  0  0
  3  8  2  0  0  0  0
  3 15  1  0  0  0  0
  4  9  1  0  0  0  0
  4 15  2  0  0  0  0
  5 17  1  0  0  0  0
  6 19  1  0  0  0  0
  7 10  2  0  0  0  0
  7 18  1  0  0  0  0
  8 21  1  0  0  0  0
  9 21  2  0  0  0  0
 10 22  1  0  0  0  0
 11 12  2  0  0  0  0
 11 23  1  0  0  0  0
 12 24  1  0  0  0  0
 13 20  1  0  0  0  0
 13 22  2  0  0  0  0
 14 24  2  0  0  0  0
 14 25  1  0  0  0  0
 15 26  1  0  0  0  0
 16 26  1  0  0  0  0
 16 29  2  0  0  0  0
 16 31  1  0  0  0  0
 17 19  2  0  0  0  0
 17 37  1  0  0  0  0
 18 20  2  0  0  0  0
 18 38  1  0  0  0  0
 19 46  1  0  0  0  0
 20 39  1  0  0  0  0
 21 79  1  0  0  0  0
 22 80  1  0  0  0  0
 23 25  2  0  0  0  0
 23 79  1  0  0  0  0
 24 81  1  0  0  0  0
 25 82  1  0  0  0  0
 26 61  2  0  0  0  0
 27 28  2  0  0  0  0
 27 49  1  0  0  0  0
 27 62  1  0  0  0  0
 28 56  1  0  0  0  0
 28 83  1  0  0  0  0
 29 63  1  0  0  0  0
 29 66  1  0  0  0  0
 30 62  2  0  0  0  0
 30 68  1  0  0  0  0
 30 83  1  0  0  0  0
 31 67  1  0  0  0  0
 31 73  2  0  0  0  0
 32 47  1  0  0  0  0
 32 69  1  0  0  0  0
 32 74  2  0  0  0  0
 33 57  1  0  0  0  0
 33 64  1  0  0  0  0
 33 75  2  0  0  0  0
 34 58  1  0  0  0  0
 34 70  1  0  0  0  0
 34 76  2  0  0  0  0
 35 59  1  0  0  0  0
 35 68  1  0  0  0  0
 35 77  2  0  0  0  0
 36 65  1  0  0  0  0
 36 71  1  0  0  0  0
 36 78  2  0  0  0  0
 37 40  1  0  0  0  0
 38 47  1  0  0  0  0
 39 64  1  0  0  0  0
 40 42  1  0  0  0  0
 41 43  1  0  0  0  0
 41 44  1  0  0  0  0
 42 46  1  0  0  0  0
 43 48  1  0  0  0  0
 44 65  1  0  0  0  0
 45 48  1  0  0  0  0
 45 65  1  0  0  0  0
 46 69  1  0  0  0  0
 47 64  1  0  0  0  0
 48 63  1  0  0  0  0
 50 58  1  0  0  0  0
 51 59  1  0  0  0  0
 52 60  1  0  0  0  0
 53 60  1  0  0  0  0
 54 60  1  0  0  0  0
 55 72  1  0  0  0  0
 56 71  1  0  0  0  0
 57 60  1  0  0  0  0
 57 70  1  0  0  0  0
 58 72  1  0  0  0  0
 59 80  1  0  0  0  0
 61 63  1  0  0  0  0
M  CHG  1  72   1
M  ISO  4  36 100  59 101  71 100  80 101
M  END
> <Batch ID>
0185

> <Smiles>
CNC(C)C(=O)NC(C(=O)N1Cc2cc([101O:1][101CH:1](C)C(=O)Nc3nc(C)c(C[100NH:0][100C:0](=O)N4CCCC(n5nc(-c6ccc(Oc7ccc(F)cc7F)cc6)c(C(N)=O)c5N)C4)s3)ccc2CC1C(=O)NC1CCCc2ccccc21)C(C)(C)C

> <Shape>
0.256

> <Color>
0.223

> <Negative vol penalty>
0.000

$$$$

  -OEChem-04052305053D

 84 92  0     1  0  0  0  0  0999 V2000
  -24.7789  -22.5139   17.7112 C   0  0  0  0  0  0  0  0  0  0  0  0
  -25.7493  -21.5232   17.5994 C   0  0  0  0  0  0  0  0  0  0  0  0
  -27.1812  -28.6510   19.4211 C   0  0  0  0  0  0  0  0  0  0  0  0
  -26.0114  -27.1118   20.8700 C   0  0  0  0  0  0  0  0  0  0  0  0
  -23.8544  -22.4680   18.7538 C   0  0  0  0  0  0  0  0  0  0  0  0
  -25.7963  -20.4866   18.5309 C   0  0  0  0  0  0  0  0  0  0  0  0
  -27.3755  -14.6633   17.4819 C   0  0  0  0  0  0  0  0  0  0  0  0
  -26.0649  -29.4873   19.4083 C   0  0  0  0  0  0  0  0  0  0  0  0
  -24.8951  -27.9481   20.8573 C   0  0  0  0  0  0  0  0  0  0  0  0
  -28.5672  -13.9655   17.6736 C   0  0  0  0  0  0  0  0  0  0  0  0
  -23.6525  -32.2039   19.2857 C   0  0  0  0  0  0  0  0  0  0  0  0
  -23.8653  -33.5722   19.4532 C   0  0  0  0  0  0  0  0  0  0  0  0
  -30.0224  -17.7901   22.6397 C   0  0  0  0  0  0  0  0  0  0  0  0
  -30.5265  -16.6612   22.0035 C   0  0  0  0  0  0  0  0  0  0  0  0
  -27.7527  -13.1709   19.8007 C   0  0  0  0  0  0  0  0  0  0  0  0
  -24.8612  -33.1528   21.6141 C   0  0  0  0  0  0  0  0  0  0  0  0
  -27.1544  -27.4632   20.1519 C   0  0  0  0  0  0  0  0  0  0  0  0
  -29.3844  -26.6319   21.0706 C   0  0  0  0  0  0  0  0  0  0  0  0
  -23.8841  -21.4251   19.6930 C   0  0  0  0  0  0  0  0  0  0  0  0
  -26.3662  -14.6289   18.4547 C   0  0  0  0  0  0  0  0  0  0  0  0
  -24.8722  -20.4275   19.5879 C   0  0  0  0  0  0  0  0  0  0  0  0
  -26.5482  -13.8671   19.6178 C   0  0  0  0  0  0  0  0  0  0  0  0
  -24.9219  -29.1359   20.1264 C   0  0  0  0  0  0  0  0  0  0  0  0
  -28.7571  -13.2215   18.8344 C   0  0  0  0  0  0  0  0  0  0  0  0
  -24.0439  -31.3100   20.2824 C   0  0  0  0  0  0  0  0  0  0  0  0
  -24.4697  -34.0467   20.6174 C   0  0  0  0  0  0  0  0  0  0  0  0
  -29.7741  -18.9434   21.9038 C   0  0  0  0  0  0  0  0  0  0  0  0
  -24.6482  -31.7845   21.4466 C   0  0  0  0  0  0  0  0  0  0  0  0
  -28.3070  -26.5986   20.1651 C   0  0  0  0  0  0  0  0  0  0  0  0
  -30.7633  -16.7364   20.6404 C   0  0  0  0  0  0  0  0  0  0  0  0
  -30.0447  -18.9164   20.5452 C   0  0  0  0  0  0  0  0  0  0  0  0
  -30.2106  -25.6150   20.6587 C   0  0  0  0  0  0  0  0  0  0  0  0
  -29.6174  -27.5041   22.1845 C   0  0  0  0  0  0  0  0  0  0  0  0
  -24.9443  -16.8005   20.2895 C   0  0  0  0  0  0  0  0  0  0  0  0
  -23.0560  -14.2962   21.1174 C   0  0  0  0  0  0  0  0  0  0  0  0
  -31.5795  -14.3542   20.5841 C   0  0  0  0  0  0  0  0  0  0  0  0
  -22.6833  -10.9150   21.3913 C   0  0  0  0  0  0  0  0  0  0  0  0
  -29.9867  -20.2895   18.4339 C   0  0  0  0  0  0  0  0  0  0  0  0
  -22.8935  -21.4437   20.8301 C   0  0  0  0  0  0  0  0  0  0  0  0
  -25.0758  -15.3655   18.2208 C   0  0  0  0  0  0  0  0  0  0  0  0
  -25.4874  -13.7812   20.6835 C   0  0  0  0  0  0  0  0  0  0  0  0
  -22.7775  -20.1074   21.5588 C   0  0  0  0  0  0  0  0  0  0  0  0
  -30.8192  -23.1143   16.4326 C   0  0  0  0  0  0  0  0  0  0  0  0
  -24.1617  -19.5407   21.8582 C   0  0  0  0  0  0  0  0  0  0  0  0
  -30.3622  -24.3051   17.2784 C   0  0  0  0  0  0  0  0  0  0  0  0
  -29.8693  -21.9254   16.5670 C   0  0  0  0  0  0  0  0  0  0  0  0
  -29.1402  -22.6918   18.7920 C   0  0  0  0  0  0  0  0  0  0  0  0
  -24.9401  -19.2734   20.5643 C   0  0  1  0  0  0  0  0  0  0  0  0
  -24.3226  -15.6759   19.5106 C   0  0  1  0  0  0  0  0  0  0  0  0
  -30.1008  -23.8911   18.7398 C   0  0  2  0  0  0  0  0  0  0  0  0
  -21.0431   -9.1678   22.1361 C   0  0  0  0  0  0  0  0  0  0  0  0
  -31.6498  -12.0719   17.4345 C   0  0  0  0  0  0  0  0  0  0  0  0
  -23.7103  -14.9272   24.0300 C   0  0  0  0  0  0  0  0  0  0  0  0
  -22.8595  -12.6532   24.6411 C   0  0  0  0  0  0  0  0  0  0  0  0
  -21.3213  -14.3215   23.6051 C   0  0  0  0  0  0  0  0  0  0  0  0
  -22.5506   -9.7204   18.6867 C   0  0  0  0  0  0  0  0  0  0  0  0
  -32.1094  -13.3824   19.5341 C   0  0  0  0  0  0  0  0  0  0  0  0
  -23.1031  -13.2282   22.1832 C   0  0  1  0  0  0  0  0  0  0  0  0
  -21.5600   -9.9875   20.9640 C   0  0  2  0  0  0  0  0  0  0  0  0
  -31.0964  -13.0844   18.4285 C   0  0  2  0  0  0  0  0  0  1  0  0
  -22.7695  -13.7855   23.5958 C   0  0  0  0  0  0  0  0  0  0  0  0
  -28.4345  -25.6368   19.2471 N   0  0  0  0  0  0  0  0  0  0  0  0
  -30.5346  -17.8388   19.8922 N   0  0  0  0  0  0  0  0  0  0  0  0
  -29.6018  -25.0563   19.5736 N   0  0  0  0  0  0  0  0  0  0  0  0
  -24.2458  -14.5240   20.4115 N   0  0  0  0  0  0  0  0  0  0  0  0
  -29.6723  -21.5874   17.9784 N   0  0  0  0  0  0  0  0  0  0  0  0
  -31.3913  -25.1531   21.1224 N   0  0  0  0  0  0  0  0  0  0  0  0
  -28.6670  -28.4944   22.4679 N   0  0  0  0  0  0  0  0  0  0  0  0
  -31.2764  -15.5822   20.0021 N   0  0  0  0  0  0  0  0  0  0  0  0
  -29.7895  -20.0946   19.8005 N   0  0  0  0  0  0  0  0  0  0  0  0
  -24.4774  -18.0529   19.9391 N   0  0  0  0  0  0  0  0  0  0  0  0
  -22.2114  -12.1642   21.7347 N   0  0  0  0  0  0  0  0  0  0  0  0
  -22.0359   -9.0496   19.9082 N   0  3  0  0  0  0  0  0  0  0  0  0
  -30.6462  -27.4186   22.8970 O   0  0  0  0  0  0  0  0  0  0  0  0
  -25.7842  -16.5502   21.1460 O   0  0  0  0  0  0  0  0  0  0  0  0
  -22.0003  -14.9010   20.9136 O   0  0  0  0  0  0  0  0  0  0  0  0
  -31.4588  -14.0400   21.7634 O   0  0  0  0  0  0  0  0  0  0  0  0
  -23.8610  -10.5650   21.4211 O   0  0  0  0  0  0  0  0  0  0  0  0
  -30.4261  -19.4235   17.6731 O   0  0  0  0  0  0  0  0  0  0  0  0
  -23.8326  -29.9518   20.1143 O   0  0  0  0  0  0  0  0  0  0  0  0
  -29.9196  -12.5400   19.0243 O   0  0  0  0  0  0  0  0  0  1  0  0
  -24.6754  -35.3605   20.7774 F   0  0  0  0  0  0  0  0  0  0  0  0
  -29.2887  -20.0382   22.5034 F   0  0  0  0  0  0  0  0  0  0  0  0
  -25.0275  -30.9305   22.4072 F   0  0  0  0  0  0  0  0  0  0  0  0
  1  2  1  0  0  0  0
  1  5  2  0  0  0  0
  2  6  2  0  0  0  0
  3  8  2  0  0  0  0
  3 17  1  0  0  0  0
  4  9  1  0  0  0  0
  4 17  2  0  0  0  0
  5 19  1  0  0  0  0
  6 21  1  0  0  0  0
  7 10  2  0  0  0  0
  7 20  1  0  0  0  0
  8 23  1  0  0  0  0
  9 23  2  0  0  0  0
 10 24  1  0  0  0  0
 11 12  2  0  0  0  0
 11 25  1  0  0  0  0
 12 26  1  0  0  0  0
 13 14  2  0  0  0  0
 13 27  1  0  0  0  0
 14 30  1  0  0  0  0
 15 22  1  0  0  0  0
 15 24  2  0  0  0  0
 16 26  2  0  0  0  0
 16 28  1  0  0  0  0
 17 29  1  0  0  0  0
 18 29  1  0  0  0  0
 18 32  2  0  0  0  0
 18 33  1  0  0  0  0
 19 21  2  0  0  0  0
 19 39  1  0  0  0  0
 20 22  2  0  0  0  0
 20 40  1  0  0  0  0
 21 48  1  0  0  0  0
 22 41  1  0  0  0  0
 23 80  1  0  0  0  0
 24 81  1  0  0  0  0
 25 28  2  0  0  0  0
 25 80  1  0  0  0  0
 26 82  1  0  0  0  0
 27 31  2  0  0  0  0
 27 83  1  0  0  0  0
 28 84  1  0  0  0  0
 29 62  2  0  0  0  0
 30 63  2  0  0  0  0
 30 69  1  0  0  0  0
 31 63  1  0  0  0  0
 31 70  1  0  0  0  0
 32 64  1  0  0  0  0
 32 67  1  0  0  0  0
 33 68  1  0  0  0  0
 33 74  2  0  0  0  0
 34 49  1  0  0  0  0
 34 71  1  0  0  0  0
 34 75  2  0  0  0  0
 35 58  1  0  0  0  0
 35 65  1  0  0  0  0
 35 76  2  0  0  0  0
 36 57  1  0  0  0  0
 36 69  1  0  0  0  0
 36 77  2  0  0  0  0
 37 59  1  0  0  0  0
 37 72  1  0  0  0  0
 37 78  2  0  0  0  0
 38 66  1  0  0  0  0
 38 70  1  0  0  0  0
 38 79  2  0  0  0  0
 39 42  1  0  0  0  0
 40 49  1  0  0  0  0
 41 65  1  0  0  0  0
 42 44  1  0  0  0  0
 43 45  1  0  0  0  0
 43 46  1  0  0  0  0
 44 48  1  0  0  0  0
 45 50  1  0  0  0  0
 46 66  1  0  0  0  0
 47 50  1  0  0  0  0
 47 66  1  0  0  0  0
 48 71  1  0  0  0  0
 49 65  1  0  0  0  0
 50 64  1  0  0  0  0
 51 59  1  0  0  0  0
 52 60  1  0  0  0  0
 53 61  1  0  0  0  0
 54 61  1  0  0  0  0
 55 61  1  0  0  0  0
 56 73  1  0  0  0  0
 57 60  1  0  0  0  0
 58 61  1  0  0  0  0
 58 72  1  0  0  0  0
 59 73  1  0  0  0  0
 60 81  1  0  0  0  0
 62 64  1  0  0  0  0
M  CHG  1  73   1
M  ISO  4  38 100  60 101  70 100  81 101
M  END
> <Batch ID>
0185

> <Smiles>
CNC(C)C(=O)NC(C(=O)N1Cc2cc([101O:1][101CH:1](C)CC(=O)Nc3ccc(F)c([100NH:0][100C:0](=O)N4CCCC(n5nc(-c6ccc(Oc7ccc(F)cc7F)cc6)c(C(N)=O)c5N)C4)n3)ccc2CC1C(=O)NC1CCCc2ccccc21)C(C)(C)C

> <Shape>
0.270

> <Color>
0.068

> <Negative vol penalty>
0.000

$$$$

  -OEChem-04052305053D

 89 97  0     1  0  0  0  0  0999 V2000
  -17.6099  -27.9671   23.3239 C   0  0  0  0  0  0  0  0  0  0  0  0
  -17.6343  -28.0156   21.9338 C   0  0  0  0  0  0  0  0  0  0  0  0
  -23.1258   -9.8598   19.9482 C   0  0  0  0  0  0  0  0  0  0  0  0
  -23.5941   -9.9565   22.3164 C   0  0  0  0  0  0  0  0  0  0  0  0
  -18.7652  -28.2518   24.0507 C   0  0  0  0  0  0  0  0  0  0  0  0
  -18.8140  -28.3498   21.2696 C   0  0  0  0  0  0  0  0  0  0  0  0
  -21.8062  -23.8308   16.5244 C   0  0  0  0  0  0  0  0  0  0  0  0
  -22.3340   -8.7295   20.1509 C   0  0  0  0  0  0  0  0  0  0  0  0
  -22.8023   -8.8262   22.5192 C   0  0  0  0  0  0  0  0  0  0  0  0
  -22.3262  -23.1116   15.4480 C   0  0  0  0  0  0  0  0  0  0  0  0
  -23.0949   -5.4791   22.1418 C   0  0  0  0  0  0  0  0  0  0  0  0
  -23.5959   -4.4776   22.9734 C   0  0  0  0  0  0  0  0  0  0  0  0
  -24.1253  -24.7132   15.2332 C   0  0  0  0  0  0  0  0  0  0  0  0
  -21.6989   -4.7503   24.4446 C   0  0  0  0  0  0  0  0  0  0  0  0
  -25.9182  -18.3455   15.8930 C   0  0  0  0  0  0  0  0  0  0  0  0
  -23.7559  -10.4733   21.0310 C   0  0  0  0  0  0  0  0  0  0  0  0
  -24.1596  -12.9856   20.8494 C   0  0  0  0  0  0  0  0  0  0  0  0
  -19.9621  -28.5803   23.3947 C   0  0  0  0  0  0  0  0  0  0  0  0
  -22.4532  -24.9869   16.9695 C   0  0  0  0  0  0  0  0  0  0  0  0
  -19.9860  -28.6405   21.9883 C   0  0  0  0  0  0  0  0  0  0  0  0
  -23.6161  -25.4309   16.3188 C   0  0  0  0  0  0  0  0  0  0  0  0
  -28.1930  -18.7781   15.6924 C   0  0  0  0  0  0  0  0  0  0  0  0
  -26.8672  -19.2408   15.4511 C   0  0  0  0  0  0  0  0  0  0  0  0
  -22.1722   -8.2127   21.4364 C   0  0  0  0  0  0  0  0  0  0  0  0
  -23.4827  -23.5519   14.8039 C   0  0  0  0  0  0  0  0  0  0  0  0
  -21.8960   -6.1163   22.4616 C   0  0  0  0  0  0  0  0  0  0  0  0
  -22.8979   -4.1131   24.1248 C   0  0  0  0  0  0  0  0  0  0  0  0
  -21.1980   -5.7519   23.6130 C   0  0  0  0  0  0  0  0  0  0  0  0
  -24.5744  -11.6406   20.8222 C   0  0  0  0  0  0  0  0  0  0  0  0
  -28.2068  -17.5467   16.3099 C   0  0  0  0  0  0  0  0  0  0  0  0
  -25.3031  -13.7027   20.5949 C   0  0  0  0  0  0  0  0  0  0  0  0
  -22.8573  -13.5374   21.0840 C   0  0  0  0  0  0  0  0  0  0  0  0
  -29.3665  -16.7198   16.7322 C   0  0  0  0  0  0  0  0  0  0  0  0
  -22.5192  -27.8222   19.4257 C   0  0  0  0  0  0  0  0  0  0  0  0
  -25.4190  -26.8893   19.0637 C   0  0  0  0  0  0  0  0  0  0  0  0
  -28.4113  -25.2909   18.7060 C   0  0  0  0  0  0  0  0  0  0  0  0
  -25.2549  -20.9687   14.5842 C   0  0  0  0  0  0  0  0  0  0  0  0
  -29.9906  -14.5610   17.7684 C   0  0  0  0  0  0  0  0  0  0  0  0
  -21.1731  -28.9263   24.2243 C   0  0  0  0  0  0  0  0  0  0  0  0
  -21.8945  -25.8269   18.0858 C   0  0  0  0  0  0  0  0  0  0  0  0
  -24.2591  -26.6990   16.8100 C   0  0  0  0  0  0  0  0  0  0  0  0
  -22.4789  -28.9060   23.4339 C   0  0  0  0  0  0  0  0  0  0  0  0
  -30.1472  -12.2333   20.4243 C   0  0  0  0  0  0  0  0  0  0  0  0
  -22.3136  -29.6470   22.1109 C   0  0  0  0  0  0  0  0  0  0  0  0
  -28.6774  -11.9859   20.7749 C   0  0  0  0  0  0  0  0  0  0  0  0
  -30.3520  -12.3950   18.9187 C   0  0  0  0  0  0  0  0  0  0  0  0
  -28.0263  -13.1459   18.6267 C   0  0  0  0  0  0  0  0  0  0  0  0
  -21.2528  -28.9748   21.2309 C   0  0  1  0  0  0  0  0  0  0  0  0
  -22.9851  -26.4750   18.9574 C   0  0  1  0  0  0  0  0  0  0  0  0
  -27.7576  -13.0463   20.1370 C   0  0  1  0  0  0  0  0  0  0  0  0
  -30.8016  -25.3922   19.4634 C   0  0  0  0  0  0  0  0  0  0  0  0
  -25.2866  -21.3099   11.5540 C   0  0  0  0  0  0  0  0  0  0  0  0
  -26.0827  -23.6562   11.8860 C   0  0  0  0  0  0  0  0  0  0  0  0
  -25.9144  -29.2324   17.1747 C   0  0  0  0  0  0  0  0  0  0  0  0
  -28.3544  -28.6752   17.2375 C   0  0  0  0  0  0  0  0  0  0  0  0
  -27.1757  -29.3458   19.3312 C   0  0  0  0  0  0  0  0  0  0  0  0
  -28.2500  -22.6134   19.9565 C   0  0  0  0  0  0  0  0  0  0  0  0
  -26.7233  -27.0693   18.3289 C   0  0  1  0  0  0  0  0  0  0  0  0
  -29.4234  -24.8065   19.7285 C   0  0  2  0  0  0  0  0  0  0  0  0
  -25.3134  -22.3341   13.8968 C   0  0  1  0  0  0  0  0  0  1  0  0
  -26.0022  -22.2628   12.5179 C   0  0  0  0  0  0  0  0  0  0  0  0
  -29.4164  -19.5338   15.3230 C   0  0  0  0  0  0  0  0  0  0  0  0
  -27.0228  -28.5612   18.0100 C   0  0  0  0  0  0  0  0  0  0  0  0
  -25.8793  -11.5084   20.5700 N   0  0  0  0  0  0  0  0  0  0  0  0
  -26.2945  -12.7796   20.4364 N   0  0  0  0  0  0  0  0  0  0  0  0
  -24.2704  -26.7193   18.2811 N   0  0  0  0  0  0  0  0  0  0  0  0
  -29.4517  -13.4232   18.3938 N   0  0  0  0  0  0  0  0  0  0  0  0
  -25.5471  -15.0265   20.4933 N   0  0  0  0  0  0  0  0  0  0  0  0
  -21.7935  -12.6585   21.3295 N   0  0  0  0  0  0  0  0  0  0  0  0
  -26.5282  -20.4682   14.8339 N   0  0  0  0  0  0  0  0  0  0  0  0
  -29.0502  -15.5043   17.3395 N   0  0  0  0  0  0  0  0  0  0  0  0
  -21.7949  -27.7894   20.6021 N   0  0  0  0  0  0  0  0  0  0  0  0
  -27.7432  -26.4156   19.1418 N   0  0  0  0  0  0  0  0  0  0  0  0
  -29.5288  -23.3204   19.6892 N   0  3  0  0  0  0  0  0  0  0  0  0
  -22.6400  -14.7726   21.0599 O   0  0  0  0  0  0  0  0  0  0  0  0
  -30.5034  -17.1192   16.4957 O   0  0  0  0  0  0  0  0  0  0  0  0
  -22.7970  -28.8193   18.7696 O   0  0  0  0  0  0  0  0  0  0  0  0
  -25.4149  -26.9044   20.2978 O   0  0  0  0  0  0  0  0  0  0  0  0
  -28.2340  -24.7300   17.6269 O   0  0  0  0  0  0  0  0  0  0  0  0
  -24.1813  -20.4457   14.8690 O   0  0  0  0  0  0  0  0  0  0  0  0
  -31.2055  -14.7401   17.6371 O   0  0  0  0  0  0  0  0  0  0  0  0
  -21.3995   -7.1099   21.6346 O   0  0  0  0  0  0  0  0  0  0  0  0
  -23.9874  -22.8425   13.7567 O   0  0  0  0  0  0  0  0  0  1  0  0
  -23.3783   -3.1503   24.9224 F   0  0  0  0  0  0  0  0  0  0  0  0
  -20.0450   -6.3596   23.9248 F   0  0  0  0  0  0  0  0  0  0  0  0
  -29.1642  -20.7359   14.7192 F   0  0  0  0  0  0  0  0  0  0  0  0
  -30.2211  -19.8388   16.3872 F   0  0  0  0  0  0  0  0  0  0  0  0
  -30.2182  -18.8532   14.4488 F   0  0  0  0  0  0  0  0  0  0  0  0
  -26.6260  -16.9536   16.5958 S   0  0  0  0  0  0  0  0  0  0  0  0
  1  2  1  0  0  0  0
  1  5  2  0  0  0  0
  2  6  2  0  0  0  0
  3  8  2  0  0  0  0
  3 16  1  0  0  0  0
  4  9  1  0  0  0  0
  4 16  2  0  0  0  0
  5 18  1  0  0  0  0
  6 20  1  0  0  0  0
  7 10  2  0  0  0  0
  7 19  1  0  0  0  0
  8 24  1  0  0  0  0
  9 24  2  0  0  0  0
 10 25  1  0  0  0  0
 11 12  2  0  0  0  0
 11 26  1  0  0  0  0
 12 27  1  0  0  0  0
 13 21  1  0  0  0  0
 13 25  2  0  0  0  0
 14 27  2  0  0  0  0
 14 28  1  0  0  0  0
 15 23  2  0  0  0  0
 15 89  1  0  0  0  0
 16 29  1  0  0  0  0
 17 29  1  0  0  0  0
 17 31  2  0  0  0  0
 17 32  1  0  0  0  0
 18 20  2  0  0  0  0
 18 39  1  0  0  0  0
 19 21  2  0  0  0  0
 19 40  1  0  0  0  0
 20 48  1  0  0  0  0
 21 41  1  0  0  0  0
 22 23  1  0  0  0  0
 22 30  2  0  0  0  0
 22 62  1  0  0  0  0
 23 70  1  0  0  0  0
 24 82  1  0  0  0  0
 25 83  1  0  0  0  0
 26 28  2  0  0  0  0
 26 82  1  0  0  0  0
 27 84  1  0  0  0  0
 28 85  1  0  0  0  0
 29 64  2  0  0  0  0
 30 33  1  0  0  0  0
 30 89  1  0  0  0  0
 31 65  1  0  0  0  0
 31 68  1  0  0  0  0
 32 69  1  0  0  0  0
 32 75  2  0  0  0  0
 33 71  1  0  0  0  0
 33 76  2  0  0  0  0
 34 49  1  0  0  0  0
 34 72  1  0  0  0  0
 34 77  2  0  0  0  0
 35 58  1  0  0  0  0
 35 66  1  0  0  0  0
 35 78  2  0  0  0  0
 36 59  1  0  0  0  0
 36 73  1  0  0  0  0
 36 79  2  0  0  0  0
 37 60  1  0  0  0  0
 37 70  1  0  0  0  0
 37 80  2  0  0  0  0
 38 67  1  0  0  0  0
 38 71  1  0  0  0  0
 38 81  2  0  0  0  0
 39 42  1  0  0  0  0
 40 49  1  0  0  0  0
 41 66  1  0  0  0  0
 42 44  1  0  0  0  0
 43 45  1  0  0  0  0
 43 46  1  0  0  0  0
 44 48  1  0  0  0  0
 45 50  1  0  0  0  0
 46 67  1  0  0  0  0
 47 50  1  0  0  0  0
 47 67  1  0  0  0  0
 48 72  1  0  0  0  0
 49 66  1  0  0  0  0
 50 65  1  0  0  0  0
 51 59  1  0  0  0  0
 52 61  1  0  0  0  0
 53 61  1  0  0  0  0
 54 63  1  0  0  0  0
 55 63  1  0  0  0  0
 56 63  1  0  0  0  0
 57 74  1  0  0  0  0
 58 63  1  0  0  0  0
 58 73  1  0  0  0  0
 59 74  1  0  0  0  0
 60 61  1  0  0  0  0
 60 83  1  0  0  0  0
 62 86  1  0  0  0  0
 62 87  1  0  0  0  0
 62 88  1  0  0  0  0
 64 65  1  0  0  0  0
M  CHG  1  74   1
M  ISO  4  38 100  60 101  71 100  83 101
M  END
> <Batch ID>
0185

> <Smiles>
CNC(C)C(=O)NC(C(=O)N1Cc2cc([101O:1][101CH:1](C(=O)Nc3csc(C(=O)[100NH:0][100C:0](=O)N4CCCC(n5nc(-c6ccc(Oc7ccc(F)cc7F)cc6)c(C(N)=O)c5N)C4)c3C(F)(F)F)C(C)C)ccc2CC1C(=O)NC1CCCc2ccccc21)C(C)(C)C

> <Shape>
0.261

> <Color>
0.185

> <Negative vol penalty>
0.000

$$$$

  -OEChem-04052305053D

 84 92  0     1  0  0  0  0  0999 V2000
  -19.9012  -31.5177   21.3409 C   0  0  0  0  0  0  0  0  0  0  0  0
  -21.1841  -30.9806   21.3717 C   0  0  0  0  0  0  0  0  0  0  0  0
  -26.4556  -12.4620   21.5545 C   0  0  0  0  0  0  0  0  0  0  0  0
  -26.0205  -13.4122   19.3762 C   0  0  0  0  0  0  0  0  0  0  0  0
  -18.8203  -30.7647   21.7977 C   0  0  0  0  0  0  0  0  0  0  0  0
  -21.3871  -29.6905   21.8604 C   0  0  0  0  0  0  0  0  0  0  0  0
  -24.4925  -26.9688   18.9289 C   0  0  0  0  0  0  0  0  0  0  0  0
  -25.2355  -11.7880   21.5042 C   0  0  0  0  0  0  0  0  0  0  0  0
  -24.8004  -12.7382   19.3259 C   0  0  0  0  0  0  0  0  0  0  0  0
  -25.8591  -27.2195   19.0438 C   0  0  0  0  0  0  0  0  0  0  0  0
  -21.9683  -12.5133   21.9778 C   0  0  0  0  0  0  0  0  0  0  0  0
  -21.1659  -12.5411   23.1184 C   0  0  0  0  0  0  0  0  0  0  0  0
  -26.0906  -25.2774   20.4558 C   0  0  0  0  0  0  0  0  0  0  0  0
  -21.2671  -10.1307   23.2483 C   0  0  0  0  0  0  0  0  0  0  0  0
  -26.8481  -13.2742   20.4905 C   0  0  0  0  0  0  0  0  0  0  0  0
  -29.3568  -13.5048   20.0891 C   0  0  0  0  0  0  0  0  0  0  0  0
  -19.0089  -29.4612   22.2833 C   0  0  0  0  0  0  0  0  0  0  0  0
  -23.9118  -25.8748   19.5865 C   0  0  0  0  0  0  0  0  0  0  0  0
  -20.3079  -28.9199   22.3254 C   0  0  0  0  0  0  0  0  0  0  0  0
  -24.7168  -25.0134   20.3455 C   0  0  0  0  0  0  0  0  0  0  0  0
  -24.4079  -11.9260   20.3899 C   0  0  0  0  0  0  0  0  0  0  0  0
  -26.6579  -26.3755   19.8097 C   0  0  0  0  0  0  0  0  0  0  0  0
  -22.4201  -11.2942   21.4724 C   0  0  0  0  0  0  0  0  0  0  0  0
  -20.8153  -11.3498   23.7536 C   0  0  0  0  0  0  0  0  0  0  0  0
  -22.0695  -10.1029   22.1076 C   0  0  0  0  0  0  0  0  0  0  0  0
  -28.1082  -13.9712   20.5422 C   0  0  0  0  0  0  0  0  0  0  0  0
  -29.4132  -23.1906   17.5809 C   0  0  0  0  0  0  0  0  0  0  0  0
  -30.2267  -14.5319   20.3625 C   0  0  0  0  0  0  0  0  0  0  0  0
  -28.9082  -22.4217   16.5534 C   0  0  0  0  0  0  0  0  0  0  0  0
  -29.1462  -21.3099   18.6770 C   0  0  0  0  0  0  0  0  0  0  0  0
  -29.6996  -12.2549   19.4759 C   0  0  0  0  0  0  0  0  0  0  0  0
  -29.8048  -24.6244   17.4484 C   0  0  0  0  0  0  0  0  0  0  0  0
  -21.6945  -25.5298   21.8377 C   0  0  0  0  0  0  0  0  0  0  0  0
  -22.0765  -22.3759   21.1825 C   0  0  0  0  0  0  0  0  0  0  0  0
  -24.0747  -19.8907   19.9668 C   0  0  0  0  0  0  0  0  0  0  0  0
  -29.5066  -20.4284   21.0093 C   0  0  0  0  0  0  0  0  0  0  0  0
  -17.8162  -28.7032   22.8103 C   0  0  0  0  0  0  0  0  0  0  0  0
  -22.4407  -25.6026   19.4307 C   0  0  0  0  0  0  0  0  0  0  0  0
  -24.1457  -23.8138   21.0548 C   0  0  0  0  0  0  0  0  0  0  0  0
  -18.0659  -27.2052   22.9641 C   0  0  0  0  0  0  0  0  0  0  0  0
  -30.8820  -18.1762   23.3996 C   0  0  0  0  0  0  0  0  0  0  0  0
  -19.4030  -26.9550   23.6544 C   0  0  0  0  0  0  0  0  0  0  0  0
  -30.4455  -16.7995   22.8935 C   0  0  0  0  0  0  0  0  0  0  0  0
  -29.8040  -19.2336   23.1678 C   0  0  0  0  0  0  0  0  0  0  0  0
  -28.8757  -17.9498   21.2812 C   0  0  0  0  0  0  0  0  0  0  0  0
  -20.5652  -27.5148   22.8252 C   0  0  1  0  0  0  0  0  0  0  0  0
  -21.8668  -24.7550   20.5619 C   0  0  1  0  0  0  0  0  0  0  0  0
  -29.9546  -16.8651   21.4339 C   0  0  2  0  0  0  0  0  0  0  0  0
  -24.1276  -17.4093   19.5963 C   0  0  0  0  0  0  0  0  0  0  0  0
  -22.5621  -21.9436   24.1637 C   0  0  0  0  0  0  0  0  0  0  0  0
  -23.5253  -19.6998   23.6103 C   0  0  0  0  0  0  0  0  0  0  0  0
  -21.1405  -20.1980   23.0743 C   0  0  0  0  0  0  0  0  0  0  0  0
  -30.7884  -27.6004   17.5652 C   0  0  0  0  0  0  0  0  0  0  0  0
  -30.8219  -27.3770   20.0455 C   0  0  0  0  0  0  0  0  0  0  0  0
  -24.3758  -20.2171   17.0408 C   0  0  0  0  0  0  0  0  0  0  0  0
  -30.3500  -25.3442   18.6796 C   0  0  0  0  0  0  0  0  0  0  0  0
  -28.6326  -27.2583   18.8211 C   0  0  0  0  0  0  0  0  0  1  0  0
  -22.9705  -21.2765   21.7031 C   0  0  1  0  0  0  0  0  0  0  0  0
  -23.7980  -18.7637   18.9882 C   0  0  2  0  0  0  0  0  0  0  0  0
  -22.5604  -20.8031   23.1262 C   0  0  0  0  0  0  0  0  0  0  0  0
  -30.1285  -26.8799   18.7549 C   0  0  0  0  0  0  0  0  0  0  0  0
  -28.1747  -15.1989   21.0639 N   0  0  0  0  0  0  0  0  0  0  0  0
  -29.5501  -22.5549   18.7995 N   0  0  0  0  0  0  0  0  0  0  0  0
  -29.4756  -15.5127   20.9405 N   0  0  0  0  0  0  0  0  0  0  0  0
  -22.7009  -23.5935   20.8771 N   0  0  0  0  0  0  0  0  0  0  0  0
  -29.3911  -19.2410   21.7627 N   0  0  0  0  0  0  0  0  0  0  0  0
  -31.5532  -14.6827   20.1626 N   0  0  0  0  0  0  0  0  0  0  0  0
  -28.6717  -22.7864   15.2693 N   0  0  0  0  0  0  0  0  0  0  0  0
  -28.6839  -11.3118   19.2682 N   0  0  0  0  0  0  0  0  0  0  0  0
  -29.1142  -20.3062   19.6768 N   0  0  0  0  0  0  0  0  0  0  0  0
  -20.8688  -26.6315   21.7198 N   0  0  0  0  0  0  0  0  0  0  0  0
  -22.9515  -20.2228   20.6943 N   0  0  0  0  0  0  0  0  0  0  0  0
  -24.6159  -18.9365   17.7544 N   0  3  0  0  0  0  0  0  0  0  0  0
  -30.8749  -11.9760   19.1376 O   0  0  0  0  0  0  0  0  0  0  0  0
  -29.6884  -25.1650   16.3525 O   0  0  0  0  0  0  0  0  0  0  0  0
  -22.2669  -25.1548   22.8543 O   0  0  0  0  0  0  0  0  0  0  0  0
  -20.8699  -22.1599   21.0449 O   0  0  0  0  0  0  0  0  0  0  0  0
  -25.1780  -20.4208   20.0776 O   0  0  0  0  0  0  0  0  0  0  0  0
  -29.9486  -21.4693   21.5023 O   0  0  0  0  0  0  0  0  0  0  0  0
  -23.2173  -11.2683   20.3403 O   0  0  0  0  0  0  0  0  0  0  0  0
  -27.9920  -26.6183   19.9241 O   0  0  0  0  0  0  0  0  0  1  0  0
  -20.0461  -11.3768   24.8498 F   0  0  0  0  0  0  0  0  0  0  0  0
  -22.5014   -8.9287   21.6275 F   0  0  0  0  0  0  0  0  0  0  0  0
  -28.5899  -20.8361   17.1243 S   0  0  0  0  0  0  0  0  0  0  0  0
  1  2  1  0  0  0  0
  1  5  2  0  0  0  0
  2  6  2  0  0  0  0
  3  8  2  0  0  0  0
  3 15  1  0  0  0  0
  4  9  1  0  0  0  0
  4 15  2  0  0  0  0
  5 17  1  0  0  0  0
  6 19  1  0  0  0  0
  7 10  2  0  0  0  0
  7 18  1  0  0  0  0
  8 21  1  0  0  0  0
  9 21  2  0  0  0  0
 10 22  1  0  0  0  0
 11 12  2  0  0  0  0
 11 23  1  0  0  0  0
 12 24  1  0  0  0  0
 13 20  1  0  0  0  0
 13 22  2  0  0  0  0
 14 24  2  0  0  0  0
 14 25  1  0  0  0  0
 15 26  1  0  0  0  0
 16 26  1  0  0  0  0
 16 28  2  0  0  0  0
 16 31  1  0  0  0  0
 17 19  2  0  0  0  0
 17 37  1  0  0  0  0
 18 20  2  0  0  0  0
 18 38  1  0  0  0  0
 19 46  1  0  0  0  0
 20 39  1  0  0  0  0
 21 80  1  0  0  0  0
 22 81  1  0  0  0  0
 23 25  2  0  0  0  0
 23 80  1  0  0  0  0
 24 82  1  0  0  0  0
 25 83  1  0  0  0  0
 26 62  2  0  0  0  0
 27 29  2  0  0  0  0
 27 32  1  0  0  0  0
 27 63  1  0  0  0  0
 28 64  1  0  0  0  0
 28 67  1  0  0  0  0
 29 68  1  0  0  0  0
 29 84  1  0  0  0  0
 30 63  2  0  0  0  0
 30 70  1  0  0  0  0
 30 84  1  0  0  0  0
 31 69  1  0  0  0  0
 31 74  2  0  0  0  0
 32 56  1  0  0  0  0
 32 75  2  0  0  0  0
 33 47  1  0  0  0  0
 33 71  1  0  0  0  0
 33 76  2  0  0  0  0
 34 58  1  0  0  0  0
 34 65  1  0  0  0  0
 34 77  2  0  0  0  0
 35 59  1  0  0  0  0
 35 72  1  0  0  0  0
 35 78  2  0  0  0  0
 36 66  1  0  0  0  0
 36 70  1  0  0  0  0
 36 79  2  0  0  0  0
 37 40  1  0  0  0  0
 38 47  1  0  0  0  0
 39 65  1  0  0  0  0
 40 42  1  0  0  0  0
 41 43  1  0  0  0  0
 41 44  1  0  0  0  0
 42 46  1  0  0  0  0
 43 48  1  0  0  0  0
 44 66  1  0  0  0  0
 45 48  1  0  0  0  0
 45 66  1  0  0  0  0
 46 71  1  0  0  0  0
 47 65  1  0  0  0  0
 48 64  1  0  0  0  0
 49 59  1  0  0  0  0
 50 60  1  0  0  0  0
 51 60  1  0  0  0  0
 52 60  1  0  0  0  0
 53 61  1  0  0  0  0
 54 61  1  0  0  0  0
 55 73  1  0  0  0  0
 56 61  1  0  0  0  0
 57 61  1  0  0  0  0
 57 81  1  0  0  0  0
 58 60  1  0  0  0  0
 58 72  1  0  0  0  0
 59 73  1  0  0  0  0
 62 64  1  0  0  0  0
M  CHG  1  73   1
M  ISO  4  36 100  57 101  70 100  81 101
M  END
> <Batch ID>
0185

> <Smiles>
CNC(C)C(=O)NC(C(=O)N1Cc2cc([101O:1][101CH2:1]C(C)(C)CC(=O)c3nc([100NH:0][100C:0](=O)N4CCCC(n5nc(-c6ccc(Oc7ccc(F)cc7F)cc6)c(C(N)=O)c5N)C4)sc3N)ccc2CC1C(=O)NC1CCCc2ccccc21)C(C)(C)C

> <Shape>
0.269

> <Color>
0.072

> <Negative vol penalty>
0.000

$$$$

  -OEChem-04052305053D

 84 92  0     1  0  0  0  0  0999 V2000
  -40.3898  -23.7427   29.6720 C   0  0  0  0  0  0  0  0  0  0  0  0
  -40.2753  -22.8650   28.5987 C   0  0  0  0  0  0  0  0  0  0  0  0
  -23.0756   -9.8651   19.9428 C   0  0  0  0  0  0  0  0  0  0  0  0
  -23.8351   -9.8759   22.2363 C   0  0  0  0  0  0  0  0  0  0  0  0
  -39.4120  -24.7136   29.8844 C   0  0  0  0  0  0  0  0  0  0  0  0
  -39.1823  -22.9572   27.7377 C   0  0  0  0  0  0  0  0  0  0  0  0
  -39.1443  -21.8829   21.7086 C   0  0  0  0  0  0  0  0  0  0  0  0
  -22.3323   -8.7120   20.1943 C   0  0  0  0  0  0  0  0  0  0  0  0
  -23.0917   -8.7228   22.4879 C   0  0  0  0  0  0  0  0  0  0  0  0
  -38.7668  -20.7715   20.9562 C   0  0  0  0  0  0  0  0  0  0  0  0
  -19.8638   -7.9242   23.0909 C   0  0  0  0  0  0  0  0  0  0  0  0
  -19.1067   -7.8857   24.2617 C   0  0  0  0  0  0  0  0  0  0  0  0
  -36.5899  -21.7519   20.6112 C   0  0  0  0  0  0  0  0  0  0  0  0
  -20.3489   -5.9500   25.0013 C   0  0  0  0  0  0  0  0  0  0  0  0
  -23.8271  -10.4471   20.9638 C   0  0  0  0  0  0  0  0  0  0  0  0
  -24.1676  -12.9722   20.8400 C   0  0  0  0  0  0  0  0  0  0  0  0
  -38.3114  -24.8239   29.0200 C   0  0  0  0  0  0  0  0  0  0  0  0
  -38.2422  -22.9340   21.9274 C   0  0  0  0  0  0  0  0  0  0  0  0
  -38.1882  -23.9296   27.9395 C   0  0  0  0  0  0  0  0  0  0  0  0
  -36.9593  -22.8767   21.3646 C   0  0  0  0  0  0  0  0  0  0  0  0
  -22.3403   -8.1408   21.4668 C   0  0  0  0  0  0  0  0  0  0  0  0
  -37.4885  -20.7045   20.4098 C   0  0  0  0  0  0  0  0  0  0  0  0
  -20.8635   -6.9756   22.8753 C   0  0  0  0  0  0  0  0  0  0  0  0
  -19.3492   -6.8986   25.2170 C   0  0  0  0  0  0  0  0  0  0  0  0
  -21.1061   -5.9885   23.8305 C   0  0  0  0  0  0  0  0  0  0  0  0
  -24.5956  -11.6380   20.7044 C   0  0  0  0  0  0  0  0  0  0  0  0
  -31.8059  -18.7315   22.2418 C   0  0  0  0  0  0  0  0  0  0  0  0
  -25.2595  -13.7217   20.4759 C   0  0  0  0  0  0  0  0  0  0  0  0
  -30.7037  -19.0986   22.9851 C   0  0  0  0  0  0  0  0  0  0  0  0
  -30.5693  -16.9531   21.8981 C   0  0  0  0  0  0  0  0  0  0  0  0
  -22.8968  -13.4880   21.2579 C   0  0  0  0  0  0  0  0  0  0  0  0
  -33.0268  -19.5616   22.0840 C   0  0  0  0  0  0  0  0  0  0  0  0
  -36.8862  -24.2283   24.4944 C   0  0  0  0  0  0  0  0  0  0  0  0
  -35.7665  -26.3778   22.3384 C   0  0  0  0  0  0  0  0  0  0  0  0
  -34.9535  -27.0766   19.0984 C   0  0  0  0  0  0  0  0  0  0  0  0
  -30.7251  -14.7703   20.6501 C   0  0  0  0  0  0  0  0  0  0  0  0
  -37.2555  -25.8589   29.3176 C   0  0  0  0  0  0  0  0  0  0  0  0
  -38.6738  -24.1380   22.7189 C   0  0  0  0  0  0  0  0  0  0  0  0
  -35.9602  -23.9879   21.5532 C   0  0  0  0  0  0  0  0  0  0  0  0
  -36.3217  -26.1320   28.1413 C   0  0  0  0  0  0  0  0  0  0  0  0
  -29.6124  -12.3525   18.2851 C   0  0  0  0  0  0  0  0  0  0  0  0
  -35.8486  -24.8217   27.5199 C   0  0  0  0  0  0  0  0  0  0  0  0
  -28.1728  -12.0609   18.7148 C   0  0  0  0  0  0  0  0  0  0  0  0
  -30.5271  -12.5835   19.4866 C   0  0  0  0  0  0  0  0  0  0  0  0
  -28.6196  -13.3090   20.8665 C   0  0  0  0  0  0  0  0  0  0  0  0
  -37.0300  -24.0140   26.9692 C   0  0  1  0  0  0  0  0  0  0  0  0
  -37.5020  -24.9165   23.3091 C   0  0  1  0  0  0  0  0  0  0  0  0
  -27.6470  -13.1336   19.6887 C   0  0  2  0  0  0  0  0  0  0  0  0
  -34.0272  -28.9047   17.6502 C   0  0  0  0  0  0  0  0  0  0  0  0
  -32.9664  -25.7997   23.4039 C   0  0  0  0  0  0  0  0  0  0  0  0
  -32.0359  -26.8859   21.3490 C   0  0  0  0  0  0  0  0  0  0  0  0
  -33.4276  -28.2131   22.9378 C   0  0  0  0  0  0  0  0  0  0  0  0
  -35.0337  -20.0038   18.5565 C   0  0  0  0  0  0  0  0  0  0  0  0
  -35.6566  -17.7530   19.4792 C   0  0  0  0  0  0  0  0  0  0  0  0
  -37.4229  -27.1978   17.4717 C   0  0  0  0  0  0  0  0  0  0  0  0
  -35.1577  -19.6299   21.0690 C   0  0  0  0  0  0  0  0  0  0  0  0
  -34.5360  -26.4787   21.4696 C   0  0  1  0  0  0  0  0  0  0  0  0
  -35.2865  -28.2611   18.2093 C   0  0  2  0  0  0  0  0  0  0  0  0
  -33.2594  -26.8224   22.2879 C   0  0  0  0  0  0  0  0  0  0  0  0
  -35.7357  -19.2639   19.6969 C   0  0  0  0  0  0  0  0  0  1  0  0
  -25.8606  -11.5422   20.2865 N   0  0  0  0  0  0  0  0  0  0  0  0
  -31.7308  -17.5014   21.6181 N   0  0  0  0  0  0  0  0  0  0  0  0
  -26.2369  -12.8258   20.1563 N   0  0  0  0  0  0  0  0  0  0  0  0
  -36.4274  -25.1412   22.3401 N   0  0  0  0  0  0  0  0  0  0  0  0
  -29.9675  -13.6153   20.3624 N   0  0  0  0  0  0  0  0  0  0  0  0
  -25.4692  -15.0532   20.4009 N   0  0  0  0  0  0  0  0  0  0  0  0
  -30.5102  -20.2377   23.6941 N   0  0  0  0  0  0  0  0  0  0  0  0
  -21.8853  -12.5788   21.5964 N   0  0  0  0  0  0  0  0  0  0  0  0
  -30.0772  -15.6962   21.4671 N   0  0  0  0  0  0  0  0  0  0  0  0
  -37.4689  -24.5599   25.7028 N   0  0  0  0  0  0  0  0  0  0  0  0
  -34.8532  -27.4448   20.4234 N   0  0  0  0  0  0  0  0  0  0  0  0
  -36.1397  -27.8276   17.0669 N   0  3  0  0  0  0  0  0  0  0  0  0
  -22.6599  -14.7186   21.3134 O   0  0  0  0  0  0  0  0  0  0  0  0
  -33.1638  -20.6572   22.6057 O   0  0  0  0  0  0  0  0  0  0  0  0
  -35.9508  -23.4550   24.3255 O   0  0  0  0  0  0  0  0  0  0  0  0
  -36.1321  -27.3620   22.9859 O   0  0  0  0  0  0  0  0  0  0  0  0
  -34.7943  -25.9392   18.6608 O   0  0  0  0  0  0  0  0  0  0  0  0
  -31.8542  -14.9389   20.1825 O   0  0  0  0  0  0  0  0  0  0  0  0
  -21.6149   -7.0157   21.7127 O   0  0  0  0  0  0  0  0  0  0  0  0
  -37.1173  -19.6206   19.6756 O   0  0  0  0  0  0  0  0  0  1  0  0
  -33.9386  -18.9309   21.2947 O   0  0  0  0  0  0  0  0  0  0  0  0
  -18.6231   -6.8626   26.3419 F   0  0  0  0  0  0  0  0  0  0  0  0
  -22.0659   -5.0752   23.6294 F   0  0  0  0  0  0  0  0  0  0  0  0
  -29.5182  -17.8617   22.9054 S   0  0  0  0  0  0  0  0  0  0  0  0
  1  2  1  0  0  0  0
  1  5  2  0  0  0  0
  2  6  2  0  0  0  0
  3  8  2  0  0  0  0
  3 15  1  0  0  0  0
  4  9  1  0  0  0  0
  4 15  2  0  0  0  0
  5 17  1  0  0  0  0
  6 19  1  0  0  0  0
  7 10  2  0  0  0  0
  7 18  1  0  0  0  0
  8 21  1  0  0  0  0
  9 21  2  0  0  0  0
 10 22  1  0  0  0  0
 11 12  2  0  0  0  0
 11 23  1  0  0  0  0
 12 24  1  0  0  0  0
 13 20  1  0  0  0  0
 13 22  2  0  0  0  0
 14 24  2  0  0  0  0
 14 25  1  0  0  0  0
 15 26  1  0  0  0  0
 16 26  1  0  0  0  0
 16 28  2  0  0  0  0
 16 31  1  0  0  0  0
 17 19  2  0  0  0  0
 17 37  1  0  0  0  0
 18 20  2  0  0  0  0
 18 38  1  0  0  0  0
 19 46  1  0  0  0  0
 20 39  1  0  0  0  0
 21 79  1  0  0  0  0
 22 80  1  0  0  0  0
 23 25  2  0  0  0  0
 23 79  1  0  0  0  0
 24 82  1  0  0  0  0
 25 83  1  0  0  0  0
 26 61  2  0  0  0  0
 27 29  2  0  0  0  0
 27 32  1  0  0  0  0
 27 62  1  0  0  0  0
 28 63  1  0  0  0  0
 28 66  1  0  0  0  0
 29 67  1  0  0  0  0
 29 84  1  0  0  0  0
 30 62  2  0  0  0  0
 30 69  1  0  0  0  0
 30 84  1  0  0  0  0
 31 68  1  0  0  0  0
 31 73  2  0  0  0  0
 32 74  2  0  0  0  0
 32 81  1  0  0  0  0
 33 47  1  0  0  0  0
 33 70  1  0  0  0  0
 33 75  2  0  0  0  0
 34 57  1  0  0  0  0
 34 64  1  0  0  0  0
 34 76  2  0  0  0  0
 35 58  1  0  0  0  0
 35 71  1  0  0  0  0
 35 77  2  0  0  0  0
 36 65  1  0  0  0  0
 36 69  1  0  0  0  0
 36 78  2  0  0  0  0
 37 40  1  0  0  0  0
 38 47  1  0  0  0  0
 39 64  1  0  0  0  0
 40 42  1  0  0  0  0
 41 43  1  0  0  0  0
 41 44  1  0  0  0  0
 42 46  1  0  0  0  0
 43 48  1  0  0  0  0
 44 65  1  0  0  0  0
 45 48  1  0  0  0  0
 45 65  1  0  0  0  0
 46 70  1  0  0  0  0
 47 64  1  0  0  0  0
 48 63  1  0  0  0  0
 49 58  1  0  0  0  0
 50 59  1  0  0  0  0
 51 59  1  0  0  0  0
 52 59  1  0  0  0  0
 53 60  1  0  0  0  0
 54 60  1  0  0  0  0
 55 72  1  0  0  0  0
 56 60  1  0  0  0  0
 56 81  1  0  0  0  0
 57 59  1  0  0  0  0
 57 71  1  0  0  0  0
 58 72  1  0  0  0  0
 60 80  1  0  0  0  0
 61 63  1  0  0  0  0
M  CHG  1  72   1
M  ISO  4  36 100  60 101  69 100  80 101
M  END
> <Batch ID>
0185

> <Smiles>
CNC(C)C(=O)NC(C(=O)N1Cc2cc([101O:1][101C:1](C)(C)COC(=O)c3nc([100NH:0][100C:0](=O)N4CCCC(n5nc(-c6ccc(Oc7ccc(F)cc7F)cc6)c(C(N)=O)c5N)C4)sc3N)ccc2CC1C(=O)NC1CCCc2ccccc21)C(C)(C)C

> <Shape>
0.170

> <Color>
0.180

> <Negative vol penalty>
0.000

$$$$

  -OEChem-04052305053D

 84 92  0     1  0  0  0  0  0999 V2000
  -16.9422  -29.1540   24.4583 C   0  0  0  0  0  0  0  0  0  0  0  0
  -17.3348  -28.0669   23.6840 C   0  0  0  0  0  0  0  0  0  0  0  0
  -27.3239  -17.9101   19.8368 C   0  0  0  0  0  0  0  0  0  0  0  0
  -28.5738  -17.8854   21.9041 C   0  0  0  0  0  0  0  0  0  0  0  0
  -17.5988  -30.3767   24.3248 C   0  0  0  0  0  0  0  0  0  0  0  0
  -18.3836  -28.2021   22.7751 C   0  0  0  0  0  0  0  0  0  0  0  0
  -22.5208  -23.9458   21.2677 C   0  0  0  0  0  0  0  0  0  0  0  0
  -27.1139  -16.5356   19.9473 C   0  0  0  0  0  0  0  0  0  0  0  0
  -28.3639  -16.5109   22.0147 C   0  0  0  0  0  0  0  0  0  0  0  0
  -22.6125  -23.0674   20.1889 C   0  0  0  0  0  0  0  0  0  0  0  0
  -25.0820  -14.4570   21.6746 C   0  0  0  0  0  0  0  0  0  0  0  0
  -23.7964  -13.9756   21.4273 C   0  0  0  0  0  0  0  0  0  0  0  0
  -24.0668  -24.6221   19.0544 C   0  0  0  0  0  0  0  0  0  0  0  0
  -24.6532  -12.6131   19.6254 C   0  0  0  0  0  0  0  0  0  0  0  0
  -28.0539  -18.5850   20.8152 C   0  0  0  0  0  0  0  0  0  0  0  0
  -27.4546  -21.0334   21.2077 C   0  0  0  0  0  0  0  0  0  0  0  0
  -18.6625  -30.5244   23.4207 C   0  0  0  0  0  0  0  0  0  0  0  0
  -23.1938  -25.1758   21.2432 C   0  0  0  0  0  0  0  0  0  0  0  0
  -19.0541  -29.4283   22.6285 C   0  0  0  0  0  0  0  0  0  0  0  0
  -23.9841  -25.5132   20.1352 C   0  0  0  0  0  0  0  0  0  0  0  0
  -27.6339  -15.8360   21.0362 C   0  0  0  0  0  0  0  0  0  0  0  0
  -23.3833  -23.4068   19.0808 C   0  0  0  0  0  0  0  0  0  0  0  0
  -26.1532  -14.0165   20.8972 C   0  0  0  0  0  0  0  0  0  0  0  0
  -23.5820  -13.0537   20.4027 C   0  0  0  0  0  0  0  0  0  0  0  0
  -25.9388  -13.0946   19.8727 C   0  0  0  0  0  0  0  0  0  0  0  0
  -28.2715  -20.0048   20.7013 C   0  0  0  0  0  0  0  0  0  0  0  0
  -28.8151  -24.5660   14.3652 C   0  0  0  0  0  0  0  0  0  0  0  0
  -28.0921  -22.1921   20.8371 C   0  0  0  0  0  0  0  0  0  0  0  0
  -28.3350  -25.1445   13.2090 C   0  0  0  0  0  0  0  0  0  0  0  0
  -26.6696  -24.2835   14.7215 C   0  0  0  0  0  0  0  0  0  0  0  0
  -26.2291  -20.9490   21.9471 C   0  0  0  0  0  0  0  0  0  0  0  0
  -30.2550  -24.4517   14.7123 C   0  0  0  0  0  0  0  0  0  0  0  0
  -22.2989  -28.2245   21.3341 C   0  0  0  0  0  0  0  0  0  0  0  0
  -25.4953  -28.7532   21.4943 C   0  0  0  0  0  0  0  0  0  0  0  0
  -28.6534  -27.6296   20.8536 C   0  0  0  0  0  0  0  0  0  0  0  0
  -25.1693  -23.3005   16.4884 C   0  0  0  0  0  0  0  0  0  0  0  0
  -31.8202  -23.5848   16.4218 C   0  0  0  0  0  0  0  0  0  0  0  0
  -19.3108  -31.8786   23.2775 C   0  0  0  0  0  0  0  0  0  0  0  0
  -23.1061  -26.1005   22.4263 C   0  0  0  0  0  0  0  0  0  0  0  0
  -24.7425  -26.8128   20.0683 C   0  0  0  0  0  0  0  0  0  0  0  0
  -20.6580  -31.8362   22.5608 C   0  0  0  0  0  0  0  0  0  0  0  0
  -32.4582  -23.9250   19.8822 C   0  0  0  0  0  0  0  0  0  0  0  0
  -20.5668  -30.9779   21.3031 C   0  0  0  0  0  0  0  0  0  0  0  0
  -31.3732  -23.0647   20.5357 C   0  0  0  0  0  0  0  0  0  0  0  0
  -32.9820  -23.2946   18.5925 C   0  0  0  0  0  0  0  0  0  0  0  0
  -30.8710  -22.0714   18.2673 C   0  0  0  0  0  0  0  0  0  0  0  0
  -20.2036  -29.5288   21.6493 C   0  0  1  0  0  0  0  0  0  0  0  0
  -23.4196  -27.5516   22.0749 C   0  0  1  0  0  0  0  0  0  0  0  0
  -30.2616  -22.6975   19.5321 C   0  0  1  0  0  0  0  0  0  0  0  0
  -31.1626  -27.5975   20.8752 C   0  0  0  0  0  0  0  0  0  0  0  0
  -23.0268  -22.2422   15.6828 C   0  0  0  0  0  0  0  0  0  0  0  0
  -25.1782  -30.6284   19.1083 C   0  0  0  0  0  0  0  0  0  0  0  0
  -27.6568  -30.5107   18.7752 C   0  0  0  0  0  0  0  0  0  0  0  0
  -26.7276  -31.4572   20.8878 C   0  0  0  0  0  0  0  0  0  0  0  0
  -28.7284  -26.1912   23.4390 C   0  0  0  0  0  0  0  0  0  0  0  0
  -26.5959  -28.9651   20.4830 C   0  0  1  0  0  0  0  0  0  0  0  0
  -29.8985  -27.5754   21.7204 C   0  0  2  0  0  0  0  0  0  0  0  0
  -23.6729  -23.1293   16.7366 C   0  0  1  0  0  0  0  0  0  1  0  0
  -26.5239  -30.3666   19.8137 C   0  0  0  0  0  0  0  0  0  0  0  0
  -29.3459  -20.4692   20.0578 N   0  0  0  0  0  0  0  0  0  0  0  0
  -27.8616  -24.0721   15.2339 N   0  0  0  0  0  0  0  0  0  0  0  0
  -29.2085  -21.8023   20.1573 N   0  0  0  0  0  0  0  0  0  0  0  0
  -24.6200  -27.6861   21.2472 N   0  0  0  0  0  0  0  0  0  0  0  0
  -31.8691  -22.9860   17.6927 N   0  0  0  0  0  0  0  0  0  0  0  0
  -27.8011  -23.4962   21.0294 N   0  0  0  0  0  0  0  0  0  0  0  0
  -29.0391  -25.7040   12.1945 N   0  0  0  0  0  0  0  0  0  0  0  0
  -25.7134  -19.6798   22.2430 N   0  0  0  0  0  0  0  0  0  0  0  0
  -25.4144  -23.9389   15.2771 N   0  0  0  0  0  0  0  0  0  0  0  0
  -30.5334  -23.8316   15.9307 N   0  0  0  0  0  0  0  0  0  0  0  0
  -21.3624  -28.8242   22.1544 N   0  0  0  0  0  0  0  0  0  0  0  0
  -27.8489  -28.7002   21.1817 N   0  0  0  0  0  0  0  0  0  0  0  0
  -29.9040  -26.3319   22.5418 N   0  3  0  0  0  0  0  0  0  0  0  0
  -25.6013  -21.9690   22.3198 O   0  0  0  0  0  0  0  0  0  0  0  0
  -31.0963  -24.8596   13.9163 O   0  0  0  0  0  0  0  0  0  0  0  0
  -22.2856  -28.2026   20.1089 O   0  0  0  0  0  0  0  0  0  0  0  0
  -25.4194  -29.5023   22.4714 O   0  0  0  0  0  0  0  0  0  0  0  0
  -28.4199  -26.8067   19.9710 O   0  0  0  0  0  0  0  0  0  0  0  0
  -25.9985  -22.9140   17.3071 O   0  0  0  0  0  0  0  0  0  0  0  0
  -32.8342  -23.9071   15.7946 O   0  0  0  0  0  0  0  0  0  0  0  0
  -27.4291  -14.4948   21.1445 O   0  0  0  0  0  0  0  0  0  0  0  0
  -23.4740  -22.5515   18.0262 O   0  0  0  0  0  0  0  0  0  1  0  0
  -22.3477  -12.5903   20.1664 F   0  0  0  0  0  0  0  0  0  0  0  0
  -26.9641  -12.6668   19.1233 F   0  0  0  0  0  0  0  0  0  0  0  0
  -26.6215  -25.0710   13.1975 S   0  0  0  0  0  0  0  0  0  0  0  0
  1  2  1  0  0  0  0
  1  5  2  0  0  0  0
  2  6  2  0  0  0  0
  3  8  2  0  0  0  0
  3 15  1  0  0  0  0
  4  9  1  0  0  0  0
  4 15  2  0  0  0  0
  5 17  1  0  0  0  0
  6 19  1  0  0  0  0
  7 10  2  0  0  0  0
  7 18  1  0  0  0  0
  8 21  1  0  0  0  0
  9 21  2  0  0  0  0
 10 22  1  0  0  0  0
 11 12  2  0  0  0  0
 11 23  1  0  0  0  0
 12 24  1  0  0  0  0
 13 20  1  0  0  0  0
 13 22  2  0  0  0  0
 14 24  2  0  0  0  0
 14 25  1  0  0  0  0
 15 26  1  0  0  0  0
 16 26  1  0  0  0  0
 16 28  2  0  0  0  0
 16 31  1  0  0  0  0
 17 19  2  0  0  0  0
 17 38  1  0  0  0  0
 18 20  2  0  0  0  0
 18 39  1  0  0  0  0
 19 47  1  0  0  0  0
 20 40  1  0  0  0  0
 21 80  1  0  0  0  0
 22 81  1  0  0  0  0
 23 25  2  0  0  0  0
 23 80  1  0  0  0  0
 24 82  1  0  0  0  0
 25 83  1  0  0  0  0
 26 60  2  0  0  0  0
 27 29  2  0  0  0  0
 27 32  1  0  0  0  0
 27 61  1  0  0  0  0
 28 62  1  0  0  0  0
 28 65  1  0  0  0  0
 29 66  1  0  0  0  0
 29 84  1  0  0  0  0
 30 61  2  0  0  0  0
 30 68  1  0  0  0  0
 30 84  1  0  0  0  0
 31 67  1  0  0  0  0
 31 73  2  0  0  0  0
 32 69  1  0  0  0  0
 32 74  2  0  0  0  0
 33 48  1  0  0  0  0
 33 70  1  0  0  0  0
 33 75  2  0  0  0  0
 34 56  1  0  0  0  0
 34 63  1  0  0  0  0
 34 76  2  0  0  0  0
 35 57  1  0  0  0  0
 35 71  1  0  0  0  0
 35 77  2  0  0  0  0
 36 58  1  0  0  0  0
 36 68  1  0  0  0  0
 36 78  2  0  0  0  0
 37 64  1  0  0  0  0
 37 69  1  0  0  0  0
 37 79  2  0  0  0  0
 38 41  1  0  0  0  0
 39 48  1  0  0  0  0
 40 63  1  0  0  0  0
 41 43  1  0  0  0  0
 42 44  1  0  0  0  0
 42 45  1  0  0  0  0
 43 47  1  0  0  0  0
 44 49  1  0  0  0  0
 45 64  1  0  0  0  0
 46 49  1  0  0  0  0
 46 64  1  0  0  0  0
 47 70  1  0  0  0  0
 48 63  1  0  0  0  0
 49 62  1  0  0  0  0
 50 57  1  0  0  0  0
 51 58  1  0  0  0  0
 52 59  1  0  0  0  0
 53 59  1  0  0  0  0
 54 59  1  0  0  0  0
 55 72  1  0  0  0  0
 56 59  1  0  0  0  0
 56 71  1  0  0  0  0
 57 72  1  0  0  0  0
 58 81  1  0  0  0  0
 60 62  1  0  0  0  0
M  CHG  1  72   1
M  ISO  4  37 100  58 101  69 100  81 101
M  END
> <Batch ID>
0185

> <Smiles>
CNC(C)C(=O)NC(C(=O)N1Cc2cc([101O:1][101CH:1](C)C(=O)Nc3nc(C(=O)[100NH:0][100C:0](=O)N4CCCC(n5nc(-c6ccc(Oc7ccc(F)cc7F)cc6)c(C(N)=O)c5N)C4)c(N)s3)ccc2CC1C(=O)NC1CCCc2ccccc21)C(C)(C)C

> <Shape>
0.215

> <Color>
0.073

> <Negative vol penalty>
0.000

$$$$

  -OEChem-04052305053D

 88 96  0     1  0  0  0  0  0999 V2000
  -25.2614  -38.1537   20.9438 C   0  0  0  0  0  0  0  0  0  0  0  0
  -25.9258  -37.1818   20.2026 C   0  0  0  0  0  0  0  0  0  0  0  0
  -24.8256   -9.0586   21.6040 C   0  0  0  0  0  0  0  0  0  0  0  0
  -23.2174  -10.5918   20.6553 C   0  0  0  0  0  0  0  0  0  0  0  0
  -24.7771  -37.8490   22.2153 C   0  0  0  0  0  0  0  0  0  0  0  0
  -26.1072  -35.9049   20.7328 C   0  0  0  0  0  0  0  0  0  0  0  0
  -26.5022  -29.0360   18.7384 C   0  0  0  0  0  0  0  0  0  0  0  0
  -23.8346   -8.5312   22.4318 C   0  0  0  0  0  0  0  0  0  0  0  0
  -22.2263  -10.0644   21.4831 C   0  0  0  0  0  0  0  0  0  0  0  0
  -27.3290  -27.9214   18.8721 C   0  0  0  0  0  0  0  0  0  0  0  0
  -21.2549   -6.3625   22.1589 C   0  0  0  0  0  0  0  0  0  0  0  0
  -21.1750   -4.9745   22.2713 C   0  0  0  0  0  0  0  0  0  0  0  0
  -26.3800  -27.4860   21.0468 C   0  0  0  0  0  0  0  0  0  0  0  0
  -21.5638   -5.1447   24.6497 C   0  0  0  0  0  0  0  0  0  0  0  0
  -24.5170  -10.0890   20.7158 C   0  0  0  0  0  0  0  0  0  0  0  0
  -25.8887  -10.2001   18.5678 C   0  0  0  0  0  0  0  0  0  0  0  0
  -24.9442  -36.5650   22.7575 C   0  0  0  0  0  0  0  0  0  0  0  0
  -25.6143  -29.3908   19.7641 C   0  0  0  0  0  0  0  0  0  0  0  0
  -25.6259  -35.5832   22.0132 C   0  0  0  0  0  0  0  0  0  0  0  0
  -25.5412  -28.6040   20.9225 C   0  0  0  0  0  0  0  0  0  0  0  0
  -22.5349   -9.0341   22.3714 C   0  0  0  0  0  0  0  0  0  0  0  0
  -27.2701  -27.1479   20.0277 C   0  0  0  0  0  0  0  0  0  0  0  0
  -21.4893   -7.1416   23.2919 C   0  0  0  0  0  0  0  0  0  0  0  0
  -21.3295   -4.3655   23.5167 C   0  0  0  0  0  0  0  0  0  0  0  0
  -21.6437   -6.5327   24.5373 C   0  0  0  0  0  0  0  0  0  0  0  0
  -25.5405  -10.6346   19.8608 C   0  0  0  0  0  0  0  0  0  0  0  0
  -26.6267  -20.1610   17.9801 C   0  0  0  0  0  0  0  0  0  0  0  0
  -26.9094  -11.0369   18.1877 C   0  0  0  0  0  0  0  0  0  0  0  0
  -25.3601  -19.7424   17.6300 C   0  0  0  0  0  0  0  0  0  0  0  0
  -26.7609  -18.0858   18.6770 C   0  0  0  0  0  0  0  0  0  0  0  0
  -25.3387   -9.1355   17.7807 C   0  0  0  0  0  0  0  0  0  0  0  0
  -27.1513  -21.5322   17.7528 C   0  0  0  0  0  0  0  0  0  0  0  0
  -25.2660  -31.9235   21.6531 C   0  0  0  0  0  0  0  0  0  0  0  0
  -28.6732  -23.8996   19.2417 C   0  0  0  0  0  0  0  0  0  0  0  0
  -22.5877  -30.3594   22.6031 C   0  0  0  0  0  0  0  0  0  0  0  0
  -20.9231  -27.3977   22.9265 C   0  0  0  0  0  0  0  0  0  0  0  0
  -28.4508  -16.5838   19.7881 C   0  0  0  0  0  0  0  0  0  0  0  0
  -24.4449  -36.2965   24.1551 C   0  0  0  0  0  0  0  0  0  0  0  0
  -24.7101  -30.5806   19.5931 C   0  0  0  0  0  0  0  0  0  0  0  0
  -24.5907  -28.9306   22.0442 C   0  0  0  0  0  0  0  0  0  0  0  0
  -24.3490  -34.8109   24.4927 C   0  0  0  0  0  0  0  0  0  0  0  0
  -30.4747  -13.6630   20.0115 C   0  0  0  0  0  0  0  0  0  0  0  0
  -25.6177  -34.0823   24.0609 C   0  0  0  0  0  0  0  0  0  0  0  0
  -29.4715  -12.5155   19.8745 C   0  0  0  0  0  0  0  0  0  0  0  0
  -29.8932  -14.8332   20.8029 C   0  0  0  0  0  0  0  0  0  0  0  0
  -27.6003  -14.1874   20.1746 C   0  0  0  0  0  0  0  0  0  0  0  0
  -25.8205  -34.1795   22.5440 C   0  0  1  0  0  0  0  0  0  0  0  0
  -24.2102  -31.1466   20.9186 C   0  0  1  0  0  0  0  0  0  0  0  0
  -28.1181  -13.0122   19.3294 C   0  0  2  0  0  0  0  0  0  0  0  0
  -30.5524  -22.6580   15.3454 C   0  0  0  0  0  0  0  0  0  0  0  0
  -18.7674  -26.4320   23.7736 C   0  0  0  0  0  0  0  0  0  0  0  0
  -31.3067  -22.3925   19.1542 C   0  0  0  0  0  0  0  0  0  0  0  0
  -23.5907  -30.6421   25.4708 C   0  0  0  0  0  0  0  0  0  0  0  0
  -21.9434  -28.8821   26.1467 C   0  0  0  0  0  0  0  0  0  0  0  0
  -21.1383  -31.0360   25.1798 C   0  0  0  0  0  0  0  0  0  0  0  0
  -20.1865  -26.3884   20.2437 C   0  0  0  0  0  0  0  0  0  0  0  0
  -28.4451  -25.3741   18.9652 C   0  0  0  0  0  0  0  0  0  1  0  0
  -31.0689  -22.1245   16.6742 C   0  0  0  0  0  0  0  0  0  0  0  0
  -29.0941  -23.0474   18.0457 C   0  0  1  0  0  0  0  0  0  0  0  0
  -22.2647  -29.3459   23.6743 C   0  0  1  0  0  0  0  0  0  0  0  0
  -19.5038  -26.9956   22.5683 C   0  0  2  0  0  0  0  0  0  0  0  0
  -30.6272  -22.9572   17.8976 C   0  0  1  0  0  0  0  0  0  0  0  0
  -22.2537  -29.9712   25.0978 C   0  0  0  0  0  0  0  0  0  0  0  0
  -26.2800  -11.6670   20.2745 N   0  0  0  0  0  0  0  0  0  0  0  0
  -27.4312  -19.2126   18.5810 N   0  0  0  0  0  0  0  0  0  0  0  0
  -27.1032  -11.8883   19.2355 N   0  0  0  0  0  0  0  0  0  0  0  0
  -23.7316  -30.1073   21.8325 N   0  0  0  0  0  0  0  0  0  0  0  0
  -28.6139  -15.2527   20.2265 N   0  0  0  0  0  0  0  0  0  0  0  0
  -27.6512  -11.1201   17.0629 N   0  0  0  0  0  0  0  0  0  0  0  0
  -24.3740  -20.4569   17.0342 N   0  0  0  0  0  0  0  0  0  0  0  0
  -24.2943   -8.3743   18.3230 N   0  0  0  0  0  0  0  0  0  0  0  0
  -27.2035  -16.8577   19.2281 N   0  0  0  0  0  0  0  0  0  0  0  0
  -28.4537  -21.7638   18.1747 N   0  0  0  0  0  0  0  0  0  0  0  0
  -24.9470  -33.2524   21.8570 N   0  0  0  0  0  0  0  0  0  0  0  0
  -21.0026  -28.7272   23.2836 N   0  0  0  0  0  0  0  0  0  0  0  0
  -19.5136  -25.9598   21.4969 N   0  3  0  0  0  0  0  0  0  0  0  0
  -25.7719   -8.8565   16.6370 O   0  0  0  0  0  0  0  0  0  0  0  0
  -26.4225  -22.3756   17.2370 O   0  0  0  0  0  0  0  0  0  0  0  0
  -26.2934  -31.3586   22.0097 O   0  0  0  0  0  0  0  0  0  0  0  0
  -28.5519  -23.4300   20.3735 O   0  0  0  0  0  0  0  0  0  0  0  0
  -21.8482  -31.3348   22.4508 O   0  0  0  0  0  0  0  0  0  0  0  0
  -21.8662  -26.6103   22.8964 O   0  0  0  0  0  0  0  0  0  0  0  0
  -29.3608  -17.4122   19.8762 O   0  0  0  0  0  0  0  0  0  0  0  0
  -21.5675   -8.5195   23.1788 O   0  0  0  0  0  0  0  0  0  0  0  0
  -28.0764  -26.0599   20.1611 O   0  0  0  0  0  0  0  0  0  1  0  0
  -21.2512   -3.0327   23.6247 F   0  0  0  0  0  0  0  0  0  0  0  0
  -21.8679   -7.2760   25.6295 F   0  0  0  0  0  0  0  0  0  0  0  0
  -25.1579  -18.0956   18.0643 S   0  0  0  0  0  0  0  0  0  0  0  0
  1  2  1  0  0  0  0
  1  5  2  0  0  0  0
  2  6  2  0  0  0  0
  3  8  2  0  0  0  0
  3 15  1  0  0  0  0
  4  9  1  0  0  0  0
  4 15  2  0  0  0  0
  5 17  1  0  0  0  0
  6 19  1  0  0  0  0
  7 10  2  0  0  0  0
  7 18  1  0  0  0  0
  8 21  1  0  0  0  0
  9 21  2  0  0  0  0
 10 22  1  0  0  0  0
 11 12  2  0  0  0  0
 11 23  1  0  0  0  0
 12 24  1  0  0  0  0
 13 20  1  0  0  0  0
 13 22  2  0  0  0  0
 14 24  2  0  0  0  0
 14 25  1  0  0  0  0
 15 26  1  0  0  0  0
 16 26  1  0  0  0  0
 16 28  2  0  0  0  0
 16 31  1  0  0  0  0
 17 19  2  0  0  0  0
 17 38  1  0  0  0  0
 18 20  2  0  0  0  0
 18 39  1  0  0  0  0
 19 47  1  0  0  0  0
 20 40  1  0  0  0  0
 21 84  1  0  0  0  0
 22 85  1  0  0  0  0
 23 25  2  0  0  0  0
 23 84  1  0  0  0  0
 24 86  1  0  0  0  0
 25 87  1  0  0  0  0
 26 64  2  0  0  0  0
 27 29  2  0  0  0  0
 27 32  1  0  0  0  0
 27 65  1  0  0  0  0
 28 66  1  0  0  0  0
 28 69  1  0  0  0  0
 29 70  1  0  0  0  0
 29 88  1  0  0  0  0
 30 65  2  0  0  0  0
 30 72  1  0  0  0  0
 30 88  1  0  0  0  0
 31 71  1  0  0  0  0
 31 77  2  0  0  0  0
 32 73  1  0  0  0  0
 32 78  2  0  0  0  0
 33 48  1  0  0  0  0
 33 74  1  0  0  0  0
 33 79  2  0  0  0  0
 34 57  1  0  0  0  0
 34 59  1  0  0  0  0
 34 80  2  0  0  0  0
 35 60  1  0  0  0  0
 35 67  1  0  0  0  0
 35 81  2  0  0  0  0
 36 61  1  0  0  0  0
 36 75  1  0  0  0  0
 36 82  2  0  0  0  0
 37 68  1  0  0  0  0
 37 72  1  0  0  0  0
 37 83  2  0  0  0  0
 38 41  1  0  0  0  0
 39 48  1  0  0  0  0
 40 67  1  0  0  0  0
 41 43  1  0  0  0  0
 42 44  1  0  0  0  0
 42 45  1  0  0  0  0
 43 47  1  0  0  0  0
 44 49  1  0  0  0  0
 45 68  1  0  0  0  0
 46 49  1  0  0  0  0
 46 68  1  0  0  0  0
 47 74  1  0  0  0  0
 48 67  1  0  0  0  0
 49 66  1  0  0  0  0
 50 58  1  0  0  0  0
 51 61  1  0  0  0  0
 52 62  1  0  0  0  0
 53 63  1  0  0  0  0
 54 63  1  0  0  0  0
 55 63  1  0  0  0  0
 56 76  1  0  0  0  0
 57 85  1  0  0  0  0
 58 62  1  0  0  0  0
 59 62  1  0  0  0  0
 59 73  1  0  0  0  0
 60 63  1  0  0  0  0
 60 75  1  0  0  0  0
 61 76  1  0  0  0  0
 64 66  1  0  0  0  0
M  CHG  1  76   1
M  ISO  4  37 100  57 101  72 100  85 101
M  END
> <Batch ID>
0185

> <Smiles>
CCC(C)C(NC(=O)c1nc([100NH:0][100C:0](=O)N2CCCC(n3nc(-c4ccc(Oc5ccc(F)cc5F)cc4)c(C(N)=O)c3N)C2)sc1N)C(=O)[101CH2:1][101O:1]c1ccc2c(c1)CN(C(=O)C(NC(=O)C(C)NC)C(C)(C)C)C(C(=O)NC1CCCc3ccccc31)C2

> <Shape>
0.336

> <Color>
0.094

> <Negative vol penalty>
0.000

$$$$

  -OEChem-04052305053D

 85 93  0     1  0  0  0  0  0999 V2000
  -19.8526  -32.2486   18.7832 C   0  0  0  0  0  0  0  0  0  0  0  0
  -21.2064  -32.0322   19.0194 C   0  0  0  0  0  0  0  0  0  0  0  0
  -26.4133  -13.2948   21.2918 C   0  0  0  0  0  0  0  0  0  0  0  0
  -25.5052  -14.3347   19.3091 C   0  0  0  0  0  0  0  0  0  0  0  0
  -18.9038  -31.7754   19.6887 C   0  0  0  0  0  0  0  0  0  0  0  0
  -21.6123  -31.3435   20.1619 C   0  0  0  0  0  0  0  0  0  0  0  0
  -25.1877  -27.8934   19.1829 C   0  0  0  0  0  0  0  0  0  0  0  0
  -25.1898  -12.6659   21.5224 C   0  0  0  0  0  0  0  0  0  0  0  0
  -24.2817  -13.7058   19.5396 C   0  0  0  0  0  0  0  0  0  0  0  0
  -26.4905  -28.3583   19.0090 C   0  0  0  0  0  0  0  0  0  0  0  0
  -23.5064   -9.9824   20.3399 C   0  0  0  0  0  0  0  0  0  0  0  0
  -23.5269   -8.6309   20.6840 C   0  0  0  0  0  0  0  0  0  0  0  0
  -27.0149  -27.7180   21.2749 C   0  0  0  0  0  0  0  0  0  0  0  0
  -22.4351   -9.1470   22.7765 C   0  0  0  0  0  0  0  0  0  0  0  0
  -27.8200  -22.8985   16.0455 C   0  0  0  0  0  0  0  0  0  0  0  0
  -26.5710  -14.1292   20.1852 C   0  0  0  0  0  0  0  0  0  0  0  0
  -28.9157  -14.2859   19.1924 C   0  0  0  0  0  0  0  0  0  0  0  0
  -19.2978  -31.0722   20.8380 C   0  0  0  0  0  0  0  0  0  0  0  0
  -24.7849  -27.3463   20.4096 C   0  0  0  0  0  0  0  0  0  0  0  0
  -20.6680  -30.8617   21.0843 C   0  0  0  0  0  0  0  0  0  0  0  0
  -25.7072  -27.2445   21.4609 C   0  0  0  0  0  0  0  0  0  0  0  0
  -24.1240  -12.8714   20.6463 C   0  0  0  0  0  0  0  0  0  0  0  0
  -27.4036  -28.2733   20.0560 C   0  0  0  0  0  0  0  0  0  0  0  0
  -22.9503  -10.9163   21.2142 C   0  0  0  0  0  0  0  0  0  0  0  0
  -22.9912   -8.2131   21.9022 C   0  0  0  0  0  0  0  0  0  0  0  0
  -22.4146  -10.4986   22.4324 C   0  0  0  0  0  0  0  0  0  0  0  0
  -27.9558  -21.8592   16.9432 C   0  0  0  0  0  0  0  0  0  0  0  0
  -27.8344  -14.7795   19.9468 C   0  0  0  0  0  0  0  0  0  0  0  0
  -28.7006  -22.1378   18.0710 C   0  0  0  0  0  0  0  0  0  0  0  0
  -29.8685  -15.2719   19.2722 C   0  0  0  0  0  0  0  0  0  0  0  0
  -29.0682  -24.2666   17.3637 C   0  0  0  0  0  0  0  0  0  0  0  0
  -29.0469  -13.0469   18.4830 C   0  0  0  0  0  0  0  0  0  0  0  0
  -22.6115  -28.1088   22.6002 C   0  0  0  0  0  0  0  0  0  0  0  0
  -23.5287  -25.2943   23.9265 C   0  0  0  0  0  0  0  0  0  0  0  0
  -30.4221  -25.9371   18.6754 C   0  0  0  0  0  0  0  0  0  0  0  0
  -25.9385  -22.9022   24.2696 C   0  0  0  0  0  0  0  0  0  0  0  0
  -29.5762  -21.1639   20.2230 C   0  0  0  0  0  0  0  0  0  0  0  0
  -18.2383  -30.6211   21.8119 C   0  0  0  0  0  0  0  0  0  0  0  0
  -23.3835  -26.8249   20.5725 C   0  0  0  0  0  0  0  0  0  0  0  0
  -25.3305  -26.6470   22.7912 C   0  0  0  0  0  0  0  0  0  0  0  0
  -18.7319  -29.5743   22.8073 C   0  0  0  0  0  0  0  0  0  0  0  0
  -31.3919  -18.7834   22.1501 C   0  0  0  0  0  0  0  0  0  0  0  0
  -20.0777  -29.9883   23.3939 C   0  0  0  0  0  0  0  0  0  0  0  0
  -30.7882  -17.4411   21.7307 C   0  0  0  0  0  0  0  0  0  0  0  0
  -30.3356  -19.8852   22.2138 C   0  0  0  0  0  0  0  0  0  0  0  0
  -28.9254  -18.7009   20.5773 C   0  0  0  0  0  0  0  0  0  0  0  0
  -21.1464  -30.0974   22.2997 C   0  0  1  0  0  0  0  0  0  0  0  0
  -22.9367  -26.7574   22.0296 C   0  0  1  0  0  0  0  0  0  0  0  0
  -29.9624  -17.5746   20.4362 C   0  0  2  0  0  0  0  0  0  0  0  0
  -26.9869  -20.7402   24.9936 C   0  0  0  0  0  0  0  0  0  0  0  0
  -24.0194  -26.8211   26.5223 C   0  0  0  0  0  0  0  0  0  0  0  0
  -25.3552  -24.8669   27.3377 C   0  0  0  0  0  0  0  0  0  0  0  0
  -22.9320  -24.5881   26.8151 C   0  0  0  0  0  0  0  0  0  0  0  0
  -24.9568  -21.4861   21.8633 C   0  0  0  0  0  0  0  0  0  0  0  0
  -30.8595  -27.3897   18.5134 C   0  0  0  0  0  0  0  0  0  0  0  0
  -29.7003  -28.0785   20.6415 C   0  0  0  0  0  0  0  0  0  1  0  0
  -24.5832  -24.8750   24.9221 C   0  0  1  0  0  0  0  0  0  0  0  0
  -25.8739  -21.3879   24.1845 C   0  0  2  0  0  0  0  0  0  0  0  0
  -31.0012  -28.1251   19.8456 C   0  0  1  0  0  0  0  0  0  0  0  0
  -24.2293  -25.3009   26.3750 C   0  0  0  0  0  0  0  0  0  0  0  0
  -28.3648  -24.1197   16.2247 N   0  0  0  0  0  0  0  0  0  0  0  0
  -28.0770  -15.9854   20.4676 N   0  0  0  0  0  0  0  0  0  0  0  0
  -29.2734  -23.3349   18.3142 N   0  0  0  0  0  0  0  0  0  0  0  0
  -29.3215  -16.2576   20.0398 N   0  0  0  0  0  0  0  0  0  0  0  0
  -23.9467  -26.1569   22.9033 N   0  0  0  0  0  0  0  0  0  0  0  0
  -29.5960  -19.9558   20.9517 N   0  0  0  0  0  0  0  0  0  0  0  0
  -31.1126  -15.3831   18.7599 N   0  0  0  0  0  0  0  0  0  0  0  0
  -27.9722  -12.1476   18.5045 N   0  0  0  0  0  0  0  0  0  0  0  0
  -28.8686  -21.1018   19.0229 N   0  0  0  0  0  0  0  0  0  0  0  0
  -29.6544  -25.5354   17.5854 N   0  0  0  0  0  0  0  0  0  0  0  0
  -21.6158  -28.7824   21.9187 N   0  0  0  0  0  0  0  0  0  0  0  0
  -24.7610  -23.4375   24.7473 N   0  0  0  0  0  0  0  0  0  0  0  0
  -26.0023  -20.9427   22.7681 N   0  3  0  0  0  0  0  0  0  0  0  0
  -30.0927  -12.7390   17.8625 O   0  0  0  0  0  0  0  0  0  0  0  0
  -23.2179  -28.5101   23.5865 O   0  0  0  0  0  0  0  0  0  0  0  0
  -22.3781  -24.8664   24.0480 O   0  0  0  0  0  0  0  0  0  0  0  0
  -30.7361  -25.2651   19.6522 O   0  0  0  0  0  0  0  0  0  0  0  0
  -26.9351  -23.5455   23.9481 O   0  0  0  0  0  0  0  0  0  0  0  0
  -30.1679  -22.1710   20.6200 O   0  0  0  0  0  0  0  0  0  0  0  0
  -32.0217  -27.4765   20.6072 O   0  0  0  0  0  0  0  0  0  0  0  0
  -22.9300  -12.2577   20.8708 O   0  0  0  0  0  0  0  0  0  0  0  0
  -28.6757  -28.7269   19.8892 O   0  0  0  0  0  0  0  0  0  1  0  0
  -23.0096   -6.9149   22.2318 F   0  0  0  0  0  0  0  0  0  0  0  0
  -21.8779  -11.3910   23.2759 F   0  0  0  0  0  0  0  0  0  0  0  0
  -27.3964  -20.6650   16.7214 F   0  0  0  0  0  0  0  0  0  0  0  0
  1  2  1  0  0  0  0
  1  5  2  0  0  0  0
  2  6  2  0  0  0  0
  3  8  2  0  0  0  0
  3 16  1  0  0  0  0
  4  9  1  0  0  0  0
  4 16  2  0  0  0  0
  5 18  1  0  0  0  0
  6 20  1  0  0  0  0
  7 10  2  0  0  0  0
  7 19  1  0  0  0  0
  8 22  1  0  0  0  0
  9 22  2  0  0  0  0
 10 23  1  0  0  0  0
 11 12  2  0  0  0  0
 11 24  1  0  0  0  0
 12 25  1  0  0  0  0
 13 21  1  0  0  0  0
 13 23  2  0  0  0  0
 14 25  2  0  0  0  0
 14 26  1  0  0  0  0
 15 27  1  0  0  0  0
 15 61  2  0  0  0  0
 16 28  1  0  0  0  0
 17 28  1  0  0  0  0
 17 30  2  0  0  0  0
 17 32  1  0  0  0  0
 18 20  2  0  0  0  0
 18 38  1  0  0  0  0
 19 21  2  0  0  0  0
 19 39  1  0  0  0  0
 20 47  1  0  0  0  0
 21 40  1  0  0  0  0
 22 81  1  0  0  0  0
 23 82  1  0  0  0  0
 24 26  2  0  0  0  0
 24 81  1  0  0  0  0
 25 83  1  0  0  0  0
 26 84  1  0  0  0  0
 27 29  2  0  0  0  0
 27 85  1  0  0  0  0
 28 62  2  0  0  0  0
 29 63  1  0  0  0  0
 29 69  1  0  0  0  0
 30 64  1  0  0  0  0
 30 67  1  0  0  0  0
 31 61  1  0  0  0  0
 31 63  2  0  0  0  0
 31 70  1  0  0  0  0
 32 68  1  0  0  0  0
 32 74  2  0  0  0  0
 33 48  1  0  0  0  0
 33 71  1  0  0  0  0
 33 75  2  0  0  0  0
 34 57  1  0  0  0  0
 34 65  1  0  0  0  0
 34 76  2  0  0  0  0
 35 55  1  0  0  0  0
 35 70  1  0  0  0  0
 35 77  2  0  0  0  0
 36 58  1  0  0  0  0
 36 72  1  0  0  0  0
 36 78  2  0  0  0  0
 37 66  1  0  0  0  0
 37 69  1  0  0  0  0
 37 79  2  0  0  0  0
 38 41  1  0  0  0  0
 39 48  1  0  0  0  0
 40 65  1  0  0  0  0
 41 43  1  0  0  0  0
 42 44  1  0  0  0  0
 42 45  1  0  0  0  0
 43 47  1  0  0  0  0
 44 49  1  0  0  0  0
 45 66  1  0  0  0  0
 46 49  1  0  0  0  0
 46 66  1  0  0  0  0
 47 71  1  0  0  0  0
 48 65  1  0  0  0  0
 49 64  1  0  0  0  0
 50 58  1  0  0  0  0
 51 60  1  0  0  0  0
 52 60  1  0  0  0  0
 53 60  1  0  0  0  0
 54 73  1  0  0  0  0
 55 59  1  0  0  0  0
 56 59  1  0  0  0  0
 56 82  1  0  0  0  0
 57 60  1  0  0  0  0
 57 72  1  0  0  0  0
 58 73  1  0  0  0  0
 59 80  1  0  0  0  0
 62 64  1  0  0  0  0
M  CHG  1  73   1
M  ISO  4  37 100  56 101  69 100  82 101
M  END
> <Batch ID>
0185

> <Smiles>
CNC(C)C(=O)NC(C(=O)N1Cc2cc([101O:1][101CH2:1]C(O)CC(=O)Nc3ncc(F)c([100NH:0][100C:0](=O)N4CCCC(n5nc(-c6ccc(Oc7ccc(F)cc7F)cc6)c(C(N)=O)c5N)C4)n3)ccc2CC1C(=O)NC1CCCc2ccccc21)C(C)(C)C

> <Shape>
0.260

> <Color>
0.092

> <Negative vol penalty>
0.000

$$$$

  -OEChem-04052305053D

 87 95  0     1  0  0  0  0  0999 V2000
  -28.8459  -27.7229   10.9705 C   0  0  0  0  0  0  0  0  0  0  0  0
  -28.7331  -26.7025   11.9095 C   0  0  0  0  0  0  0  0  0  0  0  0
  -23.0950   -9.8231   19.9471 C   0  0  0  0  0  0  0  0  0  0  0  0
  -23.7119   -9.9704   22.2784 C   0  0  0  0  0  0  0  0  0  0  0  0
  -29.0163  -29.0409   11.3922 C   0  0  0  0  0  0  0  0  0  0  0  0
  -28.7918  -26.9995   13.2706 C   0  0  0  0  0  0  0  0  0  0  0  0
  -25.7211  -24.2187   17.7811 C   0  0  0  0  0  0  0  0  0  0  0  0
  -22.3565   -8.6706   20.2153 C   0  0  0  0  0  0  0  0  0  0  0  0
  -22.9734   -8.8179   22.5466 C   0  0  0  0  0  0  0  0  0  0  0  0
  -26.0829  -23.2223   18.6866 C   0  0  0  0  0  0  0  0  0  0  0  0
  -23.3536   -5.4770   22.1936 C   0  0  0  0  0  0  0  0  0  0  0  0
  -23.9407   -4.5049   23.0035 C   0  0  0  0  0  0  0  0  0  0  0  0
  -26.6032  -24.9115   20.3283 C   0  0  0  0  0  0  0  0  0  0  0  0
  -22.1347   -4.7371   24.5914 C   0  0  0  0  0  0  0  0  0  0  0  0
  -31.5862  -19.0621   22.4023 C   0  0  0  0  0  0  0  0  0  0  0  0
  -23.7727  -10.4730   20.9786 C   0  0  0  0  0  0  0  0  0  0  0  0
  -24.0790  -12.9942   20.7392 C   0  0  0  0  0  0  0  0  0  0  0  0
  -29.0674  -29.3553   12.7593 C   0  0  0  0  0  0  0  0  0  0  0  0
  -25.8082  -25.5717   18.1392 C   0  0  0  0  0  0  0  0  0  0  0  0
  -28.9644  -28.3227   13.7109 C   0  0  0  0  0  0  0  0  0  0  0  0
  -26.2395  -25.9231   19.4263 C   0  0  0  0  0  0  0  0  0  0  0  0
  -22.2957   -8.1680   21.5150 C   0  0  0  0  0  0  0  0  0  0  0  0
  -26.5268  -23.5687   19.9595 C   0  0  0  0  0  0  0  0  0  0  0  0
  -22.1570   -6.0792   22.5827 C   0  0  0  0  0  0  0  0  0  0  0  0
  -23.3313   -4.1349   24.2024 C   0  0  0  0  0  0  0  0  0  0  0  0
  -21.5476   -5.7092   23.7816 C   0  0  0  0  0  0  0  0  0  0  0  0
  -31.5605  -17.7669   21.8090 C   0  0  0  0  0  0  0  0  0  0  0  0
  -24.5362  -11.6633   20.7021 C   0  0  0  0  0  0  0  0  0  0  0  0
  -25.1788  -13.7446   20.4017 C   0  0  0  0  0  0  0  0  0  0  0  0
  -30.3483  -17.1383   21.9911 C   0  0  0  0  0  0  0  0  0  0  0  0
  -30.3924  -19.3742   23.0150 C   0  0  0  0  0  0  0  0  0  0  0  0
  -22.7767  -13.5065   21.0510 C   0  0  0  0  0  0  0  0  0  0  0  0
  -27.4576  -28.0720   17.0754 C   0  0  0  0  0  0  0  0  0  0  0  0
  -29.6012  -23.2937   21.5592 C   0  0  0  0  0  0  0  0  0  0  0  0
  -25.6290  -29.6925   19.2090 C   0  0  0  0  0  0  0  0  0  0  0  0
  -23.7473  -29.6211   22.0553 C   0  0  0  0  0  0  0  0  0  0  0  0
  -30.6056  -14.9077   20.8490 C   0  0  0  0  0  0  0  0  0  0  0  0
  -29.3003  -30.7888   13.1663 C   0  0  0  0  0  0  0  0  0  0  0  0
  -25.3888  -26.6336   17.1600 C   0  0  0  0  0  0  0  0  0  0  0  0
  -26.3318  -27.3604   19.8669 C   0  0  0  0  0  0  0  0  0  0  0  0
  -28.9766  -31.0661   14.6321 C   0  0  0  0  0  0  0  0  0  0  0  0
  -29.6797  -12.3466   18.5553 C   0  0  0  0  0  0  0  0  0  0  0  0
  -29.5813  -29.9877   15.5256 C   0  0  0  0  0  0  0  0  0  0  0  0
  -28.2214  -12.0500   18.9124 C   0  0  0  0  0  0  0  0  0  0  0  0
  -30.5151  -12.6588   19.7957 C   0  0  0  0  0  0  0  0  0  0  0  0
  -28.5149  -13.4190   21.0164 C   0  0  0  0  0  0  0  0  0  0  0  0
  -28.9984  -28.6080   15.1967 C   0  0  1  0  0  0  0  0  0  0  0  0
  -26.0060  -27.9969   17.4563 C   0  0  1  0  0  0  0  0  0  0  0  0
  -27.6195  -13.1624   19.7933 C   0  0  2  0  0  0  0  0  0  0  0  0
  -30.1771  -23.9000   20.3041 C   0  0  0  0  0  0  0  0  0  0  0  0
  -22.4119  -31.1092   23.5718 C   0  0  0  0  0  0  0  0  0  0  0  0
  -27.4170  -20.3023   20.3703 C   0  0  0  0  0  0  0  0  0  0  0  0
  -28.2135  -30.8036   20.3906 C   0  0  0  0  0  0  0  0  0  0  0  0
  -26.9124  -31.4822   22.4191 C   0  0  0  0  0  0  0  0  0  0  0  0
  -26.3559  -32.4668   20.1957 C   0  0  0  0  0  0  0  0  0  0  0  0
  -21.2597  -28.1000   21.5487 C   0  0  0  0  0  0  0  0  0  0  0  0
  -29.1024  -21.8610   21.4599 C   0  0  2  0  0  0  0  0  0  0  0  0
  -25.7578  -30.0562   20.6685 C   0  0  1  0  0  0  0  0  0  0  0  0
  -22.3714  -30.1814   22.3675 C   0  0  2  0  0  0  0  0  0  0  0  0
  -27.9469  -21.7290   20.4641 C   0  0  2  0  0  0  0  0  0  1  0  0
  -26.8101  -31.1751   20.9098 C   0  0  0  0  0  0  0  0  0  0  0  0
  -25.8259  -11.5702   20.3672 N   0  0  0  0  0  0  0  0  0  0  0  0
  -26.1884  -12.8522   20.1908 N   0  0  0  0  0  0  0  0  0  0  0  0
  -25.9165  -28.3624   18.8714 N   0  0  0  0  0  0  0  0  0  0  0  0
  -29.8860  -13.7245   20.5789 N   0  0  0  0  0  0  0  0  0  0  0  0
  -25.3710  -15.0741   20.2676 N   0  0  0  0  0  0  0  0  0  0  0  0
  -21.7613  -12.5969   21.3764 N   0  0  0  0  0  0  0  0  0  0  0  0
  -29.8937  -15.8627   21.5739 N   0  0  0  0  0  0  0  0  0  0  0  0
  -27.6769  -28.4680   15.7698 N   0  0  0  0  0  0  0  0  0  0  0  0
  -24.4136  -30.3915   21.1258 N   0  0  0  0  0  0  0  0  0  0  0  0
  -28.6793  -21.4416   22.8159 N   0  0  0  0  0  0  0  0  0  0  0  0
  -21.4156  -29.0756   22.6581 N   0  3  0  0  0  0  0  0  0  0  0  0
  -22.5168  -14.7334   21.0254 O   0  0  0  0  0  0  0  0  0  0  0  0
  -28.3151  -27.7928   17.9050 O   0  0  0  0  0  0  0  0  0  0  0  0
  -29.5256  -23.9541   22.5958 O   0  0  0  0  0  0  0  0  0  0  0  0
  -25.2791  -30.5550   18.3995 O   0  0  0  0  0  0  0  0  0  0  0  0
  -24.1885  -28.6040   22.5858 O   0  0  0  0  0  0  0  0  0  0  0  0
  -31.7584  -15.0733   20.4420 O   0  0  0  0  0  0  0  0  0  0  0  0
  -29.1427  -20.3359   25.0943 O   0  0  0  0  0  0  0  0  0  0  0  0
  -30.9406  -21.7103   23.9975 O   0  0  0  0  0  0  0  0  0  0  0  0
  -21.5750   -7.0435   21.7771 O   0  0  0  0  0  0  0  0  0  0  0  0
  -26.8811  -22.5981   20.8451 O   0  0  0  0  0  0  0  0  0  1  0  0
  -23.8945   -3.2003   24.9792 F   0  0  0  0  0  0  0  0  0  0  0  0
  -20.3974   -6.2833   24.1600 F   0  0  0  0  0  0  0  0  0  0  0  0
  -32.5924  -17.2304   21.1546 F   0  0  0  0  0  0  0  0  0  0  0  0
  -29.2477  -18.1086   22.8740 S   0  0  0  0  0  0  0  0  0  0  0  0
  -29.8198  -20.7953   23.8967 S   0  0  0  0  0  0  0  0  0  0  0  0
  1  2  1  0  0  0  0
  1  5  2  0  0  0  0
  2  6  2  0  0  0  0
  3  8  2  0  0  0  0
  3 16  1  0  0  0  0
  4  9  1  0  0  0  0
  4 16  2  0  0  0  0
  5 18  1  0  0  0  0
  6 20  1  0  0  0  0
  7 10  2  0  0  0  0
  7 19  1  0  0  0  0
  8 22  1  0  0  0  0
  9 22  2  0  0  0  0
 10 23  1  0  0  0  0
 11 12  2  0  0  0  0
 11 24  1  0  0  0  0
 12 25  1  0  0  0  0
 13 21  1  0  0  0  0
 13 23  2  0  0  0  0
 14 25  2  0  0  0  0
 14 26  1  0  0  0  0
 15 27  1  0  0  0  0
 15 31  2  0  0  0  0
 16 28  1  0  0  0  0
 17 28  1  0  0  0  0
 17 29  2  0  0  0  0
 17 32  1  0  0  0  0
 18 20  2  0  0  0  0
 18 38  1  0  0  0  0
 19 21  2  0  0  0  0
 19 39  1  0  0  0  0
 20 47  1  0  0  0  0
 21 40  1  0  0  0  0
 22 81  1  0  0  0  0
 23 82  1  0  0  0  0
 24 26  2  0  0  0  0
 24 81  1  0  0  0  0
 25 83  1  0  0  0  0
 26 84  1  0  0  0  0
 27 30  2  0  0  0  0
 27 85  1  0  0  0  0
 28 62  2  0  0  0  0
 29 63  1  0  0  0  0
 29 66  1  0  0  0  0
 30 68  1  0  0  0  0
 30 86  1  0  0  0  0
 31 86  1  0  0  0  0
 31 87  1  0  0  0  0
 32 67  1  0  0  0  0
 32 73  2  0  0  0  0
 33 48  1  0  0  0  0
 33 69  1  0  0  0  0
 33 74  2  0  0  0  0
 34 50  1  0  0  0  0
 34 57  1  0  0  0  0
 34 75  2  0  0  0  0
 35 58  1  0  0  0  0
 35 64  1  0  0  0  0
 35 76  2  0  0  0  0
 36 59  1  0  0  0  0
 36 70  1  0  0  0  0
 36 77  2  0  0  0  0
 37 65  1  0  0  0  0
 37 68  1  0  0  0  0
 37 78  2  0  0  0  0
 38 41  1  0  0  0  0
 39 48  1  0  0  0  0
 40 64  1  0  0  0  0
 41 43  1  0  0  0  0
 42 44  1  0  0  0  0
 42 45  1  0  0  0  0
 43 47  1  0  0  0  0
 44 49  1  0  0  0  0
 45 65  1  0  0  0  0
 46 49  1  0  0  0  0
 46 65  1  0  0  0  0
 47 69  1  0  0  0  0
 48 64  1  0  0  0  0
 49 63  1  0  0  0  0
 51 59  1  0  0  0  0
 52 60  1  0  0  0  0
 53 61  1  0  0  0  0
 54 61  1  0  0  0  0
 55 61  1  0  0  0  0
 56 72  1  0  0  0  0
 57 60  1  0  0  0  0
 57 71  1  0  0  0  0
 58 61  1  0  0  0  0
 58 70  1  0  0  0  0
 59 72  1  0  0  0  0
 60 82  1  0  0  0  0
 62 63  1  0  0  0  0
 71 87  1  0  0  0  0
 79 87  2  0  0  0  0
 80 87  2  0  0  0  0
M  CHG  1  72   1
M  ISO  4  37 100  60 101  68 100  82 101
M  END
> <Batch ID>
0185

> <Smiles>
CNC(C)C(=O)NC(C(=O)N1Cc2cc([101O:1][101CH:1](C)C(NS(=O)(=O)c3cc(F)c([100NH:0][100C:0](=O)N4CCCC(n5nc(-c6ccc(Oc7ccc(F)cc7F)cc6)c(C(N)=O)c5N)C4)s3)C(C)=O)ccc2CC1C(=O)NC1CCCc2ccccc21)C(C)(C)C

> <Shape>
0.299

> <Color>
0.214

> <Negative vol penalty>
0.000

$$$$

  -OEChem-04052305053D

 86 94  0     1  0  0  0  0  0999 V2000
  -26.5539  -24.1713   17.0855 C   0  0  0  0  0  0  0  0  0  0  0  0
  -25.6276  -25.1772   17.3367 C   0  0  0  0  0  0  0  0  0  0  0  0
  -27.2767  -15.9085   17.1055 C   0  0  0  0  0  0  0  0  0  0  0  0
  -24.9937  -15.1272   17.2270 C   0  0  0  0  0  0  0  0  0  0  0  0
  -27.5785  -23.9290   17.9980 C   0  0  0  0  0  0  0  0  0  0  0  0
  -25.7326  -25.9489   18.4944 C   0  0  0  0  0  0  0  0  0  0  0  0
  -22.6713  -29.7773   18.9136 C   0  0  0  0  0  0  0  0  0  0  0  0
  -27.7331  -14.6026   17.2841 C   0  0  0  0  0  0  0  0  0  0  0  0
  -25.4502  -13.8213   17.4055 C   0  0  0  0  0  0  0  0  0  0  0  0
  -21.3074  -29.6282   19.1613 C   0  0  0  0  0  0  0  0  0  0  0  0
  -29.5010  -11.5230   18.0678 C   0  0  0  0  0  0  0  0  0  0  0  0
  -30.5439  -11.3166   18.9706 C   0  0  0  0  0  0  0  0  0  0  0  0
  -21.6624  -30.2587   21.4625 C   0  0  0  0  0  0  0  0  0  0  0  0
  -29.1846  -12.2262   20.7488 C   0  0  0  0  0  0  0  0  0  0  0  0
  -25.9070  -16.1708   17.0771 C   0  0  0  0  0  0  0  0  0  0  0  0
  -25.1499  -18.1618   15.6733 C   0  0  0  0  0  0  0  0  0  0  0  0
  -27.6880  -24.6903   19.1733 C   0  0  0  0  0  0  0  0  0  0  0  0
  -23.5441  -30.1584   19.9429 C   0  0  0  0  0  0  0  0  0  0  0  0
  -26.7737  -25.7356   19.4159 C   0  0  0  0  0  0  0  0  0  0  0  0
  -23.0366  -30.4145   21.2247 C   0  0  0  0  0  0  0  0  0  0  0  0
  -26.8199  -13.5590   17.4340 C   0  0  0  0  0  0  0  0  0  0  0  0
  -20.8032  -29.8661   20.4365 C   0  0  0  0  0  0  0  0  0  0  0  0
  -28.2998  -12.0810   18.5054 C   0  0  0  0  0  0  0  0  0  0  0  0
  -30.3858  -11.6682   20.3112 C   0  0  0  0  0  0  0  0  0  0  0  0
  -28.1416  -12.4326   19.8459 C   0  0  0  0  0  0  0  0  0  0  0  0
  -25.4348  -17.5197   16.8933 C   0  0  0  0  0  0  0  0  0  0  0  0
  -19.4710  -23.6801   19.0933 C   0  0  0  0  0  0  0  0  0  0  0  0
  -20.0085  -24.2912   17.9799 C   0  0  0  0  0  0  0  0  0  0  0  0
  -24.7375  -19.4207   16.0361 C   0  0  0  0  0  0  0  0  0  0  0  0
  -19.0945  -25.7679   19.6492 C   0  0  0  0  0  0  0  0  0  0  0  0
  -25.2492  -17.6648   14.3321 C   0  0  0  0  0  0  0  0  0  0  0  0
  -26.0460  -28.8178   21.3737 C   0  0  0  0  0  0  0  0  0  0  0  0
  -26.2514  -31.6984   22.8509 C   0  0  0  0  0  0  0  0  0  0  0  0
  -18.0672  -27.0498   21.5594 C   0  0  0  0  0  0  0  0  0  0  0  0
  -24.6802  -34.5537   23.8635 C   0  0  0  0  0  0  0  0  0  0  0  0
  -21.7403  -22.1181   20.1901 C   0  0  0  0  0  0  0  0  0  0  0  0
  -28.8212  -24.3906   20.1227 C   0  0  0  0  0  0  0  0  0  0  0  0
  -25.0087  -30.3408   19.6531 C   0  0  0  0  0  0  0  0  0  0  0  0
  -23.9285  -30.8454   22.3593 C   0  0  0  0  0  0  0  0  0  0  0  0
  -28.5908  -24.9557   21.5205 C   0  0  0  0  0  0  0  0  0  0  0  0
  -25.2958  -22.2474   20.0536 C   0  0  0  0  0  0  0  0  0  0  0  0
  -28.1822  -26.4183   21.4290 C   0  0  0  0  0  0  0  0  0  0  0  0
  -25.6676  -21.1011   19.1114 C   0  0  0  0  0  0  0  0  0  0  0  0
  -24.0945  -21.8927   20.9272 C   0  0  0  0  0  0  0  0  0  0  0  0
  -23.2756  -20.2891   19.2445 C   0  0  0  0  0  0  0  0  0  0  0  0
  -26.8500  -26.5675   20.6833 C   0  0  1  0  0  0  0  0  0  0  0  0
  -25.8822  -30.2340   20.8993 C   0  0  1  0  0  0  0  0  0  0  0  0
  -24.4468  -20.6206   18.3039 C   0  0  2  0  0  0  0  0  0  0  0  0
  -20.6435  -23.7017   16.7844 C   0  0  0  0  0  0  0  0  0  0  0  0
  -17.0680  -28.5711   23.2729 C   0  0  0  0  0  0  0  0  0  0  0  0
  -25.1002  -36.7076   25.0807 C   0  0  0  0  0  0  0  0  0  0  0  0
  -18.6161  -21.3778   18.2947 C   0  0  0  0  0  0  0  0  0  0  0  0
  -18.7484  -21.9211   20.7225 C   0  0  0  0  0  0  0  0  0  0  0  0
  -26.2396  -30.1968   25.5071 C   0  0  0  0  0  0  0  0  0  0  0  0
  -25.7042  -32.3601   26.6479 C   0  0  0  0  0  0  0  0  0  0  0  0
  -27.8477  -32.1090   25.3969 C   0  0  0  0  0  0  0  0  0  0  0  0
  -23.9578  -36.1697   21.4916 C   0  0  0  0  0  0  0  0  0  0  0  0
  -19.0936  -29.3266   21.9993 C   0  0  0  0  0  0  0  0  0  1  0  0
  -25.6777  -32.2960   24.1129 C   0  0  1  0  0  0  0  0  0  0  0  0
  -17.7979  -28.5146   21.9314 C   0  0  1  0  0  0  0  0  0  0  0  0
  -25.0624  -36.0165   23.7266 C   0  0  2  0  0  0  0  0  0  0  0  0
  -19.4102  -22.2254   19.3426 C   0  0  0  0  0  0  0  0  0  0  0  0
  -26.3505  -31.7305   25.3955 C   0  0  0  0  0  0  0  0  0  0  0  0
  -25.2216  -18.3058   17.9519 N   0  0  0  0  0  0  0  0  0  0  0  0
  -18.9468  -24.5252   20.0518 N   0  0  0  0  0  0  0  0  0  0  0  0
  -24.7984  -19.4549   17.3982 N   0  0  0  0  0  0  0  0  0  0  0  0
  -25.3541  -31.0039   22.0274 N   0  0  0  0  0  0  0  0  0  0  0  0
  -22.9707  -21.4463   20.1005 N   0  0  0  0  0  0  0  0  0  0  0  0
  -24.3324  -20.4907   15.3196 N   0  0  0  0  0  0  0  0  0  0  0  0
  -25.6901  -16.3486   14.1383 N   0  0  0  0  0  0  0  0  0  0  0  0
  -18.6991  -26.9482   20.3229 N   0  0  0  0  0  0  0  0  0  0  0  0
  -26.6027  -27.9707   20.4346 N   0  0  0  0  0  0  0  0  0  0  0  0
  -25.7909  -33.7432   23.9673 N   0  0  0  0  0  0  0  0  0  0  0  0
  -20.7299  -21.6349   19.3677 N   0  0  0  0  0  0  0  0  0  0  0  0
  -24.0801  -36.7298   22.8621 N   0  3  0  0  0  0  0  0  0  0  0  0
  -24.9712  -18.3724   13.3344 O   0  0  0  0  0  0  0  0  0  0  0  0
  -25.6946  -28.5162   22.5083 O   0  0  0  0  0  0  0  0  0  0  0  0
  -27.4501  -31.8486   22.6013 O   0  0  0  0  0  0  0  0  0  0  0  0
  -17.7352  -26.1260   22.2966 O   0  0  0  0  0  0  0  0  0  0  0  0
  -23.5131  -34.1690   23.8805 O   0  0  0  0  0  0  0  0  0  0  0  0
  -21.5576  -23.0808   20.9429 O   0  0  0  0  0  0  0  0  0  0  0  0
  -27.2650  -12.2845   17.6079 O   0  0  0  0  0  0  0  0  0  0  0  0
  -19.4724  -29.7206   20.6811 O   0  0  0  0  0  0  0  0  0  1  0  0
  -31.3869  -11.4686   21.1784 F   0  0  0  0  0  0  0  0  0  0  0  0
  -26.9895  -12.9680   20.2725 F   0  0  0  0  0  0  0  0  0  0  0  0
  -19.8552  -25.9930   18.1275 S   0  0  0  0  0  0  0  0  0  0  0  0
  1  2  1  0  0  0  0
  1  5  2  0  0  0  0
  2  6  2  0  0  0  0
  3  8  2  0  0  0  0
  3 15  1  0  0  0  0
  4  9  1  0  0  0  0
  4 15  2  0  0  0  0
  5 17  1  0  0  0  0
  6 19  1  0  0  0  0
  7 10  2  0  0  0  0
  7 18  1  0  0  0  0
  8 21  1  0  0  0  0
  9 21  2  0  0  0  0
 10 22  1  0  0  0  0
 11 12  2  0  0  0  0
 11 23  1  0  0  0  0
 12 24  1  0  0  0  0
 13 20  1  0  0  0  0
 13 22  2  0  0  0  0
 14 24  2  0  0  0  0
 14 25  1  0  0  0  0
 15 26  1  0  0  0  0
 16 26  1  0  0  0  0
 16 29  2  0  0  0  0
 16 31  1  0  0  0  0
 17 19  2  0  0  0  0
 17 37  1  0  0  0  0
 18 20  2  0  0  0  0
 18 38  1  0  0  0  0
 19 46  1  0  0  0  0
 20 39  1  0  0  0  0
 21 82  1  0  0  0  0
 22 83  1  0  0  0  0
 23 25  2  0  0  0  0
 23 82  1  0  0  0  0
 24 84  1  0  0  0  0
 25 85  1  0  0  0  0
 26 64  2  0  0  0  0
 27 28  2  0  0  0  0
 27 62  1  0  0  0  0
 27 65  1  0  0  0  0
 28 49  1  0  0  0  0
 28 86  1  0  0  0  0
 29 66  1  0  0  0  0
 29 69  1  0  0  0  0
 30 65  2  0  0  0  0
 30 71  1  0  0  0  0
 30 86  1  0  0  0  0
 31 70  1  0  0  0  0
 31 76  2  0  0  0  0
 32 47  1  0  0  0  0
 32 72  1  0  0  0  0
 32 77  2  0  0  0  0
 33 59  1  0  0  0  0
 33 67  1  0  0  0  0
 33 78  2  0  0  0  0
 34 60  1  0  0  0  0
 34 71  1  0  0  0  0
 34 79  2  0  0  0  0
 35 61  1  0  0  0  0
 35 73  1  0  0  0  0
 35 80  2  0  0  0  0
 36 68  1  0  0  0  0
 36 74  1  0  0  0  0
 36 81  2  0  0  0  0
 37 40  1  0  0  0  0
 38 47  1  0  0  0  0
 39 67  1  0  0  0  0
 40 42  1  0  0  0  0
 41 43  1  0  0  0  0
 41 44  1  0  0  0  0
 42 46  1  0  0  0  0
 43 48  1  0  0  0  0
 44 68  1  0  0  0  0
 45 48  1  0  0  0  0
 45 68  1  0  0  0  0
 46 72  1  0  0  0  0
 47 67  1  0  0  0  0
 48 66  1  0  0  0  0
 50 60  1  0  0  0  0
 51 61  1  0  0  0  0
 52 62  1  0  0  0  0
 53 62  1  0  0  0  0
 54 63  1  0  0  0  0
 55 63  1  0  0  0  0
 56 63  1  0  0  0  0
 57 75  1  0  0  0  0
 58 60  1  0  0  0  0
 58 83  1  0  0  0  0
 59 63  1  0  0  0  0
 59 73  1  0  0  0  0
 61 75  1  0  0  0  0
 62 74  1  0  0  0  0
 64 66  1  0  0  0  0
M  CHG  1  75   1
M  ISO  4  36 100  58 101  74 100  83 101
M  END
> <Batch ID>
0185

> <Smiles>
CNC(C)C(=O)NC(C(=O)N1Cc2cc([101O:1][101CH2:1]C(C)C(=O)Nc3nc(C(C)(C)[100NH:0][100C:0](=O)N4CCCC(n5nc(-c6ccc(Oc7ccc(F)cc7F)cc6)c(C(N)=O)c5N)C4)c(C)s3)ccc2CC1C(=O)NC1CCCc2ccccc21)C(C)(C)C

> <Shape>
0.241

> <Color>
0.053

> <Negative vol penalty>
0.000

$$$$

  -OEChem-04052305053D

 86 94  0     1  0  0  0  0  0999 V2000
  -16.8880  -28.8099   24.3931 C   0  0  0  0  0  0  0  0  0  0  0  0
  -17.3827  -27.8751   23.4893 C   0  0  0  0  0  0  0  0  0  0  0  0
  -24.1477   -9.0290   20.4667 C   0  0  0  0  0  0  0  0  0  0  0  0
  -22.5877  -10.7010   21.2462 C   0  0  0  0  0  0  0  0  0  0  0  0
  -17.4403  -30.0891   24.4436 C   0  0  0  0  0  0  0  0  0  0  0  0
  -18.4293  -28.2194   22.6346 C   0  0  0  0  0  0  0  0  0  0  0  0
  -22.9345  -24.5642   20.6729 C   0  0  0  0  0  0  0  0  0  0  0  0
  -23.2969   -8.0224   20.9233 C   0  0  0  0  0  0  0  0  0  0  0  0
  -21.7368   -9.6944   21.7028 C   0  0  0  0  0  0  0  0  0  0  0  0
  -23.1162  -23.8525   19.4878 C   0  0  0  0  0  0  0  0  0  0  0  0
  -22.5191   -6.5668   23.8730 C   0  0  0  0  0  0  0  0  0  0  0  0
  -23.0896   -5.5082   24.5797 C   0  0  0  0  0  0  0  0  0  0  0  0
  -24.4496  -25.6622   18.6125 C   0  0  0  0  0  0  0  0  0  0  0  0
  -22.2743   -3.9578   22.9158 C   0  0  0  0  0  0  0  0  0  0  0  0
  -23.7931  -10.3684   20.6282 C   0  0  0  0  0  0  0  0  0  0  0  0
  -24.6751  -12.0063   18.8827 C   0  0  0  0  0  0  0  0  0  0  0  0
  -18.5007  -30.4462   23.5957 C   0  0  0  0  0  0  0  0  0  0  0  0
  -23.5009  -25.8370   20.8327 C   0  0  0  0  0  0  0  0  0  0  0  0
  -18.9954  -29.5050   22.6729 C   0  0  0  0  0  0  0  0  0  0  0  0
  -24.2757  -26.3869   19.8015 C   0  0  0  0  0  0  0  0  0  0  0  0
  -22.0915   -8.3550   21.5413 C   0  0  0  0  0  0  0  0  0  0  0  0
  -23.8714  -24.4027   18.4563 C   0  0  0  0  0  0  0  0  0  0  0  0
  -21.8261   -6.3209   22.6876 C   0  0  0  0  0  0  0  0  0  0  0  0
  -22.9672   -4.2037   24.1012 C   0  0  0  0  0  0  0  0  0  0  0  0
  -21.7037   -5.0164   22.2090 C   0  0  0  0  0  0  0  0  0  0  0  0
  -24.6717  -11.4087   20.1573 C   0  0  0  0  0  0  0  0  0  0  0  0
  -28.5851  -20.8328   19.4189 C   0  0  0  0  0  0  0  0  0  0  0  0
  -25.6909  -12.9291   18.9388 C   0  0  0  0  0  0  0  0  0  0  0  0
  -27.5168  -20.7631   18.5494 C   0  0  0  0  0  0  0  0  0  0  0  0
  -27.8440  -18.8424   19.9659 C   0  0  0  0  0  0  0  0  0  0  0  0
  -23.8350  -11.7503   17.7494 C   0  0  0  0  0  0  0  0  0  0  0  0
  -29.4765  -21.9557   19.5141 C   0  0  0  0  0  0  0  0  0  0  0  0
  -22.3491  -28.7605   21.3122 C   0  0  0  0  0  0  0  0  0  0  0  0
  -25.4865  -29.5230   21.6257 C   0  0  0  0  0  0  0  0  0  0  0  0
  -28.7376  -28.7610   20.9211 C   0  0  0  0  0  0  0  0  0  0  0  0
  -25.9109  -21.4830   16.7510 C   0  0  0  0  0  0  0  0  0  0  0  0
  -28.4388  -16.9940   21.5709 C   0  0  0  0  0  0  0  0  0  0  0  0
  -19.0337  -31.8558   23.6542 C   0  0  0  0  0  0  0  0  0  0  0  0
  -23.3179  -26.5804   22.1274 C   0  0  0  0  0  0  0  0  0  0  0  0
  -24.9220  -27.7412   19.9310 C   0  0  0  0  0  0  0  0  0  0  0  0
  -20.3899  -32.0229   22.9736 C   0  0  0  0  0  0  0  0  0  0  0  0
  -29.3036  -13.6440   22.4114 C   0  0  0  0  0  0  0  0  0  0  0  0
  -20.3902  -31.3405   21.6093 C   0  0  0  0  0  0  0  0  0  0  0  0
  -28.1759  -12.8129   21.7950 C   0  0  0  0  0  0  0  0  0  0  0  0
  -28.7908  -14.9704   22.9695 C   0  0  0  0  0  0  0  0  0  0  0  0
  -26.8849  -14.9509   21.4086 C   0  0  0  0  0  0  0  0  0  0  0  0
  -20.1463  -29.8328   21.7465 C   0  0  1  0  0  0  0  0  0  0  0  0
  -23.5120  -28.0868   21.9841 C   0  0  1  0  0  0  0  0  0  0  0  0
  -27.3633  -13.6344   20.7750 C   0  0  2  0  0  0  0  0  0  0  0  0
  -30.6032  -21.8860   20.5159 C   0  0  0  0  0  0  0  0  0  0  0  0
  -31.0781  -29.5914   21.2813 C   0  0  0  0  0  0  0  0  0  0  0  0
  -26.8519  -22.9254   14.9122 C   0  0  0  0  0  0  0  0  0  0  0  0
  -25.0462  -31.6752   19.5081 C   0  0  0  0  0  0  0  0  0  0  0  0
  -27.5304  -31.8082   19.2267 C   0  0  0  0  0  0  0  0  0  0  0  0
  -26.4935  -32.3766   21.4232 C   0  0  0  0  0  0  0  0  0  0  0  0
  -29.5082  -26.3049   22.3817 C   0  0  0  0  0  0  0  0  0  0  0  0
  -25.2648  -23.9389   16.5857 C   0  0  0  0  0  0  0  0  0  1  0  0
  -26.5797  -29.9612   20.6814 C   0  0  1  0  0  0  0  0  0  0  0  0
  -29.9700  -28.6908   21.8047 C   0  0  2  0  0  0  0  0  0  0  0  0
  -25.6516  -22.6733   15.8209 C   0  0  2  0  0  0  0  0  0  0  0  0
  -26.3988  -31.4305   20.2064 C   0  0  0  0  0  0  0  0  0  0  0  0
  -25.6110  -11.9096   20.9641 N   0  0  0  0  0  0  0  0  0  0  0  0
  -28.7740  -19.7325   20.2323 N   0  0  0  0  0  0  0  0  0  0  0  0
  -26.2141  -12.8316   20.1946 N   0  0  0  0  0  0  0  0  0  0  0  0
  -24.7086  -28.4316   21.2137 N   0  0  0  0  0  0  0  0  0  0  0  0
  -28.0344  -15.6955   21.9463 N   0  0  0  0  0  0  0  0  0  0  0  0
  -26.1787  -13.8062   18.0359 N   0  0  0  0  0  0  0  0  0  0  0  0
  -22.8409  -10.7689   17.8627 N   0  0  0  0  0  0  0  0  0  0  0  0
  -27.0095  -21.6624   17.5811 N   0  0  0  0  0  0  0  0  0  0  0  0
  -27.6635  -17.5715   20.5659 N   0  0  0  0  0  0  0  0  0  0  0  0
  -21.3533  -29.1631   22.1815 N   0  0  0  0  0  0  0  0  0  0  0  0
  -27.8404  -29.7068   21.3702 N   0  0  0  0  0  0  0  0  0  0  0  0
  -30.4872  -27.2944   21.8625 N   0  3  0  0  0  0  0  0  0  0  0  0
  -23.9729  -12.3619   16.6629 O   0  0  0  0  0  0  0  0  0  0  0  0
  -29.4024  -22.9979   18.8410 O   0  0  0  0  0  0  0  0  0  0  0  0
  -22.3556  -28.9058   20.0955 O   0  0  0  0  0  0  0  0  0  0  0  0
  -25.3331  -30.1222   22.6929 O   0  0  0  0  0  0  0  0  0  0  0  0
  -28.5876  -28.0505   19.9295 O   0  0  0  0  0  0  0  0  0  0  0  0
  -25.1719  -20.5017   16.7040 O   0  0  0  0  0  0  0  0  0  0  0  0
  -29.4185  -17.5419   22.0828 O   0  0  0  0  0  0  0  0  0  0  0  0
  -21.2609   -7.3730   21.9867 O   0  0  0  0  0  0  0  0  0  0  0  0
  -24.0497  -23.7105   17.2983 O   0  0  0  0  0  0  0  0  0  1  0  0
  -23.5165   -3.1875   24.7792 F   0  0  0  0  0  0  0  0  0  0  0  0
  -21.0401   -4.7741   21.0703 F   0  0  0  0  0  0  0  0  0  0  0  0
  -24.5992  -22.3731   14.9943 F   0  0  0  0  0  0  0  0  0  0  0  0
  -26.7102  -19.2627   18.7482 S   0  0  0  0  0  0  0  0  0  0  0  0
  1  2  1  0  0  0  0
  1  5  2  0  0  0  0
  2  6  2  0  0  0  0
  3  8  2  0  0  0  0
  3 15  1  0  0  0  0
  4  9  1  0  0  0  0
  4 15  2  0  0  0  0
  5 17  1  0  0  0  0
  6 19  1  0  0  0  0
  7 10  2  0  0  0  0
  7 18  1  0  0  0  0
  8 21  1  0  0  0  0
  9 21  2  0  0  0  0
 10 22  1  0  0  0  0
 11 12  2  0  0  0  0
 11 23  1  0  0  0  0
 12 24  1  0  0  0  0
 13 20  1  0  0  0  0
 13 22  2  0  0  0  0
 14 24  2  0  0  0  0
 14 25  1  0  0  0  0
 15 26  1  0  0  0  0
 16 26  1  0  0  0  0
 16 28  2  0  0  0  0
 16 31  1  0  0  0  0
 17 19  2  0  0  0  0
 17 38  1  0  0  0  0
 18 20  2  0  0  0  0
 18 39  1  0  0  0  0
 19 47  1  0  0  0  0
 20 40  1  0  0  0  0
 21 81  1  0  0  0  0
 22 82  1  0  0  0  0
 23 25  2  0  0  0  0
 23 81  1  0  0  0  0
 24 83  1  0  0  0  0
 25 84  1  0  0  0  0
 26 62  2  0  0  0  0
 27 29  2  0  0  0  0
 27 32  1  0  0  0  0
 27 63  1  0  0  0  0
 28 64  1  0  0  0  0
 28 67  1  0  0  0  0
 29 69  1  0  0  0  0
 29 86  1  0  0  0  0
 30 63  2  0  0  0  0
 30 70  1  0  0  0  0
 30 86  1  0  0  0  0
 31 68  1  0  0  0  0
 31 74  2  0  0  0  0
 32 50  1  0  0  0  0
 32 75  2  0  0  0  0
 33 48  1  0  0  0  0
 33 71  1  0  0  0  0
 33 76  2  0  0  0  0
 34 58  1  0  0  0  0
 34 65  1  0  0  0  0
 34 77  2  0  0  0  0
 35 59  1  0  0  0  0
 35 72  1  0  0  0  0
 35 78  2  0  0  0  0
 36 60  1  0  0  0  0
 36 69  1  0  0  0  0
 36 79  2  0  0  0  0
 37 66  1  0  0  0  0
 37 70  1  0  0  0  0
 37 80  2  0  0  0  0
 38 41  1  0  0  0  0
 39 48  1  0  0  0  0
 40 65  1  0  0  0  0
 41 43  1  0  0  0  0
 42 44  1  0  0  0  0
 42 45  1  0  0  0  0
 43 47  1  0  0  0  0
 44 49  1  0  0  0  0
 45 66  1  0  0  0  0
 46 49  1  0  0  0  0
 46 66  1  0  0  0  0
 47 71  1  0  0  0  0
 48 65  1  0  0  0  0
 49 64  1  0  0  0  0
 51 59  1  0  0  0  0
 52 60  1  0  0  0  0
 53 61  1  0  0  0  0
 54 61  1  0  0  0  0
 55 61  1  0  0  0  0
 56 73  1  0  0  0  0
 57 60  1  0  0  0  0
 57 82  1  0  0  0  0
 58 61  1  0  0  0  0
 58 72  1  0  0  0  0
 59 73  1  0  0  0  0
 60 85  1  0  0  0  0
 62 64  1  0  0  0  0
M  CHG  1  73   1
M  ISO  4  37 100  57 101  70 100  82 101
M  END
> <Batch ID>
0185

> <Smiles>
CNC(C)C(=O)NC(C(=O)N1Cc2cc([101O:1][101CH2:1]C(C)(F)C(=O)Nc3sc([100NH:0][100C:0](=O)N4CCCC(n5nc(-c6ccc(Oc7ccc(F)cc7F)cc6)c(C(N)=O)c5N)C4)nc3C(C)=O)ccc2CC1C(=O)NC1CCCc2ccccc21)C(C)(C)C

> <Shape>
0.277

> <Color>
0.124

> <Negative vol penalty>
0.000

$$$$

  -OEChem-04052305053D

 84 92  0     1  0  0  0  0  0999 V2000
  -16.6353  -30.3899   23.2800 C   0  0  0  0  0  0  0  0  0  0  0  0
  -17.7559  -31.0565   23.7650 C   0  0  0  0  0  0  0  0  0  0  0  0
  -24.6520  -14.7505   20.0079 C   0  0  0  0  0  0  0  0  0  0  0  0
  -26.9892  -14.7983   20.6181 C   0  0  0  0  0  0  0  0  0  0  0  0
  -16.7582  -29.0937   22.7814 C   0  0  0  0  0  0  0  0  0  0  0  0
  -19.0000  -30.4268   23.7528 C   0  0  0  0  0  0  0  0  0  0  0  0
  -25.9779  -31.8649   23.0070 C   0  0  0  0  0  0  0  0  0  0  0  0
  -24.6711  -13.3563   20.0438 C   0  0  0  0  0  0  0  0  0  0  0  0
  -27.0083  -13.4040   20.6541 C   0  0  0  0  0  0  0  0  0  0  0  0
  -27.1967  -31.6493   23.6488 C   0  0  0  0  0  0  0  0  0  0  0  0
  -24.0122   -9.7925   20.3276 C   0  0  0  0  0  0  0  0  0  0  0  0
  -22.9547   -9.1457   20.9670 C   0  0  0  0  0  0  0  0  0  0  0  0
  -27.3033  -29.4381   22.6905 C   0  0  0  0  0  0  0  0  0  0  0  0
  -23.5107  -10.2753   23.0291 C   0  0  0  0  0  0  0  0  0  0  0  0
  -25.8111  -15.4715   20.2949 C   0  0  0  0  0  0  0  0  0  0  0  0
  -25.4968  -17.7861   21.3204 C   0  0  0  0  0  0  0  0  0  0  0  0
  -18.0061  -28.4513   22.7540 C   0  0  0  0  0  0  0  0  0  0  0  0
  -25.4065  -30.8629   22.2095 C   0  0  0  0  0  0  0  0  0  0  0  0
  -19.1395  -29.1202   23.2545 C   0  0  0  0  0  0  0  0  0  0  0  0
  -26.0785  -29.6444   22.0376 C   0  0  0  0  0  0  0  0  0  0  0  0
  -25.8492  -12.6830   20.3670 C   0  0  0  0  0  0  0  0  0  0  0  0
  -27.8582  -30.4347   23.4930 C   0  0  0  0  0  0  0  0  0  0  0  0
  -24.8191  -10.6806   21.0389 C   0  0  0  0  0  0  0  0  0  0  0  0
  -22.7039   -9.3871   22.3177 C   0  0  0  0  0  0  0  0  0  0  0  0
  -24.5683  -10.9220   22.3896 C   0  0  0  0  0  0  0  0  0  0  0  0
  -25.7921  -16.9118   20.2573 C   0  0  0  0  0  0  0  0  0  0  0  0
  -29.6185  -26.3852   19.7253 C   0  0  0  0  0  0  0  0  0  0  0  0
  -25.6143  -19.0413   20.7754 C   0  0  0  0  0  0  0  0  0  0  0  0
  -29.6521  -26.0034   21.0501 C   0  0  0  0  0  0  0  0  0  0  0  0
  -28.9798  -24.3010   19.4841 C   0  0  0  0  0  0  0  0  0  0  0  0
  -25.1477  -17.4901   22.6792 C   0  0  0  0  0  0  0  0  0  0  0  0
  -22.7111  -29.1811   22.3097 C   0  0  0  0  0  0  0  0  0  0  0  0
  -23.7469  -28.0838   19.4382 C   0  0  0  0  0  0  0  0  0  0  0  0
  -30.3912  -28.0307   22.3500 C   0  0  0  0  0  0  0  0  0  0  0  0
  -26.3692  -27.5076   17.3315 C   0  0  0  0  0  0  0  0  0  0  0  0
  -28.3152  -22.7466   17.6163 C   0  0  0  0  0  0  0  0  0  0  0  0
  -18.0812  -27.0321   22.2491 C   0  0  0  0  0  0  0  0  0  0  0  0
  -24.1042  -31.1210   21.5024 C   0  0  0  0  0  0  0  0  0  0  0  0
  -25.5173  -28.5439   21.1759 C   0  0  0  0  0  0  0  0  0  0  0  0
  -19.5013  -26.5750   21.9258 C   0  0  0  0  0  0  0  0  0  0  0  0
  -26.1012  -20.5071   15.9550 C   0  0  0  0  0  0  0  0  0  0  0  0
  -20.4552  -26.9583   23.0527 C   0  0  0  0  0  0  0  0  0  0  0  0
  -25.7991  -19.4440   17.0137 C   0  0  0  0  0  0  0  0  0  0  0  0
  -27.5481  -20.9909   16.0339 C   0  0  0  0  0  0  0  0  0  0  0  0
  -27.6752  -20.3883   18.4192 C   0  0  0  0  0  0  0  0  0  0  0  0
  -20.5105  -28.4799   23.2351 C   0  0  1  0  0  0  0  0  0  0  0  0
  -23.3637  -29.8409   21.1280 C   0  0  1  0  0  0  0  0  0  0  0  0
  -26.2117  -19.9172   18.4213 C   0  0  2  0  0  0  0  0  0  0  0  0
  -31.7906  -29.4423   23.8934 C   0  0  0  0  0  0  0  0  0  0  0  0
  -26.9080  -26.5657   15.0687 C   0  0  0  0  0  0  0  0  0  0  0  0
  -29.4316  -28.8235   26.0089 C   0  0  0  0  0  0  0  0  0  0  0  0
  -23.4055  -25.2574   20.5360 C   0  0  0  0  0  0  0  0  0  0  0  0
  -24.8207  -24.4269   18.6451 C   0  0  0  0  0  0  0  0  0  0  0  0
  -22.6477  -25.5568   18.1716 C   0  0  0  0  0  0  0  0  0  0  0  0
  -27.4538  -30.0935   16.3852 C   0  0  0  0  0  0  0  0  0  0  0  0
  -24.6088  -26.9315   18.9818 C   0  0  1  0  0  0  0  0  0  0  0  0
  -30.6637  -28.4093   23.8139 C   0  0  1  0  0  0  0  0  0  0  0  0
  -26.5654  -27.8192   15.8588 C   0  0  2  0  0  0  0  0  0  0  0  0
  -29.3557  -28.8778   24.4877 C   0  0  2  0  0  0  0  0  0  1  0  0
  -23.8806  -25.5630   19.1015 C   0  0  0  0  0  0  0  0  0  0  0  0
  -26.0757  -17.5570   19.1227 N   0  0  0  0  0  0  0  0  0  0  0  0
  -29.2337  -25.4102   18.8258 N   0  0  0  0  0  0  0  0  0  0  0  0
  -25.9590  -18.8500   19.4698 N   0  0  0  0  0  0  0  0  0  0  0  0
  -24.2383  -28.8420   20.5104 N   0  0  0  0  0  0  0  0  0  0  0  0
  -27.8661  -21.4274   17.3952 N   0  0  0  0  0  0  0  0  0  0  0  0
  -25.4553  -20.2790   21.2904 N   0  0  0  0  0  0  0  0  0  0  0  0
  -25.0718  -16.1469   23.0721 N   0  0  0  0  0  0  0  0  0  0  0  0
  -29.9881  -26.7033   22.2333 N   0  0  0  0  0  0  0  0  0  0  0  0
  -28.5549  -23.0573   18.9545 N   0  0  0  0  0  0  0  0  0  0  0  0
  -21.3364  -29.0820   22.2106 N   0  0  0  0  0  0  0  0  0  0  0  0
  -25.0459  -27.2594   17.6291 N   0  0  0  0  0  0  0  0  0  0  0  0
  -27.6699  -28.8037   15.6804 N   0  3  0  0  0  0  0  0  0  0  0  0
  -24.8940  -18.3897   23.5158 O   0  0  0  0  0  0  0  0  0  0  0  0
  -23.4037  -28.7895   23.2417 O   0  0  0  0  0  0  0  0  0  0  0  0
  -22.6805  -28.3074   18.8601 O   0  0  0  0  0  0  0  0  0  0  0  0
  -30.5173  -28.8471   21.4417 O   0  0  0  0  0  0  0  0  0  0  0  0
  -27.2975  -27.4827   18.1365 O   0  0  0  0  0  0  0  0  0  0  0  0
  -28.4494  -23.5503   16.6900 O   0  0  0  0  0  0  0  0  0  0  0  0
  -25.8682  -11.3225   20.4025 O   0  0  0  0  0  0  0  0  0  0  0  0
  -29.0476  -30.2214   24.1189 O   0  0  0  0  0  0  0  0  0  1  0  0
  -21.6874   -8.7671   22.9313 F   0  0  0  0  0  0  0  0  0  0  0  0
  -25.3393  -11.7751   23.0779 F   0  0  0  0  0  0  0  0  0  0  0  0
  -29.9369  -27.6222   19.3284 F   0  0  0  0  0  0  0  0  0  0  0  0
  -29.1828  -24.3595   21.1871 S   0  0  0  0  0  0  0  0  0  0  0  0
  1  2  1  0  0  0  0
  1  5  2  0  0  0  0
  2  6  2  0  0  0  0
  3  8  2  0  0  0  0
  3 15  1  0  0  0  0
  4  9  1  0  0  0  0
  4 15  2  0  0  0  0
  5 17  1  0  0  0  0
  6 19  1  0  0  0  0
  7 10  2  0  0  0  0
  7 18  1  0  0  0  0
  8 21  1  0  0  0  0
  9 21  2  0  0  0  0
 10 22  1  0  0  0  0
 11 12  2  0  0  0  0
 11 23  1  0  0  0  0
 12 24  1  0  0  0  0
 13 20  1  0  0  0  0
 13 22  2  0  0  0  0
 14 24  2  0  0  0  0
 14 25  1  0  0  0  0
 15 26  1  0  0  0  0
 16 26  1  0  0  0  0
 16 28  2  0  0  0  0
 16 31  1  0  0  0  0
 17 19  2  0  0  0  0
 17 37  1  0  0  0  0
 18 20  2  0  0  0  0
 18 38  1  0  0  0  0
 19 46  1  0  0  0  0
 20 39  1  0  0  0  0
 21 79  1  0  0  0  0
 22 80  1  0  0  0  0
 23 25  2  0  0  0  0
 23 79  1  0  0  0  0
 24 81  1  0  0  0  0
 25 82  1  0  0  0  0
 26 61  2  0  0  0  0
 27 29  2  0  0  0  0
 27 62  1  0  0  0  0
 27 83  1  0  0  0  0
 28 63  1  0  0  0  0
 28 66  1  0  0  0  0
 29 68  1  0  0  0  0
 29 84  1  0  0  0  0
 30 62  2  0  0  0  0
 30 69  1  0  0  0  0
 30 84  1  0  0  0  0
 31 67  1  0  0  0  0
 31 73  2  0  0  0  0
 32 47  1  0  0  0  0
 32 70  1  0  0  0  0
 32 74  2  0  0  0  0
 33 56  1  0  0  0  0
 33 64  1  0  0  0  0
 33 75  2  0  0  0  0
 34 57  1  0  0  0  0
 34 68  1  0  0  0  0
 34 76  2  0  0  0  0
 35 58  1  0  0  0  0
 35 71  1  0  0  0  0
 35 77  2  0  0  0  0
 36 65  1  0  0  0  0
 36 69  1  0  0  0  0
 36 78  2  0  0  0  0
 37 40  1  0  0  0  0
 38 47  1  0  0  0  0
 39 64  1  0  0  0  0
 40 42  1  0  0  0  0
 41 43  1  0  0  0  0
 41 44  1  0  0  0  0
 42 46  1  0  0  0  0
 43 48  1  0  0  0  0
 44 65  1  0  0  0  0
 45 48  1  0  0  0  0
 45 65  1  0  0  0  0
 46 70  1  0  0  0  0
 47 64  1  0  0  0  0
 48 63  1  0  0  0  0
 49 57  1  0  0  0  0
 50 58  1  0  0  0  0
 51 59  1  0  0  0  0
 52 60  1  0  0  0  0
 53 60  1  0  0  0  0
 54 60  1  0  0  0  0
 55 72  1  0  0  0  0
 56 60  1  0  0  0  0
 56 71  1  0  0  0  0
 57 59  1  0  0  0  0
 58 72  1  0  0  0  0
 59 80  1  0  0  0  0
 61 63  1  0  0  0  0
M  CHG  1  72   1
M  ISO  4  36 100  59 101  69 100  80 101
M  END
> <Batch ID>
0185

> <Smiles>
CNC(C)C(=O)NC(C(=O)N1Cc2cc([101O:1][101CH:1](C)C(C)C(=O)Nc3sc([100NH:0][100C:0](=O)N4CCCC(n5nc(-c6ccc(Oc7ccc(F)cc7F)cc6)c(C(N)=O)c5N)C4)nc3F)ccc2CC1C(=O)NC1CCCc2ccccc21)C(C)(C)C

> <Shape>
0.274

> <Color>
0.111

> <Negative vol penalty>
0.000

$$$$

  -OEChem-04052305053D

 84 92  0     1  0  0  0  0  0999 V2000
  -21.0178  -20.4543   17.0567 C   0  0  0  0  0  0  0  0  0  0  0  0
  -22.3030  -20.8494   17.4141 C   0  0  0  0  0  0  0  0  0  0  0  0
  -26.3063  -12.7004   21.6027 C   0  0  0  0  0  0  0  0  0  0  0  0
  -25.8225  -13.5560   19.3957 C   0  0  0  0  0  0  0  0  0  0  0  0
  -20.0804  -21.4086   16.6635 C   0  0  0  0  0  0  0  0  0  0  0  0
  -22.6518  -22.1990   17.3774 C   0  0  0  0  0  0  0  0  0  0  0  0
  -26.4719  -25.1184   21.1707 C   0  0  0  0  0  0  0  0  0  0  0  0
  -25.1031  -11.9948   21.5929 C   0  0  0  0  0  0  0  0  0  0  0  0
  -24.6193  -12.8504   19.3859 C   0  0  0  0  0  0  0  0  0  0  0  0
  -27.8141  -25.4782   21.0565 C   0  0  0  0  0  0  0  0  0  0  0  0
  -23.9065   -9.1298   20.2542 C   0  0  0  0  0  0  0  0  0  0  0  0
  -23.9283   -7.8050   20.6902 C   0  0  0  0  0  0  0  0  0  0  0  0
  -27.1552  -27.6785   20.3191 C   0  0  0  0  0  0  0  0  0  0  0  0
  -22.3509   -8.3535   22.4360 C   0  0  0  0  0  0  0  0  0  0  0  0
  -27.0478  -21.6364   17.7832 C   0  0  0  0  0  0  0  0  0  0  0  0
  -27.7467  -23.7292   16.8259 C   0  0  0  0  0  0  0  0  0  0  0  0
  -26.6660  -13.4811   20.5041 C   0  0  0  0  0  0  0  0  0  0  0  0
  -29.1632  -13.7586   20.0633 C   0  0  0  0  0  0  0  0  0  0  0  0
  -20.4151  -22.7715   16.6312 C   0  0  0  0  0  0  0  0  0  0  0  0
  -25.4597  -26.0340   20.8490 C   0  0  0  0  0  0  0  0  0  0  0  0
  -21.7184  -23.1723   16.9821 C   0  0  0  0  0  0  0  0  0  0  0  0
  -25.8010  -27.3287   20.4325 C   0  0  0  0  0  0  0  0  0  0  0  0
  -24.2597  -12.0697   20.4846 C   0  0  0  0  0  0  0  0  0  0  0  0
  -28.1559  -26.7575   20.6279 C   0  0  0  0  0  0  0  0  0  0  0  0
  -23.1069  -10.0665   20.9091 C   0  0  0  0  0  0  0  0  0  0  0  0
  -23.1506   -7.4169   21.7811 C   0  0  0  0  0  0  0  0  0  0  0  0
  -22.3291   -9.6784   22.0000 C   0  0  0  0  0  0  0  0  0  0  0  0
  -26.8949  -22.6302   16.8228 C   0  0  0  0  0  0  0  0  0  0  0  0
  -27.9084  -14.2106   20.5138 C   0  0  0  0  0  0  0  0  0  0  0  0
  -28.0598  -21.7875   18.7174 C   0  0  0  0  0  0  0  0  0  0  0  0
  -28.7273  -23.7867   17.8031 C   0  0  0  0  0  0  0  0  0  0  0  0
  -30.0099  -14.8167   20.2869 C   0  0  0  0  0  0  0  0  0  0  0  0
  -29.5306  -12.4953   19.4935 C   0  0  0  0  0  0  0  0  0  0  0  0
  -23.1218  -26.1288   18.6975 C   0  0  0  0  0  0  0  0  0  0  0  0
  -22.2808  -28.8188   20.3034 C   0  0  0  0  0  0  0  0  0  0  0  0
  -23.2262  -31.4024   22.3228 C   0  0  0  0  0  0  0  0  0  0  0  0
  -29.1482  -20.7138   20.7196 C   0  0  0  0  0  0  0  0  0  0  0  0
  -19.3822  -23.7615   16.1540 C   0  0  0  0  0  0  0  0  0  0  0  0
  -24.0166  -25.6390   21.0030 C   0  0  0  0  0  0  0  0  0  0  0  0
  -24.7521  -28.3553   20.0944 C   0  0  0  0  0  0  0  0  0  0  0  0
  -19.7196  -25.2091   16.5018 C   0  0  0  0  0  0  0  0  0  0  0  0
  -30.6071  -18.5891   23.1761 C   0  0  0  0  0  0  0  0  0  0  0  0
  -21.1756  -25.5138   16.1644 C   0  0  0  0  0  0  0  0  0  0  0  0
  -30.2000  -17.1836   22.7277 C   0  0  0  0  0  0  0  0  0  0  0  0
  -29.5002  -19.6097   22.9178 C   0  0  0  0  0  0  0  0  0  0  0  0
  -28.5834  -18.2323   21.0926 C   0  0  0  0  0  0  0  0  0  0  0  0
  -22.1274  -24.6293   16.9789 C   0  0  1  0  0  0  0  0  0  0  0  0
  -23.0716  -26.4859   20.1562 C   0  0  1  0  0  0  0  0  0  0  0  0
  -29.6910  -17.1815   21.2729 C   0  0  2  0  0  0  0  0  0  0  0  0
  -22.3266  -33.4640   23.4355 C   0  0  0  0  0  0  0  0  0  0  0  0
  -31.8168  -24.2003   18.3591 C   0  0  0  0  0  0  0  0  0  0  0  0
  -30.4086  -28.9498   19.2958 C   0  0  0  0  0  0  0  0  0  0  0  0
  -22.3298  -30.2820   17.6264 C   0  0  0  0  0  0  0  0  0  0  0  0
  -22.3716  -32.4441   18.8880 C   0  0  0  0  0  0  0  0  0  0  0  0
  -20.4232  -30.9039   19.1205 C   0  0  0  0  0  0  0  0  0  0  0  0
  -23.8522  -30.3601   25.0211 C   0  0  0  0  0  0  0  0  0  0  0  0
  -31.0477  -26.5664   18.7747 C   0  0  0  0  0  0  0  0  0  0  0  0
  -22.6280  -30.2836   20.1910 C   0  0  1  0  0  0  0  0  0  0  0  0
  -22.6035  -31.9759   23.5829 C   0  0  2  0  0  0  0  0  0  0  0  0
  -30.6362  -25.0853   18.7493 C   0  0  1  0  0  0  0  0  0  0  0  0
  -29.9215  -27.5083   19.2225 C   0  0  1  0  0  0  0  0  0  1  0  0
  -21.9582  -30.9587   18.9609 C   0  0  0  0  0  0  0  0  0  0  0  0
  -27.9498  -15.4586   20.9880 N   0  0  0  0  0  0  0  0  0  0  0  0
  -28.9065  -22.8408   18.7522 N   0  0  0  0  0  0  0  0  0  0  0  0
  -29.2408  -15.7998   20.8367 N   0  0  0  0  0  0  0  0  0  0  0  0
  -23.3551  -27.9191   20.2549 N   0  0  0  0  0  0  0  0  0  0  0  0
  -29.0713  -19.5534   21.5186 N   0  0  0  0  0  0  0  0  0  0  0  0
  -31.3298  -14.9928   20.0651 N   0  0  0  0  0  0  0  0  0  0  0  0
  -28.5368  -11.5199   19.3340 N   0  0  0  0  0  0  0  0  0  0  0  0
  -28.2069  -20.7697   19.6922 N   0  0  0  0  0  0  0  0  0  0  0  0
  -29.5678  -24.8854   17.7926 N   0  0  0  0  0  0  0  0  0  0  0  0
  -22.2439  -25.1257   18.3334 N   0  0  0  0  0  0  0  0  0  0  0  0
  -22.2725  -30.8868   21.4709 N   0  0  0  0  0  0  0  0  0  0  0  0
  -23.5143  -31.7803   24.7461 N   0  3  0  0  0  0  0  0  0  0  0  0
  -30.7086  -12.2330   19.1515 O   0  0  0  0  0  0  0  0  0  0  0  0
  -23.8983  -26.7206   17.9570 O   0  0  0  0  0  0  0  0  0  0  0  0
  -21.1007  -28.4855   20.4369 O   0  0  0  0  0  0  0  0  0  0  0  0
  -24.4372  -31.4142   22.1135 O   0  0  0  0  0  0  0  0  0  0  0  0
  -30.0046  -21.5802   20.9143 O   0  0  0  0  0  0  0  0  0  0  0  0
  -23.0857  -11.3812   20.4746 O   0  0  0  0  0  0  0  0  0  0  0  0
  -29.4651  -27.1111   20.5150 O   0  0  0  0  0  0  0  0  0  1  0  0
  -23.1705   -6.1443   22.1987 F   0  0  0  0  0  0  0  0  0  0  0  0
  -21.5580  -10.5735   22.6325 F   0  0  0  0  0  0  0  0  0  0  0  0
  -25.9304  -22.5296   15.8990 F   0  0  0  0  0  0  0  0  0  0  0  0
  1  2  1  0  0  0  0
  1  5  2  0  0  0  0
  2  6  2  0  0  0  0
  3  8  2  0  0  0  0
  3 17  1  0  0  0  0
  4  9  1  0  0  0  0
  4 17  2  0  0  0  0
  5 19  1  0  0  0  0
  6 21  1  0  0  0  0
  7 10  2  0  0  0  0
  7 20  1  0  0  0  0
  8 23  1  0  0  0  0
  9 23  2  0  0  0  0
 10 24  1  0  0  0  0
 11 12  2  0  0  0  0
 11 25  1  0  0  0  0
 12 26  1  0  0  0  0
 13 22  1  0  0  0  0
 13 24  2  0  0  0  0
 14 26  2  0  0  0  0
 14 27  1  0  0  0  0
 15 28  1  0  0  0  0
 15 30  2  0  0  0  0
 16 28  2  0  0  0  0
 16 31  1  0  0  0  0
 17 29  1  0  0  0  0
 18 29  1  0  0  0  0
 18 32  2  0  0  0  0
 18 33  1  0  0  0  0
 19 21  2  0  0  0  0
 19 38  1  0  0  0  0
 20 22  2  0  0  0  0
 20 39  1  0  0  0  0
 21 47  1  0  0  0  0
 22 40  1  0  0  0  0
 23 80  1  0  0  0  0
 24 81  1  0  0  0  0
 25 27  2  0  0  0  0
 25 80  1  0  0  0  0
 26 82  1  0  0  0  0
 27 83  1  0  0  0  0
 28 84  1  0  0  0  0
 29 63  2  0  0  0  0
 30 64  1  0  0  0  0
 30 70  1  0  0  0  0
 31 64  2  0  0  0  0
 31 71  1  0  0  0  0
 32 65  1  0  0  0  0
 32 68  1  0  0  0  0
 33 69  1  0  0  0  0
 33 75  2  0  0  0  0
 34 48  1  0  0  0  0
 34 72  1  0  0  0  0
 34 76  2  0  0  0  0
 35 58  1  0  0  0  0
 35 66  1  0  0  0  0
 35 77  2  0  0  0  0
 36 59  1  0  0  0  0
 36 73  1  0  0  0  0
 36 78  2  0  0  0  0
 37 67  1  0  0  0  0
 37 70  1  0  0  0  0
 37 79  2  0  0  0  0
 38 41  1  0  0  0  0
 39 48  1  0  0  0  0
 40 66  1  0  0  0  0
 41 43  1  0  0  0  0
 42 44  1  0  0  0  0
 42 45  1  0  0  0  0
 43 47  1  0  0  0  0
 44 49  1  0  0  0  0
 45 67  1  0  0  0  0
 46 49  1  0  0  0  0
 46 67  1  0  0  0  0
 47 72  1  0  0  0  0
 48 66  1  0  0  0  0
 49 65  1  0  0  0  0
 50 59  1  0  0  0  0
 51 60  1  0  0  0  0
 52 61  1  0  0  0  0
 53 62  1  0  0  0  0
 54 62  1  0  0  0  0
 55 62  1  0  0  0  0
 56 74  1  0  0  0  0
 57 60  1  0  0  0  0
 57 61  1  0  0  0  0
 58 62  1  0  0  0  0
 58 73  1  0  0  0  0
 59 74  1  0  0  0  0
 60 71  1  0  0  0  0
 61 81  1  0  0  0  0
 63 65  1  0  0  0  0
M  CHG  1  74   1
M  ISO  4  37 100  61 101  70 100  81 101
M  END
> <Batch ID>
0185

> <Smiles>
CNC(C)C(=O)NC(C(=O)N1Cc2cc([101O:1][101CH:1](C)CC(C)Nc3cc(F)cc([100NH:0][100C:0](=O)N4CCCC(n5nc(-c6ccc(Oc7ccc(F)cc7F)cc6)c(C(N)=O)c5N)C4)n3)ccc2CC1C(=O)NC1CCCc2ccccc21)C(C)(C)C

> <Shape>
0.272

> <Color>
0.071

> <Negative vol penalty>
0.000

$$$$

  -OEChem-04052305053D

 83 91  0     1  0  0  0  0  0999 V2000
  -19.7746  -31.0231   20.9278 C   0  0  0  0  0  0  0  0  0  0  0  0
  -21.0949  -30.5890   20.9914 C   0  0  0  0  0  0  0  0  0  0  0  0
  -26.3791  -12.5015   21.5942 C   0  0  0  0  0  0  0  0  0  0  0  0
  -25.8783  -13.5125   19.4578 C   0  0  0  0  0  0  0  0  0  0  0  0
  -18.7558  -30.2322   21.4573 C   0  0  0  0  0  0  0  0  0  0  0  0
  -21.3971  -29.3643   21.5856 C   0  0  0  0  0  0  0  0  0  0  0  0
  -24.6908  -26.6451   18.8650 C   0  0  0  0  0  0  0  0  0  0  0  0
  -25.1605  -11.8237   21.5591 C   0  0  0  0  0  0  0  0  0  0  0  0
  -24.6598  -12.8347   19.4227 C   0  0  0  0  0  0  0  0  0  0  0  0
  -26.0348  -27.0073   18.9448 C   0  0  0  0  0  0  0  0  0  0  0  0
  -22.0204  -10.1056   22.2003 C   0  0  0  0  0  0  0  0  0  0  0  0
  -21.2497  -10.0931   23.3628 C   0  0  0  0  0  0  0  0  0  0  0  0
  -26.4181  -25.2156   20.5139 C   0  0  0  0  0  0  0  0  0  0  0  0
  -21.1326  -12.5058   23.3110 C   0  0  0  0  0  0  0  0  0  0  0  0
  -26.7380  -13.3460   20.5436 C   0  0  0  0  0  0  0  0  0  0  0  0
  -29.2332  -13.5996   20.0778 C   0  0  0  0  0  0  0  0  0  0  0  0
  -19.0446  -28.9928   22.0497 C   0  0  0  0  0  0  0  0  0  0  0  0
  -24.1973  -25.5704   19.6186 C   0  0  0  0  0  0  0  0  0  0  0  0
  -20.3812  -28.5568   22.1248 C   0  0  0  0  0  0  0  0  0  0  0  0
  -25.0681  -24.8401   20.4399 C   0  0  0  0  0  0  0  0  0  0  0  0
  -24.3009  -11.9902   20.4733 C   0  0  0  0  0  0  0  0  0  0  0  0
  -26.8980  -26.2943   19.7716 C   0  0  0  0  0  0  0  0  0  0  0  0
  -22.3473  -11.3181   21.5931 C   0  0  0  0  0  0  0  0  0  0  0  0
  -20.8058  -11.2932   23.9181 C   0  0  0  0  0  0  0  0  0  0  0  0
  -21.9034  -12.5182   22.1484 C   0  0  0  0  0  0  0  0  0  0  0  0
  -27.9963  -14.0469   20.5796 C   0  0  0  0  0  0  0  0  0  0  0  0
  -29.1816  -23.3543   17.8523 C   0  0  0  0  0  0  0  0  0  0  0  0
  -30.1068  -14.6223   20.3561 C   0  0  0  0  0  0  0  0  0  0  0  0
  -28.6503  -22.6132   16.8176 C   0  0  0  0  0  0  0  0  0  0  0  0
  -28.9532  -21.4413   18.9003 C   0  0  0  0  0  0  0  0  0  0  0  0
  -29.5630  -12.3697   19.4189 C   0  0  0  0  0  0  0  0  0  0  0  0
  -29.5637  -24.7922   17.7505 C   0  0  0  0  0  0  0  0  0  0  0  0
  -22.0202  -25.2519   21.9126 C   0  0  0  0  0  0  0  0  0  0  0  0
  -22.6390  -22.0916   21.5232 C   0  0  0  0  0  0  0  0  0  0  0  0
  -24.8165  -19.6700   20.5029 C   0  0  0  0  0  0  0  0  0  0  0  0
  -29.3834  -20.4942   21.1947 C   0  0  0  0  0  0  0  0  0  0  0  0
  -17.9148  -28.1946   22.6507 C   0  0  0  0  0  0  0  0  0  0  0  0
  -22.7507  -25.1756   19.5009 C   0  0  0  0  0  0  0  0  0  0  0  0
  -24.5923  -23.6656   21.2539 C   0  0  0  0  0  0  0  0  0  0  0  0
  -18.2784  -26.7382   22.9285 C   0  0  0  0  0  0  0  0  0  0  0  0
  -30.8350  -18.1800   23.4781 C   0  0  0  0  0  0  0  0  0  0  0  0
  -19.6330  -26.6496   23.6243 C   0  0  0  0  0  0  0  0  0  0  0  0
  -30.3894  -16.8165   22.9448 C   0  0  0  0  0  0  0  0  0  0  0  0
  -29.7469  -19.2386   23.3081 C   0  0  0  0  0  0  0  0  0  0  0  0
  -28.7698  -18.0059   21.4121 C   0  0  0  0  0  0  0  0  0  0  0  0
  -20.7464  -27.2229   22.7393 C   0  0  1  0  0  0  0  0  0  0  0  0
  -22.2467  -24.3865   20.7054 C   0  0  1  0  0  0  0  0  0  0  0  0
  -29.8567  -16.9222   21.5024 C   0  0  2  0  0  0  0  0  0  0  0  0
  -25.0569  -17.1771   20.3435 C   0  0  0  0  0  0  0  0  0  0  0  0
  -29.8354  -25.9121   21.4523 C   0  0  0  0  0  0  0  0  0  0  0  0
  -23.1660  -21.9529   24.5254 C   0  0  0  0  0  0  0  0  0  0  0  0
  -24.2954  -19.7494   24.1548 C   0  0  0  0  0  0  0  0  0  0  0  0
  -21.8778  -20.0184   23.6019 C   0  0  0  0  0  0  0  0  0  0  0  0
  -25.0821  -19.7676   17.5569 C   0  0  0  0  0  0  0  0  0  0  0  0
  -30.1447  -25.5112   18.9672 C   0  0  2  0  0  0  0  0  0  0  0  0
  -23.6158  -21.1112   22.1263 C   0  0  1  0  0  0  0  0  0  0  0  0
  -24.6231  -18.4460   19.6261 C   0  0  2  0  0  0  0  0  0  0  0  0
  -29.1461  -25.6048   20.1276 C   0  0  2  0  0  0  0  0  0  1  0  0
  -23.2476  -20.7313   23.5884 C   0  0  0  0  0  0  0  0  0  0  0  0
  -28.0732  -15.2593   21.1348 N   0  0  0  0  0  0  0  0  0  0  0  0
  -29.3557  -22.6841   19.0474 N   0  0  0  0  0  0  0  0  0  0  0  0
  -29.3688  -15.5825   20.9835 N   0  0  0  0  0  0  0  0  0  0  0  0
  -23.1679  -23.3225   21.1096 N   0  0  0  0  0  0  0  0  0  0  0  0
  -29.2939  -19.2850   21.9161 N   0  0  0  0  0  0  0  0  0  0  0  0
  -31.4265  -14.7850   20.1229 N   0  0  0  0  0  0  0  0  0  0  0  0
  -28.3758  -23.0139   15.5519 N   0  0  0  0  0  0  0  0  0  0  0  0
  -28.5453  -11.4283   19.2128 N   0  0  0  0  0  0  0  0  0  0  0  0
  -28.9535  -20.4090   19.8708 N   0  0  0  0  0  0  0  0  0  0  0  0
  -21.1127  -26.2741   21.7098 N   0  0  0  0  0  0  0  0  0  0  0  0
  -23.6737  -19.9770   21.2107 N   0  0  0  0  0  0  0  0  0  0  0  0
  -25.4214  -18.5743   18.3742 N   0  3  0  0  0  0  0  0  0  0  0  0
  -30.7292  -12.1061   19.0393 O   0  0  0  0  0  0  0  0  0  0  0  0
  -29.4039  -25.3714   16.6770 O   0  0  0  0  0  0  0  0  0  0  0  0
  -22.6229  -25.0093   22.9516 O   0  0  0  0  0  0  0  0  0  0  0  0
  -21.4518  -21.7742   21.4163 O   0  0  0  0  0  0  0  0  0  0  0  0
  -25.8766  -20.2894   20.5576 O   0  0  0  0  0  0  0  0  0  0  0  0
  -29.8354  -21.5224   21.7050 O   0  0  0  0  0  0  0  0  0  0  0  0
  -30.5335  -26.8182   18.5534 O   0  0  0  0  0  0  0  0  0  0  0  0
  -23.1118  -11.3287   20.4386 O   0  0  0  0  0  0  0  0  0  0  0  0
  -28.2101  -26.6462   19.8519 O   0  0  0  0  0  0  0  0  0  1  0  0
  -20.0644  -11.2810   25.0336 F   0  0  0  0  0  0  0  0  0  0  0  0
  -22.2132  -13.6861   21.5690 F   0  0  0  0  0  0  0  0  0  0  0  0
  -28.3544  -21.0103   17.3509 S   0  0  0  0  0  0  0  0  0  0  0  0
  1  2  1  0  0  0  0
  1  5  2  0  0  0  0
  2  6  2  0  0  0  0
  3  8  2  0  0  0  0
  3 15  1  0  0  0  0
  4  9  1  0  0  0  0
  4 15  2  0  0  0  0
  5 17  1  0  0  0  0
  6 19  1  0  0  0  0
  7 10  2  0  0  0  0
  7 18  1  0  0  0  0
  8 21  1  0  0  0  0
  9 21  2  0  0  0  0
 10 22  1  0  0  0  0
 11 12  2  0  0  0  0
 11 23  1  0  0  0  0
 12 24  1  0  0  0  0
 13 20  1  0  0  0  0
 13 22  2  0  0  0  0
 14 24  2  0  0  0  0
 14 25  1  0  0  0  0
 15 26  1  0  0  0  0
 16 26  1  0  0  0  0
 16 28  2  0  0  0  0
 16 31  1  0  0  0  0
 17 19  2  0  0  0  0
 17 37  1  0  0  0  0
 18 20  2  0  0  0  0
 18 38  1  0  0  0  0
 19 46  1  0  0  0  0
 20 39  1  0  0  0  0
 21 79  1  0  0  0  0
 22 80  1  0  0  0  0
 23 25  2  0  0  0  0
 23 79  1  0  0  0  0
 24 81  1  0  0  0  0
 25 82  1  0  0  0  0
 26 60  2  0  0  0  0
 27 29  2  0  0  0  0
 27 32  1  0  0  0  0
 27 61  1  0  0  0  0
 28 62  1  0  0  0  0
 28 65  1  0  0  0  0
 29 66  1  0  0  0  0
 29 83  1  0  0  0  0
 30 61  2  0  0  0  0
 30 68  1  0  0  0  0
 30 83  1  0  0  0  0
 31 67  1  0  0  0  0
 31 72  2  0  0  0  0
 32 55  1  0  0  0  0
 32 73  2  0  0  0  0
 33 47  1  0  0  0  0
 33 69  1  0  0  0  0
 33 74  2  0  0  0  0
 34 56  1  0  0  0  0
 34 63  1  0  0  0  0
 34 75  2  0  0  0  0
 35 57  1  0  0  0  0
 35 70  1  0  0  0  0
 35 76  2  0  0  0  0
 36 64  1  0  0  0  0
 36 68  1  0  0  0  0
 36 77  2  0  0  0  0
 37 40  1  0  0  0  0
 38 47  1  0  0  0  0
 39 63  1  0  0  0  0
 40 42  1  0  0  0  0
 41 43  1  0  0  0  0
 41 44  1  0  0  0  0
 42 46  1  0  0  0  0
 43 48  1  0  0  0  0
 44 64  1  0  0  0  0
 45 48  1  0  0  0  0
 45 64  1  0  0  0  0
 46 69  1  0  0  0  0
 47 63  1  0  0  0  0
 48 62  1  0  0  0  0
 49 57  1  0  0  0  0
 50 58  1  0  0  0  0
 51 59  1  0  0  0  0
 52 59  1  0  0  0  0
 53 59  1  0  0  0  0
 54 71  1  0  0  0  0
 55 58  1  0  0  0  0
 55 78  1  0  0  0  0
 56 59  1  0  0  0  0
 56 70  1  0  0  0  0
 57 71  1  0  0  0  0
 58 80  1  0  0  0  0
 60 62  1  0  0  0  0
M  CHG  1  71   1
M  ISO  4  36 100  58 101  68 100  80 101
M  END
> <Batch ID>
0185

> <Smiles>
CNC(C)C(=O)NC(C(=O)N1Cc2cc([101O:1][101CH:1](C)C(O)C(=O)c3nc([100NH:0][100C:0](=O)N4CCCC(n5nc(-c6ccc(Oc7ccc(F)cc7F)cc6)c(C(N)=O)c5N)C4)sc3N)ccc2CC1C(=O)NC1CCCc2ccccc21)C(C)(C)C

> <Shape>
0.263

> <Color>
0.082

> <Negative vol penalty>
0.000

$$$$

  -OEChem-04052305053D

 85 93  0     1  0  0  0  0  0999 V2000
  -23.3810  -19.4691   21.0221 C   0  0  0  0  0  0  0  0  0  0  0  0
  -24.4535  -20.2318   20.5710 C   0  0  0  0  0  0  0  0  0  0  0  0
  -23.3344  -16.0430   25.4891 C   0  0  0  0  0  0  0  0  0  0  0  0
  -23.8278  -18.3494   24.9655 C   0  0  0  0  0  0  0  0  0  0  0  0
  -22.1537  -20.0781   21.2803 C   0  0  0  0  0  0  0  0  0  0  0  0
  -24.2990  -21.6039   20.3768 C   0  0  0  0  0  0  0  0  0  0  0  0
  -28.1744  -24.2784   22.2405 C   0  0  0  0  0  0  0  0  0  0  0  0
  -22.6288  -16.4509   26.6211 C   0  0  0  0  0  0  0  0  0  0  0  0
  -23.1222  -18.7573   26.0975 C   0  0  0  0  0  0  0  0  0  0  0  0
  -29.3466  -24.3110   21.4864 C   0  0  0  0  0  0  0  0  0  0  0  0
  -23.3385  -17.4798   29.7615 C   0  0  0  0  0  0  0  0  0  0  0  0
  -23.5656  -16.7867   30.9504 C   0  0  0  0  0  0  0  0  0  0  0  0
  -28.7344  -26.4854   20.6400 C   0  0  0  0  0  0  0  0  0  0  0  0
  -21.2309  -16.1711   31.0374 C   0  0  0  0  0  0  0  0  0  0  0  0
  -28.4664  -21.7963   19.2877 C   0  0  0  0  0  0  0  0  0  0  0  0
  -23.9340  -16.9923   24.6613 C   0  0  0  0  0  0  0  0  0  0  0  0
  -24.1652  -15.8418   22.3963 C   0  0  0  0  0  0  0  0  0  0  0  0
  -21.9868  -21.4601   21.0984 C   0  0  0  0  0  0  0  0  0  0  0  0
  -27.2666  -25.3461   22.1916 C   0  0  0  0  0  0  0  0  0  0  0  0
  -23.0679  -22.2318   20.6315 C   0  0  0  0  0  0  0  0  0  0  0  0
  -27.5527  -26.4650   21.3965 C   0  0  0  0  0  0  0  0  0  0  0  0
  -22.5226  -17.8081   26.9252 C   0  0  0  0  0  0  0  0  0  0  0  0
  -29.6253  -25.4133   20.6838 C   0  0  0  0  0  0  0  0  0  0  0  0
  -22.0576  -17.5186   29.2105 C   0  0  0  0  0  0  0  0  0  0  0  0
  -22.5118  -16.1323   31.5884 C   0  0  0  0  0  0  0  0  0  0  0  0
  -21.0039  -16.8642   29.8484 C   0  0  0  0  0  0  0  0  0  0  0  0
  -24.6635  -16.5715   23.4922 C   0  0  0  0  0  0  0  0  0  0  0  0
  -29.8048  -23.0662   17.9364 C   0  0  0  0  0  0  0  0  0  0  0  0
  -29.5230  -20.9485   19.5375 C   0  0  0  0  0  0  0  0  0  0  0  0
  -30.8616  -22.2189   18.1868 C   0  0  0  0  0  0  0  0  0  0  0  0
  -25.2450  -15.6990   21.5595 C   0  0  0  0  0  0  0  0  0  0  0  0
  -22.8444  -15.3383   22.1561 C   0  0  0  0  0  0  0  0  0  0  0  0
  -24.2372  -25.6751   21.2870 C   0  0  0  0  0  0  0  0  0  0  0  0
  -24.6184  -28.6732   22.4653 C   0  0  0  0  0  0  0  0  0  0  0  0
  -26.7400  -31.2243   23.2638 C   0  0  0  0  0  0  0  0  0  0  0  0
  -30.2454  -18.8733   20.7695 C   0  0  0  0  0  0  0  0  0  0  0  0
  -20.6279  -22.0659   21.3454 C   0  0  0  0  0  0  0  0  0  0  0  0
  -26.0196  -25.3073   23.0317 C   0  0  0  0  0  0  0  0  0  0  0  0
  -26.6206  -27.6460   21.3246 C   0  0  0  0  0  0  0  0  0  0  0  0
  -20.6530  -23.5869   21.4724 C   0  0  0  0  0  0  0  0  0  0  0  0
  -30.0256  -15.4249   21.6283 C   0  0  0  0  0  0  0  0  0  0  0  0
  -21.4905  -24.2020   20.3556 C   0  0  0  0  0  0  0  0  0  0  0  0
  -28.5785  -15.2599   22.0983 C   0  0  0  0  0  0  0  0  0  0  0  0
  -30.6079  -16.7735   22.0479 C   0  0  0  0  0  0  0  0  0  0  0  0
  -28.3598  -17.7774   22.1329 C   0  0  0  0  0  0  0  0  0  0  0  0
  -22.9465  -23.7271   20.4325 C   0  0  1  0  0  0  0  0  0  0  0  0
  -24.9181  -26.2242   22.5087 C   0  0  1  0  0  0  0  0  0  0  0  0
  -27.7090  -16.4610   21.6777 C   0  0  2  0  0  0  0  0  0  0  0  0
  -29.4336  -22.8711   14.8695 C   0  0  0  0  0  0  0  0  0  0  0  0
  -26.7540  -33.5634   24.1726 C   0  0  0  0  0  0  0  0  0  0  0  0
  -31.7271  -27.3289   18.8202 C   0  0  0  0  0  0  0  0  0  0  0  0
  -28.6439  -25.1161   16.8647 C   0  0  0  0  0  0  0  0  0  0  0  0
  -23.6257  -29.7210   19.7771 C   0  0  0  0  0  0  0  0  0  0  0  0
  -24.5469  -31.9666   20.3910 C   0  0  0  0  0  0  0  0  0  0  0  0
  -22.7345  -30.9453   21.7674 C   0  0  0  0  0  0  0  0  0  0  0  0
  -28.3919  -30.4349   25.5891 C   0  0  0  0  0  0  0  0  0  0  0  0
  -30.3878  -23.8262   15.5825 C   0  0  0  0  0  0  0  0  0  0  0  0
  -31.0774  -25.2587   17.5364 C   0  0  0  0  0  0  0  0  0  0  0  0
  -25.0740  -29.9954   21.8968 C   0  0  1  0  0  0  0  0  0  0  0  0
  -26.8577  -32.0840   24.5094 C   0  0  2  0  0  0  0  0  0  0  0  0
  -30.7295  -26.1787   18.7214 C   0  0  1  0  0  0  0  0  0  1  0  0
  -29.9484  -24.2930   17.0153 C   0  0  2  0  0  0  0  0  0  0  0  0
  -24.0121  -30.6341   20.9577 C   0  0  0  0  0  0  0  0  0  0  0  0
  -28.5883  -22.8703   18.4826 N   0  0  0  0  0  0  0  0  0  0  0  0
  -25.9590  -16.8712   23.3661 N   0  0  0  0  0  0  0  0  0  0  0  0
  -30.7396  -21.1447   18.9916 N   0  0  0  0  0  0  0  0  0  0  0  0
  -26.2839  -16.3270   22.1810 N   0  0  0  0  0  0  0  0  0  0  0  0
  -25.4113  -27.5580   22.1596 N   0  0  0  0  0  0  0  0  0  0  0  0
  -29.7331  -17.8642   21.6121 N   0  0  0  0  0  0  0  0  0  0  0  0
  -32.1132  -22.4786   17.5851 N   0  0  0  0  0  0  0  0  0  0  0  0
  -25.3975  -15.0986   20.3600 N   0  0  0  0  0  0  0  0  0  0  0  0
  -22.5277  -14.0505   22.6095 N   0  0  0  0  0  0  0  0  0  0  0  0
  -29.3128  -19.8396   20.3942 N   0  0  0  0  0  0  0  0  0  0  0  0
  -23.6550  -24.4363   21.4763 N   0  0  0  0  0  0  0  0  0  0  0  0
  -25.4390  -30.8267   23.0388 N   0  0  0  0  0  0  0  0  0  0  0  0
  -28.1663  -31.8456   25.1815 N   0  3  0  0  0  0  0  0  0  0  0  0
  -21.9761  -16.0040   21.5426 O   0  0  0  0  0  0  0  0  0  0  0  0
  -24.2387  -26.3277   20.2498 O   0  0  0  0  0  0  0  0  0  0  0  0
  -23.6006  -28.6326   23.1611 O   0  0  0  0  0  0  0  0  0  0  0  0
  -27.7049  -30.9375   22.5587 O   0  0  0  0  0  0  0  0  0  0  0  0
  -31.4178  -18.8647   20.3854 O   0  0  0  0  0  0  0  0  0  0  0  0
  -21.8340  -18.2065   28.0296 O   0  0  0  0  0  0  0  0  0  0  0  0
  -30.7684  -25.4474   19.9462 O   0  0  0  0  0  0  0  0  0  1  0  0
  -22.7303  -15.4655   32.7293 F   0  0  0  0  0  0  0  0  0  0  0  0
  -19.7714  -16.8970   29.3233 F   0  0  0  0  0  0  0  0  0  0  0  0
  1  2  1  0  0  0  0
  1  5  2  0  0  0  0
  2  6  2  0  0  0  0
  3  8  2  0  0  0  0
  3 16  1  0  0  0  0
  4  9  1  0  0  0  0
  4 16  2  0  0  0  0
  5 18  1  0  0  0  0
  6 20  1  0  0  0  0
  7 10  2  0  0  0  0
  7 19  1  0  0  0  0
  8 22  1  0  0  0  0
  9 22  2  0  0  0  0
 10 23  1  0  0  0  0
 11 12  2  0  0  0  0
 11 24  1  0  0  0  0
 12 25  1  0  0  0  0
 13 21  1  0  0  0  0
 13 23  2  0  0  0  0
 14 25  2  0  0  0  0
 14 26  1  0  0  0  0
 15 29  1  0  0  0  0
 15 64  2  0  0  0  0
 16 27  1  0  0  0  0
 17 27  1  0  0  0  0
 17 31  2  0  0  0  0
 17 32  1  0  0  0  0
 18 20  2  0  0  0  0
 18 37  1  0  0  0  0
 19 21  2  0  0  0  0
 19 38  1  0  0  0  0
 20 46  1  0  0  0  0
 21 39  1  0  0  0  0
 22 82  1  0  0  0  0
 23 83  1  0  0  0  0
 24 26  2  0  0  0  0
 24 82  1  0  0  0  0
 25 84  1  0  0  0  0
 26 85  1  0  0  0  0
 27 65  2  0  0  0  0
 28 30  2  0  0  0  0
 28 62  1  0  0  0  0
 28 64  1  0  0  0  0
 29 66  2  0  0  0  0
 29 73  1  0  0  0  0
 30 66  1  0  0  0  0
 30 70  1  0  0  0  0
 31 67  1  0  0  0  0
 31 71  1  0  0  0  0
 32 72  1  0  0  0  0
 32 77  2  0  0  0  0
 33 47  1  0  0  0  0
 33 74  1  0  0  0  0
 33 78  2  0  0  0  0
 34 59  1  0  0  0  0
 34 68  1  0  0  0  0
 34 79  2  0  0  0  0
 35 60  1  0  0  0  0
 35 75  1  0  0  0  0
 35 80  2  0  0  0  0
 36 69  1  0  0  0  0
 36 73  1  0  0  0  0
 36 81  2  0  0  0  0
 37 40  1  0  0  0  0
 38 47  1  0  0  0  0
 39 68  1  0  0  0  0
 40 42  1  0  0  0  0
 41 43  1  0  0  0  0
 41 44  1  0  0  0  0
 42 46  1  0  0  0  0
 43 48  1  0  0  0  0
 44 69  1  0  0  0  0
 45 48  1  0  0  0  0
 45 69  1  0  0  0  0
 46 74  1  0  0  0  0
 47 68  1  0  0  0  0
 48 67  1  0  0  0  0
 49 57  1  0  0  0  0
 50 60  1  0  0  0  0
 51 61  1  0  0  0  0
 52 62  1  0  0  0  0
 53 63  1  0  0  0  0
 54 63  1  0  0  0  0
 55 63  1  0  0  0  0
 56 76  1  0  0  0  0
 57 62  1  0  0  0  0
 58 61  1  0  0  0  0
 58 62  1  0  0  0  0
 59 63  1  0  0  0  0
 59 75  1  0  0  0  0
 60 76  1  0  0  0  0
 61 83  1  0  0  0  0
 65 67  1  0  0  0  0
M  CHG  1  76   1
M  ISO  4  36 100  61 101  73 100  83 101
M  END
> <Batch ID>
0185

> <Smiles>
CCC(C)(C[101CH:1](C)[101O:1]c1ccc2c(c1)CN(C(=O)C(NC(=O)C(C)NC)C(C)(C)C)C(C(=O)NC1CCCc3ccccc31)C2)c1ncc([100NH:0][100C:0](=O)N2CCCC(n3nc(-c4ccc(Oc5ccc(F)cc5F)cc4)c(C(N)=O)c3N)C2)nc1N

> <Shape>
0.192

> <Color>
0.084

> <Negative vol penalty>
0.000

$$$$

  -OEChem-04052305053D

 82 90  0     1  0  0  0  0  0999 V2000
  -19.4485  -29.0706   23.1191 C   0  0  0  0  0  0  0  0  0  0  0  0
  -20.7776  -28.6972   22.9470 C   0  0  0  0  0  0  0  0  0  0  0  0
  -22.4855  -13.7800   20.2288 C   0  0  0  0  0  0  0  0  0  0  0  0
  -23.7344  -12.9616   22.1282 C   0  0  0  0  0  0  0  0  0  0  0  0
  -18.4267  -28.2013   22.7394 C   0  0  0  0  0  0  0  0  0  0  0  0
  -21.0856  -27.4539   22.3959 C   0  0  0  0  0  0  0  0  0  0  0  0
  -24.7398  -27.7294   18.9008 C   0  0  0  0  0  0  0  0  0  0  0  0
  -21.6418  -12.6719   20.3060 C   0  0  0  0  0  0  0  0  0  0  0  0
  -22.8907  -11.8535   22.2054 C   0  0  0  0  0  0  0  0  0  0  0  0
  -26.0516  -27.8433   19.3588 C   0  0  0  0  0  0  0  0  0  0  0  0
  -22.5105   -8.8958   20.6121 C   0  0  0  0  0  0  0  0  0  0  0  0
  -23.0992   -7.6446   20.7953 C   0  0  0  0  0  0  0  0  0  0  0  0
  -31.9863  -21.1939   20.6659 C   0  0  0  0  0  0  0  0  0  0  0  0
  -31.4496  -22.4948   20.4429 C   0  0  0  0  0  0  0  0  0  0  0  0
  -26.3812  -25.4833   18.9835 C   0  0  0  0  0  0  0  0  0  0  0  0
  -21.8775   -7.3723   22.8618 C   0  0  0  0  0  0  0  0  0  0  0  0
  -23.5318  -13.9248   21.1398 C   0  0  0  0  0  0  0  0  0  0  0  0
  -24.2390  -16.3101   21.7038 C   0  0  0  0  0  0  0  0  0  0  0  0
  -18.7222  -26.9507   22.1745 C   0  0  0  0  0  0  0  0  0  0  0  0
  -24.2345  -26.4874   18.4902 C   0  0  0  0  0  0  0  0  0  0  0  0
  -20.0667  -26.5666   22.0094 C   0  0  0  0  0  0  0  0  0  0  0  0
  -25.0634  -25.3568   18.5182 C   0  0  0  0  0  0  0  0  0  0  0  0
  -21.8444  -11.7087   21.2943 C   0  0  0  0  0  0  0  0  0  0  0  0
  -26.8717  -26.7196   19.4029 C   0  0  0  0  0  0  0  0  0  0  0  0
  -21.6054   -9.3853   21.5538 C   0  0  0  0  0  0  0  0  0  0  0  0
  -22.7827   -6.8829   21.9201 C   0  0  0  0  0  0  0  0  0  0  0  0
  -21.2888   -8.6236   22.6786 C   0  0  0  0  0  0  0  0  0  0  0  0
  -24.4040  -15.0689   21.0602 C   0  0  0  0  0  0  0  0  0  0  0  0
  -31.2578  -20.4861   21.5964 C   0  0  0  0  0  0  0  0  0  0  0  0
  -25.3268  -17.0493   21.3081 C   0  0  0  0  0  0  0  0  0  0  0  0
  -30.3310  -22.7317   21.2114 C   0  0  0  0  0  0  0  0  0  0  0  0
  -23.1957  -16.7549   22.5809 C   0  0  0  0  0  0  0  0  0  0  0  0
  -21.8793  -24.5898   19.4679 C   0  0  0  0  0  0  0  0  0  0  0  0
  -22.6859  -22.8808   16.8314 C   0  0  0  0  0  0  0  0  0  0  0  0
  -25.0629  -22.0661   14.5221 C   0  0  0  0  0  0  0  0  0  0  0  0
  -29.6119  -25.0669   20.6044 C   0  0  0  0  0  0  0  0  0  0  0  0
  -30.8021  -17.5119   20.3323 C   0  0  0  0  0  0  0  0  0  0  0  0
  -17.5841  -26.0256   21.8230 C   0  0  0  0  0  0  0  0  0  0  0  0
  -22.8255  -26.3864   17.9736 C   0  0  0  0  0  0  0  0  0  0  0  0
  -24.5753  -24.0044   18.0695 C   0  0  0  0  0  0  0  0  0  0  0  0
  -17.9929  -24.8800   20.9007 C   0  0  0  0  0  0  0  0  0  0  0  0
  -28.7872  -16.1578   17.7279 C   0  0  0  0  0  0  0  0  0  0  0  0
  -19.2824  -24.2316   21.3940 C   0  0  0  0  0  0  0  0  0  0  0  0
  -27.4565  -15.8506   18.4171 C   0  0  0  0  0  0  0  0  0  0  0  0
  -29.9749  -15.8923   18.6503 C   0  0  0  0  0  0  0  0  0  0  0  0
  -28.5781  -16.2663   20.6460 C   0  0  0  0  0  0  0  0  0  0  0  0
  -20.4408  -25.2364   21.3923 C   0  0  1  0  0  0  0  0  0  0  0  0
  -22.2554  -24.9743   18.0649 C   0  0  1  0  0  0  0  0  0  0  0  0
  -27.3482  -16.5719   19.7740 C   0  0  2  0  0  0  0  0  0  0  0  0
  -25.4394  -20.6129   12.5111 C   0  0  0  0  0  0  0  0  0  0  0  0
  -28.9526  -26.9764   22.1139 C   0  0  0  0  0  0  0  0  0  0  0  0
  -22.9485  -20.4419   18.6460 C   0  0  0  0  0  0  0  0  0  0  0  0
  -24.2139  -19.3004   16.8119 C   0  0  0  0  0  0  0  0  0  0  0  0
  -21.8452  -19.9922   16.4471 C   0  0  0  0  0  0  0  0  0  0  0  0
  -25.5858  -24.4049   12.7856 C   0  0  0  0  0  0  0  0  0  0  0  0
  -31.4902  -19.1143   22.0981 C   0  0  0  0  0  0  0  0  0  0  0  0
  -23.6521  -21.7582   16.5393 C   0  0  1  0  0  0  0  0  0  0  0  0
  -25.0094  -21.9847   13.0071 C   0  0  2  0  0  0  0  0  0  0  0  0
  -28.5097  -26.0495   20.9916 C   0  0  1  0  0  0  0  0  0  1  0  0
  -23.1738  -20.3981   17.1214 C   0  0  0  0  0  0  0  0  0  0  0  0
  -25.5095  -15.0189   20.3123 N   0  0  0  0  0  0  0  0  0  0  0  0
  -26.0490  -16.2378   20.4834 N   0  0  0  0  0  0  0  0  0  0  0  0
  -23.1882  -23.9556   17.5785 N   0  0  0  0  0  0  0  0  0  0  0  0
  -29.8112  -16.6063   19.9189 N   0  0  0  0  0  0  0  0  0  0  0  0
  -25.7265  -18.3079   21.5885 N   0  0  0  0  0  0  0  0  0  0  0  0
  -22.1534  -15.8680   22.8831 N   0  0  0  0  0  0  0  0  0  0  0  0
  -29.4960  -23.8706   21.3045 N   0  0  0  0  0  0  0  0  0  0  0  0
  -20.9442  -25.4251   20.0486 N   0  0  0  0  0  0  0  0  0  0  0  0
  -23.8476  -21.7537   15.0935 N   0  0  0  0  0  0  0  0  0  0  0  0
  -30.5658  -18.1507   21.5434 N   0  0  0  0  0  0  0  0  0  0  0  0
  -25.9091  -23.0068   12.4014 N   0  3  0  0  0  0  0  0  0  0  0  0
  -23.1794  -17.9105   23.0688 O   0  0  0  0  0  0  0  0  0  0  0  0
  -22.3979  -23.6071   19.9847 O   0  0  0  0  0  0  0  0  0  0  0  0
  -21.5302  -22.8100   16.4060 O   0  0  0  0  0  0  0  0  0  0  0  0
  -26.0820  -22.3723   15.1371 O   0  0  0  0  0  0  0  0  0  0  0  0
  -30.4543  -25.3562   19.7594 O   0  0  0  0  0  0  0  0  0  0  0  0
  -31.8194  -17.7386   19.6685 O   0  0  0  0  0  0  0  0  0  0  0  0
  -21.0212  -10.6274   21.3702 O   0  0  0  0  0  0  0  0  0  0  0  0
  -28.1523  -26.8279   19.8502 O   0  0  0  0  0  0  0  0  0  1  0  0
  -23.3469   -5.6807   22.0951 F   0  0  0  0  0  0  0  0  0  0  0  0
  -20.4191   -9.0881   23.5862 F   0  0  0  0  0  0  0  0  0  0  0  0
  -29.9324  -21.3892   22.1968 S   0  0  0  0  0  0  0  0  0  0  0  0
  1  2  1  0  0  0  0
  1  5  2  0  0  0  0
  2  6  2  0  0  0  0
  3  8  2  0  0  0  0
  3 17  1  0  0  0  0
  4  9  1  0  0  0  0
  4 17  2  0  0  0  0
  5 19  1  0  0  0  0
  6 21  1  0  0  0  0
  7 10  2  0  0  0  0
  7 20  1  0  0  0  0
  8 23  1  0  0  0  0
  9 23  2  0  0  0  0
 10 24  1  0  0  0  0
 11 12  2  0  0  0  0
 11 25  1  0  0  0  0
 12 26  1  0  0  0  0
 13 14  1  0  0  0  0
 13 29  2  0  0  0  0
 14 31  2  0  0  0  0
 15 22  1  0  0  0  0
 15 24  2  0  0  0  0
 16 26  2  0  0  0  0
 16 27  1  0  0  0  0
 17 28  1  0  0  0  0
 18 28  1  0  0  0  0
 18 30  2  0  0  0  0
 18 32  1  0  0  0  0
 19 21  2  0  0  0  0
 19 38  1  0  0  0  0
 20 22  2  0  0  0  0
 20 39  1  0  0  0  0
 21 47  1  0  0  0  0
 22 40  1  0  0  0  0
 23 78  1  0  0  0  0
 24 79  1  0  0  0  0
 25 27  2  0  0  0  0
 25 78  1  0  0  0  0
 26 80  1  0  0  0  0
 27 81  1  0  0  0  0
 28 61  2  0  0  0  0
 29 56  1  0  0  0  0
 29 82  1  0  0  0  0
 30 62  1  0  0  0  0
 30 65  1  0  0  0  0
 31 67  1  0  0  0  0
 31 82  1  0  0  0  0
 32 66  1  0  0  0  0
 32 72  2  0  0  0  0
 33 48  1  0  0  0  0
 33 68  1  0  0  0  0
 33 73  2  0  0  0  0
 34 57  1  0  0  0  0
 34 63  1  0  0  0  0
 34 74  2  0  0  0  0
 35 58  1  0  0  0  0
 35 69  1  0  0  0  0
 35 75  2  0  0  0  0
 36 59  1  0  0  0  0
 36 67  1  0  0  0  0
 36 76  2  0  0  0  0
 37 64  1  0  0  0  0
 37 70  1  0  0  0  0
 37 77  2  0  0  0  0
 38 41  1  0  0  0  0
 39 48  1  0  0  0  0
 40 63  1  0  0  0  0
 41 43  1  0  0  0  0
 42 44  1  0  0  0  0
 42 45  1  0  0  0  0
 43 47  1  0  0  0  0
 44 49  1  0  0  0  0
 45 64  1  0  0  0  0
 46 49  1  0  0  0  0
 46 64  1  0  0  0  0
 47 68  1  0  0  0  0
 48 63  1  0  0  0  0
 49 62  1  0  0  0  0
 50 58  1  0  0  0  0
 51 59  1  0  0  0  0
 52 60  1  0  0  0  0
 53 60  1  0  0  0  0
 54 60  1  0  0  0  0
 55 71  1  0  0  0  0
 56 70  1  0  0  0  0
 57 60  1  0  0  0  0
 57 69  1  0  0  0  0
 58 71  1  0  0  0  0
 59 79  1  0  0  0  0
 61 62  1  0  0  0  0
M  CHG  1  71   1
M  ISO  4  37 100  59 101  70 100  79 101
M  END
> <Batch ID>
0185

> <Smiles>
CNC(C)C(=O)NC(C(=O)N1Cc2cc([101O:1][101CH:1](C)C(=O)Nc3ccc(C[100NH:0][100C:0](=O)N4CCCC(n5nc(-c6ccc(Oc7ccc(F)cc7F)cc6)c(C(N)=O)c5N)C4)s3)ccc2CC1C(=O)NC1CCCc2ccccc21)C(C)(C)C

> <Shape>
0.200

> <Color>
0.071

> <Negative vol penalty>
0.000

$$$$

  -OEChem-04052305053D

 87 95  0     1  0  0  0  0  0999 V2000
  -29.7030  -24.4737   23.1833 C   0  0  0  0  0  0  0  0  0  0  0  0
  -28.5437  -24.2201   22.4573 C   0  0  0  0  0  0  0  0  0  0  0  0
  -31.1588  -26.3338   18.0150 C   0  0  0  0  0  0  0  0  0  0  0  0
  -29.5224  -24.5745   17.7617 C   0  0  0  0  0  0  0  0  0  0  0  0
  -30.7197  -23.5206   23.2263 C   0  0  0  0  0  0  0  0  0  0  0  0
  -28.4009  -23.0136   21.7728 C   0  0  0  0  0  0  0  0  0  0  0  0
  -23.8269  -20.9400   22.4241 C   0  0  0  0  0  0  0  0  0  0  0  0
  -32.1708  -25.4445   17.6538 C   0  0  0  0  0  0  0  0  0  0  0  0
  -30.5344  -23.6852   17.4004 C   0  0  0  0  0  0  0  0  0  0  0  0
  -22.7737  -21.4760   21.6844 C   0  0  0  0  0  0  0  0  0  0  0  0
  -35.2297  -23.5446   17.1466 C   0  0  0  0  0  0  0  0  0  0  0  0
  -36.3990  -23.5469   17.9069 C   0  0  0  0  0  0  0  0  0  0  0  0
  -22.9646  -19.6600   20.1081 C   0  0  0  0  0  0  0  0  0  0  0  0
  -35.1209  -22.9697   19.8743 C   0  0  0  0  0  0  0  0  0  0  0  0
  -29.8345  -25.8988   18.0691 C   0  0  0  0  0  0  0  0  0  0  0  0
  -28.0349  -27.6411   17.5859 C   0  0  0  0  0  0  0  0  0  0  0  0
  -30.5852  -22.2978   22.5499 C   0  0  0  0  0  0  0  0  0  0  0  0
  -24.4652  -19.7639   22.0047 C   0  0  0  0  0  0  0  0  0  0  0  0
  -29.4174  -22.0438   21.8057 C   0  0  0  0  0  0  0  0  0  0  0  0
  -24.0240  -19.1097   20.8456 C   0  0  0  0  0  0  0  0  0  0  0  0
  -31.8586  -24.1202   17.3464 C   0  0  0  0  0  0  0  0  0  0  0  0
  -22.3443  -20.8376   20.5246 C   0  0  0  0  0  0  0  0  0  0  0  0
  -34.0059  -23.2549   17.7501 C   0  0  0  0  0  0  0  0  0  0  0  0
  -36.3447  -23.2594   19.2708 C   0  0  0  0  0  0  0  0  0  0  0  0
  -33.9515  -22.9674   19.1139 C   0  0  0  0  0  0  0  0  0  0  0  0
  -28.7887  -26.8168   18.4427 C   0  0  0  0  0  0  0  0  0  0  0  0
  -20.5575  -27.7711   21.8731 C   0  0  0  0  0  0  0  0  0  0  0  0
  -27.1795  -28.3151   18.4228 C   0  0  0  0  0  0  0  0  0  0  0  0
  -19.4001  -27.8343   22.6206 C   0  0  0  0  0  0  0  0  0  0  0  0
  -19.9369  -25.6749   21.6979 C   0  0  0  0  0  0  0  0  0  0  0  0
  -28.1019  -27.7846   16.1609 C   0  0  0  0  0  0  0  0  0  0  0  0
  -27.4221  -19.0119   21.1133 C   0  0  0  0  0  0  0  0  0  0  0  0
  -26.2303  -15.9951   21.0895 C   0  0  0  0  0  0  0  0  0  0  0  0
  -23.5028  -13.9594   20.8379 C   0  0  0  0  0  0  0  0  0  0  0  0
  -20.7542  -23.5552   20.6125 C   0  0  0  0  0  0  0  0  0  0  0  0
  -23.6281  -28.3804   22.7273 C   0  0  0  0  0  0  0  0  0  0  0  0
  -31.7312  -21.3180   22.5869 C   0  0  0  0  0  0  0  0  0  0  0  0
  -25.5823  -19.1841   22.8283 C   0  0  0  0  0  0  0  0  0  0  0  0
  -24.6624  -17.8336   20.3636 C   0  0  0  0  0  0  0  0  0  0  0  0
  -31.3435  -19.9103   22.1414 C   0  0  0  0  0  0  0  0  0  0  0  0
  -27.0994  -28.6569   23.4689 C   0  0  0  0  0  0  0  0  0  0  0  0
  -30.5221  -19.9640   20.8572 C   0  0  0  0  0  0  0  0  0  0  0  0
  -27.7856  -28.2650   22.1592 C   0  0  0  0  0  0  0  0  0  0  0  0
  -25.8351  -27.8355   23.7115 C   0  0  0  0  0  0  0  0  0  0  0  0
  -25.5494  -27.4606   21.2925 C   0  0  0  0  0  0  0  0  0  0  0  0
  -29.2149  -20.7368   21.0704 C   0  0  1  0  0  0  0  0  0  0  0  0
  -26.4971  -18.2613   22.0290 C   0  0  1  0  0  0  0  0  0  0  0  0
  -26.7989  -28.3005   20.9767 C   0  0  2  0  0  0  0  0  0  0  0  0
  -22.1439  -31.9280   21.1862 C   0  0  0  0  0  0  0  0  0  0  0  0
  -22.8480  -11.5370   20.8162 C   0  0  0  0  0  0  0  0  0  0  0  0
  -18.9843  -21.9474   19.8113 C   0  0  0  0  0  0  0  0  0  0  0  0
  -21.1680  -28.7978   19.0314 C   0  0  0  0  0  0  0  0  0  0  0  0
  -27.2601  -15.7448   18.2282 C   0  0  0  0  0  0  0  0  0  0  0  0
  -25.7840  -13.7424   17.9461 C   0  0  0  0  0  0  0  0  0  0  0  0
  -27.6108  -13.7137   19.6445 C   0  0  0  0  0  0  0  0  0  0  0  0
  -21.8185  -14.2733   23.2512 C   0  0  0  0  0  0  0  0  0  0  0  0
  -22.1359  -30.8940   20.0682 C   0  0  0  0  0  0  0  0  0  0  0  0
  -21.4801  -28.8921   21.5945 C   0  0  2  0  0  0  0  0  0  0  0  0
  -25.5526  -15.1214   20.0617 C   0  0  1  0  0  0  0  0  0  0  0  0
  -23.0480  -12.7767   21.6739 C   0  0  2  0  0  0  0  0  0  0  0  0
  -20.3247  -22.0935   20.5162 C   0  0  1  0  0  0  0  0  0  1  0  0
  -21.1783  -29.6972   20.2783 C   0  0  2  0  0  0  0  0  0  0  0  0
  -26.5409  -14.6057   18.9779 C   0  0  0  0  0  0  0  0  0  0  0  0
  -28.4427  -26.9532   19.7256 N   0  0  0  0  0  0  0  0  0  0  0  0
  -20.8671  -26.5336   21.3436 N   0  0  0  0  0  0  0  0  0  0  0  0
  -27.4621  -27.8711   19.6810 N   0  0  0  0  0  0  0  0  0  0  0  0
  -25.7550  -17.3095   21.1997 N   0  0  0  0  0  0  0  0  0  0  0  0
  -24.9411  -27.9126   22.5536 N   0  0  0  0  0  0  0  0  0  0  0  0
  -26.2206  -29.2384   18.1978 N   0  0  0  0  0  0  0  0  0  0  0  0
  -18.8680  -28.9112   23.2482 N   0  0  0  0  0  0  0  0  0  0  0  0
  -29.0380  -27.0164   15.4553 N   0  0  0  0  0  0  0  0  0  0  0  0
  -19.8601  -24.2990   21.3757 N   0  0  0  0  0  0  0  0  0  0  0  0
  -28.2469  -19.9117   21.7610 N   0  0  0  0  0  0  0  0  0  0  0  0
  -24.8773  -14.0640   20.8063 N   0  0  0  0  0  0  0  0  0  0  0  0
  -22.8493  -28.4278   21.5775 N   0  0  0  0  0  0  0  0  0  0  0  0
  -21.7602  -13.0892   22.3559 N   0  3  0  0  0  0  0  0  0  0  0  0
  -27.3650  -28.5827   15.5337 O   0  0  0  0  0  0  0  0  0  0  0  0
  -27.3909  -18.7900   19.9085 O   0  0  0  0  0  0  0  0  0  0  0  0
  -27.1429  -15.5263   21.7744 O   0  0  0  0  0  0  0  0  0  0  0  0
  -22.7173  -14.7127   20.2668 O   0  0  0  0  0  0  0  0  0  0  0  0
  -21.7823  -23.9534   20.0725 O   0  0  0  0  0  0  0  0  0  0  0  0
  -23.1845  -28.7350   23.8248 O   0  0  0  0  0  0  0  0  0  0  0  0
  -32.8459  -23.2522   16.9937 O   0  0  0  0  0  0  0  0  0  0  0  0
  -21.3169  -21.3589   19.8004 O   0  0  0  0  0  0  0  0  0  1  0  0
  -37.4679  -23.2601   20.0005 F   0  0  0  0  0  0  0  0  0  0  0  0
  -32.7789  -22.6872   19.6990 F   0  0  0  0  0  0  0  0  0  0  0  0
  -18.6604  -26.2877   22.6674 S   0  0  0  0  0  0  0  0  0  0  0  0
  1  2  1  0  0  0  0
  1  5  2  0  0  0  0
  2  6  2  0  0  0  0
  3  8  2  0  0  0  0
  3 15  1  0  0  0  0
  4  9  1  0  0  0  0
  4 15  2  0  0  0  0
  5 17  1  0  0  0  0
  6 19  1  0  0  0  0
  7 10  2  0  0  0  0
  7 18  1  0  0  0  0
  8 21  1  0  0  0  0
  9 21  2  0  0  0  0
 10 22  1  0  0  0  0
 11 12  2  0  0  0  0
 11 23  1  0  0  0  0
 12 24  1  0  0  0  0
 13 20  1  0  0  0  0
 13 22  2  0  0  0  0
 14 24  2  0  0  0  0
 14 25  1  0  0  0  0
 15 26  1  0  0  0  0
 16 26  1  0  0  0  0
 16 28  2  0  0  0  0
 16 31  1  0  0  0  0
 17 19  2  0  0  0  0
 17 37  1  0  0  0  0
 18 20  2  0  0  0  0
 18 38  1  0  0  0  0
 19 46  1  0  0  0  0
 20 39  1  0  0  0  0
 21 83  1  0  0  0  0
 22 84  1  0  0  0  0
 23 25  2  0  0  0  0
 23 83  1  0  0  0  0
 24 85  1  0  0  0  0
 25 86  1  0  0  0  0
 26 64  2  0  0  0  0
 27 29  2  0  0  0  0
 27 58  1  0  0  0  0
 27 65  1  0  0  0  0
 28 66  1  0  0  0  0
 28 69  1  0  0  0  0
 29 70  1  0  0  0  0
 29 87  1  0  0  0  0
 30 65  2  0  0  0  0
 30 72  1  0  0  0  0
 30 87  1  0  0  0  0
 31 71  1  0  0  0  0
 31 77  2  0  0  0  0
 32 47  1  0  0  0  0
 32 73  1  0  0  0  0
 32 78  2  0  0  0  0
 33 59  1  0  0  0  0
 33 67  1  0  0  0  0
 33 79  2  0  0  0  0
 34 60  1  0  0  0  0
 34 74  1  0  0  0  0
 34 80  2  0  0  0  0
 35 61  1  0  0  0  0
 35 72  1  0  0  0  0
 35 81  2  0  0  0  0
 36 68  1  0  0  0  0
 36 75  1  0  0  0  0
 36 82  2  0  0  0  0
 37 40  1  0  0  0  0
 38 47  1  0  0  0  0
 39 67  1  0  0  0  0
 40 42  1  0  0  0  0
 41 43  1  0  0  0  0
 41 44  1  0  0  0  0
 42 46  1  0  0  0  0
 43 48  1  0  0  0  0
 44 68  1  0  0  0  0
 45 48  1  0  0  0  0
 45 68  1  0  0  0  0
 46 73  1  0  0  0  0
 47 67  1  0  0  0  0
 48 66  1  0  0  0  0
 49 57  1  0  0  0  0
 50 60  1  0  0  0  0
 51 61  1  0  0  0  0
 52 62  1  0  0  0  0
 53 63  1  0  0  0  0
 54 63  1  0  0  0  0
 55 63  1  0  0  0  0
 56 76  1  0  0  0  0
 57 62  1  0  0  0  0
 58 62  1  0  0  0  0
 58 75  1  0  0  0  0
 59 63  1  0  0  0  0
 59 74  1  0  0  0  0
 60 76  1  0  0  0  0
 61 84  1  0  0  0  0
 64 66  1  0  0  0  0
M  CHG  1  76   1
M  ISO  4  36 100  61 101  75 100  84 101
M  END
> <Batch ID>
0185

> <Smiles>
CCC(C)C([100NH:0][100C:0](=O)N1CCCC(n2nc(-c3ccc(Oc4ccc(F)cc4F)cc3)c(C(N)=O)c2N)C1)c1nc(NC(=O)[101CH:1](C)[101O:1]c2ccc3c(c2)CN(C(=O)C(NC(=O)C(C)NC)C(C)(C)C)C(C(=O)NC2CCCc4ccccc42)C3)sc1N

> <Shape>
0.192

> <Color>
0.063

> <Negative vol penalty>
0.000

$$$$

  -OEChem-04052305053D

 85 93  0     1  0  0  0  0  0999 V2000
  -16.9974  -29.9229   21.4464 C   0  0  0  0  0  0  0  0  0  0  0  0
  -17.7791  -29.3420   20.4530 C   0  0  0  0  0  0  0  0  0  0  0  0
  -26.6080  -12.5508   21.7110 C   0  0  0  0  0  0  0  0  0  0  0  0
  -25.8090  -13.9290   19.8946 C   0  0  0  0  0  0  0  0  0  0  0  0
  -17.6055  -30.5700   22.5213 C   0  0  0  0  0  0  0  0  0  0  0  0
  -19.1697  -29.4088   20.5334 C   0  0  0  0  0  0  0  0  0  0  0  0
  -23.1718  -25.1484   18.7064 C   0  0  0  0  0  0  0  0  0  0  0  0
  -25.3527  -11.9502   21.8075 C   0  0  0  0  0  0  0  0  0  0  0  0
  -24.5538  -13.3284   19.9911 C   0  0  0  0  0  0  0  0  0  0  0  0
  -23.9342  -25.0135   17.5470 C   0  0  0  0  0  0  0  0  0  0  0  0
  -22.4625   -9.7994   22.2930 C   0  0  0  0  0  0  0  0  0  0  0  0
  -22.4160   -8.4115   22.4234 C   0  0  0  0  0  0  0  0  0  0  0  0
  -25.8100  -26.0341   18.6690 C   0  0  0  0  0  0  0  0  0  0  0  0
  -23.5536   -8.1744   20.3052 C   0  0  0  0  0  0  0  0  0  0  0  0
  -26.8361  -13.5402   20.7546 C   0  0  0  0  0  0  0  0  0  0  0  0
  -29.2166  -13.7431   19.8603 C   0  0  0  0  0  0  0  0  0  0  0  0
  -19.0043  -30.6363   22.6199 C   0  0  0  0  0  0  0  0  0  0  0  0
  -23.7203  -25.7381   19.8544 C   0  0  0  0  0  0  0  0  0  0  0  0
  -19.7971  -30.0585   21.6100 C   0  0  0  0  0  0  0  0  0  0  0  0
  -25.0532  -26.1729   19.8425 C   0  0  0  0  0  0  0  0  0  0  0  0
  -24.3256  -12.3390   20.9475 C   0  0  0  0  0  0  0  0  0  0  0  0
  -25.2526  -25.4590   17.5273 C   0  0  0  0  0  0  0  0  0  0  0  0
  -23.0546  -10.3749   21.1688 C   0  0  0  0  0  0  0  0  0  0  0  0
  -22.9615   -7.5989   21.4295 C   0  0  0  0  0  0  0  0  0  0  0  0
  -23.6002   -9.5624   20.1749 C   0  0  0  0  0  0  0  0  0  0  0  0
  -28.6432  -21.6110   18.8116 C   0  0  0  0  0  0  0  0  0  0  0  0
  -28.1324  -14.1614   20.6549 C   0  0  0  0  0  0  0  0  0  0  0  0
  -29.3614  -21.6752   19.9882 C   0  0  0  0  0  0  0  0  0  0  0  0
  -28.5795  -22.7832   18.0863 C   0  0  0  0  0  0  0  0  0  0  0  0
  -30.2060  -14.6597   20.1195 C   0  0  0  0  0  0  0  0  0  0  0  0
  -29.8391  -23.8695   19.6356 C   0  0  0  0  0  0  0  0  0  0  0  0
  -29.3201  -12.6258   18.9677 C   0  0  0  0  0  0  0  0  0  0  0  0
  -23.0584  -28.3218   21.5836 C   0  0  0  0  0  0  0  0  0  0  0  0
  -25.3605  -27.1292   23.5330 C   0  0  0  0  0  0  0  0  0  0  0  0
  -28.1263  -25.1608   23.8836 C   0  0  0  0  0  0  0  0  0  0  0  0
  -30.1251  -20.3371   21.9813 C   0  0  0  0  0  0  0  0  0  0  0  0
  -19.6157  -31.3875   23.7760 C   0  0  0  0  0  0  0  0  0  0  0  0
  -22.8930  -25.8520   21.1054 C   0  0  0  0  0  0  0  0  0  0  0  0
  -25.6954  -26.7945   21.0549 C   0  0  0  0  0  0  0  0  0  0  0  0
  -21.0987  -31.0888   23.9804 C   0  0  0  0  0  0  0  0  0  0  0  0
  -31.7771  -17.6035   23.5547 C   0  0  0  0  0  0  0  0  0  0  0  0
  -21.8428  -31.1444   22.6500 C   0  0  0  0  0  0  0  0  0  0  0  0
  -31.1329  -16.3726   22.9129 C   0  0  0  0  0  0  0  0  0  0  0  0
  -30.7654  -18.7289   23.7642 C   0  0  0  0  0  0  0  0  0  0  0  0
  -29.3624  -17.8814   21.9251 C   0  0  0  0  0  0  0  0  0  0  0  0
  -21.3087  -30.0885   21.6747 C   0  0  1  0  0  0  0  0  0  0  0  0
  -23.3932  -26.9352   22.0560 C   0  0  1  0  0  0  0  0  0  0  0  0
  -30.3562  -16.7448   21.6347 C   0  0  2  0  0  0  0  0  0  0  0  0
  -29.8094  -24.4141   25.5885 C   0  0  0  0  0  0  0  0  0  0  0  0
  -27.3020  -24.6880   13.6462 C   0  0  0  0  0  0  0  0  0  0  0  0
  -29.4232  -23.0429   15.0548 C   0  0  0  0  0  0  0  0  0  0  0  0
  -26.7436  -29.8429   23.3525 C   0  0  0  0  0  0  0  0  0  0  0  0
  -28.8193  -28.7665   24.2475 C   0  0  0  0  0  0  0  0  0  0  0  0
  -26.7467  -28.8202   25.6347 C   0  0  0  0  0  0  0  0  0  0  0  0
  -27.3549  -22.3207   23.5714 C   0  0  0  0  0  0  0  0  0  0  0  0
  -25.6960  -24.2277   15.5415 C   0  0  0  0  0  0  0  0  0  1  0  0
  -26.8593  -27.2790   23.6337 C   0  0  1  0  0  0  0  0  0  0  0  0
  -28.4850  -24.1012   24.9097 C   0  0  2  0  0  0  0  0  0  0  0  0
  -26.9716  -23.7586   14.8246 C   0  0  2  0  0  0  0  0  0  0  0  0
  -28.1922  -23.6047   15.7623 C   0  0  1  0  0  0  0  0  0  0  0  0
  -27.2798  -28.6672   24.1935 C   0  0  0  0  0  0  0  0  0  0  0  0
  -28.4070  -15.2583   21.3657 N   0  0  0  0  0  0  0  0  0  0  0  0
  -29.9745  -22.7921   20.4321 N   0  0  0  0  0  0  0  0  0  0  0  0
  -29.1676  -23.9352   18.4701 N   0  0  0  0  0  0  0  0  0  0  0  0
  -29.6751  -15.5370   21.0188 N   0  0  0  0  0  0  0  0  0  0  0  0
  -24.8436  -26.8895   22.2519 N   0  0  0  0  0  0  0  0  0  0  0  0
  -30.0713  -19.0302   22.5103 N   0  0  0  0  0  0  0  0  0  0  0  0
  -31.4697  -14.7928   19.6638 N   0  0  0  0  0  0  0  0  0  0  0  0
  -30.4697  -25.0563   20.0682 N   0  0  0  0  0  0  0  0  0  0  0  0
  -28.2091  -11.7844   18.8189 N   0  0  0  0  0  0  0  0  0  0  0  0
  -29.4554  -20.4963   20.7686 N   0  0  0  0  0  0  0  0  0  0  0  0
  -27.8736  -22.7620   16.8975 N   0  0  0  0  0  0  0  0  0  0  0  0
  -21.8273  -28.7803   22.0123 N   0  0  0  0  0  0  0  0  0  0  0  0
  -27.3303  -26.1478   24.4254 N   0  0  0  0  0  0  0  0  0  0  0  0
  -28.5948  -22.7654   24.2583 N   0  3  0  0  0  0  0  0  0  0  0  0
  -30.3721  -12.3715   18.3337 O   0  0  0  0  0  0  0  0  0  0  0  0
  -23.8583  -28.9311   20.8832 O   0  0  0  0  0  0  0  0  0  0  0  0
  -24.6743  -27.2142   24.5545 O   0  0  0  0  0  0  0  0  0  0  0  0
  -28.5164  -25.1192   22.7188 O   0  0  0  0  0  0  0  0  0  0  0  0
  -30.7443  -21.2414   22.5477 O   0  0  0  0  0  0  0  0  0  0  0  0
  -23.1007  -11.7530   21.0412 O   0  0  0  0  0  0  0  0  0  0  0  0
  -25.9989  -25.3291   16.3967 O   0  0  0  0  0  0  0  0  0  1  0  0
  -22.9181   -6.2661   21.5555 F   0  0  0  0  0  0  0  0  0  0  0  0
  -24.1713  -10.1095   19.0931 F   0  0  0  0  0  0  0  0  0  0  0  0
  -28.0475  -20.4852   18.3999 F   0  0  0  0  0  0  0  0  0  0  0  0
  1  2  1  0  0  0  0
  1  5  2  0  0  0  0
  2  6  2  0  0  0  0
  3  8  2  0  0  0  0
  3 15  1  0  0  0  0
  4  9  1  0  0  0  0
  4 15  2  0  0  0  0
  5 17  1  0  0  0  0
  6 19  1  0  0  0  0
  7 10  2  0  0  0  0
  7 18  1  0  0  0  0
  8 21  1  0  0  0  0
  9 21  2  0  0  0  0
 10 22  1  0  0  0  0
 11 12  2  0  0  0  0
 11 23  1  0  0  0  0
 12 24  1  0  0  0  0
 13 20  1  0  0  0  0
 13 22  2  0  0  0  0
 14 24  2  0  0  0  0
 14 25  1  0  0  0  0
 15 27  1  0  0  0  0
 16 27  1  0  0  0  0
 16 30  2  0  0  0  0
 16 32  1  0  0  0  0
 17 19  2  0  0  0  0
 17 37  1  0  0  0  0
 18 20  2  0  0  0  0
 18 38  1  0  0  0  0
 19 46  1  0  0  0  0
 20 39  1  0  0  0  0
 21 81  1  0  0  0  0
 22 82  1  0  0  0  0
 23 25  2  0  0  0  0
 23 81  1  0  0  0  0
 24 83  1  0  0  0  0
 25 84  1  0  0  0  0
 26 28  1  0  0  0  0
 26 29  2  0  0  0  0
 26 85  1  0  0  0  0
 27 62  2  0  0  0  0
 28 63  2  0  0  0  0
 28 71  1  0  0  0  0
 29 64  1  0  0  0  0
 29 72  1  0  0  0  0
 30 65  1  0  0  0  0
 30 68  1  0  0  0  0
 31 63  1  0  0  0  0
 31 64  2  0  0  0  0
 31 69  1  0  0  0  0
 32 70  1  0  0  0  0
 32 76  2  0  0  0  0
 33 47  1  0  0  0  0
 33 73  1  0  0  0  0
 33 77  2  0  0  0  0
 34 57  1  0  0  0  0
 34 66  1  0  0  0  0
 34 78  2  0  0  0  0
 35 58  1  0  0  0  0
 35 74  1  0  0  0  0
 35 79  2  0  0  0  0
 36 67  1  0  0  0  0
 36 71  1  0  0  0  0
 36 80  2  0  0  0  0
 37 40  1  0  0  0  0
 38 47  1  0  0  0  0
 39 66  1  0  0  0  0
 40 42  1  0  0  0  0
 41 43  1  0  0  0  0
 41 44  1  0  0  0  0
 42 46  1  0  0  0  0
 43 48  1  0  0  0  0
 44 67  1  0  0  0  0
 45 48  1  0  0  0  0
 45 67  1  0  0  0  0
 46 73  1  0  0  0  0
 47 66  1  0  0  0  0
 48 65  1  0  0  0  0
 49 58  1  0  0  0  0
 50 59  1  0  0  0  0
 51 60  1  0  0  0  0
 52 61  1  0  0  0  0
 53 61  1  0  0  0  0
 54 61  1  0  0  0  0
 55 75  1  0  0  0  0
 56 59  1  0  0  0  0
 56 82  1  0  0  0  0
 57 61  1  0  0  0  0
 57 74  1  0  0  0  0
 58 75  1  0  0  0  0
 59 60  1  0  0  0  0
 60 72  1  0  0  0  0
 62 65  1  0  0  0  0
M  CHG  1  75   1
M  ISO  4  36 100  56 101  71 100  82 101
M  END
> <Batch ID>
0185

> <Smiles>
CNC(C)C(=O)NC(C(=O)N1Cc2cc([101O:1][101CH2:1]C(C)C(C)Nc3nc(N)nc([100NH:0][100C:0](=O)N4CCCC(n5nc(-c6ccc(Oc7ccc(F)cc7F)cc6)c(C(N)=O)c5N)C4)c3F)ccc2CC1C(=O)NC1CCCc2ccccc21)C(C)(C)C

> <Shape>
0.246

> <Color>
0.071

> <Negative vol penalty>
0.000

$$$$

  -OEChem-04052305053D

 87 95  0     1  0  0  0  0  0999 V2000
  -19.3120  -29.3041   26.0453 C   0  0  0  0  0  0  0  0  0  0  0  0
  -19.6865  -27.9748   26.2134 C   0  0  0  0  0  0  0  0  0  0  0  0
  -23.3057  -10.0346   21.5110 C   0  0  0  0  0  0  0  0  0  0  0  0
  -24.8838   -8.2938   22.0735 C   0  0  0  0  0  0  0  0  0  0  0  0
  -19.1135  -29.8144   24.7631 C   0  0  0  0  0  0  0  0  0  0  0  0
  -19.8616  -27.1548   25.0993 C   0  0  0  0  0  0  0  0  0  0  0  0
  -24.0660  -24.3476   25.3950 C   0  0  0  0  0  0  0  0  0  0  0  0
  -22.2988   -9.0787   21.3773 C   0  0  0  0  0  0  0  0  0  0  0  0
  -23.8768   -7.3378   21.9399 C   0  0  0  0  0  0  0  0  0  0  0  0
  -24.0212  -23.2177   26.2105 C   0  0  0  0  0  0  0  0  0  0  0  0
  -21.2763   -6.1895   23.7673 C   0  0  0  0  0  0  0  0  0  0  0  0
  -21.1800   -5.2094   24.7551 C   0  0  0  0  0  0  0  0  0  0  0  0
  -23.6780  -21.8341   24.2645 C   0  0  0  0  0  0  0  0  0  0  0  0
  -28.3674  -19.5179   23.7635 C   0  0  0  0  0  0  0  0  0  0  0  0
  -21.5429   -3.4962   23.0906 C   0  0  0  0  0  0  0  0  0  0  0  0
  -24.5982   -9.6422   21.8590 C   0  0  0  0  0  0  0  0  0  0  0  0
  -25.9966  -11.3302   23.1639 C   0  0  0  0  0  0  0  0  0  0  0  0
  -19.2957  -29.0028   23.6323 C   0  0  0  0  0  0  0  0  0  0  0  0
  -23.9060  -24.2302   24.0068 C   0  0  0  0  0  0  0  0  0  0  0  0
  -19.6641  -27.6544   23.8008 C   0  0  0  0  0  0  0  0  0  0  0  0
  -23.7238  -22.9637   23.4333 C   0  0  0  0  0  0  0  0  0  0  0  0
  -29.3265  -19.1353   22.7817 C   0  0  0  0  0  0  0  0  0  0  0  0
  -22.5843   -7.7303   21.5918 C   0  0  0  0  0  0  0  0  0  0  0  0
  -23.8243  -21.9611   25.6457 C   0  0  0  0  0  0  0  0  0  0  0  0
  -21.5058   -5.8230   22.4411 C   0  0  0  0  0  0  0  0  0  0  0  0
  -21.3134   -3.8628   24.4167 C   0  0  0  0  0  0  0  0  0  0  0  0
  -21.6392   -4.4764   22.1028 C   0  0  0  0  0  0  0  0  0  0  0  0
  -25.6389  -10.6291   21.9967 C   0  0  0  0  0  0  0  0  0  0  0  0
  -28.7948  -18.2747   21.8468 C   0  0  0  0  0  0  0  0  0  0  0  0
  -27.0330  -12.1422   22.7727 C   0  0  0  0  0  0  0  0  0  0  0  0
  -27.1390  -18.9351   23.5414 C   0  0  0  0  0  0  0  0  0  0  0  0
  -25.4417  -11.2543   24.4837 C   0  0  0  0  0  0  0  0  0  0  0  0
  -29.4473  -17.6453   20.6699 C   0  0  0  0  0  0  0  0  0  0  0  0
  -21.7963  -25.3170   21.8921 C   0  0  0  0  0  0  0  0  0  0  0  0
  -23.8454  -23.9957   19.7525 C   0  0  0  0  0  0  0  0  0  0  0  0
  -26.2890  -21.6994   19.1183 C   0  0  0  0  0  0  0  0  0  0  0  0
  -25.6716  -19.7886   25.4007 C   0  0  0  0  0  0  0  0  0  0  0  0
  -29.3883  -15.6581   19.1964 C   0  0  0  0  0  0  0  0  0  0  0  0
  -19.0236  -29.5864   22.2685 C   0  0  0  0  0  0  0  0  0  0  0  0
  -23.9836  -25.4557   23.1381 C   0  0  0  0  0  0  0  0  0  0  0  0
  -23.5669  -22.7815   21.9465 C   0  0  0  0  0  0  0  0  0  0  0  0
  -19.5942  -28.7525   21.1242 C   0  0  0  0  0  0  0  0  0  0  0  0
  -29.7297  -12.2120   18.4858 C   0  0  0  0  0  0  0  0  0  0  0  0
  -19.2632  -27.2767   21.3224 C   0  0  0  0  0  0  0  0  0  0  0  0
  -28.7312  -11.5466   19.4369 C   0  0  0  0  0  0  0  0  0  0  0  0
  -29.1945  -13.5329   17.9347 C   0  0  0  0  0  0  0  0  0  0  0  0
  -27.7328  -13.8222   19.8938 C   0  0  0  0  0  0  0  0  0  0  0  0
  -19.8880  -26.7401   22.6159 C   0  0  1  0  0  0  0  0  0  0  0  0
  -23.2948  -25.2762   21.7888 C   0  0  1  0  0  0  0  0  0  0  0  0
  -28.2540  -12.5235   20.5302 C   0  0  1  0  0  0  0  0  0  0  0  0
  -27.7422  -20.8295   17.2666 C   0  0  0  0  0  0  0  0  0  0  0  0
  -24.0913  -18.5158   26.8982 C   0  0  0  0  0  0  0  0  0  0  0  0
  -21.4659  -22.4680   18.6061 C   0  0  0  0  0  0  0  0  0  0  0  0
  -23.0866  -20.9542   17.4442 C   0  0  0  0  0  0  0  0  0  0  0  0
  -23.0392  -23.3866   16.8928 C   0  0  0  0  0  0  0  0  0  0  0  0
  -28.7653  -22.4853   20.5357 C   0  0  0  0  0  0  0  0  0  0  0  0
  -23.9922  -22.6369   19.1114 C   0  0  1  0  0  0  0  0  0  0  0  0
  -27.6278  -21.8218   18.4134 C   0  0  2  0  0  0  0  0  0  0  0  0
  -24.2275  -19.6279   25.8687 C   0  0  1  0  0  0  0  0  0  1  0  0
  -30.7295  -19.6161   22.7793 C   0  0  0  0  0  0  0  0  0  0  0  0
  -22.8970  -22.3648   18.0419 C   0  0  0  0  0  0  0  0  0  0  0  0
  -26.3872  -10.9663   20.9429 N   0  0  0  0  0  0  0  0  0  0  0  0
  -27.2254  -11.8882   21.4465 N   0  0  0  0  0  0  0  0  0  0  0  0
  -23.6438  -24.0108   21.1399 N   0  0  0  0  0  0  0  0  0  0  0  0
  -28.7730  -14.4047   19.0327 N   0  0  0  0  0  0  0  0  0  0  0  0
  -27.7894  -13.0415   23.4371 N   0  0  0  0  0  0  0  0  0  0  0  0
  -24.3807  -10.3674   24.7124 N   0  0  0  0  0  0  0  0  0  0  0  0
  -25.9227  -19.0365   24.2578 N   0  0  0  0  0  0  0  0  0  0  0  0
  -28.9458  -16.3973   20.2991 N   0  0  0  0  0  0  0  0  0  0  0  0
  -21.3011  -26.4901   22.4288 N   0  0  0  0  0  0  0  0  0  0  0  0
  -25.3567  -22.5725   18.5991 N   0  0  0  0  0  0  0  0  0  0  0  0
  -28.7420  -21.5655   19.3694 N   0  3  0  0  0  0  0  0  0  0  0  0
  -25.8630  -11.9640   25.4283 O   0  0  0  0  0  0  0  0  0  0  0  0
  -30.3364  -18.2550   20.0819 O   0  0  0  0  0  0  0  0  0  0  0  0
  -21.1381  -24.3559   21.5117 O   0  0  0  0  0  0  0  0  0  0  0  0
  -23.9144  -25.0068   19.0492 O   0  0  0  0  0  0  0  0  0  0  0  0
  -26.0891  -20.9058   20.0353 O   0  0  0  0  0  0  0  0  0  0  0  0
  -26.4561  -20.5207   25.9971 O   0  0  0  0  0  0  0  0  0  0  0  0
  -30.2814  -16.0677   18.4482 O   0  0  0  0  0  0  0  0  0  0  0  0
  -21.6019   -6.7972   21.4617 O   0  0  0  0  0  0  0  0  0  0  0  0
  -23.7794  -20.8567   26.4395 O   0  0  0  0  0  0  0  0  0  1  0  0
  -21.2224   -2.9218   25.3657 F   0  0  0  0  0  0  0  0  0  0  0  0
  -21.8609   -4.1182   20.8306 F   0  0  0  0  0  0  0  0  0  0  0  0
  -31.0274  -20.4666   23.8104 F   0  0  0  0  0  0  0  0  0  0  0  0
  -31.6593  -18.6154   22.8736 F   0  0  0  0  0  0  0  0  0  0  0  0
  -31.0560  -20.3031   21.6422 F   0  0  0  0  0  0  0  0  0  0  0  0
  -27.1456  -17.9312   22.1541 S   0  0  0  0  0  0  0  0  0  0  0  0
  1  2  1  0  0  0  0
  1  5  2  0  0  0  0
  2  6  2  0  0  0  0
  3  8  2  0  0  0  0
  3 16  1  0  0  0  0
  4  9  1  0  0  0  0
  4 16  2  0  0  0  0
  5 18  1  0  0  0  0
  6 20  1  0  0  0  0
  7 10  2  0  0  0  0
  7 19  1  0  0  0  0
  8 23  1  0  0  0  0
  9 23  2  0  0  0  0
 10 24  1  0  0  0  0
 11 12  2  0  0  0  0
 11 25  1  0  0  0  0
 12 26  1  0  0  0  0
 13 21  1  0  0  0  0
 13 24  2  0  0  0  0
 14 22  1  0  0  0  0
 14 31  2  0  0  0  0
 15 26  2  0  0  0  0
 15 27  1  0  0  0  0
 16 28  1  0  0  0  0
 17 28  1  0  0  0  0
 17 30  2  0  0  0  0
 17 32  1  0  0  0  0
 18 20  2  0  0  0  0
 18 39  1  0  0  0  0
 19 21  2  0  0  0  0
 19 40  1  0  0  0  0
 20 48  1  0  0  0  0
 21 41  1  0  0  0  0
 22 29  2  0  0  0  0
 22 60  1  0  0  0  0
 23 80  1  0  0  0  0
 24 81  1  0  0  0  0
 25 27  2  0  0  0  0
 25 80  1  0  0  0  0
 26 82  1  0  0  0  0
 27 83  1  0  0  0  0
 28 62  2  0  0  0  0
 29 33  1  0  0  0  0
 29 87  1  0  0  0  0
 30 63  1  0  0  0  0
 30 66  1  0  0  0  0
 31 68  1  0  0  0  0
 31 87  1  0  0  0  0
 32 67  1  0  0  0  0
 32 73  2  0  0  0  0
 33 69  1  0  0  0  0
 33 74  2  0  0  0  0
 34 49  1  0  0  0  0
 34 70  1  0  0  0  0
 34 75  2  0  0  0  0
 35 57  1  0  0  0  0
 35 64  1  0  0  0  0
 35 76  2  0  0  0  0
 36 58  1  0  0  0  0
 36 71  1  0  0  0  0
 36 77  2  0  0  0  0
 37 59  1  0  0  0  0
 37 68  1  0  0  0  0
 37 78  2  0  0  0  0
 38 65  1  0  0  0  0
 38 69  1  0  0  0  0
 38 79  2  0  0  0  0
 39 42  1  0  0  0  0
 40 49  1  0  0  0  0
 41 64  1  0  0  0  0
 42 44  1  0  0  0  0
 43 45  1  0  0  0  0
 43 46  1  0  0  0  0
 44 48  1  0  0  0  0
 45 50  1  0  0  0  0
 46 65  1  0  0  0  0
 47 50  1  0  0  0  0
 47 65  1  0  0  0  0
 48 70  1  0  0  0  0
 49 64  1  0  0  0  0
 50 63  1  0  0  0  0
 51 58  1  0  0  0  0
 52 59  1  0  0  0  0
 53 61  1  0  0  0  0
 54 61  1  0  0  0  0
 55 61  1  0  0  0  0
 56 72  1  0  0  0  0
 57 61  1  0  0  0  0
 57 71  1  0  0  0  0
 58 72  1  0  0  0  0
 59 81  1  0  0  0  0
 60 84  1  0  0  0  0
 60 85  1  0  0  0  0
 60 86  1  0  0  0  0
 62 63  1  0  0  0  0
M  CHG  1  72   1
M  ISO  4  38 100  59 101  69 100  81 101
M  END
> <Batch ID>
0185

> <Smiles>
CNC(C)C(=O)NC(C(=O)N1Cc2cc([101O:1][101CH:1](C)C(=O)Nc3cc(C(F)(F)F)c(C(=O)[100NH:0][100C:0](=O)N4CCCC(n5nc(-c6ccc(Oc7ccc(F)cc7F)cc6)c(C(N)=O)c5N)C4)s3)ccc2CC1C(=O)NC1CCCc2ccccc21)C(C)(C)C

> <Shape>
0.200

> <Color>
0.094

> <Negative vol penalty>
0.000

$$$$

  -OEChem-04052305053D

 91100  0     1  0  0  0  0  0999 V2000
  -21.9239   -8.5628   24.9233 C   0  0  0  0  0  0  0  0  0  0  0  0
  -22.1528   -9.9287   25.0459 C   0  0  0  0  0  0  0  0  0  0  0  0
  -24.0000  -28.5339   22.7868 C   0  0  0  0  0  0  0  0  0  0  0  0
  -24.1864  -29.4841   20.5734 C   0  0  0  0  0  0  0  0  0  0  0  0
  -22.1267   -7.9334   23.6970 C   0  0  0  0  0  0  0  0  0  0  0  0
  -22.5731  -10.6676   23.9395 C   0  0  0  0  0  0  0  0  0  0  0  0
  -22.8115  -15.5524   24.4739 C   0  0  0  0  0  0  0  0  0  0  0  0
  -22.6550  -28.9010   22.8311 C   0  0  0  0  0  0  0  0  0  0  0  0
  -22.8414  -29.8512   20.6176 C   0  0  0  0  0  0  0  0  0  0  0  0
  -23.7929  -16.1797   25.2401 C   0  0  0  0  0  0  0  0  0  0  0  0
  -19.7192  -27.7575   21.6039 C   0  0  0  0  0  0  0  0  0  0  0  0
  -18.8050  -26.8145   22.0737 C   0  0  0  0  0  0  0  0  0  0  0  0
  -24.9544  -16.8130   23.2228 C   0  0  0  0  0  0  0  0  0  0  0  0
  -18.1641  -28.3210   23.8504 C   0  0  0  0  0  0  0  0  0  0  0  0
  -24.7657  -28.8255   21.6579 C   0  0  0  0  0  0  0  0  0  0  0  0
  -27.1781  -28.8595   22.4867 C   0  0  0  0  0  0  0  0  0  0  0  0
  -22.5617   -8.6634   22.5786 C   0  0  0  0  0  0  0  0  0  0  0  0
  -22.9001  -15.5412   23.0745 C   0  0  0  0  0  0  0  0  0  0  0  0
  -22.7604  -10.0549   22.6872 C   0  0  0  0  0  0  0  0  0  0  0  0
  -23.9715  -16.1870   22.4411 C   0  0  0  0  0  0  0  0  0  0  0  0
  -22.0757  -29.5596   21.7466 C   0  0  0  0  0  0  0  0  0  0  0  0
  -24.8661  -16.8077   24.6147 C   0  0  0  0  0  0  0  0  0  0  0  0
  -19.8558  -28.9822   22.2574 C   0  0  0  0  0  0  0  0  0  0  0  0
  -18.0274  -27.0962   23.1969 C   0  0  0  0  0  0  0  0  0  0  0  0
  -19.0783  -29.2640   23.3807 C   0  0  0  0  0  0  0  0  0  0  0  0
  -26.1552  -28.4472   21.6118 C   0  0  0  0  0  0  0  0  0  0  0  0
  -29.3184  -19.2440   20.7327 C   0  0  0  0  0  0  0  0  0  0  0  0
  -28.3045  -28.2267   22.0206 C   0  0  0  0  0  0  0  0  0  0  0  0
  -28.5081  -19.3704   21.8416 C   0  0  0  0  0  0  0  0  0  0  0  0
  -28.7361  -21.3431   20.4783 C   0  0  0  0  0  0  0  0  0  0  0  0
  -27.1156  -29.7361   23.6196 C   0  0  0  0  0  0  0  0  0  0  0  0
  -23.1643  -13.2746   20.8616 C   0  0  0  0  0  0  0  0  0  0  0  0
  -22.8115  -15.7708   18.8204 C   0  0  0  0  0  0  0  0  0  0  0  0
  -23.1015  -19.1263   18.2696 C   0  0  0  0  0  0  0  0  0  0  0  0
  -27.2935  -18.6991   23.9424 C   0  0  0  0  0  0  0  0  0  0  0  0
  -29.1669  -23.2276   18.8629 C   0  0  0  0  0  0  0  0  0  0  0  0
  -22.7578   -7.9331   21.2734 C   0  0  0  0  0  0  0  0  0  0  0  0
  -21.8192  -14.8831   22.2614 C   0  0  0  0  0  0  0  0  0  0  0  0
  -24.1021  -16.2209   20.9410 C   0  0  0  0  0  0  0  0  0  0  0  0
  -23.6231   -8.7064   20.2837 C   0  0  0  0  0  0  0  0  0  0  0  0
  -30.2378  -26.5091   17.9899 C   0  0  0  0  0  0  0  0  0  0  0  0
  -23.1232  -10.1384   20.1645 C   0  0  0  0  0  0  0  0  0  0  0  0
  -29.5245  -17.4211   18.9738 C   0  0  0  0  0  0  0  0  0  0  0  0
  -29.4099  -27.4157   18.9036 C   0  0  0  0  0  0  0  0  0  0  0  0
  -30.1524  -16.0722   18.6383 C   0  0  0  0  0  0  0  0  0  0  0  0
  -32.2380  -16.7291   19.9134 C   0  0  0  0  0  0  0  0  0  0  0  0
  -29.4365  -25.2981   17.5155 C   0  0  0  0  0  0  0  0  0  0  0  0
  -27.9795  -25.4189   19.4983 C   0  0  0  0  0  0  0  0  0  0  0  0
  -23.2473  -10.8734   21.5052 C   0  0  1  0  0  0  0  0  0  0  0  0
  -30.0669  -17.9856   20.3073 C   0  0  1  0  0  0  0  0  0  0  0  0
  -22.2803  -14.4896   20.8614 C   0  0  1  0  0  0  0  0  0  0  0  0
  -28.7645  -26.6184   20.0539 C   0  0  2  0  0  0  0  0  0  0  0  0
  -31.6331  -18.1047   20.3126 C   0  0  0  0  0  0  0  0  0  0  0  0
  -31.6666  -16.1474   18.6290 C   0  0  0  0  0  0  0  0  0  0  0  0
  -32.1598  -19.1977   19.3591 C   0  0  0  0  0  0  0  0  0  0  0  0
  -32.1506  -18.4384   21.7302 C   0  0  0  0  0  0  0  0  0  0  0  0
  -22.7737  -20.8663   16.4913 C   0  0  0  0  0  0  0  0  0  0  0  0
  -28.1569  -17.4463   25.9534 C   0  0  0  0  0  0  0  0  0  0  0  0
  -25.3803  -14.8536   17.4529 C   0  0  0  0  0  0  0  0  0  0  0  0
  -25.5112  -17.0969   16.3489 C   0  0  0  0  0  0  0  0  0  0  0  0
  -23.5736  -15.5942   15.8902 C   0  0  0  0  0  0  0  0  0  0  0  0
  -21.0812  -20.5638   19.8854 C   0  0  0  0  0  0  0  0  0  0  0  0
  -23.7515  -16.7358   18.1390 C   0  0  1  0  0  0  0  0  0  0  0  0
  -22.1412  -20.1345   17.6648 C   0  0  2  0  0  0  0  0  0  0  0  0
  -27.1449  -17.4571   24.8173 C   0  0  1  0  0  0  0  0  0  1  0  0
  -24.5530  -16.0680   16.9861 C   0  0  0  0  0  0  0  0  0  0  0  0
  -26.5931  -27.6168   20.6616 N   0  0  0  0  0  0  0  0  0  0  0  0
  -29.4499  -20.3741   19.9495 N   0  0  0  0  0  0  0  0  0  0  0  0
  -27.9035  -27.5023   20.9368 N   0  0  0  0  0  0  0  0  0  0  0  0
  -23.0232  -15.5580   20.1899 N   0  0  0  0  0  0  0  0  0  0  0  0
  -28.8586  -24.5894   18.6594 N   0  0  0  0  0  0  0  0  0  0  0  0
  -29.5889  -28.2249   22.4361 N   0  0  0  0  0  0  0  0  0  0  0  0
  -26.8487  -29.1822   24.8790 N   0  0  0  0  0  0  0  0  0  0  0  0
  -28.1353  -18.4619   22.8607 N   0  0  0  0  0  0  0  0  0  0  0  0
  -28.5858  -22.6687   20.0007 N   0  0  0  0  0  0  0  0  0  0  0  0
  -22.5750  -12.1502   21.4075 N   0  0  0  0  0  0  0  0  0  0  0  0
  -22.9376  -17.8720   17.7209 N   0  0  0  0  0  0  0  0  0  0  0  0
  -21.7384  -21.1430   18.6855 N   0  3  0  0  0  0  0  0  0  0  0  0
  -27.2750  -30.9760   23.5154 O   0  0  0  0  0  0  0  0  0  0  0  0
  -24.2966  -13.3512   20.3994 O   0  0  0  0  0  0  0  0  0  0  0  0
  -21.9177  -15.2314   18.1633 O   0  0  0  0  0  0  0  0  0  0  0  0
  -23.9182  -19.4227   19.1390 O   0  0  0  0  0  0  0  0  0  0  0  0
  -26.7009  -19.7406   24.2098 O   0  0  0  0  0  0  0  0  0  0  0  0
  -29.9147  -22.6105   18.1001 O   0  0  0  0  0  0  0  0  0  0  0  0
  -20.7633  -29.9177   21.7894 O   0  0  0  0  0  0  0  0  0  0  0  0
  -25.8257  -17.4202   25.3602 O   0  0  0  0  0  0  0  0  0  1  0  0
  -17.1485  -26.1912   23.6470 F   0  0  0  0  0  0  0  0  0  0  0  0
  -19.2043  -30.4393   24.0120 F   0  0  0  0  0  0  0  0  0  0  0  0
  -32.1721  -14.9003   18.4434 F   0  0  0  0  0  0  0  0  0  0  0  0
  -32.0771  -16.8819   17.5651 F   0  0  0  0  0  0  0  0  0  0  0  0
  -27.8817  -20.9651   21.9178 S   0  0  0  0  0  0  0  0  0  0  0  0
  1  2  1  0  0  0  0
  1  5  2  0  0  0  0
  2  6  2  0  0  0  0
  3  8  2  0  0  0  0
  3 15  1  0  0  0  0
  4  9  1  0  0  0  0
  4 15  2  0  0  0  0
  5 17  1  0  0  0  0
  6 19  1  0  0  0  0
  7 10  2  0  0  0  0
  7 18  1  0  0  0  0
  8 21  1  0  0  0  0
  9 21  2  0  0  0  0
 10 22  1  0  0  0  0
 11 12  2  0  0  0  0
 11 23  1  0  0  0  0
 12 24  1  0  0  0  0
 13 20  1  0  0  0  0
 13 22  2  0  0  0  0
 14 24  2  0  0  0  0
 14 25  1  0  0  0  0
 15 26  1  0  0  0  0
 16 26  1  0  0  0  0
 16 28  2  0  0  0  0
 16 31  1  0  0  0  0
 17 19  2  0  0  0  0
 17 37  1  0  0  0  0
 18 20  2  0  0  0  0
 18 38  1  0  0  0  0
 19 49  1  0  0  0  0
 20 39  1  0  0  0  0
 21 85  1  0  0  0  0
 22 86  1  0  0  0  0
 23 25  2  0  0  0  0
 23 85  1  0  0  0  0
 24 87  1  0  0  0  0
 25 88  1  0  0  0  0
 26 67  2  0  0  0  0
 27 29  2  0  0  0  0
 27 50  1  0  0  0  0
 27 68  1  0  0  0  0
 28 69  1  0  0  0  0
 28 72  1  0  0  0  0
 29 74  1  0  0  0  0
 29 91  1  0  0  0  0
 30 68  2  0  0  0  0
 30 75  1  0  0  0  0
 30 91  1  0  0  0  0
 31 73  1  0  0  0  0
 31 79  2  0  0  0  0
 32 51  1  0  0  0  0
 32 76  1  0  0  0  0
 32 80  2  0  0  0  0
 33 63  1  0  0  0  0
 33 70  1  0  0  0  0
 33 81  2  0  0  0  0
 34 64  1  0  0  0  0
 34 77  1  0  0  0  0
 34 82  2  0  0  0  0
 35 65  1  0  0  0  0
 35 74  1  0  0  0  0
 35 83  2  0  0  0  0
 36 71  1  0  0  0  0
 36 75  1  0  0  0  0
 36 84  2  0  0  0  0
 37 40  1  0  0  0  0
 38 51  1  0  0  0  0
 39 70  1  0  0  0  0
 40 42  1  0  0  0  0
 41 44  1  0  0  0  0
 41 47  1  0  0  0  0
 42 49  1  0  0  0  0
 43 45  1  0  0  0  0
 43 50  1  0  0  0  0
 44 52  1  0  0  0  0
 45 54  1  0  0  0  0
 46 53  1  0  0  0  0
 46 54  1  0  0  0  0
 47 71  1  0  0  0  0
 48 52  1  0  0  0  0
 48 71  1  0  0  0  0
 49 76  1  0  0  0  0
 50 53  1  0  0  0  0
 51 70  1  0  0  0  0
 52 69  1  0  0  0  0
 53 55  1  0  0  0  0
 53 56  1  0  0  0  0
 54 89  1  0  0  0  0
 54 90  1  0  0  0  0
 57 64  1  0  0  0  0
 58 65  1  0  0  0  0
 59 66  1  0  0  0  0
 60 66  1  0  0  0  0
 61 66  1  0  0  0  0
 62 78  1  0  0  0  0
 63 66  1  0  0  0  0
 63 77  1  0  0  0  0
 64 78  1  0  0  0  0
 65 86  1  0  0  0  0
 67 69  1  0  0  0  0
M  CHG  1  78   1
M  ISO  4  36 100  65 101  75 100  86 101
M  END
> <Batch ID>
0185

> <Smiles>
CNC(C)C(=O)NC(C(=O)N1Cc2cc([101O:1][101CH:1](C)C(=O)Nc3sc([100NH:0][100C:0](=O)N4CCCC(n5nc(-c6ccc(Oc7ccc(F)cc7F)cc6)c(C(N)=O)c5N)C4)nc3C3CCC(F)(F)CC3(C)C)ccc2CC1C(=O)NC1CCCc2ccccc21)C(C)(C)C

> <Shape>
0.259

> <Color>
0.059

> <Negative vol penalty>
0.000

$$$$

  -OEChem-04052305053D

 84 92  0     1  0  0  0  0  0999 V2000
  -22.1535  -20.6681   20.6613 C   0  0  0  0  0  0  0  0  0  0  0  0
  -23.1673  -21.5121   20.2193 C   0  0  0  0  0  0  0  0  0  0  0  0
  -25.9950  -12.9882   21.8032 C   0  0  0  0  0  0  0  0  0  0  0  0
  -25.8541  -13.6693   19.4895 C   0  0  0  0  0  0  0  0  0  0  0  0
  -20.8605  -21.1620   20.8293 C   0  0  0  0  0  0  0  0  0  0  0  0
  -22.8884  -22.8503   19.9440 C   0  0  0  0  0  0  0  0  0  0  0  0
  -26.3808  -25.9916   21.8362 C   0  0  0  0  0  0  0  0  0  0  0  0
  -24.8340  -12.2302   21.6507 C   0  0  0  0  0  0  0  0  0  0  0  0
  -24.6932  -12.9113   19.3370 C   0  0  0  0  0  0  0  0  0  0  0  0
  -27.5811  -26.1053   21.1361 C   0  0  0  0  0  0  0  0  0  0  0  0
  -23.9706   -9.2300   20.3523 C   0  0  0  0  0  0  0  0  0  0  0  0
  -23.9641   -7.9402   20.8833 C   0  0  0  0  0  0  0  0  0  0  0  0
  -26.8018  -28.1622   20.1458 C   0  0  0  0  0  0  0  0  0  0  0  0
  -22.1028   -8.5346   22.3043 C   0  0  0  0  0  0  0  0  0  0  0  0
  -28.8870  -23.3337   16.2257 C   0  0  0  0  0  0  0  0  0  0  0  0
  -28.4155  -21.1368   17.0835 C   0  0  0  0  0  0  0  0  0  0  0  0
  -26.5050  -13.7078   20.7226 C   0  0  0  0  0  0  0  0  0  0  0  0
  -29.0302  -14.0667   20.6736 C   0  0  0  0  0  0  0  0  0  0  0  0
  -20.5678  -22.5092   20.5652 C   0  0  0  0  0  0  0  0  0  0  0  0
  -25.3759  -26.9584   21.6877 C   0  0  0  0  0  0  0  0  0  0  0  0
  -21.5900  -23.3624   20.1074 C   0  0  0  0  0  0  0  0  0  0  0  0
  -25.5907  -28.0599   20.8471 C   0  0  0  0  0  0  0  0  0  0  0  0
  -24.1831  -12.1917   20.4177 C   0  0  0  0  0  0  0  0  0  0  0  0
  -27.7906  -27.1891   20.2886 C   0  0  0  0  0  0  0  0  0  0  0  0
  -23.0432  -10.1722   20.7973 C   0  0  0  0  0  0  0  0  0  0  0  0
  -23.0302   -7.5925   21.8593 C   0  0  0  0  0  0  0  0  0  0  0  0
  -22.1093   -9.8245   21.7732 C   0  0  0  0  0  0  0  0  0  0  0  0
  -28.5452  -22.0042   16.0046 C   0  0  0  0  0  0  0  0  0  0  0  0
  -27.7039  -14.4915   20.8796 C   0  0  0  0  0  0  0  0  0  0  0  0
  -29.0867  -23.7429   17.5343 C   0  0  0  0  0  0  0  0  0  0  0  0
  -28.6366  -21.6443   18.3537 C   0  0  0  0  0  0  0  0  0  0  0  0
  -29.7927  -15.1746   20.9524 C   0  0  0  0  0  0  0  0  0  0  0  0
  -29.5283  -12.7854   20.2666 C   0  0  0  0  0  0  0  0  0  0  0  0
  -22.3792  -26.9343   20.6282 C   0  0  0  0  0  0  0  0  0  0  0  0
  -22.4021  -30.0101   21.6583 C   0  0  0  0  0  0  0  0  0  0  0  0
  -24.2182  -32.7990   22.4140 C   0  0  0  0  0  0  0  0  0  0  0  0
  -29.6028  -26.0899   16.7914 C   0  0  0  0  0  0  0  0  0  0  0  0
  -28.6761  -21.0427   20.7997 C   0  0  0  0  0  0  0  0  0  0  0  0
  -19.1449  -22.9860   20.7162 C   0  0  0  0  0  0  0  0  0  0  0  0
  -24.0974  -26.8353   22.4704 C   0  0  0  0  0  0  0  0  0  0  0  0
  -24.5517  -29.1355   20.6684 C   0  0  0  0  0  0  0  0  0  0  0  0
  -19.0135  -24.5062   20.7614 C   0  0  0  0  0  0  0  0  0  0  0  0
  -29.7791  -19.1574   23.6115 C   0  0  0  0  0  0  0  0  0  0  0  0
  -19.8423  -25.1469   19.6527 C   0  0  0  0  0  0  0  0  0  0  0  0
  -29.4984  -17.7079   23.2088 C   0  0  0  0  0  0  0  0  0  0  0  0
  -28.6967  -20.1074   23.1018 C   0  0  0  0  0  0  0  0  0  0  0  0
  -28.1401  -18.5694   21.2595 C   0  0  0  0  0  0  0  0  0  0  0  0
  -21.3322  -24.8260   19.8221 C   0  0  1  0  0  0  0  0  0  0  0  0
  -22.9391  -27.6091   21.8483 C   0  0  1  0  0  0  0  0  0  0  0  0
  -29.2370  -17.5841   21.6949 C   0  0  2  0  0  0  0  0  0  0  0  0
  -23.9551  -35.1695   23.1943 C   0  0  0  0  0  0  0  0  0  0  0  0
  -21.4499  -30.8182   18.8744 C   0  0  0  0  0  0  0  0  0  0  0  0
  -22.1127  -33.1730   19.4073 C   0  0  0  0  0  0  0  0  0  0  0  0
  -20.3417  -32.0429   20.7523 C   0  0  0  0  0  0  0  0  0  0  0  0
  -25.8187  -32.2964   24.8523 C   0  0  0  0  0  0  0  0  0  0  0  0
  -28.9130  -27.9644   18.3405 C   0  0  0  0  0  0  0  0  0  1  0  0
  -22.7537  -31.3419   21.0405 C   0  0  1  0  0  0  0  0  0  0  0  0
  -24.1868  -33.7266   23.6152 C   0  0  2  0  0  0  0  0  0  0  0  0
  -29.9916  -27.4186   17.4165 C   0  0  2  0  0  0  0  0  0  0  0  0
  -21.6835  -31.8229   20.0203 C   0  0  0  0  0  0  0  0  0  0  0  0
  -27.6249  -15.7694   21.2600 N   0  0  0  0  0  0  0  0  0  0  0  0
  -28.9699  -22.9296   18.6079 N   0  0  0  0  0  0  0  0  0  0  0  0
  -28.9112  -16.1571   21.2954 N   0  0  0  0  0  0  0  0  0  0  0  0
  -23.3157  -28.9671   21.4504 N   0  0  0  0  0  0  0  0  0  0  0  0
  -28.5069  -19.9370   21.6597 N   0  0  0  0  0  0  0  0  0  0  0  0
  -31.1246  -15.3943   20.9353 N   0  0  0  0  0  0  0  0  0  0  0  0
  -28.6074  -11.7578   20.0209 N   0  0  0  0  0  0  0  0  0  0  0  0
  -29.4336  -25.0979   17.7489 N   0  0  0  0  0  0  0  0  0  0  0  0
  -28.5020  -20.7528   19.4468 N   0  0  0  0  0  0  0  0  0  0  0  0
  -21.9130  -25.6539   20.8574 N   0  0  0  0  0  0  0  0  0  0  0  0
  -22.9760  -32.2612   22.1513 N   0  0  0  0  0  0  0  0  0  0  0  0
  -25.4763  -33.6552   24.3588 N   0  3  0  0  0  0  0  0  0  0  0  0
  -30.7547  -12.5537   20.1408 O   0  0  0  0  0  0  0  0  0  0  0  0
  -22.3694  -27.5318   19.5583 O   0  0  0  0  0  0  0  0  0  0  0  0
  -21.3590  -29.9013   22.3077 O   0  0  0  0  0  0  0  0  0  0  0  0
  -25.2416  -32.5767   21.7707 O   0  0  0  0  0  0  0  0  0  0  0  0
  -29.4849  -25.9861   15.5739 O   0  0  0  0  0  0  0  0  0  0  0  0
  -28.9816  -22.1581   21.2292 O   0  0  0  0  0  0  0  0  0  0  0  0
  -23.0504  -11.4520   20.2685 O   0  0  0  0  0  0  0  0  0  0  0  0
  -28.9611  -27.3022   19.6036 O   0  0  0  0  0  0  0  0  0  1  0  0
  -23.0231   -6.3535   22.3681 F   0  0  0  0  0  0  0  0  0  0  0  0
  -21.2151  -10.7249   22.2038 F   0  0  0  0  0  0  0  0  0  0  0  0
  -28.3423  -21.5609   14.7571 F   0  0  0  0  0  0  0  0  0  0  0  0
  -30.2295  -28.3492   16.4477 F   0  0  0  0  0  0  0  0  0  0  0  0
  1  2  1  0  0  0  0
  1  5  2  0  0  0  0
  2  6  2  0  0  0  0
  3  8  2  0  0  0  0
  3 17  1  0  0  0  0
  4  9  1  0  0  0  0
  4 17  2  0  0  0  0
  5 19  1  0  0  0  0
  6 21  1  0  0  0  0
  7 10  2  0  0  0  0
  7 20  1  0  0  0  0
  8 23  1  0  0  0  0
  9 23  2  0  0  0  0
 10 24  1  0  0  0  0
 11 12  2  0  0  0  0
 11 25  1  0  0  0  0
 12 26  1  0  0  0  0
 13 22  1  0  0  0  0
 13 24  2  0  0  0  0
 14 26  2  0  0  0  0
 14 27  1  0  0  0  0
 15 28  2  0  0  0  0
 15 30  1  0  0  0  0
 16 28  1  0  0  0  0
 16 31  2  0  0  0  0
 17 29  1  0  0  0  0
 18 29  1  0  0  0  0
 18 32  2  0  0  0  0
 18 33  1  0  0  0  0
 19 21  2  0  0  0  0
 19 39  1  0  0  0  0
 20 22  2  0  0  0  0
 20 40  1  0  0  0  0
 21 48  1  0  0  0  0
 22 41  1  0  0  0  0
 23 79  1  0  0  0  0
 24 80  1  0  0  0  0
 25 27  2  0  0  0  0
 25 79  1  0  0  0  0
 26 81  1  0  0  0  0
 27 82  1  0  0  0  0
 28 83  1  0  0  0  0
 29 61  2  0  0  0  0
 30 62  2  0  0  0  0
 30 68  1  0  0  0  0
 31 62  1  0  0  0  0
 31 69  1  0  0  0  0
 32 63  1  0  0  0  0
 32 66  1  0  0  0  0
 33 67  1  0  0  0  0
 33 73  2  0  0  0  0
 34 49  1  0  0  0  0
 34 70  1  0  0  0  0
 34 74  2  0  0  0  0
 35 57  1  0  0  0  0
 35 64  1  0  0  0  0
 35 75  2  0  0  0  0
 36 58  1  0  0  0  0
 36 71  1  0  0  0  0
 36 76  2  0  0  0  0
 37 59  1  0  0  0  0
 37 68  1  0  0  0  0
 37 77  2  0  0  0  0
 38 65  1  0  0  0  0
 38 69  1  0  0  0  0
 38 78  2  0  0  0  0
 39 42  1  0  0  0  0
 40 49  1  0  0  0  0
 41 64  1  0  0  0  0
 42 44  1  0  0  0  0
 43 45  1  0  0  0  0
 43 46  1  0  0  0  0
 44 48  1  0  0  0  0
 45 50  1  0  0  0  0
 46 65  1  0  0  0  0
 47 50  1  0  0  0  0
 47 65  1  0  0  0  0
 48 70  1  0  0  0  0
 49 64  1  0  0  0  0
 50 63  1  0  0  0  0
 51 58  1  0  0  0  0
 52 60  1  0  0  0  0
 53 60  1  0  0  0  0
 54 60  1  0  0  0  0
 55 72  1  0  0  0  0
 56 59  1  0  0  0  0
 56 80  1  0  0  0  0
 57 60  1  0  0  0  0
 57 71  1  0  0  0  0
 58 72  1  0  0  0  0
 59 84  1  0  0  0  0
 61 63  1  0  0  0  0
M  CHG  1  72   1
M  ISO  4  38 100  56 101  69 100  80 101
M  END
> <Batch ID>
0185

> <Smiles>
CNC(C)C(=O)NC(C(=O)N1Cc2cc([101O:1][101CH2:1]C(F)C(=O)Nc3cc(F)cc([100NH:0][100C:0](=O)N4CCCC(n5nc(-c6ccc(Oc7ccc(F)cc7F)cc6)c(C(N)=O)c5N)C4)n3)ccc2CC1C(=O)NC1CCCc2ccccc21)C(C)(C)C

> <Shape>
0.269

> <Color>
0.083

> <Negative vol penalty>
0.000

$$$$

  -OEChem-04052305053D

 87 95  0     1  0  0  0  0  0999 V2000
  -22.4841  -14.1550   35.6726 C   0  0  0  0  0  0  0  0  0  0  0  0
  -23.2308  -15.2541   35.2606 C   0  0  0  0  0  0  0  0  0  0  0  0
  -23.0755   -9.8658   19.9424 C   0  0  0  0  0  0  0  0  0  0  0  0
  -23.8353   -9.8757   22.2358 C   0  0  0  0  0  0  0  0  0  0  0  0
  -22.0817  -13.1984   34.7415 C   0  0  0  0  0  0  0  0  0  0  0  0
  -23.5765  -15.3968   33.9172 C   0  0  0  0  0  0  0  0  0  0  0  0
  -24.6945  -20.4304   28.9444 C   0  0  0  0  0  0  0  0  0  0  0  0
  -22.3321   -8.7126   20.1937 C   0  0  0  0  0  0  0  0  0  0  0  0
  -23.0918   -8.7225   22.4871 C   0  0  0  0  0  0  0  0  0  0  0  0
  -25.6486  -20.8262   28.0081 C   0  0  0  0  0  0  0  0  0  0  0  0
  -21.1079   -5.9862   23.8268 C   0  0  0  0  0  0  0  0  0  0  0  0
  -20.3516   -5.9437   24.9980 C   0  0  0  0  0  0  0  0  0  0  0  0
  -24.8307  -19.1522   26.4758 C   0  0  0  0  0  0  0  0  0  0  0  0
  -19.1063   -7.8797   24.2642 C   0  0  0  0  0  0  0  0  0  0  0  0
  -23.8272  -10.4473   20.9635 C   0  0  0  0  0  0  0  0  0  0  0  0
  -24.1681  -12.9724   20.8406 C   0  0  0  0  0  0  0  0  0  0  0  0
  -22.4144  -13.3344   33.3845 C   0  0  0  0  0  0  0  0  0  0  0  0
  -23.8069  -19.3834   28.6571 C   0  0  0  0  0  0  0  0  0  0  0  0
  -23.1793  -14.4404   32.9673 C   0  0  0  0  0  0  0  0  0  0  0  0
  -23.8646  -18.7466   27.4092 C   0  0  0  0  0  0  0  0  0  0  0  0
  -22.3402   -8.1410   21.4660 C   0  0  0  0  0  0  0  0  0  0  0  0
  -25.7187  -20.1852   26.7747 C   0  0  0  0  0  0  0  0  0  0  0  0
  -20.8635   -6.9755   22.8742 C   0  0  0  0  0  0  0  0  0  0  0  0
  -19.3508   -6.8904   25.2167 C   0  0  0  0  0  0  0  0  0  0  0  0
  -19.8627   -7.9222   23.0929 C   0  0  0  0  0  0  0  0  0  0  0  0
  -24.5959  -11.6381   20.7044 C   0  0  0  0  0  0  0  0  0  0  0  0
  -30.7062  -19.0988   22.9830 C   0  0  0  0  0  0  0  0  0  0  0  0
  -31.8082  -18.7301   22.2402 C   0  0  0  0  0  0  0  0  0  0  0  0
  -25.2600  -13.7219   20.4765 C   0  0  0  0  0  0  0  0  0  0  0  0
  -30.5705  -16.9520   21.8990 C   0  0  0  0  0  0  0  0  0  0  0  0
  -22.8974  -13.4882   21.2588 C   0  0  0  0  0  0  0  0  0  0  0  0
  -30.4373  -20.3273   23.7740 C   0  0  0  0  0  0  0  0  0  0  0  0
  -23.2327  -16.5209   29.9142 C   0  0  0  0  0  0  0  0  0  0  0  0
  -20.7869  -16.5069   27.7834 C   0  0  0  0  0  0  0  0  0  0  0  0
  -19.4876  -17.6866   24.8565 C   0  0  0  0  0  0  0  0  0  0  0  0
  -30.7258  -14.7696   20.6502 C   0  0  0  0  0  0  0  0  0  0  0  0
  -21.9973  -12.2502   32.4226 C   0  0  0  0  0  0  0  0  0  0  0  0
  -22.7660  -18.9861   29.6676 C   0  0  0  0  0  0  0  0  0  0  0  0
  -22.9214  -17.6306   27.0440 C   0  0  0  0  0  0  0  0  0  0  0  0
  -22.0852  -12.6690   30.9573 C   0  0  0  0  0  0  0  0  0  0  0  0
  -29.6123  -12.3528   18.2846 C   0  0  0  0  0  0  0  0  0  0  0  0
  -23.4142  -13.3645   30.6798 C   0  0  0  0  0  0  0  0  0  0  0  0
  -28.1728  -12.0612   18.7144 C   0  0  0  0  0  0  0  0  0  0  0  0
  -30.5273  -12.5832   19.4860 C   0  0  0  0  0  0  0  0  0  0  0  0
  -28.6201  -13.3085   20.8664 C   0  0  0  0  0  0  0  0  0  0  0  0
  -23.5528  -14.6431   31.5149 C   0  0  1  0  0  0  0  0  0  0  0  0
  -22.2494  -17.5649   29.4661 C   0  0  1  0  0  0  0  0  0  0  0  0
  -27.6473  -13.1337   19.6888 C   0  0  2  0  0  0  0  0  0  0  0  0
  -17.4880  -17.4625   23.3569 C   0  0  0  0  0  0  0  0  0  0  0  0
  -28.5244  -20.0647   27.2786 C   0  0  0  0  0  0  0  0  0  0  0  0
  -21.8474  -13.8301   26.7734 C   0  0  0  0  0  0  0  0  0  0  0  0
  -20.4384  -14.1240   24.7248 C   0  0  0  0  0  0  0  0  0  0  0  0
  -19.3574  -13.9597   26.9670 C   0  0  0  0  0  0  0  0  0  0  0  0
  -18.7818  -20.5428   25.1772 C   0  0  0  0  0  0  0  0  0  0  0  0
  -20.6198  -16.0618   26.3506 C   0  0  1  0  0  0  0  0  0  0  0  0
  -18.1129  -18.2303   24.5114 C   0  0  2  0  0  0  0  0  0  0  0  0
  -28.7891  -21.5174   25.1964 C   0  0  2  0  0  0  0  0  0  0  0  0
  -27.8759  -21.0976   26.3623 C   0  0  1  0  0  0  0  0  0  1  0  0
  -20.5849  -14.5136   26.2113 C   0  0  0  0  0  0  0  0  0  0  0  0
  -28.1364  -22.5501   24.2898 C   0  0  0  0  0  0  0  0  0  0  0  0
  -25.8608  -11.5423   20.2863 N   0  0  0  0  0  0  0  0  0  0  0  0
  -31.7323  -17.4992   21.6182 N   0  0  0  0  0  0  0  0  0  0  0  0
  -26.2372  -12.8259   20.1565 N   0  0  0  0  0  0  0  0  0  0  0  0
  -21.9254  -17.2742   28.0680 N   0  0  0  0  0  0  0  0  0  0  0  0
  -29.9680  -13.6148   20.3622 N   0  0  0  0  0  0  0  0  0  0  0  0
  -32.9162  -19.4970   22.1014 N   0  0  0  0  0  0  0  0  0  0  0  0
  -25.4699  -15.0533   20.4019 N   0  0  0  0  0  0  0  0  0  0  0  0
  -21.8858  -12.5791   21.5971 N   0  0  0  0  0  0  0  0  0  0  0  0
  -30.0781  -15.6953   21.4676 N   0  0  0  0  0  0  0  0  0  0  0  0
  -29.2074  -20.3787   24.4101 N   0  0  0  0  0  0  0  0  0  0  0  0
  -22.7694  -15.7129   30.9349 N   0  0  0  0  0  0  0  0  0  0  0  0
  -19.4250  -16.7337   25.8511 N   0  0  0  0  0  0  0  0  0  0  0  0
  -18.2059  -19.6666   24.1248 N   0  3  0  0  0  0  0  0  0  0  0  0
  -22.6607  -14.7188   21.3147 O   0  0  0  0  0  0  0  0  0  0  0  0
  -31.2834  -21.2171   23.8066 O   0  0  0  0  0  0  0  0  0  0  0  0
  -24.3300  -16.4525   29.3728 O   0  0  0  0  0  0  0  0  0  0  0  0
  -19.9349  -16.1917   28.6179 O   0  0  0  0  0  0  0  0  0  0  0  0
  -20.5138  -18.0664   24.2969 O   0  0  0  0  0  0  0  0  0  0  0  0
  -31.8549  -14.9382   20.1825 O   0  0  0  0  0  0  0  0  0  0  0  0
  -21.6147   -7.0159   21.7116 O   0  0  0  0  0  0  0  0  0  0  0  0
  -26.6495  -20.5692   25.8592 O   0  0  0  0  0  0  0  0  0  1  0  0
  -18.6236   -6.8485   26.3408 F   0  0  0  0  0  0  0  0  0  0  0  0
  -19.6224   -8.8743   22.1810 F   0  0  0  0  0  0  0  0  0  0  0  0
  -28.9632  -22.8952   23.2776 F   0  0  0  0  0  0  0  0  0  0  0  0
  -27.0062  -22.0573   23.7337 F   0  0  0  0  0  0  0  0  0  0  0  0
  -27.8070  -23.6775   24.9547 F   0  0  0  0  0  0  0  0  0  0  0  0
  -29.5200  -17.8627   22.9050 S   0  0  0  0  0  0  0  0  0  0  0  0
  1  2  1  0  0  0  0
  1  5  2  0  0  0  0
  2  6  2  0  0  0  0
  3  8  2  0  0  0  0
  3 15  1  0  0  0  0
  4  9  1  0  0  0  0
  4 15  2  0  0  0  0
  5 17  1  0  0  0  0
  6 19  1  0  0  0  0
  7 10  2  0  0  0  0
  7 18  1  0  0  0  0
  8 21  1  0  0  0  0
  9 21  2  0  0  0  0
 10 22  1  0  0  0  0
 11 12  2  0  0  0  0
 11 23  1  0  0  0  0
 12 24  1  0  0  0  0
 13 20  1  0  0  0  0
 13 22  2  0  0  0  0
 14 24  2  0  0  0  0
 14 25  1  0  0  0  0
 15 26  1  0  0  0  0
 16 26  1  0  0  0  0
 16 29  2  0  0  0  0
 16 31  1  0  0  0  0
 17 19  2  0  0  0  0
 17 37  1  0  0  0  0
 18 20  2  0  0  0  0
 18 38  1  0  0  0  0
 19 46  1  0  0  0  0
 20 39  1  0  0  0  0
 21 80  1  0  0  0  0
 22 81  1  0  0  0  0
 23 25  2  0  0  0  0
 23 80  1  0  0  0  0
 24 82  1  0  0  0  0
 25 83  1  0  0  0  0
 26 61  2  0  0  0  0
 27 28  2  0  0  0  0
 27 32  1  0  0  0  0
 27 87  1  0  0  0  0
 28 62  1  0  0  0  0
 28 66  1  0  0  0  0
 29 63  1  0  0  0  0
 29 67  1  0  0  0  0
 30 62  2  0  0  0  0
 30 69  1  0  0  0  0
 30 87  1  0  0  0  0
 31 68  1  0  0  0  0
 31 74  2  0  0  0  0
 32 70  1  0  0  0  0
 32 75  2  0  0  0  0
 33 47  1  0  0  0  0
 33 71  1  0  0  0  0
 33 76  2  0  0  0  0
 34 55  1  0  0  0  0
 34 64  1  0  0  0  0
 34 77  2  0  0  0  0
 35 56  1  0  0  0  0
 35 72  1  0  0  0  0
 35 78  2  0  0  0  0
 36 65  1  0  0  0  0
 36 69  1  0  0  0  0
 36 79  2  0  0  0  0
 37 40  1  0  0  0  0
 38 47  1  0  0  0  0
 39 64  1  0  0  0  0
 40 42  1  0  0  0  0
 41 43  1  0  0  0  0
 41 44  1  0  0  0  0
 42 46  1  0  0  0  0
 43 48  1  0  0  0  0
 44 65  1  0  0  0  0
 45 48  1  0  0  0  0
 45 65  1  0  0  0  0
 46 71  1  0  0  0  0
 47 64  1  0  0  0  0
 48 63  1  0  0  0  0
 49 56  1  0  0  0  0
 50 58  1  0  0  0  0
 51 59  1  0  0  0  0
 52 59  1  0  0  0  0
 53 59  1  0  0  0  0
 54 73  1  0  0  0  0
 55 59  1  0  0  0  0
 55 72  1  0  0  0  0
 56 73  1  0  0  0  0
 57 58  1  0  0  0  0
 57 60  1  0  0  0  0
 57 70  1  0  0  0  0
 58 81  1  0  0  0  0
 60 84  1  0  0  0  0
 60 85  1  0  0  0  0
 60 86  1  0  0  0  0
 61 63  1  0  0  0  0
M  CHG  1  73   1
M  ISO  4  36 100  58 101  69 100  81 101
M  END
> <Batch ID>
0185

> <Smiles>
CNC(C)C(=O)NC(C(=O)N1Cc2cc([101O:1][101CH:1](C)C(NC(=O)c3sc([100NH:0][100C:0](=O)N4CCCC(n5nc(-c6ccc(Oc7ccc(F)cc7F)cc6)c(C(N)=O)c5N)C4)nc3N)C(F)(F)F)ccc2CC1C(=O)NC1CCCc2ccccc21)C(C)(C)C

> <Shape>
0.161

> <Color>
0.180

> <Negative vol penalty>
0.000

$$$$

  -OEChem-04052305053D

 81 89  0     1  0  0  0  0  0999 V2000
  -29.5339  -23.8312   17.0266 C   0  0  0  0  0  0  0  0  0  0  0  0
  -28.3355  -23.8928   17.7306 C   0  0  0  0  0  0  0  0  0  0  0  0
  -27.6308  -16.0218   20.9749 C   0  0  0  0  0  0  0  0  0  0  0  0
  -26.7858  -18.1897   20.3244 C   0  0  0  0  0  0  0  0  0  0  0  0
  -30.6368  -24.5629   17.4647 C   0  0  0  0  0  0  0  0  0  0  0  0
  -28.2398  -24.6854   18.8738 C   0  0  0  0  0  0  0  0  0  0  0  0
  -23.9796  -27.4208   18.9902 C   0  0  0  0  0  0  0  0  0  0  0  0
  -28.9360  -16.4692   20.7705 C   0  0  0  0  0  0  0  0  0  0  0  0
  -28.0910  -18.6371   20.1200 C   0  0  0  0  0  0  0  0  0  0  0  0
  -22.8086  -26.7601   19.3590 C   0  0  0  0  0  0  0  0  0  0  0  0
  -30.6773  -19.7154   22.0091 C   0  0  0  0  0  0  0  0  0  0  0  0
  -31.0164  -20.9716   22.5117 C   0  0  0  0  0  0  0  0  0  0  0  0
  -23.0097  -27.6606   21.5879 C   0  0  0  0  0  0  0  0  0  0  0  0
  -31.5554  -21.7196   20.2786 C   0  0  0  0  0  0  0  0  0  0  0  0
  -26.5557  -16.8820   20.7518 C   0  0  0  0  0  0  0  0  0  0  0  0
  -24.5639  -15.3499   20.3124 C   0  0  0  0  0  0  0  0  0  0  0  0
  -30.5518  -25.3725   18.6083 C   0  0  0  0  0  0  0  0  0  0  0  0
  -24.6816  -28.1988   19.9221 C   0  0  0  0  0  0  0  0  0  0  0  0
  -29.3431  -25.4277   19.3284 C   0  0  0  0  0  0  0  0  0  0  0  0
  -24.1880  -28.3322   21.2277 C   0  0  0  0  0  0  0  0  0  0  0  0
  -29.1662  -17.7768   20.3431 C   0  0  0  0  0  0  0  0  0  0  0  0
  -22.3251  -26.8776   20.6588 C   0  0  0  0  0  0  0  0  0  0  0  0
  -30.7774  -19.4613   20.6412 C   0  0  0  0  0  0  0  0  0  0  0  0
  -31.4554  -21.9737   21.6465 C   0  0  0  0  0  0  0  0  0  0  0  0
  -31.2164  -20.4634   19.7760 C   0  0  0  0  0  0  0  0  0  0  0  0
  -25.2071  -16.4202   20.9623 C   0  0  0  0  0  0  0  0  0  0  0  0
  -23.3059  -15.3201   20.8628 C   0  0  0  0  0  0  0  0  0  0  0  0
  -19.0068  -24.4771   23.0487 C   0  0  0  0  0  0  0  0  0  0  0  0
  -20.1771  -24.5905   22.4086 C   0  0  0  0  0  0  0  0  0  0  0  0
  -18.4187  -23.1266   22.8736 C   0  0  0  0  0  0  0  0  0  0  0  0
  -25.0593  -14.4619   19.3016 C   0  0  0  0  0  0  0  0  0  0  0  0
  -27.5890  -28.0859   21.2018 C   0  0  0  0  0  0  0  0  0  0  0  0
  -26.6981  -30.9168   22.5113 C   0  0  0  0  0  0  0  0  0  0  0  0
  -24.1685  -32.9789   23.5093 C   0  0  0  0  0  0  0  0  0  0  0  0
  -19.8916  -19.4699   23.4769 C   0  0  0  0  0  0  0  0  0  0  0  0
  -31.7846  -26.1083   19.0702 C   0  0  0  0  0  0  0  0  0  0  0  0
  -25.9287  -28.9268   19.5011 C   0  0  0  0  0  0  0  0  0  0  0  0
  -24.8933  -29.1718   22.2602 C   0  0  0  0  0  0  0  0  0  0  0  0
  -31.4907  -27.2169   20.0777 C   0  0  0  0  0  0  0  0  0  0  0  0
  -20.9555  -16.3917   24.8928 C   0  0  0  0  0  0  0  0  0  0  0  0
  -30.5393  -26.7162   21.1599 C   0  0  0  0  0  0  0  0  0  0  0  0
  -22.1048  -15.9491   23.9853 C   0  0  0  0  0  0  0  0  0  0  0  0
  -20.9407  -17.9065   25.0868 C   0  0  0  0  0  0  0  0  0  0  0  0
  -22.0857  -18.2492   22.9327 C   0  0  0  0  0  0  0  0  0  0  0  0
  -29.1927  -26.2954   20.5590 C   0  0  1  0  0  0  0  0  0  0  0  0
  -26.8406  -29.2767   20.6730 C   0  0  1  0  0  0  0  0  0  0  0  0
  -22.1090  -16.7355   22.6602 C   0  0  1  0  0  0  0  0  0  0  0  0
  -23.7520  -35.2108   24.5782 C   0  0  0  0  0  0  0  0  0  0  0  0
  -27.4453  -29.7514   25.2304 C   0  0  0  0  0  0  0  0  0  0  0  0
  -26.1483  -31.6047   26.3033 C   0  0  0  0  0  0  0  0  0  0  0  0
  -28.1353  -32.1310   24.8900 C   0  0  0  0  0  0  0  0  0  0  0  0
  -22.7209  -33.9784   21.1294 C   0  0  0  0  0  0  0  0  0  0  0  0
  -18.9598  -20.9937   21.7418 C   0  0  0  0  0  0  0  0  0  0  0  0
  -26.0051  -31.3342   23.7859 C   0  0  1  0  0  0  0  0  0  0  0  0
  -23.9191  -34.4567   23.2681 C   0  0  2  0  0  0  0  0  0  0  0  0
  -21.0264  -25.8071   22.3783 C   0  0  0  0  0  0  0  0  0  1  0  0
  -26.9210  -31.1878   25.0337 C   0  0  0  0  0  0  0  0  0  0  0  0
  -24.4224  -17.0266   21.8570 N   0  0  0  0  0  0  0  0  0  0  0  0
  -23.2732  -16.3351   21.7732 N   0  0  0  0  0  0  0  0  0  0  0  0
  -19.2560  -22.3529   22.0888 N   0  0  0  0  0  0  0  0  0  0  0  0
  -26.1120  -29.8589   21.8019 N   0  0  0  0  0  0  0  0  0  0  0  0
  -20.9400  -18.5891   23.7908 N   0  0  0  0  0  0  0  0  0  0  0  0
  -22.2355  -14.5250   20.6519 N   0  0  0  0  0  0  0  0  0  0  0  0
  -24.8898  -14.8191   17.9569 N   0  0  0  0  0  0  0  0  0  0  0  0
  -28.3857  -27.4596   20.2624 N   0  0  0  0  0  0  0  0  0  0  0  0
  -25.5158  -32.6898   23.5594 N   0  0  0  0  0  0  0  0  0  0  0  0
  -19.9636  -20.0680   22.2241 N   0  0  0  0  0  0  0  0  0  0  0  0
  -22.6848  -34.6478   22.4551 N   0  3  0  0  0  0  0  0  0  0  0  0
  -17.3494  -22.8099   23.3754 O   0  0  0  0  0  0  0  0  0  0  0  0
  -25.6206  -13.3758   19.5821 O   0  0  0  0  0  0  0  0  0  0  0  0
  -27.4548  -27.7605   22.3756 O   0  0  0  0  0  0  0  0  0  0  0  0
  -27.7177  -31.5124   22.1544 O   0  0  0  0  0  0  0  0  0  0  0  0
  -23.2591  -32.1631   23.6439 O   0  0  0  0  0  0  0  0  0  0  0  0
  -18.9576  -19.6992   24.2527 O   0  0  0  0  0  0  0  0  0  0  0  0
  -30.4397  -18.2138   20.1437 O   0  0  0  0  0  0  0  0  0  0  0  0
  -21.1827  -26.2332   21.0216 O   0  0  0  0  0  0  0  0  0  1  0  0
  -31.7795  -23.1805   22.1291 F   0  0  0  0  0  0  0  0  0  0  0  0
  -31.3134  -20.2255   18.4607 F   0  0  0  0  0  0  0  0  0  0  0  0
  -20.4569  -26.8055   23.1009 F   0  0  0  0  0  0  0  0  0  0  0  0
  -22.2472  -25.5467   22.9124 F   0  0  0  0  0  0  0  0  0  0  0  0
  -20.6643  -23.1496   21.5715 S   0  0  0  0  0  0  0  0  0  0  0  0
  1  2  1  0  0  0  0
  1  5  2  0  0  0  0
  2  6  2  0  0  0  0
  3  8  2  0  0  0  0
  3 15  1  0  0  0  0
  4  9  1  0  0  0  0
  4 15  2  0  0  0  0
  5 17  1  0  0  0  0
  6 19  1  0  0  0  0
  7 10  2  0  0  0  0
  7 18  1  0  0  0  0
  8 21  1  0  0  0  0
  9 21  2  0  0  0  0
 10 22  1  0  0  0  0
 11 12  2  0  0  0  0
 11 23  1  0  0  0  0
 12 24  1  0  0  0  0
 13 20  1  0  0  0  0
 13 22  2  0  0  0  0
 14 24  2  0  0  0  0
 14 25  1  0  0  0  0
 15 26  1  0  0  0  0
 16 26  1  0  0  0  0
 16 27  2  0  0  0  0
 16 31  1  0  0  0  0
 17 19  2  0  0  0  0
 17 36  1  0  0  0  0
 18 20  2  0  0  0  0
 18 37  1  0  0  0  0
 19 45  1  0  0  0  0
 20 38  1  0  0  0  0
 21 75  1  0  0  0  0
 22 76  1  0  0  0  0
 23 25  2  0  0  0  0
 23 75  1  0  0  0  0
 24 77  1  0  0  0  0
 25 78  1  0  0  0  0
 26 58  2  0  0  0  0
 27 59  1  0  0  0  0
 27 63  1  0  0  0  0
 28 29  2  0  0  0  0
 28 30  1  0  0  0  0
 29 56  1  0  0  0  0
 29 81  1  0  0  0  0
 30 60  1  0  0  0  0
 30 69  2  0  0  0  0
 31 64  1  0  0  0  0
 31 70  2  0  0  0  0
 32 46  1  0  0  0  0
 32 65  1  0  0  0  0
 32 71  2  0  0  0  0
 33 54  1  0  0  0  0
 33 61  1  0  0  0  0
 33 72  2  0  0  0  0
 34 55  1  0  0  0  0
 34 66  1  0  0  0  0
 34 73  2  0  0  0  0
 35 62  1  0  0  0  0
 35 67  1  0  0  0  0
 35 74  2  0  0  0  0
 36 39  1  0  0  0  0
 37 46  1  0  0  0  0
 38 61  1  0  0  0  0
 39 41  1  0  0  0  0
 40 42  1  0  0  0  0
 40 43  1  0  0  0  0
 41 45  1  0  0  0  0
 42 47  1  0  0  0  0
 43 62  1  0  0  0  0
 44 47  1  0  0  0  0
 44 62  1  0  0  0  0
 45 65  1  0  0  0  0
 46 61  1  0  0  0  0
 47 59  1  0  0  0  0
 48 55  1  0  0  0  0
 49 57  1  0  0  0  0
 50 57  1  0  0  0  0
 51 57  1  0  0  0  0
 52 68  1  0  0  0  0
 53 60  1  0  0  0  0
 53 67  1  0  0  0  0
 54 57  1  0  0  0  0
 54 66  1  0  0  0  0
 55 68  1  0  0  0  0
 56 76  1  0  0  0  0
 56 79  1  0  0  0  0
 56 80  1  0  0  0  0
 58 59  1  0  0  0  0
 60 81  1  0  0  0  0
M  CHG  1  68   1
M  ISO  4  35 100  56 101  67 100  76 101
M  END
> <Batch ID>
0185

> <Smiles>
CNC(C)C(=O)NC(C(=O)N1Cc2cc([101O:1][101C:1](F)(F)c3cc(=O)n(C[100NH:0][100C:0](=O)N4CCCC(n5nc(-c6ccc(Oc7ccc(F)cc7F)cc6)c(C(N)=O)c5N)C4)s3)ccc2CC1C(=O)NC1CCCc2ccccc21)C(C)(C)C

> <Shape>
0.240

> <Color>
0.076

> <Negative vol penalty>
0.000

$$$$

  -OEChem-04052305053D

 85 93  0     1  0  0  0  0  0999 V2000
  -29.2255  -36.9960   24.3854 C   0  0  0  0  0  0  0  0  0  0  0  0
  -29.5697  -35.8340   23.7021 C   0  0  0  0  0  0  0  0  0  0  0  0
  -24.1380   -9.5282   22.1534 C   0  0  0  0  0  0  0  0  0  0  0  0
  -23.0328  -10.0723   20.0750 C   0  0  0  0  0  0  0  0  0  0  0  0
  -28.1660  -36.9826   25.2915 C   0  0  0  0  0  0  0  0  0  0  0  0
  -28.8551  -34.6576   23.9254 C   0  0  0  0  0  0  0  0  0  0  0  0
  -27.5570  -30.3030   19.8195 C   0  0  0  0  0  0  0  0  0  0  0  0
  -23.3505   -8.3831   22.2724 C   0  0  0  0  0  0  0  0  0  0  0  0
  -22.2453   -8.9271   20.1940 C   0  0  0  0  0  0  0  0  0  0  0  0
  -28.1511  -29.0740   19.5361 C   0  0  0  0  0  0  0  0  0  0  0  0
  -23.2796   -5.2625   20.9723 C   0  0  0  0  0  0  0  0  0  0  0  0
  -23.9135   -4.0750   21.3378 C   0  0  0  0  0  0  0  0  0  0  0  0
  -26.5320  -27.9732   20.9454 C   0  0  0  0  0  0  0  0  0  0  0  0
  -22.5172   -3.9351   23.3045 C   0  0  0  0  0  0  0  0  0  0  0  0
  -27.3141  -18.6369   17.2761 C   0  0  0  0  0  0  0  0  0  0  0  0
  -23.9791  -10.3728   21.0548 C   0  0  0  0  0  0  0  0  0  0  0  0
  -26.0427  -11.6659   20.2950 C   0  0  0  0  0  0  0  0  0  0  0  0
  -27.4319  -35.8078   25.5189 C   0  0  0  0  0  0  0  0  0  0  0  0
  -26.4508  -30.3777   20.6781 C   0  0  0  0  0  0  0  0  0  0  0  0
  -27.7856  -34.6282   24.8364 C   0  0  0  0  0  0  0  0  0  0  0  0
  -25.9241  -29.2040   21.2361 C   0  0  0  0  0  0  0  0  0  0  0  0
  -22.4042   -8.0825   21.2927 C   0  0  0  0  0  0  0  0  0  0  0  0
  -27.6404  -27.9092   20.1013 C   0  0  0  0  0  0  0  0  0  0  0  0
  -22.2646   -5.7864   21.7730 C   0  0  0  0  0  0  0  0  0  0  0  0
  -23.5323   -3.4112   22.5039 C   0  0  0  0  0  0  0  0  0  0  0  0
  -21.8834   -5.1226   22.9391 C   0  0  0  0  0  0  0  0  0  0  0  0
  -24.7919  -11.5562   20.9316 C   0  0  0  0  0  0  0  0  0  0  0  0
  -26.6022  -19.0160   18.3949 C   0  0  0  0  0  0  0  0  0  0  0  0
  -26.3937  -12.9844   20.4525 C   0  0  0  0  0  0  0  0  0  0  0  0
  -27.3649  -20.9862   17.8061 C   0  0  0  0  0  0  0  0  0  0  0  0
  -26.8179  -10.6655   19.6213 C   0  0  0  0  0  0  0  0  0  0  0  0
  -25.8702  -31.7782   23.4719 C   0  0  0  0  0  0  0  0  0  0  0  0
  -25.6068  -23.5039   18.4700 C   0  0  0  0  0  0  0  0  0  0  0  0
  -22.8507  -30.7232   22.9315 C   0  0  0  0  0  0  0  0  0  0  0  0
  -20.7984  -28.4911   21.3653 C   0  0  0  0  0  0  0  0  0  0  0  0
  -25.1325  -18.4067   20.3480 C   0  0  0  0  0  0  0  0  0  0  0  0
  -26.3249  -35.8303   26.5430 C   0  0  0  0  0  0  0  0  0  0  0  0
  -25.8049  -31.7081   20.9526 C   0  0  0  0  0  0  0  0  0  0  0  0
  -24.7257  -29.2279   22.1480 C   0  0  0  0  0  0  0  0  0  0  0  0
  -25.3793  -34.6360   26.4440 C   0  0  0  0  0  0  0  0  0  0  0  0
  -24.3492  -16.6167   23.3245 C   0  0  0  0  0  0  0  0  0  0  0  0
  -26.1701  -33.3385   26.3105 C   0  0  0  0  0  0  0  0  0  0  0  0
  -24.4974  -15.1496   22.9149 C   0  0  0  0  0  0  0  0  0  0  0  0
  -23.7644  -17.4643   22.1961 C   0  0  0  0  0  0  0  0  0  0  0  0
  -24.6165  -15.8916   20.5020 C   0  0  0  0  0  0  0  0  0  0  0  0
  -27.0185  -33.3385   25.0331 C   0  0  1  0  0  0  0  0  0  0  0  0
  -24.9997  -31.7254   22.2483 C   0  0  1  0  0  0  0  0  0  0  0  0
  -25.2621  -15.0106   21.5840 C   0  0  2  0  0  0  0  0  0  0  0  0
  -23.1725  -23.3370   18.9839 C   0  0  0  0  0  0  0  0  0  0  0  0
  -18.3808  -27.8547   21.1478 C   0  0  0  0  0  0  0  0  0  0  0  0
  -22.9521  -29.4072   25.6825 C   0  0  0  0  0  0  0  0  0  0  0  0
  -20.9635  -28.0365   25.0232 C   0  0  0  0  0  0  0  0  0  0  0  0
  -20.7803  -30.5216   25.1386 C   0  0  0  0  0  0  0  0  0  0  0  0
  -20.7973  -29.0338   18.4560 C   0  0  0  0  0  0  0  0  0  0  0  0
  -24.5746  -23.0389   19.4764 C   0  0  0  0  0  0  0  0  0  0  0  0
  -27.3711  -25.5606   19.8418 C   0  0  0  0  0  0  0  0  0  1  0  0
  -27.0728  -23.2536   18.8058 C   0  0  2  0  0  0  0  0  0  0  0  0
  -22.0859  -29.4614   23.2509 C   0  0  1  0  0  0  0  0  0  0  0  0
  -19.5183  -28.6842   20.5727 C   0  0  2  0  0  0  0  0  0  0  0  0
  -27.9067  -24.5402   18.8402 C   0  0  1  0  0  0  0  0  0  0  0  0
  -21.7192  -29.3561   24.7582 C   0  0  0  0  0  0  0  0  0  0  0  0
  -24.3764  -12.7127   21.4547 N   0  0  0  0  0  0  0  0  0  0  0  0
  -26.6305  -20.3626   18.7006 N   0  0  0  0  0  0  0  0  0  0  0  0
  -25.3717  -13.5617   21.1472 N   0  0  0  0  0  0  0  0  0  0  0  0
  -24.1332  -30.5536   22.3910 N   0  0  0  0  0  0  0  0  0  0  0  0
  -24.5425  -17.2851   20.9683 N   0  0  0  0  0  0  0  0  0  0  0  0
  -27.4737  -13.6947   20.0634 N   0  0  0  0  0  0  0  0  0  0  0  0
  -26.3095   -9.3613   19.5511 N   0  0  0  0  0  0  0  0  0  0  0  0
  -25.8753  -18.1096   19.2059 N   0  0  0  0  0  0  0  0  0  0  0  0
  -27.6068  -22.3477   17.8089 N   0  0  0  0  0  0  0  0  0  0  0  0
  -26.1928  -33.0590   23.8779 N   0  0  0  0  0  0  0  0  0  0  0  0
  -20.9358  -29.4429   22.3535 N   0  0  0  0  0  0  0  0  0  0  0  0
  -19.7225  -28.2811   19.1526 N   0  3  0  0  0  0  0  0  0  0  0  0
  -27.9362  -10.9167   19.1115 O   0  0  0  0  0  0  0  0  0  0  0  0
  -26.2218  -30.7343   24.0088 O   0  0  0  0  0  0  0  0  0  0  0  0
  -25.2591  -24.0451   17.4192 O   0  0  0  0  0  0  0  0  0  0  0  0
  -22.3266  -31.8189   23.1469 O   0  0  0  0  0  0  0  0  0  0  0  0
  -21.5949  -27.5842   21.1337 O   0  0  0  0  0  0  0  0  0  0  0  0
  -25.0119  -19.5433   20.8123 O   0  0  0  0  0  0  0  0  0  0  0  0
  -27.9263  -25.1369   17.5413 O   0  0  0  0  0  0  0  0  0  0  0  0
  -21.6358   -6.9651   21.4083 O   0  0  0  0  0  0  0  0  0  0  0  0
  -28.2188  -26.7083   19.8268 O   0  0  0  0  0  0  0  0  0  1  0  0
  -24.1400   -2.2700   22.8539 F   0  0  0  0  0  0  0  0  0  0  0  0
  -20.9081   -5.6204   23.7116 F   0  0  0  0  0  0  0  0  0  0  0  0
  -28.0513  -20.0147   16.5692 S   0  0  0  0  0  0  0  0  0  0  0  0
  1  2  1  0  0  0  0
  1  5  2  0  0  0  0
  2  6  2  0  0  0  0
  3  8  2  0  0  0  0
  3 16  1  0  0  0  0
  4  9  1  0  0  0  0
  4 16  2  0  0  0  0
  5 18  1  0  0  0  0
  6 20  1  0  0  0  0
  7 10  2  0  0  0  0
  7 19  1  0  0  0  0
  8 22  1  0  0  0  0
  9 22  2  0  0  0  0
 10 23  1  0  0  0  0
 11 12  2  0  0  0  0
 11 24  1  0  0  0  0
 12 25  1  0  0  0  0
 13 21  1  0  0  0  0
 13 23  2  0  0  0  0
 14 25  2  0  0  0  0
 14 26  1  0  0  0  0
 15 28  2  0  0  0  0
 15 85  1  0  0  0  0
 16 27  1  0  0  0  0
 17 27  1  0  0  0  0
 17 29  2  0  0  0  0
 17 31  1  0  0  0  0
 18 20  2  0  0  0  0
 18 37  1  0  0  0  0
 19 21  2  0  0  0  0
 19 38  1  0  0  0  0
 20 46  1  0  0  0  0
 21 39  1  0  0  0  0
 22 81  1  0  0  0  0
 23 82  1  0  0  0  0
 24 26  2  0  0  0  0
 24 81  1  0  0  0  0
 25 83  1  0  0  0  0
 26 84  1  0  0  0  0
 27 62  2  0  0  0  0
 28 63  1  0  0  0  0
 28 69  1  0  0  0  0
 29 64  1  0  0  0  0
 29 67  1  0  0  0  0
 30 63  2  0  0  0  0
 30 70  1  0  0  0  0
 30 85  1  0  0  0  0
 31 68  1  0  0  0  0
 31 74  2  0  0  0  0
 32 47  1  0  0  0  0
 32 71  1  0  0  0  0
 32 75  2  0  0  0  0
 33 55  1  0  0  0  0
 33 57  1  0  0  0  0
 33 76  2  0  0  0  0
 34 58  1  0  0  0  0
 34 65  1  0  0  0  0
 34 77  2  0  0  0  0
 35 59  1  0  0  0  0
 35 72  1  0  0  0  0
 35 78  2  0  0  0  0
 36 66  1  0  0  0  0
 36 69  1  0  0  0  0
 36 79  2  0  0  0  0
 37 40  1  0  0  0  0
 38 47  1  0  0  0  0
 39 65  1  0  0  0  0
 40 42  1  0  0  0  0
 41 43  1  0  0  0  0
 41 44  1  0  0  0  0
 42 46  1  0  0  0  0
 43 48  1  0  0  0  0
 44 66  1  0  0  0  0
 45 48  1  0  0  0  0
 45 66  1  0  0  0  0
 46 71  1  0  0  0  0
 47 65  1  0  0  0  0
 48 64  1  0  0  0  0
 49 55  1  0  0  0  0
 50 59  1  0  0  0  0
 51 61  1  0  0  0  0
 52 61  1  0  0  0  0
 53 61  1  0  0  0  0
 54 73  1  0  0  0  0
 56 60  1  0  0  0  0
 56 82  1  0  0  0  0
 57 60  1  0  0  0  0
 57 70  1  0  0  0  0
 58 61  1  0  0  0  0
 58 72  1  0  0  0  0
 59 73  1  0  0  0  0
 60 80  1  0  0  0  0
 62 64  1  0  0  0  0
M  CHG  1  73   1
M  ISO  4  36 100  56 101  69 100  82 101
M  END
> <Batch ID>
0185

> <Smiles>
CCC(=O)C(Nc1nc([100NH:0][100C:0](=O)N2CCCC(n3nc(-c4ccc(Oc5ccc(F)cc5F)cc4)c(C(N)=O)c3N)C2)cs1)C(O)[101CH2:1][101O:1]c1ccc2c(c1)CN(C(=O)C(NC(=O)C(C)NC)C(C)(C)C)C(C(=O)NC1CCCc3ccccc31)C2

> <Shape>
0.272

> <Color>
0.105

> <Negative vol penalty>
0.000

$$$$

  -OEChem-04052305053D

 84 92  0     1  0  0  0  0  0999 V2000
  -16.9383  -29.1611   24.4544 C   0  0  0  0  0  0  0  0  0  0  0  0
  -17.3293  -28.0754   23.6774 C   0  0  0  0  0  0  0  0  0  0  0  0
  -27.3215  -17.9171   19.8353 C   0  0  0  0  0  0  0  0  0  0  0  0
  -28.5775  -17.8878   21.8990 C   0  0  0  0  0  0  0  0  0  0  0  0
  -17.5978  -30.3827   24.3255 C   0  0  0  0  0  0  0  0  0  0  0  0
  -18.3796  -28.2109   22.7702 C   0  0  0  0  0  0  0  0  0  0  0  0
  -22.5089  -23.9495   21.2554 C   0  0  0  0  0  0  0  0  0  0  0  0
  -27.1083  -16.5431   19.9455 C   0  0  0  0  0  0  0  0  0  0  0  0
  -28.3642  -16.5138   22.0092 C   0  0  0  0  0  0  0  0  0  0  0  0
  -22.6000  -23.0742   20.1741 C   0  0  0  0  0  0  0  0  0  0  0  0
  -25.0760  -14.4687   21.6775 C   0  0  0  0  0  0  0  0  0  0  0  0
  -23.7884  -13.9910   21.4337 C   0  0  0  0  0  0  0  0  0  0  0  0
  -24.0593  -24.6289   19.0461 C   0  0  0  0  0  0  0  0  0  0  0  0
  -24.6362  -12.6274   19.6284 C   0  0  0  0  0  0  0  0  0  0  0  0
  -28.0561  -18.5895   20.8120 C   0  0  0  0  0  0  0  0  0  0  0  0
  -27.4645  -21.0392   21.2079 C   0  0  0  0  0  0  0  0  0  0  0  0
  -18.6630  -30.5306   23.4232 C   0  0  0  0  0  0  0  0  0  0  0  0
  -23.1847  -25.1781   21.2355 C   0  0  0  0  0  0  0  0  0  0  0  0
  -19.0531  -29.4360   22.6281 C   0  0  0  0  0  0  0  0  0  0  0  0
  -23.9772  -25.5170   20.1295 C   0  0  0  0  0  0  0  0  0  0  0  0
  -27.6296  -15.8414   21.0325 C   0  0  0  0  0  0  0  0  0  0  0  0
  -23.3729  -23.4151   19.0680 C   0  0  0  0  0  0  0  0  0  0  0  0
  -26.1437  -14.0260   20.8967 C   0  0  0  0  0  0  0  0  0  0  0  0
  -23.5685  -13.0703   20.4092 C   0  0  0  0  0  0  0  0  0  0  0  0
  -25.9238  -13.1053   19.8722 C   0  0  0  0  0  0  0  0  0  0  0  0
  -28.2772  -20.0088   20.6984 C   0  0  0  0  0  0  0  0  0  0  0  0
  -28.8140  -24.5728   14.3637 C   0  0  0  0  0  0  0  0  0  0  0  0
  -28.3381  -25.1546   13.2074 C   0  0  0  0  0  0  0  0  0  0  0  0
  -28.1040  -22.1965   20.8362 C   0  0  0  0  0  0  0  0  0  0  0  0
  -26.6669  -24.2973   14.7156 C   0  0  0  0  0  0  0  0  0  0  0  0
  -26.2410  -20.9575   21.9509 C   0  0  0  0  0  0  0  0  0  0  0  0
  -30.2546  -24.4545   14.7065 C   0  0  0  0  0  0  0  0  0  0  0  0
  -22.2967  -28.2285   21.3343 C   0  0  0  0  0  0  0  0  0  0  0  0
  -25.4942  -28.7494   21.5002 C   0  0  0  0  0  0  0  0  0  0  0  0
  -28.6505  -27.6204   20.8602 C   0  0  0  0  0  0  0  0  0  0  0  0
  -25.1621  -23.3124   16.4776 C   0  0  0  0  0  0  0  0  0  0  0  0
  -31.8227  -23.5823   16.4107 C   0  0  0  0  0  0  0  0  0  0  0  0
  -19.3147  -31.8837   23.2848 C   0  0  0  0  0  0  0  0  0  0  0  0
  -23.0977  -26.0994   22.4212 C   0  0  0  0  0  0  0  0  0  0  0  0
  -24.7387  -26.8149   20.0675 C   0  0  0  0  0  0  0  0  0  0  0  0
  -20.6626  -31.8403   22.5697 C   0  0  0  0  0  0  0  0  0  0  0  0
  -32.4718  -23.9184   19.8694 C   0  0  0  0  0  0  0  0  0  0  0  0
  -20.5711  -30.9860   21.3094 C   0  0  0  0  0  0  0  0  0  0  0  0
  -31.3865  -23.0605   20.5256 C   0  0  0  0  0  0  0  0  0  0  0  0
  -32.9900  -23.2876   18.5778 C   0  0  0  0  0  0  0  0  0  0  0  0
  -30.8750  -22.0701   18.2581 C   0  0  0  0  0  0  0  0  0  0  0  0
  -20.2041  -29.5367   21.6507 C   0  0  1  0  0  0  0  0  0  0  0  0
  -23.4150  -27.5508   22.0746 C   0  0  1  0  0  0  0  0  0  0  0  0
  -30.2710  -22.6970   19.5251 C   0  0  1  0  0  0  0  0  0  0  0  0
  -29.0649  -25.7738   12.0804 C   0  0  0  0  0  0  0  0  0  0  0  0
  -31.1596  -27.5824   20.8849 C   0  0  0  0  0  0  0  0  0  0  0  0
  -23.0181  -22.2615   15.6660 C   0  0  0  0  0  0  0  0  0  0  0  0
  -25.1845  -30.6324   19.1194 C   0  0  0  0  0  0  0  0  0  0  0  0
  -27.6633  -30.5100   18.7891 C   0  0  0  0  0  0  0  0  0  0  0  0
  -26.7335  -31.4523   20.9034 C   0  0  0  0  0  0  0  0  0  0  0  0
  -28.7189  -26.1741   23.4414 C   0  0  0  0  0  0  0  0  0  0  0  0
  -26.5965  -28.9617   20.4909 C   0  0  1  0  0  0  0  0  0  0  0  0
  -29.8943  -27.5607   21.7284 C   0  0  2  0  0  0  0  0  0  0  0  0
  -23.6649  -23.1439   16.7234 C   0  0  1  0  0  0  0  0  0  1  0  0
  -26.5287  -30.3654   19.8257 C   0  0  0  0  0  0  0  0  0  0  0  0
  -29.3509  -20.4707   20.0521 N   0  0  0  0  0  0  0  0  0  0  0  0
  -27.8572  -24.0809   15.2299 N   0  0  0  0  0  0  0  0  0  0  0  0
  -29.2173  -21.8042   20.1529 N   0  0  0  0  0  0  0  0  0  0  0  0
  -24.6167  -27.6851   21.2488 N   0  0  0  0  0  0  0  0  0  0  0  0
  -31.8737  -22.9825   17.6811 N   0  0  0  0  0  0  0  0  0  0  0  0
  -27.8169  -23.5012   21.0303 N   0  0  0  0  0  0  0  0  0  0  0  0
  -25.7228  -19.6895   22.2475 N   0  0  0  0  0  0  0  0  0  0  0  0
  -25.4102  -23.9539   15.2685 N   0  0  0  0  0  0  0  0  0  0  0  0
  -30.5350  -23.8328   15.9237 N   0  0  0  0  0  0  0  0  0  0  0  0
  -21.3606  -28.8279   22.1552 N   0  0  0  0  0  0  0  0  0  0  0  0
  -27.8480  -28.6919   21.1905 N   0  0  0  0  0  0  0  0  0  0  0  0
  -29.8960  -26.3148   22.5461 N   0  3  0  0  0  0  0  0  0  0  0  0
  -25.6170  -21.9789   22.3262 O   0  0  0  0  0  0  0  0  0  0  0  0
  -31.0946  -24.8607   13.9082 O   0  0  0  0  0  0  0  0  0  0  0  0
  -22.2850  -28.2103   20.1091 O   0  0  0  0  0  0  0  0  0  0  0  0
  -25.4188  -29.4957   22.4794 O   0  0  0  0  0  0  0  0  0  0  0  0
  -28.4162  -26.8007   19.9748 O   0  0  0  0  0  0  0  0  0  0  0  0
  -25.9893  -22.9215   17.2961 O   0  0  0  0  0  0  0  0  0  0  0  0
  -32.8356  -23.9023   15.7808 O   0  0  0  0  0  0  0  0  0  0  0  0
  -27.4215  -14.5007   21.1405 O   0  0  0  0  0  0  0  0  0  0  0  0
  -23.4630  -22.5628   18.0109 O   0  0  0  0  0  0  0  0  0  1  0  0
  -22.3322  -12.6104   20.1762 F   0  0  0  0  0  0  0  0  0  0  0  0
  -26.9458  -12.6753   19.1195 F   0  0  0  0  0  0  0  0  0  0  0  0
  -26.6245  -25.0870   13.1926 S   0  0  0  0  0  0  0  0  0  0  0  0
  1  2  1  0  0  0  0
  1  5  2  0  0  0  0
  2  6  2  0  0  0  0
  3  8  2  0  0  0  0
  3 15  1  0  0  0  0
  4  9  1  0  0  0  0
  4 15  2  0  0  0  0
  5 17  1  0  0  0  0
  6 19  1  0  0  0  0
  7 10  2  0  0  0  0
  7 18  1  0  0  0  0
  8 21  1  0  0  0  0
  9 21  2  0  0  0  0
 10 22  1  0  0  0  0
 11 12  2  0  0  0  0
 11 23  1  0  0  0  0
 12 24  1  0  0  0  0
 13 20  1  0  0  0  0
 13 22  2  0  0  0  0
 14 24  2  0  0  0  0
 14 25  1  0  0  0  0
 15 26  1  0  0  0  0
 16 26  1  0  0  0  0
 16 29  2  0  0  0  0
 16 31  1  0  0  0  0
 17 19  2  0  0  0  0
 17 38  1  0  0  0  0
 18 20  2  0  0  0  0
 18 39  1  0  0  0  0
 19 47  1  0  0  0  0
 20 40  1  0  0  0  0
 21 80  1  0  0  0  0
 22 81  1  0  0  0  0
 23 25  2  0  0  0  0
 23 80  1  0  0  0  0
 24 82  1  0  0  0  0
 25 83  1  0  0  0  0
 26 61  2  0  0  0  0
 27 28  2  0  0  0  0
 27 32  1  0  0  0  0
 27 62  1  0  0  0  0
 28 50  1  0  0  0  0
 28 84  1  0  0  0  0
 29 63  1  0  0  0  0
 29 66  1  0  0  0  0
 30 62  2  0  0  0  0
 30 68  1  0  0  0  0
 30 84  1  0  0  0  0
 31 67  1  0  0  0  0
 31 73  2  0  0  0  0
 32 69  1  0  0  0  0
 32 74  2  0  0  0  0
 33 48  1  0  0  0  0
 33 70  1  0  0  0  0
 33 75  2  0  0  0  0
 34 57  1  0  0  0  0
 34 64  1  0  0  0  0
 34 76  2  0  0  0  0
 35 58  1  0  0  0  0
 35 71  1  0  0  0  0
 35 77  2  0  0  0  0
 36 59  1  0  0  0  0
 36 68  1  0  0  0  0
 36 78  2  0  0  0  0
 37 65  1  0  0  0  0
 37 69  1  0  0  0  0
 37 79  2  0  0  0  0
 38 41  1  0  0  0  0
 39 48  1  0  0  0  0
 40 64  1  0  0  0  0
 41 43  1  0  0  0  0
 42 44  1  0  0  0  0
 42 45  1  0  0  0  0
 43 47  1  0  0  0  0
 44 49  1  0  0  0  0
 45 65  1  0  0  0  0
 46 49  1  0  0  0  0
 46 65  1  0  0  0  0
 47 70  1  0  0  0  0
 48 64  1  0  0  0  0
 49 63  1  0  0  0  0
 51 58  1  0  0  0  0
 52 59  1  0  0  0  0
 53 60  1  0  0  0  0
 54 60  1  0  0  0  0
 55 60  1  0  0  0  0
 56 72  1  0  0  0  0
 57 60  1  0  0  0  0
 57 71  1  0  0  0  0
 58 72  1  0  0  0  0
 59 81  1  0  0  0  0
 61 63  1  0  0  0  0
M  CHG  1  72   1
M  ISO  4  37 100  59 101  69 100  81 101
M  END
> <Batch ID>
0185

> <Smiles>
CNC(C)C(=O)NC(C(=O)N1Cc2cc([101O:1][101CH:1](C)C(=O)Nc3nc(C(=O)[100NH:0][100C:0](=O)N4CCCC(n5nc(-c6ccc(Oc7ccc(F)cc7F)cc6)c(C(N)=O)c5N)C4)c(C)s3)ccc2CC1C(=O)NC1CCCc2ccccc21)C(C)(C)C

> <Shape>
0.215

> <Color>
0.075

> <Negative vol penalty>
0.000

$$$$

  -OEChem-04052305053D

 84 92  0     1  0  0  0  0  0999 V2000
  -25.9025  -21.2606   15.7612 C   0  0  0  0  0  0  0  0  0  0  0  0
  -26.4079  -19.9683   15.8465 C   0  0  0  0  0  0  0  0  0  0  0  0
  -23.6725  -25.7817   21.6727 C   0  0  0  0  0  0  0  0  0  0  0  0
  -23.8955  -26.6697   19.4369 C   0  0  0  0  0  0  0  0  0  0  0  0
  -25.2165  -21.8095   16.8425 C   0  0  0  0  0  0  0  0  0  0  0  0
  -26.2171  -19.2200   17.0087 C   0  0  0  0  0  0  0  0  0  0  0  0
  -28.2626  -13.6880   18.5386 C   0  0  0  0  0  0  0  0  0  0  0  0
  -22.2911  -25.9630   21.6070 C   0  0  0  0  0  0  0  0  0  0  0  0
  -22.5140  -26.8509   19.3711 C   0  0  0  0  0  0  0  0  0  0  0  0
  -29.3650  -13.1441   19.1964 C   0  0  0  0  0  0  0  0  0  0  0  0
  -18.7420  -26.5270   22.1634 C   0  0  0  0  0  0  0  0  0  0  0  0
  -18.1074  -27.0934   23.2688 C   0  0  0  0  0  0  0  0  0  0  0  0
  -28.0861  -13.0380   21.2390 C   0  0  0  0  0  0  0  0  0  0  0  0
  -28.8015  -18.7527   21.1385 C   0  0  0  0  0  0  0  0  0  0  0  0
  -19.4590  -29.0812   23.0264 C   0  0  0  0  0  0  0  0  0  0  0  0
  -30.3971  -18.3797   19.4146 C   0  0  0  0  0  0  0  0  0  0  0  0
  -24.4748  -26.1351   20.5877 C   0  0  0  0  0  0  0  0  0  0  0  0
  -26.7921  -26.5275   21.5795 C   0  0  0  0  0  0  0  0  0  0  0  0
  -25.0285  -21.0714   18.0228 C   0  0  0  0  0  0  0  0  0  0  0  0
  -27.0651  -13.9216   19.2299 C   0  0  0  0  0  0  0  0  0  0  0  0
  -25.5067  -19.7476   18.1021 C   0  0  0  0  0  0  0  0  0  0  0  0
  -26.9692  -13.5826   20.5871 C   0  0  0  0  0  0  0  0  0  0  0  0
  -29.4653  -19.2161   20.0081 C   0  0  0  0  0  0  0  0  0  0  0  0
  -21.7118  -26.4976   20.4562 C   0  0  0  0  0  0  0  0  0  0  0  0
  -29.2778  -12.8216   20.5475 C   0  0  0  0  0  0  0  0  0  0  0  0
  -19.7352  -27.2377   21.4894 C   0  0  0  0  0  0  0  0  0  0  0  0
  -18.4658  -28.3704   23.7003 C   0  0  0  0  0  0  0  0  0  0  0  0
  -29.0857  -17.4850   21.6340 C   0  0  0  0  0  0  0  0  0  0  0  0
  -20.0937  -28.5148   21.9209 C   0  0  0  0  0  0  0  0  0  0  0  0
  -25.9019  -25.9486   20.6552 C   0  0  0  0  0  0  0  0  0  0  0  0
  -30.0342  -16.7260   20.9677 C   0  0  0  0  0  0  0  0  0  0  0  0
  -28.0246  -26.0384   21.2217 C   0  0  0  0  0  0  0  0  0  0  0  0
  -26.5284  -27.4268   22.6646 C   0  0  0  0  0  0  0  0  0  0  0  0
  -25.3362  -16.4996   19.9142 C   0  0  0  0  0  0  0  0  0  0  0  0
  -23.2470  -14.3099   21.0816 C   0  0  0  0  0  0  0  0  0  0  0  0
  -22.7338  -11.1822   22.3468 C   0  0  0  0  0  0  0  0  0  0  0  0
  -31.2246  -14.5061   20.9800 C   0  0  0  0  0  0  0  0  0  0  0  0
  -29.7815  -21.0955   18.3606 C   0  0  0  0  0  0  0  0  0  0  0  0
  -24.2717  -21.7115   19.1598 C   0  0  0  0  0  0  0  0  0  0  0  0
  -25.8767  -14.4841   18.4994 C   0  0  0  0  0  0  0  0  0  0  0  0
  -25.7000  -13.7948   21.3697 C   0  0  0  0  0  0  0  0  0  0  0  0
  -24.5050  -21.0144   20.4962 C   0  0  0  0  0  0  0  0  0  0  0  0
  -30.4664  -24.4595   17.4166 C   0  0  0  0  0  0  0  0  0  0  0  0
  -24.3085  -19.5138   20.3409 C   0  0  0  0  0  0  0  0  0  0  0  0
  -29.4587  -25.2763   18.2287 C   0  0  0  0  0  0  0  0  0  0  0  0
  -29.8720  -23.1344   16.9429 C   0  0  0  0  0  0  0  0  0  0  0  0
  -28.2676  -23.1251   18.8124 C   0  0  0  0  0  0  0  0  0  0  0  0
  -25.3379  -18.9260   19.3673 C   0  0  1  0  0  0  0  0  0  0  0  0
  -24.8693  -15.1573   19.4265 C   0  0  1  0  0  0  0  0  0  0  0  0
  -28.8415  -24.4395   19.3664 C   0  0  2  0  0  0  0  0  0  0  0  0
  -20.9249   -9.6934   23.2462 C   0  0  0  0  0  0  0  0  0  0  0  0
  -32.6418  -12.5585   21.7561 C   0  0  0  0  0  0  0  0  0  0  0  0
  -30.8030  -13.4363   23.2443 C   0  0  0  0  0  0  0  0  0  0  0  0
  -23.2681  -15.8717   23.7027 C   0  0  0  0  0  0  0  0  0  0  0  0
  -22.2445  -13.8777   24.8183 C   0  0  0  0  0  0  0  0  0  0  0  0
  -21.0137  -15.0529   22.9943 C   0  0  0  0  0  0  0  0  0  0  0  0
  -23.1613   -9.1779   20.2116 C   0  0  0  0  0  0  0  0  0  0  0  0
  -23.0326  -13.6438   22.4193 C   0  0  1  0  0  0  0  0  0  0  0  0
  -21.7062  -10.1162   22.0119 C   0  0  2  0  0  0  0  0  0  0  0  0
  -31.2597  -13.2069   21.8042 C   0  0  0  0  0  0  0  0  0  1  0  0
  -22.4144  -14.6092   23.4697 C   0  0  0  0  0  0  0  0  0  0  0  0
  -30.6997  -17.1421   19.8669 N   0  0  0  0  0  0  0  0  0  0  0  0
  -26.5167  -25.1528   19.7762 N   0  0  0  0  0  0  0  0  0  0  0  0
  -27.8064  -25.2281   20.1465 N   0  0  0  0  0  0  0  0  0  0  0  0
  -24.5676  -14.3533   20.6125 N   0  0  0  0  0  0  0  0  0  0  0  0
  -29.3100  -22.3943   18.0749 N   0  0  0  0  0  0  0  0  0  0  0  0
  -29.2630  -26.2267   21.7250 N   0  0  0  0  0  0  0  0  0  0  0  0
  -26.5666  -28.8053   22.4142 N   0  0  0  0  0  0  0  0  0  0  0  0
  -29.1969  -20.5030   19.4794 N   0  0  0  0  0  0  0  0  0  0  0  0
  -30.3190  -15.4366   21.4783 N   0  0  0  0  0  0  0  0  0  0  0  0
  -24.9903  -17.5505   19.0864 N   0  0  0  0  0  0  0  0  0  0  0  0
  -22.2319  -12.4525   22.1584 N   0  0  0  0  0  0  0  0  0  0  0  0
  -22.3754   -8.9118   21.4439 N   0  3  0  0  0  0  0  0  0  0  0  0
  -26.2827  -27.0203   23.8256 O   0  0  0  0  0  0  0  0  0  0  0  0
  -25.9626  -16.5763   20.9647 O   0  0  0  0  0  0  0  0  0  0  0  0
  -22.2775  -14.7682   20.4719 O   0  0  0  0  0  0  0  0  0  0  0  0
  -23.8670  -10.9147   22.7401 O   0  0  0  0  0  0  0  0  0  0  0  0
  -31.9462  -14.6436   19.9944 O   0  0  0  0  0  0  0  0  0  0  0  0
  -30.6601  -20.5597   17.6801 O   0  0  0  0  0  0  0  0  0  0  0  0
  -20.3638  -26.6743   20.3916 O   0  0  0  0  0  0  0  0  0  0  0  0
  -30.3524  -12.2912   21.1921 O   0  0  0  0  0  0  0  0  0  1  0  0
  -17.8552  -28.9148   24.7610 F   0  0  0  0  0  0  0  0  0  0  0  0
  -28.4561  -17.0267   22.7233 F   0  0  0  0  0  0  0  0  0  0  0  0
  -21.0463  -29.2029   21.2768 F   0  0  0  0  0  0  0  0  0  0  0  0
  1  2  1  0  0  0  0
  1  5  2  0  0  0  0
  2  6  2  0  0  0  0
  3  8  2  0  0  0  0
  3 17  1  0  0  0  0
  4  9  1  0  0  0  0
  4 17  2  0  0  0  0
  5 19  1  0  0  0  0
  6 21  1  0  0  0  0
  7 10  2  0  0  0  0
  7 20  1  0  0  0  0
  8 24  1  0  0  0  0
  9 24  2  0  0  0  0
 10 25  1  0  0  0  0
 11 12  2  0  0  0  0
 11 26  1  0  0  0  0
 12 27  1  0  0  0  0
 13 22  1  0  0  0  0
 13 25  2  0  0  0  0
 14 23  2  0  0  0  0
 14 28  1  0  0  0  0
 15 27  2  0  0  0  0
 15 29  1  0  0  0  0
 16 23  1  0  0  0  0
 16 62  2  0  0  0  0
 17 30  1  0  0  0  0
 18 30  1  0  0  0  0
 18 32  2  0  0  0  0
 18 33  1  0  0  0  0
 19 21  2  0  0  0  0
 19 39  1  0  0  0  0
 20 22  2  0  0  0  0
 20 40  1  0  0  0  0
 21 48  1  0  0  0  0
 22 41  1  0  0  0  0
 23 69  1  0  0  0  0
 24 80  1  0  0  0  0
 25 81  1  0  0  0  0
 26 29  2  0  0  0  0
 26 80  1  0  0  0  0
 27 82  1  0  0  0  0
 28 31  2  0  0  0  0
 28 83  1  0  0  0  0
 29 84  1  0  0  0  0
 30 63  2  0  0  0  0
 31 62  1  0  0  0  0
 31 70  1  0  0  0  0
 32 64  1  0  0  0  0
 32 67  1  0  0  0  0
 33 68  1  0  0  0  0
 33 74  2  0  0  0  0
 34 49  1  0  0  0  0
 34 71  1  0  0  0  0
 34 75  2  0  0  0  0
 35 58  1  0  0  0  0
 35 65  1  0  0  0  0
 35 76  2  0  0  0  0
 36 59  1  0  0  0  0
 36 72  1  0  0  0  0
 36 77  2  0  0  0  0
 37 60  1  0  0  0  0
 37 70  1  0  0  0  0
 37 78  2  0  0  0  0
 38 66  1  0  0  0  0
 38 69  1  0  0  0  0
 38 79  2  0  0  0  0
 39 42  1  0  0  0  0
 40 49  1  0  0  0  0
 41 65  1  0  0  0  0
 42 44  1  0  0  0  0
 43 45  1  0  0  0  0
 43 46  1  0  0  0  0
 44 48  1  0  0  0  0
 45 50  1  0  0  0  0
 46 66  1  0  0  0  0
 47 50  1  0  0  0  0
 47 66  1  0  0  0  0
 48 71  1  0  0  0  0
 49 65  1  0  0  0  0
 50 64  1  0  0  0  0
 51 59  1  0  0  0  0
 52 60  1  0  0  0  0
 53 60  1  0  0  0  0
 54 61  1  0  0  0  0
 55 61  1  0  0  0  0
 56 61  1  0  0  0  0
 57 73  1  0  0  0  0
 58 61  1  0  0  0  0
 58 72  1  0  0  0  0
 59 73  1  0  0  0  0
 60 81  1  0  0  0  0
 63 64  1  0  0  0  0
M  CHG  1  73   1
M  ISO  4  38 100  60 101  69 100  81 101
M  END
> <Batch ID>
0185

> <Smiles>
CNC(C)C(=O)NC(C(=O)N1Cc2cc([101O:1][101C:1](C)(C)C(=O)Nc3ncc([100NH:0][100C:0](=O)N4CCCC(n5nc(-c6ccc(Oc7ccc(F)cc7F)cc6)c(C(N)=O)c5N)C4)cc3F)ccc2CC1C(=O)NC1CCCc2ccccc21)C(C)(C)C

> <Shape>
0.264

> <Color>
0.089

> <Negative vol penalty>
0.000

$$$$

  -OEChem-04052305053D

 88 96  0     1  0  0  0  0  0999 V2000
  -28.2506  -10.5569   19.7138 C   0  0  0  0  0  0  0  0  0  0  0  0
  -28.6568  -11.7966   19.2304 C   0  0  0  0  0  0  0  0  0  0  0  0
  -20.9841  -25.7870   18.0952 C   0  0  0  0  0  0  0  0  0  0  0  0
  -21.6030  -24.3956   19.9709 C   0  0  0  0  0  0  0  0  0  0  0  0
  -26.9838  -10.4109   20.2775 C   0  0  0  0  0  0  0  0  0  0  0  0
  -27.7960  -12.8907   19.3094 C   0  0  0  0  0  0  0  0  0  0  0  0
  -29.3507  -18.7371   20.2621 C   0  0  0  0  0  0  0  0  0  0  0  0
  -20.7352  -24.6467   17.3314 C   0  0  0  0  0  0  0  0  0  0  0  0
  -21.3541  -23.2553   19.2071 C   0  0  0  0  0  0  0  0  0  0  0  0
  -29.5271  -19.8141   19.3945 C   0  0  0  0  0  0  0  0  0  0  0  0
  -22.9245  -21.4801   16.7960 C   0  0  0  0  0  0  0  0  0  0  0  0
  -23.8631  -20.4495   16.8452 C   0  0  0  0  0  0  0  0  0  0  0  0
  -27.2672  -20.5328   19.8368 C   0  0  0  0  0  0  0  0  0  0  0  0
  -22.1691  -18.9467   17.6873 C   0  0  0  0  0  0  0  0  0  0  0  0
  -21.4181  -25.6615   19.4150 C   0  0  0  0  0  0  0  0  0  0  0  0
  -20.7620  -27.5323   21.0204 C   0  0  0  0  0  0  0  0  0  0  0  0
  -26.1106  -11.5059   20.3722 C   0  0  0  0  0  0  0  0  0  0  0  0
  -28.1256  -18.5434   20.9163 C   0  0  0  0  0  0  0  0  0  0  0  0
  -26.5158  -12.7588   19.8737 C   0  0  0  0  0  0  0  0  0  0  0  0
  -27.0787  -19.4540   20.7142 C   0  0  0  0  0  0  0  0  0  0  0  0
  -20.9202  -23.3809   17.8874 C   0  0  0  0  0  0  0  0  0  0  0  0
  -28.4843  -20.7105   19.1795 C   0  0  0  0  0  0  0  0  0  0  0  0
  -21.6081  -21.2440   17.1926 C   0  0  0  0  0  0  0  0  0  0  0  0
  -23.4855  -19.1828   17.2908 C   0  0  0  0  0  0  0  0  0  0  0  0
  -21.2305  -19.9773   17.6382 C   0  0  0  0  0  0  0  0  0  0  0  0
  -21.6759  -26.8390   20.2043 C   0  0  0  0  0  0  0  0  0  0  0  0
  -27.5698  -25.9946   22.7955 C   0  0  0  0  0  0  0  0  0  0  0  0
  -21.4917  -28.5687   21.5494 C   0  0  0  0  0  0  0  0  0  0  0  0
  -26.4480  -25.1941   22.8492 C   0  0  0  0  0  0  0  0  0  0  0  0
  -27.9281  -24.8031   20.9894 C   0  0  0  0  0  0  0  0  0  0  0  0
  -19.3773  -27.2634   21.2773 C   0  0  0  0  0  0  0  0  0  0  0  0
  -25.9218  -16.2528   20.9189 C   0  0  0  0  0  0  0  0  0  0  0  0
  -24.6158  -18.0507   23.2820 C   0  0  0  0  0  0  0  0  0  0  0  0
  -29.6561  -24.6227   19.1648 C   0  0  0  0  0  0  0  0  0  0  0  0
  -24.2967  -21.1142   24.7518 C   0  0  0  0  0  0  0  0  0  0  0  0
  -27.5219  -28.9192   22.2064 C   0  0  0  0  0  0  0  0  0  0  0  0
  -24.7331  -11.2885   20.9467 C   0  0  0  0  0  0  0  0  0  0  0  0
  -27.9601  -17.3918   21.8696 C   0  0  0  0  0  0  0  0  0  0  0  0
  -25.7505  -19.3020   21.4079 C   0  0  0  0  0  0  0  0  0  0  0  0
  -24.0230  -12.5833   21.3332 C   0  0  0  0  0  0  0  0  0  0  0  0
  -25.2205  -31.3995   20.6116 C   0  0  0  0  0  0  0  0  0  0  0  0
  -24.1508  -13.6158   20.2176 C   0  0  0  0  0  0  0  0  0  0  0  0
  -23.9952  -30.5279   20.3406 C   0  0  0  0  0  0  0  0  0  0  0  0
  -26.5007  -30.5729   20.5931 C   0  0  0  0  0  0  0  0  0  0  0  0
  -25.2659  -28.5419   21.2765 C   0  0  0  0  0  0  0  0  0  0  0  0
  -25.6198  -13.9751   19.9640 C   0  0  1  0  0  0  0  0  0  0  0  0
  -26.5016  -17.0003   22.0863 C   0  0  1  0  0  0  0  0  0  0  0  0
  -23.9466  -29.3314   21.3060 C   0  0  2  0  0  0  0  0  0  0  0  0
  -31.1705  -24.2571   17.2099 C   0  0  0  0  0  0  0  0  0  0  0  0
  -23.1312  -22.2793   26.6443 C   0  0  0  0  0  0  0  0  0  0  0  0
  -29.7921  -28.4264   24.9214 C   0  0  0  0  0  0  0  0  0  0  0  0
  -30.1973  -26.0254   24.3822 C   0  0  0  0  0  0  0  0  0  0  0  0
  -22.0131  -18.0280   21.6898 C   0  0  0  0  0  0  0  0  0  0  0  0
  -21.2147  -19.9360   23.1006 C   0  0  0  0  0  0  0  0  0  0  0  0
  -21.7291  -17.7356   24.1572 C   0  0  0  0  0  0  0  0  0  0  0  0
  -26.1630  -28.6714   24.3257 C   0  0  0  0  0  0  0  0  0  0  0  0
  -26.8619  -21.8641   26.0233 C   0  0  0  0  0  0  0  0  0  0  0  0
  -29.9725  -22.2937   18.2126 C   0  0  0  0  0  0  0  0  0  1  0  0
  -27.9362  -27.0515   23.7619 C   0  0  1  0  0  0  0  0  0  0  0  0
  -23.6270  -19.1902   23.3361 C   0  0  1  0  0  0  0  0  0  0  0  0
  -29.8882  -23.7890   17.8969 C   0  0  1  0  0  0  0  0  0  0  0  0
  -24.3905  -21.5498   26.2030 C   0  0  2  0  0  0  0  0  0  0  0  0
  -29.4772  -27.3010   23.9254 C   0  0  0  0  0  0  0  0  0  0  0  0
  -22.1703  -18.7245   23.0562 C   0  0  0  0  0  0  0  0  0  0  0  0
  -22.8932  -27.3887   20.2110 N   0  0  0  0  0  0  0  0  0  0  0  0
  -28.4199  -25.7715   21.7299 N   0  0  0  0  0  0  0  0  0  0  0  0
  -22.7492  -28.4384   21.0378 N   0  0  0  0  0  0  0  0  0  0  0  0
  -25.6356  -18.1565   22.3256 N   0  0  0  0  0  0  0  0  0  0  0  0
  -26.4159  -29.4210   21.5008 N   0  0  0  0  0  0  0  0  0  0  0  0
  -21.1739  -29.5696   22.3977 N   0  0  0  0  0  0  0  0  0  0  0  0
  -25.4601  -25.2005   23.7769 N   0  0  0  0  0  0  0  0  0  0  0  0
  -18.7841  -26.1581   20.6521 N   0  0  0  0  0  0  0  0  0  0  0  0
  -28.4755  -24.2550   19.8049 N   0  0  0  0  0  0  0  0  0  0  0  0
  -26.1008  -14.8840   20.9823 N   0  0  0  0  0  0  0  0  0  0  0  0
  -23.8111  -19.8290   24.6348 N   0  0  0  0  0  0  0  0  0  0  0  0
  -27.2662  -28.3037   23.4410 N   0  0  0  0  0  0  0  0  0  0  0  0
  -25.5537  -22.4612   26.3961 N   0  3  0  0  0  0  0  0  0  0  0  0
  -18.6822  -27.9916   22.0257 O   0  0  0  0  0  0  0  0  0  0  0  0
  -25.3527  -16.8718   20.0275 O   0  0  0  0  0  0  0  0  0  0  0  0
  -24.4922  -17.1051   24.0644 O   0  0  0  0  0  0  0  0  0  0  0  0
  -30.4438  -25.4969   19.5146 O   0  0  0  0  0  0  0  0  0  0  0  0
  -24.6184  -21.8425   23.8156 O   0  0  0  0  0  0  0  0  0  0  0  0
  -28.6706  -29.0067   21.7538 O   0  0  0  0  0  0  0  0  0  0  0  0
  -20.6772  -22.2680   17.1424 O   0  0  0  0  0  0  0  0  0  0  0  0
  -28.6536  -21.7623   18.3327 O   0  0  0  0  0  0  0  0  0  1  0  0
  -24.3866  -18.1929   17.3365 F   0  0  0  0  0  0  0  0  0  0  0  0
  -19.9671  -19.7442   18.0193 F   0  0  0  0  0  0  0  0  0  0  0  0
  -26.4462  -24.1159   21.5154 S   0  0  0  0  0  0  0  0  0  0  0  0
  1  2  1  0  0  0  0
  1  5  2  0  0  0  0
  2  6  2  0  0  0  0
  3  8  2  0  0  0  0
  3 15  1  0  0  0  0
  4  9  1  0  0  0  0
  4 15  2  0  0  0  0
  5 17  1  0  0  0  0
  6 19  1  0  0  0  0
  7 10  2  0  0  0  0
  7 18  1  0  0  0  0
  8 21  1  0  0  0  0
  9 21  2  0  0  0  0
 10 22  1  0  0  0  0
 11 12  2  0  0  0  0
 11 23  1  0  0  0  0
 12 24  1  0  0  0  0
 13 20  1  0  0  0  0
 13 22  2  0  0  0  0
 14 24  2  0  0  0  0
 14 25  1  0  0  0  0
 15 26  1  0  0  0  0
 16 26  1  0  0  0  0
 16 28  2  0  0  0  0
 16 31  1  0  0  0  0
 17 19  2  0  0  0  0
 17 37  1  0  0  0  0
 18 20  2  0  0  0  0
 18 38  1  0  0  0  0
 19 46  1  0  0  0  0
 20 39  1  0  0  0  0
 21 84  1  0  0  0  0
 22 85  1  0  0  0  0
 23 25  2  0  0  0  0
 23 84  1  0  0  0  0
 24 86  1  0  0  0  0
 25 87  1  0  0  0  0
 26 65  2  0  0  0  0
 27 29  2  0  0  0  0
 27 59  1  0  0  0  0
 27 66  1  0  0  0  0
 28 67  1  0  0  0  0
 28 70  1  0  0  0  0
 29 71  1  0  0  0  0
 29 88  1  0  0  0  0
 30 66  2  0  0  0  0
 30 73  1  0  0  0  0
 30 88  1  0  0  0  0
 31 72  1  0  0  0  0
 31 78  2  0  0  0  0
 32 47  1  0  0  0  0
 32 74  1  0  0  0  0
 32 79  2  0  0  0  0
 33 60  1  0  0  0  0
 33 68  1  0  0  0  0
 33 80  2  0  0  0  0
 34 61  1  0  0  0  0
 34 73  1  0  0  0  0
 34 81  2  0  0  0  0
 35 62  1  0  0  0  0
 35 75  1  0  0  0  0
 35 82  2  0  0  0  0
 36 69  1  0  0  0  0
 36 76  1  0  0  0  0
 36 83  2  0  0  0  0
 37 40  1  0  0  0  0
 38 47  1  0  0  0  0
 39 68  1  0  0  0  0
 40 42  1  0  0  0  0
 41 43  1  0  0  0  0
 41 44  1  0  0  0  0
 42 46  1  0  0  0  0
 43 48  1  0  0  0  0
 44 69  1  0  0  0  0
 45 48  1  0  0  0  0
 45 69  1  0  0  0  0
 46 74  1  0  0  0  0
 47 68  1  0  0  0  0
 48 67  1  0  0  0  0
 49 61  1  0  0  0  0
 50 62  1  0  0  0  0
 51 63  1  0  0  0  0
 52 63  1  0  0  0  0
 53 64  1  0  0  0  0
 54 64  1  0  0  0  0
 55 64  1  0  0  0  0
 56 76  1  0  0  0  0
 57 77  1  0  0  0  0
 58 61  1  0  0  0  0
 58 85  1  0  0  0  0
 59 63  1  0  0  0  0
 59 76  1  0  0  0  0
 60 64  1  0  0  0  0
 60 75  1  0  0  0  0
 62 77  1  0  0  0  0
 65 67  1  0  0  0  0
M  CHG  1  77   1
M  ISO  4  36 100  58 101  76 100  85 101
M  END
> <Batch ID>
0185

> <Smiles>
CNC(C)C(=O)NC(C(=O)N1Cc2cc([101O:1][101CH2:1]C(C)C(=O)Nc3nc(C(C(C)C)[100N:0](C)[100C:0](=O)N4CCCC(n5nc(-c6ccc(Oc7ccc(F)cc7F)cc6)c(C(N)=O)c5N)C4)c(N)s3)ccc2CC1C(=O)NC1CCCc2ccccc21)C(C)(C)C

> <Shape>
0.202

> <Color>
0.074

> <Negative vol penalty>
0.000

$$$$

  -OEChem-04052305053D

 88 96  0     1  0  0  0  0  0999 V2000
  -16.2777  -28.1582   26.8107 C   0  0  0  0  0  0  0  0  0  0  0  0
  -16.9480  -27.0934   26.2172 C   0  0  0  0  0  0  0  0  0  0  0  0
  -23.1157   -9.8187   21.4834 C   0  0  0  0  0  0  0  0  0  0  0  0
  -23.8011  -10.8031   23.5806 C   0  0  0  0  0  0  0  0  0  0  0  0
  -16.2716  -29.4080   26.1927 C   0  0  0  0  0  0  0  0  0  0  0  0
  -17.6117  -27.2775   25.0047 C   0  0  0  0  0  0  0  0  0  0  0  0
  -22.8102  -24.5847   23.2075 C   0  0  0  0  0  0  0  0  0  0  0  0
  -22.3771   -8.8589   22.1753 C   0  0  0  0  0  0  0  0  0  0  0  0
  -23.0625   -9.8433   24.2726 C   0  0  0  0  0  0  0  0  0  0  0  0
  -23.0624  -23.4850   22.3885 C   0  0  0  0  0  0  0  0  0  0  0  0
  -22.9769   -5.9815   23.8443 C   0  0  0  0  0  0  0  0  0  0  0  0
  -23.0855   -4.6555   23.4256 C   0  0  0  0  0  0  0  0  0  0  0  0
  -23.3943  -24.9655   20.5131 C   0  0  0  0  0  0  0  0  0  0  0  0
  -20.7119   -4.6023   22.9783 C   0  0  0  0  0  0  0  0  0  0  0  0
  -27.6238  -19.1615   20.5794 C   0  0  0  0  0  0  0  0  0  0  0  0
  -23.8277  -10.7909   22.1861 C   0  0  0  0  0  0  0  0  0  0  0  0
  -24.1449  -13.0412   21.0271 C   0  0  0  0  0  0  0  0  0  0  0  0
  -16.9436  -29.6100   24.9769 C   0  0  0  0  0  0  0  0  0  0  0  0
  -22.8375  -25.8846   22.6821 C   0  0  0  0  0  0  0  0  0  0  0  0
  -17.6134  -28.5308   24.3693 C   0  0  0  0  0  0  0  0  0  0  0  0
  -23.1446  -26.0802   21.3281 C   0  0  0  0  0  0  0  0  0  0  0  0
  -27.8858  -20.2528   19.7669 C   0  0  0  0  0  0  0  0  0  0  0  0
  -22.3505   -8.8711   23.5699 C   0  0  0  0  0  0  0  0  0  0  0  0
  -23.3517  -23.6751   21.0404 C   0  0  0  0  0  0  0  0  0  0  0  0
  -21.7357   -6.6180   23.8301 C   0  0  0  0  0  0  0  0  0  0  0  0
  -21.9530   -3.9658   22.9926 C   0  0  0  0  0  0  0  0  0  0  0  0
  -20.6032   -5.9284   23.3971 C   0  0  0  0  0  0  0  0  0  0  0  0
  -29.1404  -20.3360   19.1733 C   0  0  0  0  0  0  0  0  0  0  0  0
  -30.0814  -19.3394   19.4071 C   0  0  0  0  0  0  0  0  0  0  0  0
  -24.5913  -11.7823   21.4719 C   0  0  0  0  0  0  0  0  0  0  0  0
  -29.7212  -18.2891   20.2359 C   0  0  0  0  0  0  0  0  0  0  0  0
  -25.2397  -13.5954   20.4102 C   0  0  0  0  0  0  0  0  0  0  0  0
  -22.8559  -13.6547   21.1599 C   0  0  0  0  0  0  0  0  0  0  0  0
  -20.7083  -28.2246   22.3741 C   0  0  0  0  0  0  0  0  0  0  0  0
  -23.2824  -29.9024   21.3341 C   0  0  0  0  0  0  0  0  0  0  0  0
  -26.4006  -29.8605   19.9479 C   0  0  0  0  0  0  0  0  0  0  0  0
  -25.6203  -21.3060   20.0790 C   0  0  0  0  0  0  0  0  0  0  0  0
  -30.7028  -14.7293   20.2888 C   0  0  0  0  0  0  0  0  0  0  0  0
  -16.8692  -30.9670   24.3230 C   0  0  0  0  0  0  0  0  0  0  0  0
  -22.5895  -27.0620   23.5847 C   0  0  0  0  0  0  0  0  0  0  0  0
  -23.2062  -27.4566   20.7197 C   0  0  0  0  0  0  0  0  0  0  0  0
  -17.9117  -31.1730   23.2271 C   0  0  0  0  0  0  0  0  0  0  0  0
  -29.6696  -11.5384   19.0941 C   0  0  0  0  0  0  0  0  0  0  0  0
  -17.9591  -29.9619   22.3009 C   0  0  0  0  0  0  0  0  0  0  0  0
  -28.2223  -11.4189   19.5748 C   0  0  0  0  0  0  0  0  0  0  0  0
  -30.5449  -12.2633   20.1140 C   0  0  0  0  0  0  0  0  0  0  0  0
  -28.5914  -13.4624   21.0192 C   0  0  0  0  0  0  0  0  0  0  0  0
  -18.3658  -28.6972   23.0668 C   0  0  1  0  0  0  0  0  0  0  0  0
  -22.1375  -28.3085   22.8302 C   0  0  1  0  0  0  0  0  0  0  0  0
  -27.6577  -12.7879   19.9997 C   0  0  2  0  0  0  0  0  0  0  0  0
  -28.2371  -31.3902   19.1831 C   0  0  0  0  0  0  0  0  0  0  0  0
  -24.6811  -22.5422   18.0917 C   0  0  0  0  0  0  0  0  0  0  0  0
  -21.6727  -30.5801   18.8322 C   0  0  0  0  0  0  0  0  0  0  0  0
  -23.8116  -31.2665   17.7267 C   0  0  0  0  0  0  0  0  0  0  0  0
  -23.0137  -32.4783   19.7559 C   0  0  0  0  0  0  0  0  0  0  0  0
  -28.3207  -28.7143   21.8866 C   0  0  0  0  0  0  0  0  0  0  0  0
  -30.7046  -17.2010   20.5116 C   0  0  1  0  0  0  0  0  0  0  0  0
  -23.9356  -30.1361   19.9934 C   0  0  1  0  0  0  0  0  0  0  0  0
  -27.6858  -30.5681   20.3377 C   0  0  2  0  0  0  0  0  0  0  0  0
  -24.8731  -22.5484   19.6010 C   0  0  1  0  0  0  0  0  0  1  0  0
  -31.5844  -17.4908   21.7322 C   0  0  0  0  0  0  0  0  0  0  0  0
  -23.1054  -31.0891   19.0878 C   0  0  0  0  0  0  0  0  0  0  0  0
  -28.5124  -18.1740   20.8301 N   0  0  0  0  0  0  0  0  0  0  0  0
  -25.8700  -11.5502   21.1635 N   0  0  0  0  0  0  0  0  0  0  0  0
  -26.2364  -12.6707   20.5183 N   0  0  0  0  0  0  0  0  0  0  0  0
  -22.9501  -28.5754   21.6417 N   0  0  0  0  0  0  0  0  0  0  0  0
  -29.9546  -13.5549   20.4734 N   0  0  0  0  0  0  0  0  0  0  0  0
  -25.4375  -14.7786   19.7910 N   0  0  0  0  0  0  0  0  0  0  0  0
  -21.8439  -12.9466   21.8222 N   0  0  0  0  0  0  0  0  0  0  0  0
  -26.9057  -21.2505   19.5502 N   0  0  0  0  0  0  0  0  0  0  0  0
  -19.7938  -28.6858   23.3016 N   0  0  0  0  0  0  0  0  0  0  0  0
  -25.2878  -30.6063   20.2745 N   0  0  0  0  0  0  0  0  0  0  0  0
  -30.0664  -15.9108   20.6490 N   0  0  0  0  0  0  0  0  0  0  0  0
  -28.7207  -29.5758   20.7443 N   0  3  0  0  0  0  0  0  0  0  0  0
  -22.6041  -14.7904   20.6903 O   0  0  0  0  0  0  0  0  0  0  0  0
  -20.4543  -27.7760   21.2624 O   0  0  0  0  0  0  0  0  0  0  0  0
  -23.0811  -30.8609   22.0841 O   0  0  0  0  0  0  0  0  0  0  0  0
  -26.3856  -28.7583   19.4044 O   0  0  0  0  0  0  0  0  0  0  0  0
  -25.0968  -20.5051   20.8482 O   0  0  0  0  0  0  0  0  0  0  0  0
  -31.8507  -14.7256   19.8315 O   0  0  0  0  0  0  0  0  0  0  0  0
  -21.6297   -7.9348   24.2454 O   0  0  0  0  0  0  0  0  0  0  0  0
  -23.5976  -22.6034   20.2386 O   0  0  0  0  0  0  0  0  0  1  0  0
  -22.0578   -2.6929   22.5891 F   0  0  0  0  0  0  0  0  0  0  0  0
  -19.4084   -6.5349   23.3800 F   0  0  0  0  0  0  0  0  0  0  0  0
  -29.4519  -21.3682   18.3773 F   0  0  0  0  0  0  0  0  0  0  0  0
  -31.2945  -19.4033   18.8450 F   0  0  0  0  0  0  0  0  0  0  0  0
  -30.8131  -17.6487   22.8388 F   0  0  0  0  0  0  0  0  0  0  0  0
  -32.2652  -18.6518   21.5665 F   0  0  0  0  0  0  0  0  0  0  0  0
  1  2  1  0  0  0  0
  1  5  2  0  0  0  0
  2  6  2  0  0  0  0
  3  8  2  0  0  0  0
  3 16  1  0  0  0  0
  4  9  1  0  0  0  0
  4 16  2  0  0  0  0
  5 18  1  0  0  0  0
  6 20  1  0  0  0  0
  7 10  2  0  0  0  0
  7 19  1  0  0  0  0
  8 23  1  0  0  0  0
  9 23  2  0  0  0  0
 10 24  1  0  0  0  0
 11 12  2  0  0  0  0
 11 25  1  0  0  0  0
 12 26  1  0  0  0  0
 13 21  1  0  0  0  0
 13 24  2  0  0  0  0
 14 26  2  0  0  0  0
 14 27  1  0  0  0  0
 15 22  1  0  0  0  0
 15 63  2  0  0  0  0
 16 30  1  0  0  0  0
 17 30  1  0  0  0  0
 17 32  2  0  0  0  0
 17 33  1  0  0  0  0
 18 20  2  0  0  0  0
 18 39  1  0  0  0  0
 19 21  2  0  0  0  0
 19 40  1  0  0  0  0
 20 48  1  0  0  0  0
 21 41  1  0  0  0  0
 22 28  2  0  0  0  0
 22 70  1  0  0  0  0
 23 81  1  0  0  0  0
 24 82  1  0  0  0  0
 25 27  2  0  0  0  0
 25 81  1  0  0  0  0
 26 83  1  0  0  0  0
 27 84  1  0  0  0  0
 28 29  1  0  0  0  0
 28 85  1  0  0  0  0
 29 31  2  0  0  0  0
 29 86  1  0  0  0  0
 30 64  2  0  0  0  0
 31 57  1  0  0  0  0
 31 63  1  0  0  0  0
 32 65  1  0  0  0  0
 32 68  1  0  0  0  0
 33 69  1  0  0  0  0
 33 75  2  0  0  0  0
 34 49  1  0  0  0  0
 34 71  1  0  0  0  0
 34 76  2  0  0  0  0
 35 58  1  0  0  0  0
 35 66  1  0  0  0  0
 35 77  2  0  0  0  0
 36 59  1  0  0  0  0
 36 72  1  0  0  0  0
 36 78  2  0  0  0  0
 37 60  1  0  0  0  0
 37 70  1  0  0  0  0
 37 79  2  0  0  0  0
 38 67  1  0  0  0  0
 38 73  1  0  0  0  0
 38 80  2  0  0  0  0
 39 42  1  0  0  0  0
 40 49  1  0  0  0  0
 41 66  1  0  0  0  0
 42 44  1  0  0  0  0
 43 45  1  0  0  0  0
 43 46  1  0  0  0  0
 44 48  1  0  0  0  0
 45 50  1  0  0  0  0
 46 67  1  0  0  0  0
 47 50  1  0  0  0  0
 47 67  1  0  0  0  0
 48 71  1  0  0  0  0
 49 66  1  0  0  0  0
 50 65  1  0  0  0  0
 51 59  1  0  0  0  0
 52 60  1  0  0  0  0
 53 62  1  0  0  0  0
 54 62  1  0  0  0  0
 55 62  1  0  0  0  0
 56 74  1  0  0  0  0
 57 61  1  0  0  0  0
 57 73  1  0  0  0  0
 58 62  1  0  0  0  0
 58 72  1  0  0  0  0
 59 74  1  0  0  0  0
 60 82  1  0  0  0  0
 61 87  1  0  0  0  0
 61 88  1  0  0  0  0
 64 65  1  0  0  0  0
M  CHG  1  74   1
M  ISO  4  38 100  60 101  73 100  82 101
M  END
> <Batch ID>
0185

> <Smiles>
CNC(C)C(=O)NC(C(=O)N1Cc2cc([101O:1][101CH:1](C)C(=O)Nc3cnc(C([100NH:0][100C:0](=O)N4CCCC(n5nc(-c6ccc(Oc7ccc(F)cc7F)cc6)c(C(N)=O)c5N)C4)C(F)F)c(F)c3F)ccc2CC1C(=O)NC1CCCc2ccccc21)C(C)(C)C

> <Shape>
0.317

> <Color>
0.164

> <Negative vol penalty>
0.000

$$$$

  -OEChem-04052305053D

 85 93  0     1  0  0  0  0  0999 V2000
  -16.6019  -29.4232   23.2162 C   0  0  0  0  0  0  0  0  0  0  0  0
  -17.4819  -28.6577   22.4579 C   0  0  0  0  0  0  0  0  0  0  0  0
  -24.5350   -8.8612   20.4842 C   0  0  0  0  0  0  0  0  0  0  0  0
  -22.7939  -10.3106   21.3239 C   0  0  0  0  0  0  0  0  0  0  0  0
  -17.0890  -30.4575   24.0142 C   0  0  0  0  0  0  0  0  0  0  0  0
  -18.8496  -28.9268   22.4964 C   0  0  0  0  0  0  0  0  0  0  0  0
  -23.4138  -24.8614   22.1140 C   0  0  0  0  0  0  0  0  0  0  0  0
  -23.7374   -7.7485   20.7510 C   0  0  0  0  0  0  0  0  0  0  0  0
  -21.9963   -9.1979   21.5906 C   0  0  0  0  0  0  0  0  0  0  0  0
  -24.2235  -24.4573   21.0534 C   0  0  0  0  0  0  0  0  0  0  0  0
  -22.8699   -5.8932   23.4398 C   0  0  0  0  0  0  0  0  0  0  0  0
  -23.4716   -4.7998   24.0628 C   0  0  0  0  0  0  0  0  0  0  0  0
  -25.9189  -26.0213   21.7598 C   0  0  0  0  0  0  0  0  0  0  0  0
  -22.9045   -3.4093   22.1702 C   0  0  0  0  0  0  0  0  0  0  0  0
  -24.0633  -10.1423   20.7707 C   0  0  0  0  0  0  0  0  0  0  0  0
  -24.9336  -12.0391   19.3036 C   0  0  0  0  0  0  0  0  0  0  0  0
  -18.4644  -30.7332   24.0699 C   0  0  0  0  0  0  0  0  0  0  0  0
  -23.8467  -25.8579   23.0005 C   0  0  0  0  0  0  0  0  0  0  0  0
  -19.3554  -29.9667   23.2948 C   0  0  0  0  0  0  0  0  0  0  0  0
  -25.1138  -26.4344   22.8323 C   0  0  0  0  0  0  0  0  0  0  0  0
  -22.4680   -7.9168   21.3042 C   0  0  0  0  0  0  0  0  0  0  0  0
  -25.4751  -25.0393   20.8745 C   0  0  0  0  0  0  0  0  0  0  0  0
  -22.2855   -5.7446   22.1820 C   0  0  0  0  0  0  0  0  0  0  0  0
  -23.4889   -3.5579   23.4280 C   0  0  0  0  0  0  0  0  0  0  0  0
  -22.3028   -4.5027   21.5472 C   0  0  0  0  0  0  0  0  0  0  0  0
  -24.8870  -11.2921   20.4959 C   0  0  0  0  0  0  0  0  0  0  0  0
  -28.9243  -19.3503   20.9483 C   0  0  0  0  0  0  0  0  0  0  0  0
  -25.8653  -13.0182   19.5479 C   0  0  0  0  0  0  0  0  0  0  0  0
  -27.7481  -18.6351   21.0335 C   0  0  0  0  0  0  0  0  0  0  0  0
  -27.7930  -20.3885   19.3823 C   0  0  0  0  0  0  0  0  0  0  0  0
  -24.2000  -11.8637   18.0842 C   0  0  0  0  0  0  0  0  0  0  0  0
  -22.8092  -28.7543   23.7996 C   0  0  0  0  0  0  0  0  0  0  0  0
  -27.4403  -22.7970   18.8059 C   0  0  0  0  0  0  0  0  0  0  0  0
  -25.1805  -28.5691   26.0052 C   0  0  0  0  0  0  0  0  0  0  0  0
  -28.1603  -27.1980   26.9474 C   0  0  0  0  0  0  0  0  0  0  0  0
  -28.0825  -16.9180   22.8462 C   0  0  0  0  0  0  0  0  0  0  0  0
  -18.9390  -31.8919   24.9107 C   0  0  0  0  0  0  0  0  0  0  0  0
  -22.9724  -26.2637   24.1552 C   0  0  0  0  0  0  0  0  0  0  0  0
  -25.6335  -27.4939   23.7682 C   0  0  0  0  0  0  0  0  0  0  0  0
  -20.4406  -31.8709   25.1846 C   0  0  0  0  0  0  0  0  0  0  0  0
  -29.1511  -13.5608   23.3598 C   0  0  0  0  0  0  0  0  0  0  0  0
  -21.2136  -31.5873   23.9005 C   0  0  0  0  0  0  0  0  0  0  0  0
  -28.1409  -12.7327   22.5624 C   0  0  0  0  0  0  0  0  0  0  0  0
  -28.4948  -14.7695   24.0246 C   0  0  0  0  0  0  0  0  0  0  0  0
  -26.7133  -14.8044   22.3235 C   0  0  0  0  0  0  0  0  0  0  0  0
  -20.8484  -30.2119   23.3291 C   0  0  1  0  0  0  0  0  0  0  0  0
  -23.3013  -27.6523   24.6946 C   0  0  1  0  0  0  0  0  0  0  0  0
  -27.3400  -13.6122   21.5822 C   0  0  2  0  0  0  0  0  0  0  0  0
  -29.8694  -27.2708   28.7834 C   0  0  0  0  0  0  0  0  0  0  0  0
  -26.2147  -31.2322   24.9335 C   0  0  0  0  0  0  0  0  0  0  0  0
  -28.3803  -30.7839   26.1072 C   0  0  0  0  0  0  0  0  0  0  0  0
  -26.2746  -31.0160   27.4243 C   0  0  0  0  0  0  0  0  0  0  0  0
  -27.7643  -24.3357   27.5876 C   0  0  0  0  0  0  0  0  0  0  0  0
  -26.1332  -23.2981   19.3943 C   0  0  0  0  0  0  0  0  0  1  0  0
  -28.3507  -21.2393   17.0303 C   0  0  0  0  0  0  0  0  0  0  0  0
  -27.4403  -21.3600   18.2734 C   0  0  1  0  0  0  0  0  0  0  0  0
  -26.6444  -28.9367   26.0345 C   0  0  1  0  0  0  0  0  0  0  0  0
  -28.6173  -26.5853   28.2589 C   0  0  2  0  0  0  0  0  0  0  0  0
  -28.3168  -19.8493   16.3993 C   0  0  2  0  0  0  0  0  0  0  0  0
  -26.8682  -30.4736   26.1059 C   0  0  0  0  0  0  0  0  0  0  0  0
  -25.7229  -11.7568   21.4284 N   0  0  0  0  0  0  0  0  0  0  0  0
  -28.9520  -20.3558   20.0018 N   0  0  0  0  0  0  0  0  0  0  0  0
  -26.3034  -12.8062   20.8220 N   0  0  0  0  0  0  0  0  0  0  0  0
  -24.7390  -27.8613   24.8783 N   0  0  0  0  0  0  0  0  0  0  0  0
  -27.7578  -15.5579   23.0347 N   0  0  0  0  0  0  0  0  0  0  0  0
  -30.0079  -19.1118   21.7253 N   0  0  0  0  0  0  0  0  0  0  0  0
  -26.3445  -14.0311   18.7951 N   0  0  0  0  0  0  0  0  0  0  0  0
  -23.2824  -10.8075   18.0025 N   0  0  0  0  0  0  0  0  0  0  0  0
  -27.3372  -17.5568   21.8557 N   0  0  0  0  0  0  0  0  0  0  0  0
  -21.5171  -29.1633   24.0692 N   0  0  0  0  0  0  0  0  0  0  0  0
  -27.2293  -28.1953   27.1466 N   0  0  0  0  0  0  0  0  0  0  0  0
  -28.9156  -25.1364   28.0777 N   0  3  0  0  0  0  0  0  0  0  0  0
  -24.3657  -12.6112   17.0906 O   0  0  0  0  0  0  0  0  0  0  0  0
  -23.5476  -29.2013   22.9297 O   0  0  0  0  0  0  0  0  0  0  0  0
  -28.4469  -23.5054   18.7776 O   0  0  0  0  0  0  0  0  0  0  0  0
  -24.4570  -28.8917   26.9508 O   0  0  0  0  0  0  0  0  0  0  0  0
  -28.5893  -26.8312   25.8556 O   0  0  0  0  0  0  0  0  0  0  0  0
  -28.9759  -17.4680   23.4954 O   0  0  0  0  0  0  0  0  0  0  0  0
  -21.6893   -6.8312   21.5644 O   0  0  0  0  0  0  0  0  0  0  0  0
  -26.2672  -24.6471   19.8398 O   0  0  0  0  0  0  0  0  0  1  0  0
  -24.0681   -2.5084   24.0258 F   0  0  0  0  0  0  0  0  0  0  0  0
  -21.7441   -4.3541   20.3382 F   0  0  0  0  0  0  0  0  0  0  0  0
  -29.1305  -19.8163   15.3125 F   0  0  0  0  0  0  0  0  0  0  0  0
  -26.6236  -19.2388   19.8879 S   0  0  0  0  0  0  0  0  0  0  0  0
  -26.6663  -19.4455   15.8743 Cl  0  0  0  0  0  0  0  0  0  0  0  0
  1  2  1  0  0  0  0
  1  5  2  0  0  0  0
  2  6  2  0  0  0  0
  3  8  2  0  0  0  0
  3 15  1  0  0  0  0
  4  9  1  0  0  0  0
  4 15  2  0  0  0  0
  5 17  1  0  0  0  0
  6 19  1  0  0  0  0
  7 10  2  0  0  0  0
  7 18  1  0  0  0  0
  8 21  1  0  0  0  0
  9 21  2  0  0  0  0
 10 22  1  0  0  0  0
 11 12  2  0  0  0  0
 11 23  1  0  0  0  0
 12 24  1  0  0  0  0
 13 20  1  0  0  0  0
 13 22  2  0  0  0  0
 14 24  2  0  0  0  0
 14 25  1  0  0  0  0
 15 26  1  0  0  0  0
 16 26  1  0  0  0  0
 16 28  2  0  0  0  0
 16 31  1  0  0  0  0
 17 19  2  0  0  0  0
 17 37  1  0  0  0  0
 18 20  2  0  0  0  0
 18 38  1  0  0  0  0
 19 46  1  0  0  0  0
 20 39  1  0  0  0  0
 21 79  1  0  0  0  0
 22 80  1  0  0  0  0
 23 25  2  0  0  0  0
 23 79  1  0  0  0  0
 24 81  1  0  0  0  0
 25 82  1  0  0  0  0
 26 61  2  0  0  0  0
 27 29  2  0  0  0  0
 27 62  1  0  0  0  0
 27 66  1  0  0  0  0
 28 63  1  0  0  0  0
 28 67  1  0  0  0  0
 29 69  1  0  0  0  0
 29 84  1  0  0  0  0
 30 56  1  0  0  0  0
 30 62  2  0  0  0  0
 30 84  1  0  0  0  0
 31 68  1  0  0  0  0
 31 73  2  0  0  0  0
 32 47  1  0  0  0  0
 32 70  1  0  0  0  0
 32 74  2  0  0  0  0
 33 54  1  0  0  0  0
 33 56  1  0  0  0  0
 33 75  2  0  0  0  0
 34 57  1  0  0  0  0
 34 64  1  0  0  0  0
 34 76  2  0  0  0  0
 35 58  1  0  0  0  0
 35 71  1  0  0  0  0
 35 77  2  0  0  0  0
 36 65  1  0  0  0  0
 36 69  1  0  0  0  0
 36 78  2  0  0  0  0
 37 40  1  0  0  0  0
 38 47  1  0  0  0  0
 39 64  1  0  0  0  0
 40 42  1  0  0  0  0
 41 43  1  0  0  0  0
 41 44  1  0  0  0  0
 42 46  1  0  0  0  0
 43 48  1  0  0  0  0
 44 65  1  0  0  0  0
 45 48  1  0  0  0  0
 45 65  1  0  0  0  0
 46 70  1  0  0  0  0
 47 64  1  0  0  0  0
 48 63  1  0  0  0  0
 49 58  1  0  0  0  0
 50 60  1  0  0  0  0
 51 60  1  0  0  0  0
 52 60  1  0  0  0  0
 53 72  1  0  0  0  0
 54 80  1  0  0  0  0
 55 56  1  0  0  0  0
 55 59  1  0  0  0  0
 57 60  1  0  0  0  0
 57 71  1  0  0  0  0
 58 72  1  0  0  0  0
 59 83  1  0  0  0  0
 59 85  1  0  0  0  0
 61 63  1  0  0  0  0
M  CHG  1  72   1
M  ISO  4  36 100  54 101  69 100  80 101
M  END
> <Batch ID>
0185

> <Smiles>
CNC(C)C(=O)NC(C(=O)N1Cc2cc([101O:1][101CH2:1]C(=O)C(CC(F)Cl)c3nc(N)c([100NH:0][100C:0](=O)N4CCCC(n5nc(-c6ccc(Oc7ccc(F)cc7F)cc6)c(C(N)=O)c5N)C4)s3)ccc2CC1C(=O)NC1CCCc2ccccc21)C(C)(C)C

> <Shape>
0.202

> <Color>
0.128

> <Negative vol penalty>
0.000

$$$$

  -OEChem-04052305053D

 85 93  0     1  0  0  0  0  0999 V2000
  -21.9516  -11.2847   19.8829 C   0  0  0  0  0  0  0  0  0  0  0  0
  -21.6585  -12.5911   20.2606 C   0  0  0  0  0  0  0  0  0  0  0  0
  -30.2578  -28.2793   20.1996 C   0  0  0  0  0  0  0  0  0  0  0  0
  -29.1351  -27.3052   22.1043 C   0  0  0  0  0  0  0  0  0  0  0  0
  -23.2649  -10.8204   19.9444 C   0  0  0  0  0  0  0  0  0  0  0  0
  -22.6784  -13.4338   20.7011 C   0  0  0  0  0  0  0  0  0  0  0  0
  -22.3941  -18.0595   18.6598 C   0  0  0  0  0  0  0  0  0  0  0  0
  -31.4925  -27.9551   20.7616 C   0  0  0  0  0  0  0  0  0  0  0  0
  -30.3698  -26.9810   22.6663 C   0  0  0  0  0  0  0  0  0  0  0  0
  -21.4498  -18.9346   19.1948 C   0  0  0  0  0  0  0  0  0  0  0  0
  -32.7337  -24.5978   22.2756 C   0  0  0  0  0  0  0  0  0  0  0  0
  -32.8821  -23.3213   22.8180 C   0  0  0  0  0  0  0  0  0  0  0  0
  -23.1845  -20.0115   20.4795 C   0  0  0  0  0  0  0  0  0  0  0  0
  -33.3661  -24.2944   24.9757 C   0  0  0  0  0  0  0  0  0  0  0  0
  -17.9637  -28.3009   22.3471 C   0  0  0  0  0  0  0  0  0  0  0  0
  -29.0790  -27.9544   20.8710 C   0  0  0  0  0  0  0  0  0  0  0  0
  -27.2905  -27.8537   19.0547 C   0  0  0  0  0  0  0  0  0  0  0  0
  -24.3029  -11.6608   20.3767 C   0  0  0  0  0  0  0  0  0  0  0  0
  -23.7412  -18.1470   19.0396 C   0  0  0  0  0  0  0  0  0  0  0  0
  -24.0066  -12.9800   20.7698 C   0  0  0  0  0  0  0  0  0  0  0  0
  -24.1444  -19.1380   19.9459 C   0  0  0  0  0  0  0  0  0  0  0  0
  -31.5486  -27.3059   21.9949 C   0  0  0  0  0  0  0  0  0  0  0  0
  -21.8445  -19.9090   20.1070 C   0  0  0  0  0  0  0  0  0  0  0  0
  -32.9016  -25.7226   23.0833 C   0  0  0  0  0  0  0  0  0  0  0  0
  -33.1982  -23.1696   24.1680 C   0  0  0  0  0  0  0  0  0  0  0  0
  -33.2178  -25.5709   24.4333 C   0  0  0  0  0  0  0  0  0  0  0  0
  -27.8032  -28.2896   20.2912 C   0  0  0  0  0  0  0  0  0  0  0  0
  -26.0550  -28.4473   18.9668 C   0  0  0  0  0  0  0  0  0  0  0  0
  -19.9911  -28.0563   23.2780 C   0  0  0  0  0  0  0  0  0  0  0  0
  -19.2255  -26.5166   21.8357 C   0  0  0  0  0  0  0  0  0  0  0  0
  -27.8784  -26.9894   18.0734 C   0  0  0  0  0  0  0  0  0  0  0  0
  -25.7919  -16.2035   20.4960 C   0  0  0  0  0  0  0  0  0  0  0  0
  -20.2586  -23.0810   20.8597 C   0  0  0  0  0  0  0  0  0  0  0  0
  -27.9191  -18.5447   19.7778 C   0  0  0  0  0  0  0  0  0  0  0  0
  -28.4730  -21.8335   19.0541 C   0  0  0  0  0  0  0  0  0  0  0  0
  -22.1974  -30.4617   23.0792 C   0  0  0  0  0  0  0  0  0  0  0  0
  -25.6996  -11.0997   20.4712 C   0  0  0  0  0  0  0  0  0  0  0  0
  -24.7520  -17.2127   18.4330 C   0  0  0  0  0  0  0  0  0  0  0  0
  -25.5817  -19.2867   20.3708 C   0  0  0  0  0  0  0  0  0  0  0  0
  -26.7797  -12.1715   20.5932 C   0  0  0  0  0  0  0  0  0  0  0  0
  -23.6512  -32.3224   20.4144 C   0  0  0  0  0  0  0  0  0  0  0  0
  -26.3824  -13.2137   21.6339 C   0  0  0  0  0  0  0  0  0  0  0  0
  -24.8339  -31.4605   19.9691 C   0  0  0  0  0  0  0  0  0  0  0  0
  -23.4475  -32.2632   21.9267 C   0  0  0  0  0  0  0  0  0  0  0  0
  -24.5067  -30.0406   22.0369 C   0  0  0  0  0  0  0  0  0  0  0  0
  -25.0893  -13.9320   21.2295 C   0  0  1  0  0  0  0  0  0  0  0  0
  -26.0105  -17.0612   19.2819 C   0  0  1  0  0  0  0  0  0  0  0  0
  -24.7171  -30.0240   20.5131 C   0  0  2  0  0  0  0  0  0  0  0  0
  -21.4040  -25.1748   18.8884 C   0  0  0  0  0  0  0  0  0  0  0  0
  -30.3204  -23.4562   18.5529 C   0  0  0  0  0  0  0  0  0  0  0  0
  -28.6806  -18.5863   22.7322 C   0  0  0  0  0  0  0  0  0  0  0  0
  -29.7828  -20.8008   22.3452 C   0  0  0  0  0  0  0  0  0  0  0  0
  -30.6120  -18.7718   21.1543 C   0  0  0  0  0  0  0  0  0  0  0  0
  -27.3633  -22.4500   16.3806 C   0  0  0  0  0  0  0  0  0  0  0  0
  -21.0626  -28.5532   24.1878 C   0  0  0  0  0  0  0  0  0  0  0  0
  -21.3806  -22.0674   20.9914 C   0  0  0  0  0  0  0  0  0  1  0  0
  -21.7167  -25.1128   20.3794 C   0  0  0  0  0  0  0  0  0  0  0  0
  -20.5958  -24.5195   21.2363 C   0  0  1  0  0  0  0  0  0  0  0  0
  -28.4049  -19.7963   20.4681 C   0  0  1  0  0  0  0  0  0  0  0  0
  -29.2934  -22.5009   17.9651 C   0  0  2  0  0  0  0  0  0  0  0  0
  -29.3426  -19.4850   21.6686 C   0  0  0  0  0  0  0  0  0  0  0  0
  -18.8835  -28.8092   23.1833 N   0  0  0  0  0  0  0  0  0  0  0  0
  -18.0648  -27.1631   21.6411 N   0  0  0  0  0  0  0  0  0  0  0  0
  -26.9623  -29.0978   20.9420 N   0  0  0  0  0  0  0  0  0  0  0  0
  -20.2322  -26.9015   22.6366 N   0  0  0  0  0  0  0  0  0  0  0  0
  -25.9087  -29.1746   20.1112 N   0  0  0  0  0  0  0  0  0  0  0  0
  -26.5314  -18.3455   19.7546 N   0  0  0  0  0  0  0  0  0  0  0  0
  -23.3428  -30.8735   22.3781 N   0  0  0  0  0  0  0  0  0  0  0  0
  -25.0905  -28.4129   18.0229 N   0  0  0  0  0  0  0  0  0  0  0  0
  -28.6607  -27.5622   17.0614 N   0  0  0  0  0  0  0  0  0  0  0  0
  -19.4030  -25.3344   21.1394 N   0  0  0  0  0  0  0  0  0  0  0  0
  -25.3593  -14.9227   20.2096 N   0  0  0  0  0  0  0  0  0  0  0  0
  -29.0146  -20.6232   19.4324 N   0  0  0  0  0  0  0  0  0  0  0  0
  -22.1757  -29.1270   23.4649 N   0  0  0  0  0  0  0  0  0  0  0  0
  -28.4071  -23.2706   17.0470 N   0  3  0  0  0  0  0  0  0  0  0  0
  -27.7014  -25.7476   18.0838 O   0  0  0  0  0  0  0  0  0  0  0  0
  -26.0016  -16.6687   21.6102 O   0  0  0  0  0  0  0  0  0  0  0  0
  -19.1373  -22.7493   20.4734 O   0  0  0  0  0  0  0  0  0  0  0  0
  -28.7401  -17.7759   19.2715 O   0  0  0  0  0  0  0  0  0  0  0  0
  -27.4555  -22.3373   19.5249 O   0  0  0  0  0  0  0  0  0  0  0  0
  -21.2609  -31.2255   23.3373 O   0  0  0  0  0  0  0  0  0  0  0  0
  -32.7533  -26.9892   22.5435 O   0  0  0  0  0  0  0  0  0  0  0  0
  -20.9247  -20.7640   20.6312 O   0  0  0  0  0  0  0  0  0  1  0  0
  -33.3391  -21.9437   24.6891 F   0  0  0  0  0  0  0  0  0  0  0  0
  -33.3791  -26.6477   25.2145 F   0  0  0  0  0  0  0  0  0  0  0  0
  1  2  1  0  0  0  0
  1  5  2  0  0  0  0
  2  6  2  0  0  0  0
  3  8  2  0  0  0  0
  3 16  1  0  0  0  0
  4  9  1  0  0  0  0
  4 16  2  0  0  0  0
  5 18  1  0  0  0  0
  6 20  1  0  0  0  0
  7 10  2  0  0  0  0
  7 19  1  0  0  0  0
  8 22  1  0  0  0  0
  9 22  2  0  0  0  0
 10 23  1  0  0  0  0
 11 12  2  0  0  0  0
 11 24  1  0  0  0  0
 12 25  1  0  0  0  0
 13 21  1  0  0  0  0
 13 23  2  0  0  0  0
 14 25  2  0  0  0  0
 14 26  1  0  0  0  0
 15 62  1  0  0  0  0
 15 63  2  0  0  0  0
 16 27  1  0  0  0  0
 17 27  1  0  0  0  0
 17 28  2  0  0  0  0
 17 31  1  0  0  0  0
 18 20  2  0  0  0  0
 18 37  1  0  0  0  0
 19 21  2  0  0  0  0
 19 38  1  0  0  0  0
 20 46  1  0  0  0  0
 21 39  1  0  0  0  0
 22 82  1  0  0  0  0
 23 83  1  0  0  0  0
 24 26  2  0  0  0  0
 24 82  1  0  0  0  0
 25 84  1  0  0  0  0
 26 85  1  0  0  0  0
 27 64  2  0  0  0  0
 28 66  1  0  0  0  0
 28 69  1  0  0  0  0
 29 55  1  0  0  0  0
 29 62  2  0  0  0  0
 29 65  1  0  0  0  0
 30 63  1  0  0  0  0
 30 65  2  0  0  0  0
 30 71  1  0  0  0  0
 31 70  1  0  0  0  0
 31 76  2  0  0  0  0
 32 47  1  0  0  0  0
 32 72  1  0  0  0  0
 32 77  2  0  0  0  0
 33 56  1  0  0  0  0
 33 58  1  0  0  0  0
 33 78  2  0  0  0  0
 34 59  1  0  0  0  0
 34 67  1  0  0  0  0
 34 79  2  0  0  0  0
 35 60  1  0  0  0  0
 35 73  1  0  0  0  0
 35 80  2  0  0  0  0
 36 68  1  0  0  0  0
 36 74  1  0  0  0  0
 36 81  2  0  0  0  0
 37 40  1  0  0  0  0
 38 47  1  0  0  0  0
 39 67  1  0  0  0  0
 40 42  1  0  0  0  0
 41 43  1  0  0  0  0
 41 44  1  0  0  0  0
 42 46  1  0  0  0  0
 43 48  1  0  0  0  0
 44 68  1  0  0  0  0
 45 48  1  0  0  0  0
 45 68  1  0  0  0  0
 46 72  1  0  0  0  0
 47 67  1  0  0  0  0
 48 66  1  0  0  0  0
 49 57  1  0  0  0  0
 50 60  1  0  0  0  0
 51 61  1  0  0  0  0
 52 61  1  0  0  0  0
 53 61  1  0  0  0  0
 54 75  1  0  0  0  0
 55 74  1  0  0  0  0
 56 83  1  0  0  0  0
 57 58  1  0  0  0  0
 58 71  1  0  0  0  0
 59 61  1  0  0  0  0
 59 73  1  0  0  0  0
 60 75  1  0  0  0  0
 64 66  1  0  0  0  0
M  CHG  1  75   1
M  ISO  4  36 100  56 101  74 100  83 101
M  END
> <Batch ID>
0185

> <Smiles>
CCC(Nc1ncnc(C[100NH:0][100C:0](=O)N2CCCC(n3nc(-c4ccc(Oc5ccc(F)cc5F)cc4)c(C(N)=O)c3N)C2)n1)C(=O)[101CH2:1][101O:1]c1ccc2c(c1)CN(C(=O)C(NC(=O)C(C)NC)C(C)(C)C)C(C(=O)NC1CCCc3ccccc31)C2

> <Shape>
0.250

> <Color>
0.066

> <Negative vol penalty>
0.000

$$$$

  -OEChem-04052305053D

 85 93  0     1  0  0  0  0  0999 V2000
  -30.8727  -26.7208   10.1725 C   0  0  0  0  0  0  0  0  0  0  0  0
  -31.4785  -25.7224   10.9285 C   0  0  0  0  0  0  0  0  0  0  0  0
  -23.0041   -9.8879   19.9780 C   0  0  0  0  0  0  0  0  0  0  0  0
  -23.7315   -9.9363   22.2814 C   0  0  0  0  0  0  0  0  0  0  0  0
  -30.7439  -28.0074   10.6941 C   0  0  0  0  0  0  0  0  0  0  0  0
  -31.9569  -26.0103   12.2063 C   0  0  0  0  0  0  0  0  0  0  0  0
  -31.9868  -22.2700   17.0555 C   0  0  0  0  0  0  0  0  0  0  0  0
  -22.2402   -8.7513   20.2431 C   0  0  0  0  0  0  0  0  0  0  0  0
  -22.9676   -8.7997   22.5465 C   0  0  0  0  0  0  0  0  0  0  0  0
  -32.9798  -21.4668   17.6144 C   0  0  0  0  0  0  0  0  0  0  0  0
  -23.2185   -5.4622   22.0685 C   0  0  0  0  0  0  0  0  0  0  0  0
  -23.8089   -4.4449   22.8182 C   0  0  0  0  0  0  0  0  0  0  0  0
  -33.5005  -23.2174   19.1903 C   0  0  0  0  0  0  0  0  0  0  0  0
  -22.0862   -4.6812   24.4956 C   0  0  0  0  0  0  0  0  0  0  0  0
  -23.7498  -10.4804   20.9972 C   0  0  0  0  0  0  0  0  0  0  0  0
  -24.1296  -12.9971   20.8252 C   0  0  0  0  0  0  0  0  0  0  0  0
  -31.2123  -28.3088   11.9826 C   0  0  0  0  0  0  0  0  0  0  0  0
  -31.7501  -23.5594   17.5536 C   0  0  0  0  0  0  0  0  0  0  0  0
  -31.8355  -27.3025   12.7451 C   0  0  0  0  0  0  0  0  0  0  0  0
  -32.5022  -24.0341   18.6376 C   0  0  0  0  0  0  0  0  0  0  0  0
  -22.2219   -8.2073   21.5274 C   0  0  0  0  0  0  0  0  0  0  0  0
  -33.7388  -21.9415   18.6801 C   0  0  0  0  0  0  0  0  0  0  0  0
  -22.0619   -6.0891   22.5323 C   0  0  0  0  0  0  0  0  0  0  0  0
  -23.2428   -4.0544   24.0317 C   0  0  0  0  0  0  0  0  0  0  0  0
  -21.4958   -5.6985   23.7458 C   0  0  0  0  0  0  0  0  0  0  0  0
  -24.5395  -11.6542   20.7238 C   0  0  0  0  0  0  0  0  0  0  0  0
  -29.8741  -17.8000   22.6731 C   0  0  0  0  0  0  0  0  0  0  0  0
  -30.5741  -16.9061   21.8901 C   0  0  0  0  0  0  0  0  0  0  0  0
  -25.2374  -13.7227   20.4610 C   0  0  0  0  0  0  0  0  0  0  0  0
  -32.0799  -18.4969   22.0012 C   0  0  0  0  0  0  0  0  0  0  0  0
  -22.8609  -13.5401   21.2140 C   0  0  0  0  0  0  0  0  0  0  0  0
  -28.5685  -17.7155   23.2398 C   0  0  0  0  0  0  0  0  0  0  0  0
  -31.9250  -26.4961   16.3499 C   0  0  0  0  0  0  0  0  0  0  0  0
  -30.6390  -27.3248   19.2102 C   0  0  0  0  0  0  0  0  0  0  0  0
  -30.1459  -26.5530   22.4978 C   0  0  0  0  0  0  0  0  0  0  0  0
  -34.4034  -18.9459   21.1490 C   0  0  0  0  0  0  0  0  0  0  0  0
  -30.7150  -14.6951   20.6910 C   0  0  0  0  0  0  0  0  0  0  0  0
  -31.0931  -29.7258   12.4853 C   0  0  0  0  0  0  0  0  0  0  0  0
  -30.6572  -24.4032   16.9570 C   0  0  0  0  0  0  0  0  0  0  0  0
  -32.2738  -25.4032   19.2222 C   0  0  0  0  0  0  0  0  0  0  0  0
  -31.2897  -29.8555   13.9936 C   0  0  0  0  0  0  0  0  0  0  0  0
  -29.5997  -12.2437   18.3621 C   0  0  0  0  0  0  0  0  0  0  0  0
  -32.5143  -29.0644   14.4423 C   0  0  0  0  0  0  0  0  0  0  0  0
  -28.1501  -11.9823   18.7772 C   0  0  0  0  0  0  0  0  0  0  0  0
  -30.5009  -12.4870   19.5714 C   0  0  0  0  0  0  0  0  0  0  0  0
  -28.5852  -13.2696   20.9081 C   0  0  0  0  0  0  0  0  0  0  0  0
  -32.3447  -27.5696   14.1448 C   0  0  1  0  0  0  0  0  0  0  0  0
  -30.8491  -25.8954   17.2097 C   0  0  1  0  0  0  0  0  0  0  0  0
  -27.6267  -13.0831   19.7206 C   0  0  2  0  0  0  0  0  0  0  0  0
  -28.2991  -18.4377   24.5435 C   0  0  0  0  0  0  0  0  0  0  0  0
  -29.0893  -27.4423   24.5930 C   0  0  0  0  0  0  0  0  0  0  0  0
  -32.9491  -29.2910   19.5379 C   0  0  0  0  0  0  0  0  0  0  0  0
  -32.3894  -29.4350   21.9739 C   0  0  0  0  0  0  0  0  0  0  0  0
  -30.7229  -30.1661   20.2677 C   0  0  0  0  0  0  0  0  0  0  0  0
  -28.3167  -24.2351   22.6976 C   0  0  0  0  0  0  0  0  0  0  0  0
  -34.9883  -21.3461   20.6141 C   0  0  0  0  0  0  0  0  0  1  0  0
  -31.1935  -27.6997   20.5634 C   0  0  1  0  0  0  0  0  0  0  0  0
  -28.8971  -26.5722   23.3607 C   0  0  2  0  0  0  0  0  0  0  0  0
  -35.4538  -20.0394   21.2394 C   0  0  2  0  0  0  0  0  0  0  0  0
  -31.8196  -29.1228   20.5737 C   0  0  0  0  0  0  0  0  0  0  0  0
  -25.8086  -11.5310   20.3261 N   0  0  0  0  0  0  0  0  0  0  0  0
  -31.8390  -17.3042   21.5035 N   0  0  0  0  0  0  0  0  0  0  0  0
  -26.2057  -12.8059   20.1744 N   0  0  0  0  0  0  0  0  0  0  0  0
  -31.1981  -26.1929   18.6004 N   0  0  0  0  0  0  0  0  0  0  0  0
  -29.9444  -13.5454   20.4170 N   0  0  0  0  0  0  0  0  0  0  0  0
  -25.4680  -15.0490   20.3610 N   0  0  0  0  0  0  0  0  0  0  0  0
  -21.8313  -12.6532   21.5570 N   0  0  0  0  0  0  0  0  0  0  0  0
  -30.0695  -15.6476   21.4789 N   0  0  0  0  0  0  0  0  0  0  0  0
  -33.2523  -19.2752   21.8533 N   0  0  0  0  0  0  0  0  0  0  0  0
  -31.4766  -26.9544   15.1258 N   0  0  0  0  0  0  0  0  0  0  0  0
  -30.1030  -27.5198   21.5156 N   0  0  0  0  0  0  0  0  0  0  0  0
  -28.5555  -25.1924   23.8082 N   0  3  0  0  0  0  0  0  0  0  0  0
  -22.6416  -14.7749   21.2402 O   0  0  0  0  0  0  0  0  0  0  0  0
  -27.5994  -17.0876   22.7627 O   0  0  0  0  0  0  0  0  0  0  0  0
  -33.0764  -26.5418   16.7668 O   0  0  0  0  0  0  0  0  0  0  0  0
  -29.7378  -28.0069   18.7159 O   0  0  0  0  0  0  0  0  0  0  0  0
  -31.0690  -25.7621   22.6795 O   0  0  0  0  0  0  0  0  0  0  0  0
  -34.6290  -17.9173   20.5181 O   0  0  0  0  0  0  0  0  0  0  0  0
  -31.8529  -14.8372   20.2361 O   0  0  0  0  0  0  0  0  0  0  0  0
  -21.4765   -7.0983   21.7865 O   0  0  0  0  0  0  0  0  0  0  0  0
  -34.7092  -21.1598   19.2271 O   0  0  0  0  0  0  0  0  0  1  0  0
  -23.8090   -3.0764   24.7508 F   0  0  0  0  0  0  0  0  0  0  0  0
  -20.3841   -6.2963   24.1961 F   0  0  0  0  0  0  0  0  0  0  0  0
  -36.5995  -19.6526   20.6078 F   0  0  0  0  0  0  0  0  0  0  0  0
  -30.8294  -19.1983   22.9442 S   0  0  0  0  0  0  0  0  0  0  0  0
  1  2  1  0  0  0  0
  1  5  2  0  0  0  0
  2  6  2  0  0  0  0
  3  8  2  0  0  0  0
  3 15  1  0  0  0  0
  4  9  1  0  0  0  0
  4 15  2  0  0  0  0
  5 17  1  0  0  0  0
  6 19  1  0  0  0  0
  7 10  2  0  0  0  0
  7 18  1  0  0  0  0
  8 21  1  0  0  0  0
  9 21  2  0  0  0  0
 10 22  1  0  0  0  0
 11 12  2  0  0  0  0
 11 23  1  0  0  0  0
 12 24  1  0  0  0  0
 13 20  1  0  0  0  0
 13 22  2  0  0  0  0
 14 24  2  0  0  0  0
 14 25  1  0  0  0  0
 15 26  1  0  0  0  0
 16 26  1  0  0  0  0
 16 29  2  0  0  0  0
 16 31  1  0  0  0  0
 17 19  2  0  0  0  0
 17 38  1  0  0  0  0
 18 20  2  0  0  0  0
 18 39  1  0  0  0  0
 19 47  1  0  0  0  0
 20 40  1  0  0  0  0
 21 80  1  0  0  0  0
 22 81  1  0  0  0  0
 23 25  2  0  0  0  0
 23 80  1  0  0  0  0
 24 82  1  0  0  0  0
 25 83  1  0  0  0  0
 26 61  2  0  0  0  0
 27 28  2  0  0  0  0
 27 32  1  0  0  0  0
 27 85  1  0  0  0  0
 28 62  1  0  0  0  0
 28 68  1  0  0  0  0
 29 63  1  0  0  0  0
 29 66  1  0  0  0  0
 30 62  2  0  0  0  0
 30 69  1  0  0  0  0
 30 85  1  0  0  0  0
 31 67  1  0  0  0  0
 31 73  2  0  0  0  0
 32 50  1  0  0  0  0
 32 74  2  0  0  0  0
 33 48  1  0  0  0  0
 33 70  1  0  0  0  0
 33 75  2  0  0  0  0
 34 57  1  0  0  0  0
 34 64  1  0  0  0  0
 34 76  2  0  0  0  0
 35 58  1  0  0  0  0
 35 71  1  0  0  0  0
 35 77  2  0  0  0  0
 36 59  1  0  0  0  0
 36 69  1  0  0  0  0
 36 78  2  0  0  0  0
 37 65  1  0  0  0  0
 37 68  1  0  0  0  0
 37 79  2  0  0  0  0
 38 41  1  0  0  0  0
 39 48  1  0  0  0  0
 40 64  1  0  0  0  0
 41 43  1  0  0  0  0
 42 44  1  0  0  0  0
 42 45  1  0  0  0  0
 43 47  1  0  0  0  0
 44 49  1  0  0  0  0
 45 65  1  0  0  0  0
 46 49  1  0  0  0  0
 46 65  1  0  0  0  0
 47 70  1  0  0  0  0
 48 64  1  0  0  0  0
 49 63  1  0  0  0  0
 51 58  1  0  0  0  0
 52 60  1  0  0  0  0
 53 60  1  0  0  0  0
 54 60  1  0  0  0  0
 55 72  1  0  0  0  0
 56 59  1  0  0  0  0
 56 81  1  0  0  0  0
 57 60  1  0  0  0  0
 57 71  1  0  0  0  0
 58 72  1  0  0  0  0
 59 84  1  0  0  0  0
 61 63  1  0  0  0  0
M  CHG  1  72   1
M  ISO  4  37 100  56 101  68 100  81 101
M  END
> <Batch ID>
0185

> <Smiles>
CNC(C)C(=O)NC(C(=O)N1Cc2cc([101O:1][101CH2:1]C(F)C(=O)Nc3nc([100NH:0][100C:0](=O)N4CCCC(n5nc(-c6ccc(Oc7ccc(F)cc7F)cc6)c(C(N)=O)c5N)C4)c(C(C)=O)s3)ccc2CC1C(=O)NC1CCCc2ccccc21)C(C)(C)C

> <Shape>
0.227

> <Color>
0.190

> <Negative vol penalty>
0.000

$$$$

  -OEChem-04052305053D

 84 92  0     1  0  0  0  0  0999 V2000
  -16.8482  -30.2246   23.6301 C   0  0  0  0  0  0  0  0  0  0  0  0
  -18.1678  -30.6648   23.6444 C   0  0  0  0  0  0  0  0  0  0  0  0
  -26.7928  -13.0937   20.7231 C   0  0  0  0  0  0  0  0  0  0  0  0
  -25.7298  -14.2435   18.8833 C   0  0  0  0  0  0  0  0  0  0  0  0
  -16.5663  -28.8774   23.4077 C   0  0  0  0  0  0  0  0  0  0  0  0
  -19.2065  -29.7578   23.4373 C   0  0  0  0  0  0  0  0  0  0  0  0
  -24.5041  -30.8224   20.5550 C   0  0  0  0  0  0  0  0  0  0  0  0
  -26.0093  -11.9674   20.4719 C   0  0  0  0  0  0  0  0  0  0  0  0
  -24.9462  -13.1172   18.6320 C   0  0  0  0  0  0  0  0  0  0  0  0
  -25.7825  -31.1233   21.0229 C   0  0  0  0  0  0  0  0  0  0  0  0
  -24.0332   -8.9154   20.5402 C   0  0  0  0  0  0  0  0  0  0  0  0
  -23.4415   -8.2787   21.6311 C   0  0  0  0  0  0  0  0  0  0  0  0
  -26.3796  -28.7908   20.8738 C   0  0  0  0  0  0  0  0  0  0  0  0
  -22.2508  -10.3104   22.1710 C   0  0  0  0  0  0  0  0  0  0  0  0
  -30.0231  -23.2478   18.9073 C   0  0  0  0  0  0  0  0  0  0  0  0
  -26.6530  -14.2318   19.9288 C   0  0  0  0  0  0  0  0  0  0  0  0
  -28.7254  -15.6917   19.6427 C   0  0  0  0  0  0  0  0  0  0  0  0
  -17.6016  -27.9551   23.1882 C   0  0  0  0  0  0  0  0  0  0  0  0
  -24.1498  -29.4996   20.2529 C   0  0  0  0  0  0  0  0  0  0  0  0
  -18.9382  -28.3967   23.2131 C   0  0  0  0  0  0  0  0  0  0  0  0
  -25.0968  -28.4761   20.3999 C   0  0  0  0  0  0  0  0  0  0  0  0
  -25.0860  -11.9791   19.4264 C   0  0  0  0  0  0  0  0  0  0  0  0
  -26.7196  -30.1071   21.1851 C   0  0  0  0  0  0  0  0  0  0  0  0
  -23.7338  -10.2497   20.2647 C   0  0  0  0  0  0  0  0  0  0  0  0
  -22.5503   -8.9762   22.4465 C   0  0  0  0  0  0  0  0  0  0  0  0
  -22.8425  -10.9471   21.0801 C   0  0  0  0  0  0  0  0  0  0  0  0
  -27.4617  -15.3958   20.1881 C   0  0  0  0  0  0  0  0  0  0  0  0
  -29.2852  -23.2712   20.0723 C   0  0  0  0  0  0  0  0  0  0  0  0
  -29.0656  -16.8999   20.2002 C   0  0  0  0  0  0  0  0  0  0  0  0
  -30.0545  -25.3243   20.1280 C   0  0  0  0  0  0  0  0  0  0  0  0
  -29.5205  -14.9415   18.7150 C   0  0  0  0  0  0  0  0  0  0  0  0
  -21.9916  -27.4464   21.3620 C   0  0  0  0  0  0  0  0  0  0  0  0
  -23.0529  -25.6073   18.9096 C   0  0  0  0  0  0  0  0  0  0  0  0
  -25.5672  -24.8587   16.7269 C   0  0  0  0  0  0  0  0  0  0  0  0
  -29.8996  -27.3481   21.6129 C   0  0  0  0  0  0  0  0  0  0  0  0
  -27.7770  -22.1005   21.7157 C   0  0  0  0  0  0  0  0  0  0  0  0
  -17.2500  -26.5007   22.9992 C   0  0  0  0  0  0  0  0  0  0  0  0
  -22.7751  -29.1953   19.7238 C   0  0  0  0  0  0  0  0  0  0  0  0
  -24.7728  -27.0426   20.0703 C   0  0  0  0  0  0  0  0  0  0  0  0
  -18.3898  -25.6694   22.4158 C   0  0  0  0  0  0  0  0  0  0  0  0
  -26.9395  -19.4935   23.9916 C   0  0  0  0  0  0  0  0  0  0  0  0
  -19.6978  -25.9753   23.1385 C   0  0  0  0  0  0  0  0  0  0  0  0
  -27.1046  -18.2194   23.1601 C   0  0  0  0  0  0  0  0  0  0  0  0
  -26.3745  -20.6440   23.1604 C   0  0  0  0  0  0  0  0  0  0  0  0
  -27.2717  -19.6577   21.0888 C   0  0  0  0  0  0  0  0  0  0  0  0
  -20.0911  -27.4476   22.9679 C   0  0  1  0  0  0  0  0  0  0  0  0
  -22.3614  -27.7423   19.9360 C   0  0  1  0  0  0  0  0  0  0  0  0
  -27.8986  -18.4894   21.8670 C   0  0  2  0  0  0  0  0  0  0  0  0
  -26.1559  -23.2812   14.8662 C   0  0  0  0  0  0  0  0  0  0  0  0
  -27.9473  -30.6455   24.0281 C   0  0  0  0  0  0  0  0  0  0  0  0
  -23.5322  -23.3871   20.9469 C   0  0  0  0  0  0  0  0  0  0  0  0
  -24.9651  -22.2335   19.2486 C   0  0  0  0  0  0  0  0  0  0  0  0
  -22.5455  -22.6200   18.7807 C   0  0  0  0  0  0  0  0  0  0  0  0
  -25.8771  -27.0749   14.7900 C   0  0  0  0  0  0  0  0  0  0  0  0
  -29.8997  -29.5759   22.8457 C   0  0  0  0  0  0  0  0  0  0  0  0
  -24.1442  -24.5782   18.7395 C   0  0  1  0  0  0  0  0  0  0  0  0
  -25.5644  -24.6353   15.2253 C   0  0  2  0  0  0  0  0  0  0  0  0
  -30.4175  -28.7759   21.6460 C   0  0  2  0  0  0  0  0  0  0  0  0
  -28.3773  -29.7708   22.8569 C   0  0  2  0  0  0  0  0  0  1  0  0
  -23.8026  -23.2313   19.4371 C   0  0  0  0  0  0  0  0  0  0  0  0
  -27.0286  -16.3399   21.0278 N   0  0  0  0  0  0  0  0  0  0  0  0
  -29.3023  -24.4609   20.7738 N   0  0  0  0  0  0  0  0  0  0  0  0
  -28.0257  -17.2409   21.0142 N   0  0  0  0  0  0  0  0  0  0  0  0
  -23.4134  -26.7947   19.5623 N   0  0  0  0  0  0  0  0  0  0  0  0
  -27.1799  -20.8444   21.9537 N   0  0  0  0  0  0  0  0  0  0  0  0
  -30.1498  -17.6934   20.0687 N   0  0  0  0  0  0  0  0  0  0  0  0
  -29.0209  -13.7206   18.2416 N   0  0  0  0  0  0  0  0  0  0  0  0
  -28.5459  -22.1626   20.5541 N   0  0  0  0  0  0  0  0  0  0  0  0
  -30.3462  -26.6601   20.4922 N   0  0  0  0  0  0  0  0  0  0  0  0
  -20.6600  -27.6699   21.6559 N   0  0  0  0  0  0  0  0  0  0  0  0
  -24.3784  -24.4651   17.3040 N   0  0  0  0  0  0  0  0  0  0  0  0
  -26.3625  -25.6928   14.5429 N   0  3  0  0  0  0  0  0  0  0  0  0
  -30.6481  -15.3340   18.3303 O   0  0  0  0  0  0  0  0  0  0  0  0
  -22.8505  -27.0436   22.1377 O   0  0  0  0  0  0  0  0  0  0  0  0
  -21.9240  -25.3695   18.4730 O   0  0  0  0  0  0  0  0  0  0  0  0
  -26.5293  -25.3313   17.3282 O   0  0  0  0  0  0  0  0  0  0  0  0
  -29.1658  -26.9329   22.5053 O   0  0  0  0  0  0  0  0  0  0  0  0
  -27.6401  -23.0430   22.4998 O   0  0  0  0  0  0  0  0  0  0  0  0
  -24.3214  -10.8802   19.1808 O   0  0  0  0  0  0  0  0  0  0  0  0
  -27.9679  -30.3980   21.6422 O   0  0  0  0  0  0  0  0  0  1  0  0
  -21.9810   -8.3642   23.4931 F   0  0  0  0  0  0  0  0  0  0  0  0
  -22.5500  -12.2287   20.8198 F   0  0  0  0  0  0  0  0  0  0  0  0
  -30.0818  -29.4331   20.4999 F   0  0  0  0  0  0  0  0  0  0  0  0
  -30.7715  -24.7726   18.6697 S   0  0  0  0  0  0  0  0  0  0  0  0
  1  2  1  0  0  0  0
  1  5  2  0  0  0  0
  2  6  2  0  0  0  0
  3  8  2  0  0  0  0
  3 16  1  0  0  0  0
  4  9  1  0  0  0  0
  4 16  2  0  0  0  0
  5 18  1  0  0  0  0
  6 20  1  0  0  0  0
  7 10  2  0  0  0  0
  7 19  1  0  0  0  0
  8 22  1  0  0  0  0
  9 22  2  0  0  0  0
 10 23  1  0  0  0  0
 11 12  2  0  0  0  0
 11 24  1  0  0  0  0
 12 25  1  0  0  0  0
 13 21  1  0  0  0  0
 13 23  2  0  0  0  0
 14 25  2  0  0  0  0
 14 26  1  0  0  0  0
 15 28  2  0  0  0  0
 15 84  1  0  0  0  0
 16 27  1  0  0  0  0
 17 27  1  0  0  0  0
 17 29  2  0  0  0  0
 17 31  1  0  0  0  0
 18 20  2  0  0  0  0
 18 37  1  0  0  0  0
 19 21  2  0  0  0  0
 19 38  1  0  0  0  0
 20 46  1  0  0  0  0
 21 39  1  0  0  0  0
 22 79  1  0  0  0  0
 23 80  1  0  0  0  0
 24 26  2  0  0  0  0
 24 79  1  0  0  0  0
 25 81  1  0  0  0  0
 26 82  1  0  0  0  0
 27 61  2  0  0  0  0
 28 62  1  0  0  0  0
 28 68  1  0  0  0  0
 29 63  1  0  0  0  0
 29 66  1  0  0  0  0
 30 62  2  0  0  0  0
 30 69  1  0  0  0  0
 30 84  1  0  0  0  0
 31 67  1  0  0  0  0
 31 73  2  0  0  0  0
 32 47  1  0  0  0  0
 32 70  1  0  0  0  0
 32 74  2  0  0  0  0
 33 56  1  0  0  0  0
 33 64  1  0  0  0  0
 33 75  2  0  0  0  0
 34 57  1  0  0  0  0
 34 71  1  0  0  0  0
 34 76  2  0  0  0  0
 35 58  1  0  0  0  0
 35 69  1  0  0  0  0
 35 77  2  0  0  0  0
 36 65  1  0  0  0  0
 36 68  1  0  0  0  0
 36 78  2  0  0  0  0
 37 40  1  0  0  0  0
 38 47  1  0  0  0  0
 39 64  1  0  0  0  0
 40 42  1  0  0  0  0
 41 43  1  0  0  0  0
 41 44  1  0  0  0  0
 42 46  1  0  0  0  0
 43 48  1  0  0  0  0
 44 65  1  0  0  0  0
 45 48  1  0  0  0  0
 45 65  1  0  0  0  0
 46 70  1  0  0  0  0
 47 64  1  0  0  0  0
 48 63  1  0  0  0  0
 49 57  1  0  0  0  0
 50 59  1  0  0  0  0
 51 60  1  0  0  0  0
 52 60  1  0  0  0  0
 53 60  1  0  0  0  0
 54 72  1  0  0  0  0
 55 58  1  0  0  0  0
 55 59  1  0  0  0  0
 56 60  1  0  0  0  0
 56 71  1  0  0  0  0
 57 72  1  0  0  0  0
 58 83  1  0  0  0  0
 59 80  1  0  0  0  0
 61 63  1  0  0  0  0
M  CHG  1  72   1
M  ISO  4  36 100  59 101  68 100  80 101
M  END
> <Batch ID>
0185

> <Smiles>
CNC(C)C(=O)NC(C(=O)N1Cc2cc([101O:1][101CH:1](C)CC(F)C(=O)Nc3nc([100NH:0][100C:0](=O)N4CCCC(n5nc(-c6ccc(Oc7ccc(F)cc7F)cc6)c(C(N)=O)c5N)C4)cs3)ccc2CC1C(=O)NC1CCCc2ccccc21)C(C)(C)C

> <Shape>
0.290

> <Color>
0.075

> <Negative vol penalty>
0.000

$$$$

  -OEChem-04052305053D

 83 91  0     1  0  0  0  0  0999 V2000
  -29.8999  -25.0874   17.5407 C   0  0  0  0  0  0  0  0  0  0  0  0
  -28.5220  -25.2787   17.5354 C   0  0  0  0  0  0  0  0  0  0  0  0
  -26.2571  -13.7276   20.0904 C   0  0  0  0  0  0  0  0  0  0  0  0
  -23.8447  -13.7243   20.2233 C   0  0  0  0  0  0  0  0  0  0  0  0
  -30.6458  -25.4302   18.6677 C   0  0  0  0  0  0  0  0  0  0  0  0
  -27.8889  -25.8121   18.6575 C   0  0  0  0  0  0  0  0  0  0  0  0
  -23.0209  -29.5275   18.7201 C   0  0  0  0  0  0  0  0  0  0  0  0
  -26.2999  -12.5502   20.8370 C   0  0  0  0  0  0  0  0  0  0  0  0
  -23.8875  -12.5468   20.9699 C   0  0  0  0  0  0  0  0  0  0  0  0
  -21.6618  -29.2895   18.9201 C   0  0  0  0  0  0  0  0  0  0  0  0
  -23.3444   -9.3448   22.6039 C   0  0  0  0  0  0  0  0  0  0  0  0
  -22.4520   -8.3279   22.2644 C   0  0  0  0  0  0  0  0  0  0  0  0
  -21.9086  -29.8722   21.2479 C   0  0  0  0  0  0  0  0  0  0  0  0
  -23.4121   -8.2248   20.0498 C   0  0  0  0  0  0  0  0  0  0  0  0
  -19.5069  -20.9092   20.5522 C   0  0  0  0  0  0  0  0  0  0  0  0
  -25.0295  -14.3147   19.7835 C   0  0  0  0  0  0  0  0  0  0  0  0
  -24.9072  -15.6478   17.6120 C   0  0  0  0  0  0  0  0  0  0  0  0
  -30.0229  -25.9770   19.8006 C   0  0  0  0  0  0  0  0  0  0  0  0
  -23.8376  -29.9298   19.7866 C   0  0  0  0  0  0  0  0  0  0  0  0
  -28.6270  -26.1613   19.8012 C   0  0  0  0  0  0  0  0  0  0  0  0
  -23.2773  -30.1172   21.0582 C   0  0  0  0  0  0  0  0  0  0  0  0
  -25.1151  -11.9598   21.2768 C   0  0  0  0  0  0  0  0  0  0  0  0
  -21.1061  -29.4591   20.1848 C   0  0  0  0  0  0  0  0  0  0  0  0
  -24.2706   -9.8017   21.6663 C   0  0  0  0  0  0  0  0  0  0  0  0
  -22.4859   -7.7679   20.9874 C   0  0  0  0  0  0  0  0  0  0  0  0
  -24.3045   -9.2417   20.3893 C   0  0  0  0  0  0  0  0  0  0  0  0
  -24.9847  -15.5313   19.0128 C   0  0  0  0  0  0  0  0  0  0  0  0
  -20.6798  -21.6247   20.6718 C   0  0  0  0  0  0  0  0  0  0  0  0
  -24.8917  -17.0015   17.3804 C   0  0  0  0  0  0  0  0  0  0  0  0
  -19.2589  -23.2722   20.9486 C   0  0  0  0  0  0  0  0  0  0  0  0
  -24.8538  -14.6238   16.6098 C   0  0  0  0  0  0  0  0  0  0  0  0
  -26.3725  -28.7003   21.2585 C   0  0  0  0  0  0  0  0  0  0  0  0
  -26.3578  -31.5433   22.8203 C   0  0  0  0  0  0  0  0  0  0  0  0
  -24.5859  -34.2682   23.8608 C   0  0  0  0  0  0  0  0  0  0  0  0
  -19.3165  -25.7525   21.3613 C   0  0  0  0  0  0  0  0  0  0  0  0
  -23.1982  -21.6881   20.6778 C   0  0  0  0  0  0  0  0  0  0  0  0
  -30.8646  -26.2882   21.0127 C   0  0  0  0  0  0  0  0  0  0  0  0
  -25.2965  -30.2083   19.5485 C   0  0  0  0  0  0  0  0  0  0  0  0
  -24.1069  -30.5673   22.2319 C   0  0  0  0  0  0  0  0  0  0  0  0
  -30.1669  -27.1965   22.0219 C   0  0  0  0  0  0  0  0  0  0  0  0
  -26.4141  -21.1385   19.2519 C   0  0  0  0  0  0  0  0  0  0  0  0
  -28.7415  -26.7166   22.2759 C   0  0  0  0  0  0  0  0  0  0  0  0
  -26.4032  -19.6501   18.8957 C   0  0  0  0  0  0  0  0  0  0  0  0
  -25.6651  -21.4155   20.5542 C   0  0  0  0  0  0  0  0  0  0  0  0
  -24.2860  -19.3965   20.2522 C   0  0  0  0  0  0  0  0  0  0  0  0
  -27.9072  -26.7603   20.9900 C   0  0  1  0  0  0  0  0  0  0  0  0
  -26.1371  -30.1175   20.8183 C   0  0  1  0  0  0  0  0  0  0  0  0
  -24.9727  -19.0767   18.9144 C   0  0  2  0  0  0  0  0  0  0  0  0
  -24.8373  -36.4066   25.1496 C   0  0  0  0  0  0  0  0  0  0  0  0
  -26.3578  -29.9663   25.4323 C   0  0  0  0  0  0  0  0  0  0  0  0
  -25.6577  -32.0590   26.6148 C   0  0  0  0  0  0  0  0  0  0  0  0
  -27.8490  -31.9739   25.4258 C   0  0  0  0  0  0  0  0  0  0  0  0
  -23.8378  -35.9069   21.5127 C   0  0  0  0  0  0  0  0  0  0  0  0
  -17.9700  -27.6160   20.2711 C   0  0  0  0  0  0  0  0  0  0  0  0
  -19.1612  -28.2453   19.5523 C   0  0  0  0  0  0  0  0  0  1  0  0
  -25.7112  -32.0681   24.0795 C   0  0  1  0  0  0  0  0  0  0  0  0
  -24.8822  -35.7546   23.7764 C   0  0  2  0  0  0  0  0  0  0  0  0
  -18.3348  -26.8929   21.5703 C   0  0  2  0  0  0  0  0  0  0  0  0
  -26.3784  -31.5065   25.3666 C   0  0  0  0  0  0  0  0  0  0  0  0
  -25.0164  -16.7165   19.6278 N   0  0  0  0  0  0  0  0  0  0  0  0
  -20.5396  -22.9799   20.8987 N   0  0  0  0  0  0  0  0  0  0  0  0
  -24.9586  -17.5906   18.6087 N   0  0  0  0  0  0  0  0  0  0  0  0
  -25.5295  -30.8207   21.9499 N   0  0  0  0  0  0  0  0  0  0  0  0
  -24.3166  -20.8470   20.4974 N   0  0  0  0  0  0  0  0  0  0  0  0
  -24.8276  -17.7335   16.2479 N   0  0  0  0  0  0  0  0  0  0  0  0
  -24.8791  -13.2843   17.0212 N   0  0  0  0  0  0  0  0  0  0  0  0
  -21.9673  -21.0417   20.5701 N   0  0  0  0  0  0  0  0  0  0  0  0
  -18.6684  -24.5406   21.1602 N   0  0  0  0  0  0  0  0  0  0  0  0
  -27.4945  -28.1171   20.7012 N   0  0  0  0  0  0  0  0  0  0  0  0
  -25.7403  -33.5231   23.9774 N   0  0  0  0  0  0  0  0  0  0  0  0
  -23.8847  -36.4328   22.9013 N   0  3  0  0  0  0  0  0  0  0  0  0
  -24.8024  -14.8890   15.3848 O   0  0  0  0  0  0  0  0  0  0  0  0
  -25.5947  -28.1753   22.0466 O   0  0  0  0  0  0  0  0  0  0  0  0
  -27.5520  -31.7725   22.6130 O   0  0  0  0  0  0  0  0  0  0  0  0
  -23.4444  -33.8137   23.8303 O   0  0  0  0  0  0  0  0  0  0  0  0
  -20.5259  -25.9602   21.3948 O   0  0  0  0  0  0  0  0  0  0  0  0
  -23.3227  -22.8981   20.8836 O   0  0  0  0  0  0  0  0  0  0  0  0
  -25.1564  -10.8107   22.0051 O   0  0  0  0  0  0  0  0  0  0  0  0
  -19.7799  -29.2269   20.3830 O   0  0  0  0  0  0  0  0  0  1  0  0
  -21.6299   -6.7904   20.6620 F   0  0  0  0  0  0  0  0  0  0  0  0
  -25.1928   -9.6756   19.4846 F   0  0  0  0  0  0  0  0  0  0  0  0
  -18.8381  -27.8011   22.4535 F   0  0  0  0  0  0  0  0  0  0  0  0
  -18.1678  -21.9656   20.7313 S   0  0  0  0  0  0  0  0  0  0  0  0
  1  2  1  0  0  0  0
  1  5  2  0  0  0  0
  2  6  2  0  0  0  0
  3  8  2  0  0  0  0
  3 16  1  0  0  0  0
  4  9  1  0  0  0  0
  4 16  2  0  0  0  0
  5 18  1  0  0  0  0
  6 20  1  0  0  0  0
  7 10  2  0  0  0  0
  7 19  1  0  0  0  0
  8 22  1  0  0  0  0
  9 22  2  0  0  0  0
 10 23  1  0  0  0  0
 11 12  2  0  0  0  0
 11 24  1  0  0  0  0
 12 25  1  0  0  0  0
 13 21  1  0  0  0  0
 13 23  2  0  0  0  0
 14 25  2  0  0  0  0
 14 26  1  0  0  0  0
 15 28  2  0  0  0  0
 15 83  1  0  0  0  0
 16 27  1  0  0  0  0
 17 27  1  0  0  0  0
 17 29  2  0  0  0  0
 17 31  1  0  0  0  0
 18 20  2  0  0  0  0
 18 37  1  0  0  0  0
 19 21  2  0  0  0  0
 19 38  1  0  0  0  0
 20 46  1  0  0  0  0
 21 39  1  0  0  0  0
 22 78  1  0  0  0  0
 23 79  1  0  0  0  0
 24 26  2  0  0  0  0
 24 78  1  0  0  0  0
 25 80  1  0  0  0  0
 26 81  1  0  0  0  0
 27 60  2  0  0  0  0
 28 61  1  0  0  0  0
 28 67  1  0  0  0  0
 29 62  1  0  0  0  0
 29 65  1  0  0  0  0
 30 61  2  0  0  0  0
 30 68  1  0  0  0  0
 30 83  1  0  0  0  0
 31 66  1  0  0  0  0
 31 72  2  0  0  0  0
 32 47  1  0  0  0  0
 32 69  1  0  0  0  0
 32 73  2  0  0  0  0
 33 56  1  0  0  0  0
 33 63  1  0  0  0  0
 33 74  2  0  0  0  0
 34 57  1  0  0  0  0
 34 70  1  0  0  0  0
 34 75  2  0  0  0  0
 35 58  1  0  0  0  0
 35 68  1  0  0  0  0
 35 76  2  0  0  0  0
 36 64  1  0  0  0  0
 36 67  1  0  0  0  0
 36 77  2  0  0  0  0
 37 40  1  0  0  0  0
 38 47  1  0  0  0  0
 39 63  1  0  0  0  0
 40 42  1  0  0  0  0
 41 43  1  0  0  0  0
 41 44  1  0  0  0  0
 42 46  1  0  0  0  0
 43 48  1  0  0  0  0
 44 64  1  0  0  0  0
 45 48  1  0  0  0  0
 45 64  1  0  0  0  0
 46 69  1  0  0  0  0
 47 63  1  0  0  0  0
 48 62  1  0  0  0  0
 49 57  1  0  0  0  0
 50 59  1  0  0  0  0
 51 59  1  0  0  0  0
 52 59  1  0  0  0  0
 53 71  1  0  0  0  0
 54 55  1  0  0  0  0
 54 58  1  0  0  0  0
 55 79  1  0  0  0  0
 56 59  1  0  0  0  0
 56 70  1  0  0  0  0
 57 71  1  0  0  0  0
 58 82  1  0  0  0  0
 60 62  1  0  0  0  0
M  CHG  1  71   1
M  ISO  4  36 100  55 101  67 100  79 101
M  END
> <Batch ID>
0185

> <Smiles>
CNC(C)C(=O)NC(C(=O)N1Cc2cc([101O:1][101CH2:1]CC(F)C(=O)Nc3nc([100NH:0][100C:0](=O)N4CCCC(n5nc(-c6ccc(Oc7ccc(F)cc7F)cc6)c(C(N)=O)c5N)C4)cs3)ccc2CC1C(=O)NC1CCCc2ccccc21)C(C)(C)C

> <Shape>
0.294

> <Color>
0.082

> <Negative vol penalty>
0.000

$$$$

  -OEChem-04052305053D

 85 93  0     1  0  0  0  0  0999 V2000
  -19.9067  -34.4717   21.8077 C   0  0  0  0  0  0  0  0  0  0  0  0
  -21.1330  -34.0200   21.3306 C   0  0  0  0  0  0  0  0  0  0  0  0
  -26.2253  -12.5485   21.5086 C   0  0  0  0  0  0  0  0  0  0  0  0
  -26.0507  -13.1979   19.1880 C   0  0  0  0  0  0  0  0  0  0  0  0
  -19.2848  -33.8096   22.8654 C   0  0  0  0  0  0  0  0  0  0  0  0
  -21.7386  -32.9064   21.9117 C   0  0  0  0  0  0  0  0  0  0  0  0
  -25.1220  -28.6589   19.0804 C   0  0  0  0  0  0  0  0  0  0  0  0
  -25.0472  -11.8110   21.3909 C   0  0  0  0  0  0  0  0  0  0  0  0
  -24.8726  -12.4604   19.0703 C   0  0  0  0  0  0  0  0  0  0  0  0
  -26.5000  -28.4848   18.9593 C   0  0  0  0  0  0  0  0  0  0  0  0
  -24.1005   -8.8092   20.1556 C   0  0  0  0  0  0  0  0  0  0  0  0
  -24.0801   -7.5279   20.7062 C   0  0  0  0  0  0  0  0  0  0  0  0
  -26.4642  -26.9531   20.8225 C   0  0  0  0  0  0  0  0  0  0  0  0
  -29.1296  -22.8234   15.7346 C   0  0  0  0  0  0  0  0  0  0  0  0
  -22.2595   -8.1793   22.1548 C   0  0  0  0  0  0  0  0  0  0  0  0
  -26.7270  -13.2420   20.4072 C   0  0  0  0  0  0  0  0  0  0  0  0
  -29.2571  -13.5510   20.3024 C   0  0  0  0  0  0  0  0  0  0  0  0
  -19.8785  -32.6815   23.4534 C   0  0  0  0  0  0  0  0  0  0  0  0
  -24.4053  -27.9886   20.0820 C   0  0  0  0  0  0  0  0  0  0  0  0
  -21.1247  -32.2294   22.9792 C   0  0  0  0  0  0  0  0  0  0  0  0
  -25.0768  -27.1184   20.9526 C   0  0  0  0  0  0  0  0  0  0  0  0
  -28.7899  -21.4908   15.5218 C   0  0  0  0  0  0  0  0  0  0  0  0
  -24.3709  -11.7669   20.1717 C   0  0  0  0  0  0  0  0  0  0  0  0
  -27.1718  -27.6341   19.8323 C   0  0  0  0  0  0  0  0  0  0  0  0
  -23.2004   -9.7757   20.6047 C   0  0  0  0  0  0  0  0  0  0  0  0
  -23.1596   -7.2129   21.7058 C   0  0  0  0  0  0  0  0  0  0  0  0
  -22.2800   -9.4607   21.6042 C   0  0  0  0  0  0  0  0  0  0  0  0
  -28.6890  -20.6198   16.6025 C   0  0  0  0  0  0  0  0  0  0  0  0
  -27.9436  -14.0044   20.5283 C   0  0  0  0  0  0  0  0  0  0  0  0
  -30.0462  -14.6478   20.5491 C   0  0  0  0  0  0  0  0  0  0  0  0
  -29.3618  -23.2549   17.0328 C   0  0  0  0  0  0  0  0  0  0  0  0
  -28.9324  -21.1070   17.8787 C   0  0  0  0  0  0  0  0  0  0  0  0
  -29.7223  -12.2543   19.9050 C   0  0  0  0  0  0  0  0  0  0  0  0
  -22.6653  -28.8943   22.5832 C   0  0  0  0  0  0  0  0  0  0  0  0
  -22.0337  -25.7200   22.7999 C   0  0  0  0  0  0  0  0  0  0  0  0
  -22.9966  -22.5204   22.1056 C   0  0  0  0  0  0  0  0  0  0  0  0
  -29.9768  -25.2266   18.4721 C   0  0  0  0  0  0  0  0  0  0  0  0
  -29.0391  -20.5336   20.3295 C   0  0  0  0  0  0  0  0  0  0  0  0
  -19.1908  -32.0272   24.6255 C   0  0  0  0  0  0  0  0  0  0  0  0
  -22.9151  -28.1665   20.1824 C   0  0  0  0  0  0  0  0  0  0  0  0
  -24.3503  -26.3599   22.0321 C   0  0  0  0  0  0  0  0  0  0  0  0
  -19.7197  -30.6301   24.9396 C   0  0  0  0  0  0  0  0  0  0  0  0
  -30.1626  -18.6691   23.1471 C   0  0  0  0  0  0  0  0  0  0  0  0
  -21.2451  -30.6251   24.9432 C   0  0  0  0  0  0  0  0  0  0  0  0
  -29.8461  -17.2195   22.7721 C   0  0  0  0  0  0  0  0  0  0  0  0
  -29.0885  -19.6323   22.6447 C   0  0  0  0  0  0  0  0  0  0  0  0
  -28.4654  -18.0783   20.8375 C   0  0  0  0  0  0  0  0  0  0  0  0
  -21.8013  -31.0101   23.5670 C   0  0  1  0  0  0  0  0  0  0  0  0
  -22.3651  -27.8308   21.5653 C   0  0  1  0  0  0  0  0  0  0  0  0
  -29.5518  -17.0784   21.2658 C   0  0  2  0  0  0  0  0  0  0  0  0
  -22.2949  -20.1348   22.4432 C   0  0  0  0  0  0  0  0  0  0  0  0
  -22.9583  -25.8616   25.7042 C   0  0  0  0  0  0  0  0  0  0  0  0
  -23.1429  -23.3648   25.6943 C   0  0  0  0  0  0  0  0  0  0  0  0
  -20.9284  -24.4515   25.3233 C   0  0  0  0  0  0  0  0  0  0  0  0
  -22.7945  -22.0457   19.1913 C   0  0  0  0  0  0  0  0  0  0  0  0
  -29.0783  -27.5931   18.4113 C   0  0  0  0  0  0  0  0  0  1  0  0
  -22.6770  -24.5473   23.4998 C   0  0  1  0  0  0  0  0  0  0  0  0
  -22.2355  -21.3436   21.5223 C   0  0  2  0  0  0  0  0  0  0  0  0
  -30.3122  -26.7058   18.2860 C   0  0  1  0  0  0  0  0  0  0  0  0
  -22.4409  -24.5720   25.0364 C   0  0  0  0  0  0  0  0  0  0  0  0
  -27.8968  -15.2891   20.8908 N   0  0  0  0  0  0  0  0  0  0  0  0
  -29.1907  -15.6523   20.8946 N   0  0  0  0  0  0  0  0  0  0  0  0
  -29.2578  -22.3949   18.0552 N   0  3  0  0  0  0  0  0  0  0  0  0
  -22.8947  -26.5721   22.0939 N   0  0  0  0  0  0  0  0  0  0  0  0
  -28.8663  -19.4442   21.2094 N   0  0  0  0  0  0  0  0  0  0  0  0
  -28.5483  -21.0266   14.2126 N   0  0  0  0  0  0  0  0  0  0  0  0
  -31.3814  -14.8413   20.5020 N   0  0  0  0  0  0  0  0  0  0  0  0
  -28.7771  -11.2413   19.6934 N   0  0  0  0  0  0  0  0  0  0  0  0
  -29.7079  -24.6089   17.2553 N   0  0  0  0  0  0  0  0  0  0  0  0
  -28.8321  -20.2272   18.9849 N   0  0  0  0  0  0  0  0  0  0  0  0
  -21.7107  -29.8909   22.6541 N   0  0  0  0  0  0  0  0  0  0  0  0
  -22.1727  -23.3495   22.8370 N   0  0  0  0  0  0  0  0  0  0  0  0
  -22.8105  -20.9576   20.2026 N   0  3  0  0  0  0  0  0  0  0  0  0
  -30.9412  -11.9970   19.7583 O   0  0  0  0  0  0  0  0  0  0  0  0
  -23.6867  -28.8159   23.2557 O   0  0  0  0  0  0  0  0  0  0  0  0
  -20.8114  -25.8703   22.8709 O   0  0  0  0  0  0  0  0  0  0  0  0
  -24.2022  -22.6855   21.9330 O   0  0  0  0  0  0  0  0  0  0  0  0
  -29.9809  -24.7085   19.5851 O   0  0  0  0  0  0  0  0  0  0  0  0
  -29.3746  -21.6491   20.7358 O   0  0  0  0  0  0  0  0  0  0  0  0
  -31.2598  -27.1044   19.2636 O   0  0  0  0  0  0  0  0  0  0  0  0
  -23.2214  -11.0472   20.0564 O   0  0  0  0  0  0  0  0  0  0  0  0
  -28.5168  -27.4629   19.7167 O   0  0  0  0  0  0  0  0  0  1  0  0
  -23.1391   -5.9818   22.2334 F   0  0  0  0  0  0  0  0  0  0  0  0
  -21.4121  -10.3847   22.0388 F   0  0  0  0  0  0  0  0  0  0  0  0
  -28.3626  -19.3333   16.4116 F   0  0  0  0  0  0  0  0  0  0  0  0
  1  2  1  0  0  0  0
  1  5  2  0  0  0  0
  2  6  2  0  0  0  0
  3  8  2  0  0  0  0
  3 16  1  0  0  0  0
  4  9  1  0  0  0  0
  4 16  2  0  0  0  0
  5 18  1  0  0  0  0
  6 20  1  0  0  0  0
  7 10  2  0  0  0  0
  7 19  1  0  0  0  0
  8 23  1  0  0  0  0
  9 23  2  0  0  0  0
 10 24  1  0  0  0  0
 11 12  2  0  0  0  0
 11 25  1  0  0  0  0
 12 26  1  0  0  0  0
 13 21  1  0  0  0  0
 13 24  2  0  0  0  0
 14 22  2  0  0  0  0
 14 31  1  0  0  0  0
 15 26  2  0  0  0  0
 15 27  1  0  0  0  0
 16 29  1  0  0  0  0
 17 29  1  0  0  0  0
 17 30  2  0  0  0  0
 17 33  1  0  0  0  0
 18 20  2  0  0  0  0
 18 39  1  0  0  0  0
 19 21  2  0  0  0  0
 19 40  1  0  0  0  0
 20 48  1  0  0  0  0
 21 41  1  0  0  0  0
 22 28  1  0  0  0  0
 22 66  1  0  0  0  0
 23 81  1  0  0  0  0
 24 82  1  0  0  0  0
 25 27  2  0  0  0  0
 25 81  1  0  0  0  0
 26 83  1  0  0  0  0
 27 84  1  0  0  0  0
 28 32  2  0  0  0  0
 28 85  1  0  0  0  0
 29 61  2  0  0  0  0
 30 62  1  0  0  0  0
 30 67  1  0  0  0  0
 31 63  2  0  0  0  0
 31 69  1  0  0  0  0
 32 63  1  0  0  0  0
 32 70  1  0  0  0  0
 33 68  1  0  0  0  0
 33 74  2  0  0  0  0
 34 49  1  0  0  0  0
 34 71  1  0  0  0  0
 34 75  2  0  0  0  0
 35 57  1  0  0  0  0
 35 64  1  0  0  0  0
 35 76  2  0  0  0  0
 36 58  1  0  0  0  0
 36 72  1  0  0  0  0
 36 77  2  0  0  0  0
 37 59  1  0  0  0  0
 37 69  1  0  0  0  0
 37 78  2  0  0  0  0
 38 65  1  0  0  0  0
 38 70  1  0  0  0  0
 38 79  2  0  0  0  0
 39 42  1  0  0  0  0
 40 49  1  0  0  0  0
 41 64  1  0  0  0  0
 42 44  1  0  0  0  0
 43 45  1  0  0  0  0
 43 46  1  0  0  0  0
 44 48  1  0  0  0  0
 45 50  1  0  0  0  0
 46 65  1  0  0  0  0
 47 50  1  0  0  0  0
 47 65  1  0  0  0  0
 48 71  1  0  0  0  0
 49 64  1  0  0  0  0
 50 62  1  0  0  0  0
 51 58  1  0  0  0  0
 52 60  1  0  0  0  0
 53 60  1  0  0  0  0
 54 60  1  0  0  0  0
 55 73  1  0  0  0  0
 56 59  1  0  0  0  0
 56 82  1  0  0  0  0
 57 60  1  0  0  0  0
 57 72  1  0  0  0  0
 58 73  1  0  0  0  0
 59 80  1  0  0  0  0
 61 62  1  0  0  0  0
M  CHG  2  63   1  73   1
M  ISO  4  38 100  56 101  70 100  82 101
M  END
> <Batch ID>
0185

> <Smiles>
CNC(C)C(=O)NC(C(=O)N1Cc2cc([101O:1][101CH2:1]C(O)C(=O)Nc3cc(N)c(F)c([100NH:0][100C:0](=O)N4CCCC(n5nc(-c6ccc(Oc7ccc(F)cc7F)cc6)c(C(N)=O)c5N)C4)n3)ccc2CC1C(=O)NC1CCCc2ccccc21)C(C)(C)C

> <Shape>
0.262

> <Color>
0.098

> <Negative vol penalty>
0.000

$$$$

  -OEChem-04052305053D

 85 93  0     1  0  0  0  0  0999 V2000
  -25.8557  -35.4487   22.2224 C   0  0  0  0  0  0  0  0  0  0  0  0
  -26.3906  -34.1846   21.9957 C   0  0  0  0  0  0  0  0  0  0  0  0
  -26.5846  -12.5093   21.7824 C   0  0  0  0  0  0  0  0  0  0  0  0
  -26.0610  -14.0514   19.9978 C   0  0  0  0  0  0  0  0  0  0  0  0
  -24.7462  -35.5961   23.0538 C   0  0  0  0  0  0  0  0  0  0  0  0
  -25.8169  -33.0672   22.6012 C   0  0  0  0  0  0  0  0  0  0  0  0
  -25.2862  -29.1802   19.3989 C   0  0  0  0  0  0  0  0  0  0  0  0
  -25.2895  -11.9953   21.7182 C   0  0  0  0  0  0  0  0  0  0  0  0
  -24.7659  -13.5374   19.9336 C   0  0  0  0  0  0  0  0  0  0  0  0
  -26.4265  -28.4307   19.1128 C   0  0  0  0  0  0  0  0  0  0  0  0
  -23.5558   -9.8479   19.7647 C   0  0  0  0  0  0  0  0  0  0  0  0
  -23.4068   -8.4613   19.7905 C   0  0  0  0  0  0  0  0  0  0  0  0
  -25.7101  -26.7504   20.6884 C   0  0  0  0  0  0  0  0  0  0  0  0
  -22.0822   -8.6411   21.8030 C   0  0  0  0  0  0  0  0  0  0  0  0
  -29.4893  -21.5814   19.7197 C   0  0  0  0  0  0  0  0  0  0  0  0
  -26.9703  -13.5374   20.9222 C   0  0  0  0  0  0  0  0  0  0  0  0
  -29.4358  -13.6247   20.2730 C   0  0  0  0  0  0  0  0  0  0  0  0
  -24.1526  -34.4788   23.6621 C   0  0  0  0  0  0  0  0  0  0  0  0
  -24.3532  -28.7248   20.3416 C   0  0  0  0  0  0  0  0  0  0  0  0
  -24.6992  -33.1999   23.4426 C   0  0  0  0  0  0  0  0  0  0  0  0
  -24.5575  -27.4948   20.9829 C   0  0  0  0  0  0  0  0  0  0  0  0
  -24.3802  -12.5092   20.7938 C   0  0  0  0  0  0  0  0  0  0  0  0
  -26.6400  -27.2170   19.7597 C   0  0  0  0  0  0  0  0  0  0  0  0
  -22.9682  -10.6311   20.7581 C   0  0  0  0  0  0  0  0  0  0  0  0
  -22.6700   -7.8579   20.8096 C   0  0  0  0  0  0  0  0  0  0  0  0
  -22.2313  -10.0277   21.7772 C   0  0  0  0  0  0  0  0  0  0  0  0
  -28.3078  -14.0693   20.9884 C   0  0  0  0  0  0  0  0  0  0  0  0
  -30.1375  -23.7676   19.5473 C   0  0  0  0  0  0  0  0  0  0  0  0
  -30.0838  -21.5028   20.9598 C   0  0  0  0  0  0  0  0  0  0  0  0
  -30.7314  -23.6894   20.7877 C   0  0  0  0  0  0  0  0  0  0  0  0
  -30.4523  -14.4503   20.6871 C   0  0  0  0  0  0  0  0  0  0  0  0
  -29.5541  -12.5606   19.3194 C   0  0  0  0  0  0  0  0  0  0  0  0
  -30.1437  -25.0041   18.7295 C   0  0  0  0  0  0  0  0  0  0  0  0
  -23.2590  -29.8124   23.1207 C   0  0  0  0  0  0  0  0  0  0  0  0
  -21.2355  -27.2898   22.8671 C   0  0  0  0  0  0  0  0  0  0  0  0
  -20.6034  -24.2031   21.5556 C   0  0  0  0  0  0  0  0  0  0  0  0
  -30.5576  -19.9921   22.9193 C   0  0  0  0  0  0  0  0  0  0  0  0
  -22.9835  -34.6932   24.5904 C   0  0  0  0  0  0  0  0  0  0  0  0
  -23.1149  -29.5322   20.6194 C   0  0  0  0  0  0  0  0  0  0  0  0
  -23.5761  -26.9518   21.9881 C   0  0  0  0  0  0  0  0  0  0  0  0
  -22.2057  -33.4156   24.8955 C   0  0  0  0  0  0  0  0  0  0  0  0
  -31.8640  -17.0548   24.4499 C   0  0  0  0  0  0  0  0  0  0  0  0
  -23.1617  -32.2781   25.2404 C   0  0  0  0  0  0  0  0  0  0  0  0
  -31.2077  -15.9154   23.6668 C   0  0  0  0  0  0  0  0  0  0  0  0
  -30.9121  -18.2344   24.6397 C   0  0  0  0  0  0  0  0  0  0  0  0
  -29.6457  -17.6055   22.6223 C   0  0  0  0  0  0  0  0  0  0  0  0
  -24.0897  -31.9607   24.0616 C   0  0  1  0  0  0  0  0  0  0  0  0
  -22.4890  -29.2191   21.9749 C   0  0  1  0  0  0  0  0  0  0  0  0
  -30.5873  -16.4211   22.3496 C   0  0  2  0  0  0  0  0  0  0  0  0
  -30.2050  -24.1270   15.8500 C   0  0  0  0  0  0  0  0  0  0  0  0
  -18.8835  -22.3758   21.5593 C   0  0  0  0  0  0  0  0  0  0  0  0
  -22.1565  -26.4319   25.6466 C   0  0  0  0  0  0  0  0  0  0  0  0
  -21.1670  -24.1755   25.2019 C   0  0  0  0  0  0  0  0  0  0  0  0
  -19.7003  -26.1928   25.2416 C   0  0  0  0  0  0  0  0  0  0  0  0
  -20.1693  -24.4471   18.6382 C   0  0  0  0  0  0  0  0  0  0  0  0
  -29.5173  -25.3996   16.3306 C   0  0  0  0  0  0  0  0  0  0  0  0
  -28.2946  -26.5977   18.1676 C   0  0  0  0  0  0  0  0  0  1  0  0
  -21.2731  -25.8421   23.2934 C   0  0  1  0  0  0  0  0  0  0  0  0
  -19.3778  -23.6345   20.8635 C   0  0  2  0  0  0  0  0  0  0  0  0
  -28.9872  -25.2904   17.7712 C   0  0  2  0  0  0  0  0  0  0  0  0
  -21.0939  -25.6714   24.8284 C   0  0  0  0  0  0  0  0  0  0  0  0
  -29.5056  -22.7151   18.9911 N   0  0  0  0  0  0  0  0  0  0  0  0
  -28.5816  -15.0974   21.7959 N   0  0  0  0  0  0  0  0  0  0  0  0
  -30.7155  -22.5555   21.5161 N   0  0  0  0  0  0  0  0  0  0  0  0
  -29.8933  -15.3057   21.5904 N   0  0  0  0  0  0  0  0  0  0  0  0
  -22.3839  -27.7810   22.2303 N   0  0  0  0  0  0  0  0  0  0  0  0
  -30.3666  -18.6620   23.3496 N   0  0  0  0  0  0  0  0  0  0  0  0
  -31.3787  -24.8284   21.3177 N   0  0  0  0  0  0  0  0  0  0  0  0
  -31.7609  -14.5208   20.3630 N   0  0  0  0  0  0  0  0  0  0  0  0
  -28.4109  -11.8117   19.0087 N   0  0  0  0  0  0  0  0  0  0  0  0
  -30.0230  -20.2739   21.6626 N   0  0  0  0  0  0  0  0  0  0  0  0
  -23.3880  -31.1868   23.0601 N   0  0  0  0  0  0  0  0  0  0  0  0
  -20.2645  -25.1549   22.4940 N   0  0  0  0  0  0  0  0  0  0  0  0
  -19.6934  -23.2954   19.4471 N   0  3  0  0  0  0  0  0  0  0  0  0
  -30.6450  -12.2716   18.7716 O   0  0  0  0  0  0  0  0  0  0  0  0
  -31.1083  -25.7615   18.8260 O   0  0  0  0  0  0  0  0  0  0  0  0
  -23.7018  -29.0778   23.9959 O   0  0  0  0  0  0  0  0  0  0  0  0
  -20.2218  -27.9581   23.0846 O   0  0  0  0  0  0  0  0  0  0  0  0
  -21.7468  -23.8369   21.2928 O   0  0  0  0  0  0  0  0  0  0  0  0
  -31.1753  -20.8128   23.6026 O   0  0  0  0  0  0  0  0  0  0  0  0
  -23.1164  -12.0077   20.7307 O   0  0  0  0  0  0  0  0  0  0  0  0
  -27.7525  -26.4838   19.4827 O   0  0  0  0  0  0  0  0  0  1  0  0
  -22.5256   -6.5264   20.8333 F   0  0  0  0  0  0  0  0  0  0  0  0
  -21.6634  -10.7751   22.7337 F   0  0  0  0  0  0  0  0  0  0  0  0
  -28.0404  -24.3064   17.7721 F   0  0  0  0  0  0  0  0  0  0  0  0
  1  2  1  0  0  0  0
  1  5  2  0  0  0  0
  2  6  2  0  0  0  0
  3  8  2  0  0  0  0
  3 16  1  0  0  0  0
  4  9  1  0  0  0  0
  4 16  2  0  0  0  0
  5 18  1  0  0  0  0
  6 20  1  0  0  0  0
  7 10  2  0  0  0  0
  7 19  1  0  0  0  0
  8 22  1  0  0  0  0
  9 22  2  0  0  0  0
 10 23  1  0  0  0  0
 11 12  2  0  0  0  0
 11 24  1  0  0  0  0
 12 25  1  0  0  0  0
 13 21  1  0  0  0  0
 13 23  2  0  0  0  0
 14 25  2  0  0  0  0
 14 26  1  0  0  0  0
 15 29  1  0  0  0  0
 15 62  2  0  0  0  0
 16 27  1  0  0  0  0
 17 27  1  0  0  0  0
 17 31  2  0  0  0  0
 17 32  1  0  0  0  0
 18 20  2  0  0  0  0
 18 38  1  0  0  0  0
 19 21  2  0  0  0  0
 19 39  1  0  0  0  0
 20 47  1  0  0  0  0
 21 40  1  0  0  0  0
 22 81  1  0  0  0  0
 23 82  1  0  0  0  0
 24 26  2  0  0  0  0
 24 81  1  0  0  0  0
 25 83  1  0  0  0  0
 26 84  1  0  0  0  0
 27 63  2  0  0  0  0
 28 30  2  0  0  0  0
 28 33  1  0  0  0  0
 28 62  1  0  0  0  0
 29 64  2  0  0  0  0
 29 71  1  0  0  0  0
 30 64  1  0  0  0  0
 30 68  1  0  0  0  0
 31 65  1  0  0  0  0
 31 69  1  0  0  0  0
 32 70  1  0  0  0  0
 32 75  2  0  0  0  0
 33 60  1  0  0  0  0
 33 76  2  0  0  0  0
 34 48  1  0  0  0  0
 34 72  1  0  0  0  0
 34 77  2  0  0  0  0
 35 58  1  0  0  0  0
 35 66  1  0  0  0  0
 35 78  2  0  0  0  0
 36 59  1  0  0  0  0
 36 73  1  0  0  0  0
 36 79  2  0  0  0  0
 37 67  1  0  0  0  0
 37 71  1  0  0  0  0
 37 80  2  0  0  0  0
 38 41  1  0  0  0  0
 39 48  1  0  0  0  0
 40 66  1  0  0  0  0
 41 43  1  0  0  0  0
 42 44  1  0  0  0  0
 42 45  1  0  0  0  0
 43 47  1  0  0  0  0
 44 49  1  0  0  0  0
 45 67  1  0  0  0  0
 46 49  1  0  0  0  0
 46 67  1  0  0  0  0
 47 72  1  0  0  0  0
 48 66  1  0  0  0  0
 49 65  1  0  0  0  0
 50 56  1  0  0  0  0
 51 59  1  0  0  0  0
 52 61  1  0  0  0  0
 53 61  1  0  0  0  0
 54 61  1  0  0  0  0
 55 74  1  0  0  0  0
 56 60  1  0  0  0  0
 57 60  1  0  0  0  0
 57 82  1  0  0  0  0
 58 61  1  0  0  0  0
 58 73  1  0  0  0  0
 59 74  1  0  0  0  0
 60 85  1  0  0  0  0
 63 65  1  0  0  0  0
M  CHG  1  74   1
M  ISO  4  37 100  57 101  71 100  82 101
M  END
> <Batch ID>
0185

> <Smiles>
CCC(F)(C(=O)c1ncc([100NH:0][100C:0](=O)N2CCCC(n3nc(-c4ccc(Oc5ccc(F)cc5F)cc4)c(C(N)=O)c3N)C2)nc1N)[101CH2:1][101O:1]c1ccc2c(c1)CN(C(=O)C(NC(=O)C(C)NC)C(C)(C)C)C(C(=O)NC1CCCc3ccccc31)C2

> <Shape>
0.316

> <Color>
0.096

> <Negative vol penalty>
0.000

$$$$

  -OEChem-04052305053D

 86 94  0     1  0  0  0  0  0999 V2000
  -31.6861  -31.0581   26.0077 C   0  0  0  0  0  0  0  0  0  0  0  0
  -31.4100  -30.2706   24.8946 C   0  0  0  0  0  0  0  0  0  0  0  0
  -24.5645   -9.1690   20.7138 C   0  0  0  0  0  0  0  0  0  0  0  0
  -22.8174  -10.8368   20.7670 C   0  0  0  0  0  0  0  0  0  0  0  0
  -30.7095  -31.2499   26.9841 C   0  0  0  0  0  0  0  0  0  0  0  0
  -30.1573  -29.6736   24.7578 C   0  0  0  0  0  0  0  0  0  0  0  0
  -27.0952  -28.6949   19.5451 C   0  0  0  0  0  0  0  0  0  0  0  0
  -23.6405   -8.1894   21.0775 C   0  0  0  0  0  0  0  0  0  0  0  0
  -21.8933   -9.8572   21.1307 C   0  0  0  0  0  0  0  0  0  0  0  0
  -26.9560  -27.5677   18.7365 C   0  0  0  0  0  0  0  0  0  0  0  0
  -22.1060   -7.1386   23.8998 C   0  0  0  0  0  0  0  0  0  0  0  0
  -22.4794   -6.2336   24.8932 C   0  0  0  0  0  0  0  0  0  0  0  0
  -24.8792  -27.0376   19.8432 C   0  0  0  0  0  0  0  0  0  0  0  0
  -22.1865   -4.4070   23.3392 C   0  0  0  0  0  0  0  0  0  0  0  0
  -24.1529  -10.4927   20.5586 C   0  0  0  0  0  0  0  0  0  0  0  0
  -25.4510  -11.9074   18.8790 C   0  0  0  0  0  0  0  0  0  0  0  0
  -29.4410  -30.6628   26.8544 C   0  0  0  0  0  0  0  0  0  0  0  0
  -26.1313  -28.9964   20.5179 C   0  0  0  0  0  0  0  0  0  0  0  0
  -29.1632  -29.8566   25.7340 C   0  0  0  0  0  0  0  0  0  0  0  0
  -25.0072  -28.1706   20.6612 C   0  0  0  0  0  0  0  0  0  0  0  0
  -22.3050   -8.5335   21.2859 C   0  0  0  0  0  0  0  0  0  0  0  0
  -25.8494  -26.7373   18.8874 C   0  0  0  0  0  0  0  0  0  0  0  0
  -21.7728   -6.6779   22.6260 C   0  0  0  0  0  0  0  0  0  0  0  0
  -22.5196   -4.8677   24.6130 C   0  0  0  0  0  0  0  0  0  0  0  0
  -21.8130   -5.3121   22.3458 C   0  0  0  0  0  0  0  0  0  0  0  0
  -25.1070  -11.5052   20.1834 C   0  0  0  0  0  0  0  0  0  0  0  0
  -28.1065  -20.6784   17.9374 C   0  0  0  0  0  0  0  0  0  0  0  0
  -28.8893  -20.9424   19.0417 C   0  0  0  0  0  0  0  0  0  0  0  0
  -26.3934  -12.8901   19.0600 C   0  0  0  0  0  0  0  0  0  0  0  0
  -28.0623  -19.0132   19.6774 C   0  0  0  0  0  0  0  0  0  0  0  0
  -24.9624  -11.4352   17.6165 C   0  0  0  0  0  0  0  0  0  0  0  0
  -26.1468  -29.2575   23.6858 C   0  0  0  0  0  0  0  0  0  0  0  0
  -23.0985  -30.2676   23.2279 C   0  0  0  0  0  0  0  0  0  0  0  0
  -26.6860  -23.5278   17.4221 C   0  0  0  0  0  0  0  0  0  0  0  0
  -20.3187  -30.2853   21.2481 C   0  0  0  0  0  0  0  0  0  0  0  0
  -28.2262  -17.4624   21.6559 C   0  0  0  0  0  0  0  0  0  0  0  0
  -28.4333  -30.8603   27.9590 C   0  0  0  0  0  0  0  0  0  0  0  0
  -26.2825  -30.2307   21.3641 C   0  0  0  0  0  0  0  0  0  0  0  0
  -23.9338  -28.4614   21.6770 C   0  0  0  0  0  0  0  0  0  0  0  0
  -27.0067  -30.4985   27.5539 C   0  0  0  0  0  0  0  0  0  0  0  0
  -28.8902  -14.3334   23.2199 C   0  0  0  0  0  0  0  0  0  0  0  0
  -26.9817  -29.1570   26.8282 C   0  0  0  0  0  0  0  0  0  0  0  0
  -27.9934  -13.3518   22.4620 C   0  0  0  0  0  0  0  0  0  0  0  0
  -28.2171  -15.6929   23.4006 C   0  0  0  0  0  0  0  0  0  0  0  0
  -26.8180  -15.3245   21.4066 C   0  0  0  0  0  0  0  0  0  0  0  0
  -27.8080  -29.2125   25.5376 C   0  0  1  0  0  0  0  0  0  0  0  0
  -25.5002  -30.1582   22.6718 C   0  0  1  0  0  0  0  0  0  0  0  0
  -27.4787  -13.9615   21.1434 C   0  0  2  0  0  0  0  0  0  0  0  0
  -17.9708  -31.1664   21.1569 C   0  0  0  0  0  0  0  0  0  0  0  0
  -28.5200  -22.0296   14.2455 C   0  0  0  0  0  0  0  0  0  0  0  0
  -28.8314  -19.6841   15.0585 C   0  0  0  0  0  0  0  0  0  0  0  0
  -30.3125  -21.5120   15.8941 C   0  0  0  0  0  0  0  0  0  0  0  0
  -22.2249  -28.1404   25.2332 C   0  0  0  0  0  0  0  0  0  0  0  0
  -19.8805  -28.4161   24.3989 C   0  0  0  0  0  0  0  0  0  0  0  0
  -21.0560  -30.3387   25.4688 C   0  0  0  0  0  0  0  0  0  0  0  0
  -20.8739  -31.8398   18.7916 C   0  0  0  0  0  0  0  0  0  0  0  0
  -26.9096  -25.0081   17.6457 C   0  0  0  0  0  0  0  0  0  1  0  0
  -27.8907  -21.4870   16.6673 C   0  0  2  0  0  0  0  0  0  0  0  0
  -21.7490  -29.5950   23.1539 C   0  0  1  0  0  0  0  0  0  0  0  0
  -19.4226  -31.4177   20.7801 C   0  0  2  0  0  0  0  0  0  0  0  0
  -28.8634  -21.1661   15.4778 C   0  0  0  0  0  0  0  0  0  0  0  0
  -21.2486  -29.1157   24.5458 C   0  0  0  0  0  0  0  0  0  0  0  0
  -25.7765  -12.1772   21.1237 N   0  0  0  0  0  0  0  0  0  0  0  0
  -28.8649  -19.9888   20.0407 N   0  0  0  0  0  0  0  0  0  0  0  0
  -26.5507  -13.0117   20.4093 N   0  0  0  0  0  0  0  0  0  0  0  0
  -24.1301  -29.6765   22.4848 N   0  0  0  0  0  0  0  0  0  0  0  0
  -27.7592  -16.2106   22.1094 N   0  0  0  0  0  0  0  0  0  0  0  0
  -29.6471  -22.0567   19.1770 N   0  0  0  0  0  0  0  0  0  0  0  0
  -27.0947  -13.6533   18.1950 N   0  0  0  0  0  0  0  0  0  0  0  0
  -23.9951  -10.4209   17.6115 N   0  0  0  0  0  0  0  0  0  0  0  0
  -27.7479  -17.8358   20.4004 N   0  0  0  0  0  0  0  0  0  0  0  0
  -27.0705  -29.8921   24.4942 N   0  0  0  0  0  0  0  0  0  0  0  0
  -27.8330  -22.9001   16.9621 N   0  0  0  0  0  0  0  0  0  0  0  0
  -20.8573  -30.5407   22.4915 N   0  0  0  0  0  0  0  0  0  0  0  0
  -19.5050  -31.5655   19.2995 N   0  3  0  0  0  0  0  0  0  0  0  0
  -25.3834  -11.8874   16.5248 O   0  0  0  0  0  0  0  0  0  0  0  0
  -25.8299  -28.0746   23.7324 O   0  0  0  0  0  0  0  0  0  0  0  0
  -23.2306  -31.2843   23.9138 O   0  0  0  0  0  0  0  0  0  0  0  0
  -25.6070  -22.9799   17.6308 O   0  0  0  0  0  0  0  0  0  0  0  0
  -20.5179  -29.2736   20.5793 O   0  0  0  0  0  0  0  0  0  0  0  0
  -29.0152  -18.1399   22.3195 O   0  0  0  0  0  0  0  0  0  0  0  0
  -21.4030   -7.5778   21.6406 O   0  0  0  0  0  0  0  0  0  0  0  0
  -25.7114  -25.6361   18.0999 O   0  0  0  0  0  0  0  0  0  1  0  0
  -22.8797   -3.9988   25.5666 F   0  0  0  0  0  0  0  0  0  0  0  0
  -21.4952   -4.8636   21.1236 F   0  0  0  0  0  0  0  0  0  0  0  0
  -27.3043  -19.1770   18.1466 S   0  0  0  0  0  0  0  0  0  0  0  0
  1  2  1  0  0  0  0
  1  5  2  0  0  0  0
  2  6  2  0  0  0  0
  3  8  2  0  0  0  0
  3 15  1  0  0  0  0
  4  9  1  0  0  0  0
  4 15  2  0  0  0  0
  5 17  1  0  0  0  0
  6 19  1  0  0  0  0
  7 10  2  0  0  0  0
  7 18  1  0  0  0  0
  8 21  1  0  0  0  0
  9 21  2  0  0  0  0
 10 22  1  0  0  0  0
 11 12  2  0  0  0  0
 11 23  1  0  0  0  0
 12 24  1  0  0  0  0
 13 20  1  0  0  0  0
 13 22  2  0  0  0  0
 14 24  2  0  0  0  0
 14 25  1  0  0  0  0
 15 26  1  0  0  0  0
 16 26  1  0  0  0  0
 16 29  2  0  0  0  0
 16 31  1  0  0  0  0
 17 19  2  0  0  0  0
 17 37  1  0  0  0  0
 18 20  2  0  0  0  0
 18 38  1  0  0  0  0
 19 46  1  0  0  0  0
 20 39  1  0  0  0  0
 21 82  1  0  0  0  0
 22 83  1  0  0  0  0
 23 25  2  0  0  0  0
 23 82  1  0  0  0  0
 24 84  1  0  0  0  0
 25 85  1  0  0  0  0
 26 63  2  0  0  0  0
 27 28  2  0  0  0  0
 27 58  1  0  0  0  0
 27 86  1  0  0  0  0
 28 64  1  0  0  0  0
 28 68  1  0  0  0  0
 29 65  1  0  0  0  0
 29 69  1  0  0  0  0
 30 64  2  0  0  0  0
 30 71  1  0  0  0  0
 30 86  1  0  0  0  0
 31 70  1  0  0  0  0
 31 76  2  0  0  0  0
 32 47  1  0  0  0  0
 32 72  1  0  0  0  0
 32 77  2  0  0  0  0
 33 59  1  0  0  0  0
 33 66  1  0  0  0  0
 33 78  2  0  0  0  0
 34 57  1  0  0  0  0
 34 73  1  0  0  0  0
 34 79  2  0  0  0  0
 35 60  1  0  0  0  0
 35 74  1  0  0  0  0
 35 80  2  0  0  0  0
 36 67  1  0  0  0  0
 36 71  1  0  0  0  0
 36 81  2  0  0  0  0
 37 40  1  0  0  0  0
 38 47  1  0  0  0  0
 39 66  1  0  0  0  0
 40 42  1  0  0  0  0
 41 43  1  0  0  0  0
 41 44  1  0  0  0  0
 42 46  1  0  0  0  0
 43 48  1  0  0  0  0
 44 67  1  0  0  0  0
 45 48  1  0  0  0  0
 45 67  1  0  0  0  0
 46 72  1  0  0  0  0
 47 66  1  0  0  0  0
 48 65  1  0  0  0  0
 49 60  1  0  0  0  0
 50 61  1  0  0  0  0
 51 61  1  0  0  0  0
 52 61  1  0  0  0  0
 53 62  1  0  0  0  0
 54 62  1  0  0  0  0
 55 62  1  0  0  0  0
 56 75  1  0  0  0  0
 57 83  1  0  0  0  0
 58 61  1  0  0  0  0
 58 73  1  0  0  0  0
 59 62  1  0  0  0  0
 59 74  1  0  0  0  0
 60 75  1  0  0  0  0
 63 65  1  0  0  0  0
M  CHG  1  75   1
M  ISO  4  36 100  57 101  71 100  83 101
M  END
> <Batch ID>
0185

> <Smiles>
CNC(C)C(=O)NC(C(=O)N1Cc2cc([101O:1][101CH2:1]C(=O)NC(c3sc([100NH:0][100C:0](=O)N4CCCC(n5nc(-c6ccc(Oc7ccc(F)cc7F)cc6)c(C(N)=O)c5N)C4)nc3N)C(C)(C)C)ccc2CC1C(=O)NC1CCCc2ccccc21)C(C)(C)C

> <Shape>
0.247

> <Color>
0.101

> <Negative vol penalty>
0.000

$$$$

  -OEChem-04052305053D

 82 90  0     1  0  0  0  0  0999 V2000
  -30.8080  -26.7683   10.2154 C   0  0  0  0  0  0  0  0  0  0  0  0
  -31.4209  -25.7718   10.9682 C   0  0  0  0  0  0  0  0  0  0  0  0
  -23.0036   -9.8883   19.9771 C   0  0  0  0  0  0  0  0  0  0  0  0
  -23.7318   -9.9350   22.2803 C   0  0  0  0  0  0  0  0  0  0  0  0
  -30.6684  -28.0517   10.7419 C   0  0  0  0  0  0  0  0  0  0  0  0
  -31.8956  -26.0584   12.2476 C   0  0  0  0  0  0  0  0  0  0  0  0
  -31.9496  -22.2993   17.0821 C   0  0  0  0  0  0  0  0  0  0  0  0
  -22.2401   -8.7514   20.2415 C   0  0  0  0  0  0  0  0  0  0  0  0
  -22.9682   -8.7980   22.5447 C   0  0  0  0  0  0  0  0  0  0  0  0
  -32.9483  -21.5018   17.6390 C   0  0  0  0  0  0  0  0  0  0  0  0
  -23.2196   -5.4609   22.0638 C   0  0  0  0  0  0  0  0  0  0  0  0
  -23.8106   -4.4432   22.8125 C   0  0  0  0  0  0  0  0  0  0  0  0
  -33.4533  -23.2503   19.2224 C   0  0  0  0  0  0  0  0  0  0  0  0
  -22.0884   -4.6777   24.4907 C   0  0  0  0  0  0  0  0  0  0  0  0
  -29.8645  -17.7927   22.6767 C   0  0  0  0  0  0  0  0  0  0  0  0
  -23.7495  -10.4801   20.9965 C   0  0  0  0  0  0  0  0  0  0  0  0
  -24.1287  -12.9971   20.8265 C   0  0  0  0  0  0  0  0  0  0  0  0
  -31.1329  -28.3518   12.0322 C   0  0  0  0  0  0  0  0  0  0  0  0
  -31.7021  -23.5848   17.5850 C   0  0  0  0  0  0  0  0  0  0  0  0
  -31.7632  -27.3474   12.7914 C   0  0  0  0  0  0  0  0  0  0  0  0
  -32.4491  -24.0612   18.6717 C   0  0  0  0  0  0  0  0  0  0  0  0
  -22.2223   -8.2062   21.5253 C   0  0  0  0  0  0  0  0  0  0  0  0
  -33.7023  -21.9783   18.7074 C   0  0  0  0  0  0  0  0  0  0  0  0
  -22.0631   -6.0872   22.5286 C   0  0  0  0  0  0  0  0  0  0  0  0
  -23.2450   -4.0515   24.0259 C   0  0  0  0  0  0  0  0  0  0  0  0
  -21.4975   -5.6955   23.7420 C   0  0  0  0  0  0  0  0  0  0  0  0
  -24.5389  -11.6543   20.7238 C   0  0  0  0  0  0  0  0  0  0  0  0
  -30.5728  -16.9066   21.8924 C   0  0  0  0  0  0  0  0  0  0  0  0
  -25.2363  -13.7232   20.4624 C   0  0  0  0  0  0  0  0  0  0  0  0
  -32.0670  -18.5075   22.0129 C   0  0  0  0  0  0  0  0  0  0  0  0
  -22.8600  -13.5395   21.2161 C   0  0  0  0  0  0  0  0  0  0  0  0
  -31.8550  -26.5275   16.3931 C   0  0  0  0  0  0  0  0  0  0  0  0
  -30.5591  -27.3347   19.2552 C   0  0  0  0  0  0  0  0  0  0  0  0
  -30.0685  -26.5460   22.5391 C   0  0  0  0  0  0  0  0  0  0  0  0
  -34.3879  -18.9783   21.1653 C   0  0  0  0  0  0  0  0  0  0  0  0
  -30.7138  -14.6966   20.6914 C   0  0  0  0  0  0  0  0  0  0  0  0
  -31.0019  -29.7657   12.5403 C   0  0  0  0  0  0  0  0  0  0  0  0
  -30.6032  -24.4223   16.9904 C   0  0  0  0  0  0  0  0  0  0  0  0
  -32.2092  -25.4261   19.2615 C   0  0  0  0  0  0  0  0  0  0  0  0
  -31.1958  -29.8911   14.0493 C   0  0  0  0  0  0  0  0  0  0  0  0
  -29.5982  -12.2469   18.3608 C   0  0  0  0  0  0  0  0  0  0  0  0
  -32.4260  -29.1079   14.4964 C   0  0  0  0  0  0  0  0  0  0  0  0
  -28.1487  -11.9848   18.7763 C   0  0  0  0  0  0  0  0  0  0  0  0
  -30.4997  -12.4894   19.5700 C   0  0  0  0  0  0  0  0  0  0  0  0
  -28.5843  -13.2704   20.9081 C   0  0  0  0  0  0  0  0  0  0  0  0
  -32.2688  -27.6131   14.1928 C   0  0  1  0  0  0  0  0  0  0  0  0
  -30.7829  -25.9149   17.2492 C   0  0  1  0  0  0  0  0  0  0  0  0
  -27.6255  -13.0848   19.7207 C   0  0  2  0  0  0  0  0  0  0  0  0
  -29.0024  -27.4185   24.6365 C   0  0  0  0  0  0  0  0  0  0  0  0
  -32.8532  -29.3179   19.5933 C   0  0  0  0  0  0  0  0  0  0  0  0
  -32.2896  -29.4477   22.0292 C   0  0  0  0  0  0  0  0  0  0  0  0
  -30.6193  -30.1723   20.3240 C   0  0  0  0  0  0  0  0  0  0  0  0
  -28.2575  -24.2128   22.7275 C   0  0  0  0  0  0  0  0  0  0  0  0
  -34.9543  -21.3852   20.6405 C   0  0  0  0  0  0  0  0  0  1  0  0
  -31.1091  -27.7086   20.6104 C   0  0  1  0  0  0  0  0  0  0  0  0
  -28.8186  -26.5518   23.4005 C   0  0  2  0  0  0  0  0  0  0  0  0
  -35.4295  -20.0798   21.2612 C   0  0  2  0  0  0  0  0  0  0  0  0
  -31.7239  -29.1366   20.6271 C   0  0  0  0  0  0  0  0  0  0  0  0
  -25.8079  -11.5318   20.3256 N   0  0  0  0  0  0  0  0  0  0  0  0
  -31.8358  -17.3149   21.5104 N   0  0  0  0  0  0  0  0  0  0  0  0
  -26.2047  -12.8069   20.1747 N   0  0  0  0  0  0  0  0  0  0  0  0
  -31.1279  -26.2096   18.6415 N   0  0  0  0  0  0  0  0  0  0  0  0
  -29.9433  -13.5469   20.4167 N   0  0  0  0  0  0  0  0  0  0  0  0
  -25.4665  -15.0497   20.3635 N   0  0  0  0  0  0  0  0  0  0  0  0
  -21.8308  -12.6521   21.5588 N   0  0  0  0  0  0  0  0  0  0  0  0
  -30.0683  -15.6483   21.4802 N   0  0  0  0  0  0  0  0  0  0  0  0
  -33.2334  -19.2957   21.8696 N   0  0  0  0  0  0  0  0  0  0  0  0
  -31.4044  -26.9871   15.1703 N   0  0  0  0  0  0  0  0  0  0  0  0
  -30.0190  -27.5162   21.5606 N   0  0  0  0  0  0  0  0  0  0  0  0
  -28.4874  -25.1675   23.8422 N   0  3  0  0  0  0  0  0  0  0  0  0
  -22.6405  -14.7742   21.2434 O   0  0  0  0  0  0  0  0  0  0  0  0
  -33.0055  -26.5807   16.8115 O   0  0  0  0  0  0  0  0  0  0  0  0
  -29.6532  -28.0115   18.7625 O   0  0  0  0  0  0  0  0  0  0  0  0
  -30.9976  -25.7617   22.7187 O   0  0  0  0  0  0  0  0  0  0  0  0
  -34.6224  -17.9540   20.5306 O   0  0  0  0  0  0  0  0  0  0  0  0
  -31.8515  -14.8393   20.2362 O   0  0  0  0  0  0  0  0  0  0  0  0
  -21.4772   -7.0969   21.7838 O   0  0  0  0  0  0  0  0  0  0  0  0
  -34.6782  -21.2022   19.2525 O   0  0  0  0  0  0  0  0  0  1  0  0
  -23.8117   -3.0731   24.7440 F   0  0  0  0  0  0  0  0  0  0  0  0
  -20.3858   -6.2927   24.1931 F   0  0  0  0  0  0  0  0  0  0  0  0
  -36.5789  -19.7046   20.6295 F   0  0  0  0  0  0  0  0  0  0  0  0
  -30.8092  -19.1967   22.9552 S   0  0  0  0  0  0  0  0  0  0  0  0
  1  2  1  0  0  0  0
  1  5  2  0  0  0  0
  2  6  2  0  0  0  0
  3  8  2  0  0  0  0
  3 16  1  0  0  0  0
  4  9  1  0  0  0  0
  4 16  2  0  0  0  0
  5 18  1  0  0  0  0
  6 20  1  0  0  0  0
  7 10  2  0  0  0  0
  7 19  1  0  0  0  0
  8 22  1  0  0  0  0
  9 22  2  0  0  0  0
 10 23  1  0  0  0  0
 11 12  2  0  0  0  0
 11 24  1  0  0  0  0
 12 25  1  0  0  0  0
 13 21  1  0  0  0  0
 13 23  2  0  0  0  0
 14 25  2  0  0  0  0
 14 26  1  0  0  0  0
 15 28  2  0  0  0  0
 15 82  1  0  0  0  0
 16 27  1  0  0  0  0
 17 27  1  0  0  0  0
 17 29  2  0  0  0  0
 17 31  1  0  0  0  0
 18 20  2  0  0  0  0
 18 37  1  0  0  0  0
 19 21  2  0  0  0  0
 19 38  1  0  0  0  0
 20 46  1  0  0  0  0
 21 39  1  0  0  0  0
 22 77  1  0  0  0  0
 23 78  1  0  0  0  0
 24 26  2  0  0  0  0
 24 77  1  0  0  0  0
 25 79  1  0  0  0  0
 26 80  1  0  0  0  0
 27 59  2  0  0  0  0
 28 60  1  0  0  0  0
 28 66  1  0  0  0  0
 29 61  1  0  0  0  0
 29 64  1  0  0  0  0
 30 60  2  0  0  0  0
 30 67  1  0  0  0  0
 30 82  1  0  0  0  0
 31 65  1  0  0  0  0
 31 71  2  0  0  0  0
 32 47  1  0  0  0  0
 32 68  1  0  0  0  0
 32 72  2  0  0  0  0
 33 55  1  0  0  0  0
 33 62  1  0  0  0  0
 33 73  2  0  0  0  0
 34 56  1  0  0  0  0
 34 69  1  0  0  0  0
 34 74  2  0  0  0  0
 35 57  1  0  0  0  0
 35 67  1  0  0  0  0
 35 75  2  0  0  0  0
 36 63  1  0  0  0  0
 36 66  1  0  0  0  0
 36 76  2  0  0  0  0
 37 40  1  0  0  0  0
 38 47  1  0  0  0  0
 39 62  1  0  0  0  0
 40 42  1  0  0  0  0
 41 43  1  0  0  0  0
 41 44  1  0  0  0  0
 42 46  1  0  0  0  0
 43 48  1  0  0  0  0
 44 63  1  0  0  0  0
 45 48  1  0  0  0  0
 45 63  1  0  0  0  0
 46 68  1  0  0  0  0
 47 62  1  0  0  0  0
 48 61  1  0  0  0  0
 49 56  1  0  0  0  0
 50 58  1  0  0  0  0
 51 58  1  0  0  0  0
 52 58  1  0  0  0  0
 53 70  1  0  0  0  0
 54 57  1  0  0  0  0
 54 78  1  0  0  0  0
 55 58  1  0  0  0  0
 55 69  1  0  0  0  0
 56 70  1  0  0  0  0
 57 81  1  0  0  0  0
 59 61  1  0  0  0  0
M  CHG  1  70   1
M  ISO  4  36 100  54 101  66 100  78 101
M  END
> <Batch ID>
0185

> <Smiles>
CNC(C)C(=O)NC(C(=O)N1Cc2cc([101O:1][101CH2:1]C(F)C(=O)Nc3nc([100NH:0][100C:0](=O)N4CCCC(n5nc(-c6ccc(Oc7ccc(F)cc7F)cc6)c(C(N)=O)c5N)C4)cs3)ccc2CC1C(=O)NC1CCCc2ccccc21)C(C)(C)C

> <Shape>
0.229

> <Color>
0.194

> <Negative vol penalty>
0.000

$$$$

  -OEChem-04052305053D

 85 93  0     1  0  0  0  0  0999 V2000
  -19.8998  -34.4136   20.8552 C   0  0  0  0  0  0  0  0  0  0  0  0
  -21.1451  -33.8811   20.5375 C   0  0  0  0  0  0  0  0  0  0  0  0
  -27.6823  -10.0027   21.7672 C   0  0  0  0  0  0  0  0  0  0  0  0
  -26.0771  -11.2974   20.5084 C   0  0  0  0  0  0  0  0  0  0  0  0
  -19.1744  -33.8958   21.9273 C   0  0  0  0  0  0  0  0  0  0  0  0
  -21.6663  -32.8310   21.2926 C   0  0  0  0  0  0  0  0  0  0  0  0
  -25.1271  -28.2027   19.2660 C   0  0  0  0  0  0  0  0  0  0  0  0
  -26.6403   -9.3066   22.3798 C   0  0  0  0  0  0  0  0  0  0  0  0
  -25.0352  -10.6012   21.1210 C   0  0  0  0  0  0  0  0  0  0  0  0
  -26.5040  -27.9845   19.2810 C   0  0  0  0  0  0  0  0  0  0  0  0
  -23.5273   -7.5933   20.8056 C   0  0  0  0  0  0  0  0  0  0  0  0
  -22.4858   -7.1429   19.9944 C   0  0  0  0  0  0  0  0  0  0  0  0
  -27.0746  -20.3007   17.8805 C   0  0  0  0  0  0  0  0  0  0  0  0
  -27.7295  -21.5181   18.0299 C   0  0  0  0  0  0  0  0  0  0  0  0
  -26.2702  -26.6858   21.3003 C   0  0  0  0  0  0  0  0  0  0  0  0
  -20.9188   -8.4654   21.2723 C   0  0  0  0  0  0  0  0  0  0  0  0
  -27.4007  -10.9982   20.8316 C   0  0  0  0  0  0  0  0  0  0  0  0
  -29.1395  -11.3789   19.0042 C   0  0  0  0  0  0  0  0  0  0  0  0
  -19.6826  -32.8324   22.6899 C   0  0  0  0  0  0  0  0  0  0  0  0
  -24.3114  -27.6722   20.2757 C   0  0  0  0  0  0  0  0  0  0  0  0
  -20.9476  -32.2993   22.3768 C   0  0  0  0  0  0  0  0  0  0  0  0
  -24.8829  -26.8965   21.2944 C   0  0  0  0  0  0  0  0  0  0  0  0
  -25.3168   -9.6057   22.0567 C   0  0  0  0  0  0  0  0  0  0  0  0
  -27.0762  -27.2285   20.2998 C   0  0  0  0  0  0  0  0  0  0  0  0
  -23.2646   -8.4796   21.8502 C   0  0  0  0  0  0  0  0  0  0  0  0
  -21.1815   -7.5790   20.2277 C   0  0  0  0  0  0  0  0  0  0  0  0
  -27.5792  -19.1650   18.5043 C   0  0  0  0  0  0  0  0  0  0  0  0
  -21.9604   -8.9157   22.0835 C   0  0  0  0  0  0  0  0  0  0  0  0
  -28.4765  -11.7181   20.1988 C   0  0  0  0  0  0  0  0  0  0  0  0
  -28.8762  -21.5466   18.8073 C   0  0  0  0  0  0  0  0  0  0  0  0
  -28.7326  -19.2988   19.2602 C   0  0  0  0  0  0  0  0  0  0  0  0
  -30.0724  -12.3726   18.8350 C   0  0  0  0  0  0  0  0  0  0  0  0
  -28.9306  -10.2650   18.1258 C   0  0  0  0  0  0  0  0  0  0  0  0
  -22.4071  -28.9071   22.5012 C   0  0  0  0  0  0  0  0  0  0  0  0
  -21.6586  -25.7959   23.0325 C   0  0  0  0  0  0  0  0  0  0  0  0
  -22.5707  -22.5157   22.7977 C   0  0  0  0  0  0  0  0  0  0  0  0
  -29.1689  -24.0116   18.4030 C   0  0  0  0  0  0  0  0  0  0  0  0
  -30.3794  -18.0430   20.6946 C   0  0  0  0  0  0  0  0  0  0  0  0
  -18.8829  -32.3373   23.8689 C   0  0  0  0  0  0  0  0  0  0  0  0
  -22.8244  -27.8942   20.2305 C   0  0  0  0  0  0  0  0  0  0  0  0
  -24.0484  -26.2879   22.3907 C   0  0  0  0  0  0  0  0  0  0  0  0
  -19.3399  -30.9759   24.3864 C   0  0  0  0  0  0  0  0  0  0  0  0
  -32.7476  -15.4618   21.3319 C   0  0  0  0  0  0  0  0  0  0  0  0
  -20.8591  -30.9370   24.5174 C   0  0  0  0  0  0  0  0  0  0  0  0
  -31.9834  -14.1783   20.9991 C   0  0  0  0  0  0  0  0  0  0  0  0
  -31.8446  -16.5063   21.9856 C   0  0  0  0  0  0  0  0  0  0  0  0
  -29.8527  -15.5346   20.9097 C   0  0  0  0  0  0  0  0  0  0  0  0
  -21.5356  -31.1435   23.1568 C   0  0  1  0  0  0  0  0  0  0  0  0
  -22.1552  -27.7373   21.5925 C   0  0  1  0  0  0  0  0  0  0  0  0
  -30.7057  -14.4769   20.1904 C   0  0  2  0  0  0  0  0  0  0  0  0
  -21.7680  -20.2034   23.3512 C   0  0  0  0  0  0  0  0  0  0  0  0
  -22.3522  -26.2602   25.9674 C   0  0  0  0  0  0  0  0  0  0  0  0
  -22.4567  -23.7763   26.2635 C   0  0  0  0  0  0  0  0  0  0  0  0
  -20.3149  -24.8608   25.5857 C   0  0  0  0  0  0  0  0  0  0  0  0
  -22.5871  -21.7033   19.9519 C   0  0  0  0  0  0  0  0  0  0  0  0
  -30.2076  -25.3755   20.2832 C   0  0  0  0  0  0  0  0  0  0  0  0
  -28.8761  -25.7953   20.9017 C   0  0  0  0  0  0  0  0  0  1  0  0
  -22.2059  -24.7003   23.9152 C   0  0  1  0  0  0  0  0  0  0  0  0
  -21.8213  -21.2953   22.2941 C   0  0  2  0  0  0  0  0  0  0  0  0
  -30.1424  -25.1167   18.7756 C   0  0  2  0  0  0  0  0  0  0  0  0
  -21.8487  -24.9123   25.4135 C   0  0  0  0  0  0  0  0  0  0  0  0
  -28.9483  -12.8397   20.7497 N   0  0  0  0  0  0  0  0  0  0  0  0
  -29.3964  -20.4645   19.4285 N   0  0  0  0  0  0  0  0  0  0  0  0
  -29.9178  -13.2138   19.8975 N   0  0  0  0  0  0  0  0  0  0  0  0
  -22.6002  -26.5386   22.3062 N   0  0  0  0  0  0  0  0  0  0  0  0
  -30.6569  -16.7407   21.1615 N   0  0  0  0  0  0  0  0  0  0  0  0
  -31.0017  -12.6002   17.8827 N   0  0  0  0  0  0  0  0  0  0  0  0
  -27.9305   -9.3378   18.4488 N   0  0  0  0  0  0  0  0  0  0  0  0
  -29.5354  -22.7901   18.9532 N   0  0  0  0  0  0  0  0  0  0  0  0
  -29.2419  -18.1381   19.8935 N   0  0  0  0  0  0  0  0  0  0  0  0
  -21.4823  -29.9262   22.3759 N   0  0  0  0  0  0  0  0  0  0  0  0
  -21.7180  -23.4440   23.3566 N   0  0  0  0  0  0  0  0  0  0  0  0
  -22.4872  -20.7428   21.0808 N   0  3  0  0  0  0  0  0  0  0  0  0
  -29.6217  -10.0882   17.0940 O   0  0  0  0  0  0  0  0  0  0  0  0
  -23.3684  -28.8860   23.2608 O   0  0  0  0  0  0  0  0  0  0  0  0
  -20.4400  -25.9810   22.9837 O   0  0  0  0  0  0  0  0  0  0  0  0
  -23.7909  -22.6320   22.7080 O   0  0  0  0  0  0  0  0  0  0  0  0
  -28.2032  -24.2511   17.6838 O   0  0  0  0  0  0  0  0  0  0  0  0
  -31.1129  -18.9982   20.9618 O   0  0  0  0  0  0  0  0  0  0  0  0
  -24.2998   -8.9264   22.6541 O   0  0  0  0  0  0  0  0  0  0  0  0
  -28.4200  -27.0146   20.3172 O   0  0  0  0  0  0  0  0  0  1  0  0
  -20.1817   -7.1477   19.4477 F   0  0  0  0  0  0  0  0  0  0  0  0
  -26.9588  -17.9858   18.3690 F   0  0  0  0  0  0  0  0  0  0  0  0
  -21.7020   -9.7681   23.0847 F   0  0  0  0  0  0  0  0  0  0  0  0
  -29.8121  -26.2781   18.1432 F   0  0  0  0  0  0  0  0  0  0  0  0
  1  2  1  0  0  0  0
  1  5  2  0  0  0  0
  2  6  2  0  0  0  0
  3  8  2  0  0  0  0
  3 17  1  0  0  0  0
  4  9  1  0  0  0  0
  4 17  2  0  0  0  0
  5 19  1  0  0  0  0
  6 21  1  0  0  0  0
  7 10  2  0  0  0  0
  7 20  1  0  0  0  0
  8 23  1  0  0  0  0
  9 23  2  0  0  0  0
 10 24  1  0  0  0  0
 11 12  2  0  0  0  0
 11 25  1  0  0  0  0
 12 26  1  0  0  0  0
 13 14  2  0  0  0  0
 13 27  1  0  0  0  0
 14 30  1  0  0  0  0
 15 22  1  0  0  0  0
 15 24  2  0  0  0  0
 16 26  2  0  0  0  0
 16 28  1  0  0  0  0
 17 29  1  0  0  0  0
 18 29  1  0  0  0  0
 18 32  2  0  0  0  0
 18 33  1  0  0  0  0
 19 21  2  0  0  0  0
 19 39  1  0  0  0  0
 20 22  2  0  0  0  0
 20 40  1  0  0  0  0
 21 48  1  0  0  0  0
 22 41  1  0  0  0  0
 23 80  1  0  0  0  0
 24 81  1  0  0  0  0
 25 28  2  0  0  0  0
 25 80  1  0  0  0  0
 26 82  1  0  0  0  0
 27 31  2  0  0  0  0
 27 83  1  0  0  0  0
 28 84  1  0  0  0  0
 29 62  2  0  0  0  0
 30 63  2  0  0  0  0
 30 69  1  0  0  0  0
 31 63  1  0  0  0  0
 31 70  1  0  0  0  0
 32 64  1  0  0  0  0
 32 67  1  0  0  0  0
 33 68  1  0  0  0  0
 33 74  2  0  0  0  0
 34 49  1  0  0  0  0
 34 71  1  0  0  0  0
 34 75  2  0  0  0  0
 35 58  1  0  0  0  0
 35 65  1  0  0  0  0
 35 76  2  0  0  0  0
 36 59  1  0  0  0  0
 36 72  1  0  0  0  0
 36 77  2  0  0  0  0
 37 60  1  0  0  0  0
 37 69  1  0  0  0  0
 37 78  2  0  0  0  0
 38 66  1  0  0  0  0
 38 70  1  0  0  0  0
 38 79  2  0  0  0  0
 39 42  1  0  0  0  0
 40 49  1  0  0  0  0
 41 65  1  0  0  0  0
 42 44  1  0  0  0  0
 43 45  1  0  0  0  0
 43 46  1  0  0  0  0
 44 48  1  0  0  0  0
 45 50  1  0  0  0  0
 46 66  1  0  0  0  0
 47 50  1  0  0  0  0
 47 66  1  0  0  0  0
 48 71  1  0  0  0  0
 49 65  1  0  0  0  0
 50 64  1  0  0  0  0
 51 59  1  0  0  0  0
 52 61  1  0  0  0  0
 53 61  1  0  0  0  0
 54 61  1  0  0  0  0
 55 73  1  0  0  0  0
 56 57  1  0  0  0  0
 56 60  1  0  0  0  0
 57 81  1  0  0  0  0
 58 61  1  0  0  0  0
 58 72  1  0  0  0  0
 59 73  1  0  0  0  0
 60 85  1  0  0  0  0
 62 64  1  0  0  0  0
M  CHG  1  73   1
M  ISO  4  38 100  57 101  70 100  81 101
M  END
> <Batch ID>
0185

> <Smiles>
CNC(C)C(=O)NC(C(=O)N1Cc2cc([101O:1][101CH2:1]CC(F)C(=O)Nc3ccc(F)c([100NH:0][100C:0](=O)N4CCCC(n5nc(-c6ccc(Oc7ccc(F)cc7F)cc6)c(C(N)=O)c5N)C4)n3)ccc2CC1C(=O)NC1CCCc2ccccc21)C(C)(C)C

> <Shape>
0.257

> <Color>
0.089

> <Negative vol penalty>
0.000

$$$$

  -OEChem-04052305053D

 82 90  0     1  0  0  0  0  0999 V2000
  -22.0989  -17.0053   14.9913 C   0  0  0  0  0  0  0  0  0  0  0  0
  -23.4287  -16.6295   15.1521 C   0  0  0  0  0  0  0  0  0  0  0  0
  -25.7686  -28.1395   18.7360 C   0  0  0  0  0  0  0  0  0  0  0  0
  -26.9450  -27.6261   20.7828 C   0  0  0  0  0  0  0  0  0  0  0  0
  -21.2855  -17.1820   16.1098 C   0  0  0  0  0  0  0  0  0  0  0  0
  -23.9462  -16.4313   16.4317 C   0  0  0  0  0  0  0  0  0  0  0  0
  -28.1589  -12.3118   18.1016 C   0  0  0  0  0  0  0  0  0  0  0  0
  -25.2197  -29.2729   19.3357 C   0  0  0  0  0  0  0  0  0  0  0  0
  -26.3961  -28.7595   21.3826 C   0  0  0  0  0  0  0  0  0  0  0  0
  -29.5343  -12.4079   18.3089 C   0  0  0  0  0  0  0  0  0  0  0  0
  -25.5887  -31.7153   23.3395 C   0  0  0  0  0  0  0  0  0  0  0  0
  -26.4386  -32.5305   24.0868 C   0  0  0  0  0  0  0  0  0  0  0  0
  -29.1512  -12.7048   20.6720 C   0  0  0  0  0  0  0  0  0  0  0  0
  -27.7979  -32.9110   22.1260 C   0  0  0  0  0  0  0  0  0  0  0  0
  -28.8495  -18.0031   22.3296 C   0  0  0  0  0  0  0  0  0  0  0  0
  -26.6313  -27.3161   19.4595 C   0  0  0  0  0  0  0  0  0  0  0  0
  -28.4077  -26.0626   18.1252 C   0  0  0  0  0  0  0  0  0  0  0  0
  -21.7906  -16.9764   17.4033 C   0  0  0  0  0  0  0  0  0  0  0  0
  -27.2674  -12.4226   19.1783 C   0  0  0  0  0  0  0  0  0  0  0  0
  -23.1391  -16.6067   17.5686 C   0  0  0  0  0  0  0  0  0  0  0  0
  -27.7651  -12.6073   20.4761 C   0  0  0  0  0  0  0  0  0  0  0  0
  -25.5334  -29.5829   20.6590 C   0  0  0  0  0  0  0  0  0  0  0  0
  -30.0305  -12.6073   19.5939 C   0  0  0  0  0  0  0  0  0  0  0  0
  -25.8433  -31.4978   21.9854 C   0  0  0  0  0  0  0  0  0  0  0  0
  -27.5432  -33.1284   23.4801 C   0  0  0  0  0  0  0  0  0  0  0  0
  -26.9479  -32.0957   21.3786 C   0  0  0  0  0  0  0  0  0  0  0  0
  -27.1982  -26.1449   18.8407 C   0  0  0  0  0  0  0  0  0  0  0  0
  -29.0838  -18.5281   21.0759 C   0  0  0  0  0  0  0  0  0  0  0  0
  -28.4936  -24.7452   17.7463 C   0  0  0  0  0  0  0  0  0  0  0  0
  -30.3987  -16.7772   20.9514 C   0  0  0  0  0  0  0  0  0  0  0  0
  -29.3679  -27.0855   17.8295 C   0  0  0  0  0  0  0  0  0  0  0  0
  -24.9313  -14.4320   19.9586 C   0  0  0  0  0  0  0  0  0  0  0  0
  -27.1817  -19.4720   19.8005 C   0  0  0  0  0  0  0  0  0  0  0  0
  -24.4622  -12.3304   22.3846 C   0  0  0  0  0  0  0  0  0  0  0  0
  -31.9678  -15.7176   19.2902 C   0  0  0  0  0  0  0  0  0  0  0  0
  -25.7568   -9.9084   24.4106 C   0  0  0  0  0  0  0  0  0  0  0  0
  -20.8859  -17.2255   18.5840 C   0  0  0  0  0  0  0  0  0  0  0  0
  -25.7879  -12.2901   18.9416 C   0  0  0  0  0  0  0  0  0  0  0  0
  -26.8511  -12.7124   21.6685 C   0  0  0  0  0  0  0  0  0  0  0  0
  -21.4098  -16.6312   19.8889 C   0  0  0  0  0  0  0  0  0  0  0  0
  -25.2697  -21.0466   17.2110 C   0  0  0  0  0  0  0  0  0  0  0  0
  -22.8881  -16.9609   20.0701 C   0  0  0  0  0  0  0  0  0  0  0  0
  -25.6649  -22.5189   17.3178 C   0  0  0  0  0  0  0  0  0  0  0  0
  -25.2303  -20.3782   18.5817 C   0  0  0  0  0  0  0  0  0  0  0  0
  -26.8986  -21.9777   19.4649 C   0  0  0  0  0  0  0  0  0  0  0  0
  -23.7304  -16.3581   18.9393 C   0  0  1  0  0  0  0  0  0  0  0  0
  -24.9470  -12.9318   20.0409 C   0  0  1  0  0  0  0  0  0  0  0  0
  -26.9804  -22.6829   18.0994 C   0  0  2  0  0  0  0  0  0  0  0  0
  -25.1426   -8.4044   26.3232 C   0  0  0  0  0  0  0  0  0  0  0  0
  -33.1526  -12.1783   18.2834 C   0  0  0  0  0  0  0  0  0  0  0  0
  -24.6606  -14.6941   24.3039 C   0  0  0  0  0  0  0  0  0  0  0  0
  -24.9950  -13.0602   26.1712 C   0  0  0  0  0  0  0  0  0  0  0  0
  -22.8694  -13.0416   24.8656 C   0  0  0  0  0  0  0  0  0  0  0  0
  -26.2817   -7.4719   22.8148 C   0  0  0  0  0  0  0  0  0  0  0  0
  -28.4727  -19.7547   20.5268 C   0  0  0  0  0  0  0  0  0  0  0  0
  -32.8729  -14.4906   19.2383 C   0  0  0  0  0  0  0  0  0  0  0  0
  -24.9917  -12.1855   23.7909 C   0  0  1  0  0  0  0  0  0  0  0  0
  -25.2296   -8.5424   24.8112 C   0  0  2  0  0  0  0  0  0  0  0  0
  -32.1560  -13.2383   18.7336 C   0  0  2  0  0  0  0  0  0  1  0  0
  -24.3965  -13.2454   24.7604 C   0  0  0  0  0  0  0  0  0  0  0  0
  -26.5613  -24.9730   18.9133 N   0  0  0  0  0  0  0  0  0  0  0  0
  -29.9722  -17.8267   20.2844 N   0  0  0  0  0  0  0  0  0  0  0  0
  -27.3738  -24.1420   18.2385 N   0  0  0  0  0  0  0  0  0  0  0  0
  -25.4122  -12.5828   21.3848 N   0  0  0  0  0  0  0  0  0  0  0  0
  -26.4898  -20.5757   19.3014 N   0  0  0  0  0  0  0  0  0  0  0  0
  -29.4171  -24.0555   17.0435 N   0  0  0  0  0  0  0  0  0  0  0  0
  -29.1243  -28.3850   18.2946 N   0  0  0  0  0  0  0  0  0  0  0  0
  -31.3164  -15.7907   20.5187 N   0  0  0  0  0  0  0  0  0  0  0  0
  -23.9278  -14.9409   19.1564 N   0  0  0  0  0  0  0  0  0  0  0  0
  -24.7335  -10.8044   24.1839 N   0  0  0  0  0  0  0  0  0  0  0  0
  -26.1239   -7.4693   24.2920 N   0  3  0  0  0  0  0  0  0  0  0  0
  -30.4028  -26.8576   17.1583 O   0  0  0  0  0  0  0  0  0  0  0  0
  -25.7667  -15.0799   20.5782 O   0  0  0  0  0  0  0  0  0  0  0  0
  -26.8027  -18.3042   19.6787 O   0  0  0  0  0  0  0  0  0  0  0  0
  -23.2511  -12.2166   22.1796 O   0  0  0  0  0  0  0  0  0  0  0  0
  -31.8688  -16.4969   18.3484 O   0  0  0  0  0  0  0  0  0  0  0  0
  -26.9564  -10.1569   24.3125 O   0  0  0  0  0  0  0  0  0  0  0  0
  -24.9981  -30.6889   21.2445 O   0  0  0  0  0  0  0  0  0  0  0  0
  -31.3724  -12.7021   19.7989 O   0  0  0  0  0  0  0  0  0  1  0  0
  -28.3585  -33.9124   24.1976 F   0  0  0  0  0  0  0  0  0  0  0  0
  -27.1970  -31.8915   20.0779 F   0  0  0  0  0  0  0  0  0  0  0  0
  -29.7722  -16.5723   22.5358 S   0  0  0  0  0  0  0  0  0  0  0  0
  1  2  1  0  0  0  0
  1  5  2  0  0  0  0
  2  6  2  0  0  0  0
  3  8  2  0  0  0  0
  3 16  1  0  0  0  0
  4  9  1  0  0  0  0
  4 16  2  0  0  0  0
  5 18  1  0  0  0  0
  6 20  1  0  0  0  0
  7 10  2  0  0  0  0
  7 19  1  0  0  0  0
  8 22  1  0  0  0  0
  9 22  2  0  0  0  0
 10 23  1  0  0  0  0
 11 12  2  0  0  0  0
 11 24  1  0  0  0  0
 12 25  1  0  0  0  0
 13 21  1  0  0  0  0
 13 23  2  0  0  0  0
 14 25  2  0  0  0  0
 14 26  1  0  0  0  0
 15 28  2  0  0  0  0
 15 82  1  0  0  0  0
 16 27  1  0  0  0  0
 17 27  1  0  0  0  0
 17 29  2  0  0  0  0
 17 31  1  0  0  0  0
 18 20  2  0  0  0  0
 18 37  1  0  0  0  0
 19 21  2  0  0  0  0
 19 38  1  0  0  0  0
 20 46  1  0  0  0  0
 21 39  1  0  0  0  0
 22 78  1  0  0  0  0
 23 79  1  0  0  0  0
 24 26  2  0  0  0  0
 24 78  1  0  0  0  0
 25 80  1  0  0  0  0
 26 81  1  0  0  0  0
 27 61  2  0  0  0  0
 28 55  1  0  0  0  0
 28 62  1  0  0  0  0
 29 63  1  0  0  0  0
 29 66  1  0  0  0  0
 30 62  2  0  0  0  0
 30 68  1  0  0  0  0
 30 82  1  0  0  0  0
 31 67  1  0  0  0  0
 31 72  2  0  0  0  0
 32 47  1  0  0  0  0
 32 69  1  0  0  0  0
 32 73  2  0  0  0  0
 33 55  1  0  0  0  0
 33 65  1  0  0  0  0
 33 74  2  0  0  0  0
 34 57  1  0  0  0  0
 34 64  1  0  0  0  0
 34 75  2  0  0  0  0
 35 56  1  0  0  0  0
 35 68  1  0  0  0  0
 35 76  2  0  0  0  0
 36 58  1  0  0  0  0
 36 70  1  0  0  0  0
 36 77  2  0  0  0  0
 37 40  1  0  0  0  0
 38 47  1  0  0  0  0
 39 64  1  0  0  0  0
 40 42  1  0  0  0  0
 41 43  1  0  0  0  0
 41 44  1  0  0  0  0
 42 46  1  0  0  0  0
 43 48  1  0  0  0  0
 44 65  1  0  0  0  0
 45 48  1  0  0  0  0
 45 65  1  0  0  0  0
 46 69  1  0  0  0  0
 47 64  1  0  0  0  0
 48 63  1  0  0  0  0
 49 58  1  0  0  0  0
 50 59  1  0  0  0  0
 51 60  1  0  0  0  0
 52 60  1  0  0  0  0
 53 60  1  0  0  0  0
 54 71  1  0  0  0  0
 56 59  1  0  0  0  0
 57 60  1  0  0  0  0
 57 70  1  0  0  0  0
 58 71  1  0  0  0  0
 59 79  1  0  0  0  0
 61 63  1  0  0  0  0
M  CHG  1  71   1
M  ISO  4  33 100  55 100  59 101  79 101
M  END
> <Batch ID>
0185

> <Smiles>
CNC(C)C(=O)NC(C(=O)N1Cc2cc([101O:1][101CH:1](C)CC(=O)Nc3nc([100CH2:0][100C:0](=O)N4CCCC(n5nc(-c6ccc(Oc7ccc(F)cc7F)cc6)c(C(N)=O)c5N)C4)cs3)ccc2CC1C(=O)NC1CCCc2ccccc21)C(C)(C)C

> <Shape>
0.229

> <Color>
0.070

> <Negative vol penalty>
0.000

$$$$

  -OEChem-04052305053D

 79 87  0     1  0  0  0  0  0999 V2000
  -19.9723  -20.7956   24.4301 C   0  0  0  0  0  0  0  0  0  0  0  0
  -21.3231  -20.7717   24.0983 C   0  0  0  0  0  0  0  0  0  0  0  0
  -22.9830   -9.8629   19.9773 C   0  0  0  0  0  0  0  0  0  0  0  0
  -23.6929   -9.9224   22.2859 C   0  0  0  0  0  0  0  0  0  0  0  0
  -19.0809  -19.9425   23.7808 C   0  0  0  0  0  0  0  0  0  0  0  0
  -21.7835  -19.8938   23.1177 C   0  0  0  0  0  0  0  0  0  0  0  0
  -24.9929  -22.1039   19.8834 C   0  0  0  0  0  0  0  0  0  0  0  0
  -22.2212   -8.7246   20.2409 C   0  0  0  0  0  0  0  0  0  0  0  0
  -22.9310   -8.7842   22.5495 C   0  0  0  0  0  0  0  0  0  0  0  0
  -26.3038  -22.2948   20.3178 C   0  0  0  0  0  0  0  0  0  0  0  0
  -21.4590   -5.6852   23.7494 C   0  0  0  0  0  0  0  0  0  0  0  0
  -22.0458   -4.6742   24.5104 C   0  0  0  0  0  0  0  0  0  0  0  0
  -26.9907  -20.3381   19.0854 C   0  0  0  0  0  0  0  0  0  0  0  0
  -23.7843   -4.4335   22.8501 C   0  0  0  0  0  0  0  0  0  0  0  0
  -30.0403  -19.1706   21.0971 C   0  0  0  0  0  0  0  0  0  0  0  0
  -30.7590  -18.8804   19.0341 C   0  0  0  0  0  0  0  0  0  0  0  0
  -23.7190  -10.4617   20.9998 C   0  0  0  0  0  0  0  0  0  0  0  0
  -24.0913  -12.9791   20.8213 C   0  0  0  0  0  0  0  0  0  0  0  0
  -19.5291  -19.0605   22.7849 C   0  0  0  0  0  0  0  0  0  0  0  0
  -24.6684  -21.0206   19.0542 C   0  0  0  0  0  0  0  0  0  0  0  0
  -20.8975  -19.0271   22.4554 C   0  0  0  0  0  0  0  0  0  0  0  0
  -25.6754  -20.1371   18.6398 C   0  0  0  0  0  0  0  0  0  0  0  0
  -22.1951   -8.1853   21.5270 C   0  0  0  0  0  0  0  0  0  0  0  0
  -27.3025  -21.4102   19.9212 C   0  0  0  0  0  0  0  0  0  0  0  0
  -22.0349   -6.0703   22.5387 C   0  0  0  0  0  0  0  0  0  0  0  0
  -23.2085   -4.0484   24.0608 C   0  0  0  0  0  0  0  0  0  0  0  0
  -23.1975   -5.4444   22.0891 C   0  0  0  0  0  0  0  0  0  0  0  0
  -24.5067  -11.6372   20.7280 C   0  0  0  0  0  0  0  0  0  0  0  0
  -30.6000  -17.9259   20.9299 C   0  0  0  0  0  0  0  0  0  0  0  0
  -25.1994  -13.7072   20.4627 C   0  0  0  0  0  0  0  0  0  0  0  0
  -22.8179  -13.5192   21.1984 C   0  0  0  0  0  0  0  0  0  0  0  0
  -22.7706  -18.4842   19.3169 C   0  0  0  0  0  0  0  0  0  0  0  0
  -23.6025  -18.0270   16.2151 C   0  0  0  0  0  0  0  0  0  0  0  0
  -25.8548  -18.5700   13.7093 C   0  0  0  0  0  0  0  0  0  0  0  0
  -30.6887  -14.6731   20.7451 C   0  0  0  0  0  0  0  0  0  0  0  0
  -18.5357  -18.1239   22.1441 C   0  0  0  0  0  0  0  0  0  0  0  0
  -23.2545  -20.8438   18.5726 C   0  0  0  0  0  0  0  0  0  0  0  0
  -25.3829  -18.9701   17.7338 C   0  0  0  0  0  0  0  0  0  0  0  0
  -19.0435  -17.4881   20.8526 C   0  0  0  0  0  0  0  0  0  0  0  0
  -29.5769  -12.2385   18.3971 C   0  0  0  0  0  0  0  0  0  0  0  0
  -20.4648  -16.9660   21.0375 C   0  0  0  0  0  0  0  0  0  0  0  0
  -28.1272  -11.9714   18.8057 C   0  0  0  0  0  0  0  0  0  0  0  0
  -30.4701  -12.4813   19.6117 C   0  0  0  0  0  0  0  0  0  0  0  0
  -28.5469  -13.2687   20.9364 C   0  0  0  0  0  0  0  0  0  0  0  0
  -21.4313  -18.1063   21.3795 C   0  0  1  0  0  0  0  0  0  0  0  0
  -22.9425  -19.4122   18.1478 C   0  0  1  0  0  0  0  0  0  0  0  0
  -27.5967  -13.0733   19.7426 C   0  0  2  0  0  0  0  0  0  0  0  0
  -26.2804  -18.0389   11.2939 C   0  0  0  0  0  0  0  0  0  0  0  0
  -30.8133  -22.1681   19.7173 C   0  0  0  0  0  0  0  0  0  0  0  0
  -24.4433  -15.1976   16.9880 C   0  0  0  0  0  0  0  0  0  0  0  0
  -25.7051  -15.0579   14.8301 C   0  0  0  0  0  0  0  0  0  0  0  0
  -23.2298  -15.3664   14.8078 C   0  0  0  0  0  0  0  0  0  0  0  0
  -25.8089  -21.4307   12.9520 C   0  0  0  0  0  0  0  0  0  0  0  0
  -30.7515  -16.8548   21.9264 C   0  0  0  0  0  0  0  0  0  0  0  0
  -24.7127  -17.2925   15.5031 C   0  0  1  0  0  0  0  0  0  0  0  0
  -25.6734  -19.0305   12.2742 C   0  0  2  0  0  0  0  0  0  0  0  0
  -29.6760  -21.1649   19.5122 C   0  0  1  0  0  0  0  0  0  1  0  0
  -24.5282  -15.7494   15.5509 C   0  0  0  0  0  0  0  0  0  0  0  0
  -31.0457  -17.7516   19.6437 N   0  0  0  0  0  0  0  0  0  0  0  0
  -25.7792  -11.5171   20.3403 N   0  0  0  0  0  0  0  0  0  0  0  0
  -30.1498  -19.7706   19.8743 N   0  0  0  0  0  0  0  0  0  0  0  0
  -26.1730  -12.7928   20.1868 N   0  0  0  0  0  0  0  0  0  0  0  0
  -23.9840  -18.8360   17.2948 N   0  0  0  0  0  0  0  0  0  0  0  0
  -29.9118  -13.5386   20.4581 N   0  0  0  0  0  0  0  0  0  0  0  0
  -25.4261  -15.0340   20.3595 N   0  0  0  0  0  0  0  0  0  0  0  0
  -21.7888  -12.6299   21.5370 N   0  0  0  0  0  0  0  0  0  0  0  0
  -21.7667  -18.8586   20.1896 N   0  0  0  0  0  0  0  0  0  0  0  0
  -24.7690  -17.8460   14.1545 N   0  0  0  0  0  0  0  0  0  0  0  0
  -30.0817  -15.6301   21.5491 N   0  0  0  0  0  0  0  0  0  0  0  0
  -26.3263  -20.3543   12.0685 N   0  3  0  0  0  0  0  0  0  0  0  0
  -22.5941  -14.7533   21.2183 O   0  0  0  0  0  0  0  0  0  0  0  0
  -23.4942  -17.5005   19.4190 O   0  0  0  0  0  0  0  0  0  0  0  0
  -22.4405  -17.8937   15.8232 O   0  0  0  0  0  0  0  0  0  0  0  0
  -26.8608  -18.8238   14.3682 O   0  0  0  0  0  0  0  0  0  0  0  0
  -31.8361  -14.8246   20.3122 O   0  0  0  0  0  0  0  0  0  0  0  0
  -21.4516   -7.0747   21.7847 O   0  0  0  0  0  0  0  0  0  0  0  0
  -28.5828  -21.5939   20.3442 O   0  0  0  0  0  0  0  0  0  1  0  0
  -23.7727   -3.0786   24.7925 F   0  0  0  0  0  0  0  0  0  0  0  0
  -23.7560   -5.8109   20.9274 F   0  0  0  0  0  0  0  0  0  0  0  0
  1  2  1  0  0  0  0
  1  5  2  0  0  0  0
  2  6  2  0  0  0  0
  3  8  2  0  0  0  0
  3 17  1  0  0  0  0
  4  9  1  0  0  0  0
  4 17  2  0  0  0  0
  5 19  1  0  0  0  0
  6 21  1  0  0  0  0
  7 10  2  0  0  0  0
  7 20  1  0  0  0  0
  8 23  1  0  0  0  0
  9 23  2  0  0  0  0
 10 24  1  0  0  0  0
 11 12  2  0  0  0  0
 11 25  1  0  0  0  0
 12 26  1  0  0  0  0
 13 22  1  0  0  0  0
 13 24  2  0  0  0  0
 14 26  2  0  0  0  0
 14 27  1  0  0  0  0
 15 29  2  0  0  0  0
 15 61  1  0  0  0  0
 16 59  2  0  0  0  0
 16 61  1  0  0  0  0
 17 28  1  0  0  0  0
 18 28  1  0  0  0  0
 18 30  2  0  0  0  0
 18 31  1  0  0  0  0
 19 21  2  0  0  0  0
 19 36  1  0  0  0  0
 20 22  2  0  0  0  0
 20 37  1  0  0  0  0
 21 45  1  0  0  0  0
 22 38  1  0  0  0  0
 23 76  1  0  0  0  0
 24 77  1  0  0  0  0
 25 27  2  0  0  0  0
 25 76  1  0  0  0  0
 26 78  1  0  0  0  0
 27 79  1  0  0  0  0
 28 60  2  0  0  0  0
 29 54  1  0  0  0  0
 29 59  1  0  0  0  0
 30 62  1  0  0  0  0
 30 65  1  0  0  0  0
 31 66  1  0  0  0  0
 31 71  2  0  0  0  0
 32 46  1  0  0  0  0
 32 67  1  0  0  0  0
 32 72  2  0  0  0  0
 33 55  1  0  0  0  0
 33 63  1  0  0  0  0
 33 73  2  0  0  0  0
 34 56  1  0  0  0  0
 34 68  1  0  0  0  0
 34 74  2  0  0  0  0
 35 64  1  0  0  0  0
 35 69  1  0  0  0  0
 35 75  2  0  0  0  0
 36 39  1  0  0  0  0
 37 46  1  0  0  0  0
 38 63  1  0  0  0  0
 39 41  1  0  0  0  0
 40 42  1  0  0  0  0
 40 43  1  0  0  0  0
 41 45  1  0  0  0  0
 42 47  1  0  0  0  0
 43 64  1  0  0  0  0
 44 47  1  0  0  0  0
 44 64  1  0  0  0  0
 45 67  1  0  0  0  0
 46 63  1  0  0  0  0
 47 62  1  0  0  0  0
 48 56  1  0  0  0  0
 49 57  1  0  0  0  0
 50 58  1  0  0  0  0
 51 58  1  0  0  0  0
 52 58  1  0  0  0  0
 53 70  1  0  0  0  0
 54 69  1  0  0  0  0
 55 58  1  0  0  0  0
 55 68  1  0  0  0  0
 56 70  1  0  0  0  0
 57 61  1  0  0  0  0
 57 77  1  0  0  0  0
 60 62  1  0  0  0  0
M  CHG  1  70   1
M  ISO  4  35 100  57 101  69 100  77 101
M  END
> <Batch ID>
0185

> <Smiles>
CNC(C)C(=O)NC(C(=O)N1Cc2cc([101O:1][101CH:1](C)n3cnc(C[100NH:0][100C:0](=O)N4CCCC(n5nc(-c6ccc(Oc7ccc(F)cc7F)cc6)c(C(N)=O)c5N)C4)c3)ccc2CC1C(=O)NC1CCCc2ccccc21)C(C)(C)C

> <Shape>
0.212

> <Color>
0.215

> <Negative vol penalty>
0.000

$$$$

  -OEChem-04052305053D

 84 92  0     1  0  0  0  0  0999 V2000
  -24.2469  -23.0965   27.2310 C   0  0  0  0  0  0  0  0  0  0  0  0
  -25.0592  -23.5074   26.1790 C   0  0  0  0  0  0  0  0  0  0  0  0
  -24.7469  -10.2276   22.3564 C   0  0  0  0  0  0  0  0  0  0  0  0
  -24.6261  -11.6623   24.2964 C   0  0  0  0  0  0  0  0  0  0  0  0
  -23.0278  -23.7336   27.4588 C   0  0  0  0  0  0  0  0  0  0  0  0
  -24.6523  -24.5549   25.3534 C   0  0  0  0  0  0  0  0  0  0  0  0
  -28.3769  -27.8592   24.4291 C   0  0  0  0  0  0  0  0  0  0  0  0
  -24.3841   -9.1340   23.1425 C   0  0  0  0  0  0  0  0  0  0  0  0
  -24.2631  -10.5687   25.0826 C   0  0  0  0  0  0  0  0  0  0  0  0
  -29.3322  -27.4932   23.4819 C   0  0  0  0  0  0  0  0  0  0  0  0
  -21.5515   -7.8523   24.4717 C   0  0  0  0  0  0  0  0  0  0  0  0
  -20.5829   -6.9845   23.9675 C   0  0  0  0  0  0  0  0  0  0  0  0
  -28.2143  -28.8577   21.8363 C   0  0  0  0  0  0  0  0  0  0  0  0
  -22.1661   -5.1619   24.0632 C   0  0  0  0  0  0  0  0  0  0  0  0
  -24.8680  -11.4918   22.9334 C   0  0  0  0  0  0  0  0  0  0  0  0
  -24.3830  -13.4914   21.4254 C   0  0  0  0  0  0  0  0  0  0  0  0
  -22.6102  -24.7958   26.6416 C   0  0  0  0  0  0  0  0  0  0  0  0
  -27.3252  -28.7199   24.0836 C   0  0  0  0  0  0  0  0  0  0  0  0
  -23.4259  -25.2059   25.5697 C   0  0  0  0  0  0  0  0  0  0  0  0
  -27.2484  -29.2350   22.7817 C   0  0  0  0  0  0  0  0  0  0  0  0
  -24.1421   -9.3046   24.5055 C   0  0  0  0  0  0  0  0  0  0  0  0
  -29.2493  -27.9902   22.1845 C   0  0  0  0  0  0  0  0  0  0  0  0
  -22.8275   -7.3750   24.7716 C   0  0  0  0  0  0  0  0  0  0  0  0
  -20.8902   -5.6393   23.7632 C   0  0  0  0  0  0  0  0  0  0  0  0
  -23.1347   -6.0298   24.5674 C   0  0  0  0  0  0  0  0  0  0  0  0
  -25.2434  -12.6217   22.1220 C   0  0  0  0  0  0  0  0  0  0  0  0
  -27.2874  -20.8184   20.7399 C   0  0  0  0  0  0  0  0  0  0  0  0
  -25.2235  -14.3896   20.8146 C   0  0  0  0  0  0  0  0  0  0  0  0
  -28.3589  -19.9507   20.7087 C   0  0  0  0  0  0  0  0  0  0  0  0
  -28.8353  -22.2292   20.0889 C   0  0  0  0  0  0  0  0  0  0  0  0
  -22.9518  -13.4877   21.3384 C   0  0  0  0  0  0  0  0  0  0  0  0
  -24.1574  -28.4710   24.0023 C   0  0  0  0  0  0  0  0  0  0  0  0
  -24.3163  -31.6347   23.3037 C   0  0  0  0  0  0  0  0  0  0  0  0
  -26.1357  -34.2382   22.0553 C   0  0  0  0  0  0  0  0  0  0  0  0
  -29.0262  -24.6660   19.4964 C   0  0  0  0  0  0  0  0  0  0  0  0
  -29.6326  -17.7882   20.9273 C   0  0  0  0  0  0  0  0  0  0  0  0
  -21.2625  -25.4225   26.8978 C   0  0  0  0  0  0  0  0  0  0  0  0
  -26.3180  -29.1262   25.1242 C   0  0  0  0  0  0  0  0  0  0  0  0
  -26.1505  -30.1783   22.3656 C   0  0  0  0  0  0  0  0  0  0  0  0
  -21.0766  -26.7710   26.2070 C   0  0  0  0  0  0  0  0  0  0  0  0
  -30.2555  -14.3453   20.2674 C   0  0  0  0  0  0  0  0  0  0  0  0
  -21.5379  -26.6951   24.7550 C   0  0  0  0  0  0  0  0  0  0  0  0
  -28.9363  -13.6615   20.6337 C   0  0  0  0  0  0  0  0  0  0  0  0
  -30.5735  -15.5056   21.2089 C   0  0  0  0  0  0  0  0  0  0  0  0
  -28.1833  -15.8162   21.7188 C   0  0  0  0  0  0  0  0  0  0  0  0
  -23.0306  -26.3547   24.6675 C   0  0  1  0  0  0  0  0  0  0  0  0
  -24.9981  -29.6015   24.5247 C   0  0  1  0  0  0  0  0  0  0  0  0
  -27.7882  -14.6822   20.7588 C   0  0  2  0  0  0  0  0  0  0  0  0
  -25.9003  -20.4735   21.1135 C   0  0  0  0  0  0  0  0  0  0  0  0
  -25.9847  -36.6974   21.5788 C   0  0  0  0  0  0  0  0  0  0  0  0
  -22.5993  -31.0513   20.8499 C   0  0  0  0  0  0  0  0  0  0  0  0
  -23.2704  -33.2835   19.9359 C   0  0  0  0  0  0  0  0  0  0  0  0
  -21.9923  -33.1461   22.0737 C   0  0  0  0  0  0  0  0  0  0  0  0
  -28.3659  -34.8510   23.9019 C   0  0  0  0  0  0  0  0  0  0  0  0
  -31.2291  -25.8179   20.0394 C   0  0  0  0  0  0  0  0  0  0  0  0
  -30.7777  -26.3460   21.3992 C   0  0  0  0  0  0  0  0  0  1  0  0
  -24.4212  -32.4454   22.0345 C   0  0  1  0  0  0  0  0  0  0  0  0
  -26.3912  -35.6361   22.5893 C   0  0  2  0  0  0  0  0  0  0  0  0
  -30.0926  -25.6417   19.0288 C   0  0  2  0  0  0  0  0  0  0  0  0
  -23.0905  -32.4623   21.2305 C   0  0  0  0  0  0  0  0  0  0  0  0
  -26.5318  -12.9388   21.9684 N   0  0  0  0  0  0  0  0  0  0  0  0
  -27.5587  -22.1255   20.3852 N   0  0  0  0  0  0  0  0  0  0  0  0
  -26.4871  -14.0176   21.1683 N   0  0  0  0  0  0  0  0  0  0  0  0
  -25.1861  -30.5409   23.4172 N   0  0  0  0  0  0  0  0  0  0  0  0
  -29.4425  -16.4338   21.2740 N   0  0  0  0  0  0  0  0  0  0  0  0
  -24.9977  -15.4534   20.0148 N   0  0  0  0  0  0  0  0  0  0  0  0
  -22.2431  -12.4944   22.0279 N   0  0  0  0  0  0  0  0  0  0  0  0
  -28.4788  -18.5683   20.9958 N   0  0  0  0  0  0  0  0  0  0  0  0
  -29.5367  -23.3869   19.6769 N   0  0  0  0  0  0  0  0  0  0  0  0
  -23.8333  -27.5241   24.9551 N   0  0  0  0  0  0  0  0  0  0  0  0
  -24.8960  -33.7663   22.4319 N   0  0  0  0  0  0  0  0  0  0  0  0
  -27.8372  -35.8147   22.9025 N   0  3  0  0  0  0  0  0  0  0  0  0
  -22.3211  -14.3302   20.6558 O   0  0  0  0  0  0  0  0  0  0  0  0
  -23.8259  -28.4596   22.8226 O   0  0  0  0  0  0  0  0  0  0  0  0
  -23.4979  -31.9643   24.1659 O   0  0  0  0  0  0  0  0  0  0  0  0
  -26.9525  -33.6276   21.3694 O   0  0  0  0  0  0  0  0  0  0  0  0
  -27.8688  -25.0418   19.6587 O   0  0  0  0  0  0  0  0  0  0  0  0
  -30.7318  -18.2181   20.5680 O   0  0  0  0  0  0  0  0  0  0  0  0
  -23.7878   -8.2377   25.2729 O   0  0  0  0  0  0  0  0  0  0  0  0
  -30.1800  -27.6341   21.2577 O   0  0  0  0  0  0  0  0  0  1  0  0
  -19.9595   -4.8057   23.2805 F   0  0  0  0  0  0  0  0  0  0  0  0
  -24.3584   -5.5652   24.8547 F   0  0  0  0  0  0  0  0  0  0  0  0
  -29.5429  -26.8613   18.7670 F   0  0  0  0  0  0  0  0  0  0  0  0
  -29.7681  -20.7943   20.2148 S   0  0  0  0  0  0  0  0  0  0  0  0
  1  2  1  0  0  0  0
  1  5  2  0  0  0  0
  2  6  2  0  0  0  0
  3  8  2  0  0  0  0
  3 15  1  0  0  0  0
  4  9  1  0  0  0  0
  4 15  2  0  0  0  0
  5 17  1  0  0  0  0
  6 19  1  0  0  0  0
  7 10  2  0  0  0  0
  7 18  1  0  0  0  0
  8 21  1  0  0  0  0
  9 21  2  0  0  0  0
 10 22  1  0  0  0  0
 11 12  2  0  0  0  0
 11 23  1  0  0  0  0
 12 24  1  0  0  0  0
 13 20  1  0  0  0  0
 13 22  2  0  0  0  0
 14 24  2  0  0  0  0
 14 25  1  0  0  0  0
 15 26  1  0  0  0  0
 16 26  1  0  0  0  0
 16 28  2  0  0  0  0
 16 31  1  0  0  0  0
 17 19  2  0  0  0  0
 17 37  1  0  0  0  0
 18 20  2  0  0  0  0
 18 38  1  0  0  0  0
 19 46  1  0  0  0  0
 20 39  1  0  0  0  0
 21 79  1  0  0  0  0
 22 80  1  0  0  0  0
 23 25  2  0  0  0  0
 23 79  1  0  0  0  0
 24 81  1  0  0  0  0
 25 82  1  0  0  0  0
 26 61  2  0  0  0  0
 27 29  2  0  0  0  0
 27 49  1  0  0  0  0
 27 62  1  0  0  0  0
 28 63  1  0  0  0  0
 28 66  1  0  0  0  0
 29 68  1  0  0  0  0
 29 84  1  0  0  0  0
 30 62  2  0  0  0  0
 30 69  1  0  0  0  0
 30 84  1  0  0  0  0
 31 67  1  0  0  0  0
 31 73  2  0  0  0  0
 32 47  1  0  0  0  0
 32 70  1  0  0  0  0
 32 74  2  0  0  0  0
 33 57  1  0  0  0  0
 33 64  1  0  0  0  0
 33 75  2  0  0  0  0
 34 58  1  0  0  0  0
 34 71  1  0  0  0  0
 34 76  2  0  0  0  0
 35 59  1  0  0  0  0
 35 69  1  0  0  0  0
 35 77  2  0  0  0  0
 36 65  1  0  0  0  0
 36 68  1  0  0  0  0
 36 78  2  0  0  0  0
 37 40  1  0  0  0  0
 38 47  1  0  0  0  0
 39 64  1  0  0  0  0
 40 42  1  0  0  0  0
 41 43  1  0  0  0  0
 41 44  1  0  0  0  0
 42 46  1  0  0  0  0
 43 48  1  0  0  0  0
 44 65  1  0  0  0  0
 45 48  1  0  0  0  0
 45 65  1  0  0  0  0
 46 70  1  0  0  0  0
 47 64  1  0  0  0  0
 48 63  1  0  0  0  0
 50 58  1  0  0  0  0
 51 60  1  0  0  0  0
 52 60  1  0  0  0  0
 53 60  1  0  0  0  0
 54 72  1  0  0  0  0
 55 56  1  0  0  0  0
 55 59  1  0  0  0  0
 56 80  1  0  0  0  0
 57 60  1  0  0  0  0
 57 71  1  0  0  0  0
 58 72  1  0  0  0  0
 59 83  1  0  0  0  0
 61 63  1  0  0  0  0
M  CHG  1  72   1
M  ISO  4  36 100  56 101  68 100  80 101
M  END
> <Batch ID>
0185

> <Smiles>
CNC(C)C(=O)NC(C(=O)N1Cc2cc([101O:1][101CH2:1]CC(F)C(=O)Nc3nc(C)c([100NH:0][100C:0](=O)N4CCCC(n5nc(-c6ccc(Oc7ccc(F)cc7F)cc6)c(C(N)=O)c5N)C4)s3)ccc2CC1C(=O)NC1CCCc2ccccc21)C(C)(C)C

> <Shape>
0.262

> <Color>
0.108

> <Negative vol penalty>
0.000

$$$$

  -OEChem-04052305053D

 80 88  0     1  0  0  0  0  0999 V2000
  -27.3952  -37.8744   21.2900 C   0  0  0  0  0  0  0  0  0  0  0  0
  -27.9430  -36.6489   20.9245 C   0  0  0  0  0  0  0  0  0  0  0  0
  -29.2787   -9.1727   19.5962 C   0  0  0  0  0  0  0  0  0  0  0  0
  -28.4153  -10.0754   17.5281 C   0  0  0  0  0  0  0  0  0  0  0  0
  -26.4289  -37.9331   22.2934 C   0  0  0  0  0  0  0  0  0  0  0  0
  -27.5257  -35.4816   21.5630 C   0  0  0  0  0  0  0  0  0  0  0  0
  -26.9583  -29.9196   19.0635 C   0  0  0  0  0  0  0  0  0  0  0  0
  -29.0498   -7.8792   19.1272 C   0  0  0  0  0  0  0  0  0  0  0  0
  -28.1864   -8.7818   17.0591 C   0  0  0  0  0  0  0  0  0  0  0  0
  -27.7912  -28.8015   19.0642 C   0  0  0  0  0  0  0  0  0  0  0  0
  -29.9985   -6.2615   15.7231 C   0  0  0  0  0  0  0  0  0  0  0  0
  -30.3844   -5.9704   14.4148 C   0  0  0  0  0  0  0  0  0  0  0  0
  -26.5575  -27.8911   20.9265 C   0  0  0  0  0  0  0  0  0  0  0  0
  -28.0977   -5.4196   13.8627 C   0  0  0  0  0  0  0  0  0  0  0  0
  -29.1898  -21.5042   18.7917 C   0  0  0  0  0  0  0  0  0  0  0  0
  -28.9614  -10.2708   18.7967 C   0  0  0  0  0  0  0  0  0  0  0  0
  -30.3680  -12.3734   19.1261 C   0  0  0  0  0  0  0  0  0  0  0  0
  -25.9925  -36.7648   22.9378 C   0  0  0  0  0  0  0  0  0  0  0  0
  -25.9238  -30.0371   20.0029 C   0  0  0  0  0  0  0  0  0  0  0  0
  -26.5537  -35.5250   22.5769 C   0  0  0  0  0  0  0  0  0  0  0  0
  -25.7113  -29.0104   20.9340 C   0  0  0  0  0  0  0  0  0  0  0  0
  -28.5037   -7.6837   17.8586 C   0  0  0  0  0  0  0  0  0  0  0  0
  -27.5927  -27.7884   19.9976 C   0  0  0  0  0  0  0  0  0  0  0  0
  -28.6622   -6.1315   16.1014 C   0  0  0  0  0  0  0  0  0  0  0  0
  -29.4341   -5.5495   13.4845 C   0  0  0  0  0  0  0  0  0  0  0  0
  -27.7118   -5.7106   15.1712 C   0  0  0  0  0  0  0  0  0  0  0  0
  -29.1971  -11.6073   19.2808 C   0  0  0  0  0  0  0  0  0  0  0  0
  -28.2254  -21.7818   19.7377 C   0  0  0  0  0  0  0  0  0  0  0  0
  -30.0884  -13.5595   19.7596 C   0  0  0  0  0  0  0  0  0  0  0  0
  -28.0377  -19.5969   19.7069 C   0  0  0  0  0  0  0  0  0  0  0  0
  -31.5983  -12.0423   18.4685 C   0  0  0  0  0  0  0  0  0  0  0  0
  -25.2351  -32.0816   22.3372 C   0  0  0  0  0  0  0  0  0  0  0  0
  -22.4978  -30.3504   22.5173 C   0  0  0  0  0  0  0  0  0  0  0  0
  -28.4717  -24.2865   19.7384 C   0  0  0  0  0  0  0  0  0  0  0  0
  -20.8946  -27.3956   21.9291 C   0  0  0  0  0  0  0  0  0  0  0  0
  -26.6644  -17.8151   20.8407 C   0  0  0  0  0  0  0  0  0  0  0  0
  -24.9801  -36.8838   24.0494 C   0  0  0  0  0  0  0  0  0  0  0  0
  -25.0173  -31.2369   19.9718 C   0  0  0  0  0  0  0  0  0  0  0  0
  -24.6020  -29.0790   21.9506 C   0  0  0  0  0  0  0  0  0  0  0  0
  -24.3204  -35.5572   24.4170 C   0  0  0  0  0  0  0  0  0  0  0  0
  -26.2335  -14.8558   22.7731 C   0  0  0  0  0  0  0  0  0  0  0  0
  -25.3700  -34.4588   24.5537 C   0  0  0  0  0  0  0  0  0  0  0  0
  -27.0625  -13.8099   22.0241 C   0  0  0  0  0  0  0  0  0  0  0  0
  -25.5417  -15.8237   21.8147 C   0  0  0  0  0  0  0  0  0  0  0  0
  -27.2573  -15.4271   20.0918 C   0  0  0  0  0  0  0  0  0  0  0  0
  -26.1089  -34.2339   23.2290 C   0  0  1  0  0  0  0  0  0  0  0  0
  -24.3179  -31.4920   21.3034 C   0  0  1  0  0  0  0  0  0  0  0  0
  -28.0253  -14.4693   21.0173 C   0  0  2  0  0  0  0  0  0  0  0  0
  -18.6709  -26.2693   22.2188 C   0  0  0  0  0  0  0  0  0  0  0  0
  -23.0756  -29.9796   25.4903 C   0  0  0  0  0  0  0  0  0  0  0  0
  -21.4033  -28.1165   25.5117 C   0  0  0  0  0  0  0  0  0  0  0  0
  -20.6783  -30.4345   24.9423 C   0  0  0  0  0  0  0  0  0  0  0  0
  -20.5762  -27.0162   19.0113 C   0  0  0  0  0  0  0  0  0  0  0  0
  -27.8374  -25.4666   20.4507 C   0  0  0  0  0  0  0  0  0  1  0  0
  -22.0572  -29.1230   23.2778 C   0  0  1  0  0  0  0  0  0  0  0  0
  -19.5531  -27.0875   21.2888 C   0  0  2  0  0  0  0  0  0  0  0  0
  -21.8258  -29.4127   24.7877 C   0  0  0  0  0  0  0  0  0  0  0  0
  -28.2447  -12.2525   19.9595 N   0  0  0  0  0  0  0  0  0  0  0  0
  -27.5634  -20.6894   20.2633 N   0  0  0  0  0  0  0  0  0  0  0  0
  -28.8167  -13.4365   20.2369 N   0  0  0  0  0  0  0  0  0  0  0  0
  -23.7464  -30.2752   21.8839 N   0  0  0  0  0  0  0  0  0  0  0  0
  -26.5162  -16.4130   20.8939 N   0  0  0  0  0  0  0  0  0  0  0  0
  -30.8088  -14.6853   19.9493 N   0  0  0  0  0  0  0  0  0  0  0  0
  -31.7172  -10.7810   17.8692 N   0  0  0  0  0  0  0  0  0  0  0  0
  -27.9030  -23.0915   20.1659 N   0  0  0  0  0  0  0  0  0  0  0  0
  -27.6437  -18.2582   19.9523 N   0  0  0  0  0  0  0  0  0  0  0  0
  -25.2904  -33.4622   22.3184 N   0  0  0  0  0  0  0  0  0  0  0  0
  -20.8825  -28.6107   22.5807 N   0  0  0  0  0  0  0  0  0  0  0  0
  -19.7459  -26.3187   20.0267 N   0  3  0  0  0  0  0  0  0  0  0  0
  -32.5695  -12.8352   18.4281 O   0  0  0  0  0  0  0  0  0  0  0  0
  -25.8462  -31.3391   23.0967 O   0  0  0  0  0  0  0  0  0  0  0  0
  -21.7581  -31.3368   22.4805 O   0  0  0  0  0  0  0  0  0  0  0  0
  -29.3619  -24.4398   18.9085 O   0  0  0  0  0  0  0  0  0  0  0  0
  -21.8559  -26.6328   21.8614 O   0  0  0  0  0  0  0  0  0  0  0  0
  -25.9923  -18.5662   21.5523 O   0  0  0  0  0  0  0  0  0  0  0  0
  -28.2804   -6.4216   17.4005 O   0  0  0  0  0  0  0  0  0  0  0  0
  -28.4046  -26.6963   20.0009 O   0  0  0  0  0  0  0  0  0  1  0  0
  -29.8046   -5.2715   12.2277 F   0  0  0  0  0  0  0  0  0  0  0  0
  -26.4263   -5.5851   15.5284 F   0  0  0  0  0  0  0  0  0  0  0  0
  -29.2814  -19.8097   18.5437 S   0  0  0  0  0  0  0  0  0  0  0  0
  1  2  1  0  0  0  0
  1  5  2  0  0  0  0
  2  6  2  0  0  0  0
  3  8  2  0  0  0  0
  3 16  1  0  0  0  0
  4  9  1  0  0  0  0
  4 16  2  0  0  0  0
  5 18  1  0  0  0  0
  6 20  1  0  0  0  0
  7 10  2  0  0  0  0
  7 19  1  0  0  0  0
  8 22  1  0  0  0  0
  9 22  2  0  0  0  0
 10 23  1  0  0  0  0
 11 12  2  0  0  0  0
 11 24  1  0  0  0  0
 12 25  1  0  0  0  0
 13 21  1  0  0  0  0
 13 23  2  0  0  0  0
 14 25  2  0  0  0  0
 14 26  1  0  0  0  0
 15 28  2  0  0  0  0
 15 80  1  0  0  0  0
 16 27  1  0  0  0  0
 17 27  1  0  0  0  0
 17 29  2  0  0  0  0
 17 31  1  0  0  0  0
 18 20  2  0  0  0  0
 18 37  1  0  0  0  0
 19 21  2  0  0  0  0
 19 38  1  0  0  0  0
 20 46  1  0  0  0  0
 21 39  1  0  0  0  0
 22 76  1  0  0  0  0
 23 77  1  0  0  0  0
 24 26  2  0  0  0  0
 24 76  1  0  0  0  0
 25 78  1  0  0  0  0
 26 79  1  0  0  0  0
 27 58  2  0  0  0  0
 28 59  1  0  0  0  0
 28 65  1  0  0  0  0
 29 60  1  0  0  0  0
 29 63  1  0  0  0  0
 30 59  2  0  0  0  0
 30 66  1  0  0  0  0
 30 80  1  0  0  0  0
 31 64  1  0  0  0  0
 31 70  2  0  0  0  0
 32 47  1  0  0  0  0
 32 67  1  0  0  0  0
 32 71  2  0  0  0  0
 33 55  1  0  0  0  0
 33 61  1  0  0  0  0
 33 72  2  0  0  0  0
 34 54  1  0  0  0  0
 34 65  1  0  0  0  0
 34 73  2  0  0  0  0
 35 56  1  0  0  0  0
 35 68  1  0  0  0  0
 35 74  2  0  0  0  0
 36 62  1  0  0  0  0
 36 66  1  0  0  0  0
 36 75  2  0  0  0  0
 37 40  1  0  0  0  0
 38 47  1  0  0  0  0
 39 61  1  0  0  0  0
 40 42  1  0  0  0  0
 41 43  1  0  0  0  0
 41 44  1  0  0  0  0
 42 46  1  0  0  0  0
 43 48  1  0  0  0  0
 44 62  1  0  0  0  0
 45 48  1  0  0  0  0
 45 62  1  0  0  0  0
 46 67  1  0  0  0  0
 47 61  1  0  0  0  0
 48 60  1  0  0  0  0
 49 56  1  0  0  0  0
 50 57  1  0  0  0  0
 51 57  1  0  0  0  0
 52 57  1  0  0  0  0
 53 69  1  0  0  0  0
 54 77  1  0  0  0  0
 55 57  1  0  0  0  0
 55 68  1  0  0  0  0
 56 69  1  0  0  0  0
 58 60  1  0  0  0  0
M  CHG  1  69   1
M  ISO  4  36 100  54 101  66 100  77 101
M  END
> <Batch ID>
0185

> <Smiles>
CNC(C)C(=O)NC(C(=O)N1Cc2cc([101O:1][101CH2:1]C(=O)Nc3csc([100NH:0][100C:0](=O)N4CCCC(n5nc(-c6ccc(Oc7ccc(F)cc7F)cc6)c(C(N)=O)c5N)C4)n3)ccc2CC1C(=O)NC1CCCc2ccccc21)C(C)(C)C

> <Shape>
0.272

> <Color>
0.081

> <Negative vol penalty>
0.000

$$$$

  -OEChem-04052305053D

 81 89  0     1  0  0  0  0  0999 V2000
  -25.9083  -21.9857   16.0548 C   0  0  0  0  0  0  0  0  0  0  0  0
  -26.5053  -20.8774   16.6448 C   0  0  0  0  0  0  0  0  0  0  0  0
  -22.9635  -30.4754   20.3321 C   0  0  0  0  0  0  0  0  0  0  0  0
  -22.6109  -28.2609   21.2314 C   0  0  0  0  0  0  0  0  0  0  0  0
  -24.6275  -22.3724   16.4436 C   0  0  0  0  0  0  0  0  0  0  0  0
  -25.8170  -20.1484   17.6152 C   0  0  0  0  0  0  0  0  0  0  0  0
  -27.9065  -15.9772   19.1770 C   0  0  0  0  0  0  0  0  0  0  0  0
  -21.5924  -30.7217   20.4010 C   0  0  0  0  0  0  0  0  0  0  0  0
  -21.2397  -28.5072   21.3004 C   0  0  0  0  0  0  0  0  0  0  0  0
  -29.0359  -15.9600   19.9943 C   0  0  0  0  0  0  0  0  0  0  0  0
  -19.1067  -30.1595   23.3352 C   0  0  0  0  0  0  0  0  0  0  0  0
  -18.4407  -29.7870   24.5028 C   0  0  0  0  0  0  0  0  0  0  0  0
  -27.6467  -15.4253   21.8925 C   0  0  0  0  0  0  0  0  0  0  0  0
  -17.0209  -28.3103   23.2219 C   0  0  0  0  0  0  0  0  0  0  0  0
  -28.2044  -20.5220   22.9751 C   0  0  0  0  0  0  0  0  0  0  0  0
  -23.4728  -29.2449   20.7473 C   0  0  0  0  0  0  0  0  0  0  0  0
  -25.9151  -29.7019   21.3254 C   0  0  0  0  0  0  0  0  0  0  0  0
  -23.9288  -21.6546   17.4282 C   0  0  0  0  0  0  0  0  0  0  0  0
  -26.6353  -15.7289   19.7143 C   0  0  0  0  0  0  0  0  0  0  0  0
  -24.5141  -20.5085   18.0040 C   0  0  0  0  0  0  0  0  0  0  0  0
  -26.5030  -15.4374   21.0794 C   0  0  0  0  0  0  0  0  0  0  0  0
  -20.7304  -29.7377   20.8851 C   0  0  0  0  0  0  0  0  0  0  0  0
  -28.9058  -15.6869   21.3528 C   0  0  0  0  0  0  0  0  0  0  0  0
  -18.7297  -29.6075   22.1109 C   0  0  0  0  0  0  0  0  0  0  0  0
  -17.3979  -28.8624   24.4462 C   0  0  0  0  0  0  0  0  0  0  0  0
  -17.6869  -28.6829   22.0543 C   0  0  0  0  0  0  0  0  0  0  0  0
  -24.8891  -28.9896   20.6759 C   0  0  0  0  0  0  0  0  0  0  0  0
  -28.9525  -20.1836   21.8670 C   0  0  0  0  0  0  0  0  0  0  0  0
  -27.0710  -29.0702   20.9363 C   0  0  0  0  0  0  0  0  0  0  0  0
  -28.1355  -22.0865   21.1448 C   0  0  0  0  0  0  0  0  0  0  0  0
  -25.8308  -30.8333   22.2020 C   0  0  0  0  0  0  0  0  0  0  0  0
  -23.9435  -17.3998   19.9721 C   0  0  0  0  0  0  0  0  0  0  0  0
  -22.7718  -14.5978   21.1113 C   0  0  0  0  0  0  0  0  0  0  0  0
  -23.3913  -11.5898   22.5995 C   0  0  0  0  0  0  0  0  0  0  0  0
  -29.8651  -18.0031   22.7338 C   0  0  0  0  0  0  0  0  0  0  0  0
  -28.2610  -23.5180   19.0756 C   0  0  0  0  0  0  0  0  0  0  0  0
  -22.5420  -22.1124   17.8056 C   0  0  0  0  0  0  0  0  0  0  0  0
  -25.4301  -15.7248   18.8143 C   0  0  0  0  0  0  0  0  0  0  0  0
  -25.1631  -15.1442   21.7015 C   0  0  0  0  0  0  0  0  0  0  0  0
  -22.0745  -21.5513   19.1446 C   0  0  0  0  0  0  0  0  0  0  0  0
  -28.9195  -26.5412   17.3140 C   0  0  0  0  0  0  0  0  0  0  0  0
  -22.3020  -20.0476   19.1859 C   0  0  0  0  0  0  0  0  0  0  0  0
  -28.0587  -27.5782   18.0391 C   0  0  0  0  0  0  0  0  0  0  0  0
  -28.2236  -25.1838   17.2321 C   0  0  0  0  0  0  0  0  0  0  0  0
  -26.8892  -25.6874   19.2408 C   0  0  0  0  0  0  0  0  0  0  0  0
  -23.7967  -19.7184   19.0835 C   0  0  1  0  0  0  0  0  0  0  0  0
  -24.1235  -15.9649   19.5642 C   0  0  1  0  0  0  0  0  0  0  0  0
  -27.5754  -27.0534   19.4053 C   0  0  2  0  0  0  0  0  0  0  0  0
  -22.2285   -9.5301   23.4380 C   0  0  0  0  0  0  0  0  0  0  0  0
  -31.9539  -16.6569   23.1633 C   0  0  0  0  0  0  0  0  0  0  0  0
  -21.8150  -16.1395   23.5644 C   0  0  0  0  0  0  0  0  0  0  0  0
  -21.5375  -13.9498   24.7460 C   0  0  0  0  0  0  0  0  0  0  0  0
  -20.1944  -14.4410   22.7022 C   0  0  0  0  0  0  0  0  0  0  0  0
  -24.8672   -9.8487   20.7155 C   0  0  0  0  0  0  0  0  0  0  0  0
  -22.6658  -13.9588   22.4749 C   0  0  1  0  0  0  0  0  0  0  0  0
  -22.9319  -10.1837   22.2586 C   0  0  2  0  0  0  0  0  0  0  0  0
  -30.7662  -16.8751   22.2377 C   0  0  1  0  0  0  0  0  0  1  0  0
  -21.5784  -14.6297   23.3608 C   0  0  0  0  0  0  0  0  0  0  0  0
  -25.3524  -27.9826   19.9307 N   0  0  0  0  0  0  0  0  0  0  0  0
  -28.9140  -21.0794   20.8163 N   0  0  0  0  0  0  0  0  0  0  0  0
  -26.6822  -28.0576   20.1094 N   0  0  0  0  0  0  0  0  0  0  0  0
  -24.0139  -15.1581   20.7813 N   0  0  0  0  0  0  0  0  0  0  0  0
  -27.7973  -24.7484   18.5638 N   0  0  0  0  0  0  0  0  0  0  0  0
  -28.3718  -29.2877   21.2243 N   0  0  0  0  0  0  0  0  0  0  0  0
  -25.7039  -30.6037   23.5788 N   0  0  0  0  0  0  0  0  0  0  0  0
  -29.7214  -18.9992   21.7735 N   0  0  0  0  0  0  0  0  0  0  0  0
  -27.8153  -23.2248   20.3640 N   0  0  0  0  0  0  0  0  0  0  0  0
  -23.9551  -18.2906   18.9157 N   0  0  0  0  0  0  0  0  0  0  0  0
  -22.4524  -12.5344   22.2428 N   0  0  0  0  0  0  0  0  0  0  0  0
  -24.0971   -9.3361   21.8779 N   0  3  0  0  0  0  0  0  0  0  0  0
  -25.8504  -32.0128   21.7755 O   0  0  0  0  0  0  0  0  0  0  0  0
  -23.8030  -17.6780   21.1572 O   0  0  0  0  0  0  0  0  0  0  0  0
  -21.7907  -14.5933   20.3635 O   0  0  0  0  0  0  0  0  0  0  0  0
  -24.4733  -11.8262   23.1326 O   0  0  0  0  0  0  0  0  0  0  0  0
  -29.3503  -17.9632   23.8475 O   0  0  0  0  0  0  0  0  0  0  0  0
  -29.0210  -22.7916   18.4300 O   0  0  0  0  0  0  0  0  0  0  0  0
  -19.3924  -29.9778   20.9527 O   0  0  0  0  0  0  0  0  0  0  0  0
  -30.0064  -15.6701   22.1529 O   0  0  0  0  0  0  0  0  0  1  0  0
  -16.7594  -28.5036   25.5677 F   0  0  0  0  0  0  0  0  0  0  0  0
  -17.3210  -28.1483   20.8811 F   0  0  0  0  0  0  0  0  0  0  0  0
  -27.4179  -22.0214   22.7023 S   0  0  0  0  0  0  0  0  0  0  0  0
  1  2  1  0  0  0  0
  1  5  2  0  0  0  0
  2  6  2  0  0  0  0
  3  8  2  0  0  0  0
  3 16  1  0  0  0  0
  4  9  1  0  0  0  0
  4 16  2  0  0  0  0
  5 18  1  0  0  0  0
  6 20  1  0  0  0  0
  7 10  2  0  0  0  0
  7 19  1  0  0  0  0
  8 22  1  0  0  0  0
  9 22  2  0  0  0  0
 10 23  1  0  0  0  0
 11 12  2  0  0  0  0
 11 24  1  0  0  0  0
 12 25  1  0  0  0  0
 13 21  1  0  0  0  0
 13 23  2  0  0  0  0
 14 25  2  0  0  0  0
 14 26  1  0  0  0  0
 15 28  2  0  0  0  0
 15 81  1  0  0  0  0
 16 27  1  0  0  0  0
 17 27  1  0  0  0  0
 17 29  2  0  0  0  0
 17 31  1  0  0  0  0
 18 20  2  0  0  0  0
 18 37  1  0  0  0  0
 19 21  2  0  0  0  0
 19 38  1  0  0  0  0
 20 46  1  0  0  0  0
 21 39  1  0  0  0  0
 22 77  1  0  0  0  0
 23 78  1  0  0  0  0
 24 26  2  0  0  0  0
 24 77  1  0  0  0  0
 25 79  1  0  0  0  0
 26 80  1  0  0  0  0
 27 59  2  0  0  0  0
 28 60  1  0  0  0  0
 28 66  1  0  0  0  0
 29 61  1  0  0  0  0
 29 64  1  0  0  0  0
 30 60  2  0  0  0  0
 30 67  1  0  0  0  0
 30 81  1  0  0  0  0
 31 65  1  0  0  0  0
 31 71  2  0  0  0  0
 32 47  1  0  0  0  0
 32 68  1  0  0  0  0
 32 72  2  0  0  0  0
 33 55  1  0  0  0  0
 33 62  1  0  0  0  0
 33 73  2  0  0  0  0
 34 56  1  0  0  0  0
 34 69  1  0  0  0  0
 34 74  2  0  0  0  0
 35 57  1  0  0  0  0
 35 66  1  0  0  0  0
 35 75  2  0  0  0  0
 36 63  1  0  0  0  0
 36 67  1  0  0  0  0
 36 76  2  0  0  0  0
 37 40  1  0  0  0  0
 38 47  1  0  0  0  0
 39 62  1  0  0  0  0
 40 42  1  0  0  0  0
 41 43  1  0  0  0  0
 41 44  1  0  0  0  0
 42 46  1  0  0  0  0
 43 48  1  0  0  0  0
 44 63  1  0  0  0  0
 45 48  1  0  0  0  0
 45 63  1  0  0  0  0
 46 68  1  0  0  0  0
 47 62  1  0  0  0  0
 48 61  1  0  0  0  0
 49 56  1  0  0  0  0
 50 57  1  0  0  0  0
 51 58  1  0  0  0  0
 52 58  1  0  0  0  0
 53 58  1  0  0  0  0
 54 70  1  0  0  0  0
 55 58  1  0  0  0  0
 55 69  1  0  0  0  0
 56 70  1  0  0  0  0
 57 78  1  0  0  0  0
 59 61  1  0  0  0  0
M  CHG  1  70   1
M  ISO  4  36 100  57 101  67 100  78 101
M  END
> <Batch ID>
0185

> <Smiles>
CNC(C)C(=O)NC(C(=O)N1Cc2cc([101O:1][101CH:1](C)C(=O)Nc3csc([100NH:0][100C:0](=O)N4CCCC(n5nc(-c6ccc(Oc7ccc(F)cc7F)cc6)c(C(N)=O)c5N)C4)n3)ccc2CC1C(=O)NC1CCCc2ccccc21)C(C)(C)C

> <Shape>
0.238

> <Color>
0.075

> <Negative vol penalty>
0.000

$$$$

  -OEChem-04052305053D

 85 93  0     1  0  0  0  0  0999 V2000
  -29.7573  -26.5865   10.2483 C   0  0  0  0  0  0  0  0  0  0  0  0
  -30.7269  -25.9731   11.0351 C   0  0  0  0  0  0  0  0  0  0  0  0
  -23.0735   -9.8718   19.9378 C   0  0  0  0  0  0  0  0  0  0  0  0
  -23.8342   -9.8730   22.2309 C   0  0  0  0  0  0  0  0  0  0  0  0
  -28.8036  -27.4147   10.8386 C   0  0  0  0  0  0  0  0  0  0  0  0
  -30.7441  -26.1886   12.4127 C   0  0  0  0  0  0  0  0  0  0  0  0
  -32.3320  -22.1656   16.7486 C   0  0  0  0  0  0  0  0  0  0  0  0
  -22.3284   -8.7190   20.1856 C   0  0  0  0  0  0  0  0  0  0  0  0
  -23.0890   -8.7202   22.4787 C   0  0  0  0  0  0  0  0  0  0  0  0
  -33.5154  -21.9712   17.4596 C   0  0  0  0  0  0  0  0  0  0  0  0
  -19.8602   -7.9248   23.0807 C   0  0  0  0  0  0  0  0  0  0  0  0
  -19.1036   -7.8832   24.2518 C   0  0  0  0  0  0  0  0  0  0  0  0
  -32.6386  -23.3015   19.2709 C   0  0  0  0  0  0  0  0  0  0  0  0
  -20.3431   -5.9428   24.9837 C   0  0  0  0  0  0  0  0  0  0  0  0
  -23.8264  -10.4488   20.9605 C   0  0  0  0  0  0  0  0  0  0  0  0
  -24.1711  -12.9738   20.8458 C   0  0  0  0  0  0  0  0  0  0  0  0
  -28.8033  -27.6327   12.2254 C   0  0  0  0  0  0  0  0  0  0  0  0
  -31.2955  -22.9398   17.2896 C   0  0  0  0  0  0  0  0  0  0  0  0
  -29.7904  -27.0216   13.0219 C   0  0  0  0  0  0  0  0  0  0  0  0
  -31.4420  -23.5021   18.5658 C   0  0  0  0  0  0  0  0  0  0  0  0
  -30.9094  -18.9957   22.9495 C   0  0  0  0  0  0  0  0  0  0  0  0
  -30.0302  -17.8934   22.7442 C   0  0  0  0  0  0  0  0  0  0  0  0
  -22.3361   -8.1432   21.4560 C   0  0  0  0  0  0  0  0  0  0  0  0
  -33.6699  -22.5415   18.7197 C   0  0  0  0  0  0  0  0  0  0  0  0
  -20.8582   -6.9753   22.8610 C   0  0  0  0  0  0  0  0  0  0  0  0
  -19.3451   -6.8922   25.2033 C   0  0  0  0  0  0  0  0  0  0  0  0
  -21.0996   -5.9843   23.8125 C   0  0  0  0  0  0  0  0  0  0  0  0
  -24.5968  -11.6394   20.7050 C   0  0  0  0  0  0  0  0  0  0  0  0
  -25.2640  -13.7228   20.4837 C   0  0  0  0  0  0  0  0  0  0  0  0
  -32.1094  -18.8295   22.2937 C   0  0  0  0  0  0  0  0  0  0  0  0
  -30.5916  -16.9267   21.9391 C   0  0  0  0  0  0  0  0  0  0  0  0
  -22.9013  -13.4902   21.2662 C   0  0  0  0  0  0  0  0  0  0  0  0
  -29.8301  -25.6311   16.4451 C   0  0  0  0  0  0  0  0  0  0  0  0
  -27.9105  -24.9166   18.9604 C   0  0  0  0  0  0  0  0  0  0  0  0
  -34.4376  -19.4130   21.5299 C   0  0  0  0  0  0  0  0  0  0  0  0
  -27.5185  -23.2924   21.9361 C   0  0  0  0  0  0  0  0  0  0  0  0
  -30.7314  -14.7617   20.6587 C   0  0  0  0  0  0  0  0  0  0  0  0
  -27.7811  -28.5738   12.8120 C   0  0  0  0  0  0  0  0  0  0  0  0
  -30.0148  -23.1179   16.5212 C   0  0  0  0  0  0  0  0  0  0  0  0
  -30.3514  -24.3249   19.1998 C   0  0  0  0  0  0  0  0  0  0  0  0
  -27.6399  -28.4523   14.3271 C   0  0  0  0  0  0  0  0  0  0  0  0
  -29.6134  -12.3544   18.2856 C   0  0  0  0  0  0  0  0  0  0  0  0
  -29.0132  -28.4238   14.9906 C   0  0  0  0  0  0  0  0  0  0  0  0
  -28.1735  -12.0635   18.7150 C   0  0  0  0  0  0  0  0  0  0  0  0
  -30.5292  -12.5795   19.4874 C   0  0  0  0  0  0  0  0  0  0  0  0
  -28.6236  -13.3031   20.8709 C   0  0  0  0  0  0  0  0  0  0  0  0
  -29.8268  -27.2110   14.5229 C   0  0  1  0  0  0  0  0  0  0  0  0
  -29.2267  -24.3514   16.9510 C   0  0  1  0  0  0  0  0  0  0  0  0
  -27.6501  -13.1336   19.6931 C   0  0  2  0  0  0  0  0  0  0  0  0
  -30.5747  -20.1846   23.7729 C   0  0  0  0  0  0  0  0  0  0  0  0
  -28.6680  -17.7985   23.3265 C   0  0  0  0  0  0  0  0  0  0  0  0
  -36.2850  -20.3741   22.9645 C   0  0  0  0  0  0  0  0  0  0  0  0
  -26.3470  -22.4257   23.9792 C   0  0  0  0  0  0  0  0  0  0  0  0
  -28.4847  -27.7149   20.0327 C   0  0  0  0  0  0  0  0  0  0  0  0
  -27.6092  -26.9671   22.2558 C   0  0  0  0  0  0  0  0  0  0  0  0
  -26.1066  -26.9766   20.2646 C   0  0  0  0  0  0  0  0  0  0  0  0
  -26.6667  -20.8242   20.5427 C   0  0  0  0  0  0  0  0  0  0  0  0
  -36.3044  -20.7502   20.4460 C   0  0  0  0  0  0  0  0  0  0  0  0
  -35.5284  -21.1336   19.1887 C   0  0  0  0  0  0  0  0  0  1  0  0
  -27.9239  -25.2275   20.4377 C   0  0  1  0  0  0  0  0  0  0  0  0
  -35.4401  -20.5612   21.7045 C   0  0  1  0  0  0  0  0  0  0  0  0
  -26.4045  -22.4039   22.4596 C   0  0  2  0  0  0  0  0  0  0  0  0
  -27.5526  -26.7077   20.7352 C   0  0  0  0  0  0  0  0  0  0  0  0
  -25.8614  -11.5430   20.2861 N   0  0  0  0  0  0  0  0  0  0  0  0
  -26.2397  -12.8264   20.1604 N   0  0  0  0  0  0  0  0  0  0  0  0
  -29.1205  -24.4755   18.4062 N   0  0  0  0  0  0  0  0  0  0  0  0
  -29.9717  -13.6090   20.3672 N   0  0  0  0  0  0  0  0  0  0  0  0
  -25.4759  -15.0542   20.4135 N   0  0  0  0  0  0  0  0  0  0  0  0
  -21.8885  -12.5814   21.6019 N   0  0  0  0  0  0  0  0  0  0  0  0
  -33.2548  -19.6575   22.2215 N   0  0  0  0  0  0  0  0  0  0  0  0
  -30.0855  -15.6857   21.4794 N   0  0  0  0  0  0  0  0  0  0  0  0
  -29.3776  -26.0111   15.1959 N   0  0  0  0  0  0  0  0  0  0  0  0
  -27.0415  -24.2517   21.0681 N   0  0  0  0  0  0  0  0  0  0  0  0
  -26.6135  -20.9962   22.0174 N   0  3  0  0  0  0  0  0  0  0  0  0
  -22.6665  -14.7209   21.3263 O   0  0  0  0  0  0  0  0  0  0  0  0
  -30.6447  -26.2302   17.1373 O   0  0  0  0  0  0  0  0  0  0  0  0
  -26.8631  -25.0532   18.3232 O   0  0  0  0  0  0  0  0  0  0  0  0
  -34.7042  -18.4266   20.8492 O   0  0  0  0  0  0  0  0  0  0  0  0
  -28.6937  -23.1520   22.2672 O   0  0  0  0  0  0  0  0  0  0  0  0
  -31.8606  -14.9301   20.1911 O   0  0  0  0  0  0  0  0  0  0  0  0
  -21.6090   -7.0184   21.6982 O   0  0  0  0  0  0  0  0  0  0  0  0
  -34.8242  -22.3538   19.4156 O   0  0  0  0  0  0  0  0  0  1  0  0
  -18.6195   -6.8533   26.3285 F   0  0  0  0  0  0  0  0  0  0  0  0
  -22.0578   -5.0702   23.6076 F   0  0  0  0  0  0  0  0  0  0  0  0
  -32.1725  -17.3494   21.4348 S   0  0  0  0  0  0  0  0  0  0  0  0
  1  2  1  0  0  0  0
  1  5  2  0  0  0  0
  2  6  2  0  0  0  0
  3  8  2  0  0  0  0
  3 15  1  0  0  0  0
  4  9  1  0  0  0  0
  4 15  2  0  0  0  0
  5 17  1  0  0  0  0
  6 19  1  0  0  0  0
  7 10  2  0  0  0  0
  7 18  1  0  0  0  0
  8 23  1  0  0  0  0
  9 23  2  0  0  0  0
 10 24  1  0  0  0  0
 11 12  2  0  0  0  0
 11 25  1  0  0  0  0
 12 26  1  0  0  0  0
 13 20  1  0  0  0  0
 13 24  2  0  0  0  0
 14 26  2  0  0  0  0
 14 27  1  0  0  0  0
 15 28  1  0  0  0  0
 16 28  1  0  0  0  0
 16 29  2  0  0  0  0
 16 32  1  0  0  0  0
 17 19  2  0  0  0  0
 17 38  1  0  0  0  0
 18 20  2  0  0  0  0
 18 39  1  0  0  0  0
 19 47  1  0  0  0  0
 20 40  1  0  0  0  0
 21 22  1  0  0  0  0
 21 30  2  0  0  0  0
 21 50  1  0  0  0  0
 22 31  2  0  0  0  0
 22 51  1  0  0  0  0
 23 81  1  0  0  0  0
 24 82  1  0  0  0  0
 25 27  2  0  0  0  0
 25 81  1  0  0  0  0
 26 83  1  0  0  0  0
 27 84  1  0  0  0  0
 28 64  2  0  0  0  0
 29 65  1  0  0  0  0
 29 68  1  0  0  0  0
 30 70  1  0  0  0  0
 30 85  1  0  0  0  0
 31 71  1  0  0  0  0
 31 85  1  0  0  0  0
 32 69  1  0  0  0  0
 32 75  2  0  0  0  0
 33 48  1  0  0  0  0
 33 72  1  0  0  0  0
 33 76  2  0  0  0  0
 34 60  1  0  0  0  0
 34 66  1  0  0  0  0
 34 77  2  0  0  0  0
 35 61  1  0  0  0  0
 35 70  1  0  0  0  0
 35 78  2  0  0  0  0
 36 62  1  0  0  0  0
 36 73  1  0  0  0  0
 36 79  2  0  0  0  0
 37 67  1  0  0  0  0
 37 71  1  0  0  0  0
 37 80  2  0  0  0  0
 38 41  1  0  0  0  0
 39 48  1  0  0  0  0
 40 66  1  0  0  0  0
 41 43  1  0  0  0  0
 42 44  1  0  0  0  0
 42 45  1  0  0  0  0
 43 47  1  0  0  0  0
 44 49  1  0  0  0  0
 45 67  1  0  0  0  0
 46 49  1  0  0  0  0
 46 67  1  0  0  0  0
 47 72  1  0  0  0  0
 48 66  1  0  0  0  0
 49 65  1  0  0  0  0
 52 61  1  0  0  0  0
 53 62  1  0  0  0  0
 54 63  1  0  0  0  0
 55 63  1  0  0  0  0
 56 63  1  0  0  0  0
 57 74  1  0  0  0  0
 58 59  1  0  0  0  0
 58 61  1  0  0  0  0
 59 82  1  0  0  0  0
 60 63  1  0  0  0  0
 60 73  1  0  0  0  0
 62 74  1  0  0  0  0
 64 65  1  0  0  0  0
M  CHG  1  74   1
M  ISO  4  37 100  59 101  71 100  82 101
M  END
> <Batch ID>
0185

> <Smiles>
CNC(C)C(=O)NC(C(=O)N1Cc2cc([101O:1][101CH2:1]CC(C)C(=O)Nc3sc([100NH:0][100C:0](=O)N4CCCC(n5nc(-c6ccc(Oc7ccc(F)cc7F)cc6)c(C(N)=O)c5N)C4)c(C)c3C)ccc2CC1C(=O)NC1CCCc2ccccc21)C(C)(C)C

> <Shape>
0.239

> <Color>
0.188

> <Negative vol penalty>
0.000

$$$$

  -OEChem-04052305053D

 83 91  0     1  0  0  0  0  0999 V2000
  -34.6961  -31.9161   21.7458 C   0  0  0  0  0  0  0  0  0  0  0  0
  -35.2699  -30.8480   22.4279 C   0  0  0  0  0  0  0  0  0  0  0  0
  -23.2518   -9.8153   20.0765 C   0  0  0  0  0  0  0  0  0  0  0  0
  -23.9578  -10.0341   22.3766 C   0  0  0  0  0  0  0  0  0  0  0  0
  -33.3359  -31.8966   21.4401 C   0  0  0  0  0  0  0  0  0  0  0  0
  -34.4836  -29.7601   22.8056 C   0  0  0  0  0  0  0  0  0  0  0  0
  -36.1963  -23.8849   23.0405 C   0  0  0  0  0  0  0  0  0  0  0  0
  -22.5797   -8.6353   20.3950 C   0  0  0  0  0  0  0  0  0  0  0  0
  -23.2856   -8.8541   22.6952 C   0  0  0  0  0  0  0  0  0  0  0  0
  -36.6109  -23.0702   24.0932 C   0  0  0  0  0  0  0  0  0  0  0  0
  -20.1040   -7.8861   23.2957 C   0  0  0  0  0  0  0  0  0  0  0  0
  -19.3251   -7.8778   24.4528 C   0  0  0  0  0  0  0  0  0  0  0  0
  -34.3599  -22.2344   24.3249 C   0  0  0  0  0  0  0  0  0  0  0  0
  -20.6740   -6.0843   25.3479 C   0  0  0  0  0  0  0  0  0  0  0  0
  -30.5457  -16.2292   24.0347 C   0  0  0  0  0  0  0  0  0  0  0  0
  -23.9409  -10.5147   21.0673 C   0  0  0  0  0  0  0  0  0  0  0  0
  -24.1191  -13.0424   20.7731 C   0  0  0  0  0  0  0  0  0  0  0  0
  -32.5345  -30.8036   21.8058 C   0  0  0  0  0  0  0  0  0  0  0  0
  -34.8559  -23.8887   22.6287 C   0  0  0  0  0  0  0  0  0  0  0  0
  -33.1112  -29.7265   22.5057 C   0  0  0  0  0  0  0  0  0  0  0  0
  -33.9314  -23.0483   23.2651 C   0  0  0  0  0  0  0  0  0  0  0  0
  -22.5965   -8.1547   21.7043 C   0  0  0  0  0  0  0  0  0  0  0  0
  -35.6921  -22.2469   24.7374 C   0  0  0  0  0  0  0  0  0  0  0  0
  -21.1678   -6.9934   23.1646 C   0  0  0  0  0  0  0  0  0  0  0  0
  -19.6101   -6.9770   25.4789 C   0  0  0  0  0  0  0  0  0  0  0  0
  -21.4528   -6.0926   24.1907 C   0  0  0  0  0  0  0  0  0  0  0  0
  -24.6358  -11.7334   20.7388 C   0  0  0  0  0  0  0  0  0  0  0  0
  -31.0928  -15.7247   22.8736 C   0  0  0  0  0  0  0  0  0  0  0  0
  -25.1676  -13.8360   20.3766 C   0  0  0  0  0  0  0  0  0  0  0  0
  -32.7454  -17.0354   23.4745 C   0  0  0  0  0  0  0  0  0  0  0  0
  -22.8084  -13.5001   21.1314 C   0  0  0  0  0  0  0  0  0  0  0  0
  -34.0465  -17.7188   23.4364 C   0  0  0  0  0  0  0  0  0  0  0  0
  -32.5508  -26.0743   22.5132 C   0  0  0  0  0  0  0  0  0  0  0  0
  -30.9224  -23.7123   20.9994 C   0  0  0  0  0  0  0  0  0  0  0  0
  -30.5187  -20.3699   20.4406 C   0  0  0  0  0  0  0  0  0  0  0  0
  -35.5093  -19.3794   24.6904 C   0  0  0  0  0  0  0  0  0  0  0  0
  -30.9102  -14.2320   20.8525 C   0  0  0  0  0  0  0  0  0  0  0  0
  -31.0594  -30.8489   21.4951 C   0  0  0  0  0  0  0  0  0  0  0  0
  -34.4301  -24.7535   21.4741 C   0  0  0  0  0  0  0  0  0  0  0  0
  -32.4850  -23.0002   22.8478 C   0  0  0  0  0  0  0  0  0  0  0  0
  -30.3726  -29.4897   21.6007 C   0  0  0  0  0  0  0  0  0  0  0  0
  -29.3612  -13.0712   17.8641 C   0  0  0  0  0  0  0  0  0  0  0  0
  -30.7859  -28.7813   22.8869 C   0  0  0  0  0  0  0  0  0  0  0  0
  -27.9339  -12.7355   18.3024 C   0  0  0  0  0  0  0  0  0  0  0  0
  -30.3827  -12.7272   18.9467 C   0  0  0  0  0  0  0  0  0  0  0  0
  -28.6760  -12.9659   20.7072 C   0  0  0  0  0  0  0  0  0  0  0  0
  -32.2963  -28.5173   22.9104 C   0  0  1  0  0  0  0  0  0  0  0  0
  -32.9353  -25.0583   21.4752 C   0  0  1  0  0  0  0  0  0  0  0  0
  -27.6053  -13.3551   19.6749 C   0  0  2  0  0  0  0  0  0  0  0  0
  -29.0797  -18.7423   19.1846 C   0  0  0  0  0  0  0  0  0  0  0  0
  -35.9897  -19.5079   27.1503 C   0  0  0  0  0  0  0  0  0  0  0  0
  -28.6910  -24.1130   23.0414 C   0  0  0  0  0  0  0  0  0  0  0  0
  -27.7549  -21.8963   22.3499 C   0  0  0  0  0  0  0  0  0  0  0  0
  -27.9053  -23.7561   20.6942 C   0  0  0  0  0  0  0  0  0  0  0  0
  -32.8243  -19.3488   18.8913 C   0  0  0  0  0  0  0  0  0  0  0  0
  -30.0189  -22.5855   21.4386 C   0  0  1  0  0  0  0  0  0  0  0  0
  -30.3512  -19.5761   19.1575 C   0  0  2  0  0  0  0  0  0  0  0  0
  -35.3880  -20.2251   25.9523 C   0  0  1  0  0  0  0  0  0  1  0  0
  -28.6193  -23.0898   21.8904 C   0  0  0  0  0  0  0  0  0  0  0  0
  -25.9134  -11.6934   20.3510 N   0  0  0  0  0  0  0  0  0  0  0  0
  -32.3539  -16.1861   22.5505 N   0  0  0  0  0  0  0  0  0  0  0  0
  -26.2081  -12.9871   20.1379 N   0  0  0  0  0  0  0  0  0  0  0  0
  -32.1162  -23.8689   21.7178 N   0  0  0  0  0  0  0  0  0  0  0  0
  -30.0086  -13.3519   20.2174 N   0  0  0  0  0  0  0  0  0  0  0  0
  -25.2919  -15.1702   20.2123 N   0  0  0  0  0  0  0  0  0  0  0  0
  -21.8509  -12.5511   21.5147 N   0  0  0  0  0  0  0  0  0  0  0  0
  -30.4324  -14.7906   22.0375 N   0  0  0  0  0  0  0  0  0  0  0  0
  -34.3566  -18.6019   24.4742 N   0  0  0  0  0  0  0  0  0  0  0  0
  -32.6241  -27.3825   22.0743 N   0  0  0  0  0  0  0  0  0  0  0  0
  -29.9831  -21.6358   20.3316 N   0  0  0  0  0  0  0  0  0  0  0  0
  -31.5099  -18.6599   18.9603 N   0  3  0  0  0  0  0  0  0  0  0  0
  -22.4907  -14.7131   21.0963 O   0  0  0  0  0  0  0  0  0  0  0  0
  -32.2112  -25.6991   23.6293 O   0  0  0  0  0  0  0  0  0  0  0  0
  -30.5849  -24.4227   20.0491 O   0  0  0  0  0  0  0  0  0  0  0  0
  -31.0663  -19.9114   21.4409 O   0  0  0  0  0  0  0  0  0  0  0  0
  -36.5012  -19.4232   23.9678 O   0  0  0  0  0  0  0  0  0  0  0  0
  -32.0132  -14.4937   20.3658 O   0  0  0  0  0  0  0  0  0  0  0  0
  -21.9406   -7.0034   22.0156 O   0  0  0  0  0  0  0  0  0  0  0  0
  -36.0940  -21.4511   25.7655 O   0  0  0  0  0  0  0  0  0  1  0  0
  -18.8631   -6.9702   26.5907 F   0  0  0  0  0  0  0  0  0  0  0  0
  -22.4743   -5.2335   24.0711 F   0  0  0  0  0  0  0  0  0  0  0  0
  -35.1356  -17.4614   22.1838 S   0  0  0  0  0  0  0  0  0  0  0  0
  -31.6469  -17.3253   24.7607 S   0  0  0  0  0  0  0  0  0  0  0  0
  1  2  1  0  0  0  0
  1  5  2  0  0  0  0
  2  6  2  0  0  0  0
  3  8  2  0  0  0  0
  3 16  1  0  0  0  0
  4  9  1  0  0  0  0
  4 16  2  0  0  0  0
  5 18  1  0  0  0  0
  6 20  1  0  0  0  0
  7 10  2  0  0  0  0
  7 19  1  0  0  0  0
  8 22  1  0  0  0  0
  9 22  2  0  0  0  0
 10 23  1  0  0  0  0
 11 12  2  0  0  0  0
 11 24  1  0  0  0  0
 12 25  1  0  0  0  0
 13 21  1  0  0  0  0
 13 23  2  0  0  0  0
 14 25  2  0  0  0  0
 14 26  1  0  0  0  0
 15 28  2  0  0  0  0
 15 83  1  0  0  0  0
 16 27  1  0  0  0  0
 17 27  1  0  0  0  0
 17 29  2  0  0  0  0
 17 31  1  0  0  0  0
 18 20  2  0  0  0  0
 18 38  1  0  0  0  0
 19 21  2  0  0  0  0
 19 39  1  0  0  0  0
 20 47  1  0  0  0  0
 21 40  1  0  0  0  0
 22 78  1  0  0  0  0
 23 79  1  0  0  0  0
 24 26  2  0  0  0  0
 24 78  1  0  0  0  0
 25 80  1  0  0  0  0
 26 81  1  0  0  0  0
 27 60  2  0  0  0  0
 28 61  1  0  0  0  0
 28 67  1  0  0  0  0
 29 62  1  0  0  0  0
 29 65  1  0  0  0  0
 30 32  1  0  0  0  0
 30 61  2  0  0  0  0
 30 83  1  0  0  0  0
 31 66  1  0  0  0  0
 31 72  2  0  0  0  0
 32 68  1  0  0  0  0
 32 82  2  0  0  0  0
 33 48  1  0  0  0  0
 33 69  1  0  0  0  0
 33 73  2  0  0  0  0
 34 56  1  0  0  0  0
 34 63  1  0  0  0  0
 34 74  2  0  0  0  0
 35 57  1  0  0  0  0
 35 70  1  0  0  0  0
 35 75  2  0  0  0  0
 36 58  1  0  0  0  0
 36 68  1  0  0  0  0
 36 76  2  0  0  0  0
 37 64  1  0  0  0  0
 37 67  1  0  0  0  0
 37 77  2  0  0  0  0
 38 41  1  0  0  0  0
 39 48  1  0  0  0  0
 40 63  1  0  0  0  0
 41 43  1  0  0  0  0
 42 44  1  0  0  0  0
 42 45  1  0  0  0  0
 43 47  1  0  0  0  0
 44 49  1  0  0  0  0
 45 64  1  0  0  0  0
 46 49  1  0  0  0  0
 46 64  1  0  0  0  0
 47 69  1  0  0  0  0
 48 63  1  0  0  0  0
 49 62  1  0  0  0  0
 50 57  1  0  0  0  0
 51 58  1  0  0  0  0
 52 59  1  0  0  0  0
 53 59  1  0  0  0  0
 54 59  1  0  0  0  0
 55 71  1  0  0  0  0
 56 59  1  0  0  0  0
 56 70  1  0  0  0  0
 57 71  1  0  0  0  0
 58 79  1  0  0  0  0
 60 62  1  0  0  0  0
M  CHG  1  71   1
M  ISO  4  37 100  58 101  67 100  79 101
M  END
> <Batch ID>
0185

> <Smiles>
CNC(C)C(=O)NC(C(=O)N1Cc2cc([101O:1][101CH:1](C)C(=O)NC(=S)c3nc([100NH:0][100C:0](=O)N4CCCC(n5nc(-c6ccc(Oc7ccc(F)cc7F)cc6)c(C(N)=O)c5N)C4)cs3)ccc2CC1C(=O)NC1CCCc2ccccc21)C(C)(C)C

> <Shape>
0.206

> <Color>
0.181

> <Negative vol penalty>
0.000

$$$$

  -OEChem-04052305053D

 86 94  0     1  0  0  0  0  0999 V2000
  -33.8970  -26.0973   27.3498 C   0  0  0  0  0  0  0  0  0  0  0  0
  -33.4478  -26.2467   26.0417 C   0  0  0  0  0  0  0  0  0  0  0  0
  -26.3206  -12.8345   21.8618 C   0  0  0  0  0  0  0  0  0  0  0  0
  -25.6128  -13.8647   19.7943 C   0  0  0  0  0  0  0  0  0  0  0  0
  -33.1499  -25.3525   28.2614 C   0  0  0  0  0  0  0  0  0  0  0  0
  -32.2516  -25.6504   25.6441 C   0  0  0  0  0  0  0  0  0  0  0  0
  -29.3461  -28.7635   22.9034 C   0  0  0  0  0  0  0  0  0  0  0  0
  -25.0699  -12.2301   21.9889 C   0  0  0  0  0  0  0  0  0  0  0  0
  -24.3621  -13.2603   19.9213 C   0  0  0  0  0  0  0  0  0  0  0  0
  -29.6924  -28.9443   21.5651 C   0  0  0  0  0  0  0  0  0  0  0  0
  -20.8629  -12.2784   19.8848 C   0  0  0  0  0  0  0  0  0  0  0  0
  -19.7359  -13.0627   19.6394 C   0  0  0  0  0  0  0  0  0  0  0  0
  -27.9801  -27.3741   20.9160 C   0  0  0  0  0  0  0  0  0  0  0  0
  -20.3858  -14.5553   21.4246 C   0  0  0  0  0  0  0  0  0  0  0  0
  -26.5920  -13.6518   20.7646 C   0  0  0  0  0  0  0  0  0  0  0  0
  -29.0185  -13.7548   19.9842 C   0  0  0  0  0  0  0  0  0  0  0  0
  -31.9391  -24.7549   27.8774 C   0  0  0  0  0  0  0  0  0  0  0  0
  -28.3197  -27.8769   23.2595 C   0  0  0  0  0  0  0  0  0  0  0  0
  -31.4883  -24.8958   26.5510 C   0  0  0  0  0  0  0  0  0  0  0  0
  -27.6209  -27.1857   22.2594 C   0  0  0  0  0  0  0  0  0  0  0  0
  -24.0907  -12.4430   21.0186 C   0  0  0  0  0  0  0  0  0  0  0  0
  -29.0113  -28.2474   20.5714 C   0  0  0  0  0  0  0  0  0  0  0  0
  -21.7514  -12.6324   20.9002 C   0  0  0  0  0  0  0  0  0  0  0  0
  -19.4973  -14.2011   20.4092 C   0  0  0  0  0  0  0  0  0  0  0  0
  -21.5129  -13.7709   21.6700 C   0  0  0  0  0  0  0  0  0  0  0  0
  -27.8836  -14.2769   20.6331 C   0  0  0  0  0  0  0  0  0  0  0  0
  -28.5576  -22.7751   16.7196 C   0  0  0  0  0  0  0  0  0  0  0  0
  -29.2574  -23.4867   17.6714 C   0  0  0  0  0  0  0  0  0  0  0  0
  -29.9786  -14.7250   20.1379 C   0  0  0  0  0  0  0  0  0  0  0  0
  -29.0500  -21.5944   18.7606 C   0  0  0  0  0  0  0  0  0  0  0  0
  -29.1897  -12.5048   19.3032 C   0  0  0  0  0  0  0  0  0  0  0  0
  -28.1535  -25.2176   24.9927 C   0  0  0  0  0  0  0  0  0  0  0  0
  -24.9684  -25.5394   24.4690 C   0  0  0  0  0  0  0  0  0  0  0  0
  -30.3893  -25.6128   18.4081 C   0  0  0  0  0  0  0  0  0  0  0  0
  -22.4653  -26.7989   22.5210 C   0  0  0  0  0  0  0  0  0  0  0  0
  -29.7117  -20.6328   20.9931 C   0  0  0  0  0  0  0  0  0  0  0  0
  -31.1900  -23.9197   28.8854 C   0  0  0  0  0  0  0  0  0  0  0  0
  -27.9402  -27.7132   24.7057 C   0  0  0  0  0  0  0  0  0  0  0  0
  -26.4976  -26.2376   22.5877 C   0  0  0  0  0  0  0  0  0  0  0  0
  -29.7451  -23.6328   28.4851 C   0  0  0  0  0  0  0  0  0  0  0  0
  -31.3036  -18.2458   23.1014 C   0  0  0  0  0  0  0  0  0  0  0  0
  -29.6734  -23.1859   27.0284 C   0  0  0  0  0  0  0  0  0  0  0  0
  -30.7151  -16.9090   22.6445 C   0  0  0  0  0  0  0  0  0  0  0  0
  -30.2664  -19.3666   23.0580 C   0  0  0  0  0  0  0  0  0  0  0  0
  -28.9864  -18.1863   21.3151 C   0  0  0  0  0  0  0  0  0  0  0  0
  -30.1833  -24.2849   26.0885 C   0  0  1  0  0  0  0  0  0  0  0  0
  -27.2228  -26.3972   24.9900 C   0  0  1  0  0  0  0  0  0  0  0  0
  -30.0107  -17.0403   21.2799 C   0  0  2  0  0  0  0  0  0  0  0  0
  -19.9643  -26.8634   22.3253 C   0  0  0  0  0  0  0  0  0  0  0  0
  -31.3581  -29.3548   18.3542 C   0  0  0  0  0  0  0  0  0  0  0  0
  -26.6894  -23.7906   15.4014 C   0  0  0  0  0  0  0  0  0  0  0  0
  -24.9796  -22.6763   23.4143 C   0  0  0  0  0  0  0  0  0  0  0  0
  -22.7435  -23.1225   22.3802 C   0  0  0  0  0  0  0  0  0  0  0  0
  -23.0183  -23.2491   24.8564 C   0  0  0  0  0  0  0  0  0  0  0  0
  -22.4046  -29.7460   22.7861 C   0  0  0  0  0  0  0  0  0  0  0  0
  -30.6419  -27.0001   17.8257 C   0  0  0  0  0  0  0  0  0  0  0  0
  -24.0070  -25.0679   23.4049 C   0  0  1  0  0  0  0  0  0  0  0  0
  -21.2000  -27.5597   22.8741 C   0  0  2  0  0  0  0  0  0  0  0  0
  -30.6860  -28.0972   18.8894 C   0  0  2  0  0  0  0  0  0  1  0  0
  -28.0933  -23.1773   15.3761 C   0  0  0  0  0  0  0  0  0  0  0  0
  -23.7095  -23.5453   23.5076 C   0  0  0  0  0  0  0  0  0  0  0  0
  -28.1009  -15.4848   21.1600 N   0  0  0  0  0  0  0  0  0  0  0  0
  -29.5403  -22.8114   18.8427 N   0  0  0  0  0  0  0  0  0  0  0  0
  -29.3836  -15.7298   20.8425 N   0  0  0  0  0  0  0  0  0  0  0  0
  -26.1681  -26.1067   24.0166 N   0  0  0  0  0  0  0  0  0  0  0  0
  -29.6440  -19.4340   21.7340 N   0  0  0  0  0  0  0  0  0  0  0  0
  -31.2652  -14.8079   19.7379 N   0  0  0  0  0  0  0  0  0  0  0  0
  -28.1008  -11.6247   19.2383 N   0  0  0  0  0  0  0  0  0  0  0  0
  -29.6811  -24.8264   17.5032 N   0  0  0  0  0  0  0  0  0  0  0  0
  -29.1131  -20.5679   19.7353 N   0  0  0  0  0  0  0  0  0  0  0  0
  -29.1767  -25.3104   25.9168 N   0  0  0  0  0  0  0  0  0  0  0  0
  -22.8255  -25.9165   23.5174 N   0  0  0  0  0  0  0  0  0  0  0  0
  -21.2509  -28.9389   22.3120 N   0  3  0  0  0  0  0  0  0  0  0  0
  -30.2808  -12.1708   18.7823 O   0  0  0  0  0  0  0  0  0  0  0  0
  -27.9569  -24.2911   24.2151 O   0  0  0  0  0  0  0  0  0  0  0  0
  -24.6631  -25.4155   25.6578 O   0  0  0  0  0  0  0  0  0  0  0  0
  -30.7807  -25.2918   19.5252 O   0  0  0  0  0  0  0  0  0  0  0  0
  -23.0713  -26.9678   21.4652 O   0  0  0  0  0  0  0  0  0  0  0  0
  -30.2841  -21.6345   21.4302 O   0  0  0  0  0  0  0  0  0  0  0  0
  -22.8702  -11.8532   21.1421 O   0  0  0  0  0  0  0  0  0  0  0  0
  -29.3478  -28.4215   19.2643 O   0  0  0  0  0  0  0  0  0  1  0  0
  -18.4158  -14.9551   20.1724 F   0  0  0  0  0  0  0  0  0  0  0  0
  -22.3635  -14.1168   22.6461 F   0  0  0  0  0  0  0  0  0  0  0  0
  -28.0470  -22.1365   14.4751 F   0  0  0  0  0  0  0  0  0  0  0  0
  -28.9110  -24.1020   14.7649 F   0  0  0  0  0  0  0  0  0  0  0  0
  -28.2371  -21.1946   17.3031 S   0  0  0  0  0  0  0  0  0  0  0  0
  1  2  1  0  0  0  0
  1  5  2  0  0  0  0
  2  6  2  0  0  0  0
  3  8  2  0  0  0  0
  3 15  1  0  0  0  0
  4  9  1  0  0  0  0
  4 15  2  0  0  0  0
  5 17  1  0  0  0  0
  6 19  1  0  0  0  0
  7 10  2  0  0  0  0
  7 18  1  0  0  0  0
  8 21  1  0  0  0  0
  9 21  2  0  0  0  0
 10 22  1  0  0  0  0
 11 12  2  0  0  0  0
 11 23  1  0  0  0  0
 12 24  1  0  0  0  0
 13 20  1  0  0  0  0
 13 22  2  0  0  0  0
 14 24  2  0  0  0  0
 14 25  1  0  0  0  0
 15 26  1  0  0  0  0
 16 26  1  0  0  0  0
 16 29  2  0  0  0  0
 16 31  1  0  0  0  0
 17 19  2  0  0  0  0
 17 37  1  0  0  0  0
 18 20  2  0  0  0  0
 18 38  1  0  0  0  0
 19 46  1  0  0  0  0
 20 39  1  0  0  0  0
 21 80  1  0  0  0  0
 22 81  1  0  0  0  0
 23 25  2  0  0  0  0
 23 80  1  0  0  0  0
 24 82  1  0  0  0  0
 25 83  1  0  0  0  0
 26 62  2  0  0  0  0
 27 28  2  0  0  0  0
 27 60  1  0  0  0  0
 27 86  1  0  0  0  0
 28 63  1  0  0  0  0
 28 69  1  0  0  0  0
 29 64  1  0  0  0  0
 29 67  1  0  0  0  0
 30 63  2  0  0  0  0
 30 70  1  0  0  0  0
 30 86  1  0  0  0  0
 31 68  1  0  0  0  0
 31 74  2  0  0  0  0
 32 47  1  0  0  0  0
 32 71  1  0  0  0  0
 32 75  2  0  0  0  0
 33 57  1  0  0  0  0
 33 65  1  0  0  0  0
 33 76  2  0  0  0  0
 34 56  1  0  0  0  0
 34 69  1  0  0  0  0
 34 77  2  0  0  0  0
 35 58  1  0  0  0  0
 35 72  1  0  0  0  0
 35 78  2  0  0  0  0
 36 66  1  0  0  0  0
 36 70  1  0  0  0  0
 36 79  2  0  0  0  0
 37 40  1  0  0  0  0
 38 47  1  0  0  0  0
 39 65  1  0  0  0  0
 40 42  1  0  0  0  0
 41 43  1  0  0  0  0
 41 44  1  0  0  0  0
 42 46  1  0  0  0  0
 43 48  1  0  0  0  0
 44 66  1  0  0  0  0
 45 48  1  0  0  0  0
 45 66  1  0  0  0  0
 46 71  1  0  0  0  0
 47 65  1  0  0  0  0
 48 64  1  0  0  0  0
 49 58  1  0  0  0  0
 50 59  1  0  0  0  0
 51 60  1  0  0  0  0
 52 61  1  0  0  0  0
 53 61  1  0  0  0  0
 54 61  1  0  0  0  0
 55 73  1  0  0  0  0
 56 59  1  0  0  0  0
 57 61  1  0  0  0  0
 57 72  1  0  0  0  0
 58 73  1  0  0  0  0
 59 81  1  0  0  0  0
 60 84  1  0  0  0  0
 60 85  1  0  0  0  0
 62 64  1  0  0  0  0
M  CHG  1  73   1
M  ISO  4  36 100  59 101  70 100  81 101
M  END
> <Batch ID>
0185

> <Smiles>
CNC(C)C(=O)NC(C(=O)N1Cc2cc([101O:1][101CH:1](C)CC(=O)Nc3nc([100NH:0][100C:0](=O)N4CCCC(n5nc(-c6ccc(Oc7ccc(F)cc7F)cc6)c(C(N)=O)c5N)C4)sc3C(C)(F)F)ccc2CC1C(=O)NC1CCCc2ccccc21)C(C)(C)C

> <Shape>
0.215

> <Color>
0.076

> <Negative vol penalty>
0.000

$$$$

  -OEChem-04052305053D

 85 93  0     1  0  0  0  0  0999 V2000
  -27.3586   -9.7989   22.2847 C   0  0  0  0  0  0  0  0  0  0  0  0
  -28.0813  -10.9081   21.8571 C   0  0  0  0  0  0  0  0  0  0  0  0
  -21.5325  -28.7973   19.9044 C   0  0  0  0  0  0  0  0  0  0  0  0
  -22.3193  -27.2934   21.6237 C   0  0  0  0  0  0  0  0  0  0  0  0
  -25.9679   -9.7937   22.1853 C   0  0  0  0  0  0  0  0  0  0  0  0
  -27.4136  -12.0125   21.3290 C   0  0  0  0  0  0  0  0  0  0  0  0
  -28.9936  -17.8996   21.9221 C   0  0  0  0  0  0  0  0  0  0  0  0
  -20.4068  -27.9952   19.7178 C   0  0  0  0  0  0  0  0  0  0  0  0
  -21.1935  -26.4912   21.4372 C   0  0  0  0  0  0  0  0  0  0  0  0
  -29.6759  -18.7770   21.0804 C   0  0  0  0  0  0  0  0  0  0  0  0
  -18.3474  -24.2404   21.6652 C   0  0  0  0  0  0  0  0  0  0  0  0
  -17.6784  -23.7860   22.8016 C   0  0  0  0  0  0  0  0  0  0  0  0
  -27.5693  -19.6140   20.2551 C   0  0  0  0  0  0  0  0  0  0  0  0
  -17.2643  -26.0702   23.4712 C   0  0  0  0  0  0  0  0  0  0  0  0
  -33.6046  -25.7294   18.4664 C   0  0  0  0  0  0  0  0  0  0  0  0
  -22.4888  -28.4464   20.8573 C   0  0  0  0  0  0  0  0  0  0  0  0
  -23.7862  -30.3588   21.9377 C   0  0  0  0  0  0  0  0  0  0  0  0
  -25.2822  -10.9024   21.6646 C   0  0  0  0  0  0  0  0  0  0  0  0
  -27.5917  -17.8651   21.9286 C   0  0  0  0  0  0  0  0  0  0  0  0
  -26.0125  -12.0217   21.2214 C   0  0  0  0  0  0  0  0  0  0  0  0
  -26.8716  -18.7370   21.0996 C   0  0  0  0  0  0  0  0  0  0  0  0
  -20.2372  -26.8421   20.4842 C   0  0  0  0  0  0  0  0  0  0  0  0
  -28.9638  -19.6324   20.2447 C   0  0  0  0  0  0  0  0  0  0  0  0
  -18.4749  -25.6097   21.4317 C   0  0  0  0  0  0  0  0  0  0  0  0
  -17.1368  -24.7009   23.7046 C   0  0  0  0  0  0  0  0  0  0  0  0
  -17.9334  -26.5246   22.3347 C   0  0  0  0  0  0  0  0  0  0  0  0
  -23.6522  -29.2743   21.0501 C   0  0  0  0  0  0  0  0  0  0  0  0
  -32.5299  -26.1867   19.1998 C   0  0  0  0  0  0  0  0  0  0  0  0
  -25.0702  -30.8057   21.7423 C   0  0  0  0  0  0  0  0  0  0  0  0
  -31.8668  -24.1181   18.8979 C   0  0  0  0  0  0  0  0  0  0  0  0
  -22.8352  -30.9125   22.8567 C   0  0  0  0  0  0  0  0  0  0  0  0
  -25.3989  -15.6652   21.2533 C   0  0  0  0  0  0  0  0  0  0  0  0
  -23.3529  -17.9259   22.3602 C   0  0  0  0  0  0  0  0  0  0  0  0
  -22.7330  -21.2275   22.9617 C   0  0  0  0  0  0  0  0  0  0  0  0
  -29.9424  -28.0660   19.8421 C   0  0  0  0  0  0  0  0  0  0  0  0
  -23.7814  -10.8317   21.5333 C   0  0  0  0  0  0  0  0  0  0  0  0
  -26.8704  -16.9316   22.8618 C   0  0  0  0  0  0  0  0  0  0  0  0
  -25.3656  -18.7533   21.0837 C   0  0  0  0  0  0  0  0  0  0  0  0
  -23.1249  -12.1914   21.3088 C   0  0  0  0  0  0  0  0  0  0  0  0
  -28.4835  -31.0454   18.3957 C   0  0  0  0  0  0  0  0  0  0  0  0
  -23.8755  -12.9764   20.2377 C   0  0  0  0  0  0  0  0  0  0  0  0
  -27.0812  -31.0248   19.0068 C   0  0  0  0  0  0  0  0  0  0  0  0
  -28.9619  -29.6354   18.0622 C   0  0  0  0  0  0  0  0  0  0  0  0
  -27.5379  -28.6664   19.8248 C   0  0  0  0  0  0  0  0  0  0  0  0
  -25.3226  -13.2486   20.6658 C   0  0  1  0  0  0  0  0  0  0  0  0
  -25.4462  -16.6202   22.4124 C   0  0  1  0  0  0  0  0  0  0  0  0
  -27.0062  -30.0602   20.2052 C   0  0  2  0  0  0  0  0  0  0  0  0
  -20.9584  -22.7712   23.8364 C   0  0  0  0  0  0  0  0  0  0  0  0
  -30.0696  -22.7996   21.1301 C   0  0  0  0  0  0  0  0  0  0  0  0
  -21.8131  -17.6353   19.7421 C   0  0  0  0  0  0  0  0  0  0  0  0
  -20.6697  -19.8028   20.2549 C   0  0  0  0  0  0  0  0  0  0  0  0
  -20.3773  -17.8494   21.7786 C   0  0  0  0  0  0  0  0  0  0  0  0
  -24.4723  -22.1668   25.1643 C   0  0  0  0  0  0  0  0  0  0  0  0
  -32.3680  -27.5548   19.7309 C   0  0  0  0  0  0  0  0  0  0  0  0
  -22.5899  -19.0722   21.7416 C   0  0  1  0  0  0  0  0  0  0  0  0
  -22.1861  -21.9435   24.1834 C   0  0  2  0  0  0  0  0  0  0  0  0
  -29.8135  -22.9028   19.6279 C   0  0  2  0  0  0  0  0  0  0  0  0
  -28.9786  -21.7207   19.1069 C   0  0  1  0  0  0  0  0  0  1  0  0
  -21.3909  -18.5885   20.8780 C   0  0  0  0  0  0  0  0  0  0  0  0
  -28.7110  -21.7726   17.6127 C   0  0  0  0  0  0  0  0  0  0  0  0
  -24.7624  -29.0462   20.3433 N   0  0  0  0  0  0  0  0  0  0  0  0
  -31.5322  -25.2643   19.4479 N   0  0  0  0  0  0  0  0  0  0  0  0
  -25.6062  -29.9937   20.7866 N   0  0  0  0  0  0  0  0  0  0  0  0
  -24.7061  -17.8177   22.0094 N   0  0  0  0  0  0  0  0  0  0  0  0
  -28.8829  -28.7729   19.2496 N   0  0  0  0  0  0  0  0  0  0  0  0
  -25.7817  -31.8103   22.2965 N   0  0  0  0  0  0  0  0  0  0  0  0
  -21.5616  -30.3322   22.9308 N   0  0  0  0  0  0  0  0  0  0  0  0
  -31.0932  -22.9732   18.9517 N   0  0  0  0  0  0  0  0  0  0  0  0
  -25.3712  -14.3338   21.6221 N   0  0  0  0  0  0  0  0  0  0  0  0
  -22.2164  -19.9548   22.8416 N   0  0  0  0  0  0  0  0  0  0  0  0
  -31.1820  -28.2150   19.2324 N   0  0  0  0  0  0  0  0  0  0  0  0
  -23.2188  -22.8521   24.7569 N   0  3  0  0  0  0  0  0  0  0  0  0
  -23.1013  -31.9033   23.5786 O   0  0  0  0  0  0  0  0  0  0  0  0
  -25.3870  -16.1039   20.1092 O   0  0  0  0  0  0  0  0  0  0  0  0
  -22.7716  -17.1591   23.1320 O   0  0  0  0  0  0  0  0  0  0  0  0
  -23.5353  -21.7469   22.1889 O   0  0  0  0  0  0  0  0  0  0  0  0
  -29.7957  -27.3581   20.8444 O   0  0  0  0  0  0  0  0  0  0  0  0
  -19.1387  -26.0593   20.3026 O   0  0  0  0  0  0  0  0  0  0  0  0
  -29.6274  -20.4893   19.4218 O   0  0  0  0  0  0  0  0  0  1  0  0
  -16.4931  -24.2644   24.7951 F   0  0  0  0  0  0  0  0  0  0  0  0
  -18.0517  -27.8413   22.1152 F   0  0  0  0  0  0  0  0  0  0  0  0
  -28.0212  -22.8863   17.2821 F   0  0  0  0  0  0  0  0  0  0  0  0
  -29.8495  -21.7601   16.8891 F   0  0  0  0  0  0  0  0  0  0  0  0
  -27.9702  -20.7092   17.2262 F   0  0  0  0  0  0  0  0  0  0  0  0
  -33.3680  -24.0783   18.0674 S   0  0  0  0  0  0  0  0  0  0  0  0
  1  2  1  0  0  0  0
  1  5  2  0  0  0  0
  2  6  2  0  0  0  0
  3  8  2  0  0  0  0
  3 16  1  0  0  0  0
  4  9  1  0  0  0  0
  4 16  2  0  0  0  0
  5 18  1  0  0  0  0
  6 20  1  0  0  0  0
  7 10  2  0  0  0  0
  7 19  1  0  0  0  0
  8 22  1  0  0  0  0
  9 22  2  0  0  0  0
 10 23  1  0  0  0  0
 11 12  2  0  0  0  0
 11 24  1  0  0  0  0
 12 25  1  0  0  0  0
 13 21  1  0  0  0  0
 13 23  2  0  0  0  0
 14 25  2  0  0  0  0
 14 26  1  0  0  0  0
 15 28  2  0  0  0  0
 15 85  1  0  0  0  0
 16 27  1  0  0  0  0
 17 27  1  0  0  0  0
 17 29  2  0  0  0  0
 17 31  1  0  0  0  0
 18 20  2  0  0  0  0
 18 36  1  0  0  0  0
 19 21  2  0  0  0  0
 19 37  1  0  0  0  0
 20 45  1  0  0  0  0
 21 38  1  0  0  0  0
 22 78  1  0  0  0  0
 23 79  1  0  0  0  0
 24 26  2  0  0  0  0
 24 78  1  0  0  0  0
 25 80  1  0  0  0  0
 26 81  1  0  0  0  0
 27 61  2  0  0  0  0
 28 54  1  0  0  0  0
 28 62  1  0  0  0  0
 29 63  1  0  0  0  0
 29 66  1  0  0  0  0
 30 62  2  0  0  0  0
 30 68  1  0  0  0  0
 30 85  1  0  0  0  0
 31 67  1  0  0  0  0
 31 73  2  0  0  0  0
 32 46  1  0  0  0  0
 32 69  1  0  0  0  0
 32 74  2  0  0  0  0
 33 55  1  0  0  0  0
 33 64  1  0  0  0  0
 33 75  2  0  0  0  0
 34 56  1  0  0  0  0
 34 70  1  0  0  0  0
 34 76  2  0  0  0  0
 35 65  1  0  0  0  0
 35 71  1  0  0  0  0
 35 77  2  0  0  0  0
 36 39  1  0  0  0  0
 37 46  1  0  0  0  0
 38 64  1  0  0  0  0
 39 41  1  0  0  0  0
 40 42  1  0  0  0  0
 40 43  1  0  0  0  0
 41 45  1  0  0  0  0
 42 47  1  0  0  0  0
 43 65  1  0  0  0  0
 44 47  1  0  0  0  0
 44 65  1  0  0  0  0
 45 69  1  0  0  0  0
 46 64  1  0  0  0  0
 47 63  1  0  0  0  0
 48 56  1  0  0  0  0
 49 57  1  0  0  0  0
 50 59  1  0  0  0  0
 51 59  1  0  0  0  0
 52 59  1  0  0  0  0
 53 72  1  0  0  0  0
 54 71  1  0  0  0  0
 55 59  1  0  0  0  0
 55 70  1  0  0  0  0
 56 72  1  0  0  0  0
 57 58  1  0  0  0  0
 57 68  1  0  0  0  0
 58 60  1  0  0  0  0
 58 79  1  0  0  0  0
 60 82  1  0  0  0  0
 60 83  1  0  0  0  0
 60 84  1  0  0  0  0
 61 63  1  0  0  0  0
M  CHG  1  72   1
M  ISO  4  35 100  58 101  71 100  79 101
M  END
> <Batch ID>
0185

> <Smiles>
CNC(C)C(=O)NC(C(=O)N1Cc2cc([101O:1][101CH:1](C(C)Nc3nc(C[100NH:0][100C:0](=O)N4CCCC(n5nc(-c6ccc(Oc7ccc(F)cc7F)cc6)c(C(N)=O)c5N)C4)cs3)C(F)(F)F)ccc2CC1C(=O)NC1CCCc2ccccc21)C(C)(C)C

> <Shape>
0.235

> <Color>
0.079

> <Negative vol penalty>
0.000

$$$$

  -OEChem-04052305053D

 82 90  0     1  0  0  0  0  0999 V2000
  -21.8603  -12.3626   19.1506 C   0  0  0  0  0  0  0  0  0  0  0  0
  -21.7144  -13.6795   19.5748 C   0  0  0  0  0  0  0  0  0  0  0  0
  -30.2951  -26.2108   22.1711 C   0  0  0  0  0  0  0  0  0  0  0  0
  -29.3704  -26.5842   24.3717 C   0  0  0  0  0  0  0  0  0  0  0  0
  -23.0587  -11.6872   19.3773 C   0  0  0  0  0  0  0  0  0  0  0  0
  -22.7666  -14.3214   20.2270 C   0  0  0  0  0  0  0  0  0  0  0  0
  -23.5335  -19.0249   18.5143 C   0  0  0  0  0  0  0  0  0  0  0  0
  -31.5701  -26.0997   22.7257 C   0  0  0  0  0  0  0  0  0  0  0  0
  -30.6454  -26.4731   24.9263 C   0  0  0  0  0  0  0  0  0  0  0  0
  -22.6609  -20.0158   18.9622 C   0  0  0  0  0  0  0  0  0  0  0  0
  -33.3751  -23.7625   24.3727 C   0  0  0  0  0  0  0  0  0  0  0  0
  -34.1841  -22.7146   23.9333 C   0  0  0  0  0  0  0  0  0  0  0  0
  -24.3086  -20.7303   20.5727 C   0  0  0  0  0  0  0  0  0  0  0  0
  -35.8294  -24.3076   23.1635 C   0  0  0  0  0  0  0  0  0  0  0  0
  -18.8130  -27.8462   23.8119 C   0  0  0  0  0  0  0  0  0  0  0  0
  -29.1952  -26.4531   22.9941 C   0  0  0  0  0  0  0  0  0  0  0  0
  -26.9501  -25.5316   22.2080 C   0  0  0  0  0  0  0  0  0  0  0  0
  -24.1295  -12.3242   20.0240 C   0  0  0  0  0  0  0  0  0  0  0  0
  -24.7981  -18.8720   19.1006 C   0  0  0  0  0  0  0  0  0  0  0  0
  -23.9800  -13.6534   20.4637 C   0  0  0  0  0  0  0  0  0  0  0  0
  -25.1963  -19.7383   20.1287 C   0  0  0  0  0  0  0  0  0  0  0  0
  -31.7453  -26.2308   24.1033 C   0  0  0  0  0  0  0  0  0  0  0  0
  -23.0473  -20.8668   19.9935 C   0  0  0  0  0  0  0  0  0  0  0  0
  -33.7932  -25.0830   24.2074 C   0  0  0  0  0  0  0  0  0  0  0  0
  -35.4112  -22.9871   23.3288 C   0  0  0  0  0  0  0  0  0  0  0  0
  -35.0203  -25.3555   23.6028 C   0  0  0  0  0  0  0  0  0  0  0  0
  -27.8780  -26.5685   22.4217 C   0  0  0  0  0  0  0  0  0  0  0  0
  -19.6071  -27.9654   22.6906 C   0  0  0  0  0  0  0  0  0  0  0  0
  -25.8625  -26.1545   21.6462 C   0  0  0  0  0  0  0  0  0  0  0  0
  -19.4207  -25.7805   22.7319 C   0  0  0  0  0  0  0  0  0  0  0  0
  -27.0613  -24.1307   22.4920 C   0  0  0  0  0  0  0  0  0  0  0  0
  -26.2608  -16.5504   20.7051 C   0  0  0  0  0  0  0  0  0  0  0  0
  -28.8112  -18.5438   20.4952 C   0  0  0  0  0  0  0  0  0  0  0  0
  -20.2156  -23.7993   21.3952 C   0  0  0  0  0  0  0  0  0  0  0  0
  -29.9750  -21.7287   20.1100 C   0  0  0  0  0  0  0  0  0  0  0  0
  -22.2141  -30.3747   21.4900 C   0  0  0  0  0  0  0  0  0  0  0  0
  -25.3890  -11.5380   20.2888 C   0  0  0  0  0  0  0  0  0  0  0  0
  -25.7379  -17.8154   18.5879 C   0  0  0  0  0  0  0  0  0  0  0  0
  -26.5510  -19.6288   20.7777 C   0  0  0  0  0  0  0  0  0  0  0  0
  -26.5869  -12.4112   20.6532 C   0  0  0  0  0  0  0  0  0  0  0  0
  -25.3291  -30.8458   19.8312 C   0  0  0  0  0  0  0  0  0  0  0  0
  -26.1911  -13.4525   21.6952 C   0  0  0  0  0  0  0  0  0  0  0  0
  -26.1946  -29.6936   20.3444 C   0  0  0  0  0  0  0  0  0  0  0  0
  -24.4032  -31.3842   20.9197 C   0  0  0  0  0  0  0  0  0  0  0  0
  -24.4260  -29.2145   22.0882 C   0  0  0  0  0  0  0  0  0  0  0  0
  -25.1072  -14.3917   21.1525 C   0  0  1  0  0  0  0  0  0  0  0  0
  -26.8032  -17.4188   19.6054 C   0  0  1  0  0  0  0  0  0  0  0  0
  -25.3366  -28.6013   21.0107 C   0  0  2  0  0  0  0  0  0  0  0  0
  -32.1069  -23.0494   20.0181 C   0  0  0  0  0  0  0  0  0  0  0  0
  -29.0798  -18.3164   23.5261 C   0  0  0  0  0  0  0  0  0  0  0  0
  -30.5578  -20.3366   23.4768 C   0  0  0  0  0  0  0  0  0  0  0  0
  -31.2471  -18.2595   22.2796 C   0  0  0  0  0  0  0  0  0  0  0  0
  -29.4229  -22.6479   17.3515 C   0  0  0  0  0  0  0  0  0  0  0  0
  -20.1017  -29.2317   22.1150 C   0  0  0  0  0  0  0  0  0  0  0  0
  -20.0644  -22.2835   21.4535 C   0  0  0  0  0  0  0  0  0  0  0  0
  -20.7995  -21.5660   20.3315 C   0  0  0  0  0  0  0  0  0  1  0  0
  -29.3652  -19.6638   21.3423 C   0  0  1  0  0  0  0  0  0  0  0  0
  -31.0544  -22.3049   19.2114 C   0  0  2  0  0  0  0  0  0  0  0  0
  -30.0361  -19.1452   22.6455 C   0  0  0  0  0  0  0  0  0  0  0  0
  -27.4199  -27.7597   22.0276 N   0  0  0  0  0  0  0  0  0  0  0  0
  -19.9569  -26.7819   22.0702 N   0  0  0  0  0  0  0  0  0  0  0  0
  -26.1923  -27.4751   21.5606 N   0  0  0  0  0  0  0  0  0  0  0  0
  -27.4318  -18.5759   20.2458 N   0  0  0  0  0  0  0  0  0  0  0  0
  -23.6165  -30.2985   21.5099 N   0  0  0  0  0  0  0  0  0  0  0  0
  -24.6658  -25.6959   21.2219 N   0  0  0  0  0  0  0  0  0  0  0  0
  -28.2476  -23.6582   23.0698 N   0  0  0  0  0  0  0  0  0  0  0  0
  -19.5232  -24.3987   22.4439 N   0  0  0  0  0  0  0  0  0  0  0  0
  -25.6885  -15.3732   20.2620 N   0  0  0  0  0  0  0  0  0  0  0  0
  -30.2551  -20.4291   20.4759 N   0  0  0  0  0  0  0  0  0  0  0  0
  -21.5451  -29.3010   22.0648 N   0  0  0  0  0  0  0  0  0  0  0  0
  -30.4583  -23.2531   18.2282 N   0  3  0  0  0  0  0  0  0  0  0  0
  -26.1426  -23.3193   22.2257 O   0  0  0  0  0  0  0  0  0  0  0  0
  -26.3558  -16.9202   21.8695 O   0  0  0  0  0  0  0  0  0  0  0  0
  -29.5753  -17.6764   20.0646 O   0  0  0  0  0  0  0  0  0  0  0  0
  -20.8695  -24.3569   20.5201 O   0  0  0  0  0  0  0  0  0  0  0  0
  -28.9845  -22.3688   20.4559 O   0  0  0  0  0  0  0  0  0  0  0  0
  -21.6033  -31.3264   20.9919 O   0  0  0  0  0  0  0  0  0  0  0  0
  -32.9893  -26.1222   24.6449 O   0  0  0  0  0  0  0  0  0  0  0  0
  -22.1974  -21.8344   20.4330 O   0  0  0  0  0  0  0  0  0  1  0  0
  -36.1887  -21.9807   22.9083 F   0  0  0  0  0  0  0  0  0  0  0  0
  -35.4279  -26.6220   23.4423 F   0  0  0  0  0  0  0  0  0  0  0  0
  -18.4831  -26.1897   24.1098 S   0  0  0  0  0  0  0  0  0  0  0  0
  1  2  1  0  0  0  0
  1  5  2  0  0  0  0
  2  6  2  0  0  0  0
  3  8  2  0  0  0  0
  3 16  1  0  0  0  0
  4  9  1  0  0  0  0
  4 16  2  0  0  0  0
  5 18  1  0  0  0  0
  6 20  1  0  0  0  0
  7 10  2  0  0  0  0
  7 19  1  0  0  0  0
  8 22  1  0  0  0  0
  9 22  2  0  0  0  0
 10 23  1  0  0  0  0
 11 12  2  0  0  0  0
 11 24  1  0  0  0  0
 12 25  1  0  0  0  0
 13 21  1  0  0  0  0
 13 23  2  0  0  0  0
 14 25  2  0  0  0  0
 14 26  1  0  0  0  0
 15 28  2  0  0  0  0
 15 82  1  0  0  0  0
 16 27  1  0  0  0  0
 17 27  1  0  0  0  0
 17 29  2  0  0  0  0
 17 31  1  0  0  0  0
 18 20  2  0  0  0  0
 18 37  1  0  0  0  0
 19 21  2  0  0  0  0
 19 38  1  0  0  0  0
 20 46  1  0  0  0  0
 21 39  1  0  0  0  0
 22 78  1  0  0  0  0
 23 79  1  0  0  0  0
 24 26  2  0  0  0  0
 24 78  1  0  0  0  0
 25 80  1  0  0  0  0
 26 81  1  0  0  0  0
 27 60  2  0  0  0  0
 28 54  1  0  0  0  0
 28 61  1  0  0  0  0
 29 62  1  0  0  0  0
 29 65  1  0  0  0  0
 30 61  2  0  0  0  0
 30 67  1  0  0  0  0
 30 82  1  0  0  0  0
 31 66  1  0  0  0  0
 31 72  2  0  0  0  0
 32 47  1  0  0  0  0
 32 68  1  0  0  0  0
 32 73  2  0  0  0  0
 33 57  1  0  0  0  0
 33 63  1  0  0  0  0
 33 74  2  0  0  0  0
 34 55  1  0  0  0  0
 34 67  1  0  0  0  0
 34 75  2  0  0  0  0
 35 58  1  0  0  0  0
 35 69  1  0  0  0  0
 35 76  2  0  0  0  0
 36 64  1  0  0  0  0
 36 70  1  0  0  0  0
 36 77  2  0  0  0  0
 37 40  1  0  0  0  0
 38 47  1  0  0  0  0
 39 63  1  0  0  0  0
 40 42  1  0  0  0  0
 41 43  1  0  0  0  0
 41 44  1  0  0  0  0
 42 46  1  0  0  0  0
 43 48  1  0  0  0  0
 44 64  1  0  0  0  0
 45 48  1  0  0  0  0
 45 64  1  0  0  0  0
 46 68  1  0  0  0  0
 47 63  1  0  0  0  0
 48 62  1  0  0  0  0
 49 58  1  0  0  0  0
 50 59  1  0  0  0  0
 51 59  1  0  0  0  0
 52 59  1  0  0  0  0
 53 71  1  0  0  0  0
 54 70  1  0  0  0  0
 55 56  1  0  0  0  0
 56 79  1  0  0  0  0
 57 59  1  0  0  0  0
 57 69  1  0  0  0  0
 58 71  1  0  0  0  0
 60 62  1  0  0  0  0
M  CHG  1  71   1
M  ISO  4  36 100  56 101  70 100  79 101
M  END
> <Batch ID>
0185

> <Smiles>
CNC(C)C(=O)NC(C(=O)N1Cc2cc([101O:1][101CH2:1]CC(=O)Nc3nc(C[100NH:0][100C:0](=O)N4CCCC(n5nc(-c6ccc(Oc7ccc(F)cc7F)cc6)c(C(N)=O)c5N)C4)cs3)ccc2CC1C(=O)NC1CCCc2ccccc21)C(C)(C)C

> <Shape>
0.190

> <Color>
0.090

> <Negative vol penalty>
0.000

$$$$

  -OEChem-04052305053D

 81 89  0     1  0  0  0  0  0999 V2000
  -36.5154  -29.8374   17.7771 C   0  0  0  0  0  0  0  0  0  0  0  0
  -36.4805  -28.6148   18.4401 C   0  0  0  0  0  0  0  0  0  0  0  0
  -23.1021   -9.8526   19.8659 C   0  0  0  0  0  0  0  0  0  0  0  0
  -23.8976   -9.7462   22.1447 C   0  0  0  0  0  0  0  0  0  0  0  0
  -35.3286  -30.4315   17.3500 C   0  0  0  0  0  0  0  0  0  0  0  0
  -35.2586  -27.9862   18.6773 C   0  0  0  0  0  0  0  0  0  0  0  0
  -35.3861  -23.0334   17.6290 C   0  0  0  0  0  0  0  0  0  0  0  0
  -22.3956   -8.6653   20.0571 C   0  0  0  0  0  0  0  0  0  0  0  0
  -23.1910   -8.5589   22.3359 C   0  0  0  0  0  0  0  0  0  0  0  0
  -35.9896  -22.1990   18.5689 C   0  0  0  0  0  0  0  0  0  0  0  0
  -19.9969   -7.6319   22.9351 C   0  0  0  0  0  0  0  0  0  0  0  0
  -19.2600   -7.5004   24.1121 C   0  0  0  0  0  0  0  0  0  0  0  0
  -33.8144  -21.5875   19.4137 C   0  0  0  0  0  0  0  0  0  0  0  0
  -20.5678   -5.5602   24.7141 C   0  0  0  0  0  0  0  0  0  0  0  0
  -29.7032  -17.8114   23.0160 C   0  0  0  0  0  0  0  0  0  0  0  0
  -23.8532  -10.3931   20.9097 C   0  0  0  0  0  0  0  0  0  0  0  0
  -24.1207  -12.9299   20.9357 C   0  0  0  0  0  0  0  0  0  0  0  0
  -34.0923  -29.8052   17.5735 C   0  0  0  0  0  0  0  0  0  0  0  0
  -33.9903  -23.1597   17.5815 C   0  0  0  0  0  0  0  0  0  0  0  0
  -34.0541  -28.5732   18.2539 C   0  0  0  0  0  0  0  0  0  0  0  0
  -33.1956  -22.4222   18.4707 C   0  0  0  0  0  0  0  0  0  0  0  0
  -22.4400   -8.0184   21.2921 C   0  0  0  0  0  0  0  0  0  0  0  0
  -35.2039  -21.4781   19.4633 C   0  0  0  0  0  0  0  0  0  0  0  0
  -21.0192   -6.7275   22.6476 C   0  0  0  0  0  0  0  0  0  0  0  0
  -19.5454   -6.4646   25.0016 C   0  0  0  0  0  0  0  0  0  0  0  0
  -21.3047   -5.6917   23.5371 C   0  0  0  0  0  0  0  0  0  0  0  0
  -24.5837  -11.6193   20.7126 C   0  0  0  0  0  0  0  0  0  0  0  0
  -30.4240  -17.0236   22.1430 C   0  0  0  0  0  0  0  0  0  0  0  0
  -25.1851  -13.7314   20.6024 C   0  0  0  0  0  0  0  0  0  0  0  0
  -31.8524  -18.6744   22.3536 C   0  0  0  0  0  0  0  0  0  0  0  0
  -22.8428  -13.3823   21.4024 C   0  0  0  0  0  0  0  0  0  0  0  0
  -31.9398  -25.5549   17.9838 C   0  0  0  0  0  0  0  0  0  0  0  0
  -29.7669  -23.3373   17.0441 C   0  0  0  0  0  0  0  0  0  0  0  0
  -28.9352  -20.0410   16.7454 C   0  0  0  0  0  0  0  0  0  0  0  0
  -34.1267  -19.3155   21.4843 C   0  0  0  0  0  0  0  0  0  0  0  0
  -30.6212  -14.9258   20.7622 C   0  0  0  0  0  0  0  0  0  0  0  0
  -32.8324  -30.5088   17.1351 C   0  0  0  0  0  0  0  0  0  0  0  0
  -33.3537  -24.0435   16.5442 C   0  0  0  0  0  0  0  0  0  0  0  0
  -31.6920  -22.5070   18.4476 C   0  0  0  0  0  0  0  0  0  0  0  0
  -31.6086  -29.5972   17.0939 C   0  0  0  0  0  0  0  0  0  0  0  0
  -29.5391  -12.6243   18.2703 C   0  0  0  0  0  0  0  0  0  0  0  0
  -31.5245  -28.7587   18.3653 C   0  0  0  0  0  0  0  0  0  0  0  0
  -28.1154  -12.2655   18.7019 C   0  0  0  0  0  0  0  0  0  0  0  0
  -30.4661  -12.8086   19.4705 C   0  0  0  0  0  0  0  0  0  0  0  0
  -28.5612  -13.3935   20.9191 C   0  0  0  0  0  0  0  0  0  0  0  0
  -32.7502  -27.8483   18.5079 C   0  0  1  0  0  0  0  0  0  0  0  0
  -31.9452  -24.4906   16.9232 C   0  0  1  0  0  0  0  0  0  0  0  0
  -27.5753  -13.2616   19.7468 C   0  0  2  0  0  0  0  0  0  0  0  0
  -27.0773  -18.5401   15.9753 C   0  0  0  0  0  0  0  0  0  0  0  0
  -36.1191  -20.2356   22.7265 C   0  0  0  0  0  0  0  0  0  0  0  0
  -28.1976  -23.9827   19.5800 C   0  0  0  0  0  0  0  0  0  0  0  0
  -26.9194  -21.8558   19.2468 C   0  0  0  0  0  0  0  0  0  0  0  0
  -26.7923  -23.6665   17.5356 C   0  0  0  0  0  0  0  0  0  0  0  0
  -30.6506  -18.7788   14.6904 C   0  0  0  0  0  0  0  0  0  0  0  0
  -28.9149  -22.3096   17.7490 C   0  0  1  0  0  0  0  0  0  0  0  0
  -28.3655  -19.2471   15.5836 C   0  0  2  0  0  0  0  0  0  0  0  0
  -35.1041  -20.4802   21.6197 C   0  0  1  0  0  0  0  0  0  1  0  0
  -27.7344  -22.9533   18.5298 C   0  0  0  0  0  0  0  0  0  0  0  0
  -25.8440  -11.5857   20.2716 N   0  0  0  0  0  0  0  0  0  0  0  0
  -31.6564  -17.5170   21.7618 N   0  0  0  0  0  0  0  0  0  0  0  0
  -26.1820  -12.8852   20.2148 N   0  0  0  0  0  0  0  0  0  0  0  0
  -31.1169  -23.3895   17.4191 N   0  0  0  0  0  0  0  0  0  0  0  0
  -29.8918  -13.7688   20.4154 N   0  0  0  0  0  0  0  0  0  0  0  0
  -25.3562  -15.0705   20.6060 N   0  0  0  0  0  0  0  0  0  0  0  0
  -21.8627  -12.4253   21.6991 N   0  0  0  0  0  0  0  0  0  0  0  0
  -29.9606  -15.7813   21.6433 N   0  0  0  0  0  0  0  0  0  0  0  0
  -32.9798  -19.5228   22.2437 N   0  0  0  0  0  0  0  0  0  0  0  0
  -32.6308  -26.6998   17.6355 N   0  0  0  0  0  0  0  0  0  0  0  0
  -28.5044  -21.3507   16.7290 N   0  0  0  0  0  0  0  0  0  0  0  0
  -29.3451  -18.2207   15.1278 N   0  3  0  0  0  0  0  0  0  0  0  0
  -22.5724  -14.5999   21.5364 O   0  0  0  0  0  0  0  0  0  0  0  0
  -31.3509  -25.3531   19.0394 O   0  0  0  0  0  0  0  0  0  0  0  0
  -29.2552  -24.0620   16.1870 O   0  0  0  0  0  0  0  0  0  0  0  0
  -29.6842  -19.5476   17.5857 O   0  0  0  0  0  0  0  0  0  0  0  0
  -34.3783  -18.3540   20.7636 O   0  0  0  0  0  0  0  0  0  0  0  0
  -31.7375  -15.1551   20.2897 O   0  0  0  0  0  0  0  0  0  0  0  0
  -21.7504   -6.8599   21.4791 O   0  0  0  0  0  0  0  0  0  0  0  0
  -35.7904  -20.6634   20.3821 O   0  0  0  0  0  0  0  0  0  1  0  0
  -18.8387   -6.3394   26.1325 F   0  0  0  0  0  0  0  0  0  0  0  0
  -22.2864   -4.8205   23.2669 F   0  0  0  0  0  0  0  0  0  0  0  0
  -30.5960  -19.2291   23.3826 S   0  0  0  0  0  0  0  0  0  0  0  0
  1  2  1  0  0  0  0
  1  5  2  0  0  0  0
  2  6  2  0  0  0  0
  3  8  2  0  0  0  0
  3 16  1  0  0  0  0
  4  9  1  0  0  0  0
  4 16  2  0  0  0  0
  5 18  1  0  0  0  0
  6 20  1  0  0  0  0
  7 10  2  0  0  0  0
  7 19  1  0  0  0  0
  8 22  1  0  0  0  0
  9 22  2  0  0  0  0
 10 23  1  0  0  0  0
 11 12  2  0  0  0  0
 11 24  1  0  0  0  0
 12 25  1  0  0  0  0
 13 21  1  0  0  0  0
 13 23  2  0  0  0  0
 14 25  2  0  0  0  0
 14 26  1  0  0  0  0
 15 28  2  0  0  0  0
 15 81  1  0  0  0  0
 16 27  1  0  0  0  0
 17 27  1  0  0  0  0
 17 29  2  0  0  0  0
 17 31  1  0  0  0  0
 18 20  2  0  0  0  0
 18 37  1  0  0  0  0
 19 21  2  0  0  0  0
 19 38  1  0  0  0  0
 20 46  1  0  0  0  0
 21 39  1  0  0  0  0
 22 77  1  0  0  0  0
 23 78  1  0  0  0  0
 24 26  2  0  0  0  0
 24 77  1  0  0  0  0
 25 79  1  0  0  0  0
 26 80  1  0  0  0  0
 27 59  2  0  0  0  0
 28 60  1  0  0  0  0
 28 66  1  0  0  0  0
 29 61  1  0  0  0  0
 29 64  1  0  0  0  0
 30 60  2  0  0  0  0
 30 67  1  0  0  0  0
 30 81  1  0  0  0  0
 31 65  1  0  0  0  0
 31 71  2  0  0  0  0
 32 47  1  0  0  0  0
 32 68  1  0  0  0  0
 32 72  2  0  0  0  0
 33 55  1  0  0  0  0
 33 62  1  0  0  0  0
 33 73  2  0  0  0  0
 34 56  1  0  0  0  0
 34 69  1  0  0  0  0
 34 74  2  0  0  0  0
 35 57  1  0  0  0  0
 35 67  1  0  0  0  0
 35 75  2  0  0  0  0
 36 63  1  0  0  0  0
 36 66  1  0  0  0  0
 36 76  2  0  0  0  0
 37 40  1  0  0  0  0
 38 47  1  0  0  0  0
 39 62  1  0  0  0  0
 40 42  1  0  0  0  0
 41 43  1  0  0  0  0
 41 44  1  0  0  0  0
 42 46  1  0  0  0  0
 43 48  1  0  0  0  0
 44 63  1  0  0  0  0
 45 48  1  0  0  0  0
 45 63  1  0  0  0  0
 46 68  1  0  0  0  0
 47 62  1  0  0  0  0
 48 61  1  0  0  0  0
 49 56  1  0  0  0  0
 50 57  1  0  0  0  0
 51 58  1  0  0  0  0
 52 58  1  0  0  0  0
 53 58  1  0  0  0  0
 54 70  1  0  0  0  0
 55 58  1  0  0  0  0
 55 69  1  0  0  0  0
 56 70  1  0  0  0  0
 57 78  1  0  0  0  0
 59 61  1  0  0  0  0
M  CHG  1  70   1
M  ISO  4  36 100  57 101  66 100  78 101
M  END
> <Batch ID>
0185

> <Smiles>
CNC(C)C(=O)NC(C(=O)N1Cc2cc([101O:1][101CH:1](C)C(=O)Nc3nc([100NH:0][100C:0](=O)N4CCCC(n5nc(-c6ccc(Oc7ccc(F)cc7F)cc6)c(C(N)=O)c5N)C4)cs3)ccc2CC1C(=O)NC1CCCc2ccccc21)C(C)(C)C

> <Shape>
0.216

> <Color>
0.194

> <Negative vol penalty>
0.000

$$$$

  -OEChem-04052305053D

 84 92  0     1  0  0  0  0  0999 V2000
  -26.9595  -37.9699   20.4139 C   0  0  0  0  0  0  0  0  0  0  0  0
  -27.5175  -36.7364   20.0933 C   0  0  0  0  0  0  0  0  0  0  0  0
  -26.6132  -11.4969   19.2374 C   0  0  0  0  0  0  0  0  0  0  0  0
  -26.9254  -12.6463   17.1354 C   0  0  0  0  0  0  0  0  0  0  0  0
  -26.0811  -38.0775   21.4913 C   0  0  0  0  0  0  0  0  0  0  0  0
  -27.1982  -35.6100   20.8508 C   0  0  0  0  0  0  0  0  0  0  0  0
  -26.6177  -29.8581   18.8297 C   0  0  0  0  0  0  0  0  0  0  0  0
  -25.5465  -10.7845   18.6895 C   0  0  0  0  0  0  0  0  0  0  0  0
  -25.8587  -11.9339   16.5874 C   0  0  0  0  0  0  0  0  0  0  0  0
  -27.4870  -28.7681   18.8399 C   0  0  0  0  0  0  0  0  0  0  0  0
  -25.1148   -8.1198   16.6534 C   0  0  0  0  0  0  0  0  0  0  0  0
  -25.0586   -6.7475   16.8967 C   0  0  0  0  0  0  0  0  0  0  0  0
  -26.4502  -27.9680   20.8658 C   0  0  0  0  0  0  0  0  0  0  0  0
  -22.9162   -7.0269   17.9780 C   0  0  0  0  0  0  0  0  0  0  0  0
  -29.5820  -20.4834   16.9090 C   0  0  0  0  0  0  0  0  0  0  0  0
  -27.3026  -12.4279   18.4604 C   0  0  0  0  0  0  0  0  0  0  0  0
  -29.7628  -12.7956   19.0258 C   0  0  0  0  0  0  0  0  0  0  0  0
  -25.7434  -36.9500   22.2563 C   0  0  0  0  0  0  0  0  0  0  0  0
  -25.6638  -30.0173   19.8451 C   0  0  0  0  0  0  0  0  0  0  0  0
  -26.3155  -35.7029   21.9402 C   0  0  0  0  0  0  0  0  0  0  0  0
  -25.5684  -29.0596   20.8648 C   0  0  0  0  0  0  0  0  0  0  0  0
  -25.1692  -11.0030   17.3645 C   0  0  0  0  0  0  0  0  0  0  0  0
  -27.4052  -27.8244   19.8596 C   0  0  0  0  0  0  0  0  0  0  0  0
  -24.0717   -8.9457   17.0724 C   0  0  0  0  0  0  0  0  0  0  0  0
  -23.9594   -6.2010   17.5590 C   0  0  0  0  0  0  0  0  0  0  0  0
  -22.9724   -8.3992   17.7347 C   0  0  0  0  0  0  0  0  0  0  0  0
  -28.4042  -13.1645   19.0260 C   0  0  0  0  0  0  0  0  0  0  0  0
  -29.5044  -20.6897   18.2687 C   0  0  0  0  0  0  0  0  0  0  0  0
  -30.0965  -22.6905   16.6033 C   0  0  0  0  0  0  0  0  0  0  0  0
  -30.0183  -22.8971   17.9630 C   0  0  0  0  0  0  0  0  0  0  0  0
  -30.3975  -13.8227   19.6807 C   0  0  0  0  0  0  0  0  0  0  0  0
  -30.3946  -11.6290   18.4823 C   0  0  0  0  0  0  0  0  0  0  0  0
  -25.1048  -32.2144   22.0731 C   0  0  0  0  0  0  0  0  0  0  0  0
  -22.4564  -30.4232   22.6210 C   0  0  0  0  0  0  0  0  0  0  0  0
  -20.9151  -27.3867   22.3965 C   0  0  0  0  0  0  0  0  0  0  0  0
  -30.2258  -24.5718   19.8310 C   0  0  0  0  0  0  0  0  0  0  0  0
  -29.0620  -19.5901   20.4917 C   0  0  0  0  0  0  0  0  0  0  0  0
  -24.8261  -37.1246   23.4408 C   0  0  0  0  0  0  0  0  0  0  0  0
  -24.7158  -31.1844   19.8051 C   0  0  0  0  0  0  0  0  0  0  0  0
  -24.5484  -29.1738   21.9671 C   0  0  0  0  0  0  0  0  0  0  0  0
  -24.2479  -35.8115   23.9622 C   0  0  0  0  0  0  0  0  0  0  0  0
  -29.6428  -17.1616   23.0298 C   0  0  0  0  0  0  0  0  0  0  0  0
  -25.3439  -34.7579   24.0870 C   0  0  0  0  0  0  0  0  0  0  0  0
  -29.5207  -15.8275   22.2898 C   0  0  0  0  0  0  0  0  0  0  0  0
  -28.6467  -18.1943   22.5052 C   0  0  0  0  0  0  0  0  0  0  0  0
  -28.5591  -17.0740   20.3128 C   0  0  0  0  0  0  0  0  0  0  0  0
  -25.9743  -34.4533   22.7227 C   0  0  1  0  0  0  0  0  0  0  0  0
  -24.1241  -31.5207   21.1705 C   0  0  1  0  0  0  0  0  0  0  0  0
  -29.5865  -16.0223   20.7623 C   0  0  2  0  0  0  0  0  0  0  0  0
  -18.7659  -26.2217   22.9633 C   0  0  0  0  0  0  0  0  0  0  0  0
  -23.2992  -30.2990   25.5509 C   0  0  0  0  0  0  0  0  0  0  0  0
  -21.7023  -28.3953   25.8573 C   0  0  0  0  0  0  0  0  0  0  0  0
  -20.8491  -30.6406   25.1837 C   0  0  0  0  0  0  0  0  0  0  0  0
  -20.3621  -26.7750   19.5542 C   0  0  0  0  0  0  0  0  0  0  0  0
  -29.5445  -26.9513   19.2966 C   0  0  0  0  0  0  0  0  0  1  0  0
  -22.1265  -29.2456   23.5061 C   0  0  1  0  0  0  0  0  0  0  0  0
  -19.5356  -26.9914   21.9013 C   0  0  2  0  0  0  0  0  0  0  0  0
  -30.5616  -26.0537   19.9934 C   0  0  1  0  0  0  0  0  0  0  0  0
  -22.0149  -29.6437   25.0049 C   0  0  0  0  0  0  0  0  0  0  0  0
  -29.8795  -21.4800   16.0519 N   0  0  0  0  0  0  0  0  0  0  0  0
  -28.1876  -14.3344   19.6330 N   0  0  0  0  0  0  0  0  0  0  0  0
  -29.7211  -21.9004   18.8201 N   0  0  0  0  0  0  0  0  0  0  0  0
  -29.4186  -14.7095   20.0204 N   0  0  0  0  0  0  0  0  0  0  0  0
  -23.6481  -30.3359   21.8875 N   0  0  0  0  0  0  0  0  0  0  0  0
  -28.7696  -18.3287   21.0520 N   0  0  0  0  0  0  0  0  0  0  0  0
  -30.4130  -23.7709   15.7484 N   0  0  0  0  0  0  0  0  0  0  0  0
  -31.6919  -14.0446   19.9935 N   0  0  0  0  0  0  0  0  0  0  0  0
  -29.5946  -10.6731   17.8416 N   0  0  0  0  0  0  0  0  0  0  0  0
  -30.2554  -24.1869   18.4949 N   0  0  0  0  0  0  0  0  0  0  0  0
  -29.1873  -19.5891   19.1028 N   0  0  0  0  0  0  0  0  0  0  0  0
  -25.1090  -33.5905   21.9474 N   0  0  0  0  0  0  0  0  0  0  0  0
  -20.9154  -28.6474   22.9549 N   0  0  0  0  0  0  0  0  0  0  0  0
  -19.6471  -26.1338   20.6876 N   0  3  0  0  0  0  0  0  0  0  0  0
  -31.6299  -11.4320   18.5767 O   0  0  0  0  0  0  0  0  0  0  0  0
  -25.8047  -31.5505   22.8288 O   0  0  0  0  0  0  0  0  0  0  0  0
  -21.6816  -31.3821   22.5764 O   0  0  0  0  0  0  0  0  0  0  0  0
  -21.8937  -26.6492   22.3012 O   0  0  0  0  0  0  0  0  0  0  0  0
  -29.9877  -23.8632   20.8048 O   0  0  0  0  0  0  0  0  0  0  0  0
  -29.2185  -20.5919   21.1945 O   0  0  0  0  0  0  0  0  0  0  0  0
  -30.5912  -26.3856   21.3723 O   0  0  0  0  0  0  0  0  0  0  0  0
  -24.1286  -10.3078   16.8294 O   0  0  0  0  0  0  0  0  0  0  0  0
  -28.2529  -26.7599   19.8723 O   0  0  0  0  0  0  0  0  0  1  0  0
  -23.9049   -4.8830   17.7912 F   0  0  0  0  0  0  0  0  0  0  0  0
  -21.9668   -9.1874   18.1386 F   0  0  0  0  0  0  0  0  0  0  0  0
  1  2  1  0  0  0  0
  1  5  2  0  0  0  0
  2  6  2  0  0  0  0
  3  8  2  0  0  0  0
  3 16  1  0  0  0  0
  4  9  1  0  0  0  0
  4 16  2  0  0  0  0
  5 18  1  0  0  0  0
  6 20  1  0  0  0  0
  7 10  2  0  0  0  0
  7 19  1  0  0  0  0
  8 22  1  0  0  0  0
  9 22  2  0  0  0  0
 10 23  1  0  0  0  0
 11 12  2  0  0  0  0
 11 24  1  0  0  0  0
 12 25  1  0  0  0  0
 13 21  1  0  0  0  0
 13 23  2  0  0  0  0
 14 25  2  0  0  0  0
 14 26  1  0  0  0  0
 15 28  1  0  0  0  0
 15 60  2  0  0  0  0
 16 27  1  0  0  0  0
 17 27  1  0  0  0  0
 17 31  2  0  0  0  0
 17 32  1  0  0  0  0
 18 20  2  0  0  0  0
 18 38  1  0  0  0  0
 19 21  2  0  0  0  0
 19 39  1  0  0  0  0
 20 47  1  0  0  0  0
 21 40  1  0  0  0  0
 22 81  1  0  0  0  0
 23 82  1  0  0  0  0
 24 26  2  0  0  0  0
 24 81  1  0  0  0  0
 25 83  1  0  0  0  0
 26 84  1  0  0  0  0
 27 61  2  0  0  0  0
 28 62  2  0  0  0  0
 28 70  1  0  0  0  0
 29 30  2  0  0  0  0
 29 60  1  0  0  0  0
 29 66  1  0  0  0  0
 30 62  1  0  0  0  0
 30 69  1  0  0  0  0
 31 63  1  0  0  0  0
 31 67  1  0  0  0  0
 32 68  1  0  0  0  0
 32 74  2  0  0  0  0
 33 48  1  0  0  0  0
 33 71  1  0  0  0  0
 33 75  2  0  0  0  0
 34 56  1  0  0  0  0
 34 64  1  0  0  0  0
 34 76  2  0  0  0  0
 35 57  1  0  0  0  0
 35 72  1  0  0  0  0
 35 77  2  0  0  0  0
 36 58  1  0  0  0  0
 36 69  1  0  0  0  0
 36 78  2  0  0  0  0
 37 65  1  0  0  0  0
 37 70  1  0  0  0  0
 37 79  2  0  0  0  0
 38 41  1  0  0  0  0
 39 48  1  0  0  0  0
 40 64  1  0  0  0  0
 41 43  1  0  0  0  0
 42 44  1  0  0  0  0
 42 45  1  0  0  0  0
 43 47  1  0  0  0  0
 44 49  1  0  0  0  0
 45 65  1  0  0  0  0
 46 49  1  0  0  0  0
 46 65  1  0  0  0  0
 47 71  1  0  0  0  0
 48 64  1  0  0  0  0
 49 63  1  0  0  0  0
 50 57  1  0  0  0  0
 51 59  1  0  0  0  0
 52 59  1  0  0  0  0
 53 59  1  0  0  0  0
 54 73  1  0  0  0  0
 55 58  1  0  0  0  0
 55 82  1  0  0  0  0
 56 59  1  0  0  0  0
 56 72  1  0  0  0  0
 57 73  1  0  0  0  0
 58 80  1  0  0  0  0
 61 63  1  0  0  0  0
M  CHG  1  73   1
M  ISO  4  37 100  55 101  70 100  82 101
M  END
> <Batch ID>
0185

> <Smiles>
CNC(C)C(=O)NC(C(=O)N1Cc2cc([101O:1][101CH2:1]C(O)C(=O)Nc3nc([100NH:0][100C:0](=O)N4CCCC(n5nc(-c6ccc(Oc7ccc(F)cc7F)cc6)c(C(N)=O)c5N)C4)cnc3N)ccc2CC1C(=O)NC1CCCc2ccccc21)C(C)(C)C

> <Shape>
0.310

> <Color>
0.073

> <Negative vol penalty>
0.000

$$$$
