
  -OEChem-04052305093D

 83 91  0     1  0  0  0  0  0999 V2000
  -30.5899  -22.3114   25.2713 C   0  0  0  0  0  0  0  0  0  0  0  0
  -30.5289  -22.2087   23.8853 C   0  0  0  0  0  0  0  0  0  0  0  0
  -23.0573   -9.8421   20.0209 C   0  0  0  0  0  0  0  0  0  0  0  0
  -23.7121  -10.0226   22.3395 C   0  0  0  0  0  0  0  0  0  0  0  0
  -30.0096  -23.4039   25.9144 C   0  0  0  0  0  0  0  0  0  0  0  0
  -29.8866  -23.1980   23.1415 C   0  0  0  0  0  0  0  0  0  0  0  0
  -32.5392  -24.5885   19.0580 C   0  0  0  0  0  0  0  0  0  0  0  0
  -22.3066   -8.7056   20.3215 C   0  0  0  0  0  0  0  0  0  0  0  0
  -22.9613   -8.8861   22.6400 C   0  0  0  0  0  0  0  0  0  0  0  0
  -32.4973  -23.7402   17.9523 C   0  0  0  0  0  0  0  0  0  0  0  0
  -23.2879   -5.5341   22.3429 C   0  0  0  0  0  0  0  0  0  0  0  0
  -23.8734   -4.5684   23.1615 C   0  0  0  0  0  0  0  0  0  0  0  0
  -30.8577  -25.1771   16.9197 C   0  0  0  0  0  0  0  0  0  0  0  0
  -22.0956   -4.8559   24.7721 C   0  0  0  0  0  0  0  0  0  0  0  0
  -23.7602  -10.5006   21.0300 C   0  0  0  0  0  0  0  0  0  0  0  0
  -24.0990  -13.0122   20.7396 C   0  0  0  0  0  0  0  0  0  0  0  0
  -29.3682  -24.4120   25.1775 C   0  0  0  0  0  0  0  0  0  0  0  0
  -31.7312  -25.7335   19.1076 C   0  0  0  0  0  0  0  0  0  0  0  0
  -29.2960  -24.3043   23.7755 C   0  0  0  0  0  0  0  0  0  0  0  0
  -30.8931  -26.0396   18.0260 C   0  0  0  0  0  0  0  0  0  0  0  0
  -22.2585   -8.2276   21.6310 C   0  0  0  0  0  0  0  0  0  0  0  0
  -31.6543  -24.0329   16.8842 C   0  0  0  0  0  0  0  0  0  0  0  0
  -22.1063   -6.1608   22.7389 C   0  0  0  0  0  0  0  0  0  0  0  0
  -23.2773   -4.2293   24.3761 C   0  0  0  0  0  0  0  0  0  0  0  0
  -21.5101   -5.8217   23.9535 C   0  0  0  0  0  0  0  0  0  0  0  0
  -24.5364  -11.6743   20.7201 C   0  0  0  0  0  0  0  0  0  0  0  0
  -29.4269  -18.8350   20.4155 C   0  0  0  0  0  0  0  0  0  0  0  0
  -30.5197  -18.0649   20.7543 C   0  0  0  0  0  0  0  0  0  0  0  0
  -25.2041  -13.7401   20.3717 C   0  0  0  0  0  0  0  0  0  0  0  0
  -30.8422  -19.5964   18.9232 C   0  0  0  0  0  0  0  0  0  0  0  0
  -22.8091  -13.5491   21.0616 C   0  0  0  0  0  0  0  0  0  0  0  0
  -29.3901  -26.7464   21.0042 C   0  0  0  0  0  0  0  0  0  0  0  0
  -29.6507  -29.4503   19.2311 C   0  0  0  0  0  0  0  0  0  0  0  0
  -30.5995  -30.9097   16.2957 C   0  0  0  0  0  0  0  0  0  0  0  0
  -30.8768  -21.2836   17.0548 C   0  0  0  0  0  0  0  0  0  0  0  0
  -30.6704  -14.8061   20.7315 C   0  0  0  0  0  0  0  0  0  0  0  0
  -28.7144  -25.5501   25.9204 C   0  0  0  0  0  0  0  0  0  0  0  0
  -31.8078  -26.6526   20.2958 C   0  0  0  0  0  0  0  0  0  0  0  0
  -30.0208  -27.2674   18.0213 C   0  0  0  0  0  0  0  0  0  0  0  0
  -28.3791  -26.7449   25.0315 C   0  0  0  0  0  0  0  0  0  0  0  0
  -29.6501  -12.2452   18.4782 C   0  0  0  0  0  0  0  0  0  0  0  0
  -27.7024  -26.2805   23.7458 C   0  0  0  0  0  0  0  0  0  0  0  0
  -28.1954  -11.9747   18.8664 C   0  0  0  0  0  0  0  0  0  0  0  0
  -30.5110  -12.5597   19.6997 C   0  0  0  0  0  0  0  0  0  0  0  0
  -28.5458  -13.3783   20.9414 C   0  0  0  0  0  0  0  0  0  0  0  0
  -28.6297  -25.3697   22.9322 C   0  0  1  0  0  0  0  0  0  0  0  0
  -30.5618  -27.5166   20.4642 C   0  0  1  0  0  0  0  0  0  0  0  0
  -27.6268  -13.1112   19.7371 C   0  0  2  0  0  0  0  0  0  0  0  0
  -28.1023  -18.7999   21.0684 C   0  0  0  0  0  0  0  0  0  0  0  0
  -30.6535  -33.1295   15.1266 C   0  0  0  0  0  0  0  0  0  0  0  0
  -31.7923  -21.0690   14.7149 C   0  0  0  0  0  0  0  0  0  0  0  0
  -26.6544  -29.2382   18.6953 C   0  0  0  0  0  0  0  0  0  0  0  0
  -26.9466  -30.8633   16.8133 C   0  0  0  0  0  0  0  0  0  0  0  0
  -27.4711  -31.5576   19.1512 C   0  0  0  0  0  0  0  0  0  0  0  0
  -33.5509  -30.8564   16.0827 C   0  0  0  0  0  0  0  0  0  0  0  0
  -30.6730  -17.0422   21.8082 C   0  0  0  0  0  0  0  0  0  0  0  0
  -29.0214  -29.9575   17.9561 C   0  0  1  0  0  0  0  0  0  0  0  0
  -31.4186  -32.1551   16.0086 C   0  0  2  0  0  0  0  0  0  0  0  0
  -31.8754  -21.8229   16.0339 C   0  0  1  0  0  0  0  0  0  1  0  0
  -27.5383  -30.3799   18.1546 C   0  0  0  0  0  0  0  0  0  0  0  0
  -25.8192  -11.5562   20.3675 N   0  0  0  0  0  0  0  0  0  0  0  0
  -29.6101  -19.7140   19.3660 N   0  0  0  0  0  0  0  0  0  0  0  0
  -26.1975  -12.8293   20.1620 N   0  0  0  0  0  0  0  0  0  0  0  0
  -30.1265  -28.1316   19.2086 N   0  0  0  0  0  0  0  0  0  0  0  0
  -29.9174  -13.6470   20.4817 N   0  0  0  0  0  0  0  0  0  0  0  0
  -25.4134  -15.0640   20.2102 N   0  0  0  0  0  0  0  0  0  0  0  0
  -21.7859  -12.6606   21.4190 N   0  0  0  0  0  0  0  0  0  0  0  0
  -31.4511  -20.3064   17.8611 N   0  0  0  0  0  0  0  0  0  0  0  0
  -29.6226  -26.1556   22.2315 N   0  0  0  0  0  0  0  0  0  0  0  0
  -29.8873  -31.0265   17.4706 N   0  0  0  0  0  0  0  0  0  0  0  0
  -30.0306  -15.7904   21.4749 N   0  0  0  0  0  0  0  0  0  0  0  0
  -32.6879  -31.7923   15.3170 N   0  3  0  0  0  0  0  0  0  0  0  0
  -22.5666  -14.7791   21.0173 O   0  0  0  0  0  0  0  0  0  0  0  0
  -28.3515  -26.6934   20.3560 O   0  0  0  0  0  0  0  0  0  0  0  0
  -29.7242  -30.1990   20.2087 O   0  0  0  0  0  0  0  0  0  0  0  0
  -30.5894  -29.9326   15.5503 O   0  0  0  0  0  0  0  0  0  0  0  0
  -29.7293  -21.7162   17.1125 O   0  0  0  0  0  0  0  0  0  0  0  0
  -31.8252  -14.9552   20.3179 O   0  0  0  0  0  0  0  0  0  0  0  0
  -21.5258   -7.1188   21.9246 O   0  0  0  0  0  0  0  0  0  0  0  0
  -31.6110  -23.2063   15.8041 O   0  0  0  0  0  0  0  0  0  1  0  0
  -23.8388   -3.3008   25.1615 F   0  0  0  0  0  0  0  0  0  0  0  0
  -20.3743   -6.4194   24.3387 F   0  0  0  0  0  0  0  0  0  0  0  0
  -31.8351  -18.4472   19.7223 S   0  0  0  0  0  0  0  0  0  0  0  0
  1  2  1  0  0  0  0
  1  5  2  0  0  0  0
  2  6  2  0  0  0  0
  3  8  2  0  0  0  0
  3 15  1  0  0  0  0
  4  9  1  0  0  0  0
  4 15  2  0  0  0  0
  5 17  1  0  0  0  0
  6 19  1  0  0  0  0
  7 10  2  0  0  0  0
  7 18  1  0  0  0  0
  8 21  1  0  0  0  0
  9 21  2  0  0  0  0
 10 22  1  0  0  0  0
 11 12  2  0  0  0  0
 11 23  1  0  0  0  0
 12 24  1  0  0  0  0
 13 20  1  0  0  0  0
 13 22  2  0  0  0  0
 14 24  2  0  0  0  0
 14 25  1  0  0  0  0
 15 26  1  0  0  0  0
 16 26  1  0  0  0  0
 16 29  2  0  0  0  0
 16 31  1  0  0  0  0
 17 19  2  0  0  0  0
 17 37  1  0  0  0  0
 18 20  2  0  0  0  0
 18 38  1  0  0  0  0
 19 46  1  0  0  0  0
 20 39  1  0  0  0  0
 21 79  1  0  0  0  0
 22 80  1  0  0  0  0
 23 25  2  0  0  0  0
 23 79  1  0  0  0  0
 24 81  1  0  0  0  0
 25 82  1  0  0  0  0
 26 61  2  0  0  0  0
 27 28  2  0  0  0  0
 27 49  1  0  0  0  0
 27 62  1  0  0  0  0
 28 56  1  0  0  0  0
 28 83  1  0  0  0  0
 29 63  1  0  0  0  0
 29 66  1  0  0  0  0
 30 62  2  0  0  0  0
 30 68  1  0  0  0  0
 30 83  1  0  0  0  0
 31 67  1  0  0  0  0
 31 73  2  0  0  0  0
 32 47  1  0  0  0  0
 32 69  1  0  0  0  0
 32 74  2  0  0  0  0
 33 57  1  0  0  0  0
 33 64  1  0  0  0  0
 33 75  2  0  0  0  0
 34 58  1  0  0  0  0
 34 70  1  0  0  0  0
 34 76  2  0  0  0  0
 35 59  1  0  0  0  0
 35 68  1  0  0  0  0
 35 77  2  0  0  0  0
 36 65  1  0  0  0  0
 36 71  1  0  0  0  0
 36 78  2  0  0  0  0
 37 40  1  0  0  0  0
 38 47  1  0  0  0  0
 39 64  1  0  0  0  0
 40 42  1  0  0  0  0
 41 43  1  0  0  0  0
 41 44  1  0  0  0  0
 42 46  1  0  0  0  0
 43 48  1  0  0  0  0
 44 65  1  0  0  0  0
 45 48  1  0  0  0  0
 45 65  1  0  0  0  0
 46 69  1  0  0  0  0
 47 64  1  0  0  0  0
 48 63  1  0  0  0  0
 50 58  1  0  0  0  0
 51 59  1  0  0  0  0
 52 60  1  0  0  0  0
 53 60  1  0  0  0  0
 54 60  1  0  0  0  0
 55 72  1  0  0  0  0
 56 71  1  0  0  0  0
 57 60  1  0  0  0  0
 57 70  1  0  0  0  0
 58 72  1  0  0  0  0
 59 80  1  0  0  0  0
 61 63  1  0  0  0  0
M  CHG  1  72   1
M  ISO  4  36 100  59 101  71 100  80 101
M  END
> <Batch ID>
0186

> <Smiles>
CNC(C)C(=O)NC(C(=O)N1Cc2cc([101O:1][101CH:1](C)C(=O)Nc3nc(C)c(C[100NH:0][100C:0](=O)N4CCCC(n5nc(-c6ccc(Oc7ccc(F)cc7F)cc6)c(C(N)=O)c5N)C4)s3)ccc2CC1C(=O)NC1CCCc2ccccc21)C(C)(C)C

> <Shape>
0.256

> <Color>
0.223

> <Negative vol penalty>
0.000

$$$$

  -OEChem-04052305092D

  0  0  0     0  0  0  0  0  0999 V2000
M  END
$$$$

  -OEChem-04052305093D

 83 91  0     1  0  0  0  0  0999 V2000
  -29.2859  -36.7960   24.4238 C   0  0  0  0  0  0  0  0  0  0  0  0
  -29.1936  -35.4131   24.5440 C   0  0  0  0  0  0  0  0  0  0  0  0
  -24.5868   -9.4650   21.2782 C   0  0  0  0  0  0  0  0  0  0  0  0
  -24.9594  -10.4808   23.4384 C   0  0  0  0  0  0  0  0  0  0  0  0
  -28.1308  -37.5586   24.2561 C   0  0  0  0  0  0  0  0  0  0  0  0
  -27.9459  -34.7920   24.4977 C   0  0  0  0  0  0  0  0  0  0  0  0
  -26.6510  -29.3059   22.1036 C   0  0  0  0  0  0  0  0  0  0  0  0
  -24.3321   -8.2414   21.8975 C   0  0  0  0  0  0  0  0  0  0  0  0
  -24.7047   -9.2572   24.0577 C   0  0  0  0  0  0  0  0  0  0  0  0
  -26.4889  -28.0462   22.6786 C   0  0  0  0  0  0  0  0  0  0  0  0
  -21.7691   -6.7643   23.5353 C   0  0  0  0  0  0  0  0  0  0  0  0
  -20.6668   -6.0319   23.0949 C   0  0  0  0  0  0  0  0  0  0  0  0
  -24.1010  -28.3845   22.7316 C   0  0  0  0  0  0  0  0  0  0  0  0
  -22.1241   -4.2020   22.4907 C   0  0  0  0  0  0  0  0  0  0  0  0
  -24.9005  -10.5847   22.0486 C   0  0  0  0  0  0  0  0  0  0  0  0
  -24.2304  -12.8550   21.0977 C   0  0  0  0  0  0  0  0  0  0  0  0
  -26.8692  -36.9457   24.1979 C   0  0  0  0  0  0  0  0  0  0  0  0
  -25.5384  -30.1202   21.8479 C   0  0  0  0  0  0  0  0  0  0  0  0
  -26.7728  -35.5473   24.3303 C   0  0  0  0  0  0  0  0  0  0  0  0
  -24.2515  -29.6531   22.1510 C   0  0  0  0  0  0  0  0  0  0  0  0
  -24.3910   -8.1375   23.2872 C   0  0  0  0  0  0  0  0  0  0  0  0
  -25.2140  -27.5865   22.9953 C   0  0  0  0  0  0  0  0  0  0  0  0
  -23.0490   -6.2156   23.4534 C   0  0  0  0  0  0  0  0  0  0  0  0
  -20.8443   -4.7507   22.5726 C   0  0  0  0  0  0  0  0  0  0  0  0
  -23.2264   -4.9345   22.9312 C   0  0  0  0  0  0  0  0  0  0  0  0
  -25.1643  -11.8488   21.4095 C   0  0  0  0  0  0  0  0  0  0  0  0
  -28.7085  -21.4037   20.5056 C   0  0  0  0  0  0  0  0  0  0  0  0
  -27.4603  -21.4832   21.0868 C   0  0  0  0  0  0  0  0  0  0  0  0
  -24.9764  -13.8442   20.5048 C   0  0  0  0  0  0  0  0  0  0  0  0
  -28.3318  -19.2597   20.7723 C   0  0  0  0  0  0  0  0  0  0  0  0
  -22.8151  -12.8923   21.3238 C   0  0  0  0  0  0  0  0  0  0  0  0
  -24.5683  -32.9742   22.8564 C   0  0  0  0  0  0  0  0  0  0  0  0
  -22.2420  -32.5347   20.6389 C   0  0  0  0  0  0  0  0  0  0  0  0
  -20.3958  -30.3569   18.7693 C   0  0  0  0  0  0  0  0  0  0  0  0
  -29.5052  -17.0779   20.3147 C   0  0  0  0  0  0  0  0  0  0  0  0
  -25.6449  -37.8161   24.0627 C   0  0  0  0  0  0  0  0  0  0  0  0
  -25.7280  -31.4656   21.2027 C   0  0  0  0  0  0  0  0  0  0  0  0
  -23.0228  -30.4802   21.8777 C   0  0  0  0  0  0  0  0  0  0  0  0
  -24.3933  -37.0466   23.6483 C   0  0  0  0  0  0  0  0  0  0  0  0
  -29.7711  -13.8292   18.8822 C   0  0  0  0  0  0  0  0  0  0  0  0
  -24.2486  -35.7755   24.4790 C   0  0  0  0  0  0  0  0  0  0  0  0
  -28.5194  -13.1071   19.3863 C   0  0  0  0  0  0  0  0  0  0  0  0
  -30.3471  -14.7704   19.9386 C   0  0  0  0  0  0  0  0  0  0  0  0
  -28.1391  -15.0107   21.0046 C   0  0  0  0  0  0  0  0  0  0  0  0
  -25.4396  -34.8347   24.2601 C   0  0  1  0  0  0  0  0  0  0  0  0
  -24.5664  -32.4206   21.4596 C   0  0  1  0  0  0  0  0  0  0  0  0
  -27.4855  -14.1002   19.9523 C   0  0  2  0  0  0  0  0  0  0  0  0
  -29.5386  -22.5448   20.0688 C   0  0  0  0  0  0  0  0  0  0  0  0
  -18.5448  -30.2928   17.0760 C   0  0  0  0  0  0  0  0  0  0  0  0
  -27.4984  -22.7870   23.8237 C   0  0  0  0  0  0  0  0  0  0  0  0
  -20.2082  -33.0905   22.8446 C   0  0  0  0  0  0  0  0  0  0  0  0
  -18.4438  -32.0977   21.3718 C   0  0  0  0  0  0  0  0  0  0  0  0
  -19.6706  -34.1428   20.6405 C   0  0  0  0  0  0  0  0  0  0  0  0
  -22.1368  -29.0833   16.7430 C   0  0  0  0  0  0  0  0  0  0  0  0
  -25.3427  -23.9920   23.3030 C   0  0  0  0  0  0  0  0  0  0  0  0
  -26.0144  -25.3584   23.2204 C   0  0  0  0  0  0  0  0  0  1  0  0
  -26.6177  -22.6976   21.4319 C   0  0  2  0  0  0  0  0  0  0  0  0
  -20.8655  -31.9148   20.6419 C   0  0  1  0  0  0  0  0  0  0  0  0
  -20.0495  -30.3408   17.2914 C   0  0  2  0  0  0  0  0  0  0  0  0
  -26.2407  -22.7869   22.9388 C   0  0  1  0  0  0  0  0  0  0  0  0
  -19.8201  -32.7964   21.3817 C   0  0  0  0  0  0  0  0  0  0  0  0
  -26.4086  -12.1693   21.0447 N   0  0  0  0  0  0  0  0  0  0  0  0
  -29.2100  -20.1296   20.3248 N   0  0  0  0  0  0  0  0  0  0  0  0
  -26.2617  -13.3879   20.4975 N   0  0  0  0  0  0  0  0  0  0  0  0
  -23.2607  -31.7912   21.2515 N   0  0  0  0  0  0  0  0  0  0  0  0
  -29.3118  -15.6847   20.4255 N   0  0  0  0  0  0  0  0  0  0  0  0
  -24.6518  -15.0509   19.9941 N   0  0  0  0  0  0  0  0  0  0  0  0
  -22.2085  -11.7920   21.9450 N   0  0  0  0  0  0  0  0  0  0  0  0
  -28.4395  -17.8469   20.7812 N   0  0  0  0  0  0  0  0  0  0  0  0
  -25.3054  -34.1341   23.0009 N   0  0  0  0  0  0  0  0  0  0  0  0
  -20.5373  -31.6427   19.2467 N   0  0  0  0  0  0  0  0  0  0  0  0
  -25.3705  -22.7322   20.5990 N   0  3  0  0  0  0  0  0  0  0  0  0
  -20.6571  -29.1515   16.6299 N   0  3  0  0  0  0  0  0  0  0  0  0
  -22.1066  -13.8652   20.9703 O   0  0  0  0  0  0  0  0  0  0  0  0
  -23.9458  -32.3930   23.7376 O   0  0  0  0  0  0  0  0  0  0  0  0
  -22.4087  -33.6347   20.1061 O   0  0  0  0  0  0  0  0  0  0  0  0
  -20.5239  -29.3315   19.4346 O   0  0  0  0  0  0  0  0  0  0  0  0
  -30.5285  -17.5534   19.8158 O   0  0  0  0  0  0  0  0  0  0  0  0
  -24.1423   -6.9437   23.8919 O   0  0  0  0  0  0  0  0  0  0  0  0
  -25.0529  -26.3576   23.5572 O   0  0  0  0  0  0  0  0  0  1  0  0
  -19.7854   -4.0469   22.1511 F   0  0  0  0  0  0  0  0  0  0  0  0
  -24.4534   -4.4016   22.8511 F   0  0  0  0  0  0  0  0  0  0  0  0
  -26.8808  -19.9045   21.4232 S   0  0  0  0  0  0  0  0  0  0  0  0
  1  2  1  0  0  0  0
  1  5  2  0  0  0  0
  2  6  2  0  0  0  0
  3  8  2  0  0  0  0
  3 15  1  0  0  0  0
  4  9  1  0  0  0  0
  4 15  2  0  0  0  0
  5 17  1  0  0  0  0
  6 19  1  0  0  0  0
  7 10  2  0  0  0  0
  7 18  1  0  0  0  0
  8 21  1  0  0  0  0
  9 21  2  0  0  0  0
 10 22  1  0  0  0  0
 11 12  2  0  0  0  0
 11 23  1  0  0  0  0
 12 24  1  0  0  0  0
 13 20  1  0  0  0  0
 13 22  2  0  0  0  0
 14 24  2  0  0  0  0
 14 25  1  0  0  0  0
 15 26  1  0  0  0  0
 16 26  1  0  0  0  0
 16 29  2  0  0  0  0
 16 31  1  0  0  0  0
 17 19  2  0  0  0  0
 17 36  1  0  0  0  0
 18 20  2  0  0  0  0
 18 37  1  0  0  0  0
 19 45  1  0  0  0  0
 20 38  1  0  0  0  0
 21 79  1  0  0  0  0
 22 80  1  0  0  0  0
 23 25  2  0  0  0  0
 23 79  1  0  0  0  0
 24 81  1  0  0  0  0
 25 82  1  0  0  0  0
 26 62  2  0  0  0  0
 27 28  2  0  0  0  0
 27 48  1  0  0  0  0
 27 63  1  0  0  0  0
 28 57  1  0  0  0  0
 28 83  1  0  0  0  0
 29 64  1  0  0  0  0
 29 67  1  0  0  0  0
 30 63  2  0  0  0  0
 30 69  1  0  0  0  0
 30 83  1  0  0  0  0
 31 68  1  0  0  0  0
 31 74  2  0  0  0  0
 32 46  1  0  0  0  0
 32 70  1  0  0  0  0
 32 75  2  0  0  0  0
 33 58  1  0  0  0  0
 33 65  1  0  0  0  0
 33 76  2  0  0  0  0
 34 59  1  0  0  0  0
 34 71  1  0  0  0  0
 34 77  2  0  0  0  0
 35 66  1  0  0  0  0
 35 69  1  0  0  0  0
 35 78  2  0  0  0  0
 36 39  1  0  0  0  0
 37 46  1  0  0  0  0
 38 65  1  0  0  0  0
 39 41  1  0  0  0  0
 40 42  1  0  0  0  0
 40 43  1  0  0  0  0
 41 45  1  0  0  0  0
 42 47  1  0  0  0  0
 43 66  1  0  0  0  0
 44 47  1  0  0  0  0
 44 66  1  0  0  0  0
 45 70  1  0  0  0  0
 46 65  1  0  0  0  0
 47 64  1  0  0  0  0
 49 59  1  0  0  0  0
 50 60  1  0  0  0  0
 51 61  1  0  0  0  0
 52 61  1  0  0  0  0
 53 61  1  0  0  0  0
 54 73  1  0  0  0  0
 55 56  1  0  0  0  0
 55 60  1  0  0  0  0
 56 80  1  0  0  0  0
 57 60  1  0  0  0  0
 57 72  1  0  0  0  0
 58 61  1  0  0  0  0
 58 71  1  0  0  0  0
 59 73  1  0  0  0  0
 62 64  1  0  0  0  0
M  CHG  2  72   1  73   1
M  ISO  4  35 100  56 101  69 100  80 101
M  END
> <Batch ID>
0186

> <Smiles>
CNC(C)C(=O)NC(C(=O)N1Cc2cc([101O:1][101CH2:1]CC(C)C(N)c3sc([100NH:0][100C:0](=O)N4CCCC(n5nc(-c6ccc(Oc7ccc(F)cc7F)cc6)c(C(N)=O)c5N)C4)nc3C)ccc2CC1C(=O)NC1CCCc2ccccc21)C(C)(C)C

> <Shape>
0.281

> <Color>
0.134

> <Negative vol penalty>
0.000

$$$$

  -OEChem-04052305093D

 85 93  0     1  0  0  0  0  0999 V2000
  -17.6855  -13.2125   20.3852 C   0  0  0  0  0  0  0  0  0  0  0  0
  -18.7059  -13.7125   21.1878 C   0  0  0  0  0  0  0  0  0  0  0  0
  -22.7744  -29.3856   19.7388 C   0  0  0  0  0  0  0  0  0  0  0  0
  -22.6456  -27.6814   21.4464 C   0  0  0  0  0  0  0  0  0  0  0  0
  -17.8079  -11.9480   19.8109 C   0  0  0  0  0  0  0  0  0  0  0  0
  -19.8490  -12.9476   21.4175 C   0  0  0  0  0  0  0  0  0  0  0  0
  -24.1117  -15.6477   20.9887 C   0  0  0  0  0  0  0  0  0  0  0  0
  -21.3937  -29.5678   19.8163 C   0  0  0  0  0  0  0  0  0  0  0  0
  -21.2648  -27.8636   21.5240 C   0  0  0  0  0  0  0  0  0  0  0  0
  -24.4552  -16.4699   22.0610 C   0  0  0  0  0  0  0  0  0  0  0  0
  -19.1196  -30.0649   22.9285 C   0  0  0  0  0  0  0  0  0  0  0  0
  -18.5481  -30.1426   24.1985 C   0  0  0  0  0  0  0  0  0  0  0  0
  -26.0243  -14.8054   22.8269 C   0  0  0  0  0  0  0  0  0  0  0  0
  -17.1829  -28.2121   23.7023 C   0  0  0  0  0  0  0  0  0  0  0  0
  -23.4004  -28.4424   20.5537 C   0  0  0  0  0  0  0  0  0  0  0  0
  -25.8160  -28.9236   21.2176 C   0  0  0  0  0  0  0  0  0  0  0  0
  -18.9573  -11.1712   20.0259 C   0  0  0  0  0  0  0  0  0  0  0  0
  -24.7150  -14.3914   20.8333 C   0  0  0  0  0  0  0  0  0  0  0  0
  -19.9864  -11.6709   20.8467 C   0  0  0  0  0  0  0  0  0  0  0  0
  -25.6886  -13.9702   21.7504 C   0  0  0  0  0  0  0  0  0  0  0  0
  -20.6389  -28.8068   20.7090 C   0  0  0  0  0  0  0  0  0  0  0  0
  -25.4095  -16.0476   22.9819 C   0  0  0  0  0  0  0  0  0  0  0  0
  -18.7227  -29.0608   22.0454 C   0  0  0  0  0  0  0  0  0  0  0  0
  -17.5798  -29.2162   24.5854 C   0  0  0  0  0  0  0  0  0  0  0  0
  -17.7544  -28.1344   22.4323 C   0  0  0  0  0  0  0  0  0  0  0  0
  -24.8265  -28.2533   20.4737 C   0  0  0  0  0  0  0  0  0  0  0  0
  -29.2346  -19.5355   20.6797 C   0  0  0  0  0  0  0  0  0  0  0  0
  -27.0006  -28.3884   20.7740 C   0  0  0  0  0  0  0  0  0  0  0  0
  -28.4625  -19.7109   21.8089 C   0  0  0  0  0  0  0  0  0  0  0  0
  -28.3475  -21.4765   20.1742 C   0  0  0  0  0  0  0  0  0  0  0  0
  -25.6768  -29.9392   22.2200 C   0  0  0  0  0  0  0  0  0  0  0  0
  -30.0715  -18.3915   20.4437 C   0  0  0  0  0  0  0  0  0  0  0  0
  -23.6704  -11.3895   20.8044 C   0  0  0  0  0  0  0  0  0  0  0  0
  -26.7442  -10.7387   19.9979 C   0  0  0  0  0  0  0  0  0  0  0  0
  -27.4466  -19.2013   24.0574 C   0  0  0  0  0  0  0  0  0  0  0  0
  -30.0181  -11.7009   20.0466 C   0  0  0  0  0  0  0  0  0  0  0  0
  -28.4351  -23.1464   18.2901 C   0  0  0  0  0  0  0  0  0  0  0  0
  -19.0237   -9.7906   19.4223 C   0  0  0  0  0  0  0  0  0  0  0  0
  -24.3530  -13.5277   19.6563 C   0  0  0  0  0  0  0  0  0  0  0  0
  -26.3804  -12.6391   21.6171 C   0  0  0  0  0  0  0  0  0  0  0  0
  -20.4305   -9.1981   19.4105 C   0  0  0  0  0  0  0  0  0  0  0  0
  -28.9871  -26.3804   16.9067 C   0  0  0  0  0  0  0  0  0  0  0  0
  -21.1030   -9.3922   20.7659 C   0  0  0  0  0  0  0  0  0  0  0  0
  -28.0774  -27.2896   17.7361 C   0  0  0  0  0  0  0  0  0  0  0  0
  -28.3480  -25.0158   16.6552 C   0  0  0  0  0  0  0  0  0  0  0  0
  -26.9742  -25.2254   18.6894 C   0  0  0  0  0  0  0  0  0  0  0  0
  -21.2525  -10.8815   21.0992 C   0  0  1  0  0  0  0  0  0  0  0  0
  -24.6569  -12.0501   19.8836 C   0  0  1  0  0  0  0  0  0  0  0  0
  -27.6023  -26.5882   19.0237 C   0  0  2  0  0  0  0  0  0  0  0  0
  -30.8600  -18.3406   19.1578 C   0  0  0  0  0  0  0  0  0  0  0  0
  -26.6336  -18.4579   26.3013 C   0  0  0  0  0  0  0  0  0  0  0  0
  -32.3045  -10.9437   19.3421 C   0  0  0  0  0  0  0  0  0  0  0  0
  -26.8063   -8.7679   22.3265 C   0  0  0  0  0  0  0  0  0  0  0  0
  -29.3050   -8.7684   22.1693 C   0  0  0  0  0  0  0  0  0  0  0  0
  -27.9363   -7.9610   20.2465 C   0  0  0  0  0  0  0  0  0  0  0  0
  -30.3773  -14.0471   18.2788 C   0  0  0  0  0  0  0  0  0  0  0  0
  -27.0780  -16.7372   24.5299 C   0  0  0  0  0  0  0  0  0  1  0  0
  -28.0090  -10.4346   20.7639 C   0  0  1  0  0  0  0  0  0  0  0  0
  -27.5141  -18.0852   25.1091 C   0  0  1  0  0  0  0  0  0  0  0  0
  -31.0714  -11.7448   18.9543 C   0  0  2  0  0  0  0  0  0  0  0  0
  -27.9999   -9.0073   21.3804 C   0  0  0  0  0  0  0  0  0  0  0  0
  -25.3380  -27.3606   19.6220 N   0  0  0  0  0  0  0  0  0  0  0  0
  -29.1697  -20.5467   19.7410 N   0  0  0  0  0  0  0  0  0  0  0  0
  -26.6619  -27.4662   19.8279 N   0  0  0  0  0  0  0  0  0  0  0  0
  -25.9876  -11.8278   20.4530 N   0  0  0  0  0  0  0  0  0  0  0  0
  -27.9267  -24.4095   17.9200 N   0  0  0  0  0  0  0  0  0  0  0  0
  -28.2885  -28.6214   21.1047 N   0  0  0  0  0  0  0  0  0  0  0  0
  -24.3876  -30.3743   22.5558 N   0  0  0  0  0  0  0  0  0  0  0  0
  -28.2655  -18.9211   22.9667 N   0  0  0  0  0  0  0  0  0  0  0  0
  -27.9889  -22.6856   19.5283 N   0  0  0  0  0  0  0  0  0  0  0  0
  -22.3613  -11.4545   20.3666 N   0  0  0  0  0  0  0  0  0  0  0  0
  -29.1132  -10.6806   19.8428 N   0  0  0  0  0  0  0  0  0  0  0  0
  -31.4880  -13.1516   18.6928 N   0  3  0  0  0  0  0  0  0  0  0  0
  -26.6673  -30.4576   22.7890 O   0  0  0  0  0  0  0  0  0  0  0  0
  -30.2054  -17.4221   21.2100 O   0  0  0  0  0  0  0  0  0  0  0  0
  -24.0676  -10.8587   21.8350 O   0  0  0  0  0  0  0  0  0  0  0  0
  -26.4425  -10.0401   19.0271 O   0  0  0  0  0  0  0  0  0  0  0  0
  -26.7469  -20.1971   24.2183 O   0  0  0  0  0  0  0  0  0  0  0  0
  -30.0020  -12.4902   20.9886 O   0  0  0  0  0  0  0  0  0  0  0  0
  -29.2305  -22.5320   17.5747 O   0  0  0  0  0  0  0  0  0  0  0  0
  -19.2916  -28.9845   20.7851 O   0  0  0  0  0  0  0  0  0  0  0  0
  -25.7461  -16.8479   24.0298 O   0  0  0  0  0  0  0  0  0  1  0  0
  -17.0321  -29.2901   25.8056 F   0  0  0  0  0  0  0  0  0  0  0  0
  -17.3699  -27.1668   21.5886 F   0  0  0  0  0  0  0  0  0  0  0  0
  -27.6180  -21.1998   21.7027 S   0  0  0  0  0  0  0  0  0  0  0  0
  1  2  1  0  0  0  0
  1  5  2  0  0  0  0
  2  6  2  0  0  0  0
  3  8  2  0  0  0  0
  3 15  1  0  0  0  0
  4  9  1  0  0  0  0
  4 15  2  0  0  0  0
  5 17  1  0  0  0  0
  6 19  1  0  0  0  0
  7 10  2  0  0  0  0
  7 18  1  0  0  0  0
  8 21  1  0  0  0  0
  9 21  2  0  0  0  0
 10 22  1  0  0  0  0
 11 12  2  0  0  0  0
 11 23  1  0  0  0  0
 12 24  1  0  0  0  0
 13 20  1  0  0  0  0
 13 22  2  0  0  0  0
 14 24  2  0  0  0  0
 14 25  1  0  0  0  0
 15 26  1  0  0  0  0
 16 26  1  0  0  0  0
 16 28  2  0  0  0  0
 16 31  1  0  0  0  0
 17 19  2  0  0  0  0
 17 38  1  0  0  0  0
 18 20  2  0  0  0  0
 18 39  1  0  0  0  0
 19 47  1  0  0  0  0
 20 40  1  0  0  0  0
 21 81  1  0  0  0  0
 22 82  1  0  0  0  0
 23 25  2  0  0  0  0
 23 81  1  0  0  0  0
 24 83  1  0  0  0  0
 25 84  1  0  0  0  0
 26 62  2  0  0  0  0
 27 29  2  0  0  0  0
 27 32  1  0  0  0  0
 27 63  1  0  0  0  0
 28 64  1  0  0  0  0
 28 67  1  0  0  0  0
 29 69  1  0  0  0  0
 29 85  1  0  0  0  0
 30 63  2  0  0  0  0
 30 70  1  0  0  0  0
 30 85  1  0  0  0  0
 31 68  1  0  0  0  0
 31 74  2  0  0  0  0
 32 50  1  0  0  0  0
 32 75  2  0  0  0  0
 33 48  1  0  0  0  0
 33 71  1  0  0  0  0
 33 76  2  0  0  0  0
 34 58  1  0  0  0  0
 34 65  1  0  0  0  0
 34 77  2  0  0  0  0
 35 59  1  0  0  0  0
 35 69  1  0  0  0  0
 35 78  2  0  0  0  0
 36 60  1  0  0  0  0
 36 72  1  0  0  0  0
 36 79  2  0  0  0  0
 37 66  1  0  0  0  0
 37 70  1  0  0  0  0
 37 80  2  0  0  0  0
 38 41  1  0  0  0  0
 39 48  1  0  0  0  0
 40 65  1  0  0  0  0
 41 43  1  0  0  0  0
 42 44  1  0  0  0  0
 42 45  1  0  0  0  0
 43 47  1  0  0  0  0
 44 49  1  0  0  0  0
 45 66  1  0  0  0  0
 46 49  1  0  0  0  0
 46 66  1  0  0  0  0
 47 71  1  0  0  0  0
 48 65  1  0  0  0  0
 49 64  1  0  0  0  0
 51 59  1  0  0  0  0
 52 60  1  0  0  0  0
 53 61  1  0  0  0  0
 54 61  1  0  0  0  0
 55 61  1  0  0  0  0
 56 73  1  0  0  0  0
 57 59  1  0  0  0  0
 57 82  1  0  0  0  0
 58 61  1  0  0  0  0
 58 72  1  0  0  0  0
 60 73  1  0  0  0  0
 62 64  1  0  0  0  0
M  CHG  1  73   1
M  ISO  4  37 100  57 101  70 100  82 101
M  END
> <Batch ID>
0186

> <Smiles>
CNC(C)C(=O)NC(C(=O)N1Cc2cc([101O:1][101CH2:1]C(C)C(=O)Nc3sc([100NH:0][100C:0](=O)N4CCCC(n5nc(-c6ccc(Oc7ccc(F)cc7F)cc6)c(C(N)=O)c5N)C4)nc3C(C)=O)ccc2CC1C(=O)NC1CCCc2ccccc21)C(C)(C)C

> <Shape>
0.260

> <Color>
0.070

> <Negative vol penalty>
0.000

$$$$

  -OEChem-04052305093D

 86 94  0     1  0  0  0  0  0999 V2000
  -25.7823  -31.3322   20.5539 C   0  0  0  0  0  0  0  0  0  0  0  0
  -25.5891  -30.5170   19.4434 C   0  0  0  0  0  0  0  0  0  0  0  0
  -23.2915   -9.7957   19.8969 C   0  0  0  0  0  0  0  0  0  0  0  0
  -23.7186   -9.9250   22.2713 C   0  0  0  0  0  0  0  0  0  0  0  0
  -27.0752  -31.6590   20.9608 C   0  0  0  0  0  0  0  0  0  0  0  0
  -26.6887  -30.0288   18.7384 C   0  0  0  0  0  0  0  0  0  0  0  0
  -26.2418  -25.1142   17.6017 C   0  0  0  0  0  0  0  0  0  0  0  0
  -22.5607   -8.6238   20.0921 C   0  0  0  0  0  0  0  0  0  0  0  0
  -22.9878   -8.7530   22.4665 C   0  0  0  0  0  0  0  0  0  0  0  0
  -25.4155  -24.7813   16.5292 C   0  0  0  0  0  0  0  0  0  0  0  0
  -19.7369   -7.8476   22.6471 C   0  0  0  0  0  0  0  0  0  0  0  0
  -18.8238   -7.8230   23.7012 C   0  0  0  0  0  0  0  0  0  0  0  0
  -27.3553  -24.5527   15.1135 C   0  0  0  0  0  0  0  0  0  0  0  0
  -20.0159   -5.9691   24.6906 C   0  0  0  0  0  0  0  0  0  0  0  0
  -23.8705  -10.4463   20.9865 C   0  0  0  0  0  0  0  0  0  0  0  0
  -24.1369  -12.9766   20.8017 C   0  0  0  0  0  0  0  0  0  0  0  0
  -28.1914  -31.1667   20.2662 C   0  0  0  0  0  0  0  0  0  0  0  0
  -27.6326  -25.1796   17.4351 C   0  0  0  0  0  0  0  0  0  0  0  0
  -27.9977  -30.3504   19.1356 C   0  0  0  0  0  0  0  0  0  0  0  0
  -28.1972  -24.8842   16.1861 C   0  0  0  0  0  0  0  0  0  0  0  0
  -27.9486  -18.6386   15.1989 C   0  0  0  0  0  0  0  0  0  0  0  0
  -22.4089   -8.1024   21.3769 C   0  0  0  0  0  0  0  0  0  0  0  0
  -25.9720  -24.5033   15.2841 C   0  0  0  0  0  0  0  0  0  0  0  0
  -20.7895   -6.9328   22.6146 C   0  0  0  0  0  0  0  0  0  0  0  0
  -18.9633   -6.8838   24.7230 C   0  0  0  0  0  0  0  0  0  0  0  0
  -20.9290   -5.9936   23.6364 C   0  0  0  0  0  0  0  0  0  0  0  0
  -24.6259  -11.6567   20.7854 C   0  0  0  0  0  0  0  0  0  0  0  0
  -27.9916  -17.7421   16.3048 C   0  0  0  0  0  0  0  0  0  0  0  0
  -25.2424  -13.7554   20.5613 C   0  0  0  0  0  0  0  0  0  0  0  0
  -26.6841  -19.1709   15.0700 C   0  0  0  0  0  0  0  0  0  0  0  0
  -22.8026  -13.4560   21.0152 C   0  0  0  0  0  0  0  0  0  0  0  0
  -29.1890  -16.9822   16.7471 C   0  0  0  0  0  0  0  0  0  0  0  0
  -29.8187  -27.4714   17.7044 C   0  0  0  0  0  0  0  0  0  0  0  0
  -31.8841  -25.0227   17.1941 C   0  0  0  0  0  0  0  0  0  0  0  0
  -24.7997  -20.5563   14.1350 C   0  0  0  0  0  0  0  0  0  0  0  0
  -32.4227  -21.9063   15.9117 C   0  0  0  0  0  0  0  0  0  0  0  0
  -29.9164  -14.8645   17.8005 C   0  0  0  0  0  0  0  0  0  0  0  0
  -29.5688  -31.5858   20.7155 C   0  0  0  0  0  0  0  0  0  0  0  0
  -28.5120  -25.5141   18.6087 C   0  0  0  0  0  0  0  0  0  0  0  0
  -29.6858  -24.9207   15.9601 C   0  0  0  0  0  0  0  0  0  0  0  0
  -30.6870  -30.7221   20.1377 C   0  0  0  0  0  0  0  0  0  0  0  0
  -30.1626  -12.5568   20.4672 C   0  0  0  0  0  0  0  0  0  0  0  0
  -30.4823  -30.5154   18.6403 C   0  0  0  0  0  0  0  0  0  0  0  0
  -28.7038  -12.2293   20.7970 C   0  0  0  0  0  0  0  0  0  0  0  0
  -30.3804  -12.7252   18.9641 C   0  0  0  0  0  0  0  0  0  0  0  0
  -28.0212  -13.3449   18.6352 C   0  0  0  0  0  0  0  0  0  0  0  0
  -29.1656  -29.7811   18.3597 C   0  0  1  0  0  0  0  0  0  0  0  0
  -29.8785  -26.0531   18.1969 C   0  0  1  0  0  0  0  0  0  0  0  0
  -27.7360  -13.2350   20.1418 C   0  0  1  0  0  0  0  0  0  0  0  0
  -29.0932  -18.9555   14.3134 C   0  0  0  0  0  0  0  0  0  0  0  0
  -24.2107  -20.8240   11.6905 C   0  0  0  0  0  0  0  0  0  0  0  0
  -33.6481  -19.7746   15.4101 C   0  0  0  0  0  0  0  0  0  0  0  0
  -33.0815  -26.6711   14.9228 C   0  0  0  0  0  0  0  0  0  0  0  0
  -34.1798  -24.5847   14.0808 C   0  0  0  0  0  0  0  0  0  0  0  0
  -34.7588  -25.4729   16.3388 C   0  0  0  0  0  0  0  0  0  0  0  0
  -31.5019  -20.6488   18.4276 C   0  0  0  0  0  0  0  0  0  0  0  0
  -23.5417  -22.6228   13.3641 C   0  0  0  0  0  0  0  0  0  0  0  0
  -23.9431  -23.5118   14.5383 C   0  0  0  0  0  0  0  0  0  1  0  0
  -32.5058  -24.3849   15.9752 C   0  0  1  0  0  0  0  0  0  0  0  0
  -24.5754  -21.5482   12.9863 C   0  0  1  0  0  0  0  0  0  0  0  0
  -33.0902  -20.6764   16.5001 C   0  0  2  0  0  0  0  0  0  0  0  0
  -33.6032  -25.2795   15.3329 C   0  0  0  0  0  0  0  0  0  0  0  0
  -25.9398  -11.5964   20.5528 N   0  0  0  0  0  0  0  0  0  0  0  0
  -26.8670  -17.5735   16.9964 N   0  0  0  0  0  0  0  0  0  0  0  0
  -26.2857  -12.8883   20.4208 N   0  0  0  0  0  0  0  0  0  0  0  0
  -30.5033  -25.2591   17.1369 N   0  0  0  0  0  0  0  0  0  0  0  0
  -29.4323  -13.7003   18.4222 N   0  0  0  0  0  0  0  0  0  0  0  0
  -25.4141  -15.0905   20.4585 N   0  0  0  0  0  0  0  0  0  0  0  0
  -21.7857  -12.5200   21.2483 N   0  0  0  0  0  0  0  0  0  0  0  0
  -26.1111  -20.0909   14.1600 N   0  0  0  0  0  0  0  0  0  0  0  0
  -28.9316  -15.7528   17.3543 N   0  0  0  0  0  0  0  0  0  0  0  0
  -29.3093  -28.3660   18.6262 N   0  0  0  0  0  0  0  0  0  0  0  0
  -32.9780  -23.0709   16.3981 N   0  0  0  0  0  0  0  0  0  0  0  0
  -32.1121  -19.8911   17.3048 N   0  3  0  0  0  0  0  0  0  0  0  0
  -22.5175  -14.6771   20.9834 O   0  0  0  0  0  0  0  0  0  0  0  0
  -30.3053  -17.4434   16.5259 O   0  0  0  0  0  0  0  0  0  0  0  0
  -30.2073  -27.7349   16.5725 O   0  0  0  0  0  0  0  0  0  0  0  0
  -32.5961  -25.2944   18.1641 O   0  0  0  0  0  0  0  0  0  0  0  0
  -23.8936  -20.2520   14.9058 O   0  0  0  0  0  0  0  0  0  0  0  0
  -31.5032  -21.8404   15.0987 O   0  0  0  0  0  0  0  0  0  0  0  0
  -31.1214  -15.1103   17.6864 O   0  0  0  0  0  0  0  0  0  0  0  0
  -21.6956   -6.9590   21.5678 O   0  0  0  0  0  0  0  0  0  0  0  0
  -25.1678  -24.1788   14.2355 O   0  0  0  0  0  0  0  0  0  1  0  0
  -18.0873   -6.8614   25.7360 F   0  0  0  0  0  0  0  0  0  0  0  0
  -21.9388   -5.1130   23.6113 F   0  0  0  0  0  0  0  0  0  0  0  0
  -25.6909  -18.5234   16.3061 S   0  0  0  0  0  0  0  0  0  0  0  0
  1  2  1  0  0  0  0
  1  5  2  0  0  0  0
  2  6  2  0  0  0  0
  3  8  2  0  0  0  0
  3 15  1  0  0  0  0
  4  9  1  0  0  0  0
  4 15  2  0  0  0  0
  5 17  1  0  0  0  0
  6 19  1  0  0  0  0
  7 10  2  0  0  0  0
  7 18  1  0  0  0  0
  8 22  1  0  0  0  0
  9 22  2  0  0  0  0
 10 23  1  0  0  0  0
 11 12  2  0  0  0  0
 11 24  1  0  0  0  0
 12 25  1  0  0  0  0
 13 20  1  0  0  0  0
 13 23  2  0  0  0  0
 14 25  2  0  0  0  0
 14 26  1  0  0  0  0
 15 27  1  0  0  0  0
 16 27  1  0  0  0  0
 16 29  2  0  0  0  0
 16 31  1  0  0  0  0
 17 19  2  0  0  0  0
 17 38  1  0  0  0  0
 18 20  2  0  0  0  0
 18 39  1  0  0  0  0
 19 47  1  0  0  0  0
 20 40  1  0  0  0  0
 21 28  1  0  0  0  0
 21 30  2  0  0  0  0
 21 50  1  0  0  0  0
 22 82  1  0  0  0  0
 23 83  1  0  0  0  0
 24 26  2  0  0  0  0
 24 82  1  0  0  0  0
 25 84  1  0  0  0  0
 26 85  1  0  0  0  0
 27 63  2  0  0  0  0
 28 32  1  0  0  0  0
 28 64  2  0  0  0  0
 29 65  1  0  0  0  0
 29 68  1  0  0  0  0
 30 70  1  0  0  0  0
 30 86  1  0  0  0  0
 31 69  1  0  0  0  0
 31 75  2  0  0  0  0
 32 71  1  0  0  0  0
 32 76  2  0  0  0  0
 33 48  1  0  0  0  0
 33 72  1  0  0  0  0
 33 77  2  0  0  0  0
 34 59  1  0  0  0  0
 34 66  1  0  0  0  0
 34 78  2  0  0  0  0
 35 60  1  0  0  0  0
 35 70  1  0  0  0  0
 35 79  2  0  0  0  0
 36 61  1  0  0  0  0
 36 73  1  0  0  0  0
 36 80  2  0  0  0  0
 37 67  1  0  0  0  0
 37 71  1  0  0  0  0
 37 81  2  0  0  0  0
 38 41  1  0  0  0  0
 39 48  1  0  0  0  0
 40 66  1  0  0  0  0
 41 43  1  0  0  0  0
 42 44  1  0  0  0  0
 42 45  1  0  0  0  0
 43 47  1  0  0  0  0
 44 49  1  0  0  0  0
 45 67  1  0  0  0  0
 46 49  1  0  0  0  0
 46 67  1  0  0  0  0
 47 72  1  0  0  0  0
 48 66  1  0  0  0  0
 49 65  1  0  0  0  0
 51 60  1  0  0  0  0
 52 61  1  0  0  0  0
 53 62  1  0  0  0  0
 54 62  1  0  0  0  0
 55 62  1  0  0  0  0
 56 74  1  0  0  0  0
 57 58  1  0  0  0  0
 57 60  1  0  0  0  0
 58 83  1  0  0  0  0
 59 62  1  0  0  0  0
 59 73  1  0  0  0  0
 61 74  1  0  0  0  0
 63 65  1  0  0  0  0
 64 86  1  0  0  0  0
M  CHG  1  74   1
M  ISO  4  37 100  58 101  71 100  83 101
M  END
> <Batch ID>
0186

> <Smiles>
CNC(C)C(=O)NC(C(=O)N1Cc2cc([101O:1][101CH2:1]CC(C)C(=O)Nc3snc(C(=O)[100NH:0][100C:0](=O)N4CCCC(n5nc(-c6ccc(Oc7ccc(F)cc7F)cc6)c(C(N)=O)c5N)C4)c3C)ccc2CC1C(=O)NC1CCCc2ccccc21)C(C)(C)C

> <Shape>
0.175

> <Color>
0.163

> <Negative vol penalty>
0.000

$$$$

  -OEChem-04052305093D

 86 94  0     1  0  0  0  0  0999 V2000
  -28.0957  -35.3231   18.9765 C   0  0  0  0  0  0  0  0  0  0  0  0
  -28.6779  -34.0657   18.8532 C   0  0  0  0  0  0  0  0  0  0  0  0
  -23.3508   -9.5560   20.9199 C   0  0  0  0  0  0  0  0  0  0  0  0
  -24.0190  -10.3125   23.1149 C   0  0  0  0  0  0  0  0  0  0  0  0
  -27.3718  -35.6454   20.1237 C   0  0  0  0  0  0  0  0  0  0  0  0
  -28.5375  -33.1301   19.8775 C   0  0  0  0  0  0  0  0  0  0  0  0
  -28.0342  -27.0566   19.2727 C   0  0  0  0  0  0  0  0  0  0  0  0
  -22.7130   -8.4559   21.4931 C   0  0  0  0  0  0  0  0  0  0  0  0
  -23.3811   -9.2125   23.6882 C   0  0  0  0  0  0  0  0  0  0  0  0
  -28.9616  -26.0223   19.3902 C   0  0  0  0  0  0  0  0  0  0  0  0
  -19.8027   -7.8181   23.0920 C   0  0  0  0  0  0  0  0  0  0  0  0
  -18.5257   -7.4968   22.6319 C   0  0  0  0  0  0  0  0  0  0  0  0
  -28.2696  -25.6695   21.6741 C   0  0  0  0  0  0  0  0  0  0  0  0
  -19.3204   -5.3207   21.9461 C   0  0  0  0  0  0  0  0  0  0  0  0
  -31.5486  -19.3262   20.3401 C   0  0  0  0  0  0  0  0  0  0  0  0
  -24.0038  -10.4843   21.7307 C   0  0  0  0  0  0  0  0  0  0  0  0
  -24.1042  -12.8849   20.8738 C   0  0  0  0  0  0  0  0  0  0  0  0
  -27.2142  -34.7099   21.1584 C   0  0  0  0  0  0  0  0  0  0  0  0
  -27.2238  -27.4130   20.3602 C   0  0  0  0  0  0  0  0  0  0  0  0
  -27.8119  -33.4406   21.0402 C   0  0  0  0  0  0  0  0  0  0  0  0
  -27.3310  -26.7071   21.5670 C   0  0  0  0  0  0  0  0  0  0  0  0
  -29.4702  -19.8672   21.3620 C   0  0  0  0  0  0  0  0  0  0  0  0
  -30.7005  -20.2864   20.8681 C   0  0  0  0  0  0  0  0  0  0  0  0
  -22.7281   -8.2842   22.8773 C   0  0  0  0  0  0  0  0  0  0  0  0
  -29.0814  -25.3304   20.5919 C   0  0  0  0  0  0  0  0  0  0  0  0
  -20.8385   -6.8908   22.9791 C   0  0  0  0  0  0  0  0  0  0  0  0
  -18.2845   -6.2481   22.0589 C   0  0  0  0  0  0  0  0  0  0  0  0
  -20.5974   -5.6421   22.4061 C   0  0  0  0  0  0  0  0  0  0  0  0
  -29.1304  -18.5198   21.3136 C   0  0  0  0  0  0  0  0  0  0  0  0
  -24.6634  -11.6205   21.1391 C   0  0  0  0  0  0  0  0  0  0  0  0
  -30.0486  -17.6388   20.7655 C   0  0  0  0  0  0  0  0  0  0  0  0
  -25.1318  -13.6042   20.3140 C   0  0  0  0  0  0  0  0  0  0  0  0
  -22.7748  -13.3663   21.1121 C   0  0  0  0  0  0  0  0  0  0  0  0
  -26.8482  -30.0384   22.1123 C   0  0  0  0  0  0  0  0  0  0  0  0
  -24.4176  -28.3415   23.4295 C   0  0  0  0  0  0  0  0  0  0  0  0
  -32.2856  -22.1958   20.4331 C   0  0  0  0  0  0  0  0  0  0  0  0
  -23.0494  -25.2895   24.1079 C   0  0  0  0  0  0  0  0  0  0  0  0
  -30.4607  -15.2153   20.2147 C   0  0  0  0  0  0  0  0  0  0  0  0
  -26.4628  -35.1204   22.4000 C   0  0  0  0  0  0  0  0  0  0  0  0
  -26.2097  -28.5135   20.2089 C   0  0  0  0  0  0  0  0  0  0  0  0
  -26.4702  -27.0373   22.7580 C   0  0  0  0  0  0  0  0  0  0  0  0
  -26.0450  -33.9424   23.2764 C   0  0  0  0  0  0  0  0  0  0  0  0
  -29.6754  -12.1123   18.6554 C   0  0  0  0  0  0  0  0  0  0  0  0
  -27.2102  -32.9758   23.4625 C   0  0  0  0  0  0  0  0  0  0  0  0
  -28.2555  -11.8117   19.1407 C   0  0  0  0  0  0  0  0  0  0  0  0
  -30.5179  -12.7762   19.7431 C   0  0  0  0  0  0  0  0  0  0  0  0
  -28.4989  -13.6716   20.8344 C   0  0  0  0  0  0  0  0  0  0  0  0
  -27.6610  -32.3900   22.1190 C   0  0  1  0  0  0  0  0  0  0  0  0
  -25.7954  -29.1314   21.5408 C   0  0  1  0  0  0  0  0  0  0  0  0
  -27.5927  -13.0615   19.7526 C   0  0  2  0  0  0  0  0  0  0  0  0
  -28.8927  -21.2705   23.3580 C   0  0  0  0  0  0  0  0  0  0  0  0
  -33.6631  -24.2643   20.1638 C   0  0  0  0  0  0  0  0  0  0  0  0
  -21.0762  -24.2211   25.2316 C   0  0  0  0  0  0  0  0  0  0  0  0
  -25.6681  -28.9044   26.1552 C   0  0  0  0  0  0  0  0  0  0  0  0
  -24.2496  -27.0736   27.1063 C   0  0  0  0  0  0  0  0  0  0  0  0
  -23.1744  -29.0842   26.0943 C   0  0  0  0  0  0  0  0  0  0  0  0
  -22.1427  -24.0381   21.5839 C   0  0  0  0  0  0  0  0  0  0  0  0
  -28.5016  -20.8424   21.9468 C   0  0  0  0  0  0  0  0  0  0  0  0
  -31.1704  -24.4145   19.9188 C   0  0  0  0  0  0  0  0  0  1  0  0
  -24.2877  -27.3845   24.5898 C   0  0  1  0  0  0  0  0  0  0  0  0
  -32.3211  -23.7155   20.6469 C   0  0  1  0  0  0  0  0  0  0  0  0
  -21.6411  -24.7536   23.9238 C   0  0  2  0  0  0  0  0  0  0  0  0
  -24.3627  -28.1065   25.9648 C   0  0  0  0  0  0  0  0  0  0  0  0
  -31.2533  -18.0086   20.2759 N   0  0  0  0  0  0  0  0  0  0  0  0
  -25.9465  -11.5380   20.7775 N   0  0  0  0  0  0  0  0  0  0  0  0
  -26.2021  -12.7596   20.2791 N   0  0  0  0  0  0  0  0  0  0  0  0
  -25.4980  -28.1254   22.5625 N   0  0  0  0  0  0  0  0  0  0  0  0
  -29.8291  -13.9550   20.2730 N   0  0  0  0  0  0  0  0  0  0  0  0
  -25.2150  -14.8703   19.8531 N   0  0  0  0  0  0  0  0  0  0  0  0
  -21.8435  -12.4960   21.6947 N   0  0  0  0  0  0  0  0  0  0  0  0
  -31.0926  -21.6460   20.8948 N   0  0  0  0  0  0  0  0  0  0  0  0
  -29.6963  -16.2672   20.7188 N   0  0  0  0  0  0  0  0  0  0  0  0
  -26.7503  -31.3504   21.6898 N   0  0  0  0  0  0  0  0  0  0  0  0
  -23.0504  -26.6431   24.3708 N   0  0  0  0  0  0  0  0  0  0  0  0
  -21.6341  -23.6483   22.9242 N   0  3  0  0  0  0  0  0  0  0  0  0
  -22.4187  -14.5284   20.8020 O   0  0  0  0  0  0  0  0  0  0  0  0
  -27.6864  -29.5820   22.8810 O   0  0  0  0  0  0  0  0  0  0  0  0
  -23.5868  -29.2431   23.2933 O   0  0  0  0  0  0  0  0  0  0  0  0
  -33.2261  -21.5946   19.9221 O   0  0  0  0  0  0  0  0  0  0  0  0
  -24.0484  -24.5779   24.0303 O   0  0  0  0  0  0  0  0  0  0  0  0
  -31.5851  -15.3558   19.7269 O   0  0  0  0  0  0  0  0  0  0  0  0
  -22.1056   -7.2110   23.4370 O   0  0  0  0  0  0  0  0  0  0  0  0
  -29.9863  -24.3208   20.7095 O   0  0  0  0  0  0  0  0  0  1  0  0
  -17.0579   -5.9391   21.6186 F   0  0  0  0  0  0  0  0  0  0  0  0
  -21.5883   -4.7466   22.2960 F   0  0  0  0  0  0  0  0  0  0  0  0
  -27.9504  -18.0917   21.7831 F   0  0  0  0  0  0  0  0  0  0  0  0
  1  2  1  0  0  0  0
  1  5  2  0  0  0  0
  2  6  2  0  0  0  0
  3  8  2  0  0  0  0
  3 16  1  0  0  0  0
  4  9  1  0  0  0  0
  4 16  2  0  0  0  0
  5 18  1  0  0  0  0
  6 20  1  0  0  0  0
  7 10  2  0  0  0  0
  7 19  1  0  0  0  0
  8 24  1  0  0  0  0
  9 24  2  0  0  0  0
 10 25  1  0  0  0  0
 11 12  2  0  0  0  0
 11 26  1  0  0  0  0
 12 27  1  0  0  0  0
 13 21  1  0  0  0  0
 13 25  2  0  0  0  0
 14 27  2  0  0  0  0
 14 28  1  0  0  0  0
 15 23  2  0  0  0  0
 15 64  1  0  0  0  0
 16 30  1  0  0  0  0
 17 30  1  0  0  0  0
 17 32  2  0  0  0  0
 17 33  1  0  0  0  0
 18 20  2  0  0  0  0
 18 39  1  0  0  0  0
 19 21  2  0  0  0  0
 19 40  1  0  0  0  0
 20 48  1  0  0  0  0
 21 41  1  0  0  0  0
 22 23  1  0  0  0  0
 22 29  2  0  0  0  0
 22 58  1  0  0  0  0
 23 71  1  0  0  0  0
 24 82  1  0  0  0  0
 25 83  1  0  0  0  0
 26 28  2  0  0  0  0
 26 82  1  0  0  0  0
 27 84  1  0  0  0  0
 28 85  1  0  0  0  0
 29 31  1  0  0  0  0
 29 86  1  0  0  0  0
 30 65  2  0  0  0  0
 31 64  2  0  0  0  0
 31 72  1  0  0  0  0
 32 66  1  0  0  0  0
 32 69  1  0  0  0  0
 33 70  1  0  0  0  0
 33 76  2  0  0  0  0
 34 49  1  0  0  0  0
 34 73  1  0  0  0  0
 34 77  2  0  0  0  0
 35 60  1  0  0  0  0
 35 67  1  0  0  0  0
 35 78  2  0  0  0  0
 36 61  1  0  0  0  0
 36 71  1  0  0  0  0
 36 79  2  0  0  0  0
 37 62  1  0  0  0  0
 37 74  1  0  0  0  0
 37 80  2  0  0  0  0
 38 68  1  0  0  0  0
 38 72  1  0  0  0  0
 38 81  2  0  0  0  0
 39 42  1  0  0  0  0
 40 49  1  0  0  0  0
 41 67  1  0  0  0  0
 42 44  1  0  0  0  0
 43 45  1  0  0  0  0
 43 46  1  0  0  0  0
 44 48  1  0  0  0  0
 45 50  1  0  0  0  0
 46 68  1  0  0  0  0
 47 50  1  0  0  0  0
 47 68  1  0  0  0  0
 48 73  1  0  0  0  0
 49 67  1  0  0  0  0
 50 66  1  0  0  0  0
 51 58  1  0  0  0  0
 52 61  1  0  0  0  0
 53 62  1  0  0  0  0
 54 63  1  0  0  0  0
 55 63  1  0  0  0  0
 56 63  1  0  0  0  0
 57 75  1  0  0  0  0
 59 61  1  0  0  0  0
 59 83  1  0  0  0  0
 60 63  1  0  0  0  0
 60 74  1  0  0  0  0
 62 75  1  0  0  0  0
 65 66  1  0  0  0  0
M  CHG  1  75   1
M  ISO  4  38 100  59 101  72 100  83 101
M  END
> <Batch ID>
0186

> <Smiles>
CCc1c(NC(=O)C(C)[101CH2:1][101O:1]c2ccc3c(c2)CN(C(=O)C(NC(=O)C(C)NC)C(C)(C)C)C(C(=O)NC2CCCc4ccccc42)C3)cnc([100NH:0][100C:0](=O)N2CCCC(n3nc(-c4ccc(Oc5ccc(F)cc5F)cc4)c(C(N)=O)c3N)C2)c1F

> <Shape>
0.261

> <Color>
0.159

> <Negative vol penalty>
0.000

$$$$

  -OEChem-04052305093D

 84 92  0     1  0  0  0  0  0999 V2000
  -17.9396  -30.3873   20.1608 C   0  0  0  0  0  0  0  0  0  0  0  0
  -19.3028  -30.3377   19.8876 C   0  0  0  0  0  0  0  0  0  0  0  0
  -23.0408  -12.3612   23.0750 C   0  0  0  0  0  0  0  0  0  0  0  0
  -22.1352  -13.7364   21.3070 C   0  0  0  0  0  0  0  0  0  0  0  0
  -17.4048  -29.5991   21.1789 C   0  0  0  0  0  0  0  0  0  0  0  0
  -20.1322  -29.5005   20.6331 C   0  0  0  0  0  0  0  0  0  0  0  0
  -25.0624  -26.4693   18.6306 C   0  0  0  0  0  0  0  0  0  0  0  0
  -21.8540  -12.5037   23.7938 C   0  0  0  0  0  0  0  0  0  0  0  0
  -20.9483  -13.8789   22.0258 C   0  0  0  0  0  0  0  0  0  0  0  0
  -26.4272  -26.7441   18.7060 C   0  0  0  0  0  0  0  0  0  0  0  0
  -19.8211  -15.7075   24.6366 C   0  0  0  0  0  0  0  0  0  0  0  0
  -19.2647  -16.9837   24.7225 C   0  0  0  0  0  0  0  0  0  0  0  0
  -26.5930  -25.3514   20.6686 C   0  0  0  0  0  0  0  0  0  0  0  0
  -17.2576  -16.1812   23.6432 C   0  0  0  0  0  0  0  0  0  0  0  0
  -23.1815  -12.9776   21.8316 C   0  0  0  0  0  0  0  0  0  0  0  0
  -24.7182  -11.8293   20.1501 C   0  0  0  0  0  0  0  0  0  0  0  0
  -18.2264  -28.7446   21.9309 C   0  0  0  0  0  0  0  0  0  0  0  0
  -24.4496  -25.6408   19.5816 C   0  0  0  0  0  0  0  0  0  0  0  0
  -19.6080  -28.7011   21.6631 C   0  0  0  0  0  0  0  0  0  0  0  0
  -25.2209  -25.0655   20.6016 C   0  0  0  0  0  0  0  0  0  0  0  0
  -20.8077  -13.2625   23.2692 C   0  0  0  0  0  0  0  0  0  0  0  0
  -27.1922  -26.1875   19.7268 C   0  0  0  0  0  0  0  0  0  0  0  0
  -19.0958  -14.6682   24.0540 C   0  0  0  0  0  0  0  0  0  0  0  0
  -17.9830  -17.2205   24.2258 C   0  0  0  0  0  0  0  0  0  0  0  0
  -17.8141  -14.9050   23.5573 C   0  0  0  0  0  0  0  0  0  0  0  0
  -24.4075  -12.8312   21.0889 C   0  0  0  0  0  0  0  0  0  0  0  0
  -29.2118  -21.8007   20.3568 C   0  0  0  0  0  0  0  0  0  0  0  0
  -25.9912  -12.1326   19.7329 C   0  0  0  0  0  0  0  0  0  0  0  0
  -29.9240  -22.6127   19.4991 C   0  0  0  0  0  0  0  0  0  0  0  0
  -30.1558  -20.2428   19.1355 C   0  0  0  0  0  0  0  0  0  0  0  0
  -23.9269  -10.7233   19.6958 C   0  0  0  0  0  0  0  0  0  0  0  0
  -22.1576  -26.0281   21.7496 C   0  0  0  0  0  0  0  0  0  0  0  0
  -22.5278  -22.8296   22.1432 C   0  0  0  0  0  0  0  0  0  0  0  0
  -30.8006  -24.7414   18.4756 C   0  0  0  0  0  0  0  0  0  0  0  0
  -24.5160  -19.8295   22.3958 C   0  0  0  0  0  0  0  0  0  0  0  0
  -28.9540  -17.2352   19.5335 C   0  0  0  0  0  0  0  0  0  0  0  0
  -17.6103  -27.9468   23.0527 C   0  0  0  0  0  0  0  0  0  0  0  0
  -22.9815  -25.3326   19.4707 C   0  0  0  0  0  0  0  0  0  0  0  0
  -24.6148  -24.1532   21.6354 C   0  0  0  0  0  0  0  0  0  0  0  0
  -18.4968  -26.8070   23.5478 C   0  0  0  0  0  0  0  0  0  0  0  0
  -30.0251  -14.2256   21.2342 C   0  0  0  0  0  0  0  0  0  0  0  0
  -19.9279  -27.2938   23.7518 C   0  0  0  0  0  0  0  0  0  0  0  0
  -28.7196  -13.4307   21.2968 C   0  0  0  0  0  0  0  0  0  0  0  0
  -29.7742  -15.7172   21.4350 C   0  0  0  0  0  0  0  0  0  0  0  0
  -27.4839  -15.5166   20.5472 C   0  0  0  0  0  0  0  0  0  0  0  0
  -20.5361  -27.7871   22.4334 C   0  0  1  0  0  0  0  0  0  0  0  0
  -22.3628  -24.8882   20.7924 C   0  0  1  0  0  0  0  0  0  0  0  0
  -27.6676  -14.0038   20.3288 C   0  0  2  0  0  0  0  0  0  0  0  0
  -28.3361  -22.2543   21.4565 C   0  0  0  0  0  0  0  0  0  0  0  0
  -31.5390  -26.9992   17.6971 C   0  0  0  0  0  0  0  0  0  0  0  0
  -24.5480  -17.3292   22.6081 C   0  0  0  0  0  0  0  0  0  0  0  0
  -22.9128  -23.3672   25.1219 C   0  0  0  0  0  0  0  0  0  0  0  0
  -23.8700  -21.0643   25.3427 C   0  0  0  0  0  0  0  0  0  0  0  0
  -21.5090  -21.3654   24.5960 C   0  0  0  0  0  0  0  0  0  0  0  0
  -24.9354  -19.4719   19.4880 C   0  0  0  0  0  0  0  0  0  0  0  0
  -30.5391  -18.9110   18.6191 C   0  0  0  0  0  0  0  0  0  0  0  0
  -29.2066  -26.7112   18.5764 C   0  0  0  0  0  0  0  0  0  1  0  0
  -23.3932  -21.9529   23.0159 C   0  0  1  0  0  0  0  0  0  0  0  0
  -30.6618  -26.2533   18.7019 C   0  0  1  0  0  0  0  0  0  0  0  0
  -24.2616  -18.5088   21.6919 C   0  0  2  0  0  0  0  0  0  0  0  0
  -22.9326  -21.9561   24.5010 C   0  0  0  0  0  0  0  0  0  0  0  0
  -25.4029  -13.7055   21.2585 N   0  0  0  0  0  0  0  0  0  0  0  0
  -29.3432  -20.4415   20.1495 N   0  0  0  0  0  0  0  0  0  0  0  0
  -26.3516  -13.2539   20.4206 N   0  0  0  0  0  0  0  0  0  0  0  0
  -23.1743  -23.8873   21.4881 N   0  0  0  0  0  0  0  0  0  0  0  0
  -28.7774  -16.2038   20.4707 N   0  0  0  0  0  0  0  0  0  0  0  0
  -26.8262  -11.5468   18.8486 N   0  0  0  0  0  0  0  0  0  0  0  0
  -22.6407  -10.5589   20.2277 N   0  0  0  0  0  0  0  0  0  0  0  0
  -30.0456  -24.0190   19.3957 N   0  0  0  0  0  0  0  0  0  0  0  0
  -20.9394  -26.6658   21.6121 N   0  0  0  0  0  0  0  0  0  0  0  0
  -23.3957  -20.6333   22.3939 N   0  0  0  0  0  0  0  0  0  0  0  0
  -30.2054  -17.8392   19.5305 N   0  0  0  0  0  0  0  0  0  0  0  0
  -25.1293  -18.3889   20.4862 N   0  3  0  0  0  0  0  0  0  0  0  0
  -24.3542   -9.8957   18.8555 O   0  0  0  0  0  0  0  0  0  0  0  0
  -23.0385  -26.3074   22.5544 O   0  0  0  0  0  0  0  0  0  0  0  0
  -21.3240  -22.5807   22.0407 O   0  0  0  0  0  0  0  0  0  0  0  0
  -31.5110  -24.2857   17.5841 O   0  0  0  0  0  0  0  0  0  0  0  0
  -25.5990  -20.1176   22.9003 O   0  0  0  0  0  0  0  0  0  0  0  0
  -28.0636  -17.5885   18.7528 O   0  0  0  0  0  0  0  0  0  0  0  0
  -19.6493  -13.4016   23.9702 O   0  0  0  0  0  0  0  0  0  0  0  0
  -28.5243  -26.4546   19.8031 O   0  0  0  0  0  0  0  0  0  1  0  0
  -17.4481  -18.4457   24.3097 F   0  0  0  0  0  0  0  0  0  0  0  0
  -17.1120  -13.9102   22.9976 F   0  0  0  0  0  0  0  0  0  0  0  0
  -30.7987  -21.6458   18.3850 S   0  0  0  0  0  0  0  0  0  0  0  0
  1  2  1  0  0  0  0
  1  5  2  0  0  0  0
  2  6  2  0  0  0  0
  3  8  2  0  0  0  0
  3 15  1  0  0  0  0
  4  9  1  0  0  0  0
  4 15  2  0  0  0  0
  5 17  1  0  0  0  0
  6 19  1  0  0  0  0
  7 10  2  0  0  0  0
  7 18  1  0  0  0  0
  8 21  1  0  0  0  0
  9 21  2  0  0  0  0
 10 22  1  0  0  0  0
 11 12  2  0  0  0  0
 11 23  1  0  0  0  0
 12 24  1  0  0  0  0
 13 20  1  0  0  0  0
 13 22  2  0  0  0  0
 14 24  2  0  0  0  0
 14 25  1  0  0  0  0
 15 26  1  0  0  0  0
 16 26  1  0  0  0  0
 16 28  2  0  0  0  0
 16 31  1  0  0  0  0
 17 19  2  0  0  0  0
 17 37  1  0  0  0  0
 18 20  2  0  0  0  0
 18 38  1  0  0  0  0
 19 46  1  0  0  0  0
 20 39  1  0  0  0  0
 21 80  1  0  0  0  0
 22 81  1  0  0  0  0
 23 25  2  0  0  0  0
 23 80  1  0  0  0  0
 24 82  1  0  0  0  0
 25 83  1  0  0  0  0
 26 62  2  0  0  0  0
 27 29  2  0  0  0  0
 27 49  1  0  0  0  0
 27 63  1  0  0  0  0
 28 64  1  0  0  0  0
 28 67  1  0  0  0  0
 29 69  1  0  0  0  0
 29 84  1  0  0  0  0
 30 56  1  0  0  0  0
 30 63  2  0  0  0  0
 30 84  1  0  0  0  0
 31 68  1  0  0  0  0
 31 74  2  0  0  0  0
 32 47  1  0  0  0  0
 32 70  1  0  0  0  0
 32 75  2  0  0  0  0
 33 58  1  0  0  0  0
 33 65  1  0  0  0  0
 33 76  2  0  0  0  0
 34 59  1  0  0  0  0
 34 69  1  0  0  0  0
 34 77  2  0  0  0  0
 35 60  1  0  0  0  0
 35 71  1  0  0  0  0
 35 78  2  0  0  0  0
 36 66  1  0  0  0  0
 36 72  1  0  0  0  0
 36 79  2  0  0  0  0
 37 40  1  0  0  0  0
 38 47  1  0  0  0  0
 39 65  1  0  0  0  0
 40 42  1  0  0  0  0
 41 43  1  0  0  0  0
 41 44  1  0  0  0  0
 42 46  1  0  0  0  0
 43 48  1  0  0  0  0
 44 66  1  0  0  0  0
 45 48  1  0  0  0  0
 45 66  1  0  0  0  0
 46 70  1  0  0  0  0
 47 65  1  0  0  0  0
 48 64  1  0  0  0  0
 50 59  1  0  0  0  0
 51 60  1  0  0  0  0
 52 61  1  0  0  0  0
 53 61  1  0  0  0  0
 54 61  1  0  0  0  0
 55 73  1  0  0  0  0
 56 72  1  0  0  0  0
 57 59  1  0  0  0  0
 57 81  1  0  0  0  0
 58 61  1  0  0  0  0
 58 71  1  0  0  0  0
 60 73  1  0  0  0  0
 62 64  1  0  0  0  0
M  CHG  1  73   1
M  ISO  4  36 100  57 101  72 100  81 101
M  END
> <Batch ID>
0186

> <Smiles>
CNC(C)C(=O)NC(C(=O)N1Cc2cc([101O:1][101CH2:1]C(C)C(=O)Nc3sc(C[100NH:0][100C:0](=O)N4CCCC(n5nc(-c6ccc(Oc7ccc(F)cc7F)cc6)c(C(N)=O)c5N)C4)nc3C)ccc2CC1C(=O)NC1CCCc2ccccc21)C(C)(C)C

> <Shape>
0.224

> <Color>
0.069

> <Negative vol penalty>
0.000

$$$$

  -OEChem-04052305093D

 86 94  0     1  0  0  0  0  0999 V2000
  -22.8972  -21.5675   16.9965 C   0  0  0  0  0  0  0  0  0  0  0  0
  -23.6384  -20.4475   16.6369 C   0  0  0  0  0  0  0  0  0  0  0  0
  -22.6532  -27.0148   20.6368 C   0  0  0  0  0  0  0  0  0  0  0  0
  -23.2288  -25.4997   22.4286 C   0  0  0  0  0  0  0  0  0  0  0  0
  -22.6536  -21.8348   18.3420 C   0  0  0  0  0  0  0  0  0  0  0  0
  -24.1261  -19.5881   17.6220 C   0  0  0  0  0  0  0  0  0  0  0  0
  -28.3312  -13.9129   18.8546 C   0  0  0  0  0  0  0  0  0  0  0  0
  -21.3474  -27.0915   21.1212 C   0  0  0  0  0  0  0  0  0  0  0  0
  -21.9230  -25.5764   22.9129 C   0  0  0  0  0  0  0  0  0  0  0  0
  -29.4442  -13.4540   19.5577 C   0  0  0  0  0  0  0  0  0  0  0  0
  -17.9568  -27.9694   22.0949 C   0  0  0  0  0  0  0  0  0  0  0  0
  -17.3669  -29.2309   22.1723 C   0  0  0  0  0  0  0  0  0  0  0  0
  -28.1007  -13.2707   21.5529 C   0  0  0  0  0  0  0  0  0  0  0  0
  -29.4911  -18.3038   21.8462 C   0  0  0  0  0  0  0  0  0  0  0  0
  -19.1100  -29.9536   23.6810 C   0  0  0  0  0  0  0  0  0  0  0  0
  -29.6448  -18.7813   19.1640 C   0  0  0  0  0  0  0  0  0  0  0  0
  -23.5939  -26.2189   21.2905 C   0  0  0  0  0  0  0  0  0  0  0  0
  -26.0291  -26.9635   21.1390 C   0  0  0  0  0  0  0  0  0  0  0  0
  -23.1496  -20.9846   19.3440 C   0  0  0  0  0  0  0  0  0  0  0  0
  -27.0950  -14.0648   19.4991 C   0  0  0  0  0  0  0  0  0  0  0  0
  -23.8706  -19.8278   18.9844 C   0  0  0  0  0  0  0  0  0  0  0  0
  -26.9729  -13.7293   20.8550 C   0  0  0  0  0  0  0  0  0  0  0  0
  -28.8404  -19.4104   21.3120 C   0  0  0  0  0  0  0  0  0  0  0  0
  -28.9138  -19.6608   19.9463 C   0  0  0  0  0  0  0  0  0  0  0  0
  -20.9823  -26.3723   22.2592 C   0  0  0  0  0  0  0  0  0  0  0  0
  -29.3297  -13.1356   20.9077 C   0  0  0  0  0  0  0  0  0  0  0  0
  -19.1233  -27.6999   22.8107 C   0  0  0  0  0  0  0  0  0  0  0  0
  -17.9434  -30.2231   22.9653 C   0  0  0  0  0  0  0  0  0  0  0  0
  -19.6999  -28.6920   23.6037 C   0  0  0  0  0  0  0  0  0  0  0  0
  -24.9428  -26.1388   20.7903 C   0  0  0  0  0  0  0  0  0  0  0  0
  -30.1961  -17.4850   20.9788 C   0  0  0  0  0  0  0  0  0  0  0  0
  -27.0786  -26.4816   20.3955 C   0  0  0  0  0  0  0  0  0  0  0  0
  -26.0846  -28.0665   22.0533 C   0  0  0  0  0  0  0  0  0  0  0  0
  -25.1620  -16.5168   20.0945 C   0  0  0  0  0  0  0  0  0  0  0  0
  -23.1923  -14.1911   21.2052 C   0  0  0  0  0  0  0  0  0  0  0  0
  -30.4856  -15.6234   22.6513 C   0  0  0  0  0  0  0  0  0  0  0  0
  -22.8568  -11.0435   22.4807 C   0  0  0  0  0  0  0  0  0  0  0  0
  -28.2746  -21.1364   18.0071 C   0  0  0  0  0  0  0  0  0  0  0  0
  -22.8497  -21.3172   20.7844 C   0  0  0  0  0  0  0  0  0  0  0  0
  -25.8976  -14.5355   18.7200 C   0  0  0  0  0  0  0  0  0  0  0  0
  -25.6633  -13.8553   21.5883 C   0  0  0  0  0  0  0  0  0  0  0  0
  -23.7751  -20.6035   21.7645 C   0  0  0  0  0  0  0  0  0  0  0  0
  -28.0281  -24.2365   16.2733 C   0  0  0  0  0  0  0  0  0  0  0  0
  -23.8375  -19.1198   21.4339 C   0  0  0  0  0  0  0  0  0  0  0  0
  -27.3132  -25.1529   17.2689 C   0  0  0  0  0  0  0  0  0  0  0  0
  -27.4976  -22.8053   16.3379 C   0  0  0  0  0  0  0  0  0  0  0  0
  -26.7797  -23.1207   18.6734 C   0  0  0  0  0  0  0  0  0  0  0  0
  -24.4372  -18.8956   20.0400 C   0  0  1  0  0  0  0  0  0  0  0  0
  -24.8108  -15.1411   19.6028 C   0  0  1  0  0  0  0  0  0  0  0  0
  -27.3247  -24.5582   18.6908 C   0  0  2  0  0  0  0  0  0  0  0  0
  -28.8256  -21.6026   22.5289 C   0  0  0  0  0  0  0  0  0  0  0  0
  -31.0671  -13.7152   24.1853 C   0  0  0  0  0  0  0  0  0  0  0  0
  -21.1265   -9.4351   23.3272 C   0  0  0  0  0  0  0  0  0  0  0  0
  -32.7959  -12.6882   21.6595 C   0  0  0  0  0  0  0  0  0  0  0  0
  -23.0038  -15.7686   23.8101 C   0  0  0  0  0  0  0  0  0  0  0  0
  -22.0842  -13.7142   24.9064 C   0  0  0  0  0  0  0  0  0  0  0  0
  -20.8417  -14.7853   23.0272 C   0  0  0  0  0  0  0  0  0  0  0  0
  -23.5060   -9.0603   20.3821 C   0  0  0  0  0  0  0  0  0  0  0  0
  -28.0733  -20.3108   22.2240 C   0  0  0  0  0  0  0  0  0  0  0  0
  -22.9762  -13.5207   22.5404 C   0  0  1  0  0  0  0  0  0  0  0  0
  -31.4624  -14.4664   22.9114 C   0  0  1  0  0  0  0  0  0  0  0  0
  -21.9212   -9.9043   22.1185 C   0  0  2  0  0  0  0  0  0  0  0  0
  -31.5441  -13.5576   21.6657 C   0  0  2  0  0  0  0  0  0  1  0  0
  -22.2517  -14.4466   23.5580 C   0  0  0  0  0  0  0  0  0  0  0  0
  -30.2901  -17.6960   19.6468 N   0  0  0  0  0  0  0  0  0  0  0  0
  -25.2718  -25.2039   19.8948 N   0  0  0  0  0  0  0  0  0  0  0  0
  -26.5766  -25.4384   19.6745 N   0  0  0  0  0  0  0  0  0  0  0  0
  -24.5231  -14.3258   20.7847 N   0  0  0  0  0  0  0  0  0  0  0  0
  -27.5428  -22.3067   17.7142 N   0  0  0  0  0  0  0  0  0  0  0  0
  -28.3726  -26.8527   20.2945 N   0  0  0  0  0  0  0  0  0  0  0  0
  -24.9147  -28.4291   22.7347 N   0  0  0  0  0  0  0  0  0  0  0  0
  -28.2722  -20.7770   19.3545 N   0  0  0  0  0  0  0  0  0  0  0  0
  -30.8574  -16.3625   21.5316 N   0  0  0  0  0  0  0  0  0  0  0  0
  -24.2872  -17.5029   19.6799 N   0  0  0  0  0  0  0  0  0  0  0  0
  -22.2729  -12.2733   22.2618 N   0  0  0  0  0  0  0  0  0  0  0  0
  -22.6956   -8.7471   21.5871 N   0  3  0  0  0  0  0  0  0  0  0  0
  -27.1364  -28.7220   22.2476 O   0  0  0  0  0  0  0  0  0  0  0  0
  -26.1525  -16.6720   20.7991 O   0  0  0  0  0  0  0  0  0  0  0  0
  -22.2161  -14.5744   20.5559 O   0  0  0  0  0  0  0  0  0  0  0  0
  -29.5079  -15.8120   23.3696 O   0  0  0  0  0  0  0  0  0  0  0  0
  -23.9908  -10.8608   22.9180 O   0  0  0  0  0  0  0  0  0  0  0  0
  -28.8827  -20.5152   17.1318 O   0  0  0  0  0  0  0  0  0  0  0  0
  -19.7083  -26.4471   22.7323 O   0  0  0  0  0  0  0  0  0  0  0  0
  -30.4147  -12.6881   21.5966 O   0  0  0  0  0  0  0  0  0  1  0  0
  -17.3777  -31.4350   23.0382 F   0  0  0  0  0  0  0  0  0  0  0  0
  -20.8212  -28.4394   24.2927 F   0  0  0  0  0  0  0  0  0  0  0  0
  1  2  1  0  0  0  0
  1  5  2  0  0  0  0
  2  6  2  0  0  0  0
  3  8  2  0  0  0  0
  3 17  1  0  0  0  0
  4  9  1  0  0  0  0
  4 17  2  0  0  0  0
  5 19  1  0  0  0  0
  6 21  1  0  0  0  0
  7 10  2  0  0  0  0
  7 20  1  0  0  0  0
  8 25  1  0  0  0  0
  9 25  2  0  0  0  0
 10 26  1  0  0  0  0
 11 12  2  0  0  0  0
 11 27  1  0  0  0  0
 12 28  1  0  0  0  0
 13 22  1  0  0  0  0
 13 26  2  0  0  0  0
 14 23  1  0  0  0  0
 14 31  2  0  0  0  0
 15 28  2  0  0  0  0
 15 29  1  0  0  0  0
 16 24  1  0  0  0  0
 16 65  2  0  0  0  0
 17 30  1  0  0  0  0
 18 30  1  0  0  0  0
 18 32  2  0  0  0  0
 18 33  1  0  0  0  0
 19 21  2  0  0  0  0
 19 39  1  0  0  0  0
 20 22  2  0  0  0  0
 20 40  1  0  0  0  0
 21 48  1  0  0  0  0
 22 41  1  0  0  0  0
 23 24  2  0  0  0  0
 23 59  1  0  0  0  0
 24 72  1  0  0  0  0
 25 83  1  0  0  0  0
 26 84  1  0  0  0  0
 27 29  2  0  0  0  0
 27 83  1  0  0  0  0
 28 85  1  0  0  0  0
 29 86  1  0  0  0  0
 30 66  2  0  0  0  0
 31 65  1  0  0  0  0
 31 73  1  0  0  0  0
 32 67  1  0  0  0  0
 32 70  1  0  0  0  0
 33 71  1  0  0  0  0
 33 77  2  0  0  0  0
 34 49  1  0  0  0  0
 34 74  1  0  0  0  0
 34 78  2  0  0  0  0
 35 60  1  0  0  0  0
 35 68  1  0  0  0  0
 35 79  2  0  0  0  0
 36 61  1  0  0  0  0
 36 73  1  0  0  0  0
 36 80  2  0  0  0  0
 37 62  1  0  0  0  0
 37 75  1  0  0  0  0
 37 81  2  0  0  0  0
 38 69  1  0  0  0  0
 38 72  1  0  0  0  0
 38 82  2  0  0  0  0
 39 42  1  0  0  0  0
 40 49  1  0  0  0  0
 41 68  1  0  0  0  0
 42 44  1  0  0  0  0
 43 45  1  0  0  0  0
 43 46  1  0  0  0  0
 44 48  1  0  0  0  0
 45 50  1  0  0  0  0
 46 69  1  0  0  0  0
 47 50  1  0  0  0  0
 47 69  1  0  0  0  0
 48 74  1  0  0  0  0
 49 68  1  0  0  0  0
 50 67  1  0  0  0  0
 51 59  1  0  0  0  0
 52 61  1  0  0  0  0
 53 62  1  0  0  0  0
 54 63  1  0  0  0  0
 55 64  1  0  0  0  0
 56 64  1  0  0  0  0
 57 64  1  0  0  0  0
 58 76  1  0  0  0  0
 60 64  1  0  0  0  0
 60 75  1  0  0  0  0
 61 63  1  0  0  0  0
 62 76  1  0  0  0  0
 63 84  1  0  0  0  0
 66 67  1  0  0  0  0
M  CHG  1  76   1
M  ISO  4  38 100  63 101  72 100  84 101
M  END
> <Batch ID>
0186

> <Smiles>
CCc1cc(NC(=O)C(C)[101CH:1](C)[101O:1]c2ccc3c(c2)CN(C(=O)C(NC(=O)C(C)NC)C(C)(C)C)C(C(=O)NC2CCCc4ccccc42)C3)ncc1[100NH:0][100C:0](=O)N1CCCC(n2nc(-c3ccc(Oc4ccc(F)cc4F)cc3)c(C(N)=O)c2N)C1

> <Shape>
0.249

> <Color>
0.076

> <Negative vol penalty>
0.000

$$$$

  -OEChem-04052305093D

 82 89  0     1  0  0  0  0  0999 V2000
  -17.0224  -28.5441   19.6903 C   0  0  0  0  0  0  0  0  0  0  0  0
  -18.3459  -28.3925   19.2893 C   0  0  0  0  0  0  0  0  0  0  0  0
  -24.4599  -14.2859   21.3764 C   0  0  0  0  0  0  0  0  0  0  0  0
  -26.6048  -14.0151   20.2979 C   0  0  0  0  0  0  0  0  0  0  0  0
  -16.7206  -28.7297   21.0387 C   0  0  0  0  0  0  0  0  0  0  0  0
  -19.3685  -28.4276   20.2367 C   0  0  0  0  0  0  0  0  0  0  0  0
  -24.5790  -25.2106   20.1499 C   0  0  0  0  0  0  0  0  0  0  0  0
  -24.0443  -13.0596   20.8579 C   0  0  0  0  0  0  0  0  0  0  0  0
  -26.1892  -12.7887   19.7794 C   0  0  0  0  0  0  0  0  0  0  0  0
  -25.8749  -25.5345   19.7503 C   0  0  0  0  0  0  0  0  0  0  0  0
  -22.5465   -9.8316   20.1150 C   0  0  0  0  0  0  0  0  0  0  0  0
  -21.8831   -8.9556   20.9740 C   0  0  0  0  0  0  0  0  0  0  0  0
  -26.4445  -26.0506   22.0368 C   0  0  0  0  0  0  0  0  0  0  0  0
  -23.8199   -8.9040   22.4173 C   0  0  0  0  0  0  0  0  0  0  0  0
  -25.7401  -14.7638   21.0964 C   0  0  0  0  0  0  0  0  0  0  0  0
  -26.8169  -16.2592   22.8604 C   0  0  0  0  0  0  0  0  0  0  0  0
  -17.7393  -28.7573   22.0042 C   0  0  0  0  0  0  0  0  0  0  0  0
  -24.2025  -25.3149   21.4966 C   0  0  0  0  0  0  0  0  0  0  0  0
  -19.0802  -28.6150   21.5992 C   0  0  0  0  0  0  0  0  0  0  0  0
  -25.1440  -25.7250   22.4513 C   0  0  0  0  0  0  0  0  0  0  0  0
  -24.9089  -12.3109   20.0594 C   0  0  0  0  0  0  0  0  0  0  0  0
  -26.8070  -25.9574   20.6933 C   0  0  0  0  0  0  0  0  0  0  0  0
  -23.8468  -10.2437   20.4070 C   0  0  0  0  0  0  0  0  0  0  0  0
  -22.5197   -8.4918   22.1252 C   0  0  0  0  0  0  0  0  0  0  0  0
  -24.4834   -9.7800   21.5582 C   0  0  0  0  0  0  0  0  0  0  0  0
  -26.1698  -16.0308   21.6312 C   0  0  0  0  0  0  0  0  0  0  0  0
  -27.0093  -17.6186   22.8998 C   0  0  0  0  0  0  0  0  0  0  0  0
  -27.2091  -15.3260   23.8758 C   0  0  0  0  0  0  0  0  0  0  0  0
  -22.0623  -27.0323   23.1009 C   0  0  0  0  0  0  0  0  0  0  0  0
  -23.0252  -25.1886   25.5900 C   0  0  0  0  0  0  0  0  0  0  0  0
  -30.9119  -25.7984   19.9673 C   0  0  0  0  0  0  0  0  0  0  0  0
  -25.4597  -23.2456   26.9846 C   0  0  0  0  0  0  0  0  0  0  0  0
  -28.7829  -22.1830   20.0123 C   0  0  0  0  0  0  0  0  0  0  0  0
  -17.3679  -29.0078   23.4444 C   0  0  0  0  0  0  0  0  0  0  0  0
  -22.8084  -24.9361   21.9154 C   0  0  0  0  0  0  0  0  0  0  0  0
  -24.7958  -25.8342   23.9126 C   0  0  0  0  0  0  0  0  0  0  0  0
  -18.4800  -28.6580   24.4298 C   0  0  0  0  0  0  0  0  0  0  0  0
  -25.1870  -21.3057   19.9707 C   0  0  0  0  0  0  0  0  0  0  0  0
  -19.8138  -29.2235   23.9523 C   0  0  0  0  0  0  0  0  0  0  0  0
  -25.1940  -19.8498   20.4335 C   0  0  0  0  0  0  0  0  0  0  0  0
  -26.4852  -21.6822   19.2631 C   0  0  0  0  0  0  0  0  0  0  0  0
  -27.7163  -19.9487   20.5254 C   0  0  0  0  0  0  0  0  0  0  0  0
  -20.2154  -28.6225   22.5999 C   0  0  1  0  0  0  0  0  0  0  0  0
  -22.3880  -25.5718   23.2370 C   0  0  1  0  0  0  0  0  0  0  0  0
  -26.4411  -19.5502   21.2833 C   0  0  2  0  0  0  0  0  0  0  0  0
  -30.2084  -28.1808   19.7159 C   0  0  0  0  0  0  0  0  0  0  0  0
  -26.5379  -21.6884   28.6308 C   0  0  0  0  0  0  0  0  0  0  0  0
  -33.1504  -23.4749   20.4324 C   0  0  0  0  0  0  0  0  0  0  0  0
  -31.5376  -20.9131   20.6515 C   0  0  0  0  0  0  0  0  0  0  0  0
  -23.5498  -27.7672   27.1346 C   0  0  0  0  0  0  0  0  0  0  0  0
  -24.9153  -26.4358   28.7565 C   0  0  0  0  0  0  0  0  0  0  0  0
  -22.4855  -25.9452   28.4770 C   0  0  0  0  0  0  0  0  0  0  0  0
  -28.9465  -22.1086   22.4714 C   0  0  0  0  0  0  0  0  0  0  0  0
  -24.4468  -20.8554   25.5633 C   0  0  0  0  0  0  0  0  0  0  0  0
  -28.9759  -26.7009   21.3248 C   0  0  0  0  0  0  0  0  0  1  0  0
  -24.1006  -25.2929   26.6444 C   0  0  1  0  0  0  0  0  0  0  0  0
  -30.3351  -27.0153   20.6958 C   0  0  1  0  0  0  0  0  0  0  0  0
  -25.4057  -21.8739   27.6326 C   0  0  2  0  0  0  0  0  0  0  0  0
  -31.6240  -23.4440   20.3721 C   0  0  1  0  0  0  0  0  0  0  0  0
  -31.0338  -22.2609   21.1655 C   0  0  1  0  0  0  0  0  0  0  0  0
  -23.7691  -26.3602   27.7254 C   0  0  0  0  0  0  0  0  0  0  0  0
  -25.9646  -17.1550   20.9398 N   0  0  0  0  0  0  0  0  0  0  0  0
  -26.4857  -18.1030   21.7372 N   0  0  0  0  0  0  0  0  0  0  0  0
  -23.4182  -25.4588   24.2715 N   0  0  0  0  0  0  0  0  0  0  0  0
  -27.6558  -21.3472   20.0747 N   0  0  0  0  0  0  0  0  0  0  0  0
  -27.5734  -18.4349   23.8151 N   0  0  0  0  0  0  0  0  0  0  0  0
  -26.9356  -13.9661   23.6750 N   0  0  0  0  0  0  0  0  0  0  0  0
  -20.7432  -27.2867   22.7772 N   0  0  0  0  0  0  0  0  0  0  0  0
  -24.2866  -23.9456   27.1723 N   0  0  0  0  0  0  0  0  0  0  0  0
  -31.0872  -24.7117   20.8121 N   0  0  0  0  0  0  0  0  0  0  0  0
  -29.5726  -22.2791   21.1680 N   0  0  0  0  0  0  0  0  0  0  0  0
  -25.5124  -20.8073   26.5973 N   0  3  0  0  0  0  0  0  0  0  0  0
  -27.7703  -15.6892   24.9372 O   0  0  0  0  0  0  0  0  0  0  0  0
  -22.9421  -27.8667   23.2779 O   0  0  0  0  0  0  0  0  0  0  0  0
  -21.8805  -24.8720   25.9230 O   0  0  0  0  0  0  0  0  0  0  0  0
  -31.1877  -25.8083   18.7696 O   0  0  0  0  0  0  0  0  0  0  0  0
  -26.4453  -23.6565   26.3762 O   0  0  0  0  0  0  0  0  0  0  0  0
  -29.0617  -22.8152   18.9854 O   0  0  0  0  0  0  0  0  0  0  0  0
  -24.5038  -11.1141   19.5535 O   0  0  0  0  0  0  0  0  0  0  0  0
  -28.0723  -26.2748   20.3059 O   0  0  0  0  0  0  0  0  0  1  0  0
  -21.8819   -7.6519   22.9509 F   0  0  0  0  0  0  0  0  0  0  0  0
  -25.7320  -10.1734   21.8446 F   0  0  0  0  0  0  0  0  0  0  0  0
  1  2  1  0  0  0  0
  1  5  2  0  0  0  0
  2  6  2  0  0  0  0
  3  8  2  0  0  0  0
  3 15  1  0  0  0  0
  4  9  1  0  0  0  0
  4 15  2  0  0  0  0
  5 17  1  0  0  0  0
  6 19  1  0  0  0  0
  7 10  2  0  0  0  0
  7 18  1  0  0  0  0
  8 21  1  0  0  0  0
  9 21  2  0  0  0  0
 10 22  1  0  0  0  0
 11 12  2  0  0  0  0
 11 23  1  0  0  0  0
 12 24  1  0  0  0  0
 13 20  1  0  0  0  0
 13 22  2  0  0  0  0
 14 24  2  0  0  0  0
 14 25  1  0  0  0  0
 15 26  1  0  0  0  0
 16 26  1  0  0  0  0
 16 27  2  0  0  0  0
 16 28  1  0  0  0  0
 17 19  2  0  0  0  0
 17 34  1  0  0  0  0
 18 20  2  0  0  0  0
 18 35  1  0  0  0  0
 19 43  1  0  0  0  0
 20 36  1  0  0  0  0
 21 79  1  0  0  0  0
 22 80  1  0  0  0  0
 23 25  2  0  0  0  0
 23 79  1  0  0  0  0
 24 81  1  0  0  0  0
 25 82  1  0  0  0  0
 26 62  2  0  0  0  0
 27 63  1  0  0  0  0
 27 66  1  0  0  0  0
 28 67  1  0  0  0  0
 28 73  2  0  0  0  0
 29 44  1  0  0  0  0
 29 68  1  0  0  0  0
 29 74  2  0  0  0  0
 30 56  1  0  0  0  0
 30 64  1  0  0  0  0
 30 75  2  0  0  0  0
 31 57  1  0  0  0  0
 31 70  1  0  0  0  0
 31 76  2  0  0  0  0
 32 58  1  0  0  0  0
 32 69  1  0  0  0  0
 32 77  2  0  0  0  0
 33 65  1  0  0  0  0
 33 71  1  0  0  0  0
 33 78  2  0  0  0  0
 34 37  1  0  0  0  0
 35 44  1  0  0  0  0
 36 64  1  0  0  0  0
 37 39  1  0  0  0  0
 38 40  1  0  0  0  0
 38 41  1  0  0  0  0
 39 43  1  0  0  0  0
 40 45  1  0  0  0  0
 41 65  1  0  0  0  0
 42 45  1  0  0  0  0
 42 65  1  0  0  0  0
 43 68  1  0  0  0  0
 44 64  1  0  0  0  0
 45 63  1  0  0  0  0
 46 57  1  0  0  0  0
 47 58  1  0  0  0  0
 48 59  1  0  0  0  0
 49 60  1  0  0  0  0
 50 61  1  0  0  0  0
 51 61  1  0  0  0  0
 52 61  1  0  0  0  0
 53 71  1  0  0  0  0
 54 72  1  0  0  0  0
 55 57  1  0  0  0  0
 55 80  1  0  0  0  0
 56 61  1  0  0  0  0
 56 69  1  0  0  0  0
 58 72  1  0  0  0  0
 59 60  1  0  0  0  0
 59 70  1  0  0  0  0
 60 71  1  0  0  0  0
 62 63  1  0  0  0  0
M  CHG  1  72   1
M  ISO  4  33 100  55 101  71 100  80 101
M  END
> <Batch ID>
0186

> <Smiles>
CNC(C)C(=O)NC(C(=O)N1Cc2cc([101O:1][101CH2:1]C(C)C(=O)NC(C)C(C)[100N:0](C)[100C:0](=O)N3CCCC(n4nc(-c5ccc(Oc6ccc(F)cc6F)cc5)c(C(N)=O)c4N)C3)ccc2CC1C(=O)NC1CCCc2ccccc21)C(C)(C)C

> <Shape>
0.200

> <Color>
0.083

> <Negative vol penalty>
0.000

$$$$

  -OEChem-04052305093D

 85 93  0     1  0  0  0  0  0999 V2000
  -16.4776  -28.2728   23.0767 C   0  0  0  0  0  0  0  0  0  0  0  0
  -16.1378  -26.9495   22.8144 C   0  0  0  0  0  0  0  0  0  0  0  0
  -27.6652  -23.2923   20.4479 C   0  0  0  0  0  0  0  0  0  0  0  0
  -29.2075  -23.4732   18.5970 C   0  0  0  0  0  0  0  0  0  0  0  0
  -17.8126  -28.6716   23.0269 C   0  0  0  0  0  0  0  0  0  0  0  0
  -17.1329  -26.0244   22.5008 C   0  0  0  0  0  0  0  0  0  0  0  0
  -18.7577  -19.0917   23.2844 C   0  0  0  0  0  0  0  0  0  0  0  0
  -27.6820  -24.6790   20.5974 C   0  0  0  0  0  0  0  0  0  0  0  0
  -29.2243  -24.8599   18.7465 C   0  0  0  0  0  0  0  0  0  0  0  0
  -19.1423  -17.9837   22.5307 C   0  0  0  0  0  0  0  0  0  0  0  0
  -26.2723  -27.3630   19.1000 C   0  0  0  0  0  0  0  0  0  0  0  0
  -25.0503  -28.0101   19.2829 C   0  0  0  0  0  0  0  0  0  0  0  0
  -21.4231  -18.7688   22.5514 C   0  0  0  0  0  0  0  0  0  0  0  0
  -25.8133  -28.8481   21.4166 C   0  0  0  0  0  0  0  0  0  0  0  0
  -28.4280  -22.6894   19.4477 C   0  0  0  0  0  0  0  0  0  0  0  0
  -27.5381  -20.4984   18.4909 C   0  0  0  0  0  0  0  0  0  0  0  0
  -18.8256  -27.7488   22.7220 C   0  0  0  0  0  0  0  0  0  0  0  0
  -19.7027  -20.0538   23.6688 C   0  0  0  0  0  0  0  0  0  0  0  0
  -18.4827  -26.4115   22.4455 C   0  0  0  0  0  0  0  0  0  0  0  0
  -21.0484  -19.8868   23.3122 C   0  0  0  0  0  0  0  0  0  0  0  0
  -28.4615  -25.4628   19.7467 C   0  0  0  0  0  0  0  0  0  0  0  0
  -20.4746  -17.8236   22.1615 C   0  0  0  0  0  0  0  0  0  0  0  0
  -27.2649  -27.4584   20.0755 C   0  0  0  0  0  0  0  0  0  0  0  0
  -24.8208  -28.7527   20.4412 C   0  0  0  0  0  0  0  0  0  0  0  0
  -27.0354  -28.2010   21.2338 C   0  0  0  0  0  0  0  0  0  0  0  0
  -28.4116  -21.2569   19.2932 C   0  0  0  0  0  0  0  0  0  0  0  0
  -26.1444  -13.5316   21.1949 C   0  0  0  0  0  0  0  0  0  0  0  0
  -25.2540  -12.4839   21.0879 C   0  0  0  0  0  0  0  0  0  0  0  0
  -27.9312  -19.1976   18.6903 C   0  0  0  0  0  0  0  0  0  0  0  0
  -23.9172  -14.1154   20.4871 C   0  0  0  0  0  0  0  0  0  0  0  0
  -26.4672  -20.9310   17.6414 C   0  0  0  0  0  0  0  0  0  0  0  0
  -27.5744  -13.5445   21.5973 C   0  0  0  0  0  0  0  0  0  0  0  0
  -20.1022  -23.1563   23.1039 C   0  0  0  0  0  0  0  0  0  0  0  0
  -22.5103  -22.8398   25.2541 C   0  0  0  0  0  0  0  0  0  0  0  0
  -21.5216  -14.4162   19.7671 C   0  0  0  0  0  0  0  0  0  0  0  0
  -24.7660  -20.7965   26.7979 C   0  0  0  0  0  0  0  0  0  0  0  0
  -29.5119  -15.0339   21.9864 C   0  0  0  0  0  0  0  0  0  0  0  0
  -20.2498  -28.2371   22.6336 C   0  0  0  0  0  0  0  0  0  0  0  0
  -19.2764  -21.2295   24.5045 C   0  0  0  0  0  0  0  0  0  0  0  0
  -22.1053  -20.8806   23.7169 C   0  0  0  0  0  0  0  0  0  0  0  0
  -21.2820  -27.1128   22.6614 C   0  0  0  0  0  0  0  0  0  0  0  0
  -32.0291  -17.3071   20.9898 C   0  0  0  0  0  0  0  0  0  0  0  0
  -20.8761  -25.9917   21.7099 C   0  0  0  0  0  0  0  0  0  0  0  0
  -31.2432  -18.4738   20.3852 C   0  0  0  0  0  0  0  0  0  0  0  0
  -31.3199  -16.7156   22.2072 C   0  0  0  0  0  0  0  0  0  0  0  0
  -29.1368  -17.5035   21.3879 C   0  0  0  0  0  0  0  0  0  0  0  0
  -19.5361  -25.3730   22.1261 C   0  0  1  0  0  0  0  0  0  0  0  0
  -20.2336  -22.4131   24.4032 C   0  0  1  0  0  0  0  0  0  0  0  0
  -29.7746  -18.0881   20.1172 C   0  0  1  0  0  0  0  0  0  0  0  0
  -25.5458  -11.0623   21.3645 C   0  0  0  0  0  0  0  0  0  0  0  0
  -19.5794  -15.0435   18.3239 C   0  0  0  0  0  0  0  0  0  0  0  0
  -26.6273  -20.8325   28.4807 C   0  0  0  0  0  0  0  0  0  0  0  0
  -24.3628  -24.0870   23.1750 C   0  0  0  0  0  0  0  0  0  0  0  0
  -26.3089  -23.2374   24.5012 C   0  0  0  0  0  0  0  0  0  0  0  0
  -24.7345  -24.8850   25.5158 C   0  0  0  0  0  0  0  0  0  0  0  0
  -23.3322  -18.9337   28.5960 C   0  0  0  0  0  0  0  0  0  0  0  0
  -19.8840  -16.1949   20.5323 C   0  0  0  0  0  0  0  0  0  1  0  0
  -23.9782  -22.4970   25.1725 C   0  0  1  0  0  0  0  0  0  0  0  0
  -20.5998  -15.5650   19.3349 C   0  0  1  0  0  0  0  0  0  0  0  0
  -25.1365  -20.6280   28.2604 C   0  0  2  0  0  0  0  0  0  0  0  0
  -24.8261  -23.6587   24.5817 C   0  0  0  0  0  0  0  0  0  0  0  0
  -29.2930  -20.5009   19.9532 N   0  0  0  0  0  0  0  0  0  0  0  0
  -23.9762  -12.8168   20.6825 N   0  0  0  0  0  0  0  0  0  0  0  0
  -28.9753  -19.2538   19.5660 N   0  0  0  0  0  0  0  0  0  0  0  0
  -21.6377  -22.0167   24.5282 N   0  0  0  0  0  0  0  0  0  0  0  0
  -29.9388  -16.3681   21.8680 N   0  0  0  0  0  0  0  0  0  0  0  0
  -27.4821  -18.0226   18.2003 N   0  0  0  0  0  0  0  0  0  0  0  0
  -26.1980  -22.3036   17.5521 N   0  0  0  0  0  0  0  0  0  0  0  0
  -22.8010  -14.8771   20.0661 N   0  0  0  0  0  0  0  0  0  0  0  0
  -28.1885  -14.7972   21.5980 N   0  0  0  0  0  0  0  0  0  0  0  0
  -19.7199  -24.4764   23.2471 N   0  0  0  0  0  0  0  0  0  0  0  0
  -24.3773  -22.0888   26.5151 N   0  0  0  0  0  0  0  0  0  0  0  0
  -24.7747  -19.2615   28.7323 N   0  3  0  0  0  0  0  0  0  0  0  0
  -25.7592  -20.1231   16.9937 O   0  0  0  0  0  0  0  0  0  0  0  0
  -28.1101  -12.4924   21.9350 O   0  0  0  0  0  0  0  0  0  0  0  0
  -20.3322  -22.5754   22.0497 O   0  0  0  0  0  0  0  0  0  0  0  0
  -22.1504  -23.7981   25.9424 O   0  0  0  0  0  0  0  0  0  0  0  0
  -21.1257  -13.2551   19.8148 O   0  0  0  0  0  0  0  0  0  0  0  0
  -24.8199  -19.8747   25.9867 O   0  0  0  0  0  0  0  0  0  0  0  0
  -30.2555  -14.1249   22.3685 O   0  0  0  0  0  0  0  0  0  0  0  0
  -28.4779  -26.8160   19.8921 O   0  0  0  0  0  0  0  0  0  0  0  0
  -20.8526  -16.7434   21.4252 O   0  0  0  0  0  0  0  0  0  1  0  0
  -23.6478  -29.3753   20.6160 F   0  0  0  0  0  0  0  0  0  0  0  0
  -27.9856  -28.2972   22.1738 F   0  0  0  0  0  0  0  0  0  0  0  0
  -25.3615  -14.9976   20.7714 S   0  0  0  0  0  0  0  0  0  0  0  0
  1  2  1  0  0  0  0
  1  5  2  0  0  0  0
  2  6  2  0  0  0  0
  3  8  2  0  0  0  0
  3 15  1  0  0  0  0
  4  9  1  0  0  0  0
  4 15  2  0  0  0  0
  5 17  1  0  0  0  0
  6 19  1  0  0  0  0
  7 10  2  0  0  0  0
  7 18  1  0  0  0  0
  8 21  1  0  0  0  0
  9 21  2  0  0  0  0
 10 22  1  0  0  0  0
 11 12  2  0  0  0  0
 11 23  1  0  0  0  0
 12 24  1  0  0  0  0
 13 20  1  0  0  0  0
 13 22  2  0  0  0  0
 14 24  2  0  0  0  0
 14 25  1  0  0  0  0
 15 26  1  0  0  0  0
 16 26  1  0  0  0  0
 16 29  2  0  0  0  0
 16 31  1  0  0  0  0
 17 19  2  0  0  0  0
 17 38  1  0  0  0  0
 18 20  2  0  0  0  0
 18 39  1  0  0  0  0
 19 47  1  0  0  0  0
 20 40  1  0  0  0  0
 21 81  1  0  0  0  0
 22 82  1  0  0  0  0
 23 25  2  0  0  0  0
 23 81  1  0  0  0  0
 24 83  1  0  0  0  0
 25 84  1  0  0  0  0
 26 62  2  0  0  0  0
 27 28  2  0  0  0  0
 27 32  1  0  0  0  0
 27 85  1  0  0  0  0
 28 50  1  0  0  0  0
 28 63  1  0  0  0  0
 29 64  1  0  0  0  0
 29 67  1  0  0  0  0
 30 63  2  0  0  0  0
 30 69  1  0  0  0  0
 30 85  1  0  0  0  0
 31 68  1  0  0  0  0
 31 74  2  0  0  0  0
 32 70  1  0  0  0  0
 32 75  2  0  0  0  0
 33 48  1  0  0  0  0
 33 71  1  0  0  0  0
 33 76  2  0  0  0  0
 34 58  1  0  0  0  0
 34 65  1  0  0  0  0
 34 77  2  0  0  0  0
 35 59  1  0  0  0  0
 35 69  1  0  0  0  0
 35 78  2  0  0  0  0
 36 60  1  0  0  0  0
 36 72  1  0  0  0  0
 36 79  2  0  0  0  0
 37 66  1  0  0  0  0
 37 70  1  0  0  0  0
 37 80  2  0  0  0  0
 38 41  1  0  0  0  0
 39 48  1  0  0  0  0
 40 65  1  0  0  0  0
 41 43  1  0  0  0  0
 42 44  1  0  0  0  0
 42 45  1  0  0  0  0
 43 47  1  0  0  0  0
 44 49  1  0  0  0  0
 45 66  1  0  0  0  0
 46 49  1  0  0  0  0
 46 66  1  0  0  0  0
 47 71  1  0  0  0  0
 48 65  1  0  0  0  0
 49 64  1  0  0  0  0
 51 59  1  0  0  0  0
 52 60  1  0  0  0  0
 53 61  1  0  0  0  0
 54 61  1  0  0  0  0
 55 61  1  0  0  0  0
 56 73  1  0  0  0  0
 57 59  1  0  0  0  0
 57 82  1  0  0  0  0
 58 61  1  0  0  0  0
 58 72  1  0  0  0  0
 60 73  1  0  0  0  0
 62 64  1  0  0  0  0
M  CHG  1  73   1
M  ISO  4  37 100  57 101  70 100  82 101
M  END
> <Batch ID>
0186

> <Smiles>
CNC(C)C(=O)NC(C(=O)N1Cc2cc([101O:1][101CH2:1]C(C)C(=O)Nc3nc(C)c(C(=O)[100NH:0][100C:0](=O)N4CCCC(n5nc(-c6ccc(Oc7ccc(F)cc7F)cc6)c(C(N)=O)c5N)C4)s3)ccc2CC1C(=O)NC1CCCc2ccccc21)C(C)(C)C

> <Shape>
0.233

> <Color>
0.067

> <Negative vol penalty>
0.000

$$$$

  -OEChem-04052305093D

 86 94  0     1  0  0  0  0  0999 V2000
  -16.5743  -30.5056   23.2325 C   0  0  0  0  0  0  0  0  0  0  0  0
  -17.6899  -31.2755   23.5456 C   0  0  0  0  0  0  0  0  0  0  0  0
  -26.2898  -12.4412   21.4562 C   0  0  0  0  0  0  0  0  0  0  0  0
  -25.2398  -12.6650   19.2918 C   0  0  0  0  0  0  0  0  0  0  0  0
  -16.7203  -29.1449   22.9658 C   0  0  0  0  0  0  0  0  0  0  0  0
  -18.9522  -30.6849   23.5932 C   0  0  0  0  0  0  0  0  0  0  0  0
  -25.8491  -32.1415   22.3175 C   0  0  0  0  0  0  0  0  0  0  0  0
  -25.4376  -11.3796   21.7599 C   0  0  0  0  0  0  0  0  0  0  0  0
  -24.3875  -11.6034   19.5955 C   0  0  0  0  0  0  0  0  0  0  0  0
  -27.0966  -32.0738   22.9364 C   0  0  0  0  0  0  0  0  0  0  0  0
  -21.5766  -11.1048   21.4068 C   0  0  0  0  0  0  0  0  0  0  0  0
  -20.2229  -11.2539   21.1054 C   0  0  0  0  0  0  0  0  0  0  0  0
  -27.2389  -29.7309   22.3798 C   0  0  0  0  0  0  0  0  0  0  0  0
  -31.0303  -26.1887   21.4178 C   0  0  0  0  0  0  0  0  0  0  0  0
  -20.3381   -9.3366   19.6398 C   0  0  0  0  0  0  0  0  0  0  0  0
  -26.1909  -13.0839   20.2221 C   0  0  0  0  0  0  0  0  0  0  0  0
  -28.3324  -14.1082   19.2881 C   0  0  0  0  0  0  0  0  0  0  0  0
  -17.9863  -28.5393   23.0007 C   0  0  0  0  0  0  0  0  0  0  0  0
  -25.2813  -30.9999   21.7337 C   0  0  0  0  0  0  0  0  0  0  0  0
  -19.1151  -29.3145   23.3280 C   0  0  0  0  0  0  0  0  0  0  0  0
  -25.9852  -29.7873   21.7519 C   0  0  0  0  0  0  0  0  0  0  0  0
  -31.2240  -24.8566   20.9508 C   0  0  0  0  0  0  0  0  0  0  0  0
  -24.4864  -10.9606   20.8296 C   0  0  0  0  0  0  0  0  0  0  0  0
  -27.7904  -30.8677   22.9701 C   0  0  0  0  0  0  0  0  0  0  0  0
  -22.3111  -10.0717   20.8246 C   0  0  0  0  0  0  0  0  0  0  0  0
  -19.6036  -10.3698   20.2220 C   0  0  0  0  0  0  0  0  0  0  0  0
  -21.6918   -9.1876   19.9412 C   0  0  0  0  0  0  0  0  0  0  0  0
  -27.0706  -14.1810   19.9080 C   0  0  0  0  0  0  0  0  0  0  0  0
  -30.5459  -23.9354   21.7184 C   0  0  0  0  0  0  0  0  0  0  0  0
  -28.7557  -15.4129   19.2167 C   0  0  0  0  0  0  0  0  0  0  0  0
  -30.2111  -26.2350   22.5245 C   0  0  0  0  0  0  0  0  0  0  0  0
  -30.4864  -22.5308   21.5788 C   0  0  0  0  0  0  0  0  0  0  0  0
  -29.4327  -21.7127   21.9110 C   0  0  0  0  0  0  0  0  0  0  0  0
  -29.0571  -12.9635   18.8187 C   0  0  0  0  0  0  0  0  0  0  0  0
  -29.5202  -20.2545   21.6945 C   0  0  0  0  0  0  0  0  0  0  0  0
  -22.6464  -29.2958   22.2405 C   0  0  0  0  0  0  0  0  0  0  0  0
  -23.6119  -27.7321   19.5674 C   0  0  0  0  0  0  0  0  0  0  0  0
  -26.1731  -26.8566   17.4889 C   0  0  0  0  0  0  0  0  0  0  0  0
  -30.0514  -28.6790   23.1078 C   0  0  0  0  0  0  0  0  0  0  0  0
  -18.0882  -27.0553   22.7516 C   0  0  0  0  0  0  0  0  0  0  0  0
  -23.9468  -31.0957   21.0466 C   0  0  0  0  0  0  0  0  0  0  0  0
  -25.4285  -28.5377   21.1219 C   0  0  0  0  0  0  0  0  0  0  0  0
  -19.5096  -26.5836   22.4555 C   0  0  0  0  0  0  0  0  0  0  0  0
  -26.2932  -19.7367   20.0361 C   0  0  0  0  0  0  0  0  0  0  0  0
  -20.4909  -27.1847   23.4567 C   0  0  0  0  0  0  0  0  0  0  0  0
  -26.2987  -18.2218   19.8495 C   0  0  0  0  0  0  0  0  0  0  0  0
  -26.9961  -20.1564   21.3262 C   0  0  0  0  0  0  0  0  0  0  0  0
  -28.3892  -18.1081   21.2627 C   0  0  0  0  0  0  0  0  0  0  0  0
  -20.5043  -28.7153   23.3653 C   0  0  1  0  0  0  0  0  0  0  0  0
  -23.2343  -29.7513   20.9349 C   0  0  1  0  0  0  0  0  0  0  0  0
  -27.7284  -17.6665   19.9475 C   0  0  1  0  0  0  0  0  0  0  0  0
  -26.6593  -25.5417   15.4075 C   0  0  0  0  0  0  0  0  0  0  0  0
  -30.2821  -29.8014   25.3543 C   0  0  0  0  0  0  0  0  0  0  0  0
  -23.4008  -25.1380   21.1599 C   0  0  0  0  0  0  0  0  0  0  0  0
  -24.7723  -24.0205   19.3884 C   0  0  0  0  0  0  0  0  0  0  0  0
  -22.5486  -24.9937   18.8132 C   0  0  0  0  0  0  0  0  0  0  0  0
  -27.1396  -29.2596   16.0571 C   0  0  0  0  0  0  0  0  0  0  0  0
  -24.4930  -26.5390   19.2863 C   0  0  1  0  0  0  0  0  0  0  0  0
  -26.3057  -26.9066   15.9774 C   0  0  2  0  0  0  0  0  0  0  0  0
  -29.3718  -29.5501   24.1612 C   0  0  1  0  0  0  0  0  0  1  0  0
  -32.0625  -24.5231   19.7726 C   0  0  0  0  0  0  0  0  0  0  0  0
  -23.8136  -25.1957   19.6756 C   0  0  0  0  0  0  0  0  0  0  0  0
  -26.7156  -15.4329   20.2092 N   0  0  0  0  0  0  0  0  0  0  0  0
  -27.7606  -16.1588   19.7768 N   0  0  0  0  0  0  0  0  0  0  0  0
  -28.3392  -19.5655   21.4241 N   0  0  0  0  0  0  0  0  0  0  0  0
  -24.1174  -28.6807   20.4677 N   0  0  0  0  0  0  0  0  0  0  0  0
  -29.8784  -15.9833   18.7303 N   0  0  0  0  0  0  0  0  0  0  0  0
  -28.4765  -11.6969   18.9702 N   0  0  0  0  0  0  0  0  0  0  0  0
  -29.7624  -27.3317   23.2983 N   0  0  0  0  0  0  0  0  0  0  0  0
  -21.2728  -29.1464   22.2173 N   0  0  0  0  0  0  0  0  0  0  0  0
  -24.8700  -26.6323   17.8800 N   0  0  0  0  0  0  0  0  0  0  0  0
  -27.3710  -27.8710   15.5826 N   0  3  0  0  0  0  0  0  0  0  0  0
  -30.1932  -13.0595   18.2956 O   0  0  0  0  0  0  0  0  0  0  0  0
  -30.6346  -19.7341   21.7712 O   0  0  0  0  0  0  0  0  0  0  0  0
  -23.3844  -29.0934   23.1976 O   0  0  0  0  0  0  0  0  0  0  0  0
  -22.5186  -27.8228   19.0034 O   0  0  0  0  0  0  0  0  0  0  0  0
  -27.1303  -26.9983   18.2466 O   0  0  0  0  0  0  0  0  0  0  0  0
  -30.7403  -29.1742   22.2205 O   0  0  0  0  0  0  0  0  0  0  0  0
  -23.6548   -9.9246   21.1255 O   0  0  0  0  0  0  0  0  0  0  0  0
  -29.0079  -30.7988   23.5742 O   0  0  0  0  0  0  0  0  0  1  0  0
  -18.3033  -10.5121   19.9338 F   0  0  0  0  0  0  0  0  0  0  0  0
  -22.3920   -8.1925   19.3797 F   0  0  0  0  0  0  0  0  0  0  0  0
  -32.6348  -25.6123   19.1727 F   0  0  0  0  0  0  0  0  0  0  0  0
  -33.1107  -23.6898   20.0565 F   0  0  0  0  0  0  0  0  0  0  0  0
  -31.3613  -23.8938   18.7811 F   0  0  0  0  0  0  0  0  0  0  0  0
  -29.6799  -24.6769   22.9961 S   0  0  0  0  0  0  0  0  0  0  0  0
  1  2  1  0  0  0  0
  1  5  2  0  0  0  0
  2  6  2  0  0  0  0
  3  8  2  0  0  0  0
  3 16  1  0  0  0  0
  4  9  1  0  0  0  0
  4 16  2  0  0  0  0
  5 18  1  0  0  0  0
  6 20  1  0  0  0  0
  7 10  2  0  0  0  0
  7 19  1  0  0  0  0
  8 23  1  0  0  0  0
  9 23  2  0  0  0  0
 10 24  1  0  0  0  0
 11 12  2  0  0  0  0
 11 25  1  0  0  0  0
 12 26  1  0  0  0  0
 13 21  1  0  0  0  0
 13 24  2  0  0  0  0
 14 22  1  0  0  0  0
 14 31  2  0  0  0  0
 15 26  2  0  0  0  0
 15 27  1  0  0  0  0
 16 28  1  0  0  0  0
 17 28  1  0  0  0  0
 17 30  2  0  0  0  0
 17 34  1  0  0  0  0
 18 20  2  0  0  0  0
 18 40  1  0  0  0  0
 19 21  2  0  0  0  0
 19 41  1  0  0  0  0
 20 49  1  0  0  0  0
 21 42  1  0  0  0  0
 22 29  2  0  0  0  0
 22 61  1  0  0  0  0
 23 79  1  0  0  0  0
 24 80  1  0  0  0  0
 25 27  2  0  0  0  0
 25 79  1  0  0  0  0
 26 81  1  0  0  0  0
 27 82  1  0  0  0  0
 28 63  2  0  0  0  0
 29 32  1  0  0  0  0
 29 86  1  0  0  0  0
 30 64  1  0  0  0  0
 30 67  1  0  0  0  0
 31 69  1  0  0  0  0
 31 86  1  0  0  0  0
 32 33  2  0  0  0  0
 33 35  1  0  0  0  0
 34 68  1  0  0  0  0
 34 73  2  0  0  0  0
 35 65  1  0  0  0  0
 35 74  2  0  0  0  0
 36 50  1  0  0  0  0
 36 70  1  0  0  0  0
 36 75  2  0  0  0  0
 37 58  1  0  0  0  0
 37 66  1  0  0  0  0
 37 76  2  0  0  0  0
 38 59  1  0  0  0  0
 38 71  1  0  0  0  0
 38 77  2  0  0  0  0
 39 60  1  0  0  0  0
 39 69  1  0  0  0  0
 39 78  2  0  0  0  0
 40 43  1  0  0  0  0
 41 50  1  0  0  0  0
 42 66  1  0  0  0  0
 43 45  1  0  0  0  0
 44 46  1  0  0  0  0
 44 47  1  0  0  0  0
 45 49  1  0  0  0  0
 46 51  1  0  0  0  0
 47 65  1  0  0  0  0
 48 51  1  0  0  0  0
 48 65  1  0  0  0  0
 49 70  1  0  0  0  0
 50 66  1  0  0  0  0
 51 64  1  0  0  0  0
 52 59  1  0  0  0  0
 53 60  1  0  0  0  0
 54 62  1  0  0  0  0
 55 62  1  0  0  0  0
 56 62  1  0  0  0  0
 57 72  1  0  0  0  0
 58 62  1  0  0  0  0
 58 71  1  0  0  0  0
 59 72  1  0  0  0  0
 60 80  1  0  0  0  0
 61 83  1  0  0  0  0
 61 84  1  0  0  0  0
 61 85  1  0  0  0  0
 63 64  1  0  0  0  0
M  CHG  1  72   1
M  ISO  4  33 100  35 100  60 101  80 101
M  END
> <Batch ID>
0186

> <Smiles>
CNC(C)C(=O)NC(C(=O)N1Cc2cc([101O:1][101CH:1](C)C(=O)Nc3cc(C(F)(F)F)c(C=[100CH:0][100C:0](=O)N4CCCC(n5nc(-c6ccc(Oc7ccc(F)cc7F)cc6)c(C(N)=O)c5N)C4)s3)ccc2CC1C(=O)NC1CCCc2ccccc21)C(C)(C)C

> <Shape>
0.291

> <Color>
0.101

> <Negative vol penalty>
0.000

$$$$

  -OEChem-04052305093D

 87 95  0     1  0  0  0  0  0999 V2000
  -20.7646  -27.4405   20.5869 C   0  0  0  0  0  0  0  0  0  0  0  0
  -21.0983  -26.5766   21.6251 C   0  0  0  0  0  0  0  0  0  0  0  0
  -22.9890   -9.9121   19.9855 C   0  0  0  0  0  0  0  0  0  0  0  0
  -23.7250   -9.9534   22.2863 C   0  0  0  0  0  0  0  0  0  0  0  0
  -21.7555  -27.9068   19.7240 C   0  0  0  0  0  0  0  0  0  0  0  0
  -22.4229  -26.1776   21.8003 C   0  0  0  0  0  0  0  0  0  0  0  0
  -25.2625  -25.0705   27.1122 C   0  0  0  0  0  0  0  0  0  0  0  0
  -22.2192   -8.7799   20.2521 C   0  0  0  0  0  0  0  0  0  0  0  0
  -22.9552   -8.8212   22.5529 C   0  0  0  0  0  0  0  0  0  0  0  0
  -25.5391  -23.8895   27.7996 C   0  0  0  0  0  0  0  0  0  0  0  0
  -23.1841   -5.4827   22.0701 C   0  0  0  0  0  0  0  0  0  0  0  0
  -23.7711   -4.4610   22.8165 C   0  0  0  0  0  0  0  0  0  0  0  0
  -27.7433  -23.8429   26.8204 C   0  0  0  0  0  0  0  0  0  0  0  0
  -22.0560   -4.7058   24.5004 C   0  0  0  0  0  0  0  0  0  0  0  0
  -23.7419  -10.4989   21.0026 C   0  0  0  0  0  0  0  0  0  0  0  0
  -24.1364  -13.0134   20.8322 C   0  0  0  0  0  0  0  0  0  0  0  0
  -23.0944  -27.5210   19.8945 C   0  0  0  0  0  0  0  0  0  0  0  0
  -26.2219  -25.6417   26.2638 C   0  0  0  0  0  0  0  0  0  0  0  0
  -23.4323  -26.6382   20.9379 C   0  0  0  0  0  0  0  0  0  0  0  0
  -27.4773  -25.0326   26.1253 C   0  0  0  0  0  0  0  0  0  0  0  0
  -29.6135  -17.6740   23.9985 C   0  0  0  0  0  0  0  0  0  0  0  0
  -22.2023   -8.2344   21.5358 C   0  0  0  0  0  0  0  0  0  0  0  0
  -26.7786  -23.2740   27.6515 C   0  0  0  0  0  0  0  0  0  0  0  0
  -22.0331   -6.1161   22.5389 C   0  0  0  0  0  0  0  0  0  0  0  0
  -23.2070   -4.0725   24.0316 C   0  0  0  0  0  0  0  0  0  0  0  0
  -21.4690   -5.7276   23.7540 C   0  0  0  0  0  0  0  0  0  0  0  0
  -24.5378  -11.6681   20.7277 C   0  0  0  0  0  0  0  0  0  0  0  0
  -30.0022  -17.7324   22.6778 C   0  0  0  0  0  0  0  0  0  0  0  0
  -28.7923  -18.7933   24.3168 C   0  0  0  0  0  0  0  0  0  0  0  0
  -25.2473  -13.7327   20.4647 C   0  0  0  0  0  0  0  0  0  0  0  0
  -22.8724  -13.5637   21.2262 C   0  0  0  0  0  0  0  0  0  0  0  0
  -26.3675  -26.2861   23.1546 C   0  0  0  0  0  0  0  0  0  0  0  0
  -29.1628  -27.7113   23.9778 C   0  0  0  0  0  0  0  0  0  0  0  0
  -27.4366  -20.0365   26.0376 C   0  0  0  0  0  0  0  0  0  0  0  0
  -31.7645  -27.9334   26.1752 C   0  0  0  0  0  0  0  0  0  0  0  0
  -30.7485  -14.6448   20.6904 C   0  0  0  0  0  0  0  0  0  0  0  0
  -24.1231  -28.0136   18.9077 C   0  0  0  0  0  0  0  0  0  0  0  0
  -25.9176  -26.9303   25.5501 C   0  0  0  0  0  0  0  0  0  0  0  0
  -28.5489  -25.6163   25.2425 C   0  0  0  0  0  0  0  0  0  0  0  0
  -25.5612  -27.8400   19.3893 C   0  0  0  0  0  0  0  0  0  0  0  0
  -29.5873  -12.2326   18.3431 C   0  0  0  0  0  0  0  0  0  0  0  0
  -25.7675  -26.4409   19.9612 C   0  0  0  0  0  0  0  0  0  0  0  0
  -28.1397  -11.9774   18.7667 C   0  0  0  0  0  0  0  0  0  0  0  0
  -30.4962  -12.4609   19.5489 C   0  0  0  0  0  0  0  0  0  0  0  0
  -28.5955  -13.2600   20.8988 C   0  0  0  0  0  0  0  0  0  0  0  0
  -24.8619  -26.2023   21.1755 C   0  0  1  0  0  0  0  0  0  0  0  0
  -26.7840  -27.1473   24.3133 C   0  0  1  0  0  0  0  0  0  0  0  0
  -27.6302  -13.0796   19.7148 C   0  0  2  0  0  0  0  0  0  0  0  0
  -33.9169  -29.1644   26.5617 C   0  0  0  0  0  0  0  0  0  0  0  0
  -25.5153  -20.5937   29.3453 C   0  0  0  0  0  0  0  0  0  0  0  0
  -30.5144  -26.0175   21.8298 C   0  0  0  0  0  0  0  0  0  0  0  0
  -32.7183  -26.5634   22.8848 C   0  0  0  0  0  0  0  0  0  0  0  0
  -31.3041  -28.3879   21.9394 C   0  0  0  0  0  0  0  0  0  0  0  0
  -30.7944  -29.0622   28.7332 C   0  0  0  0  0  0  0  0  0  0  0  0
  -30.8453  -16.8199   21.8815 C   0  0  0  0  0  0  0  0  0  0  0  0
  -27.0735  -19.8614   27.5089 C   0  0  0  0  0  0  0  0  0  0  0  0
  -30.5995  -27.2617   24.0905 C   0  0  1  0  0  0  0  0  0  0  0  0
  -32.4222  -29.1292   26.8400 C   0  0  2  0  0  0  0  0  0  0  0  0
  -26.2098  -20.9998   28.0522 C   0  0  2  0  0  0  0  0  0  1  0  0
  -29.9993  -16.5977   24.9417 C   0  0  0  0  0  0  0  0  0  0  0  0
  -31.2634  -27.0453   22.7013 C   0  0  0  0  0  0  0  0  0  0  0  0
  -25.8047  -11.5378   20.3253 N   0  0  0  0  0  0  0  0  0  0  0  0
  -28.5476  -19.6660   23.3423 N   0  0  0  0  0  0  0  0  0  0  0  0
  -26.2090  -12.8104   20.1735 N   0  0  0  0  0  0  0  0  0  0  0  0
  -28.2011  -26.8740   24.5608 N   0  0  0  0  0  0  0  0  0  0  0  0
  -29.9576  -13.5192   20.4066 N   0  0  0  0  0  0  0  0  0  0  0  0
  -25.4856  -15.0578   20.3654 N   0  0  0  0  0  0  0  0  0  0  0  0
  -21.8388  -12.6826   21.5719 N   0  0  0  0  0  0  0  0  0  0  0  0
  -28.2488  -18.9900   25.6086 N   0  0  0  0  0  0  0  0  0  0  0  0
  -25.4035  -26.8580   22.3465 N   0  0  0  0  0  0  0  0  0  0  0  0
  -31.2721  -28.2500   24.9268 N   0  0  0  0  0  0  0  0  0  0  0  0
  -30.1597  -15.6036   21.5058 N   0  0  0  0  0  0  0  0  0  0  0  0
  -32.2200  -29.0777   28.3156 N   0  3  0  0  0  0  0  0  0  0  0  0
  -22.6607  -14.7998   21.2546 O   0  0  0  0  0  0  0  0  0  0  0  0
  -26.8838  -25.1850   23.0040 O   0  0  0  0  0  0  0  0  0  0  0  0
  -28.9040  -28.7701   23.4003 O   0  0  0  0  0  0  0  0  0  0  0  0
  -27.0379  -20.9883   25.3748 O   0  0  0  0  0  0  0  0  0  0  0  0
  -31.6978  -26.8281   26.7083 O   0  0  0  0  0  0  0  0  0  0  0  0
  -31.8924  -14.7875   20.2454 O   0  0  0  0  0  0  0  0  0  0  0  0
  -21.4511   -7.1298   21.7964 O   0  0  0  0  0  0  0  0  0  0  0  0
  -27.0510  -22.1208   28.3208 O   0  0  0  0  0  0  0  0  0  1  0  0
  -23.7700   -3.0903   24.7475 F   0  0  0  0  0  0  0  0  0  0  0  0
  -20.3626   -6.3315   24.2090 F   0  0  0  0  0  0  0  0  0  0  0  0
  -30.7974  -15.6319   24.3881 F   0  0  0  0  0  0  0  0  0  0  0  0
  -30.6962  -17.0398   26.0348 F   0  0  0  0  0  0  0  0  0  0  0  0
  -28.9234  -15.9234   25.4521 F   0  0  0  0  0  0  0  0  0  0  0  0
  -29.3274  -19.1398   21.9723 S   0  0  0  0  0  0  0  0  0  0  0  0
  1  2  1  0  0  0  0
  1  5  2  0  0  0  0
  2  6  2  0  0  0  0
  3  8  2  0  0  0  0
  3 15  1  0  0  0  0
  4  9  1  0  0  0  0
  4 15  2  0  0  0  0
  5 17  1  0  0  0  0
  6 19  1  0  0  0  0
  7 10  2  0  0  0  0
  7 18  1  0  0  0  0
  8 22  1  0  0  0  0
  9 22  2  0  0  0  0
 10 23  1  0  0  0  0
 11 12  2  0  0  0  0
 11 24  1  0  0  0  0
 12 25  1  0  0  0  0
 13 20  1  0  0  0  0
 13 23  2  0  0  0  0
 14 25  2  0  0  0  0
 14 26  1  0  0  0  0
 15 27  1  0  0  0  0
 16 27  1  0  0  0  0
 16 30  2  0  0  0  0
 16 31  1  0  0  0  0
 17 19  2  0  0  0  0
 17 37  1  0  0  0  0
 18 20  2  0  0  0  0
 18 38  1  0  0  0  0
 19 46  1  0  0  0  0
 20 39  1  0  0  0  0
 21 28  2  0  0  0  0
 21 29  1  0  0  0  0
 21 60  1  0  0  0  0
 22 80  1  0  0  0  0
 23 81  1  0  0  0  0
 24 26  2  0  0  0  0
 24 80  1  0  0  0  0
 25 82  1  0  0  0  0
 26 83  1  0  0  0  0
 27 62  2  0  0  0  0
 28 55  1  0  0  0  0
 28 87  1  0  0  0  0
 29 63  2  0  0  0  0
 29 69  1  0  0  0  0
 30 64  1  0  0  0  0
 30 67  1  0  0  0  0
 31 68  1  0  0  0  0
 31 74  2  0  0  0  0
 32 47  1  0  0  0  0
 32 70  1  0  0  0  0
 32 75  2  0  0  0  0
 33 57  1  0  0  0  0
 33 65  1  0  0  0  0
 33 76  2  0  0  0  0
 34 56  1  0  0  0  0
 34 69  1  0  0  0  0
 34 77  2  0  0  0  0
 35 58  1  0  0  0  0
 35 71  1  0  0  0  0
 35 78  2  0  0  0  0
 36 66  1  0  0  0  0
 36 72  1  0  0  0  0
 36 79  2  0  0  0  0
 37 40  1  0  0  0  0
 38 47  1  0  0  0  0
 39 65  1  0  0  0  0
 40 42  1  0  0  0  0
 41 43  1  0  0  0  0
 41 44  1  0  0  0  0
 42 46  1  0  0  0  0
 43 48  1  0  0  0  0
 44 66  1  0  0  0  0
 45 48  1  0  0  0  0
 45 66  1  0  0  0  0
 46 70  1  0  0  0  0
 47 65  1  0  0  0  0
 48 64  1  0  0  0  0
 49 58  1  0  0  0  0
 50 59  1  0  0  0  0
 51 61  1  0  0  0  0
 52 61  1  0  0  0  0
 53 61  1  0  0  0  0
 54 73  1  0  0  0  0
 55 72  1  0  0  0  0
 56 59  1  0  0  0  0
 57 61  1  0  0  0  0
 57 71  1  0  0  0  0
 58 73  1  0  0  0  0
 59 81  1  0  0  0  0
 60 84  1  0  0  0  0
 60 85  1  0  0  0  0
 60 86  1  0  0  0  0
 62 64  1  0  0  0  0
 63 87  1  0  0  0  0
M  CHG  1  73   1
M  ISO  4  36 100  59 101  72 100  81 101
M  END
> <Batch ID>
0186

> <Smiles>
CNC(C)C(=O)NC(C(=O)N1Cc2cc([101O:1][101CH:1](C)CC(=O)Nc3nsc(C[100NH:0][100C:0](=O)N4CCCC(n5nc(-c6ccc(Oc7ccc(F)cc7F)cc6)c(C(N)=O)c5N)C4)c3C(F)(F)F)ccc2CC1C(=O)NC1CCCc2ccccc21)C(C)(C)C

> <Shape>
0.216

> <Color>
0.194

> <Negative vol penalty>
0.000

$$$$

  -OEChem-04052305093D

 83 91  0     1  0  0  0  0  0999 V2000
  -44.0617  -24.8636   21.7507 C   0  0  0  0  0  0  0  0  0  0  0  0
  -42.7528  -24.4552   21.9861 C   0  0  0  0  0  0  0  0  0  0  0  0
  -23.0002   -9.8918   19.9820 C   0  0  0  0  0  0  0  0  0  0  0  0
  -23.7257   -9.9452   22.2859 C   0  0  0  0  0  0  0  0  0  0  0  0
  -44.3185  -25.8833   20.8352 C   0  0  0  0  0  0  0  0  0  0  0  0
  -41.6998  -25.0671   21.3070 C   0  0  0  0  0  0  0  0  0  0  0  0
  -38.3308  -21.7283   19.5332 C   0  0  0  0  0  0  0  0  0  0  0  0
  -22.2342   -8.7573   20.2495 C   0  0  0  0  0  0  0  0  0  0  0  0
  -22.9597   -8.8106   22.5534 C   0  0  0  0  0  0  0  0  0  0  0  0
  -37.4222  -21.1944   20.4461 C   0  0  0  0  0  0  0  0  0  0  0  0
  -23.2054   -5.4714   22.0845 C   0  0  0  0  0  0  0  0  0  0  0  0
  -23.7935   -4.4551   22.8374 C   0  0  0  0  0  0  0  0  0  0  0  0
  -35.7425  -22.7424   19.6705 C   0  0  0  0  0  0  0  0  0  0  0  0
  -22.0698   -4.6988   24.5127 C   0  0  0  0  0  0  0  0  0  0  0  0
  -23.7461  -10.4858   21.0002 C   0  0  0  0  0  0  0  0  0  0  0  0
  -24.1303  -13.0014   20.8219 C   0  0  0  0  0  0  0  0  0  0  0  0
  -43.2689  -26.5015   20.1374 C   0  0  0  0  0  0  0  0  0  0  0  0
  -37.9547  -22.7823   18.6883 C   0  0  0  0  0  0  0  0  0  0  0  0
  -41.9427  -26.0970   20.3823 C   0  0  0  0  0  0  0  0  0  0  0  0
  -36.6474  -23.2862   18.7461 C   0  0  0  0  0  0  0  0  0  0  0  0
  -22.2139   -8.2167   21.5352 C   0  0  0  0  0  0  0  0  0  0  0  0
  -36.1288  -21.7033   20.5168 C   0  0  0  0  0  0  0  0  0  0  0  0
  -22.0495   -6.1014   22.5457 C   0  0  0  0  0  0  0  0  0  0  0  0
  -23.2257   -4.0688   24.0515 C   0  0  0  0  0  0  0  0  0  0  0  0
  -21.4817   -5.7151   23.7597 C   0  0  0  0  0  0  0  0  0  0  0  0
  -24.5380  -11.6575   20.7244 C   0  0  0  0  0  0  0  0  0  0  0  0
  -31.8419  -18.6677   22.2012 C   0  0  0  0  0  0  0  0  0  0  0  0
  -25.2396  -13.7241   20.4567 C   0  0  0  0  0  0  0  0  0  0  0  0
  -30.7351  -19.0712   22.9183 C   0  0  0  0  0  0  0  0  0  0  0  0
  -30.5807  -16.9020   21.8824 C   0  0  0  0  0  0  0  0  0  0  0  0
  -22.8621  -13.5476   21.2081 C   0  0  0  0  0  0  0  0  0  0  0  0
  -38.9235  -25.7815   18.2758 C   0  0  0  0  0  0  0  0  0  0  0  0
  -36.8481  -25.6977   15.7842 C   0  0  0  0  0  0  0  0  0  0  0  0
  -34.0814  -24.2922   14.3642 C   0  0  0  0  0  0  0  0  0  0  0  0
  -30.7188  -14.6877   20.6890 C   0  0  0  0  0  0  0  0  0  0  0  0
  -43.5919  -27.6317   19.1924 C   0  0  0  0  0  0  0  0  0  0  0  0
  -38.9384  -23.3293   17.6906 C   0  0  0  0  0  0  0  0  0  0  0  0
  -36.1878  -24.4037   17.8469 C   0  0  0  0  0  0  0  0  0  0  0  0
  -42.4507  -27.9722   18.2375 C   0  0  0  0  0  0  0  0  0  0  0  0
  -29.6011  -12.2324   18.3653 C   0  0  0  0  0  0  0  0  0  0  0  0
  -41.1296  -28.0615   18.9947 C   0  0  0  0  0  0  0  0  0  0  0  0
  -28.1507  -11.9745   18.7799 C   0  0  0  0  0  0  0  0  0  0  0  0
  -30.5017  -12.4772   19.5747 C   0  0  0  0  0  0  0  0  0  0  0  0
  -28.5863  -13.2664   20.9079 C   0  0  0  0  0  0  0  0  0  0  0  0
  -40.7758  -26.7195   19.6470 C   0  0  1  0  0  0  0  0  0  0  0  0
  -38.6026  -24.7461   17.2353 C   0  0  1  0  0  0  0  0  0  0  0  0
  -27.6285  -13.0786   19.7200 C   0  0  2  0  0  0  0  0  0  0  0  0
  -36.0496  -18.3116   23.7185 C   0  0  0  0  0  0  0  0  0  0  0  0
  -32.6041  -24.4596   12.3425 C   0  0  0  0  0  0  0  0  0  0  0  0
  -33.8540  -19.1803   19.8222 C   0  0  0  0  0  0  0  0  0  0  0  0
  -35.5508  -28.2046   16.9428 C   0  0  0  0  0  0  0  0  0  0  0  0
  -33.5694  -27.7734   15.4744 C   0  0  0  0  0  0  0  0  0  0  0  0
  -35.8026  -28.2152   14.4547 C   0  0  0  0  0  0  0  0  0  0  0  0
  -34.7049  -21.5203   13.5355 C   0  0  0  0  0  0  0  0  0  0  0  0
  -35.7328  -19.7197   23.2433 C   0  0  0  0  0  0  0  0  0  0  0  0
  -35.3807  -26.0033   15.6044 C   0  0  1  0  0  0  0  0  0  0  0  0
  -33.8190  -23.7832   12.9583 C   0  0  2  0  0  0  0  0  0  0  0  0
  -34.1477  -19.0116   21.3121 C   0  0  1  0  0  0  0  0  0  0  0  0
  -35.3920  -19.8073   21.7490 C   0  0  1  0  0  0  0  0  0  1  0  0
  -35.0848  -27.5294   15.6375 C   0  0  0  0  0  0  0  0  0  0  0  0
  -25.8072  -11.5312   20.3282 N   0  0  0  0  0  0  0  0  0  0  0  0
  -31.7553  -17.4239   21.6068 N   0  0  0  0  0  0  0  0  0  0  0  0
  -26.2066  -12.8050   20.1733 N   0  0  0  0  0  0  0  0  0  0  0  0
  -37.1883  -24.9093   16.8925 N   0  0  0  0  0  0  0  0  0  0  0  0
  -29.9464  -13.5386   20.4173 N   0  0  0  0  0  0  0  0  0  0  0  0
  -25.4725  -15.0498   20.3534 N   0  0  0  0  0  0  0  0  0  0  0  0
  -21.8308  -12.6633   21.5526 N   0  0  0  0  0  0  0  0  0  0  0  0
  -32.9842  -19.4348   22.0655 N   0  0  0  0  0  0  0  0  0  0  0  0
  -30.0742  -15.6432   21.4739 N   0  0  0  0  0  0  0  0  0  0  0  0
  -40.2508  -25.8006   18.6598 N   0  0  0  0  0  0  0  0  0  0  0  0
  -34.9746  -25.3426   14.3687 N   0  0  0  0  0  0  0  0  0  0  0  0
  -33.5794  -22.3124   12.9761 N   0  3  0  0  0  0  0  0  0  0  0  0
  -22.6449  -14.7828   21.2308 O   0  0  0  0  0  0  0  0  0  0  0  0
  -38.0332  -26.5101   18.6978 O   0  0  0  0  0  0  0  0  0  0  0  0
  -37.6617  -26.1362   14.9673 O   0  0  0  0  0  0  0  0  0  0  0  0
  -33.5445  -23.8089   15.3585 O   0  0  0  0  0  0  0  0  0  0  0  0
  -31.8573  -14.8267   20.2347 O   0  0  0  0  0  0  0  0  0  0  0  0
  -21.4664   -7.1097   21.7966 O   0  0  0  0  0  0  0  0  0  0  0  0
  -35.2402  -21.1845   21.4074 O   0  0  0  0  0  0  0  0  0  1  0  0
  -23.7897   -3.0918   24.7737 F   0  0  0  0  0  0  0  0  0  0  0  0
  -20.3706   -6.3159   24.2074 F   0  0  0  0  0  0  0  0  0  0  0  0
  -30.6116  -20.2317   23.5681 F   0  0  0  0  0  0  0  0  0  0  0  0
  -29.5303  -17.8525   22.8510 S   0  0  0  0  0  0  0  0  0  0  0  0
  1  2  1  0  0  0  0
  1  5  2  0  0  0  0
  2  6  2  0  0  0  0
  3  8  2  0  0  0  0
  3 15  1  0  0  0  0
  4  9  1  0  0  0  0
  4 15  2  0  0  0  0
  5 17  1  0  0  0  0
  6 19  1  0  0  0  0
  7 10  2  0  0  0  0
  7 18  1  0  0  0  0
  8 21  1  0  0  0  0
  9 21  2  0  0  0  0
 10 22  1  0  0  0  0
 11 12  2  0  0  0  0
 11 23  1  0  0  0  0
 12 24  1  0  0  0  0
 13 20  1  0  0  0  0
 13 22  2  0  0  0  0
 14 24  2  0  0  0  0
 14 25  1  0  0  0  0
 15 26  1  0  0  0  0
 16 26  1  0  0  0  0
 16 28  2  0  0  0  0
 16 31  1  0  0  0  0
 17 19  2  0  0  0  0
 17 36  1  0  0  0  0
 18 20  2  0  0  0  0
 18 37  1  0  0  0  0
 19 45  1  0  0  0  0
 20 38  1  0  0  0  0
 21 78  1  0  0  0  0
 22 79  1  0  0  0  0
 23 25  2  0  0  0  0
 23 78  1  0  0  0  0
 24 80  1  0  0  0  0
 25 81  1  0  0  0  0
 26 61  2  0  0  0  0
 27 29  2  0  0  0  0
 27 62  1  0  0  0  0
 27 68  1  0  0  0  0
 28 63  1  0  0  0  0
 28 66  1  0  0  0  0
 29 82  1  0  0  0  0
 29 83  1  0  0  0  0
 30 62  2  0  0  0  0
 30 69  1  0  0  0  0
 30 83  1  0  0  0  0
 31 67  1  0  0  0  0
 31 73  2  0  0  0  0
 32 46  1  0  0  0  0
 32 70  1  0  0  0  0
 32 74  2  0  0  0  0
 33 56  1  0  0  0  0
 33 64  1  0  0  0  0
 33 75  2  0  0  0  0
 34 57  1  0  0  0  0
 34 71  1  0  0  0  0
 34 76  2  0  0  0  0
 35 65  1  0  0  0  0
 35 69  1  0  0  0  0
 35 77  2  0  0  0  0
 36 39  1  0  0  0  0
 37 46  1  0  0  0  0
 38 64  1  0  0  0  0
 39 41  1  0  0  0  0
 40 42  1  0  0  0  0
 40 43  1  0  0  0  0
 41 45  1  0  0  0  0
 42 47  1  0  0  0  0
 43 65  1  0  0  0  0
 44 47  1  0  0  0  0
 44 65  1  0  0  0  0
 45 70  1  0  0  0  0
 46 64  1  0  0  0  0
 47 63  1  0  0  0  0
 48 55  1  0  0  0  0
 49 57  1  0  0  0  0
 50 58  1  0  0  0  0
 51 60  1  0  0  0  0
 52 60  1  0  0  0  0
 53 60  1  0  0  0  0
 54 72  1  0  0  0  0
 55 59  1  0  0  0  0
 56 60  1  0  0  0  0
 56 71  1  0  0  0  0
 57 72  1  0  0  0  0
 58 59  1  0  0  0  0
 58 68  1  0  0  0  0
 59 79  1  0  0  0  0
 61 63  1  0  0  0  0
M  CHG  1  72   1
M  ISO  4  35 100  59 101  69 100  79 101
M  END
> <Batch ID>
0186

> <Smiles>
CC[101CH:1](C(C)Nc1nc([100NH:0][100C:0](=O)N2CCCC(n3nc(-c4ccc(Oc5ccc(F)cc5F)cc4)c(C(N)=O)c3N)C2)sc1F)[101O:1]c1ccc2c(c1)CN(C(=O)C(NC(=O)C(C)NC)C(C)(C)C)C(C(=O)NC1CCCc3ccccc31)C2

> <Shape>
0.175

> <Color>
0.194

> <Negative vol penalty>
0.000

$$$$

  -OEChem-04052305093D

 87 95  0     1  0  0  0  0  0999 V2000
  -15.8501  -15.9368   17.8870 C   0  0  0  0  0  0  0  0  0  0  0  0
  -17.2275  -15.7575   17.9646 C   0  0  0  0  0  0  0  0  0  0  0  0
  -26.2323  -27.8410   18.8493 C   0  0  0  0  0  0  0  0  0  0  0  0
  -26.2642  -27.1672   21.1692 C   0  0  0  0  0  0  0  0  0  0  0  0
  -15.2858  -17.1589   18.2501 C   0  0  0  0  0  0  0  0  0  0  0  0
  -18.0415  -16.8008   18.4043 C   0  0  0  0  0  0  0  0  0  0  0  0
  -21.5428  -15.2657   21.7254 C   0  0  0  0  0  0  0  0  0  0  0  0
  -25.6765  -29.0674   19.2131 C   0  0  0  0  0  0  0  0  0  0  0  0
  -25.7084  -28.3938   21.5331 C   0  0  0  0  0  0  0  0  0  0  0  0
  -22.6648  -14.6158   21.2130 C   0  0  0  0  0  0  0  0  0  0  0  0
  -26.7665  -31.5723   21.9774 C   0  0  0  0  0  0  0  0  0  0  0  0
  -27.3225  -32.2350   23.0717 C   0  0  0  0  0  0  0  0  0  0  0  0
  -23.9259  -16.6644   21.3923 C   0  0  0  0  0  0  0  0  0  0  0  0
  -25.1907  -32.1513   24.2055 C   0  0  0  0  0  0  0  0  0  0  0  0
  -26.5261  -26.8908   19.8274 C   0  0  0  0  0  0  0  0  0  0  0  0
  -28.4675  -25.3086   19.3422 C   0  0  0  0  0  0  0  0  0  0  0  0
  -16.0924  -18.2145   18.7037 C   0  0  0  0  0  0  0  0  0  0  0  0
  -21.6010  -16.6249   22.0654 C   0  0  0  0  0  0  0  0  0  0  0  0
  -17.4876  -18.0386   18.7725 C   0  0  0  0  0  0  0  0  0  0  0  0
  -22.8039  -17.3286   21.9112 C   0  0  0  0  0  0  0  0  0  0  0  0
  -25.4145  -29.3439   20.5549 C   0  0  0  0  0  0  0  0  0  0  0  0
  -23.8558  -15.3159   21.0436 C   0  0  0  0  0  0  0  0  0  0  0  0
  -25.4226  -31.1992   21.9971 C   0  0  0  0  0  0  0  0  0  0  0  0
  -26.5346  -32.5245   24.1857 C   0  0  0  0  0  0  0  0  0  0  0  0
  -24.6347  -31.4887   23.1112 C   0  0  0  0  0  0  0  0  0  0  0  0
  -27.0998  -25.6234   19.4522 C   0  0  0  0  0  0  0  0  0  0  0  0
  -29.7346  -15.7904   20.4723 C   0  0  0  0  0  0  0  0  0  0  0  0
  -28.4865  -23.9896   18.9597 C   0  0  0  0  0  0  0  0  0  0  0  0
  -30.7324  -16.5448   21.0531 C   0  0  0  0  0  0  0  0  0  0  0  0
  -28.7939  -17.7647   20.3070 C   0  0  0  0  0  0  0  0  0  0  0  0
  -29.6179  -26.1346   19.5658 C   0  0  0  0  0  0  0  0  0  0  0  0
  -20.1189  -19.2528   21.0649 C   0  0  0  0  0  0  0  0  0  0  0  0
  -27.6062  -13.4859   20.6949 C   0  0  0  0  0  0  0  0  0  0  0  0
  -21.7305  -20.6274   23.5216 C   0  0  0  0  0  0  0  0  0  0  0  0
  -24.4028  -20.5409   25.6425 C   0  0  0  0  0  0  0  0  0  0  0  0
  -26.6493  -18.7545   19.4310 C   0  0  0  0  0  0  0  0  0  0  0  0
  -15.4414  -19.5328   19.0400 C   0  0  0  0  0  0  0  0  0  0  0  0
  -20.3894  -17.3046   22.6420 C   0  0  0  0  0  0  0  0  0  0  0  0
  -22.9243  -18.7839   22.2800 C   0  0  0  0  0  0  0  0  0  0  0  0
  -16.3372  -20.4648   19.8519 C   0  0  0  0  0  0  0  0  0  0  0  0
  -24.7479  -20.9623   17.3847 C   0  0  0  0  0  0  0  0  0  0  0  0
  -17.7368  -20.5201   19.2479 C   0  0  0  0  0  0  0  0  0  0  0  0
  -25.3028  -22.3459   17.7311 C   0  0  0  0  0  0  0  0  0  0  0  0
  -24.6946  -20.0499   18.6088 C   0  0  0  0  0  0  0  0  0  0  0  0
  -26.5133  -21.3096   19.6927 C   0  0  0  0  0  0  0  0  0  0  0  0
  -18.4014  -19.1383   19.2682 C   0  0  1  0  0  0  0  0  0  0  0  0
  -20.4175  -18.8205   22.4726 C   0  0  1  0  0  0  0  0  0  0  0  0
  -26.6469  -22.2431   18.4785 C   0  0  2  0  0  0  0  0  0  0  0  0
  -30.3019  -10.0066   19.9317 C   0  0  0  0  0  0  0  0  0  0  0  0
  -25.4724  -21.8215   27.5169 C   0  0  0  0  0  0  0  0  0  0  0  0
  -30.3892  -12.4618   18.1577 C   0  0  0  0  0  0  0  0  0  0  0  0
  -22.7962  -22.6662   21.5173 C   0  0  0  0  0  0  0  0  0  0  0  0
  -24.5437  -23.2984   23.1951 C   0  0  0  0  0  0  0  0  0  0  0  0
  -22.1289  -23.6269   23.7277 C   0  0  0  0  0  0  0  0  0  0  0  0
  -24.0899  -18.2768   27.5227 C   0  0  0  0  0  0  0  0  0  0  0  0
  -26.3620  -12.7652   20.1874 C   0  0  0  0  0  0  0  0  0  0  0  0
  -29.7978  -11.3714   20.3833 C   0  0  0  0  0  0  0  0  0  0  0  0
  -25.0778  -13.2886   20.8138 C   0  0  0  0  0  0  0  0  0  1  0  0
  -28.7617  -13.6254   19.7031 C   0  0  2  0  0  0  0  0  0  0  0  0
  -23.0801  -21.2849   23.6800 C   0  0  1  0  0  0  0  0  0  0  0  0
  -24.5001  -20.7119   27.1478 C   0  0  2  0  0  0  0  0  0  0  0  0
  -29.3003  -12.2590   19.2206 C   0  0  1  0  0  0  0  0  0  0  0  0
  -23.1348  -22.6922   23.0212 C   0  0  0  0  0  0  0  0  0  0  0  0
  -26.3074  -24.5879   19.1628 N   0  0  0  0  0  0  0  0  0  0  0  0
  -28.6220  -16.4882   20.0443 N   0  0  0  0  0  0  0  0  0  0  0  0
  -27.1799  -23.6094   18.8672 N   0  0  0  0  0  0  0  0  0  0  0  0
  -21.7102  -19.4058   22.8339 N   0  0  0  0  0  0  0  0  0  0  0  0
  -26.0038  -19.9979   19.2631 N   0  0  0  0  0  0  0  0  0  0  0  0
  -29.4932  -23.1294   18.6968 N   0  0  0  0  0  0  0  0  0  0  0  0
  -29.4188  -27.4664   19.9545 N   0  0  0  0  0  0  0  0  0  0  0  0
  -29.8096  -14.4189   20.3131 N   0  0  0  0  0  0  0  0  0  0  0  0
  -27.9031  -18.8329   20.0364 N   0  0  0  0  0  0  0  0  0  0  0  0
  -18.8893  -18.8317   20.5958 N   0  0  0  0  0  0  0  0  0  0  0  0
  -23.3699  -21.2829   25.1099 N   0  0  0  0  0  0  0  0  0  0  0  0
  -24.9665  -19.4475   27.7837 N   0  3  0  0  0  0  0  0  0  0  0  0
  -30.7874  -25.7091   19.4091 O   0  0  0  0  0  0  0  0  0  0  0  0
  -20.9426  -19.9204   20.4503 O   0  0  0  0  0  0  0  0  0  0  0  0
  -27.6804  -13.9223   21.8441 O   0  0  0  0  0  0  0  0  0  0  0  0
  -20.7320  -21.1740   23.9970 O   0  0  0  0  0  0  0  0  0  0  0  0
  -25.1689  -19.8238   25.0027 O   0  0  0  0  0  0  0  0  0  0  0  0
  -26.1402  -17.7010   19.0401 O   0  0  0  0  0  0  0  0  0  0  0  0
  -24.8723  -30.5407   20.9103 O   0  0  0  0  0  0  0  0  0  0  0  0
  -24.9522  -14.6841   20.5431 O   0  0  0  0  0  0  0  0  0  1  0  0
  -27.0690  -33.1595   25.2371 F   0  0  0  0  0  0  0  0  0  0  0  0
  -23.3433  -31.1316   23.1364 F   0  0  0  0  0  0  0  0  0  0  0  0
  -31.8852  -16.0702   21.5328 F   0  0  0  0  0  0  0  0  0  0  0  0
  -30.2706  -18.1964   21.0673 S   0  0  0  0  0  0  0  0  0  0  0  0
  1  2  1  0  0  0  0
  1  5  2  0  0  0  0
  2  6  2  0  0  0  0
  3  8  2  0  0  0  0
  3 15  1  0  0  0  0
  4  9  1  0  0  0  0
  4 15  2  0  0  0  0
  5 17  1  0  0  0  0
  6 19  1  0  0  0  0
  7 10  2  0  0  0  0
  7 18  1  0  0  0  0
  8 21  1  0  0  0  0
  9 21  2  0  0  0  0
 10 22  1  0  0  0  0
 11 12  2  0  0  0  0
 11 23  1  0  0  0  0
 12 24  1  0  0  0  0
 13 20  1  0  0  0  0
 13 22  2  0  0  0  0
 14 24  2  0  0  0  0
 14 25  1  0  0  0  0
 15 26  1  0  0  0  0
 16 26  1  0  0  0  0
 16 28  2  0  0  0  0
 16 31  1  0  0  0  0
 17 19  2  0  0  0  0
 17 37  1  0  0  0  0
 18 20  2  0  0  0  0
 18 38  1  0  0  0  0
 19 46  1  0  0  0  0
 20 39  1  0  0  0  0
 21 82  1  0  0  0  0
 22 83  1  0  0  0  0
 23 25  2  0  0  0  0
 23 82  1  0  0  0  0
 24 84  1  0  0  0  0
 25 85  1  0  0  0  0
 26 64  2  0  0  0  0
 27 29  2  0  0  0  0
 27 65  1  0  0  0  0
 27 71  1  0  0  0  0
 28 66  1  0  0  0  0
 28 69  1  0  0  0  0
 29 86  1  0  0  0  0
 29 87  1  0  0  0  0
 30 65  2  0  0  0  0
 30 72  1  0  0  0  0
 30 87  1  0  0  0  0
 31 70  1  0  0  0  0
 31 76  2  0  0  0  0
 32 47  1  0  0  0  0
 32 73  1  0  0  0  0
 32 77  2  0  0  0  0
 33 56  1  0  0  0  0
 33 59  1  0  0  0  0
 33 78  2  0  0  0  0
 34 60  1  0  0  0  0
 34 67  1  0  0  0  0
 34 79  2  0  0  0  0
 35 61  1  0  0  0  0
 35 74  1  0  0  0  0
 35 80  2  0  0  0  0
 36 68  1  0  0  0  0
 36 72  1  0  0  0  0
 36 81  2  0  0  0  0
 37 40  1  0  0  0  0
 38 47  1  0  0  0  0
 39 67  1  0  0  0  0
 40 42  1  0  0  0  0
 41 43  1  0  0  0  0
 41 44  1  0  0  0  0
 42 46  1  0  0  0  0
 43 48  1  0  0  0  0
 44 68  1  0  0  0  0
 45 48  1  0  0  0  0
 45 68  1  0  0  0  0
 46 73  1  0  0  0  0
 47 67  1  0  0  0  0
 48 66  1  0  0  0  0
 49 57  1  0  0  0  0
 50 61  1  0  0  0  0
 51 62  1  0  0  0  0
 52 63  1  0  0  0  0
 53 63  1  0  0  0  0
 54 63  1  0  0  0  0
 55 75  1  0  0  0  0
 56 58  1  0  0  0  0
 57 62  1  0  0  0  0
 58 83  1  0  0  0  0
 59 62  1  0  0  0  0
 59 71  1  0  0  0  0
 60 63  1  0  0  0  0
 60 74  1  0  0  0  0
 61 75  1  0  0  0  0
 64 66  1  0  0  0  0
M  CHG  1  75   1
M  ISO  4  36 100  58 101  72 100  83 101
M  END
> <Batch ID>
0186

> <Smiles>
CCC(C)C(Nc1nc([100NH:0][100C:0](=O)N2CCCC(n3nc(-c4ccc(Oc5ccc(F)cc5F)cc4)c(C(N)=O)c3N)C2)sc1F)C(=O)C[101CH2:1][101O:1]c1ccc2c(c1)CN(C(=O)C(NC(=O)C(C)NC)C(C)(C)C)C(C(=O)NC1CCCc3ccccc31)C2

> <Shape>
0.217

> <Color>
0.058

> <Negative vol penalty>
0.000

$$$$

  -OEChem-04052305093D

 82 90  0     1  0  0  0  0  0999 V2000
  -16.9281  -30.1126   23.3678 C   0  0  0  0  0  0  0  0  0  0  0  0
  -18.1968  -30.6407   23.1509 C   0  0  0  0  0  0  0  0  0  0  0  0
  -24.6947  -13.6387   18.5870 C   0  0  0  0  0  0  0  0  0  0  0  0
  -26.8861  -13.8014   19.5910 C   0  0  0  0  0  0  0  0  0  0  0  0
  -16.7569  -28.7328   23.4709 C   0  0  0  0  0  0  0  0  0  0  0  0
  -19.2952  -29.7892   23.0380 C   0  0  0  0  0  0  0  0  0  0  0  0
  -25.5921  -29.2163   19.6708 C   0  0  0  0  0  0  0  0  0  0  0  0
  -24.6011  -12.3117   19.0062 C   0  0  0  0  0  0  0  0  0  0  0  0
  -26.7925  -12.4744   20.0104 C   0  0  0  0  0  0  0  0  0  0  0  0
  -26.9410  -28.9899   19.9406 C   0  0  0  0  0  0  0  0  0  0  0  0
  -23.9084  -10.6459   21.8660 C   0  0  0  0  0  0  0  0  0  0  0  0
  -22.7105  -10.2334   22.4495 C   0  0  0  0  0  0  0  0  0  0  0  0
  -26.5138  -26.6186   20.0563 C   0  0  0  0  0  0  0  0  0  0  0  0
  -22.4339   -8.5781   20.7115 C   0  0  0  0  0  0  0  0  0  0  0  0
  -30.5067  -24.5943   16.0746 C   0  0  0  0  0  0  0  0  0  0  0  0
  -25.8372  -14.3836   18.8793 C   0  0  0  0  0  0  0  0  0  0  0  0
  -25.5257  -16.9006   19.1533 C   0  0  0  0  0  0  0  0  0  0  0  0
  -17.8524  -27.8634   23.3495 C   0  0  0  0  0  0  0  0  0  0  0  0
  -24.6903  -28.1446   19.6024 C   0  0  0  0  0  0  0  0  0  0  0  0
  -19.1387  -28.3965   23.1409 C   0  0  0  0  0  0  0  0  0  0  0  0
  -25.1544  -26.8338   19.7829 C   0  0  0  0  0  0  0  0  0  0  0  0
  -25.6499  -11.7295   19.7180 C   0  0  0  0  0  0  0  0  0  0  0  0
  -27.4016  -27.6912   20.1363 C   0  0  0  0  0  0  0  0  0  0  0  0
  -24.3690  -10.0245   20.7052 C   0  0  0  0  0  0  0  0  0  0  0  0
  -21.9733   -9.1995   21.8723 C   0  0  0  0  0  0  0  0  0  0  0  0
  -23.6318   -8.9906   20.1280 C   0  0  0  0  0  0  0  0  0  0  0  0
  -25.9348  -15.7543   18.4460 C   0  0  0  0  0  0  0  0  0  0  0  0
  -25.8318  -17.9470   18.3179 C   0  0  0  0  0  0  0  0  0  0  0  0
  -30.2806  -24.6016   17.4351 C   0  0  0  0  0  0  0  0  0  0  0  0
  -29.7613  -22.5436   16.2960 C   0  0  0  0  0  0  0  0  0  0  0  0
  -24.9232  -17.0099   20.4497 C   0  0  0  0  0  0  0  0  0  0  0  0
  -22.1011  -27.2840   21.2331 C   0  0  0  0  0  0  0  0  0  0  0  0
  -21.9134  -24.9768   18.9607 C   0  0  0  0  0  0  0  0  0  0  0  0
  -30.9327  -26.8966   18.2447 C   0  0  0  0  0  0  0  0  0  0  0  0
  -23.5177  -23.0676   16.6309 C   0  0  0  0  0  0  0  0  0  0  0  0
  -29.3168  -20.5403   14.8347 C   0  0  0  0  0  0  0  0  0  0  0  0
  -17.6250  -26.3817   23.5152 C   0  0  0  0  0  0  0  0  0  0  0  0
  -23.2432  -28.4032   19.2840 C   0  0  0  0  0  0  0  0  0  0  0  0
  -24.2307  -25.6470   19.6997 C   0  0  0  0  0  0  0  0  0  0  0  0
  -18.7848  -25.5273   23.0102 C   0  0  0  0  0  0  0  0  0  0  0  0
  -27.2631  -17.9757   13.4628 C   0  0  0  0  0  0  0  0  0  0  0  0
  -20.1144  -26.0821   23.5114 C   0  0  0  0  0  0  0  0  0  0  0  0
  -26.7008  -17.2634   14.6951 C   0  0  0  0  0  0  0  0  0  0  0  0
  -28.7065  -18.4273   13.6781 C   0  0  0  0  0  0  0  0  0  0  0  0
  -28.3689  -18.5219   16.1166 C   0  0  0  0  0  0  0  0  0  0  0  0
  -20.3512  -27.5039   22.9882 C   0  0  1  0  0  0  0  0  0  0  0  0
  -22.3197  -27.2805   19.7465 C   0  0  1  0  0  0  0  0  0  0  0  0
  -26.8960  -18.1059   15.9709 C   0  0  2  0  0  0  0  0  0  0  0  0
  -32.1323  -28.6625   19.5450 C   0  0  0  0  0  0  0  0  0  0  0  0
  -23.1069  -21.2431   14.9576 C   0  0  0  0  0  0  0  0  0  0  0  0
  -21.7836  -22.9340   21.2234 C   0  0  0  0  0  0  0  0  0  0  0  0
  -22.3303  -21.1518   19.5522 C   0  0  0  0  0  0  0  0  0  0  0  0
  -20.2311  -22.4785   19.3164 C   0  0  0  0  0  0  0  0  0  0  0  0
  -24.3729  -24.7837   14.3765 C   0  0  0  0  0  0  0  0  0  0  0  0
  -29.6567  -28.3897   19.8489 C   0  0  0  0  0  0  0  0  0  1  0  0
  -22.4531  -23.5747   18.8136 C   0  0  1  0  0  0  0  0  0  0  0  0
  -30.9759  -27.6640   19.5735 C   0  0  1  0  0  0  0  0  0  0  0  0
  -23.1791  -22.7448   15.1868 C   0  0  2  0  0  0  0  0  0  0  0  0
  -21.7168  -22.5570   19.7299 C   0  0  0  0  0  0  0  0  0  0  0  0
  -30.2099  -23.4149   15.4198 N   0  0  0  0  0  0  0  0  0  0  0  0
  -26.4604  -16.0448   17.2529 N   0  0  0  0  0  0  0  0  0  0  0  0
  -26.3836  -17.3856   17.2041 N   0  0  0  0  0  0  0  0  0  0  0  0
  -22.8236  -25.9520   19.3922 N   0  0  0  0  0  0  0  0  0  0  0  0
  -28.8141  -19.2237   14.9025 N   0  0  0  0  0  0  0  0  0  0  0  0
  -25.6799  -19.2833   18.4346 N   0  0  0  0  0  0  0  0  0  0  0  0
  -24.6779  -15.8351   21.1737 N   0  0  0  0  0  0  0  0  0  0  0  0
  -30.4590  -25.5995   18.4228 N   0  0  0  0  0  0  0  0  0  0  0  0
  -29.3420  -21.2114   16.0568 N   0  0  0  0  0  0  0  0  0  0  0  0
  -20.7839  -27.4690   21.6076 N   0  0  0  0  0  0  0  0  0  0  0  0
  -22.3832  -23.2575   17.3913 N   0  0  0  0  0  0  0  0  0  0  0  0
  -24.2123  -23.3104   14.2737 N   0  3  0  0  0  0  0  0  0  0  0  0
  -24.5964  -18.1153   20.9444 O   0  0  0  0  0  0  0  0  0  0  0  0
  -23.0565  -27.1289   21.9846 O   0  0  0  0  0  0  0  0  0  0  0  0
  -20.7295  -25.2000   18.6954 O   0  0  0  0  0  0  0  0  0  0  0  0
  -31.2926  -27.4124   17.1904 O   0  0  0  0  0  0  0  0  0  0  0  0
  -24.6729  -23.1400   17.0441 O   0  0  0  0  0  0  0  0  0  0  0  0
  -29.6714  -21.0454   13.7665 O   0  0  0  0  0  0  0  0  0  0  0  0
  -25.5588  -10.4347   20.1275 O   0  0  0  0  0  0  0  0  0  0  0  0
  -28.7177  -27.4675   20.4004 O   0  0  0  0  0  0  0  0  0  1  0  0
  -20.8237   -8.8024   22.4337 F   0  0  0  0  0  0  0  0  0  0  0  0
  -24.0698   -8.3891   19.0135 F   0  0  0  0  0  0  0  0  0  0  0  0
  -29.6698  -23.0757   17.9250 S   0  0  0  0  0  0  0  0  0  0  0  0
  1  2  1  0  0  0  0
  1  5  2  0  0  0  0
  2  6  2  0  0  0  0
  3  8  2  0  0  0  0
  3 16  1  0  0  0  0
  4  9  1  0  0  0  0
  4 16  2  0  0  0  0
  5 18  1  0  0  0  0
  6 20  1  0  0  0  0
  7 10  2  0  0  0  0
  7 19  1  0  0  0  0
  8 22  1  0  0  0  0
  9 22  2  0  0  0  0
 10 23  1  0  0  0  0
 11 12  2  0  0  0  0
 11 24  1  0  0  0  0
 12 25  1  0  0  0  0
 13 21  1  0  0  0  0
 13 23  2  0  0  0  0
 14 25  2  0  0  0  0
 14 26  1  0  0  0  0
 15 29  2  0  0  0  0
 15 60  1  0  0  0  0
 16 27  1  0  0  0  0
 17 27  1  0  0  0  0
 17 28  2  0  0  0  0
 17 31  1  0  0  0  0
 18 20  2  0  0  0  0
 18 37  1  0  0  0  0
 19 21  2  0  0  0  0
 19 38  1  0  0  0  0
 20 46  1  0  0  0  0
 21 39  1  0  0  0  0
 22 78  1  0  0  0  0
 23 79  1  0  0  0  0
 24 26  2  0  0  0  0
 24 78  1  0  0  0  0
 25 80  1  0  0  0  0
 26 81  1  0  0  0  0
 27 61  2  0  0  0  0
 28 62  1  0  0  0  0
 28 65  1  0  0  0  0
 29 67  1  0  0  0  0
 29 82  1  0  0  0  0
 30 60  2  0  0  0  0
 30 68  1  0  0  0  0
 30 82  1  0  0  0  0
 31 66  1  0  0  0  0
 31 72  2  0  0  0  0
 32 47  1  0  0  0  0
 32 69  1  0  0  0  0
 32 73  2  0  0  0  0
 33 56  1  0  0  0  0
 33 63  1  0  0  0  0
 33 74  2  0  0  0  0
 34 57  1  0  0  0  0
 34 67  1  0  0  0  0
 34 75  2  0  0  0  0
 35 58  1  0  0  0  0
 35 70  1  0  0  0  0
 35 76  2  0  0  0  0
 36 64  1  0  0  0  0
 36 68  1  0  0  0  0
 36 77  2  0  0  0  0
 37 40  1  0  0  0  0
 38 47  1  0  0  0  0
 39 63  1  0  0  0  0
 40 42  1  0  0  0  0
 41 43  1  0  0  0  0
 41 44  1  0  0  0  0
 42 46  1  0  0  0  0
 43 48  1  0  0  0  0
 44 64  1  0  0  0  0
 45 48  1  0  0  0  0
 45 64  1  0  0  0  0
 46 69  1  0  0  0  0
 47 63  1  0  0  0  0
 48 62  1  0  0  0  0
 49 57  1  0  0  0  0
 50 58  1  0  0  0  0
 51 59  1  0  0  0  0
 52 59  1  0  0  0  0
 53 59  1  0  0  0  0
 54 71  1  0  0  0  0
 55 57  1  0  0  0  0
 55 79  1  0  0  0  0
 56 59  1  0  0  0  0
 56 70  1  0  0  0  0
 58 71  1  0  0  0  0
 61 62  1  0  0  0  0
M  CHG  1  71   1
M  ISO  4  36 100  55 101  68 100  79 101
M  END
> <Batch ID>
0186

> <Smiles>
CNC(C)C(=O)NC(C(=O)N1Cc2cc([101O:1][101CH2:1]C(C)C(=O)Nc3cnc([100NH:0][100C:0](=O)N4CCCC(n5nc(-c6ccc(Oc7ccc(F)cc7F)cc6)c(C(N)=O)c5N)C4)s3)ccc2CC1C(=O)NC1CCCc2ccccc21)C(C)(C)C

> <Shape>
0.199

> <Color>
0.072

> <Negative vol penalty>
0.000

$$$$

  -OEChem-04052305093D

 86 94  0     1  0  0  0  0  0999 V2000
  -36.0387  -28.3256   16.1567 C   0  0  0  0  0  0  0  0  0  0  0  0
  -36.2146  -27.7027   17.3881 C   0  0  0  0  0  0  0  0  0  0  0  0
  -23.0639   -9.8583   19.9630 C   0  0  0  0  0  0  0  0  0  0  0  0
  -23.8605   -9.8800   22.2438 C   0  0  0  0  0  0  0  0  0  0  0  0
  -35.4122  -27.6430   15.1147 C   0  0  0  0  0  0  0  0  0  0  0  0
  -35.7632  -26.3972   17.5787 C   0  0  0  0  0  0  0  0  0  0  0  0
  -38.3682  -22.0697   21.0417 C   0  0  0  0  0  0  0  0  0  0  0  0
  -22.3304   -8.7024   20.2301 C   0  0  0  0  0  0  0  0  0  0  0  0
  -23.1270   -8.7240   22.5109 C   0  0  0  0  0  0  0  0  0  0  0  0
  -38.1030  -21.6161   22.3331 C   0  0  0  0  0  0  0  0  0  0  0  0
  -19.9134   -7.9116   23.1689 C   0  0  0  0  0  0  0  0  0  0  0  0
  -19.1756   -7.8730   24.3520 C   0  0  0  0  0  0  0  0  0  0  0  0
  -36.7654  -19.8265   21.4234 C   0  0  0  0  0  0  0  0  0  0  0  0
  -20.4392   -5.9457   25.0772 C   0  0  0  0  0  0  0  0  0  0  0  0
  -23.8289  -10.4471   20.9698 C   0  0  0  0  0  0  0  0  0  0  0  0
  -24.1550  -12.9735   20.8328 C   0  0  0  0  0  0  0  0  0  0  0  0
  -34.9615  -26.3251   15.2896 C   0  0  0  0  0  0  0  0  0  0  0  0
  -37.8241  -21.4105   19.9300 C   0  0  0  0  0  0  0  0  0  0  0  0
  -35.1289  -25.6968   16.5385 C   0  0  0  0  0  0  0  0  0  0  0  0
  -37.0273  -20.2722   20.1188 C   0  0  0  0  0  0  0  0  0  0  0  0
  -22.3620   -8.1352   21.5040 C   0  0  0  0  0  0  0  0  0  0  0  0
  -37.2992  -20.4961   22.5242 C   0  0  0  0  0  0  0  0  0  0  0  0
  -20.9141   -6.9672   22.9399 C   0  0  0  0  0  0  0  0  0  0  0  0
  -19.4385   -6.8900   25.3062 C   0  0  0  0  0  0  0  0  0  0  0  0
  -21.1770   -5.9843   23.8940 C   0  0  0  0  0  0  0  0  0  0  0  0
  -24.5873  -11.6410   20.6943 C   0  0  0  0  0  0  0  0  0  0  0  0
  -25.2370  -13.7272   20.4486 C   0  0  0  0  0  0  0  0  0  0  0  0
  -31.0619  -16.7830   21.9596 C   0  0  0  0  0  0  0  0  0  0  0  0
  -32.6002  -18.2209   23.0241 C   0  0  0  0  0  0  0  0  0  0  0  0
  -22.8886  -13.4844   21.2698 C   0  0  0  0  0  0  0  0  0  0  0  0
  -35.8291  -22.2256   17.5935 C   0  0  0  0  0  0  0  0  0  0  0  0
  -30.7402  -14.7108   20.6410 C   0  0  0  0  0  0  0  0  0  0  0  0
  -36.5859  -19.2859   16.4499 C   0  0  0  0  0  0  0  0  0  0  0  0
  -34.2192  -19.9769   23.8222 C   0  0  0  0  0  0  0  0  0  0  0  0
  -37.7041  -16.1265   17.0935 C   0  0  0  0  0  0  0  0  0  0  0  0
  -34.2477  -25.6445   14.1486 C   0  0  0  0  0  0  0  0  0  0  0  0
  -38.1415  -21.8965   18.5424 C   0  0  0  0  0  0  0  0  0  0  0  0
  -36.4357  -19.5169   18.9578 C   0  0  0  0  0  0  0  0  0  0  0  0
  -34.1340  -24.1316   14.3170 C   0  0  0  0  0  0  0  0  0  0  0  0
  -29.5481  -12.3965   18.1788 C   0  0  0  0  0  0  0  0  0  0  0  0
  -33.6684  -23.7850   15.7277 C   0  0  0  0  0  0  0  0  0  0  0  0
  -28.1266  -12.0800   18.6420 C   0  0  0  0  0  0  0  0  0  0  0  0
  -30.4866  -12.6096   19.3623 C   0  0  0  0  0  0  0  0  0  0  0  0
  -28.6020  -13.3405   20.7891 C   0  0  0  0  0  0  0  0  0  0  0  0
  -34.6751  -24.2729   16.7764 C   0  0  1  0  0  0  0  0  0  0  0  0
  -37.1149  -21.4532   17.5046 C   0  0  1  0  0  0  0  0  0  0  0  0
  -27.6147  -13.1483   19.6244 C   0  0  2  0  0  0  0  0  0  0  0  0
  -32.9597  -23.3436   26.5389 C   0  0  0  0  0  0  0  0  0  0  0  0
  -38.1807  -13.9371   15.9635 C   0  0  0  0  0  0  0  0  0  0  0  0
  -33.0042  -20.3333   26.6413 C   0  0  0  0  0  0  0  0  0  0  0  0
  -37.3225  -21.2326   25.8321 C   0  0  0  0  0  0  0  0  0  0  0  0
  -33.5938  -18.7015   16.3255 C   0  0  0  0  0  0  0  0  0  0  0  0
  -34.1483  -16.2688   16.1192 C   0  0  0  0  0  0  0  0  0  0  0  0
  -34.9014  -17.8712   14.3620 C   0  0  0  0  0  0  0  0  0  0  0  0
  -40.5661  -16.2318   17.8398 C   0  0  0  0  0  0  0  0  0  0  0  0
  -30.1220  -15.7058   21.5906 C   0  0  0  0  0  0  0  0  0  0  0  0
  -33.7458  -22.5033   25.5398 C   0  0  0  0  0  0  0  0  0  0  0  0
  -36.0278  -17.8943   16.6254 C   0  0  1  0  0  0  0  0  0  0  0  0
  -35.0373  -20.3030   25.0890 C   0  0  2  0  0  0  0  0  0  0  0  0
  -38.7565  -15.2718   16.4106 C   0  0  2  0  0  0  0  0  0  0  0  0
  -34.1965  -21.1381   26.1031 C   0  0  2  0  0  0  0  0  0  0  0  0
  -36.3774  -20.9561   24.6677 C   0  0  2  0  0  0  0  0  0  1  0  0
  -34.6772  -17.6991   15.8802 C   0  0  0  0  0  0  0  0  0  0  0  0
  -25.8457  -11.5500   20.2562 N   0  0  0  0  0  0  0  0  0  0  0  0
  -31.4009  -17.7928   21.1867 N   0  0  0  0  0  0  0  0  0  0  0  0
  -32.3039  -18.6357   21.8108 N   0  0  0  0  0  0  0  0  0  0  0  0
  -26.2135  -12.8350   20.1160 N   0  0  0  0  0  0  0  0  0  0  0  0
  -36.7699  -20.0349   17.6208 N   0  0  0  0  0  0  0  0  0  0  0  0
  -29.9542  -13.6153   20.2834 N   0  0  0  0  0  0  0  0  0  0  0  0
  -25.4390  -15.0594   20.3662 N   0  0  0  0  0  0  0  0  0  0  0  0
  -21.8872  -12.5713   21.6274 N   0  0  0  0  0  0  0  0  0  0  0  0
  -33.4726  -18.8122   23.9688 N   0  0  0  0  0  0  0  0  0  0  0  0
  -35.8138  -23.3818   16.8369 N   0  0  0  0  0  0  0  0  0  0  0  0
  -37.0806  -16.9762   16.2045 N   0  0  0  0  0  0  0  0  0  0  0  0
  -39.8912  -15.0065   17.3397 N   0  3  0  0  0  0  0  0  0  0  0  0
  -22.6466  -14.7140   21.3254 O   0  0  0  0  0  0  0  0  0  0  0  0
  -34.9178  -21.8031   18.2954 O   0  0  0  0  0  0  0  0  0  0  0  0
  -31.8866  -14.9047   20.2281 O   0  0  0  0  0  0  0  0  0  0  0  0
  -36.8556  -19.6908   15.3164 O   0  0  0  0  0  0  0  0  0  0  0  0
  -34.2553  -20.7085   22.8359 O   0  0  0  0  0  0  0  0  0  0  0  0
  -37.4571  -16.0456   18.2948 O   0  0  0  0  0  0  0  0  0  0  0  0
  -21.6462   -7.0073   21.7651 O   0  0  0  0  0  0  0  0  0  0  0  0
  -37.0383  -20.0516   23.7837 O   0  0  0  0  0  0  0  0  0  1  0  0
  -18.7309   -6.8540   26.4429 F   0  0  0  0  0  0  0  0  0  0  0  0
  -22.1379   -5.0750   23.6801 F   0  0  0  0  0  0  0  0  0  0  0  0
  -31.8087  -16.7769   23.5036 S   0  0  0  0  0  0  0  0  0  0  0  0
  1  2  1  0  0  0  0
  1  5  2  0  0  0  0
  2  6  2  0  0  0  0
  3  8  2  0  0  0  0
  3 15  1  0  0  0  0
  4  9  1  0  0  0  0
  4 15  2  0  0  0  0
  5 17  1  0  0  0  0
  6 19  1  0  0  0  0
  7 10  2  0  0  0  0
  7 18  1  0  0  0  0
  8 21  1  0  0  0  0
  9 21  2  0  0  0  0
 10 22  1  0  0  0  0
 11 12  2  0  0  0  0
 11 23  1  0  0  0  0
 12 24  1  0  0  0  0
 13 20  1  0  0  0  0
 13 22  2  0  0  0  0
 14 24  2  0  0  0  0
 14 25  1  0  0  0  0
 15 26  1  0  0  0  0
 16 26  1  0  0  0  0
 16 27  2  0  0  0  0
 16 30  1  0  0  0  0
 17 19  2  0  0  0  0
 17 36  1  0  0  0  0
 18 20  2  0  0  0  0
 18 37  1  0  0  0  0
 19 45  1  0  0  0  0
 20 38  1  0  0  0  0
 21 82  1  0  0  0  0
 22 83  1  0  0  0  0
 23 25  2  0  0  0  0
 23 82  1  0  0  0  0
 24 84  1  0  0  0  0
 25 85  1  0  0  0  0
 26 64  2  0  0  0  0
 27 67  1  0  0  0  0
 27 70  1  0  0  0  0
 28 56  1  0  0  0  0
 28 65  2  0  0  0  0
 28 86  1  0  0  0  0
 29 66  2  0  0  0  0
 29 72  1  0  0  0  0
 29 86  1  0  0  0  0
 30 71  1  0  0  0  0
 30 76  2  0  0  0  0
 31 46  1  0  0  0  0
 31 73  1  0  0  0  0
 31 77  2  0  0  0  0
 32 56  1  0  0  0  0
 32 69  1  0  0  0  0
 32 78  2  0  0  0  0
 33 58  1  0  0  0  0
 33 68  1  0  0  0  0
 33 79  2  0  0  0  0
 34 59  1  0  0  0  0
 34 72  1  0  0  0  0
 34 80  2  0  0  0  0
 35 60  1  0  0  0  0
 35 74  1  0  0  0  0
 35 81  2  0  0  0  0
 36 39  1  0  0  0  0
 37 46  1  0  0  0  0
 38 68  1  0  0  0  0
 39 41  1  0  0  0  0
 40 42  1  0  0  0  0
 40 43  1  0  0  0  0
 41 45  1  0  0  0  0
 42 47  1  0  0  0  0
 43 69  1  0  0  0  0
 44 47  1  0  0  0  0
 44 69  1  0  0  0  0
 45 73  1  0  0  0  0
 46 68  1  0  0  0  0
 47 67  1  0  0  0  0
 48 57  1  0  0  0  0
 49 60  1  0  0  0  0
 50 61  1  0  0  0  0
 51 62  1  0  0  0  0
 52 63  1  0  0  0  0
 53 63  1  0  0  0  0
 54 63  1  0  0  0  0
 55 75  1  0  0  0  0
 57 61  1  0  0  0  0
 58 63  1  0  0  0  0
 58 74  1  0  0  0  0
 59 61  1  0  0  0  0
 59 62  1  0  0  0  0
 60 75  1  0  0  0  0
 62 83  1  0  0  0  0
 64 67  1  0  0  0  0
 65 66  1  0  0  0  0
M  CHG  1  75   1
M  ISO  4  32 100  56 100  62 101  83 101
M  END
> <Batch ID>
0186

> <Smiles>
CCC(C)C(C(=O)Nc1nnc([100CH2:0][100C:0](=O)N2CCCC(n3nc(-c4ccc(Oc5ccc(F)cc5F)cc4)c(C(N)=O)c3N)C2)s1)[101CH:1](C)[101O:1]c1ccc2c(c1)CN(C(=O)C(NC(=O)C(C)NC)C(C)(C)C)C(C(=O)NC1CCCc3ccccc31)C2

> <Shape>
0.165

> <Color>
0.180

> <Negative vol penalty>
0.000

$$$$

  -OEChem-04052305093D

 82 89  0     1  0  0  0  0  0999 V2000
  -34.0460  -16.4831   33.4736 C   0  0  0  0  0  0  0  0  0  0  0  0
  -33.7122  -15.5289   32.5178 C   0  0  0  0  0  0  0  0  0  0  0  0
  -23.2842   -9.7977   19.9087 C   0  0  0  0  0  0  0  0  0  0  0  0
  -23.7184   -9.9391   22.2812 C   0  0  0  0  0  0  0  0  0  0  0  0
  -33.2587  -17.6241   33.6225 C   0  0  0  0  0  0  0  0  0  0  0  0
  -32.5901  -15.7146   31.7111 C   0  0  0  0  0  0  0  0  0  0  0  0
  -33.5015  -14.6596   26.8427 C   0  0  0  0  0  0  0  0  0  0  0  0
  -22.5510   -8.6288   20.1126 C   0  0  0  0  0  0  0  0  0  0  0  0
  -22.9851   -8.7702   22.4850 C   0  0  0  0  0  0  0  0  0  0  0  0
  -33.5323  -13.3144   26.4777 C   0  0  0  0  0  0  0  0  0  0  0  0
  -20.2619   -5.8054   20.0518 C   0  0  0  0  0  0  0  0  0  0  0  0
  -19.0388   -5.6838   19.3926 C   0  0  0  0  0  0  0  0  0  0  0  0
  -31.2802  -13.4981   25.6330 C   0  0  0  0  0  0  0  0  0  0  0  0
  -18.2329   -7.6610   20.5231 C   0  0  0  0  0  0  0  0  0  0  0  0
  -23.8679  -10.4529   20.9930 C   0  0  0  0  0  0  0  0  0  0  0  0
  -24.1403  -12.9814   20.7934 C   0  0  0  0  0  0  0  0  0  0  0  0
  -32.1319  -17.8285   32.8106 C   0  0  0  0  0  0  0  0  0  0  0  0
  -32.3539  -15.4327   26.6151 C   0  0  0  0  0  0  0  0  0  0  0  0
  -31.7862  -16.8588   31.8502 C   0  0  0  0  0  0  0  0  0  0  0  0
  -31.2383  -14.8536   25.9937 C   0  0  0  0  0  0  0  0  0  0  0  0
  -22.4014   -8.1150   21.4007 C   0  0  0  0  0  0  0  0  0  0  0  0
  -32.4206  -12.7327   25.8754 C   0  0  0  0  0  0  0  0  0  0  0  0
  -20.4706   -6.8547   20.9468 C   0  0  0  0  0  0  0  0  0  0  0  0
  -18.0243   -6.6116   19.6282 C   0  0  0  0  0  0  0  0  0  0  0  0
  -19.4561   -7.7826   21.1825 C   0  0  0  0  0  0  0  0  0  0  0  0
  -24.6259  -11.6601   20.7831 C   0  0  0  0  0  0  0  0  0  0  0  0
  -25.2472  -13.7560   20.5455 C   0  0  0  0  0  0  0  0  0  0  0  0
  -34.6615  -11.3326   18.8735 C   0  0  0  0  0  0  0  0  0  0  0  0
  -34.4299  -11.9587   20.0371 C   0  0  0  0  0  0  0  0  0  0  0  0
  -22.8079  -13.4654   21.0080 C   0  0  0  0  0  0  0  0  0  0  0  0
  -30.3066  -17.0077   28.4676 C   0  0  0  0  0  0  0  0  0  0  0  0
  -31.0159  -12.7249   21.5119 C   0  0  0  0  0  0  0  0  0  0  0  0
  -29.1061  -18.0073   25.6248 C   0  0  0  0  0  0  0  0  0  0  0  0
  -28.7280  -17.4433   22.2802 C   0  0  0  0  0  0  0  0  0  0  0  0
  -32.8746  -10.2500   22.8464 C   0  0  0  0  0  0  0  0  0  0  0  0
  -31.2842  -19.0546   33.0406 C   0  0  0  0  0  0  0  0  0  0  0  0
  -32.3462  -16.8892   26.9904 C   0  0  0  0  0  0  0  0  0  0  0  0
  -29.9891  -15.6454   25.7090 C   0  0  0  0  0  0  0  0  0  0  0  0
  -30.3258  -19.3568   31.8915 C   0  0  0  0  0  0  0  0  0  0  0  0
  -29.4859  -13.6483   18.3443 C   0  0  0  0  0  0  0  0  0  0  0  0
  -29.6006  -18.0883   31.4536 C   0  0  0  0  0  0  0  0  0  0  0  0
  -28.0150  -13.3320   18.6116 C   0  0  0  0  0  0  0  0  0  0  0  0
  -30.4098  -12.6550   19.0442 C   0  0  0  0  0  0  0  0  0  0  0  0
  -28.7033  -12.2298   20.7852 C   0  0  0  0  0  0  0  0  0  0  0  0
  -30.5908  -17.0364   30.9393 C   0  0  1  0  0  0  0  0  0  0  0  0
  -30.9401  -17.4502   27.1790 C   0  0  1  0  0  0  0  0  0  0  0  0
  -27.7387  -13.2269   20.1217 C   0  0  2  0  0  0  0  0  0  0  0  0
  -35.8680  -11.5705   18.0272 C   0  0  0  0  0  0  0  0  0  0  0  0
  -27.6648  -18.4168   20.2262 C   0  0  0  0  0  0  0  0  0  0  0  0
  -34.8281   -9.0299   23.8509 C   0  0  0  0  0  0  0  0  0  0  0  0
  -26.3786  -17.0204   26.5718 C   0  0  0  0  0  0  0  0  0  0  0  0
  -25.5911  -17.1335   24.1979 C   0  0  0  0  0  0  0  0  0  0  0  0
  -26.3340  -19.2098   25.3639 C   0  0  0  0  0  0  0  0  0  0  0  0
  -31.3441  -17.7526   20.9314 C   0  0  0  0  0  0  0  0  0  0  0  0
  -32.4400  -13.0192   21.1129 C   0  0  0  0  0  0  0  0  0  0  0  0
  -33.7150  -10.8703   25.1600 C   0  0  0  0  0  0  0  0  0  1  0  0
  -33.2109  -11.7183   20.8838 C   0  0  2  0  0  0  0  0  0  0  0  0
  -28.0567  -17.4952   24.6679 C   0  0  1  0  0  0  0  0  0  0  0  0
  -28.9230  -18.3489   21.0776 C   0  0  2  0  0  0  0  0  0  0  0  0
  -33.5139   -9.7494   24.1408 C   0  0  1  0  0  0  0  0  0  0  0  0
  -26.6128  -17.6990   25.2074 C   0  0  0  0  0  0  0  0  0  0  0  0
  -25.9390  -11.5952   20.5471 N   0  0  0  0  0  0  0  0  0  0  0  0
  -26.2879  -12.8854   20.4068 N   0  0  0  0  0  0  0  0  0  0  0  0
  -30.0282  -17.0642   26.1003 N   0  0  0  0  0  0  0  0  0  0  0  0
  -30.0964  -12.5636   20.4752 N   0  0  0  0  0  0  0  0  0  0  0  0
  -25.4220  -15.0900   20.4347 N   0  0  0  0  0  0  0  0  0  0  0  0
  -21.7893  -12.5334   21.2492 N   0  0  0  0  0  0  0  0  0  0  0  0
  -31.0211  -17.3613   29.5963 N   0  0  0  0  0  0  0  0  0  0  0  0
  -33.6544  -11.1420   22.1308 N   0  0  0  0  0  0  0  0  0  0  0  0
  -28.3152  -18.1498   23.3900 N   0  0  0  0  0  0  0  0  0  0  0  0
  -30.0395  -17.8476   20.2273 N   0  3  0  0  0  0  0  0  0  0  0  0
  -22.5258  -14.6871   20.9701 O   0  0  0  0  0  0  0  0  0  0  0  0
  -29.2472  -16.3924   28.4400 O   0  0  0  0  0  0  0  0  0  0  0  0
  -30.7307  -12.6439   22.7095 O   0  0  0  0  0  0  0  0  0  0  0  0
  -29.1119  -19.2017   25.9332 O   0  0  0  0  0  0  0  0  0  0  0  0
  -28.9190  -16.2299   22.2383 O   0  0  0  0  0  0  0  0  0  0  0  0
  -31.7561   -9.8686   22.5021 O   0  0  0  0  0  0  0  0  0  0  0  0
  -21.6858   -6.9745   21.6000 O   0  0  0  0  0  0  0  0  0  0  0  0
  -32.4478  -11.4197   25.5187 O   0  0  0  0  0  0  0  0  0  1  0  0
  -16.8502   -6.4957   18.9939 F   0  0  0  0  0  0  0  0  0  0  0  0
  -19.6511   -8.7935   22.0403 F   0  0  0  0  0  0  0  0  0  0  0  0
  -32.6857   -8.8250   24.7220 F   0  0  0  0  0  0  0  0  0  0  0  0
  1  2  1  0  0  0  0
  1  5  2  0  0  0  0
  2  6  2  0  0  0  0
  3  8  2  0  0  0  0
  3 15  1  0  0  0  0
  4  9  1  0  0  0  0
  4 15  2  0  0  0  0
  5 17  1  0  0  0  0
  6 19  1  0  0  0  0
  7 10  2  0  0  0  0
  7 18  1  0  0  0  0
  8 21  1  0  0  0  0
  9 21  2  0  0  0  0
 10 22  1  0  0  0  0
 11 12  2  0  0  0  0
 11 23  1  0  0  0  0
 12 24  1  0  0  0  0
 13 20  1  0  0  0  0
 13 22  2  0  0  0  0
 14 24  2  0  0  0  0
 14 25  1  0  0  0  0
 15 26  1  0  0  0  0
 16 26  1  0  0  0  0
 16 27  2  0  0  0  0
 16 30  1  0  0  0  0
 17 19  2  0  0  0  0
 17 36  1  0  0  0  0
 18 20  2  0  0  0  0
 18 37  1  0  0  0  0
 19 45  1  0  0  0  0
 20 38  1  0  0  0  0
 21 78  1  0  0  0  0
 22 79  1  0  0  0  0
 23 25  2  0  0  0  0
 23 78  1  0  0  0  0
 24 80  1  0  0  0  0
 25 81  1  0  0  0  0
 26 62  2  0  0  0  0
 27 63  1  0  0  0  0
 27 66  1  0  0  0  0
 28 29  2  0  0  0  0
 28 48  1  0  0  0  0
 29 57  1  0  0  0  0
 30 67  1  0  0  0  0
 30 72  2  0  0  0  0
 31 46  1  0  0  0  0
 31 68  1  0  0  0  0
 31 73  2  0  0  0  0
 32 55  1  0  0  0  0
 32 65  1  0  0  0  0
 32 74  2  0  0  0  0
 33 58  1  0  0  0  0
 33 64  1  0  0  0  0
 33 75  2  0  0  0  0
 34 59  1  0  0  0  0
 34 70  1  0  0  0  0
 34 76  2  0  0  0  0
 35 60  1  0  0  0  0
 35 69  1  0  0  0  0
 35 77  2  0  0  0  0
 36 39  1  0  0  0  0
 37 46  1  0  0  0  0
 38 64  1  0  0  0  0
 39 41  1  0  0  0  0
 40 42  1  0  0  0  0
 40 43  1  0  0  0  0
 41 45  1  0  0  0  0
 42 47  1  0  0  0  0
 43 65  1  0  0  0  0
 44 47  1  0  0  0  0
 44 65  1  0  0  0  0
 45 68  1  0  0  0  0
 46 64  1  0  0  0  0
 47 63  1  0  0  0  0
 49 59  1  0  0  0  0
 50 60  1  0  0  0  0
 51 61  1  0  0  0  0
 52 61  1  0  0  0  0
 53 61  1  0  0  0  0
 54 71  1  0  0  0  0
 55 57  1  0  0  0  0
 56 60  1  0  0  0  0
 56 79  1  0  0  0  0
 57 69  1  0  0  0  0
 58 61  1  0  0  0  0
 58 70  1  0  0  0  0
 59 71  1  0  0  0  0
 60 82  1  0  0  0  0
 62 63  1  0  0  0  0
M  CHG  1  71   1
M  ISO  4  32 100  55 100  56 101  79 101
M  END
> <Batch ID>
0186

> <Smiles>
CC=CC([100CH2:0][100C:0](=O)N1CCCC(n2nc(-c3ccc(Oc4ccc(F)cc4F)cc3)c(C(N)=O)c2N)C1)NC(=O)C(C)(F)[101CH2:1][101O:1]c1ccc2c(c1)CN(C(=O)C(NC(=O)C(C)NC)C(C)(C)C)C(C(=O)NC1CCCc3ccccc31)C2

> <Shape>
0.145

> <Color>
0.177

> <Negative vol penalty>
0.000

$$$$

  -OEChem-04052305093D

 86 94  0     1  0  0  0  0  0999 V2000
  -31.9013  -23.8519   16.1086 C   0  0  0  0  0  0  0  0  0  0  0  0
  -31.2429  -23.5387   17.2935 C   0  0  0  0  0  0  0  0  0  0  0  0
  -27.8538  -14.6917   19.0457 C   0  0  0  0  0  0  0  0  0  0  0  0
  -27.8004  -14.9760   21.4443 C   0  0  0  0  0  0  0  0  0  0  0  0
  -32.2004  -25.1803   15.8088 C   0  0  0  0  0  0  0  0  0  0  0  0
  -30.8841  -24.5537   18.1797 C   0  0  0  0  0  0  0  0  0  0  0  0
  -26.1643  -24.0206   19.9361 C   0  0  0  0  0  0  0  0  0  0  0  0
  -27.1757  -13.4795   19.1743 C   0  0  0  0  0  0  0  0  0  0  0  0
  -27.1223  -13.7638   21.5729 C   0  0  0  0  0  0  0  0  0  0  0  0
  -25.9627  -23.0789   20.9442 C   0  0  0  0  0  0  0  0  0  0  0  0
  -23.9636  -12.6257   21.1886 C   0  0  0  0  0  0  0  0  0  0  0  0
  -22.8660  -12.5870   22.0484 C   0  0  0  0  0  0  0  0  0  0  0  0
  -33.0126  -20.3932   22.6390 C   0  0  0  0  0  0  0  0  0  0  0  0
  -31.7704  -21.0017   22.9808 C   0  0  0  0  0  0  0  0  0  0  0  0
  -25.9798  -24.8442   22.5882 C   0  0  0  0  0  0  0  0  0  0  0  0
  -23.9587  -10.8823   23.3665 C   0  0  0  0  0  0  0  0  0  0  0  0
  -28.1662  -15.4399   20.1807 C   0  0  0  0  0  0  0  0  0  0  0  0
  -28.3006  -17.9701   19.8847 C   0  0  0  0  0  0  0  0  0  0  0  0
  -31.8364  -26.2130   16.6873 C   0  0  0  0  0  0  0  0  0  0  0  0
  -26.2863  -25.3823   20.2481 C   0  0  0  0  0  0  0  0  0  0  0  0
  -31.1797  -25.8971   17.8920 C   0  0  0  0  0  0  0  0  0  0  0  0
  -26.1803  -25.8014   21.5819 C   0  0  0  0  0  0  0  0  0  0  0  0
  -26.8100  -13.0156   20.4378 C   0  0  0  0  0  0  0  0  0  0  0  0
  -25.8733  -23.4903   22.2708 C   0  0  0  0  0  0  0  0  0  0  0  0
  -25.0588  -11.7927   21.4177 C   0  0  0  0  0  0  0  0  0  0  0  0
  -22.8635  -11.7153   23.1374 C   0  0  0  0  0  0  0  0  0  0  0  0
  -25.0563  -10.9211   22.5067 C   0  0  0  0  0  0  0  0  0  0  0  0
  -28.8671  -16.6918   20.0486 C   0  0  0  0  0  0  0  0  0  0  0  0
  -33.1960  -19.1918   23.2875 C   0  0  0  0  0  0  0  0  0  0  0  0
  -29.3795  -18.8167   19.8092 C   0  0  0  0  0  0  0  0  0  0  0  0
  -31.0515  -20.2418   23.8773 C   0  0  0  0  0  0  0  0  0  0  0  0
  -26.9223  -18.3576   19.8077 C   0  0  0  0  0  0  0  0  0  0  0  0
  -28.5718  -27.5652   19.9092 C   0  0  0  0  0  0  0  0  0  0  0  0
  -26.2687  -29.5787   20.9880 C   0  0  0  0  0  0  0  0  0  0  0  0
  -35.0108  -18.3320   21.8499 C   0  0  0  0  0  0  0  0  0  0  0  0
  -23.3737  -29.9922   22.7472 C   0  0  0  0  0  0  0  0  0  0  0  0
  -28.9379  -21.5447   24.2791 C   0  0  0  0  0  0  0  0  0  0  0  0
  -32.2231  -27.6294   16.3424 C   0  0  0  0  0  0  0  0  0  0  0  0
  -26.4768  -26.3884   19.1463 C   0  0  0  0  0  0  0  0  0  0  0  0
  -26.2843  -27.2537   21.9675 C   0  0  0  0  0  0  0  0  0  0  0  0
  -31.4753  -28.6808   17.1583 C   0  0  0  0  0  0  0  0  0  0  0  0
  -33.9651  -18.9415   18.4772 C   0  0  0  0  0  0  0  0  0  0  0  0
  -31.4726  -28.3064   18.6371 C   0  0  0  0  0  0  0  0  0  0  0  0
  -32.4954  -18.5230   18.4759 C   0  0  0  0  0  0  0  0  0  0  0  0
  -34.7965  -18.0578   19.4018 C   0  0  0  0  0  0  0  0  0  0  0  0
  -32.8166  -17.5788   20.8062 C   0  0  0  0  0  0  0  0  0  0  0  0
  -30.7521  -26.9724   18.8671 C   0  0  1  0  0  0  0  0  0  0  0  0
  -27.1010  -27.6936   19.6304 C   0  0  1  0  0  0  0  0  0  0  0  0
  -31.9358  -18.4656   19.9083 C   0  0  2  0  0  0  0  0  0  0  0  0
  -21.7533  -31.7600   23.4864 C   0  0  0  0  0  0  0  0  0  0  0  0
  -25.3045  -20.4980   25.2466 C   0  0  0  0  0  0  0  0  0  0  0  0
  -34.0522  -16.7523   23.4309 C   0  0  0  0  0  0  0  0  0  0  0  0
  -28.2442  -30.4918   23.1265 C   0  0  0  0  0  0  0  0  0  0  0  0
  -26.3219  -31.5034   24.3714 C   0  0  0  0  0  0  0  0  0  0  0  0
  -26.9033  -32.3316   22.0913 C   0  0  0  0  0  0  0  0  0  0  0  0
  -21.1411  -28.7260   21.2737 C   0  0  0  0  0  0  0  0  0  0  0  0
  -26.2022  -21.2641   23.0401 C   0  0  0  0  0  0  0  0  0  1  0  0
  -25.8210  -30.0610   22.3466 C   0  0  1  0  0  0  0  0  0  0  0  0
  -22.0911  -30.7337   22.4162 C   0  0  2  0  0  0  0  0  0  0  0  0
  -27.6645  -21.4210   25.1019 C   0  0  1  0  0  0  0  0  0  0  0  0
  -26.5636  -20.6169   24.3837 C   0  0  1  0  0  0  0  0  0  0  0  0
  -34.3457  -18.2652   23.2016 C   0  0  2  0  0  0  0  0  0  0  0  0
  -26.8226  -31.0693   22.9772 C   0  0  0  0  0  0  0  0  0  0  0  0
  -30.2022  -16.7192   20.0756 N   0  0  0  0  0  0  0  0  0  0  0  0
  -30.4836  -18.0249   19.9275 N   0  0  0  0  0  0  0  0  0  0  0  0
  -26.4767  -28.1985   20.8549 N   0  0  0  0  0  0  0  0  0  0  0  0
  -34.2197  -18.0114   20.7466 N   0  0  0  0  0  0  0  0  0  0  0  0
  -29.4819  -20.1538   19.6537 N   0  0  0  0  0  0  0  0  0  0  0  0
  -25.9417  -17.3608   19.9033 N   0  0  0  0  0  0  0  0  0  0  0  0
  -29.7877  -20.4634   24.4739 N   0  0  0  0  0  0  0  0  0  0  0  0
  -29.3176  -27.1580   18.8195 N   0  0  0  0  0  0  0  0  0  0  0  0
  -24.4731  -30.5900   22.1682 N   0  0  0  0  0  0  0  0  0  0  0  0
  -35.4310  -18.5789   24.2275 N   0  3  0  0  0  0  0  0  0  0  0  0
  -20.9534  -29.7773   22.3064 N   0  3  0  0  0  0  0  0  0  0  0  0
  -26.5711  -19.5504   19.6420 O   0  0  0  0  0  0  0  0  0  0  0  0
  -28.9987  -27.8184   21.0296 O   0  0  0  0  0  0  0  0  0  0  0  0
  -26.4211  -30.3956   20.0763 O   0  0  0  0  0  0  0  0  0  0  0  0
  -36.1974  -18.6624   21.7785 O   0  0  0  0  0  0  0  0  0  0  0  0
  -23.3983  -28.9857   23.4520 O   0  0  0  0  0  0  0  0  0  0  0  0
  -29.1105  -22.5114   23.5424 O   0  0  0  0  0  0  0  0  0  0  0  0
  -26.1481  -11.8330   20.5637 O   0  0  0  0  0  0  0  0  0  0  0  0
  -25.6772  -22.5732   23.2569 O   0  0  0  0  0  0  0  0  0  1  0  0
  -21.8100  -11.6793   23.9638 F   0  0  0  0  0  0  0  0  0  0  0  0
  -26.1060  -10.1193   22.7326 F   0  0  0  0  0  0  0  0  0  0  0  0
  -27.9325  -20.8218   26.2983 F   0  0  0  0  0  0  0  0  0  0  0  0
  -31.8739  -18.8016   24.3034 S   0  0  0  0  0  0  0  0  0  0  0  0
  1  2  1  0  0  0  0
  1  5  2  0  0  0  0
  2  6  2  0  0  0  0
  3  8  2  0  0  0  0
  3 17  1  0  0  0  0
  4  9  1  0  0  0  0
  4 17  2  0  0  0  0
  5 19  1  0  0  0  0
  6 21  1  0  0  0  0
  7 10  2  0  0  0  0
  7 20  1  0  0  0  0
  8 23  1  0  0  0  0
  9 23  2  0  0  0  0
 10 24  1  0  0  0  0
 11 12  2  0  0  0  0
 11 25  1  0  0  0  0
 12 26  1  0  0  0  0
 13 14  1  0  0  0  0
 13 29  2  0  0  0  0
 14 31  2  0  0  0  0
 15 22  1  0  0  0  0
 15 24  2  0  0  0  0
 16 26  2  0  0  0  0
 16 27  1  0  0  0  0
 17 28  1  0  0  0  0
 18 28  1  0  0  0  0
 18 30  2  0  0  0  0
 18 32  1  0  0  0  0
 19 21  2  0  0  0  0
 19 38  1  0  0  0  0
 20 22  2  0  0  0  0
 20 39  1  0  0  0  0
 21 47  1  0  0  0  0
 22 40  1  0  0  0  0
 23 81  1  0  0  0  0
 24 82  1  0  0  0  0
 25 27  2  0  0  0  0
 25 81  1  0  0  0  0
 26 83  1  0  0  0  0
 27 84  1  0  0  0  0
 28 64  2  0  0  0  0
 29 62  1  0  0  0  0
 29 86  1  0  0  0  0
 30 65  1  0  0  0  0
 30 68  1  0  0  0  0
 31 70  1  0  0  0  0
 31 86  1  0  0  0  0
 32 69  1  0  0  0  0
 32 75  2  0  0  0  0
 33 48  1  0  0  0  0
 33 71  1  0  0  0  0
 33 76  2  0  0  0  0
 34 58  1  0  0  0  0
 34 66  1  0  0  0  0
 34 77  2  0  0  0  0
 35 62  1  0  0  0  0
 35 67  1  0  0  0  0
 35 78  2  0  0  0  0
 36 59  1  0  0  0  0
 36 72  1  0  0  0  0
 36 79  2  0  0  0  0
 37 60  1  0  0  0  0
 37 70  1  0  0  0  0
 37 80  2  0  0  0  0
 38 41  1  0  0  0  0
 39 48  1  0  0  0  0
 40 66  1  0  0  0  0
 41 43  1  0  0  0  0
 42 44  1  0  0  0  0
 42 45  1  0  0  0  0
 43 47  1  0  0  0  0
 44 49  1  0  0  0  0
 45 67  1  0  0  0  0
 46 49  1  0  0  0  0
 46 67  1  0  0  0  0
 47 71  1  0  0  0  0
 48 66  1  0  0  0  0
 49 65  1  0  0  0  0
 50 59  1  0  0  0  0
 51 61  1  0  0  0  0
 52 62  1  0  0  0  0
 53 63  1  0  0  0  0
 54 63  1  0  0  0  0
 55 63  1  0  0  0  0
 56 74  1  0  0  0  0
 57 61  1  0  0  0  0
 57 82  1  0  0  0  0
 58 63  1  0  0  0  0
 58 72  1  0  0  0  0
 59 74  1  0  0  0  0
 60 61  1  0  0  0  0
 60 85  1  0  0  0  0
 62 73  1  0  0  0  0
 64 65  1  0  0  0  0
M  CHG  2  73   1  74   1
M  ISO  4  35 100  57 101  62 100  82 101
M  END
> <Batch ID>
0186

> <Smiles>
CNC(C)C(=O)NC(C(=O)N1Cc2cc([101O:1][101CH2:1]C(C)C(F)C(=O)Nc3ccc([100C:0](C)(N)[100C:0](=O)N4CCCC(n5nc(-c6ccc(Oc7ccc(F)cc7F)cc6)c(C(N)=O)c5N)C4)s3)ccc2CC1C(=O)NC1CCCc2ccccc21)C(C)(C)C

> <Shape>
0.215

> <Color>
0.073

> <Negative vol penalty>
0.000

$$$$

  -OEChem-04052305093D

 83 91  0     1  0  0  0  0  0999 V2000
  -26.6208   -9.0545   17.9845 C   0  0  0  0  0  0  0  0  0  0  0  0
  -25.9285   -9.9262   18.8190 C   0  0  0  0  0  0  0  0  0  0  0  0
  -24.9106  -30.5463   20.3629 C   0  0  0  0  0  0  0  0  0  0  0  0
  -24.1268  -28.8824   21.9294 C   0  0  0  0  0  0  0  0  0  0  0  0
  -28.0071   -9.1519   17.8725 C   0  0  0  0  0  0  0  0  0  0  0  0
  -26.6224  -10.8953   19.5428 C   0  0  0  0  0  0  0  0  0  0  0  0
  -24.3801  -15.4322   19.3611 C   0  0  0  0  0  0  0  0  0  0  0  0
  -24.5795  -31.5546   21.2680 C   0  0  0  0  0  0  0  0  0  0  0  0
  -23.7957  -29.8907   22.8347 C   0  0  0  0  0  0  0  0  0  0  0  0
  -23.2688  -15.6265   20.1803 C   0  0  0  0  0  0  0  0  0  0  0  0
  -24.2743  -34.5458   23.3112 C   0  0  0  0  0  0  0  0  0  0  0  0
  -25.2026  -35.5673   23.5122 C   0  0  0  0  0  0  0  0  0  0  0  0
  -24.6559  -16.7872   21.7765 C   0  0  0  0  0  0  0  0  0  0  0  0
  -26.8251  -33.9444   24.2675 C   0  0  0  0  0  0  0  0  0  0  0  0
  -19.4661  -20.3285   17.9963 C   0  0  0  0  0  0  0  0  0  0  0  0
  -24.6843  -29.2102   20.6935 C   0  0  0  0  0  0  0  0  0  0  0  0
  -26.2546  -27.4898   19.6533 C   0  0  0  0  0  0  0  0  0  0  0  0
  -28.7173  -10.1289   18.5879 C   0  0  0  0  0  0  0  0  0  0  0  0
  -25.6418  -15.9052   19.7492 C   0  0  0  0  0  0  0  0  0  0  0  0
  -28.0197  -11.0050   19.4412 C   0  0  0  0  0  0  0  0  0  0  0  0
  -25.7811  -16.5999   20.9593 C   0  0  0  0  0  0  0  0  0  0  0  0
  -24.0221  -31.2268   22.5039 C   0  0  0  0  0  0  0  0  0  0  0  0
  -23.4071  -16.3015   21.3895 C   0  0  0  0  0  0  0  0  0  0  0  0
  -24.6215  -33.2235   23.5884 C   0  0  0  0  0  0  0  0  0  0  0  0
  -26.4780  -35.2666   23.9903 C   0  0  0  0  0  0  0  0  0  0  0  0
  -25.8969  -32.9228   24.0665 C   0  0  0  0  0  0  0  0  0  0  0  0
  -25.0256  -28.1683   19.7587 C   0  0  0  0  0  0  0  0  0  0  0  0
  -26.0699  -26.6033   18.6206 C   0  0  0  0  0  0  0  0  0  0  0  0
  -19.7804  -20.4038   19.3371 C   0  0  0  0  0  0  0  0  0  0  0  0
  -20.5536  -22.2330   17.9736 C   0  0  0  0  0  0  0  0  0  0  0  0
  -27.4557  -27.6469   20.4204 C   0  0  0  0  0  0  0  0  0  0  0  0
  -28.4464  -14.5516   20.3861 C   0  0  0  0  0  0  0  0  0  0  0  0
  -29.4459  -17.6307   20.5918 C   0  0  0  0  0  0  0  0  0  0  0  0
  -18.8119  -18.3380   20.4043 C   0  0  0  0  0  0  0  0  0  0  0  0
  -28.6514  -20.9041   21.1400 C   0  0  0  0  0  0  0  0  0  0  0  0
  -21.2222  -23.9925   16.2993 C   0  0  0  0  0  0  0  0  0  0  0  0
  -30.2205  -10.1650   18.4708 C   0  0  0  0  0  0  0  0  0  0  0  0
  -26.8256  -15.7110   18.8418 C   0  0  0  0  0  0  0  0  0  0  0  0
  -27.1100  -17.1453   21.4122 C   0  0  0  0  0  0  0  0  0  0  0  0
  -30.8404  -11.4622   18.9839 C   0  0  0  0  0  0  0  0  0  0  0  0
  -23.5729  -26.0356   14.5738 C   0  0  0  0  0  0  0  0  0  0  0  0
  -30.2439  -11.8407   20.3358 C   0  0  0  0  0  0  0  0  0  0  0  0
  -24.3281  -26.7480   15.6982 C   0  0  0  0  0  0  0  0  0  0  0  0
  -22.0928  -25.8585   14.9082 C   0  0  0  0  0  0  0  0  0  0  0  0
  -22.5761  -25.9250   17.3230 C   0  0  0  0  0  0  0  0  0  0  0  0
  -28.7343  -12.0855   20.2236 C   0  0  1  0  0  0  0  0  0  0  0  0
  -28.1604  -15.7849   19.5769 C   0  0  1  0  0  0  0  0  0  0  0  0
  -24.0840  -26.0684   17.0598 C   0  0  2  0  0  0  0  0  0  0  0  0
  -17.8960  -16.4275   21.7846 C   0  0  0  0  0  0  0  0  0  0  0  0
  -29.6869  -23.1857   21.2803 C   0  0  0  0  0  0  0  0  0  0  0  0
  -30.5551  -16.9549   23.3527 C   0  0  0  0  0  0  0  0  0  0  0  0
  -30.7053  -19.4106   23.8167 C   0  0  0  0  0  0  0  0  0  0  0  0
  -32.0378  -18.4100   21.9604 C   0  0  0  0  0  0  0  0  0  0  0  0
  -27.0222  -21.9094   18.8831 C   0  0  0  0  0  0  0  0  0  0  0  0
  -20.1322  -17.4807   22.3965 C   0  0  0  0  0  0  0  0  0  0  0  0
  -21.0539  -16.6057   21.5510 C   0  0  0  0  0  0  0  0  0  1  0  0
  -29.5351  -18.6541   21.6979 C   0  0  1  0  0  0  0  0  0  0  0  0
  -18.7323  -17.7069   21.8003 C   0  0  1  0  0  0  0  0  0  0  0  0
  -29.0065  -22.1681   20.3779 C   0  0  2  0  0  0  0  0  0  0  0  0
  -30.6835  -18.3456   22.6996 C   0  0  0  0  0  0  0  0  0  0  0  0
  -19.9083  -21.3767   17.2130 N   0  0  0  0  0  0  0  0  0  0  0  0
  -24.1267  -27.7488   18.8642 N   0  0  0  0  0  0  0  0  0  0  0  0
  -24.7915  -26.7973   18.1869 N   0  0  0  0  0  0  0  0  0  0  0  0
  -28.2387  -16.9244   20.4932 N   0  0  0  0  0  0  0  0  0  0  0  0
  -21.9390  -25.2045   16.2096 N   0  0  0  0  0  0  0  0  0  0  0  0
  -26.8781  -25.6846   18.0503 N   0  0  0  0  0  0  0  0  0  0  0  0
  -27.4741  -28.6035   21.4445 N   0  0  0  0  0  0  0  0  0  0  0  0
  -19.5074  -19.5433   20.4269 N   0  0  0  0  0  0  0  0  0  0  0  0
  -21.1700  -23.4472   17.5817 N   0  0  0  0  0  0  0  0  0  0  0  0
  -28.4748  -13.3861   19.6443 N   0  0  0  0  0  0  0  0  0  0  0  0
  -29.6456  -19.9535   21.0439 N   0  0  0  0  0  0  0  0  0  0  0  0
  -27.7785  -22.7917   19.8085 N   0  3  0  0  0  0  0  0  0  0  0  0
  -28.4875  -26.9707   20.1933 O   0  0  0  0  0  0  0  0  0  0  0  0
  -28.6294  -14.6503   21.5937 O   0  0  0  0  0  0  0  0  0  0  0  0
  -30.4091  -17.4691   19.8383 O   0  0  0  0  0  0  0  0  0  0  0  0
  -18.3055  -17.7963   19.4256 O   0  0  0  0  0  0  0  0  0  0  0  0
  -27.5992  -20.7745   21.7617 O   0  0  0  0  0  0  0  0  0  0  0  0
  -20.7167  -23.4625   15.3066 O   0  0  0  0  0  0  0  0  0  0  0  0
  -23.6990  -32.2104   23.3875 O   0  0  0  0  0  0  0  0  0  0  0  0
  -22.3241  -16.4919   22.1913 O   0  0  0  0  0  0  0  0  0  1  0  0
  -27.3698  -36.2476   24.1818 F   0  0  0  0  0  0  0  0  0  0  0  0
  -26.2365  -31.6543   24.3334 F   0  0  0  0  0  0  0  0  0  0  0  0
  -20.6671  -21.8402   19.6403 S   0  0  0  0  0  0  0  0  0  0  0  0
  1  2  1  0  0  0  0
  1  5  2  0  0  0  0
  2  6  2  0  0  0  0
  3  8  2  0  0  0  0
  3 16  1  0  0  0  0
  4  9  1  0  0  0  0
  4 16  2  0  0  0  0
  5 18  1  0  0  0  0
  6 20  1  0  0  0  0
  7 10  2  0  0  0  0
  7 19  1  0  0  0  0
  8 22  1  0  0  0  0
  9 22  2  0  0  0  0
 10 23  1  0  0  0  0
 11 12  2  0  0  0  0
 11 24  1  0  0  0  0
 12 25  1  0  0  0  0
 13 21  1  0  0  0  0
 13 23  2  0  0  0  0
 14 25  2  0  0  0  0
 14 26  1  0  0  0  0
 15 29  2  0  0  0  0
 15 61  1  0  0  0  0
 16 27  1  0  0  0  0
 17 27  1  0  0  0  0
 17 28  2  0  0  0  0
 17 31  1  0  0  0  0
 18 20  2  0  0  0  0
 18 37  1  0  0  0  0
 19 21  2  0  0  0  0
 19 38  1  0  0  0  0
 20 46  1  0  0  0  0
 21 39  1  0  0  0  0
 22 79  1  0  0  0  0
 23 80  1  0  0  0  0
 24 26  2  0  0  0  0
 24 79  1  0  0  0  0
 25 81  1  0  0  0  0
 26 82  1  0  0  0  0
 27 62  2  0  0  0  0
 28 63  1  0  0  0  0
 28 66  1  0  0  0  0
 29 68  1  0  0  0  0
 29 83  1  0  0  0  0
 30 61  2  0  0  0  0
 30 69  1  0  0  0  0
 30 83  1  0  0  0  0
 31 67  1  0  0  0  0
 31 73  2  0  0  0  0
 32 47  1  0  0  0  0
 32 70  1  0  0  0  0
 32 74  2  0  0  0  0
 33 57  1  0  0  0  0
 33 64  1  0  0  0  0
 33 75  2  0  0  0  0
 34 58  1  0  0  0  0
 34 68  1  0  0  0  0
 34 76  2  0  0  0  0
 35 59  1  0  0  0  0
 35 71  1  0  0  0  0
 35 77  2  0  0  0  0
 36 65  1  0  0  0  0
 36 69  1  0  0  0  0
 36 78  2  0  0  0  0
 37 40  1  0  0  0  0
 38 47  1  0  0  0  0
 39 64  1  0  0  0  0
 40 42  1  0  0  0  0
 41 43  1  0  0  0  0
 41 44  1  0  0  0  0
 42 46  1  0  0  0  0
 43 48  1  0  0  0  0
 44 65  1  0  0  0  0
 45 48  1  0  0  0  0
 45 65  1  0  0  0  0
 46 70  1  0  0  0  0
 47 64  1  0  0  0  0
 48 63  1  0  0  0  0
 49 58  1  0  0  0  0
 50 59  1  0  0  0  0
 51 60  1  0  0  0  0
 52 60  1  0  0  0  0
 53 60  1  0  0  0  0
 54 72  1  0  0  0  0
 55 56  1  0  0  0  0
 55 58  1  0  0  0  0
 56 80  1  0  0  0  0
 57 60  1  0  0  0  0
 57 71  1  0  0  0  0
 59 72  1  0  0  0  0
 62 63  1  0  0  0  0
M  CHG  1  72   1
M  ISO  4  36 100  56 101  69 100  80 101
M  END
> <Batch ID>
0186

> <Smiles>
CNC(C)C(=O)NC(C(=O)N1Cc2cc([101O:1][101CH2:1]CC(C)C(=O)Nc3cnc([100NH:0][100C:0](=O)N4CCCC(n5nc(-c6ccc(Oc7ccc(F)cc7F)cc6)c(C(N)=O)c5N)C4)s3)ccc2CC1C(=O)NC1CCCc2ccccc21)C(C)(C)C

> <Shape>
0.240

> <Color>
0.062

> <Negative vol penalty>
0.000

$$$$

  -OEChem-04052305093D

 83 91  0     1  0  0  0  0  0999 V2000
  -30.7793  -23.8463   15.5518 C   0  0  0  0  0  0  0  0  0  0  0  0
  -29.4132  -24.0739   15.6835 C   0  0  0  0  0  0  0  0  0  0  0  0
  -24.5654  -12.6016   21.5718 C   0  0  0  0  0  0  0  0  0  0  0  0
  -22.7206  -13.7392   20.5041 C   0  0  0  0  0  0  0  0  0  0  0  0
  -31.6010  -23.8727   16.6779 C   0  0  0  0  0  0  0  0  0  0  0  0
  -28.8678  -24.3270   16.9416 C   0  0  0  0  0  0  0  0  0  0  0  0
  -24.1833  -28.0513   18.2420 C   0  0  0  0  0  0  0  0  0  0  0  0
  -23.6650  -11.8508   22.3275 C   0  0  0  0  0  0  0  0  0  0  0  0
  -21.8202  -12.9883   21.2598 C   0  0  0  0  0  0  0  0  0  0  0  0
  -22.8280  -27.8114   18.4642 C   0  0  0  0  0  0  0  0  0  0  0  0
  -21.8462   -9.3797   24.2771 C   0  0  0  0  0  0  0  0  0  0  0  0
  -22.0801   -8.0094   24.3912 C   0  0  0  0  0  0  0  0  0  0  0  0
  -23.2290  -27.7832   20.8427 C   0  0  0  0  0  0  0  0  0  0  0  0
  -21.9119   -7.7808   21.9919 C   0  0  0  0  0  0  0  0  0  0  0  0
  -24.0932  -13.5459   20.6601 C   0  0  0  0  0  0  0  0  0  0  0  0
  -25.5523  -13.9962   18.6166 C   0  0  0  0  0  0  0  0  0  0  0  0
  -31.0668  -24.1358   17.9492 C   0  0  0  0  0  0  0  0  0  0  0  0
  -25.0750  -28.1483   19.3199 C   0  0  0  0  0  0  0  0  0  0  0  0
  -29.6829  -24.3556   18.0860 C   0  0  0  0  0  0  0  0  0  0  0  0
  -24.5947  -28.0269   20.6317 C   0  0  0  0  0  0  0  0  0  0  0  0
  -22.2925  -12.0441   22.1715 C   0  0  0  0  0  0  0  0  0  0  0  0
  -22.3511  -27.6745   19.7645 C   0  0  0  0  0  0  0  0  0  0  0  0
  -21.6450   -9.9506   23.0203 C   0  0  0  0  0  0  0  0  0  0  0  0
  -22.1130   -7.2099   23.2487 C   0  0  0  0  0  0  0  0  0  0  0  0
  -21.6779   -9.1512   21.8778 C   0  0  0  0  0  0  0  0  0  0  0  0
  -25.0228  -14.3223   19.8796 C   0  0  0  0  0  0  0  0  0  0  0  0
  -26.3788  -15.0491   18.3086 C   0  0  0  0  0  0  0  0  0  0  0  0
  -23.1217  -23.4456   19.8013 C   0  0  0  0  0  0  0  0  0  0  0  0
  -25.3181  -12.8446   17.7953 C   0  0  0  0  0  0  0  0  0  0  0  0
  -27.6292  -26.5133   20.2722 C   0  0  0  0  0  0  0  0  0  0  0  0
  -26.4356  -20.7735   20.1359 C   0  0  0  0  0  0  0  0  0  0  0  0
  -27.8291  -28.8721   22.4899 C   0  0  0  0  0  0  0  0  0  0  0  0
  -20.8743  -24.5807   19.7542 C   0  0  0  0  0  0  0  0  0  0  0  0
  -26.2422  -31.3000   24.2883 C   0  0  0  0  0  0  0  0  0  0  0  0
  -31.9874  -24.1072   19.1435 C   0  0  0  0  0  0  0  0  0  0  0  0
  -26.5295  -28.4339   19.0647 C   0  0  0  0  0  0  0  0  0  0  0  0
  -25.5073  -28.1428   21.8242 C   0  0  0  0  0  0  0  0  0  0  0  0
  -31.3882  -24.7534   20.3899 C   0  0  0  0  0  0  0  0  0  0  0  0
  -29.1091  -18.3971   20.3468 C   0  0  0  0  0  0  0  0  0  0  0  0
  -29.9588  -24.2678   20.6083 C   0  0  0  0  0  0  0  0  0  0  0  0
  -28.4084  -17.0513   20.1646 C   0  0  0  0  0  0  0  0  0  0  0  0
  -28.2328  -19.3838   21.1120 C   0  0  0  0  0  0  0  0  0  0  0  0
  -26.1803  -18.2494   20.3232 C   0  0  0  0  0  0  0  0  0  0  0  0
  -29.0576  -24.6581   19.4305 C   0  0  1  0  0  0  0  0  0  0  0  0
  -27.4340  -28.0021   20.2148 C   0  0  1  0  0  0  0  0  0  0  0  0
  -27.0191  -17.2332   19.5281 C   0  0  2  0  0  0  0  0  0  0  0  0
  -19.4700  -26.8149   23.3786 C   0  0  0  0  0  0  0  0  0  0  0  0
  -26.6605  -33.0377   26.0497 C   0  0  0  0  0  0  0  0  0  0  0  0
  -27.9022  -26.6903   24.6216 C   0  0  0  0  0  0  0  0  0  0  0  0
  -27.3636  -28.4390   26.3305 C   0  0  0  0  0  0  0  0  0  0  0  0
  -29.4798  -28.5898   25.0185 C   0  0  0  0  0  0  0  0  0  0  0  0
  -25.4402  -33.4975   22.4755 C   0  0  0  0  0  0  0  0  0  0  0  0
  -25.0714  -20.8247   19.4953 C   0  0  0  0  0  0  0  0  0  0  0  0
  -19.8152  -27.5372   22.0818 C   0  0  0  0  0  0  0  0  0  0  0  0
  -27.2773  -29.0829   23.8792 C   0  0  1  0  0  0  0  0  0  0  0  0
  -19.9953  -25.3843   20.7092 C   0  0  1  0  0  0  0  0  0  0  0  0
  -26.6001  -32.7504   24.5576 C   0  0  2  0  0  0  0  0  0  0  0  0
  -20.6873  -26.6865   21.1471 C   0  0  1  0  0  0  0  0  0  1  0  0
  -27.9886  -28.1963   24.9401 C   0  0  0  0  0  0  0  0  0  0  0  0
  -25.4750  -15.4908   20.3422 N   0  0  0  0  0  0  0  0  0  0  0  0
  -24.2881  -23.0410   20.3361 N   0  0  0  0  0  0  0  0  0  0  0  0
  -26.2975  -15.9082   19.3648 N   0  0  0  0  0  0  0  0  0  0  0  0
  -24.7072  -22.1848   19.1406 N   0  0  0  0  0  0  0  0  0  0  0  0
  -26.9222  -28.4164   21.5226 N   0  0  0  0  0  0  0  0  0  0  0  0
  -26.9143  -19.5117   20.4889 N   0  0  0  0  0  0  0  0  0  0  0  0
  -27.1600  -15.3145   17.2401 N   0  0  0  0  0  0  0  0  0  0  0  0
  -24.4397  -11.8577   18.2632 N   0  0  0  0  0  0  0  0  0  0  0  0
  -22.0620  -24.1935   20.3672 N   0  0  0  0  0  0  0  0  0  0  0  0
  -28.6912  -26.0555   19.5158 N   0  0  0  0  0  0  0  0  0  0  0  0
  -27.3664  -30.5154   24.1409 N   0  0  0  0  0  0  0  0  0  0  0  0
  -18.6851  -25.6848   20.0618 N   0  3  0  0  0  0  0  0  0  0  0  0
  -25.5874  -33.6562   23.9452 N   0  3  0  0  0  0  0  0  0  0  0  0
  -25.8839  -12.6872   16.6869 O   0  0  0  0  0  0  0  0  0  0  0  0
  -26.8732  -25.8307   20.9535 O   0  0  0  0  0  0  0  0  0  0  0  0
  -27.0569  -21.8245   20.3138 O   0  0  0  0  0  0  0  0  0  0  0  0
  -29.0191  -29.1102   22.2693 O   0  0  0  0  0  0  0  0  0  0  0  0
  -20.5216  -24.3452   18.6021 O   0  0  0  0  0  0  0  0  0  0  0  0
  -25.0814  -30.9021   24.2197 O   0  0  0  0  0  0  0  0  0  0  0  0
  -21.4136  -11.3114   22.9086 O   0  0  0  0  0  0  0  0  0  0  0  0
  -21.0288  -27.4396   19.9841 O   0  0  0  0  0  0  0  0  0  1  0  0
  -22.3392   -5.8943   23.3583 F   0  0  0  0  0  0  0  0  0  0  0  0
  -21.4865   -9.6941   20.6677 F   0  0  0  0  0  0  0  0  0  0  0  0
  -23.2424  -22.4882   18.3641 S   0  0  0  0  0  0  0  0  0  0  0  0
  1  2  1  0  0  0  0
  1  5  2  0  0  0  0
  2  6  2  0  0  0  0
  3  8  2  0  0  0  0
  3 15  1  0  0  0  0
  4  9  1  0  0  0  0
  4 15  2  0  0  0  0
  5 17  1  0  0  0  0
  6 19  1  0  0  0  0
  7 10  2  0  0  0  0
  7 18  1  0  0  0  0
  8 21  1  0  0  0  0
  9 21  2  0  0  0  0
 10 22  1  0  0  0  0
 11 12  2  0  0  0  0
 11 23  1  0  0  0  0
 12 24  1  0  0  0  0
 13 20  1  0  0  0  0
 13 22  2  0  0  0  0
 14 24  2  0  0  0  0
 14 25  1  0  0  0  0
 15 26  1  0  0  0  0
 16 26  1  0  0  0  0
 16 27  2  0  0  0  0
 16 29  1  0  0  0  0
 17 19  2  0  0  0  0
 17 35  1  0  0  0  0
 18 20  2  0  0  0  0
 18 36  1  0  0  0  0
 19 44  1  0  0  0  0
 20 37  1  0  0  0  0
 21 79  1  0  0  0  0
 22 80  1  0  0  0  0
 23 25  2  0  0  0  0
 23 79  1  0  0  0  0
 24 81  1  0  0  0  0
 25 82  1  0  0  0  0
 26 60  2  0  0  0  0
 27 62  1  0  0  0  0
 27 66  1  0  0  0  0
 28 61  2  0  0  0  0
 28 68  1  0  0  0  0
 28 83  1  0  0  0  0
 29 67  1  0  0  0  0
 29 73  2  0  0  0  0
 30 45  1  0  0  0  0
 30 69  1  0  0  0  0
 30 74  2  0  0  0  0
 31 53  1  0  0  0  0
 31 65  1  0  0  0  0
 31 75  2  0  0  0  0
 32 55  1  0  0  0  0
 32 64  1  0  0  0  0
 32 76  2  0  0  0  0
 33 56  1  0  0  0  0
 33 68  1  0  0  0  0
 33 77  2  0  0  0  0
 34 57  1  0  0  0  0
 34 70  1  0  0  0  0
 34 78  2  0  0  0  0
 35 38  1  0  0  0  0
 36 45  1  0  0  0  0
 37 64  1  0  0  0  0
 38 40  1  0  0  0  0
 39 41  1  0  0  0  0
 39 42  1  0  0  0  0
 40 44  1  0  0  0  0
 41 46  1  0  0  0  0
 42 65  1  0  0  0  0
 43 46  1  0  0  0  0
 43 65  1  0  0  0  0
 44 69  1  0  0  0  0
 45 64  1  0  0  0  0
 46 62  1  0  0  0  0
 47 54  1  0  0  0  0
 48 57  1  0  0  0  0
 49 59  1  0  0  0  0
 50 59  1  0  0  0  0
 51 59  1  0  0  0  0
 52 72  1  0  0  0  0
 53 63  1  0  0  0  0
 54 58  1  0  0  0  0
 55 59  1  0  0  0  0
 55 70  1  0  0  0  0
 56 58  1  0  0  0  0
 56 71  1  0  0  0  0
 57 72  1  0  0  0  0
 58 80  1  0  0  0  0
 60 62  1  0  0  0  0
 61 63  1  0  0  0  0
 63 83  1  0  0  0  0
M  CHG  2  71   1  72   1
M  ISO  4  31 100  53 100  58 101  80 101
M  END
> <Batch ID>
0186

> <Smiles>
CC[101CH:1](C(N)C(=O)Nc1nn([100CH2:0][100C:0](=O)N2CCCC(n3nc(-c4ccc(Oc5ccc(F)cc5F)cc4)c(C(N)=O)c3N)C2)s1)[101O:1]c1ccc2c(c1)CN(C(=O)C(NC(=O)C(C)NC)C(C)(C)C)C(C(=O)NC1CCCc3ccccc31)C2

> <Shape>
0.258

> <Color>
0.050

> <Negative vol penalty>
0.000

$$$$

  -OEChem-04052305093D

 87 95  0     1  0  0  0  0  0999 V2000
  -32.4059  -26.6286   23.6520 C   0  0  0  0  0  0  0  0  0  0  0  0
  -31.7488  -27.1044   22.5230 C   0  0  0  0  0  0  0  0  0  0  0  0
  -26.3253  -12.6023   21.6011 C   0  0  0  0  0  0  0  0  0  0  0  0
  -25.8940  -13.5240   19.4099 C   0  0  0  0  0  0  0  0  0  0  0  0
  -31.7012  -25.9026   24.6098 C   0  0  0  0  0  0  0  0  0  0  0  0
  -30.3843  -26.8645   22.3572 C   0  0  0  0  0  0  0  0  0  0  0  0
  -26.6660  -28.1834   17.7136 C   0  0  0  0  0  0  0  0  0  0  0  0
  -25.0988  -11.9391   21.5636 C   0  0  0  0  0  0  0  0  0  0  0  0
  -24.6675  -12.8607   19.3723 C   0  0  0  0  0  0  0  0  0  0  0  0
  -26.2120  -27.5629   16.5506 C   0  0  0  0  0  0  0  0  0  0  0  0
  -21.8397  -12.7018   22.0334 C   0  0  0  0  0  0  0  0  0  0  0  0
  -21.0402  -12.7540   23.1752 C   0  0  0  0  0  0  0  0  0  0  0  0
  -24.2178  -26.8596   17.7116 C   0  0  0  0  0  0  0  0  0  0  0  0
  -21.1193  -10.3450   23.3409 C   0  0  0  0  0  0  0  0  0  0  0  0
  -26.7229  -13.3949   20.5243 C   0  0  0  0  0  0  0  0  0  0  0  0
  -29.2326  -13.5960   20.1140 C   0  0  0  0  0  0  0  0  0  0  0  0
  -30.3301  -25.6435   24.4488 C   0  0  0  0  0  0  0  0  0  0  0  0
  -25.9031  -28.1373   18.8893 C   0  0  0  0  0  0  0  0  0  0  0  0
  -29.6503  -26.1543   23.3244 C   0  0  0  0  0  0  0  0  0  0  0  0
  -24.6632  -27.4825   18.8875 C   0  0  0  0  0  0  0  0  0  0  0  0
  -24.2699  -12.0682   20.4491 C   0  0  0  0  0  0  0  0  0  0  0  0
  -24.9891  -26.8984   16.5502 C   0  0  0  0  0  0  0  0  0  0  0  0
  -22.2789  -11.4711   21.5453 C   0  0  0  0  0  0  0  0  0  0  0  0
  -20.6800  -11.5757   23.8290 C   0  0  0  0  0  0  0  0  0  0  0  0
  -21.9187  -10.2927   22.1990 C   0  0  0  0  0  0  0  0  0  0  0  0
  -27.9894  -14.0807   20.5627 C   0  0  0  0  0  0  0  0  0  0  0  0
  -28.7303  -23.5162   17.7744 C   0  0  0  0  0  0  0  0  0  0  0  0
  -30.1127  -14.6190   20.3701 C   0  0  0  0  0  0  0  0  0  0  0  0
  -27.6475  -23.0117   17.0851 C   0  0  0  0  0  0  0  0  0  0  0  0
  -28.4187  -21.6867   18.9431 C   0  0  0  0  0  0  0  0  0  0  0  0
  -29.5624  -12.3340   19.5188 C   0  0  0  0  0  0  0  0  0  0  0  0
  -26.3461  -26.9531   21.8057 C   0  0  0  0  0  0  0  0  0  0  0  0
  -23.5248  -28.4345   22.4125 C   0  0  0  0  0  0  0  0  0  0  0  0
  -25.8322  -22.8851   15.3435 C   0  0  0  0  0  0  0  0  0  0  0  0
  -20.5882  -29.6820   21.2014 C   0  0  0  0  0  0  0  0  0  0  0  0
  -29.4489  -20.5309   20.9303 C   0  0  0  0  0  0  0  0  0  0  0  0
  -29.6146  -24.8591   25.5203 C   0  0  0  0  0  0  0  0  0  0  0  0
  -26.3945  -28.8345   20.1282 C   0  0  0  0  0  0  0  0  0  0  0  0
  -23.7968  -27.4215   20.1180 C   0  0  0  0  0  0  0  0  0  0  0  0
  -28.2865  -24.2787   25.0454 C   0  0  0  0  0  0  0  0  0  0  0  0
  -30.8089  -18.3019   23.3509 C   0  0  0  0  0  0  0  0  0  0  0  0
  -27.4613  -25.3595   24.3632 C   0  0  0  0  0  0  0  0  0  0  0  0
  -30.3584  -16.9218   22.8664 C   0  0  0  0  0  0  0  0  0  0  0  0
  -29.7402  -19.3657   23.1057 C   0  0  0  0  0  0  0  0  0  0  0  0
  -28.7957  -18.0626   21.2405 C   0  0  0  0  0  0  0  0  0  0  0  0
  -28.1732  -25.8794   23.1078 C   0  0  1  0  0  0  0  0  0  0  0  0
  -25.7743  -28.2848   21.4090 C   0  0  1  0  0  0  0  0  0  0  0  0
  -29.8647  -16.9703   21.4071 C   0  0  2  0  0  0  0  0  0  0  0  0
  -31.1544  -23.7592   15.8596 C   0  0  0  0  0  0  0  0  0  0  0  0
  -29.3259  -25.7966   18.6322 C   0  0  0  0  0  0  0  0  0  0  0  0
  -25.4836  -22.9559   12.8399 C   0  0  0  0  0  0  0  0  0  0  0  0
  -18.4666  -30.7977   21.9440 C   0  0  0  0  0  0  0  0  0  0  0  0
  -22.4930  -25.7642   23.4681 C   0  0  0  0  0  0  0  0  0  0  0  0
  -20.1670  -26.6746   23.2971 C   0  0  0  0  0  0  0  0  0  0  0  0
  -21.8176  -27.7535   24.8250 C   0  0  0  0  0  0  0  0  0  0  0  0
  -21.1435  -32.0860   19.5670 C   0  0  0  0  0  0  0  0  0  0  0  0
  -30.9492  -24.5982   17.1151 C   0  0  0  0  0  0  0  0  0  0  0  0
  -23.8921  -24.2110   14.3815 C   0  0  0  0  0  0  0  0  0  0  0  0
  -23.7144  -25.1415   15.5784 C   0  0  0  0  0  0  0  0  0  1  0  0
  -29.4422  -24.7754   17.4737 C   0  0  1  0  0  0  0  0  0  0  0  0
  -22.0701  -28.0406   22.3258 C   0  0  1  0  0  0  0  0  0  0  0  0
  -25.3317  -23.7180   14.1563 C   0  0  1  0  0  0  0  0  0  0  0  0
  -19.8842  -31.0066   21.4345 C   0  0  2  0  0  0  0  0  0  0  0  0
  -21.6539  -27.0575   23.4562 C   0  0  0  0  0  0  0  0  0  0  0  0
  -28.0686  -15.3155   21.0659 N   0  0  0  0  0  0  0  0  0  0  0  0
  -29.1737  -22.7580   18.8404 N   0  0  0  0  0  0  0  0  0  0  0  0
  -29.3720  -15.6152   20.9350 N   0  0  0  0  0  0  0  0  0  0  0  0
  -24.3237  -28.1131   21.3061 N   0  0  0  0  0  0  0  0  0  0  0  0
  -29.3241  -19.3560   21.7016 N   0  0  0  0  0  0  0  0  0  0  0  0
  -31.4401  -14.7544   20.1650 N   0  0  0  0  0  0  0  0  0  0  0  0
  -28.5374  -11.3974   19.3274 N   0  0  0  0  0  0  0  0  0  0  0  0
  -26.9240  -23.4846   15.9645 N   0  0  0  0  0  0  0  0  0  0  0  0
  -28.5208  -20.6426   19.8955 N   0  0  0  0  0  0  0  0  0  0  0  0
  -27.4663  -27.0389   22.6102 N   0  0  0  0  0  0  0  0  0  0  0  0
  -21.3104  -29.2860   22.3073 N   0  0  0  0  0  0  0  0  0  0  0  0
  -19.8177  -31.7879   20.1672 N   0  3  0  0  0  0  0  0  0  0  0  0
  -30.7342  -12.0392   19.1821 O   0  0  0  0  0  0  0  0  0  0  0  0
  -25.8097  -25.9239   21.4122 O   0  0  0  0  0  0  0  0  0  0  0  0
  -23.9356  -29.0128   23.4218 O   0  0  0  0  0  0  0  0  0  0  0  0
  -25.2923  -21.8283   15.6587 O   0  0  0  0  0  0  0  0  0  0  0  0
  -20.5028  -29.0591   20.1454 O   0  0  0  0  0  0  0  0  0  0  0  0
  -30.3324  -21.3626   21.1531 O   0  0  0  0  0  0  0  0  0  0  0  0
  -23.0732  -11.4209   20.4120 O   0  0  0  0  0  0  0  0  0  0  0  0
  -24.5438  -26.2914   15.4166 O   0  0  0  0  0  0  0  0  0  1  0  0
  -19.9136  -11.6262   24.9263 F   0  0  0  0  0  0  0  0  0  0  0  0
  -22.3386   -9.1076   21.7355 F   0  0  0  0  0  0  0  0  0  0  0  0
  -27.1575  -21.5272   17.7903 S   0  0  0  0  0  0  0  0  0  0  0  0
  1  2  1  0  0  0  0
  1  5  2  0  0  0  0
  2  6  2  0  0  0  0
  3  8  2  0  0  0  0
  3 15  1  0  0  0  0
  4  9  1  0  0  0  0
  4 15  2  0  0  0  0
  5 17  1  0  0  0  0
  6 19  1  0  0  0  0
  7 10  2  0  0  0  0
  7 18  1  0  0  0  0
  8 21  1  0  0  0  0
  9 21  2  0  0  0  0
 10 22  1  0  0  0  0
 11 12  2  0  0  0  0
 11 23  1  0  0  0  0
 12 24  1  0  0  0  0
 13 20  1  0  0  0  0
 13 22  2  0  0  0  0
 14 24  2  0  0  0  0
 14 25  1  0  0  0  0
 15 26  1  0  0  0  0
 16 26  1  0  0  0  0
 16 28  2  0  0  0  0
 16 31  1  0  0  0  0
 17 19  2  0  0  0  0
 17 37  1  0  0  0  0
 18 20  2  0  0  0  0
 18 38  1  0  0  0  0
 19 46  1  0  0  0  0
 20 39  1  0  0  0  0
 21 83  1  0  0  0  0
 22 84  1  0  0  0  0
 23 25  2  0  0  0  0
 23 83  1  0  0  0  0
 24 85  1  0  0  0  0
 25 86  1  0  0  0  0
 26 65  2  0  0  0  0
 27 29  2  0  0  0  0
 27 60  1  0  0  0  0
 27 66  1  0  0  0  0
 28 67  1  0  0  0  0
 28 70  1  0  0  0  0
 29 72  1  0  0  0  0
 29 87  1  0  0  0  0
 30 66  2  0  0  0  0
 30 73  1  0  0  0  0
 30 87  1  0  0  0  0
 31 71  1  0  0  0  0
 31 77  2  0  0  0  0
 32 47  1  0  0  0  0
 32 74  1  0  0  0  0
 32 78  2  0  0  0  0
 33 61  1  0  0  0  0
 33 68  1  0  0  0  0
 33 79  2  0  0  0  0
 34 62  1  0  0  0  0
 34 72  1  0  0  0  0
 34 80  2  0  0  0  0
 35 63  1  0  0  0  0
 35 75  1  0  0  0  0
 35 81  2  0  0  0  0
 36 69  1  0  0  0  0
 36 73  1  0  0  0  0
 36 82  2  0  0  0  0
 37 40  1  0  0  0  0
 38 47  1  0  0  0  0
 39 68  1  0  0  0  0
 40 42  1  0  0  0  0
 41 43  1  0  0  0  0
 41 44  1  0  0  0  0
 42 46  1  0  0  0  0
 43 48  1  0  0  0  0
 44 69  1  0  0  0  0
 45 48  1  0  0  0  0
 45 69  1  0  0  0  0
 46 74  1  0  0  0  0
 47 68  1  0  0  0  0
 48 67  1  0  0  0  0
 49 57  1  0  0  0  0
 50 60  1  0  0  0  0
 51 62  1  0  0  0  0
 52 63  1  0  0  0  0
 53 64  1  0  0  0  0
 54 64  1  0  0  0  0
 55 64  1  0  0  0  0
 56 76  1  0  0  0  0
 57 60  1  0  0  0  0
 58 59  1  0  0  0  0
 58 62  1  0  0  0  0
 59 84  1  0  0  0  0
 61 64  1  0  0  0  0
 61 75  1  0  0  0  0
 63 76  1  0  0  0  0
 65 67  1  0  0  0  0
M  CHG  1  76   1
M  ISO  4  36 100  59 101  73 100  84 101
M  END
> <Batch ID>
0186

> <Smiles>
CCC(C)c1nc([100NH:0][100C:0](=O)N2CCCC(n3nc(-c4ccc(Oc5ccc(F)cc5F)cc4)c(C(N)=O)c3N)C2)sc1NC(=O)C(C)C[101CH2:1][101O:1]c1ccc2c(c1)CN(C(=O)C(NC(=O)C(C)NC)C(C)(C)C)C(C(=O)NC1CCCc3ccccc31)C2

> <Shape>
0.237

> <Color>
0.089

> <Negative vol penalty>
0.000

$$$$

  -OEChem-04052305093D

 86 94  0     1  0  0  0  0  0999 V2000
  -18.1206  -25.6778   22.6947 C   0  0  0  0  0  0  0  0  0  0  0  0
  -19.4070  -25.4767   22.2045 C   0  0  0  0  0  0  0  0  0  0  0  0
  -21.3556  -20.2865   24.9418 C   0  0  0  0  0  0  0  0  0  0  0  0
  -23.7387  -20.2147   25.3329 C   0  0  0  0  0  0  0  0  0  0  0  0
  -17.5966  -26.9679   22.7654 C   0  0  0  0  0  0  0  0  0  0  0  0
  -20.1697  -26.5656   21.7838 C   0  0  0  0  0  0  0  0  0  0  0  0
  -26.2361  -27.2292   22.2973 C   0  0  0  0  0  0  0  0  0  0  0  0
  -21.1519  -19.4337   26.0265 C   0  0  0  0  0  0  0  0  0  0  0  0
  -23.5350  -19.3619   26.4177 C   0  0  0  0  0  0  0  0  0  0  0  0
  -27.2812  -27.0288   21.3965 C   0  0  0  0  0  0  0  0  0  0  0  0
  -20.0327  -16.9873   28.4733 C   0  0  0  0  0  0  0  0  0  0  0  0
  -19.1424  -15.9265   28.3078 C   0  0  0  0  0  0  0  0  0  0  0  0
  -27.2533  -29.3784   20.8508 C   0  0  0  0  0  0  0  0  0  0  0  0
  -20.5060  -15.0625   26.5102 C   0  0  0  0  0  0  0  0  0  0  0  0
  -22.6491  -20.6770   24.5949 C   0  0  0  0  0  0  0  0  0  0  0  0
  -22.8996  -22.9646   23.4941 C   0  0  0  0  0  0  0  0  0  0  0  0
  -18.3568  -28.0741   22.3543 C   0  0  0  0  0  0  0  0  0  0  0  0
  -25.6835  -28.5058   22.4739 C   0  0  0  0  0  0  0  0  0  0  0  0
  -19.6548  -27.8715   21.8478 C   0  0  0  0  0  0  0  0  0  0  0  0
  -26.2029  -29.5928   21.7563 C   0  0  0  0  0  0  0  0  0  0  0  0
  -22.2415  -18.9714   26.7645 C   0  0  0  0  0  0  0  0  0  0  0  0
  -27.7880  -28.1030   20.6710 C   0  0  0  0  0  0  0  0  0  0  0  0
  -21.1597  -17.0859   27.6572 C   0  0  0  0  0  0  0  0  0  0  0  0
  -19.3790  -14.9640   27.3263 C   0  0  0  0  0  0  0  0  0  0  0  0
  -21.3963  -16.1234   26.6757 C   0  0  0  0  0  0  0  0  0  0  0  0
  -22.8602  -21.5576   23.4741 C   0  0  0  0  0  0  0  0  0  0  0  0
  -29.1128  -21.2372   18.6272 C   0  0  0  0  0  0  0  0  0  0  0  0
  -30.2377  -20.7524   19.2611 C   0  0  0  0  0  0  0  0  0  0  0  0
  -23.1257  -23.3204   22.1869 C   0  0  0  0  0  0  0  0  0  0  0  0
  -29.8630  -23.1239   19.4563 C   0  0  0  0  0  0  0  0  0  0  0  0
  -22.7456  -23.8692   24.5958 C   0  0  0  0  0  0  0  0  0  0  0  0
  -22.8092  -29.7874   22.0269 C   0  0  0  0  0  0  0  0  0  0  0  0
  -24.1771  -32.3780   23.4197 C   0  0  0  0  0  0  0  0  0  0  0  0
  -27.0272  -34.1040   24.1578 C   0  0  0  0  0  0  0  0  0  0  0  0
  -29.2109  -25.5556   19.4843 C   0  0  0  0  0  0  0  0  0  0  0  0
  -25.6733  -20.4824   17.5710 C   0  0  0  0  0  0  0  0  0  0  0  0
  -17.7302  -29.4450   22.4053 C   0  0  0  0  0  0  0  0  0  0  0  0
  -24.5744  -28.7102   23.4691 C   0  0  0  0  0  0  0  0  0  0  0  0
  -25.6583  -30.9869   21.9242 C   0  0  0  0  0  0  0  0  0  0  0  0
  -18.7421  -30.5820   22.2897 C   0  0  0  0  0  0  0  0  0  0  0  0
  -22.3719  -21.8083   17.7107 C   0  0  0  0  0  0  0  0  0  0  0  0
  -19.7206  -30.3120   21.1510 C   0  0  0  0  0  0  0  0  0  0  0  0
  -22.1263  -22.0213   19.2054 C   0  0  0  0  0  0  0  0  0  0  0  0
  -23.2002  -20.5524   17.4483 C   0  0  0  0  0  0  0  0  0  0  0  0
  -24.2283  -20.6978   19.6834 C   0  0  0  0  0  0  0  0  0  0  0  0
  -20.5223  -29.0297   21.4049 C   0  0  1  0  0  0  0  0  0  0  0  0
  -23.7443  -29.9595   23.1904 C   0  0  1  0  0  0  0  0  0  0  0  0
  -23.4446  -21.9827   20.0015 C   0  0  2  0  0  0  0  0  0  0  0  0
  -27.8242  -36.2061   25.2728 C   0  0  0  0  0  0  0  0  0  0  0  0
  -31.0996  -27.2259   19.5333 C   0  0  0  0  0  0  0  0  0  0  0  0
  -31.0834  -18.7871   17.9315 C   0  0  0  0  0  0  0  0  0  0  0  0
  -29.7375  -18.4041   20.0238 C   0  0  0  0  0  0  0  0  0  0  0  0
  -32.0899  -19.1959   20.1679 C   0  0  0  0  0  0  0  0  0  0  0  0
  -23.2650  -34.0026   21.0033 C   0  0  0  0  0  0  0  0  0  0  0  0
  -24.8656  -35.7993   21.6947 C   0  0  0  0  0  0  0  0  0  0  0  0
  -22.9852  -35.1585   23.2034 C   0  0  0  0  0  0  0  0  0  0  0  0
  -28.6042  -32.5871   26.1506 C   0  0  0  0  0  0  0  0  0  0  0  0
  -28.1385  -20.4400   17.8546 C   0  0  0  0  0  0  0  0  0  0  0  0
  -24.9409  -33.5812   22.9216 C   0  0  1  0  0  0  0  0  0  0  0  0
  -27.5214  -34.7265   25.4512 C   0  0  2  0  0  0  0  0  0  0  0  0
  -29.7289  -26.8605   20.0837 C   0  0  1  0  0  0  0  0  0  1  0  0
  -30.7623  -19.3750   19.3466 C   0  0  0  0  0  0  0  0  0  0  0  0
  -24.0234  -34.6089   22.2009 C   0  0  0  0  0  0  0  0  0  0  0  0
  -23.0462  -21.0538   22.2511 N   0  0  0  0  0  0  0  0  0  0  0  0
  -28.8961  -22.5968   18.7384 N   0  0  0  0  0  0  0  0  0  0  0  0
  -23.2046  -22.1504   21.4905 N   0  0  0  0  0  0  0  0  0  0  0  0
  -24.5699  -31.1346   22.9046 N   0  0  0  0  0  0  0  0  0  0  0  0
  -24.4376  -20.5788   18.2319 N   0  0  0  0  0  0  0  0  0  0  0  0
  -23.2626  -24.5168   21.5767 N   0  0  0  0  0  0  0  0  0  0  0  0
  -22.5193  -23.3355   25.8719 N   0  0  0  0  0  0  0  0  0  0  0  0
  -30.0322  -24.4826   19.8146 N   0  0  0  0  0  0  0  0  0  0  0  0
  -21.5732  -29.2734   22.3697 N   0  0  0  0  0  0  0  0  0  0  0  0
  -25.6509  -34.1207   24.0762 N   0  0  0  0  0  0  0  0  0  0  0  0
  -26.7969  -20.5218   18.3876 N   0  0  0  0  0  0  0  0  0  0  0  0
  -28.7637  -34.0448   25.9126 N   0  3  0  0  0  0  0  0  0  0  0  0
  -22.7905  -25.1143   24.4502 O   0  0  0  0  0  0  0  0  0  0  0  0
  -23.1811  -30.0993   20.9017 O   0  0  0  0  0  0  0  0  0  0  0  0
  -23.2703  -32.5350   24.2411 O   0  0  0  0  0  0  0  0  0  0  0  0
  -27.7864  -33.6518   23.3036 O   0  0  0  0  0  0  0  0  0  0  0  0
  -28.1806  -25.5265   18.8173 O   0  0  0  0  0  0  0  0  0  0  0  0
  -25.7685  -20.3750   16.3437 O   0  0  0  0  0  0  0  0  0  0  0  0
  -22.0431  -18.1393   27.8232 O   0  0  0  0  0  0  0  0  0  0  0  0
  -28.8076  -27.9101   19.7906 O   0  0  0  0  0  0  0  0  0  1  0  0
  -18.5248  -13.9444   27.1686 F   0  0  0  0  0  0  0  0  0  0  0  0
  -22.4779  -16.2121   25.8895 F   0  0  0  0  0  0  0  0  0  0  0  0
  -31.0663  -22.0428   20.0291 S   0  0  0  0  0  0  0  0  0  0  0  0
  1  2  1  0  0  0  0
  1  5  2  0  0  0  0
  2  6  2  0  0  0  0
  3  8  2  0  0  0  0
  3 15  1  0  0  0  0
  4  9  1  0  0  0  0
  4 15  2  0  0  0  0
  5 17  1  0  0  0  0
  6 19  1  0  0  0  0
  7 10  2  0  0  0  0
  7 18  1  0  0  0  0
  8 21  1  0  0  0  0
  9 21  2  0  0  0  0
 10 22  1  0  0  0  0
 11 12  2  0  0  0  0
 11 23  1  0  0  0  0
 12 24  1  0  0  0  0
 13 20  1  0  0  0  0
 13 22  2  0  0  0  0
 14 24  2  0  0  0  0
 14 25  1  0  0  0  0
 15 26  1  0  0  0  0
 16 26  1  0  0  0  0
 16 29  2  0  0  0  0
 16 31  1  0  0  0  0
 17 19  2  0  0  0  0
 17 37  1  0  0  0  0
 18 20  2  0  0  0  0
 18 38  1  0  0  0  0
 19 46  1  0  0  0  0
 20 39  1  0  0  0  0
 21 82  1  0  0  0  0
 22 83  1  0  0  0  0
 23 25  2  0  0  0  0
 23 82  1  0  0  0  0
 24 84  1  0  0  0  0
 25 85  1  0  0  0  0
 26 64  2  0  0  0  0
 27 28  2  0  0  0  0
 27 58  1  0  0  0  0
 27 65  1  0  0  0  0
 28 62  1  0  0  0  0
 28 86  1  0  0  0  0
 29 66  1  0  0  0  0
 29 69  1  0  0  0  0
 30 65  2  0  0  0  0
 30 71  1  0  0  0  0
 30 86  1  0  0  0  0
 31 70  1  0  0  0  0
 31 76  2  0  0  0  0
 32 47  1  0  0  0  0
 32 72  1  0  0  0  0
 32 77  2  0  0  0  0
 33 59  1  0  0  0  0
 33 67  1  0  0  0  0
 33 78  2  0  0  0  0
 34 60  1  0  0  0  0
 34 73  1  0  0  0  0
 34 79  2  0  0  0  0
 35 61  1  0  0  0  0
 35 71  1  0  0  0  0
 35 80  2  0  0  0  0
 36 68  1  0  0  0  0
 36 74  1  0  0  0  0
 36 81  2  0  0  0  0
 37 40  1  0  0  0  0
 38 47  1  0  0  0  0
 39 67  1  0  0  0  0
 40 42  1  0  0  0  0
 41 43  1  0  0  0  0
 41 44  1  0  0  0  0
 42 46  1  0  0  0  0
 43 48  1  0  0  0  0
 44 68  1  0  0  0  0
 45 48  1  0  0  0  0
 45 68  1  0  0  0  0
 46 72  1  0  0  0  0
 47 67  1  0  0  0  0
 48 66  1  0  0  0  0
 49 60  1  0  0  0  0
 50 61  1  0  0  0  0
 51 62  1  0  0  0  0
 52 62  1  0  0  0  0
 53 62  1  0  0  0  0
 54 63  1  0  0  0  0
 55 63  1  0  0  0  0
 56 63  1  0  0  0  0
 57 75  1  0  0  0  0
 58 74  1  0  0  0  0
 59 63  1  0  0  0  0
 59 73  1  0  0  0  0
 60 75  1  0  0  0  0
 61 83  1  0  0  0  0
 64 66  1  0  0  0  0
M  CHG  1  75   1
M  ISO  4  36 100  61 101  74 100  83 101
M  END
> <Batch ID>
0186

> <Smiles>
CNC(C)C(=O)NC(C(=O)N1Cc2cc([101O:1][101CH:1](C)C(=O)Nc3nc(C[100NH:0][100C:0](=O)N4CCCC(n5nc(-c6ccc(Oc7ccc(F)cc7F)cc6)c(C(N)=O)c5N)C4)c(C(C)(C)C)s3)ccc2CC1C(=O)NC1CCCc2ccccc21)C(C)(C)C

> <Shape>
0.208

> <Color>
0.078

> <Negative vol penalty>
0.000

$$$$

  -OEChem-04052305093D

 83 91  0     1  0  0  0  0  0999 V2000
  -22.8791  -23.6653   27.4412 C   0  0  0  0  0  0  0  0  0  0  0  0
  -23.8135  -23.7006   26.4112 C   0  0  0  0  0  0  0  0  0  0  0  0
  -26.3994  -12.8207   21.6427 C   0  0  0  0  0  0  0  0  0  0  0  0
  -25.7384  -13.9024   19.5860 C   0  0  0  0  0  0  0  0  0  0  0  0
  -21.7545  -24.4878   27.3891 C   0  0  0  0  0  0  0  0  0  0  0  0
  -23.6233  -24.5577   25.3278 C   0  0  0  0  0  0  0  0  0  0  0  0
  -27.9574  -27.5033   22.1585 C   0  0  0  0  0  0  0  0  0  0  0  0
  -25.1590  -12.1859   21.7076 C   0  0  0  0  0  0  0  0  0  0  0  0
  -24.4980  -13.2676   19.6508 C   0  0  0  0  0  0  0  0  0  0  0  0
  -28.5838  -27.2254   20.9443 C   0  0  0  0  0  0  0  0  0  0  0  0
  -23.6434   -9.5271   20.2700 C   0  0  0  0  0  0  0  0  0  0  0  0
  -23.6262   -8.1685   20.5851 C   0  0  0  0  0  0  0  0  0  0  0  0
  -27.0254  -28.6793   19.8144 C   0  0  0  0  0  0  0  0  0  0  0  0
  -22.2835   -8.6383   22.5379 C   0  0  0  0  0  0  0  0  0  0  0  0
  -26.6890  -13.6790   20.5820 C   0  0  0  0  0  0  0  0  0  0  0  0
  -29.1374  -13.8591   19.8888 C   0  0  0  0  0  0  0  0  0  0  0  0
  -21.5552  -25.3624   26.3093 C   0  0  0  0  0  0  0  0  0  0  0  0
  -26.8516  -28.3642   22.2082 C   0  0  0  0  0  0  0  0  0  0  0  0
  -22.4942  -25.3917   25.2606 C   0  0  0  0  0  0  0  0  0  0  0  0
  -26.3883  -28.9685   21.0308 C   0  0  0  0  0  0  0  0  0  0  0  0
  -24.2084  -12.4093   20.7116 C   0  0  0  0  0  0  0  0  0  0  0  0
  -28.1160  -27.8111   19.7716 C   0  0  0  0  0  0  0  0  0  0  0  0
  -22.9807  -10.4415   21.0890 C   0  0  0  0  0  0  0  0  0  0  0  0
  -22.9462   -7.7240   21.7190 C   0  0  0  0  0  0  0  0  0  0  0  0
  -22.3007   -9.9970   22.2229 C   0  0  0  0  0  0  0  0  0  0  0  0
  -27.9699  -14.3354   20.5147 C   0  0  0  0  0  0  0  0  0  0  0  0
  -29.2343  -23.6636   17.8956 C   0  0  0  0  0  0  0  0  0  0  0  0
  -30.0698  -14.8440   20.1061 C   0  0  0  0  0  0  0  0  0  0  0  0
  -28.5826  -22.9680   16.8988 C   0  0  0  0  0  0  0  0  0  0  0  0
  -29.0340  -21.7333   18.9173 C   0  0  0  0  0  0  0  0  0  0  0  0
  -29.3593  -12.6358   19.1746 C   0  0  0  0  0  0  0  0  0  0  0  0
  -23.8051  -28.0556   23.0610 C   0  0  0  0  0  0  0  0  0  0  0  0
  -23.7512  -31.2634   22.5824 C   0  0  0  0  0  0  0  0  0  0  0  0
  -25.1155  -33.9862   21.0422 C   0  0  0  0  0  0  0  0  0  0  0  0
  -29.6419  -20.7138   21.1393 C   0  0  0  0  0  0  0  0  0  0  0  0
  -20.3002  -26.1981   26.2740 C   0  0  0  0  0  0  0  0  0  0  0  0
  -26.2036  -28.6747   23.5296 C   0  0  0  0  0  0  0  0  0  0  0  0
  -25.2173  -29.9157   21.0333 C   0  0  0  0  0  0  0  0  0  0  0  0
  -20.3631  -27.3494   25.2737 C   0  0  0  0  0  0  0  0  0  0  0  0
  -31.2154  -18.2939   23.2238 C   0  0  0  0  0  0  0  0  0  0  0  0
  -20.9070  -26.8635   23.9339 C   0  0  0  0  0  0  0  0  0  0  0  0
  -30.6726  -16.9604   22.7047 C   0  0  0  0  0  0  0  0  0  0  0  0
  -30.1553  -19.3931   23.1806 C   0  0  0  0  0  0  0  0  0  0  0  0
  -28.9613  -18.2431   21.3583 C   0  0  0  0  0  0  0  0  0  0  0  0
  -22.3356  -26.3259   24.0807 C   0  0  1  0  0  0  0  0  0  0  0  0
  -24.7653  -29.1636   23.3896 C   0  0  1  0  0  0  0  0  0  0  0  0
  -30.0117  -17.1211   21.3217 C   0  0  2  0  0  0  0  0  0  0  0  0
  -24.8317  -36.4692   20.8156 C   0  0  0  0  0  0  0  0  0  0  0  0
  -31.7641  -25.2585   18.8344 C   0  0  0  0  0  0  0  0  0  0  0  0
  -21.3761  -30.8195   20.7191 C   0  0  0  0  0  0  0  0  0  0  0  0
  -21.7449  -33.1242   19.8135 C   0  0  0  0  0  0  0  0  0  0  0  0
  -21.1672  -32.8092   22.2196 C   0  0  0  0  0  0  0  0  0  0  0  0
  -30.7330  -27.7086   17.2966 C   0  0  0  0  0  0  0  0  0  0  0  0
  -30.7488  -28.0443   19.7735 C   0  0  0  0  0  0  0  0  0  0  0  0
  -27.7979  -34.5131   22.1763 C   0  0  0  0  0  0  0  0  0  0  0  0
  -23.4714  -32.1639   21.4034 C   0  0  1  0  0  0  0  0  0  0  0  0
  -25.5213  -35.3478   21.5769 C   0  0  2  0  0  0  0  0  0  0  0  0
  -30.3040  -25.7159   18.8281 C   0  0  1  0  0  0  0  0  0  0  0  0
  -21.9608  -32.2099   21.0382 C   0  0  0  0  0  0  0  0  0  0  0  0
  -30.1202  -27.2428   18.6243 C   0  0  0  0  0  0  0  0  0  1  0  0
  -28.1423  -15.5299   21.0870 N   0  0  0  0  0  0  0  0  0  0  0  0
  -29.4936  -22.9573   19.0539 N   0  0  0  0  0  0  0  0  0  0  0  0
  -29.4291  -15.8125   20.8215 N   0  0  0  0  0  0  0  0  0  0  0  0
  -24.6135  -30.1827   22.3492 N   0  0  0  0  0  0  0  0  0  0  0  0
  -29.5763  -19.4903   21.8389 N   0  0  0  0  0  0  0  0  0  0  0  0
  -31.3670  -14.9674   19.7533 N   0  0  0  0  0  0  0  0  0  0  0  0
  -28.2933  -11.7353   19.0445 N   0  0  0  0  0  0  0  0  0  0  0  0
  -29.6177  -24.9849   17.7772 N   0  0  0  0  0  0  0  0  0  0  0  0
  -29.0874  -20.6771   19.8603 N   0  0  0  0  0  0  0  0  0  0  0  0
  -23.2802  -27.4188   24.1694 N   0  0  0  0  0  0  0  0  0  0  0  0
  -24.0454  -33.4630   21.7368 N   0  0  0  0  0  0  0  0  0  0  0  0
  -26.9949  -35.5339   21.4550 N   0  3  0  0  0  0  0  0  0  0  0  0
  -30.4746  -12.3424   18.6810 O   0  0  0  0  0  0  0  0  0  0  0  0
  -23.5575  -27.7984   21.8887 O   0  0  0  0  0  0  0  0  0  0  0  0
  -23.2298  -31.5139   23.6718 O   0  0  0  0  0  0  0  0  0  0  0  0
  -25.6880  -33.4428   20.1001 O   0  0  0  0  0  0  0  0  0  0  0  0
  -30.1767  -21.7127   21.6275 O   0  0  0  0  0  0  0  0  0  0  0  0
  -22.9980  -11.7899   20.7744 O   0  0  0  0  0  0  0  0  0  0  0  0
  -28.7252  -27.5410   18.5851 O   0  0  0  0  0  0  0  0  0  1  0  0
  -22.9285   -6.4191   22.0206 F   0  0  0  0  0  0  0  0  0  0  0  0
  -21.6612  -10.8705   23.0128 F   0  0  0  0  0  0  0  0  0  0  0  0
  -28.2377  -23.4608   15.7061 F   0  0  0  0  0  0  0  0  0  0  0  0
  -28.2789  -21.3630   17.4213 S   0  0  0  0  0  0  0  0  0  0  0  0
  1  2  1  0  0  0  0
  1  5  2  0  0  0  0
  2  6  2  0  0  0  0
  3  8  2  0  0  0  0
  3 15  1  0  0  0  0
  4  9  1  0  0  0  0
  4 15  2  0  0  0  0
  5 17  1  0  0  0  0
  6 19  1  0  0  0  0
  7 10  2  0  0  0  0
  7 18  1  0  0  0  0
  8 21  1  0  0  0  0
  9 21  2  0  0  0  0
 10 22  1  0  0  0  0
 11 12  2  0  0  0  0
 11 23  1  0  0  0  0
 12 24  1  0  0  0  0
 13 20  1  0  0  0  0
 13 22  2  0  0  0  0
 14 24  2  0  0  0  0
 14 25  1  0  0  0  0
 15 26  1  0  0  0  0
 16 26  1  0  0  0  0
 16 28  2  0  0  0  0
 16 31  1  0  0  0  0
 17 19  2  0  0  0  0
 17 36  1  0  0  0  0
 18 20  2  0  0  0  0
 18 37  1  0  0  0  0
 19 45  1  0  0  0  0
 20 38  1  0  0  0  0
 21 78  1  0  0  0  0
 22 79  1  0  0  0  0
 23 25  2  0  0  0  0
 23 78  1  0  0  0  0
 24 80  1  0  0  0  0
 25 81  1  0  0  0  0
 26 61  2  0  0  0  0
 27 29  2  0  0  0  0
 27 62  1  0  0  0  0
 27 68  1  0  0  0  0
 28 63  1  0  0  0  0
 28 66  1  0  0  0  0
 29 82  1  0  0  0  0
 29 83  1  0  0  0  0
 30 62  2  0  0  0  0
 30 69  1  0  0  0  0
 30 83  1  0  0  0  0
 31 67  1  0  0  0  0
 31 73  2  0  0  0  0
 32 46  1  0  0  0  0
 32 70  1  0  0  0  0
 32 74  2  0  0  0  0
 33 56  1  0  0  0  0
 33 64  1  0  0  0  0
 33 75  2  0  0  0  0
 34 57  1  0  0  0  0
 34 71  1  0  0  0  0
 34 76  2  0  0  0  0
 35 65  1  0  0  0  0
 35 69  1  0  0  0  0
 35 77  2  0  0  0  0
 36 39  1  0  0  0  0
 37 46  1  0  0  0  0
 38 64  1  0  0  0  0
 39 41  1  0  0  0  0
 40 42  1  0  0  0  0
 40 43  1  0  0  0  0
 41 45  1  0  0  0  0
 42 47  1  0  0  0  0
 43 65  1  0  0  0  0
 44 47  1  0  0  0  0
 44 65  1  0  0  0  0
 45 70  1  0  0  0  0
 46 64  1  0  0  0  0
 47 63  1  0  0  0  0
 48 57  1  0  0  0  0
 49 58  1  0  0  0  0
 50 59  1  0  0  0  0
 51 59  1  0  0  0  0
 52 59  1  0  0  0  0
 53 60  1  0  0  0  0
 54 60  1  0  0  0  0
 55 72  1  0  0  0  0
 56 59  1  0  0  0  0
 56 71  1  0  0  0  0
 57 72  1  0  0  0  0
 58 60  1  0  0  0  0
 58 68  1  0  0  0  0
 60 79  1  0  0  0  0
 61 63  1  0  0  0  0
M  CHG  1  72   1
M  ISO  4  35 100  60 101  69 100  79 101
M  END
> <Batch ID>
0186

> <Smiles>
CNC(C)C(=O)NC(C(=O)N1Cc2cc([101O:1][101C:1](C)(C)C(C)Nc3nc([100NH:0][100C:0](=O)N4CCCC(n5nc(-c6ccc(Oc7ccc(F)cc7F)cc6)c(C(N)=O)c5N)C4)sc3F)ccc2CC1C(=O)NC1CCCc2ccccc21)C(C)(C)C

> <Shape>
0.284

> <Color>
0.075

> <Negative vol penalty>
0.000

$$$$

  -OEChem-04052305093D

 85 93  0     1  0  0  0  0  0999 V2000
  -20.1801   -7.8068   22.5997 C   0  0  0  0  0  0  0  0  0  0  0  0
  -20.8813   -8.8791   23.1417 C   0  0  0  0  0  0  0  0  0  0  0  0
  -26.7463  -31.2635   22.4871 C   0  0  0  0  0  0  0  0  0  0  0  0
  -25.8125  -29.6220   23.9939 C   0  0  0  0  0  0  0  0  0  0  0  0
  -20.8053   -6.9547   21.6903 C   0  0  0  0  0  0  0  0  0  0  0  0
  -22.2086   -9.0994   22.7754 C   0  0  0  0  0  0  0  0  0  0  0  0
  -23.1659  -13.9713   21.7789 C   0  0  0  0  0  0  0  0  0  0  0  0
  -25.6518  -32.0971   22.7170 C   0  0  0  0  0  0  0  0  0  0  0  0
  -24.7180  -30.4556   24.2238 C   0  0  0  0  0  0  0  0  0  0  0  0
  -23.3331  -14.8234   22.8696 C   0  0  0  0  0  0  0  0  0  0  0  0
  -24.6108  -34.2357   25.1202 C   0  0  0  0  0  0  0  0  0  0  0  0
  -24.8631  -35.5879   25.3517 C   0  0  0  0  0  0  0  0  0  0  0  0
  -25.7267  -14.6820   22.6055 C   0  0  0  0  0  0  0  0  0  0  0  0
  -23.5335  -36.1670   23.4194 C   0  0  0  0  0  0  0  0  0  0  0  0
  -26.8266  -30.0259   23.1255 C   0  0  0  0  0  0  0  0  0  0  0  0
  -29.1677  -29.1332   23.6052 C   0  0  0  0  0  0  0  0  0  0  0  0
  -22.1379   -7.1704   21.3053 C   0  0  0  0  0  0  0  0  0  0  0  0
  -24.2800  -13.4586   21.0989 C   0  0  0  0  0  0  0  0  0  0  0  0
  -22.8526   -8.2487   21.8610 C   0  0  0  0  0  0  0  0  0  0  0  0
  -25.5710  -13.8256   21.5049 C   0  0  0  0  0  0  0  0  0  0  0  0
  -24.6377  -31.6931   23.5853 C   0  0  0  0  0  0  0  0  0  0  0  0
  -24.6137  -15.1766   23.2849 C   0  0  0  0  0  0  0  0  0  0  0  0
  -23.8199  -33.8492   24.0381 C   0  0  0  0  0  0  0  0  0  0  0  0
  -24.3245  -36.5535   24.5014 C   0  0  0  0  0  0  0  0  0  0  0  0
  -23.2812  -34.8148   23.1878 C   0  0  0  0  0  0  0  0  0  0  0  0
  -27.9567  -29.1641   22.8881 C   0  0  0  0  0  0  0  0  0  0  0  0
  -26.7880  -19.8569   22.8876 C   0  0  0  0  0  0  0  0  0  0  0  0
  -27.3338  -19.4884   21.6759 C   0  0  0  0  0  0  0  0  0  0  0  0
  -29.9049  -28.1498   22.9920 C   0  0  0  0  0  0  0  0  0  0  0  0
  -27.5396  -21.6633   21.4824 C   0  0  0  0  0  0  0  0  0  0  0  0
  -29.5886  -29.9228   24.7255 C   0  0  0  0  0  0  0  0  0  0  0  0
  -26.2595  -18.9366   23.9144 C   0  0  0  0  0  0  0  0  0  0  0  0
  -25.4436  -10.5475   20.5745 C   0  0  0  0  0  0  0  0  0  0  0  0
  -23.2897  -19.0360   25.9814 C   0  0  0  0  0  0  0  0  0  0  0  0
  -27.5394  -12.1492   18.6865 C   0  0  0  0  0  0  0  0  0  0  0  0
  -29.1247  -15.0819   17.9566 C   0  0  0  0  0  0  0  0  0  0  0  0
  -28.4160  -23.3221   19.8011 C   0  0  0  0  0  0  0  0  0  0  0  0
  -22.7859   -6.1948   20.3551 C   0  0  0  0  0  0  0  0  0  0  0  0
  -24.0822  -12.5619   19.9076 C   0  0  0  0  0  0  0  0  0  0  0  0
  -26.7994  -13.3186   20.7961 C   0  0  0  0  0  0  0  0  0  0  0  0
  -24.0787   -6.7171   19.7336 C   0  0  0  0  0  0  0  0  0  0  0  0
  -30.4991  -26.0110   18.7486 C   0  0  0  0  0  0  0  0  0  0  0  0
  -24.9727   -7.3368   20.8029 C   0  0  0  0  0  0  0  0  0  0  0  0
  -30.1983  -27.1198   19.7596 C   0  0  0  0  0  0  0  0  0  0  0  0
  -29.2496  -25.2018   18.4058 C   0  0  0  0  0  0  0  0  0  0  0  0
  -28.2238  -25.7681   20.5729 C   0  0  0  0  0  0  0  0  0  0  0  0
  -24.2861   -8.5350   21.4695 C   0  0  1  0  0  0  0  0  0  0  0  0
  -25.2972  -11.6890   19.6085 C   0  0  1  0  0  0  0  0  0  0  0  0
  -29.4651  -26.5692   20.9985 C   0  0  2  0  0  0  0  0  0  0  0  0
  -27.4950  -18.1073   21.1751 C   0  0  0  0  0  0  0  0  0  0  0  0
  -23.0642  -18.7527   27.4450 C   0  0  0  0  0  0  0  0  0  0  0  0
  -30.8094  -16.0717   16.3819 C   0  0  0  0  0  0  0  0  0  0  0  0
  -29.7856  -10.7815   20.2338 C   0  0  0  0  0  0  0  0  0  0  0  0
  -31.3699  -12.4791   19.2975 C   0  0  0  0  0  0  0  0  0  0  0  0
  -30.1581  -10.9279   17.7651 C   0  0  0  0  0  0  0  0  0  0  0  0
  -27.1596  -17.0197   16.8879 C   0  0  0  0  0  0  0  0  0  0  0  0
  -23.7550  -16.9720   24.5869 C   0  0  0  0  0  0  0  0  0  1  0  0
  -24.3358  -18.1967   25.2741 C   0  0  1  0  0  0  0  0  0  0  0  0
  -28.8864  -12.7980   18.8954 C   0  0  1  0  0  0  0  0  0  0  0  0
  -29.3335  -15.8144   16.6434 C   0  0  2  0  0  0  0  0  0  0  0  0
  -30.0271  -11.7548   19.0627 C   0  0  0  0  0  0  0  0  0  0  0  0
  -27.9225  -28.2714   21.8951 N   0  0  0  0  0  0  0  0  0  0  0  0
  -27.7650  -20.5229   20.8686 N   0  0  0  0  0  0  0  0  0  0  0  0
  -29.1212  -27.6704   21.9839 N   0  0  0  0  0  0  0  0  0  0  0  0
  -26.5541  -12.4396   19.6408 N   0  0  0  0  0  0  0  0  0  0  0  0
  -28.6104  -24.7088   19.6278 N   0  0  0  0  0  0  0  0  0  0  0  0
  -31.1405  -27.6571   23.2221 N   0  0  0  0  0  0  0  0  0  0  0  0
  -28.7077  -30.8887   25.2308 N   0  0  0  0  0  0  0  0  0  0  0  0
  -27.0912  -18.0370   24.4395 N   0  0  0  0  0  0  0  0  0  0  0  0
  -27.8287  -22.9696   21.0158 N   0  0  0  0  0  0  0  0  0  0  0  0
  -24.3541   -9.6983   20.6113 N   0  0  0  0  0  0  0  0  0  0  0  0
  -29.0753  -13.7157   17.7771 N   0  0  0  0  0  0  0  0  0  0  0  0
  -24.9727  -19.0475   24.2669 N   0  3  0  0  0  0  0  0  0  0  0  0
  -28.6242  -17.1249   16.6628 N   0  3  0  0  0  0  0  0  0  0  0  0
  -30.7190  -29.7873   25.2523 O   0  0  0  0  0  0  0  0  0  0  0  0
  -26.4698  -10.4439   21.2363 O   0  0  0  0  0  0  0  0  0  0  0  0
  -22.6416  -19.9099   25.4048 O   0  0  0  0  0  0  0  0  0  0  0  0
  -27.3657  -11.4176   17.7086 O   0  0  0  0  0  0  0  0  0  0  0  0
  -29.0200  -15.6634   19.0343 O   0  0  0  0  0  0  0  0  0  0  0  0
  -28.7711  -22.5053   18.9474 O   0  0  0  0  0  0  0  0  0  0  0  0
  -23.5697  -32.5064   23.8100 O   0  0  0  0  0  0  0  0  0  0  0  0
  -24.7797  -16.0076   24.3497 O   0  0  0  0  0  0  0  0  0  1  0  0
  -24.5656  -37.8520   24.7248 F   0  0  0  0  0  0  0  0  0  0  0  0
  -22.5197  -34.4496   22.1474 F   0  0  0  0  0  0  0  0  0  0  0  0
  -26.8123  -21.5656   23.0336 S   0  0  0  0  0  0  0  0  0  0  0  0
  1  2  1  0  0  0  0
  1  5  2  0  0  0  0
  2  6  2  0  0  0  0
  3  8  2  0  0  0  0
  3 15  1  0  0  0  0
  4  9  1  0  0  0  0
  4 15  2  0  0  0  0
  5 17  1  0  0  0  0
  6 19  1  0  0  0  0
  7 10  2  0  0  0  0
  7 18  1  0  0  0  0
  8 21  1  0  0  0  0
  9 21  2  0  0  0  0
 10 22  1  0  0  0  0
 11 12  2  0  0  0  0
 11 23  1  0  0  0  0
 12 24  1  0  0  0  0
 13 20  1  0  0  0  0
 13 22  2  0  0  0  0
 14 24  2  0  0  0  0
 14 25  1  0  0  0  0
 15 26  1  0  0  0  0
 16 26  1  0  0  0  0
 16 29  2  0  0  0  0
 16 31  1  0  0  0  0
 17 19  2  0  0  0  0
 17 38  1  0  0  0  0
 18 20  2  0  0  0  0
 18 39  1  0  0  0  0
 19 47  1  0  0  0  0
 20 40  1  0  0  0  0
 21 81  1  0  0  0  0
 22 82  1  0  0  0  0
 23 25  2  0  0  0  0
 23 81  1  0  0  0  0
 24 83  1  0  0  0  0
 25 84  1  0  0  0  0
 26 62  2  0  0  0  0
 27 28  2  0  0  0  0
 27 32  1  0  0  0  0
 27 85  1  0  0  0  0
 28 50  1  0  0  0  0
 28 63  1  0  0  0  0
 29 64  1  0  0  0  0
 29 67  1  0  0  0  0
 30 63  2  0  0  0  0
 30 70  1  0  0  0  0
 30 85  1  0  0  0  0
 31 68  1  0  0  0  0
 31 75  2  0  0  0  0
 32 69  1  0  0  0  0
 32 73  2  0  0  0  0
 33 48  1  0  0  0  0
 33 71  1  0  0  0  0
 33 76  2  0  0  0  0
 34 51  1  0  0  0  0
 34 58  1  0  0  0  0
 34 77  2  0  0  0  0
 35 59  1  0  0  0  0
 35 65  1  0  0  0  0
 35 78  2  0  0  0  0
 36 60  1  0  0  0  0
 36 72  1  0  0  0  0
 36 79  2  0  0  0  0
 37 66  1  0  0  0  0
 37 70  1  0  0  0  0
 37 80  2  0  0  0  0
 38 41  1  0  0  0  0
 39 48  1  0  0  0  0
 40 65  1  0  0  0  0
 41 43  1  0  0  0  0
 42 44  1  0  0  0  0
 42 45  1  0  0  0  0
 43 47  1  0  0  0  0
 44 49  1  0  0  0  0
 45 66  1  0  0  0  0
 46 49  1  0  0  0  0
 46 66  1  0  0  0  0
 47 71  1  0  0  0  0
 48 65  1  0  0  0  0
 49 64  1  0  0  0  0
 52 60  1  0  0  0  0
 53 61  1  0  0  0  0
 54 61  1  0  0  0  0
 55 61  1  0  0  0  0
 56 74  1  0  0  0  0
 57 58  1  0  0  0  0
 57 82  1  0  0  0  0
 58 73  1  0  0  0  0
 59 61  1  0  0  0  0
 59 72  1  0  0  0  0
 60 74  1  0  0  0  0
 62 64  1  0  0  0  0
M  CHG  2  73   1  74   1
M  ISO  4  37 100  57 101  70 100  82 101
M  END
> <Batch ID>
0186

> <Smiles>
CNC(C)C(=O)NC(C(=O)N1Cc2cc([101O:1][101CH2:1]C(NC(=N)c3sc([100NH:0][100C:0](=O)N4CCCC(n5nc(-c6ccc(Oc7ccc(F)cc7F)cc6)c(C(N)=O)c5N)C4)nc3C)C(C)=O)ccc2CC1C(=O)NC1CCCc2ccccc21)C(C)(C)C

> <Shape>
0.251

> <Color>
0.047

> <Negative vol penalty>
0.000

$$$$

  -OEChem-04052305093D

 78 85  0     1  0  0  0  0  0999 V2000
  -17.9173  -27.2847   19.5991 C   0  0  0  0  0  0  0  0  0  0  0  0
  -19.1400  -27.7090   19.0887 C   0  0  0  0  0  0  0  0  0  0  0  0
  -27.6032  -17.6961   20.9017 C   0  0  0  0  0  0  0  0  0  0  0  0
  -28.4615  -17.5106   18.6510 C   0  0  0  0  0  0  0  0  0  0  0  0
  -17.5955  -27.5342   20.9326 C   0  0  0  0  0  0  0  0  0  0  0  0
  -20.0411  -28.3841   19.9113 C   0  0  0  0  0  0  0  0  0  0  0  0
  -24.7877  -26.6987   19.3877 C   0  0  0  0  0  0  0  0  0  0  0  0
  -26.6764  -16.6894   20.6313 C   0  0  0  0  0  0  0  0  0  0  0  0
  -27.5347  -16.5038   18.3805 C   0  0  0  0  0  0  0  0  0  0  0  0
  -25.4970  -27.1311   18.2680 C   0  0  0  0  0  0  0  0  0  0  0  0
  -26.6547  -13.3148   20.4201 C   0  0  0  0  0  0  0  0  0  0  0  0
  -26.4895  -12.3120   21.3756 C   0  0  0  0  0  0  0  0  0  0  0  0
  -26.6241  -28.7766   19.6248 C   0  0  0  0  0  0  0  0  0  0  0  0
  -24.1600  -12.9118   21.6021 C   0  0  0  0  0  0  0  0  0  0  0  0
  -28.4957  -18.1067   19.9116 C   0  0  0  0  0  0  0  0  0  0  0  0
  -30.7557  -18.9892   20.6998 C   0  0  0  0  0  0  0  0  0  0  0  0
  -18.4972  -28.2042   21.7745 C   0  0  0  0  0  0  0  0  0  0  0  0
  -24.9837  -27.3104   20.6342 C   0  0  0  0  0  0  0  0  0  0  0  0
  -19.7305  -28.6440   21.2569 C   0  0  0  0  0  0  0  0  0  0  0  0
  -25.9179  -28.3485   20.7593 C   0  0  0  0  0  0  0  0  0  0  0  0
  -26.6422  -16.0932   19.3707 C   0  0  0  0  0  0  0  0  0  0  0  0
  -26.4133  -28.1721   18.3858 C   0  0  0  0  0  0  0  0  0  0  0  0
  -25.5726  -14.1161   20.0557 C   0  0  0  0  0  0  0  0  0  0  0  0
  -25.2421  -12.1105   21.9665 C   0  0  0  0  0  0  0  0  0  0  0  0
  -24.3253  -13.9146   20.6467 C   0  0  0  0  0  0  0  0  0  0  0  0
  -29.4529  -19.1470   20.1902 C   0  0  0  0  0  0  0  0  0  0  0  0
  -31.2495  -20.2683   20.7818 C   0  0  0  0  0  0  0  0  0  0  0  0
  -31.4568  -17.7935   21.0662 C   0  0  0  0  0  0  0  0  0  0  0  0
  -23.1408  -28.9389   22.6482 C   0  0  0  0  0  0  0  0  0  0  0  0
  -25.7601  -28.7860   24.5556 C   0  0  0  0  0  0  0  0  0  0  0  0
  -31.9157  -27.4158   17.2129 C   0  0  0  0  0  0  0  0  0  0  0  0
  -29.1452  -28.4323   24.8060 C   0  0  0  0  0  0  0  0  0  0  0  0
  -31.0995  -25.1767   17.8950 C   0  0  0  0  0  0  0  0  0  0  0  0
  -18.0853  -28.4928   23.1964 C   0  0  0  0  0  0  0  0  0  0  0  0
  -24.2302  -26.8145   21.8379 C   0  0  0  0  0  0  0  0  0  0  0  0
  -26.1798  -29.0249   22.0793 C   0  0  0  0  0  0  0  0  0  0  0  0
  -19.2513  -28.8837   24.1008 C   0  0  0  0  0  0  0  0  0  0  0  0
  -29.2304  -24.7798   20.9670 C   0  0  0  0  0  0  0  0  0  0  0  0
  -20.1354  -29.9200   23.4142 C   0  0  0  0  0  0  0  0  0  0  0  0
  -29.2287  -23.2581   21.1284 C   0  0  0  0  0  0  0  0  0  0  0  0
  -29.0961  -25.1778   19.5006 C   0  0  0  0  0  0  0  0  0  0  0  0
  -30.1293  -23.0659   18.7624 C   0  0  0  0  0  0  0  0  0  0  0  0
  -20.7448  -29.3575   22.1243 C   0  0  1  0  0  0  0  0  0  0  0  0
  -24.1336  -27.8526   22.9517 C   0  0  1  0  0  0  0  0  0  0  0  0
  -30.2823  -22.5955   20.2205 C   0  0  2  0  0  0  0  0  0  0  0  0
  -31.3829  -28.1622   25.9093 C   0  0  0  0  0  0  0  0  0  0  0  0
  -25.5912  -31.8212   24.8188 C   0  0  0  0  0  0  0  0  0  0  0  0
  -27.9402  -31.8070   25.6850 C   0  0  0  0  0  0  0  0  0  0  0  0
  -26.1422  -30.6191   26.9415 C   0  0  0  0  0  0  0  0  0  0  0  0
  -28.8909  -25.4842   24.8631 C   0  0  0  0  0  0  0  0  0  0  0  0
  -31.5990  -28.8788   17.4670 C   0  0  0  0  0  0  0  0  0  0  0  0
  -29.2853  -28.9373   16.2840 C   0  0  0  0  0  0  0  0  0  0  0  0
  -28.4079  -29.1319   17.5166 C   0  0  0  0  0  0  0  0  0  1  0  0
  -26.9825  -29.6470   24.7641 C   0  0  1  0  0  0  0  0  0  0  0  0
  -30.0030  -27.5574   25.7022 C   0  0  2  0  0  0  0  0  0  0  0  0
  -30.7020  -29.5105   16.4092 C   0  0  1  0  0  0  0  0  0  0  0  0
  -26.6579  -30.9623   25.5269 C   0  0  0  0  0  0  0  0  0  0  0  0
  -29.1389  -20.4255   19.9645 N   0  0  0  0  0  0  0  0  0  0  0  0
  -30.2513  -21.0827   20.3341 N   0  0  0  0  0  0  0  0  0  0  0  0
  -25.4138  -28.5085   23.2257 N   0  0  0  0  0  0  0  0  0  0  0  0
  -30.1432  -24.5306   18.6979 N   0  0  0  0  0  0  0  0  0  0  0  0
  -32.4359  -20.7645   21.1926 N   0  0  0  0  0  0  0  0  0  0  0  0
  -30.8019  -16.5632   20.9186 N   0  0  0  0  0  0  0  0  0  0  0  0
  -21.8553  -28.4813   22.4302 N   0  0  0  0  0  0  0  0  0  0  0  0
  -31.0432  -26.5740   17.9085 N   0  0  0  0  0  0  0  0  0  0  0  0
  -27.9698  -28.8007   25.4256 N   0  0  0  0  0  0  0  0  0  0  0  0
  -30.1686  -26.2042   25.1001 N   0  3  0  0  0  0  0  0  0  0  0  0
  -32.6234  -17.8166   21.5267 O   0  0  0  0  0  0  0  0  0  0  0  0
  -23.5133  -30.1059   22.6157 O   0  0  0  0  0  0  0  0  0  0  0  0
  -25.1396  -28.3690   25.5368 O   0  0  0  0  0  0  0  0  0  0  0  0
  -32.8444  -27.0458   16.4999 O   0  0  0  0  0  0  0  0  0  0  0  0
  -29.4856  -28.7594   23.6712 O   0  0  0  0  0  0  0  0  0  0  0  0
  -31.9525  -24.5628   17.2460 O   0  0  0  0  0  0  0  0  0  0  0  0
  -25.7381  -15.1106   19.1065 O   0  0  0  0  0  0  0  0  0  0  0  0
  -27.1117  -28.5997   17.2861 O   0  0  0  0  0  0  0  0  0  1  0  0
  -25.0832  -11.1466   22.8829 F   0  0  0  0  0  0  0  0  0  0  0  0
  -23.2818  -14.6804   20.2998 F   0  0  0  0  0  0  0  0  0  0  0  0
  -30.5889  -30.8393   16.7073 F   0  0  0  0  0  0  0  0  0  0  0  0
  1  2  1  0  0  0  0
  1  5  2  0  0  0  0
  2  6  2  0  0  0  0
  3  8  2  0  0  0  0
  3 15  1  0  0  0  0
  4  9  1  0  0  0  0
  4 15  2  0  0  0  0
  5 17  1  0  0  0  0
  6 19  1  0  0  0  0
  7 10  2  0  0  0  0
  7 18  1  0  0  0  0
  8 21  1  0  0  0  0
  9 21  2  0  0  0  0
 10 22  1  0  0  0  0
 11 12  2  0  0  0  0
 11 23  1  0  0  0  0
 12 24  1  0  0  0  0
 13 20  1  0  0  0  0
 13 22  2  0  0  0  0
 14 24  2  0  0  0  0
 14 25  1  0  0  0  0
 15 26  1  0  0  0  0
 16 26  1  0  0  0  0
 16 27  2  0  0  0  0
 16 28  1  0  0  0  0
 17 19  2  0  0  0  0
 17 34  1  0  0  0  0
 18 20  2  0  0  0  0
 18 35  1  0  0  0  0
 19 43  1  0  0  0  0
 20 36  1  0  0  0  0
 21 74  1  0  0  0  0
 22 75  1  0  0  0  0
 23 25  2  0  0  0  0
 23 74  1  0  0  0  0
 24 76  1  0  0  0  0
 25 77  1  0  0  0  0
 26 58  2  0  0  0  0
 27 59  1  0  0  0  0
 27 62  1  0  0  0  0
 28 63  1  0  0  0  0
 28 68  2  0  0  0  0
 29 44  1  0  0  0  0
 29 64  1  0  0  0  0
 29 69  2  0  0  0  0
 30 54  1  0  0  0  0
 30 60  1  0  0  0  0
 30 70  2  0  0  0  0
 31 51  1  0  0  0  0
 31 65  1  0  0  0  0
 31 71  2  0  0  0  0
 32 55  1  0  0  0  0
 32 66  1  0  0  0  0
 32 72  2  0  0  0  0
 33 61  1  0  0  0  0
 33 65  1  0  0  0  0
 33 73  2  0  0  0  0
 34 37  1  0  0  0  0
 35 44  1  0  0  0  0
 36 60  1  0  0  0  0
 37 39  1  0  0  0  0
 38 40  1  0  0  0  0
 38 41  1  0  0  0  0
 39 43  1  0  0  0  0
 40 45  1  0  0  0  0
 41 61  1  0  0  0  0
 42 45  1  0  0  0  0
 42 61  1  0  0  0  0
 43 64  1  0  0  0  0
 44 60  1  0  0  0  0
 45 59  1  0  0  0  0
 46 55  1  0  0  0  0
 47 57  1  0  0  0  0
 48 57  1  0  0  0  0
 49 57  1  0  0  0  0
 50 67  1  0  0  0  0
 51 56  1  0  0  0  0
 52 53  1  0  0  0  0
 52 56  1  0  0  0  0
 53 75  1  0  0  0  0
 54 57  1  0  0  0  0
 54 66  1  0  0  0  0
 55 67  1  0  0  0  0
 56 78  1  0  0  0  0
 58 59  1  0  0  0  0
M  CHG  1  67   1
M  ISO  4  33 100  53 101  65 100  75 101
M  END
> <Batch ID>
0186

> <Smiles>
CNC(C)C(=O)NC(C(=O)N1Cc2cc([101O:1][101CH2:1]CC(F)CC(=O)[100NH:0][100C:0](=O)N3CCCC(n4nc(-c5ccc(Oc6ccc(F)cc6F)cc5)c(C(N)=O)c4N)C3)ccc2CC1C(=O)NC1CCCc2ccccc21)C(C)(C)C

> <Shape>
0.260

> <Color>
0.078

> <Negative vol penalty>
0.000

$$$$

  -OEChem-04052305093D

 88 96  0     1  0  0  0  0  0999 V2000
  -23.1612   -7.7248   22.1746 C   0  0  0  0  0  0  0  0  0  0  0  0
  -24.0561   -8.6501   21.6471 C   0  0  0  0  0  0  0  0  0  0  0  0
  -24.2852  -30.1831   21.8083 C   0  0  0  0  0  0  0  0  0  0  0  0
  -23.9981  -28.2821   23.2714 C   0  0  0  0  0  0  0  0  0  0  0  0
  -21.8102   -8.0500   22.2885 C   0  0  0  0  0  0  0  0  0  0  0  0
  -23.6003   -9.9009   21.2320 C   0  0  0  0  0  0  0  0  0  0  0  0
  -26.5985  -13.6747   22.7855 C   0  0  0  0  0  0  0  0  0  0  0  0
  -22.9503  -30.5364   22.0053 C   0  0  0  0  0  0  0  0  0  0  0  0
  -22.6632  -28.6354   23.4685 C   0  0  0  0  0  0  0  0  0  0  0  0
  -27.7825  -13.8796   22.0784 C   0  0  0  0  0  0  0  0  0  0  0  0
  -19.0846  -28.8306   24.0731 C   0  0  0  0  0  0  0  0  0  0  0  0
  -18.1296  -27.8158   24.0116 C   0  0  0  0  0  0  0  0  0  0  0  0
  -26.7434  -15.6945   20.8761 C   0  0  0  0  0  0  0  0  0  0  0  0
  -18.7822  -27.3395   21.7347 C   0  0  0  0  0  0  0  0  0  0  0  0
  -24.8091  -29.0559   22.4413 C   0  0  0  0  0  0  0  0  0  0  0  0
  -27.2986  -29.1060   22.9960 C   0  0  0  0  0  0  0  0  0  0  0  0
  -21.3392   -9.3089   21.8836 C   0  0  0  0  0  0  0  0  0  0  0  0
  -25.4728  -14.4725   22.5350 C   0  0  0  0  0  0  0  0  0  0  0  0
  -22.2415  -10.2427   21.3393 C   0  0  0  0  0  0  0  0  0  0  0  0
  -25.5471  -15.4994   21.5832 C   0  0  0  0  0  0  0  0  0  0  0  0
  -22.1393  -29.7625   22.8355 C   0  0  0  0  0  0  0  0  0  0  0  0
  -27.8542  -14.8877   21.1215 C   0  0  0  0  0  0  0  0  0  0  0  0
  -19.8885  -29.0998   22.9653 C   0  0  0  0  0  0  0  0  0  0  0  0
  -17.9784  -27.0703   22.8425 C   0  0  0  0  0  0  0  0  0  0  0  0
  -19.7373  -28.3543   21.7962 C   0  0  0  0  0  0  0  0  0  0  0  0
  -26.1878  -28.6902   22.2376 C   0  0  0  0  0  0  0  0  0  0  0  0
  -28.6278  -19.6334   22.1368 C   0  0  0  0  0  0  0  0  0  0  0  0
  -29.3093  -19.5218   20.9429 C   0  0  0  0  0  0  0  0  0  0  0  0
  -28.3710  -28.4862   22.4025 C   0  0  0  0  0  0  0  0  0  0  0  0
  -28.6835  -21.6168   20.7710 C   0  0  0  0  0  0  0  0  0  0  0  0
  -27.3558  -29.9747   24.1352 C   0  0  0  0  0  0  0  0  0  0  0  0
  -22.5244  -13.9241   21.4813 C   0  0  0  0  0  0  0  0  0  0  0  0
  -22.1088  -17.0641   22.1815 C   0  0  0  0  0  0  0  0  0  0  0  0
  -30.6548  -18.1429   19.3259 C   0  0  0  0  0  0  0  0  0  0  0  0
  -23.5127  -20.1406   22.6406 C   0  0  0  0  0  0  0  0  0  0  0  0
  -28.9161  -23.5154   19.1316 C   0  0  0  0  0  0  0  0  0  0  0  0
  -19.8622   -9.5976   21.9823 C   0  0  0  0  0  0  0  0  0  0  0  0
  -24.2114  -14.2562   23.3253 C   0  0  0  0  0  0  0  0  0  0  0  0
  -24.3731  -16.3965   21.2912 C   0  0  0  0  0  0  0  0  0  0  0  0
  -19.5225  -11.0814   21.8669 C   0  0  0  0  0  0  0  0  0  0  0  0
  -29.8563  -26.8118   18.1688 C   0  0  0  0  0  0  0  0  0  0  0  0
  -20.2725  -11.7113   20.6975 C   0  0  0  0  0  0  0  0  0  0  0  0
  -29.1282  -27.7051   19.1758 C   0  0  0  0  0  0  0  0  0  0  0  0
  -29.0169  -25.5968   17.7778 C   0  0  0  0  0  0  0  0  0  0  0  0
  -27.7893  -25.6919   19.9116 C   0  0  0  0  0  0  0  0  0  0  0  0
  -21.7896  -11.6189   20.9011 C   0  0  1  0  0  0  0  0  0  0  0  0
  -22.9675  -14.7934   22.6241 C   0  0  1  0  0  0  0  0  0  0  0  0
  -28.6217  -26.8947   20.3850 C   0  0  2  0  0  0  0  0  0  0  0  0
  -30.3944  -19.2056   24.6892 C   0  0  0  0  0  0  0  0  0  0  0  0
  -23.6427  -22.5761   23.2314 C   0  0  0  0  0  0  0  0  0  0  0  0
  -21.0977  -17.4380   19.3271 C   0  0  0  0  0  0  0  0  0  0  0  0
  -21.4224  -19.9044   19.6093 C   0  0  0  0  0  0  0  0  0  0  0  0
  -19.8029  -18.6868   21.0644 C   0  0  0  0  0  0  0  0  0  0  0  0
  -30.0945  -16.3049   17.0098 C   0  0  0  0  0  0  0  0  0  0  0  0
  -30.9148  -14.3486   18.3257 C   0  0  0  0  0  0  0  0  0  0  0  0
  -24.0360  -19.5403   25.4910 C   0  0  0  0  0  0  0  0  0  0  0  0
  -31.1962  -16.7238   19.2087 C   0  0  0  0  0  0  0  0  0  0  0  0
  -28.8819  -19.0620   24.6070 C   0  0  0  0  0  0  0  0  0  0  0  0
  -28.8894  -15.6032   19.1035 C   0  0  0  0  0  0  0  0  0  1  0  0
  -28.3958  -18.6357   23.2012 C   0  0  1  0  0  0  0  0  0  0  0  0
  -22.2836  -18.3599   21.4270 C   0  0  1  0  0  0  0  0  0  0  0  0
  -23.3356  -21.1752   23.7373 C   0  0  2  0  0  0  0  0  0  0  0  0
  -21.1733  -18.5793   20.3609 C   0  0  0  0  0  0  0  0  0  0  0  0
  -30.2754  -15.7440   18.4370 C   0  0  0  0  0  0  0  0  0  0  0  0
  -26.5236  -27.8699   21.2385 N   0  0  0  0  0  0  0  0  0  0  0  0
  -29.3419  -20.6580   20.1582 N   0  0  0  0  0  0  0  0  0  0  0  0
  -27.8575  -27.7652   21.3649 N   0  0  0  0  0  0  0  0  0  0  0  0
  -23.1600  -16.1413   22.0855 N   0  0  0  0  0  0  0  0  0  0  0  0
  -28.5760  -24.8756   18.9738 N   0  0  0  0  0  0  0  0  0  0  0  0
  -29.6937  -28.4931   22.6722 N   0  0  0  0  0  0  0  0  0  0  0  0
  -26.1602  -30.5260   24.6158 N   0  0  0  0  0  0  0  0  0  0  0  0
  -29.9512  -18.3384   20.5073 N   0  0  0  0  0  0  0  0  0  0  0  0
  -28.4702  -22.9440   20.3229 N   0  0  0  0  0  0  0  0  0  0  0  0
  -22.2351  -12.6225   21.8439 N   0  0  0  0  0  0  0  0  0  0  0  0
  -22.3604  -19.4119   22.4349 N   0  0  0  0  0  0  0  0  0  0  0  0
  -24.2442  -20.8787   24.8807 N   0  3  0  0  0  0  0  0  0  0  0  0
  -28.4371  -30.2668   24.6999 O   0  0  0  0  0  0  0  0  0  0  0  0
  -22.4492  -14.3996   20.3544 O   0  0  0  0  0  0  0  0  0  0  0  0
  -21.0806  -16.8804   22.8379 O   0  0  0  0  0  0  0  0  0  0  0  0
  -30.8555  -18.9599   18.4313 O   0  0  0  0  0  0  0  0  0  0  0  0
  -24.5667  -19.9961   22.0252 O   0  0  0  0  0  0  0  0  0  0  0  0
  -29.5791  -22.9099   18.2856 O   0  0  0  0  0  0  0  0  0  0  0  0
  -26.9823  -18.3815   23.2740 O   0  0  0  0  0  0  0  0  0  0  0  0
  -20.8367  -30.1071   23.0282 O   0  0  0  0  0  0  0  0  0  0  0  0
  -29.0084  -15.0893   20.4294 O   0  0  0  0  0  0  0  0  0  1  0  0
  -17.0623  -26.0948   22.7841 F   0  0  0  0  0  0  0  0  0  0  0  0
  -20.5074  -28.6075   20.7292 F   0  0  0  0  0  0  0  0  0  0  0  0
  -27.9999  -21.2215   22.2946 S   0  0  0  0  0  0  0  0  0  0  0  0
  1  2  1  0  0  0  0
  1  5  2  0  0  0  0
  2  6  2  0  0  0  0
  3  8  2  0  0  0  0
  3 15  1  0  0  0  0
  4  9  1  0  0  0  0
  4 15  2  0  0  0  0
  5 17  1  0  0  0  0
  6 19  1  0  0  0  0
  7 10  2  0  0  0  0
  7 18  1  0  0  0  0
  8 21  1  0  0  0  0
  9 21  2  0  0  0  0
 10 22  1  0  0  0  0
 11 12  2  0  0  0  0
 11 23  1  0  0  0  0
 12 24  1  0  0  0  0
 13 20  1  0  0  0  0
 13 22  2  0  0  0  0
 14 24  2  0  0  0  0
 14 25  1  0  0  0  0
 15 26  1  0  0  0  0
 16 26  1  0  0  0  0
 16 29  2  0  0  0  0
 16 31  1  0  0  0  0
 17 19  2  0  0  0  0
 17 37  1  0  0  0  0
 18 20  2  0  0  0  0
 18 38  1  0  0  0  0
 19 46  1  0  0  0  0
 20 39  1  0  0  0  0
 21 84  1  0  0  0  0
 22 85  1  0  0  0  0
 23 25  2  0  0  0  0
 23 84  1  0  0  0  0
 24 86  1  0  0  0  0
 25 87  1  0  0  0  0
 26 65  2  0  0  0  0
 27 28  2  0  0  0  0
 27 60  1  0  0  0  0
 27 88  1  0  0  0  0
 28 66  1  0  0  0  0
 28 72  1  0  0  0  0
 29 67  1  0  0  0  0
 29 70  1  0  0  0  0
 30 66  2  0  0  0  0
 30 73  1  0  0  0  0
 30 88  1  0  0  0  0
 31 71  1  0  0  0  0
 31 77  2  0  0  0  0
 32 47  1  0  0  0  0
 32 74  1  0  0  0  0
 32 78  2  0  0  0  0
 33 61  1  0  0  0  0
 33 68  1  0  0  0  0
 33 79  2  0  0  0  0
 34 57  1  0  0  0  0
 34 72  1  0  0  0  0
 34 80  2  0  0  0  0
 35 62  1  0  0  0  0
 35 75  1  0  0  0  0
 35 81  2  0  0  0  0
 36 69  1  0  0  0  0
 36 73  1  0  0  0  0
 36 82  2  0  0  0  0
 37 40  1  0  0  0  0
 38 47  1  0  0  0  0
 39 68  1  0  0  0  0
 40 42  1  0  0  0  0
 41 43  1  0  0  0  0
 41 44  1  0  0  0  0
 42 46  1  0  0  0  0
 43 48  1  0  0  0  0
 44 69  1  0  0  0  0
 45 48  1  0  0  0  0
 45 69  1  0  0  0  0
 46 74  1  0  0  0  0
 47 68  1  0  0  0  0
 48 67  1  0  0  0  0
 49 58  1  0  0  0  0
 50 62  1  0  0  0  0
 51 63  1  0  0  0  0
 52 63  1  0  0  0  0
 53 63  1  0  0  0  0
 54 64  1  0  0  0  0
 55 64  1  0  0  0  0
 56 76  1  0  0  0  0
 57 64  1  0  0  0  0
 58 60  1  0  0  0  0
 59 64  1  0  0  0  0
 59 85  1  0  0  0  0
 60 83  1  0  0  0  0
 61 63  1  0  0  0  0
 61 75  1  0  0  0  0
 62 76  1  0  0  0  0
 65 67  1  0  0  0  0
M  CHG  1  76   1
M  ISO  4  36 100  59 101  73 100  85 101
M  END
> <Batch ID>
0186

> <Smiles>
CCC(O)c1sc([100NH:0][100C:0](=O)N2CCCC(n3nc(-c4ccc(Oc5ccc(F)cc5F)cc4)c(C(N)=O)c3N)C2)nc1NC(=O)CC(C)(C)[101CH2:1][101O:1]c1ccc2c(c1)CN(C(=O)C(NC(=O)C(C)NC)C(C)(C)C)C(C(=O)NC1CCCc3ccccc31)C2

> <Shape>
0.261

> <Color>
0.079

> <Negative vol penalty>
0.000

$$$$

  -OEChem-04052305093D

 87 95  0     1  0  0  0  0  0999 V2000
  -17.3252  -32.0174   24.1451 C   0  0  0  0  0  0  0  0  0  0  0  0
  -18.6355  -32.3075   24.5115 C   0  0  0  0  0  0  0  0  0  0  0  0
  -25.9653  -15.6744   20.9749 C   0  0  0  0  0  0  0  0  0  0  0  0
  -24.3076  -17.4019   20.6507 C   0  0  0  0  0  0  0  0  0  0  0  0
  -17.0255  -30.7977   23.5399 C   0  0  0  0  0  0  0  0  0  0  0  0
  -19.6469  -31.3774   24.2738 C   0  0  0  0  0  0  0  0  0  0  0  0
  -25.4643  -32.5668   22.7743 C   0  0  0  0  0  0  0  0  0  0  0  0
  -24.9664  -14.7032   20.9077 C   0  0  0  0  0  0  0  0  0  0  0  0
  -23.3087  -16.4307   20.5834 C   0  0  0  0  0  0  0  0  0  0  0  0
  -26.6357  -32.6179   23.5285 C   0  0  0  0  0  0  0  0  0  0  0  0
  -23.1618  -13.1478   18.5084 C   0  0  0  0  0  0  0  0  0  0  0  0
  -23.4076  -12.0179   17.7283 C   0  0  0  0  0  0  0  0  0  0  0  0
  -27.1306  -30.3413   22.9029 C   0  0  0  0  0  0  0  0  0  0  0  0
  -23.1451  -10.6149   19.6776 C   0  0  0  0  0  0  0  0  0  0  0  0
  -25.6359  -17.0238   20.8464 C   0  0  0  0  0  0  0  0  0  0  0  0
  -27.4197  -18.5491   19.8469 C   0  0  0  0  0  0  0  0  0  0  0  0
  -18.0352  -29.8561   23.2859 C   0  0  0  0  0  0  0  0  0  0  0  0
  -25.1111  -31.3970   22.0863 C   0  0  0  0  0  0  0  0  0  0  0  0
  -19.3602  -30.1433   23.6658 C   0  0  0  0  0  0  0  0  0  0  0  0
  -25.9555  -30.2788   22.1385 C   0  0  0  0  0  0  0  0  0  0  0  0
  -23.6381  -15.0813   20.7120 C   0  0  0  0  0  0  0  0  0  0  0  0
  -27.4676  -31.5041   23.5953 C   0  0  0  0  0  0  0  0  0  0  0  0
  -22.9077  -13.0112   19.8731 C   0  0  0  0  0  0  0  0  0  0  0  0
  -23.3992  -10.7515   18.3128 C   0  0  0  0  0  0  0  0  0  0  0  0
  -22.8994  -11.7448   20.4577 C   0  0  0  0  0  0  0  0  0  0  0  0
  -26.6673  -18.0275   20.9163 C   0  0  0  0  0  0  0  0  0  0  0  0
  -30.2976  -27.2471   20.8129 C   0  0  0  0  0  0  0  0  0  0  0  0
  -30.6810  -27.3593   22.1329 C   0  0  0  0  0  0  0  0  0  0  0  0
  -28.2589  -19.4654   20.4323 C   0  0  0  0  0  0  0  0  0  0  0  0
  -29.6793  -25.4114   22.2449 C   0  0  0  0  0  0  0  0  0  0  0  0
  -27.3650  -18.2336   18.4494 C   0  0  0  0  0  0  0  0  0  0  0  0
  -30.4930  -28.1285   19.7092 C   0  0  0  0  0  0  0  0  0  0  0  0
  -22.6716  -29.3639   22.2235 C   0  0  0  0  0  0  0  0  0  0  0  0
  -24.1103  -28.0690   19.6205 C   0  0  0  0  0  0  0  0  0  0  0  0
  -26.9716  -27.6175   17.8162 C   0  0  0  0  0  0  0  0  0  0  0  0
  -29.1797  -23.6559   23.9812 C   0  0  0  0  0  0  0  0  0  0  0  0
  -17.6552  -28.5318   22.6723 C   0  0  0  0  0  0  0  0  0  0  0  0
  -23.8577  -31.3669   21.2555 C   0  0  0  0  0  0  0  0  0  0  0  0
  -25.6318  -29.0056   21.4019 C   0  0  0  0  0  0  0  0  0  0  0  0
  -18.8452  -27.7549   22.1150 C   0  0  0  0  0  0  0  0  0  0  0  0
  -29.2768  -20.3543   25.3104 C   0  0  0  0  0  0  0  0  0  0  0  0
  -19.9945  -27.7468   23.1180 C   0  0  0  0  0  0  0  0  0  0  0  0
  -28.6684  -19.4975   24.1977 C   0  0  0  0  0  0  0  0  0  0  0  0
  -28.5912  -21.7152   25.4173 C   0  0  0  0  0  0  0  0  0  0  0  0
  -27.9142  -21.6193   23.0505 C   0  0  0  0  0  0  0  0  0  0  0  0
  -20.4888  -29.1703   23.4021 C   0  0  1  0  0  0  0  0  0  0  0  0
  -23.3360  -29.9541   21.0120 C   0  0  1  0  0  0  0  0  0  0  0  0
  -28.6150  -20.2640   22.8616 C   0  0  2  0  0  0  0  0  0  0  0  0
  -30.5759  -29.6164   19.9794 C   0  0  0  0  0  0  0  0  0  0  0  0
  -27.8422  -26.4807   15.7553 C   0  0  0  0  0  0  0  0  0  0  0  0
  -32.9934  -27.6481   24.2428 C   0  0  0  0  0  0  0  0  0  0  0  0
  -24.0548  -25.3891   21.0784 C   0  0  0  0  0  0  0  0  0  0  0  0
  -25.7400  -24.5385   19.4337 C   0  0  0  0  0  0  0  0  0  0  0  0
  -23.4875  -25.2653   18.6459 C   0  0  0  0  0  0  0  0  0  0  0  0
  -31.3445  -32.4328   24.7323 C   0  0  0  0  0  0  0  0  0  0  0  0
  -30.5674  -30.6124   26.2470 C   0  0  0  0  0  0  0  0  0  0  0  0
  -27.7786  -30.1906   16.5968 C   0  0  0  0  0  0  0  0  0  0  0  0
  -32.1231  -30.0096   24.3849 C   0  0  0  0  0  0  0  0  0  0  0  0
  -29.7010  -30.7418   23.8906 C   0  0  0  0  0  0  0  0  0  1  0  0
  -25.1595  -27.0069   19.3965 C   0  0  1  0  0  0  0  0  0  0  0  0
  -27.2603  -27.7616   16.3328 C   0  0  2  0  0  0  0  0  0  0  0  0
  -31.7787  -28.5513   24.0302 C   0  0  1  0  0  0  0  0  0  0  0  0
  -24.6158  -25.5732   19.6542 C   0  0  0  0  0  0  0  0  0  0  0  0
  -30.9430  -30.9487   24.7852 C   0  0  0  0  0  0  0  0  0  0  0  0
  -26.9992  -18.5674   22.0920 N   0  0  0  0  0  0  0  0  0  0  0  0
  -30.3270  -26.3078   22.9556 N   0  0  0  0  0  0  0  0  0  0  0  0
  -27.9696  -19.4378   21.7649 N   0  0  0  0  0  0  0  0  0  0  0  0
  -24.3920  -29.0235   20.6082 N   0  0  0  0  0  0  0  0  0  0  0  0
  -28.5818  -22.3850   24.1149 N   0  0  0  0  0  0  0  0  0  0  0  0
  -29.2087  -20.2839   19.9321 N   0  0  0  0  0  0  0  0  0  0  0  0
  -26.4448  -17.2686   18.0178 N   0  0  0  0  0  0  0  0  0  0  0  0
  -31.3793  -28.4394   22.6443 N   0  0  0  0  0  0  0  0  0  0  0  0
  -29.1385  -24.1795   22.6894 N   0  0  0  0  0  0  0  0  0  0  0  0
  -21.3213  -29.6423   22.3164 N   0  0  0  0  0  0  0  0  0  0  0  0
  -25.6723  -27.2179   18.0471 N   0  0  0  0  0  0  0  0  0  0  0  0
  -28.2327  -28.8665   16.0993 N   0  3  0  0  0  0  0  0  0  0  0  0
  -28.1214  -18.7791   17.6104 O   0  0  0  0  0  0  0  0  0  0  0  0
  -30.6010  -27.7927   18.5107 O   0  0  0  0  0  0  0  0  0  0  0  0
  -23.3346  -28.7035   23.0147 O   0  0  0  0  0  0  0  0  0  0  0  0
  -23.0820  -28.0565   18.9393 O   0  0  0  0  0  0  0  0  0  0  0  0
  -27.8155  -27.8340   18.6831 O   0  0  0  0  0  0  0  0  0  0  0  0
  -29.7148  -24.2251   24.9361 O   0  0  0  0  0  0  0  0  0  0  0  0
  -22.6631  -14.1339   20.6461 O   0  0  0  0  0  0  0  0  0  0  0  0
  -28.6113  -31.5510   24.3313 O   0  0  0  0  0  0  0  0  0  1  0  0
  -23.6338   -9.6664   17.5633 F   0  0  0  0  0  0  0  0  0  0  0  0
  -22.6547  -11.6073   21.7681 F   0  0  0  0  0  0  0  0  0  0  0  0
  -29.4608  -25.7682   20.5806 S   0  0  0  0  0  0  0  0  0  0  0  0
  1  2  1  0  0  0  0
  1  5  2  0  0  0  0
  2  6  2  0  0  0  0
  3  8  2  0  0  0  0
  3 15  1  0  0  0  0
  4  9  1  0  0  0  0
  4 15  2  0  0  0  0
  5 17  1  0  0  0  0
  6 19  1  0  0  0  0
  7 10  2  0  0  0  0
  7 18  1  0  0  0  0
  8 21  1  0  0  0  0
  9 21  2  0  0  0  0
 10 22  1  0  0  0  0
 11 12  2  0  0  0  0
 11 23  1  0  0  0  0
 12 24  1  0  0  0  0
 13 20  1  0  0  0  0
 13 22  2  0  0  0  0
 14 24  2  0  0  0  0
 14 25  1  0  0  0  0
 15 26  1  0  0  0  0
 16 26  1  0  0  0  0
 16 29  2  0  0  0  0
 16 31  1  0  0  0  0
 17 19  2  0  0  0  0
 17 37  1  0  0  0  0
 18 20  2  0  0  0  0
 18 38  1  0  0  0  0
 19 46  1  0  0  0  0
 20 39  1  0  0  0  0
 21 83  1  0  0  0  0
 22 84  1  0  0  0  0
 23 25  2  0  0  0  0
 23 83  1  0  0  0  0
 24 85  1  0  0  0  0
 25 86  1  0  0  0  0
 26 65  2  0  0  0  0
 27 28  2  0  0  0  0
 27 32  1  0  0  0  0
 27 87  1  0  0  0  0
 28 66  1  0  0  0  0
 28 72  1  0  0  0  0
 29 67  1  0  0  0  0
 29 70  1  0  0  0  0
 30 66  2  0  0  0  0
 30 73  1  0  0  0  0
 30 87  1  0  0  0  0
 31 71  1  0  0  0  0
 31 77  2  0  0  0  0
 32 49  1  0  0  0  0
 32 78  2  0  0  0  0
 33 47  1  0  0  0  0
 33 74  1  0  0  0  0
 33 79  2  0  0  0  0
 34 60  1  0  0  0  0
 34 68  1  0  0  0  0
 34 80  2  0  0  0  0
 35 61  1  0  0  0  0
 35 75  1  0  0  0  0
 35 81  2  0  0  0  0
 36 69  1  0  0  0  0
 36 73  1  0  0  0  0
 36 82  2  0  0  0  0
 37 40  1  0  0  0  0
 38 47  1  0  0  0  0
 39 68  1  0  0  0  0
 40 42  1  0  0  0  0
 41 43  1  0  0  0  0
 41 44  1  0  0  0  0
 42 46  1  0  0  0  0
 43 48  1  0  0  0  0
 44 69  1  0  0  0  0
 45 48  1  0  0  0  0
 45 69  1  0  0  0  0
 46 74  1  0  0  0  0
 47 68  1  0  0  0  0
 48 67  1  0  0  0  0
 50 61  1  0  0  0  0
 51 62  1  0  0  0  0
 52 63  1  0  0  0  0
 53 63  1  0  0  0  0
 54 63  1  0  0  0  0
 55 64  1  0  0  0  0
 56 64  1  0  0  0  0
 57 76  1  0  0  0  0
 58 62  1  0  0  0  0
 58 64  1  0  0  0  0
 59 64  1  0  0  0  0
 59 84  1  0  0  0  0
 60 63  1  0  0  0  0
 60 75  1  0  0  0  0
 61 76  1  0  0  0  0
 62 72  1  0  0  0  0
 65 67  1  0  0  0  0
M  CHG  1  76   1
M  ISO  4  36 100  59 101  73 100  84 101
M  END
> <Batch ID>
0186

> <Smiles>
CNC(C)C(=O)NC(C(=O)N1Cc2cc([101O:1][101CH2:1]C(C)(C)CC(C)Nc3nc([100NH:0][100C:0](=O)N4CCCC(n5nc(-c6ccc(Oc7ccc(F)cc7F)cc6)c(C(N)=O)c5N)C4)sc3C(C)=O)ccc2CC1C(=O)NC1CCCc2ccccc21)C(C)(C)C

> <Shape>
0.241

> <Color>
0.089

> <Negative vol penalty>
0.000

$$$$

  -OEChem-04052305093D

 87 95  0     1  0  0  0  0  0999 V2000
  -28.1485  -34.1529   23.3253 C   0  0  0  0  0  0  0  0  0  0  0  0
  -28.7990  -33.0601   23.8893 C   0  0  0  0  0  0  0  0  0  0  0  0
  -23.1026   -9.8641   21.4294 C   0  0  0  0  0  0  0  0  0  0  0  0
  -23.8893  -10.7179   23.5481 C   0  0  0  0  0  0  0  0  0  0  0  0
  -26.8702  -34.0015   22.7896 C   0  0  0  0  0  0  0  0  0  0  0  0
  -28.1710  -31.8155   23.9189 C   0  0  0  0  0  0  0  0  0  0  0  0
  -30.8403  -26.3312   23.3677 C   0  0  0  0  0  0  0  0  0  0  0  0
  -22.3896   -8.8675   22.0957 C   0  0  0  0  0  0  0  0  0  0  0  0
  -23.1762   -9.7214   24.2145 C   0  0  0  0  0  0  0  0  0  0  0  0
  -31.2385  -25.3830   24.3090 C   0  0  0  0  0  0  0  0  0  0  0  0
  -20.6507   -5.8788   23.2216 C   0  0  0  0  0  0  0  0  0  0  0  0
  -20.7275   -4.5792   22.7208 C   0  0  0  0  0  0  0  0  0  0  0  0
  -29.1600  -24.2012   23.9891 C   0  0  0  0  0  0  0  0  0  0  0  0
  -23.1196   -4.5900   23.0595 C   0  0  0  0  0  0  0  0  0  0  0  0
  -23.8525  -10.7893   22.1556 C   0  0  0  0  0  0  0  0  0  0  0  0
  -24.1324  -13.1037   21.1199 C   0  0  0  0  0  0  0  0  0  0  0  0
  -26.2301  -32.7522   22.8040 C   0  0  0  0  0  0  0  0  0  0  0  0
  -29.5922  -26.2274   22.7370 C   0  0  0  0  0  0  0  0  0  0  0  0
  -26.8824  -31.6475   23.3841 C   0  0  0  0  0  0  0  0  0  0  0  0
  -28.7493  -25.1480   23.0383 C   0  0  0  0  0  0  0  0  0  0  0  0
  -22.4263   -8.7962   23.4882 C   0  0  0  0  0  0  0  0  0  0  0  0
  -30.3972  -24.3194   24.6220 C   0  0  0  0  0  0  0  0  0  0  0  0
  -21.8084   -6.5341   23.6412 C   0  0  0  0  0  0  0  0  0  0  0  0
  -21.9619   -3.9348   22.6398 C   0  0  0  0  0  0  0  0  0  0  0  0
  -23.0428   -5.8897   23.5602 C   0  0  0  0  0  0  0  0  0  0  0  0
  -24.5898  -11.8186   21.4678 C   0  0  0  0  0  0  0  0  0  0  0  0
  -25.2019  -13.6894   20.4878 C   0  0  0  0  0  0  0  0  0  0  0  0
  -29.4811  -19.9551   22.7312 C   0  0  0  0  0  0  0  0  0  0  0  0
  -30.6660  -19.9460   23.3555 C   0  0  0  0  0  0  0  0  0  0  0  0
  -29.4677  -18.9349   21.6385 C   0  0  0  0  0  0  0  0  0  0  0  0
  -22.8550  -13.7136   21.3479 C   0  0  0  0  0  0  0  0  0  0  0  0
  -26.9783  -28.0326   22.6251 C   0  0  0  0  0  0  0  0  0  0  0  0
  -30.6852  -14.7793   20.2988 C   0  0  0  0  0  0  0  0  0  0  0  0
  -26.0221  -25.8294   20.4448 C   0  0  0  0  0  0  0  0  0  0  0  0
  -32.2762  -20.6978   25.0102 C   0  0  0  0  0  0  0  0  0  0  0  0
  -26.2962  -22.6551   19.2218 C   0  0  0  0  0  0  0  0  0  0  0  0
  -24.8291  -32.6480   22.2554 C   0  0  0  0  0  0  0  0  0  0  0  0
  -29.1886  -27.2437   21.7042 C   0  0  0  0  0  0  0  0  0  0  0  0
  -27.4079  -24.9799   22.3744 C   0  0  0  0  0  0  0  0  0  0  0  0
  -24.3844  -31.2121   21.9894 C   0  0  0  0  0  0  0  0  0  0  0  0
  -29.5461  -11.7134   18.8348 C   0  0  0  0  0  0  0  0  0  0  0  0
  -24.7296  -30.3178   23.1759 C   0  0  0  0  0  0  0  0  0  0  0  0
  -28.1289  -11.5578   19.3848 C   0  0  0  0  0  0  0  0  0  0  0  0
  -30.4757  -12.3548   19.8603 C   0  0  0  0  0  0  0  0  0  0  0  0
  -28.5721  -13.5137   20.9349 C   0  0  0  0  0  0  0  0  0  0  0  0
  -26.2441  -30.2757   23.4128 C   0  0  1  0  0  0  0  0  0  0  0  0
  -27.6786  -27.3224   21.5014 C   0  0  1  0  0  0  0  0  0  0  0  0
  -27.5933  -12.8978   19.9196 C   0  0  2  0  0  0  0  0  0  0  0  0
  -28.2792  -20.7951   22.9811 C   0  0  0  0  0  0  0  0  0  0  0  0
  -33.7753  -21.5754   26.8048 C   0  0  0  0  0  0  0  0  0  0  0  0
  -25.3587  -21.1357   17.4583 C   0  0  0  0  0  0  0  0  0  0  0  0
  -23.4887  -25.4680   22.1064 C   0  0  0  0  0  0  0  0  0  0  0  0
  -23.0649  -23.3334   20.8686 C   0  0  0  0  0  0  0  0  0  0  0  0
  -23.1184  -25.4999   19.6333 C   0  0  0  0  0  0  0  0  0  0  0  0
  -28.9413  -22.3243   17.9362 C   0  0  0  0  0  0  0  0  0  0  0  0
  -30.0448  -16.0371   20.8297 C   0  0  0  0  0  0  0  0  0  0  0  0
  -30.9548  -17.7868   19.2117 C   0  0  0  0  0  0  0  0  0  0  0  0
  -32.1828  -23.1423   25.6622 C   0  0  0  0  0  0  0  0  0  1  0  0
  -25.2781  -24.5173   20.5064 C   0  0  1  0  0  0  0  0  0  0  0  0
  -32.3994  -21.7094   26.1539 C   0  0  1  0  0  0  0  0  0  0  0  0
  -26.4545  -22.1314   17.8058 C   0  0  2  0  0  0  0  0  0  0  0  0
  -30.9799  -17.2351   20.6379 C   0  0  1  0  0  0  0  0  0  0  0  0
  -23.7619  -24.7086   20.7928 C   0  0  0  0  0  0  0  0  0  0  0  0
  -25.8515  -11.6000   21.0880 N   0  0  0  0  0  0  0  0  0  0  0  0
  -26.1961  -12.7556   20.4948 N   0  0  0  0  0  0  0  0  0  0  0  0
  -30.6876  -18.2793   21.5932 N   0  0  0  0  0  0  0  0  0  0  0  0
  -27.0557  -26.0031   21.3761 N   0  0  0  0  0  0  0  0  0  0  0  0
  -29.9210  -13.6139   20.3605 N   0  0  0  0  0  0  0  0  0  0  0  0
  -25.3796  -14.9067   19.9320 N   0  0  0  0  0  0  0  0  0  0  0  0
  -21.8692  -12.9712   22.0123 N   0  0  0  0  0  0  0  0  0  0  0  0
  -31.0286  -20.7452   24.3995 N   0  0  0  0  0  0  0  0  0  0  0  0
  -26.8816  -29.4002   22.4528 N   0  0  0  0  0  0  0  0  0  0  0  0
  -25.5671  -23.8250   19.2552 N   0  0  0  0  0  0  0  0  0  0  0  0
  -31.8551  -18.9583   19.0731 N   0  3  0  0  0  0  0  0  0  0  0  0
  -27.7724  -21.4538   17.6484 N   0  3  0  0  0  0  0  0  0  0  0  0
  -28.4957  -18.7475   20.9192 O   0  0  0  0  0  0  0  0  0  0  0  0
  -22.5901  -14.8764   20.9590 O   0  0  0  0  0  0  0  0  0  0  0  0
  -26.5555  -27.3874   23.5773 O   0  0  0  0  0  0  0  0  0  0  0  0
  -31.8295  -14.8335   19.8406 O   0  0  0  0  0  0  0  0  0  0  0  0
  -25.7028  -26.6664   19.5968 O   0  0  0  0  0  0  0  0  0  0  0  0
  -33.1898  -19.9379   24.6948 O   0  0  0  0  0  0  0  0  0  0  0  0
  -26.7687  -22.0817   20.2008 O   0  0  0  0  0  0  0  0  0  0  0  0
  -21.7304   -7.8240   24.1388 O   0  0  0  0  0  0  0  0  0  0  0  0
  -30.7832  -23.3929   25.5409 O   0  0  0  0  0  0  0  0  0  1  0  0
  -22.0353   -2.6862   22.1604 F   0  0  0  0  0  0  0  0  0  0  0  0
  -24.1583   -6.5137   23.9629 F   0  0  0  0  0  0  0  0  0  0  0  0
  -31.8098  -18.8044   22.7526 S   0  0  0  0  0  0  0  0  0  0  0  0
  1  2  1  0  0  0  0
  1  5  2  0  0  0  0
  2  6  2  0  0  0  0
  3  8  2  0  0  0  0
  3 15  1  0  0  0  0
  4  9  1  0  0  0  0
  4 15  2  0  0  0  0
  5 17  1  0  0  0  0
  6 19  1  0  0  0  0
  7 10  2  0  0  0  0
  7 18  1  0  0  0  0
  8 21  1  0  0  0  0
  9 21  2  0  0  0  0
 10 22  1  0  0  0  0
 11 12  2  0  0  0  0
 11 23  1  0  0  0  0
 12 24  1  0  0  0  0
 13 20  1  0  0  0  0
 13 22  2  0  0  0  0
 14 24  2  0  0  0  0
 14 25  1  0  0  0  0
 15 26  1  0  0  0  0
 16 26  1  0  0  0  0
 16 27  2  0  0  0  0
 16 31  1  0  0  0  0
 17 19  2  0  0  0  0
 17 37  1  0  0  0  0
 18 20  2  0  0  0  0
 18 38  1  0  0  0  0
 19 46  1  0  0  0  0
 20 39  1  0  0  0  0
 21 83  1  0  0  0  0
 22 84  1  0  0  0  0
 23 25  2  0  0  0  0
 23 83  1  0  0  0  0
 24 85  1  0  0  0  0
 25 86  1  0  0  0  0
 26 64  2  0  0  0  0
 27 65  1  0  0  0  0
 27 69  1  0  0  0  0
 28 29  2  0  0  0  0
 28 30  1  0  0  0  0
 28 49  1  0  0  0  0
 29 71  1  0  0  0  0
 29 87  1  0  0  0  0
 30 66  1  0  0  0  0
 30 76  2  0  0  0  0
 31 70  1  0  0  0  0
 31 77  2  0  0  0  0
 32 47  1  0  0  0  0
 32 72  1  0  0  0  0
 32 78  2  0  0  0  0
 33 56  1  0  0  0  0
 33 68  1  0  0  0  0
 33 79  2  0  0  0  0
 34 59  1  0  0  0  0
 34 67  1  0  0  0  0
 34 80  2  0  0  0  0
 35 60  1  0  0  0  0
 35 71  1  0  0  0  0
 35 81  2  0  0  0  0
 36 61  1  0  0  0  0
 36 73  1  0  0  0  0
 36 82  2  0  0  0  0
 37 40  1  0  0  0  0
 38 47  1  0  0  0  0
 39 67  1  0  0  0  0
 40 42  1  0  0  0  0
 41 43  1  0  0  0  0
 41 44  1  0  0  0  0
 42 46  1  0  0  0  0
 43 48  1  0  0  0  0
 44 68  1  0  0  0  0
 45 48  1  0  0  0  0
 45 68  1  0  0  0  0
 46 72  1  0  0  0  0
 47 67  1  0  0  0  0
 48 65  1  0  0  0  0
 50 60  1  0  0  0  0
 51 61  1  0  0  0  0
 52 63  1  0  0  0  0
 53 63  1  0  0  0  0
 54 63  1  0  0  0  0
 55 75  1  0  0  0  0
 56 62  1  0  0  0  0
 57 62  1  0  0  0  0
 57 74  1  0  0  0  0
 58 60  1  0  0  0  0
 58 84  1  0  0  0  0
 59 63  1  0  0  0  0
 59 73  1  0  0  0  0
 61 75  1  0  0  0  0
 62 66  1  0  0  0  0
 64 65  1  0  0  0  0
 66 87  1  0  0  0  0
M  CHG  2  74   1  75   1
M  ISO  4  33 100  56 100  58 101  84 101
M  END
> <Batch ID>
0186

> <Smiles>
CNC(C)C(=O)NC(C(=O)N1Cc2cc([101O:1][101CH2:1]C(C)C(=O)Nc3sn(C(CN)[100CH2:0][100C:0](=O)N4CCCC(n5nc(-c6ccc(Oc7ccc(F)cc7F)cc6)c(C(N)=O)c5N)C4)c(=O)c3C)ccc2CC1C(=O)NC1CCCc2ccccc21)C(C)(C)C

> <Shape>
0.250

> <Color>
0.146

> <Negative vol penalty>
0.000

$$$$

  -OEChem-04052305093D

 84 92  0     1  0  0  0  0  0999 V2000
  -22.0981  -26.4880   27.1378 C   0  0  0  0  0  0  0  0  0  0  0  0
  -23.0433  -25.7633   26.4189 C   0  0  0  0  0  0  0  0  0  0  0  0
  -22.9900  -10.0688   19.8805 C   0  0  0  0  0  0  0  0  0  0  0  0
  -23.8473   -9.8401   22.1277 C   0  0  0  0  0  0  0  0  0  0  0  0
  -21.1217  -27.2198   26.4632 C   0  0  0  0  0  0  0  0  0  0  0  0
  -23.0120  -25.7691   25.0248 C   0  0  0  0  0  0  0  0  0  0  0  0
  -27.8170  -25.5604   21.2336 C   0  0  0  0  0  0  0  0  0  0  0  0
  -22.2100   -8.9267   20.0618 C   0  0  0  0  0  0  0  0  0  0  0  0
  -23.0672   -8.6981   22.3090 C   0  0  0  0  0  0  0  0  0  0  0  0
  -28.4109  -24.5143   20.5287 C   0  0  0  0  0  0  0  0  0  0  0  0
  -19.8374   -7.9717   22.9880 C   0  0  0  0  0  0  0  0  0  0  0  0
  -19.1304   -7.8550   24.1847 C   0  0  0  0  0  0  0  0  0  0  0  0
  -27.1265  -25.1093   18.5754 C   0  0  0  0  0  0  0  0  0  0  0  0
  -20.3202   -5.8135   24.6885 C   0  0  0  0  0  0  0  0  0  0  0  0
  -23.8087  -10.5255   20.9134 C   0  0  0  0  0  0  0  0  0  0  0  0
  -24.2503  -13.0364   21.0014 C   0  0  0  0  0  0  0  0  0  0  0  0
  -21.0843  -27.2424   25.0601 C   0  0  0  0  0  0  0  0  0  0  0  0
  -26.8637  -26.3833   20.6169 C   0  0  0  0  0  0  0  0  0  0  0  0
  -22.0334  -26.5008   24.3308 C   0  0  0  0  0  0  0  0  0  0  0  0
  -26.5238  -26.1667   19.2739 C   0  0  0  0  0  0  0  0  0  0  0  0
  -22.2486   -8.2414   21.2761 C   0  0  0  0  0  0  0  0  0  0  0  0
  -28.0636  -24.2868   19.2003 C   0  0  0  0  0  0  0  0  0  0  0  0
  -20.7858   -7.0093   22.6415 C   0  0  0  0  0  0  0  0  0  0  0  0
  -19.3718   -6.7759   25.0350 C   0  0  0  0  0  0  0  0  0  0  0  0
  -21.0272   -5.9302   23.4918 C   0  0  0  0  0  0  0  0  0  0  0  0
  -24.6151  -11.7048   20.7265 C   0  0  0  0  0  0  0  0  0  0  0  0
  -28.5764  -17.2910   21.6977 C   0  0  0  0  0  0  0  0  0  0  0  0
  -29.6685  -16.5837   21.2404 C   0  0  0  0  0  0  0  0  0  0  0  0
  -25.3562  -13.7738   20.6554 C   0  0  0  0  0  0  0  0  0  0  0  0
  -28.9614  -18.4288   19.8627 C   0  0  0  0  0  0  0  0  0  0  0  0
  -23.0216  -13.5600   21.5228 C   0  0  0  0  0  0  0  0  0  0  0  0
  -23.7933  -27.0298   21.1253 C   0  0  0  0  0  0  0  0  0  0  0  0
  -30.9030  -14.4881   20.7677 C   0  0  0  0  0  0  0  0  0  0  0  0
  -24.2651  -29.2121   18.7722 C   0  0  0  0  0  0  0  0  0  0  0  0
  -27.9938  -20.4065   18.6379 C   0  0  0  0  0  0  0  0  0  0  0  0
  -26.0761  -30.1928   16.0509 C   0  0  0  0  0  0  0  0  0  0  0  0
  -19.9811  -28.0099   24.3755 C   0  0  0  0  0  0  0  0  0  0  0  0
  -26.2520  -27.5241   21.3829 C   0  0  0  0  0  0  0  0  0  0  0  0
  -25.5209  -27.0343   18.5598 C   0  0  0  0  0  0  0  0  0  0  0  0
  -20.2456  -28.2655   22.8940 C   0  0  0  0  0  0  0  0  0  0  0  0
  -29.5374  -12.4713   18.1395 C   0  0  0  0  0  0  0  0  0  0  0  0
  -20.7266  -26.9899   22.2097 C   0  0  0  0  0  0  0  0  0  0  0  0
  -28.1154  -12.1765   18.6152 C   0  0  0  0  0  0  0  0  0  0  0  0
  -30.5162  -12.5300   19.3081 C   0  0  0  0  0  0  0  0  0  0  0  0
  -28.7070  -13.2069   20.8542 C   0  0  0  0  0  0  0  0  0  0  0  0
  -22.0473  -26.5022   22.8176 C   0  0  1  0  0  0  0  0  0  0  0  0
  -24.9138  -27.9796   20.8092 C   0  0  1  0  0  0  0  0  0  0  0  0
  -27.6810  -13.1694   19.7078 C   0  0  2  0  0  0  0  0  0  0  0  0
  -27.8197  -17.0173   22.9363 C   0  0  0  0  0  0  0  0  0  0  0  0
  -31.5037  -15.7865   22.7859 C   0  0  0  0  0  0  0  0  0  0  0  0
  -27.5059  -20.5356   16.1897 C   0  0  0  0  0  0  0  0  0  0  0  0
  -26.2000  -32.0000   14.3142 C   0  0  0  0  0  0  0  0  0  0  0  0
  -21.8814  -27.9780   17.3215 C   0  0  0  0  0  0  0  0  0  0  0  0
  -22.6320  -29.1477   15.2390 C   0  0  0  0  0  0  0  0  0  0  0  0
  -21.9704  -30.4761   17.2441 C   0  0  0  0  0  0  0  0  0  0  0  0
  -28.7888  -30.9995   16.9167 C   0  0  0  0  0  0  0  0  0  0  0  0
  -27.8649  -22.6583   17.4786 C   0  0  0  0  0  0  0  0  0  1  0  0
  -30.3582  -15.4160   21.8242 C   0  0  1  0  0  0  0  0  0  0  0  0
  -24.1540  -29.2020   17.2667 C   0  0  1  0  0  0  0  0  0  0  0  0
  -28.2658  -21.1872   17.3445 C   0  0  1  0  0  0  0  0  0  0  0  0
  -26.6869  -31.5312   15.6765 C   0  0  2  0  0  0  0  0  0  0  0  0
  -22.6769  -29.1832   16.7815 C   0  0  0  0  0  0  0  0  0  0  0  0
  -25.8558  -11.5994   20.2431 N   0  0  0  0  0  0  0  0  0  0  0  0
  -28.1698  -18.3497   20.9092 N   0  0  0  0  0  0  0  0  0  0  0  0
  -26.2801  -12.8741   20.2113 N   0  0  0  0  0  0  0  0  0  0  0  0
  -24.9458  -28.1329   19.3533 N   0  0  0  0  0  0  0  0  0  0  0  0
  -30.0567  -13.4673   20.3346 N   0  0  0  0  0  0  0  0  0  0  0  0
  -25.6188  -15.0975   20.6907 N   0  0  0  0  0  0  0  0  0  0  0  0
  -21.9880  -12.6630   21.8251 N   0  0  0  0  0  0  0  0  0  0  0  0
  -28.9031  -19.3650   18.8028 N   0  0  0  0  0  0  0  0  0  0  0  0
  -23.1540  -27.2921   22.3219 N   0  0  0  0  0  0  0  0  0  0  0  0
  -24.9241  -30.3469   16.7928 N   0  0  0  0  0  0  0  0  0  0  0  0
  -28.1731  -31.4287   15.6347 N   0  3  0  0  0  0  0  0  0  0  0  0
  -22.8397  -14.7885   21.6997 O   0  0  0  0  0  0  0  0  0  0  0  0
  -23.5274  -26.1267   20.3408 O   0  0  0  0  0  0  0  0  0  0  0  0
  -32.0459  -14.6686   20.3393 O   0  0  0  0  0  0  0  0  0  0  0  0
  -23.7725  -30.1470   19.4086 O   0  0  0  0  0  0  0  0  0  0  0  0
  -27.0693  -20.7047   19.3885 O   0  0  0  0  0  0  0  0  0  0  0  0
  -26.5694  -29.1183   15.7154 O   0  0  0  0  0  0  0  0  0  0  0  0
  -21.4874   -7.1271   21.4535 O   0  0  0  0  0  0  0  0  0  0  0  0
  -28.6412  -23.2661   18.5102 O   0  0  0  0  0  0  0  0  0  1  0  0
  -18.6938   -6.6647   26.1849 F   0  0  0  0  0  0  0  0  0  0  0  0
  -21.9379   -5.0032   23.1648 F   0  0  0  0  0  0  0  0  0  0  0  0
  -30.2155  -17.2616   19.7630 S   0  0  0  0  0  0  0  0  0  0  0  0
  1  2  1  0  0  0  0
  1  5  2  0  0  0  0
  2  6  2  0  0  0  0
  3  8  2  0  0  0  0
  3 15  1  0  0  0  0
  4  9  1  0  0  0  0
  4 15  2  0  0  0  0
  5 17  1  0  0  0  0
  6 19  1  0  0  0  0
  7 10  2  0  0  0  0
  7 18  1  0  0  0  0
  8 21  1  0  0  0  0
  9 21  2  0  0  0  0
 10 22  1  0  0  0  0
 11 12  2  0  0  0  0
 11 23  1  0  0  0  0
 12 24  1  0  0  0  0
 13 20  1  0  0  0  0
 13 22  2  0  0  0  0
 14 24  2  0  0  0  0
 14 25  1  0  0  0  0
 15 26  1  0  0  0  0
 16 26  1  0  0  0  0
 16 29  2  0  0  0  0
 16 31  1  0  0  0  0
 17 19  2  0  0  0  0
 17 37  1  0  0  0  0
 18 20  2  0  0  0  0
 18 38  1  0  0  0  0
 19 46  1  0  0  0  0
 20 39  1  0  0  0  0
 21 80  1  0  0  0  0
 22 81  1  0  0  0  0
 23 25  2  0  0  0  0
 23 80  1  0  0  0  0
 24 82  1  0  0  0  0
 25 83  1  0  0  0  0
 26 63  2  0  0  0  0
 27 28  2  0  0  0  0
 27 49  1  0  0  0  0
 27 64  1  0  0  0  0
 28 58  1  0  0  0  0
 28 84  1  0  0  0  0
 29 65  1  0  0  0  0
 29 68  1  0  0  0  0
 30 64  2  0  0  0  0
 30 70  1  0  0  0  0
 30 84  1  0  0  0  0
 31 69  1  0  0  0  0
 31 74  2  0  0  0  0
 32 47  1  0  0  0  0
 32 71  1  0  0  0  0
 32 75  2  0  0  0  0
 33 58  1  0  0  0  0
 33 67  1  0  0  0  0
 33 76  2  0  0  0  0
 34 59  1  0  0  0  0
 34 66  1  0  0  0  0
 34 77  2  0  0  0  0
 35 60  1  0  0  0  0
 35 70  1  0  0  0  0
 35 78  2  0  0  0  0
 36 61  1  0  0  0  0
 36 72  1  0  0  0  0
 36 79  2  0  0  0  0
 37 40  1  0  0  0  0
 38 47  1  0  0  0  0
 39 66  1  0  0  0  0
 40 42  1  0  0  0  0
 41 43  1  0  0  0  0
 41 44  1  0  0  0  0
 42 46  1  0  0  0  0
 43 48  1  0  0  0  0
 44 67  1  0  0  0  0
 45 48  1  0  0  0  0
 45 67  1  0  0  0  0
 46 71  1  0  0  0  0
 47 66  1  0  0  0  0
 48 65  1  0  0  0  0
 50 58  1  0  0  0  0
 51 60  1  0  0  0  0
 52 61  1  0  0  0  0
 53 62  1  0  0  0  0
 54 62  1  0  0  0  0
 55 62  1  0  0  0  0
 56 73  1  0  0  0  0
 57 60  1  0  0  0  0
 57 81  1  0  0  0  0
 59 62  1  0  0  0  0
 59 72  1  0  0  0  0
 61 73  1  0  0  0  0
 63 65  1  0  0  0  0
M  CHG  1  73   1
M  ISO  4  33 100  57 101  58 100  81 101
M  END
> <Batch ID>
0186

> <Smiles>
CNC(C)C(=O)NC(C(=O)N1Cc2cc([101O:1][101CH2:1]C(C)C(=O)Nc3nc(C)c([100CH:0](C)[100C:0](=O)N4CCCC(n5nc(-c6ccc(Oc7ccc(F)cc7F)cc6)c(C(N)=O)c5N)C4)s3)ccc2CC1C(=O)NC1CCCc2ccccc21)C(C)(C)C

> <Shape>
0.295

> <Color>
0.199

> <Negative vol penalty>
0.000

$$$$

  -OEChem-04052305093D

 84 92  0     1  0  0  0  0  0999 V2000
  -37.0342  -27.4593   27.8895 C   0  0  0  0  0  0  0  0  0  0  0  0
  -36.9992  -26.2061   27.2863 C   0  0  0  0  0  0  0  0  0  0  0  0
  -23.0752   -9.8661   19.9419 C   0  0  0  0  0  0  0  0  0  0  0  0
  -23.8350   -9.8754   22.2353 C   0  0  0  0  0  0  0  0  0  0  0  0
  -36.8121  -28.6051   27.1269 C   0  0  0  0  0  0  0  0  0  0  0  0
  -36.7409  -26.0981   25.9203 C   0  0  0  0  0  0  0  0  0  0  0  0
  -39.8621  -22.8521   23.6038 C   0  0  0  0  0  0  0  0  0  0  0  0
  -22.3318   -8.7129   20.1928 C   0  0  0  0  0  0  0  0  0  0  0  0
  -23.0915   -8.7222   22.4863 C   0  0  0  0  0  0  0  0  0  0  0  0
  -39.5933  -21.4924   23.7549 C   0  0  0  0  0  0  0  0  0  0  0  0
  -19.8636   -7.9238   23.0893 C   0  0  0  0  0  0  0  0  0  0  0  0
  -19.1066   -7.8846   24.2602 C   0  0  0  0  0  0  0  0  0  0  0  0
  -38.5479  -21.4637   21.5810 C   0  0  0  0  0  0  0  0  0  0  0  0
  -20.3487   -5.9483   24.9985 C   0  0  0  0  0  0  0  0  0  0  0  0
  -29.8603  -17.8117   22.7124 C   0  0  0  0  0  0  0  0  0  0  0  0
  -23.8269  -10.4474   20.9631 C   0  0  0  0  0  0  0  0  0  0  0  0
  -24.1678  -12.9725   20.8408 C   0  0  0  0  0  0  0  0  0  0  0  0
  -36.5605  -28.5117   25.7490 C   0  0  0  0  0  0  0  0  0  0  0  0
  -39.4655  -23.5313   22.4429 C   0  0  0  0  0  0  0  0  0  0  0  0
  -36.5139  -27.2437   25.1388 C   0  0  0  0  0  0  0  0  0  0  0  0
  -38.8152  -22.8315   21.4166 C   0  0  0  0  0  0  0  0  0  0  0  0
  -22.3399   -8.1410   21.4650 C   0  0  0  0  0  0  0  0  0  0  0  0
  -38.9335  -20.7987   22.7446 C   0  0  0  0  0  0  0  0  0  0  0  0
  -20.8631   -6.9751   22.8729 C   0  0  0  0  0  0  0  0  0  0  0  0
  -19.3492   -6.8969   25.2148 C   0  0  0  0  0  0  0  0  0  0  0  0
  -21.1057   -5.9874   23.8275 C   0  0  0  0  0  0  0  0  0  0  0  0
  -24.5956  -11.6383   20.7043 C   0  0  0  0  0  0  0  0  0  0  0  0
  -30.5699  -16.9523   21.8999 C   0  0  0  0  0  0  0  0  0  0  0  0
  -25.2597  -13.7221   20.4770 C   0  0  0  0  0  0  0  0  0  0  0  0
  -32.0472  -18.5670   22.0420 C   0  0  0  0  0  0  0  0  0  0  0  0
  -22.8971  -13.4883   21.2592 C   0  0  0  0  0  0  0  0  0  0  0  0
  -37.5022  -25.9525   21.8208 C   0  0  0  0  0  0  0  0  0  0  0  0
  -38.6923  -25.6368   18.8198 C   0  0  0  0  0  0  0  0  0  0  0  0
  -35.5620  -19.3584   22.9261 C   0  0  0  0  0  0  0  0  0  0  0  0
  -40.1785  -23.6366   16.4880 C   0  0  0  0  0  0  0  0  0  0  0  0
  -30.7254  -14.7700   20.6510 C   0  0  0  0  0  0  0  0  0  0  0  0
  -36.2796  -29.7753   24.9750 C   0  0  0  0  0  0  0  0  0  0  0  0
  -39.7867  -24.9921   22.2839 C   0  0  0  0  0  0  0  0  0  0  0  0
  -38.3866  -23.5099   20.1421 C   0  0  0  0  0  0  0  0  0  0  0  0
  -36.3837  -29.5989   23.4623 C   0  0  0  0  0  0  0  0  0  0  0  0
  -29.6122  -12.3535   18.2850 C   0  0  0  0  0  0  0  0  0  0  0  0
  -35.6456  -28.3395   23.0196 C   0  0  0  0  0  0  0  0  0  0  0  0
  -28.1726  -12.0617   18.7147 C   0  0  0  0  0  0  0  0  0  0  0  0
  -30.5271  -12.5838   19.4865 C   0  0  0  0  0  0  0  0  0  0  0  0
  -28.6198  -13.3089   20.8669 C   0  0  0  0  0  0  0  0  0  0  0  0
  -36.2614  -27.0871   23.6549 C   0  0  1  0  0  0  0  0  0  0  0  0
  -38.8804  -25.6973   21.2795 C   0  0  1  0  0  0  0  0  0  0  0  0
  -27.6471  -13.1341   19.6891 C   0  0  2  0  0  0  0  0  0  0  0  0
  -33.5732  -19.7052   20.3783 C   0  0  0  0  0  0  0  0  0  0  0  0
  -40.9927  -23.6477   14.1143 C   0  0  0  0  0  0  0  0  0  0  0  0
  -38.6589  -18.1643   24.8976 C   0  0  0  0  0  0  0  0  0  0  0  0
  -35.8119  -25.4364   17.8333 C   0  0  0  0  0  0  0  0  0  0  0  0
  -36.6883  -24.5159   15.6762 C   0  0  0  0  0  0  0  0  0  0  0  0
  -37.3142  -26.8221   16.3920 C   0  0  0  0  0  0  0  0  0  0  0  0
  -42.9609  -23.0631   17.3176 C   0  0  0  0  0  0  0  0  0  0  0  0
  -36.6048  -18.3873   23.4600 C   0  0  0  0  0  0  0  0  0  0  0  0
  -33.3169  -19.3669   21.8454 C   0  0  2  0  0  0  0  0  0  0  0  0
  -38.3120  -24.8364   17.5976 C   0  0  1  0  0  0  0  0  0  0  0  0
  -41.3664  -23.8686   15.5718 C   0  0  2  0  0  0  0  0  0  0  0  0
  -37.8524  -19.0892   23.9956 C   0  0  2  0  0  0  0  0  0  1  0  0
  -37.0378  -25.3901   16.8995 C   0  0  0  0  0  0  0  0  0  0  0  0
  -25.8605  -11.5426   20.2862 N   0  0  0  0  0  0  0  0  0  0  0  0
  -31.8240  -17.3839   21.5142 N   0  0  0  0  0  0  0  0  0  0  0  0
  -26.2369  -12.8262   20.1568 N   0  0  0  0  0  0  0  0  0  0  0  0
  -38.7177  -24.9406   20.0365 N   0  0  0  0  0  0  0  0  0  0  0  0
  -29.9677  -13.6153   20.3628 N   0  0  0  0  0  0  0  0  0  0  0  0
  -25.4696  -15.0536   20.4028 N   0  0  0  0  0  0  0  0  0  0  0  0
  -21.8855  -12.5790   21.5973 N   0  0  0  0  0  0  0  0  0  0  0  0
  -30.0776  -15.6956   21.4684 N   0  0  0  0  0  0  0  0  0  0  0  0
  -37.4821  -26.7207   22.9693 N   0  0  0  0  0  0  0  0  0  0  0  0
  -34.4577  -18.6892   22.4178 N   0  0  0  0  0  0  0  0  0  0  0  0
  -39.4954  -24.8065   16.7448 N   0  0  0  0  0  0  0  0  0  0  0  0
  -42.4775  -22.9378   15.9184 N   0  3  0  0  0  0  0  0  0  0  0  0
  -22.6604  -14.7188   21.3155 O   0  0  0  0  0  0  0  0  0  0  0  0
  -36.5289  -25.4881   21.2387 O   0  0  0  0  0  0  0  0  0  0  0  0
  -38.9641  -26.8339   18.6982 O   0  0  0  0  0  0  0  0  0  0  0  0
  -35.7011  -20.5781   22.9509 O   0  0  0  0  0  0  0  0  0  0  0  0
  -39.8836  -22.5277   16.9285 O   0  0  0  0  0  0  0  0  0  0  0  0
  -31.8545  -14.9388   20.1833 O   0  0  0  0  0  0  0  0  0  0  0  0
  -21.6143   -7.0158   21.7103 O   0  0  0  0  0  0  0  0  0  0  0  0
  -38.6693  -19.4716   22.8898 O   0  0  0  0  0  0  0  0  0  1  0  0
  -18.6232   -6.8603   26.3399 F   0  0  0  0  0  0  0  0  0  0  0  0
  -22.0654   -5.0741   23.6258 F   0  0  0  0  0  0  0  0  0  0  0  0
  -30.7922  -19.2196   23.0135 S   0  0  0  0  0  0  0  0  0  0  0  0
  1  2  1  0  0  0  0
  1  5  2  0  0  0  0
  2  6  2  0  0  0  0
  3  8  2  0  0  0  0
  3 16  1  0  0  0  0
  4  9  1  0  0  0  0
  4 16  2  0  0  0  0
  5 18  1  0  0  0  0
  6 20  1  0  0  0  0
  7 10  2  0  0  0  0
  7 19  1  0  0  0  0
  8 22  1  0  0  0  0
  9 22  2  0  0  0  0
 10 23  1  0  0  0  0
 11 12  2  0  0  0  0
 11 24  1  0  0  0  0
 12 25  1  0  0  0  0
 13 21  1  0  0  0  0
 13 23  2  0  0  0  0
 14 25  2  0  0  0  0
 14 26  1  0  0  0  0
 15 28  2  0  0  0  0
 15 84  1  0  0  0  0
 16 27  1  0  0  0  0
 17 27  1  0  0  0  0
 17 29  2  0  0  0  0
 17 31  1  0  0  0  0
 18 20  2  0  0  0  0
 18 37  1  0  0  0  0
 19 21  2  0  0  0  0
 19 38  1  0  0  0  0
 20 46  1  0  0  0  0
 21 39  1  0  0  0  0
 22 80  1  0  0  0  0
 23 81  1  0  0  0  0
 24 26  2  0  0  0  0
 24 80  1  0  0  0  0
 25 82  1  0  0  0  0
 26 83  1  0  0  0  0
 27 62  2  0  0  0  0
 28 63  1  0  0  0  0
 28 69  1  0  0  0  0
 29 64  1  0  0  0  0
 29 67  1  0  0  0  0
 30 57  1  0  0  0  0
 30 63  2  0  0  0  0
 30 84  1  0  0  0  0
 31 68  1  0  0  0  0
 31 74  2  0  0  0  0
 32 47  1  0  0  0  0
 32 70  1  0  0  0  0
 32 75  2  0  0  0  0
 33 58  1  0  0  0  0
 33 65  1  0  0  0  0
 33 76  2  0  0  0  0
 34 56  1  0  0  0  0
 34 71  1  0  0  0  0
 34 77  2  0  0  0  0
 35 59  1  0  0  0  0
 35 72  1  0  0  0  0
 35 78  2  0  0  0  0
 36 66  1  0  0  0  0
 36 69  1  0  0  0  0
 36 79  2  0  0  0  0
 37 40  1  0  0  0  0
 38 47  1  0  0  0  0
 39 65  1  0  0  0  0
 40 42  1  0  0  0  0
 41 43  1  0  0  0  0
 41 44  1  0  0  0  0
 42 46  1  0  0  0  0
 43 48  1  0  0  0  0
 44 66  1  0  0  0  0
 45 48  1  0  0  0  0
 45 66  1  0  0  0  0
 46 70  1  0  0  0  0
 47 65  1  0  0  0  0
 48 64  1  0  0  0  0
 49 57  1  0  0  0  0
 50 59  1  0  0  0  0
 51 60  1  0  0  0  0
 52 61  1  0  0  0  0
 53 61  1  0  0  0  0
 54 61  1  0  0  0  0
 55 73  1  0  0  0  0
 56 60  1  0  0  0  0
 57 71  1  0  0  0  0
 58 61  1  0  0  0  0
 58 72  1  0  0  0  0
 59 73  1  0  0  0  0
 60 81  1  0  0  0  0
 62 64  1  0  0  0  0
M  CHG  1  73   1
M  ISO  4  36 100  60 101  69 100  81 101
M  END
> <Batch ID>
0186

> <Smiles>
CNC(C)C(=O)NC(C(=O)N1Cc2cc([101O:1][101CH:1](C)CC(=O)NC(C)c3nc([100NH:0][100C:0](=O)N4CCCC(n5nc(-c6ccc(Oc7ccc(F)cc7F)cc6)c(C(N)=O)c5N)C4)cs3)ccc2CC1C(=O)NC1CCCc2ccccc21)C(C)(C)C

> <Shape>
0.168

> <Color>
0.188

> <Negative vol penalty>
0.000

$$$$

  -OEChem-04052305093D

 88 96  0     1  0  0  0  0  0999 V2000
  -28.3164  -31.8240   27.1826 C   0  0  0  0  0  0  0  0  0  0  0  0
  -28.3453  -30.7678   26.2777 C   0  0  0  0  0  0  0  0  0  0  0  0
  -23.1658  -10.2803   22.2690 C   0  0  0  0  0  0  0  0  0  0  0  0
  -24.0455   -9.7093   20.0924 C   0  0  0  0  0  0  0  0  0  0  0  0
  -27.0975  -32.3922   27.5506 C   0  0  0  0  0  0  0  0  0  0  0  0
  -27.1550  -30.2783   25.7410 C   0  0  0  0  0  0  0  0  0  0  0  0
  -27.4532  -29.4948   20.7468 C   0  0  0  0  0  0  0  0  0  0  0  0
  -22.4186   -9.1025   22.2760 C   0  0  0  0  0  0  0  0  0  0  0  0
  -23.2983   -8.5315   20.0995 C   0  0  0  0  0  0  0  0  0  0  0  0
  -28.1109  -28.3414   20.3214 C   0  0  0  0  0  0  0  0  0  0  0  0
  -20.5574   -6.0711   23.0252 C   0  0  0  0  0  0  0  0  0  0  0  0
  -20.5561   -5.3108   24.1947 C   0  0  0  0  0  0  0  0  0  0  0  0
  -25.9819  -27.2565   19.9909 C   0  0  0  0  0  0  0  0  0  0  0  0
  -28.9761  -20.3251   18.8963 C   0  0  0  0  0  0  0  0  0  0  0  0
  -22.9529   -5.0544   24.0305 C   0  0  0  0  0  0  0  0  0  0  0  0
  -23.9792  -10.5838   21.1772 C   0  0  0  0  0  0  0  0  0  0  0  0
  -26.0613  -11.9794   21.6515 C   0  0  0  0  0  0  0  0  0  0  0  0
  -25.8924  -31.9157   27.0107 C   0  0  0  0  0  0  0  0  0  0  0  0
  -26.0528  -29.5340   20.8079 C   0  0  0  0  0  0  0  0  0  0  0  0
  -25.9187  -30.8397   26.1031 C   0  0  0  0  0  0  0  0  0  0  0  0
  -25.3088  -28.4124   20.4150 C   0  0  0  0  0  0  0  0  0  0  0  0
  -29.2075  -18.9276   18.7425 C   0  0  0  0  0  0  0  0  0  0  0  0
  -22.4849   -8.2281   21.1913 C   0  0  0  0  0  0  0  0  0  0  0  0
  -27.3754  -27.2211   19.9461 C   0  0  0  0  0  0  0  0  0  0  0  0
  -21.7564   -6.3230   22.3584 C   0  0  0  0  0  0  0  0  0  0  0  0
  -21.7539   -4.8025   24.6973 C   0  0  0  0  0  0  0  0  0  0  0  0
  -22.9541   -5.8147   22.8611 C   0  0  0  0  0  0  0  0  0  0  0  0
  -24.7509  -11.8005   21.1691 C   0  0  0  0  0  0  0  0  0  0  0  0
  -26.3366  -13.3039   21.4144 C   0  0  0  0  0  0  0  0  0  0  0  0
  -29.6126  -20.8360   20.0060 C   0  0  0  0  0  0  0  0  0  0  0  0
  -30.0123  -18.4236   19.7406 C   0  0  0  0  0  0  0  0  0  0  0  0
  -26.9501  -11.0328   22.2595 C   0  0  0  0  0  0  0  0  0  0  0  0
  -23.9193  -29.9393   23.1291 C   0  0  0  0  0  0  0  0  0  0  0  0
  -21.8143  -29.9474   20.6611 C   0  0  0  0  0  0  0  0  0  0  0  0
  -29.0211  -23.2851   20.0220 C   0  0  0  0  0  0  0  0  0  0  0  0
  -21.1064  -29.0206   17.4538 C   0  0  0  0  0  0  0  0  0  0  0  0
  -26.2235  -17.7770   18.0790 C   0  0  0  0  0  0  0  0  0  0  0  0
  -24.5958  -32.5307   27.4747 C   0  0  0  0  0  0  0  0  0  0  0  0
  -25.3577  -30.7948   21.2436 C   0  0  0  0  0  0  0  0  0  0  0  0
  -23.8029  -28.4101   20.4431 C   0  0  0  0  0  0  0  0  0  0  0  0
  -23.4083  -32.2001   26.5743 C   0  0  0  0  0  0  0  0  0  0  0  0
  -23.3025  -17.0950   19.9971 C   0  0  0  0  0  0  0  0  0  0  0  0
  -23.3870  -30.7110   26.2441 C   0  0  0  0  0  0  0  0  0  0  0  0
  -23.5243  -15.6700   20.5072 C   0  0  0  0  0  0  0  0  0  0  0  0
  -23.8497  -17.2800   18.5835 C   0  0  0  0  0  0  0  0  0  0  0  0
  -25.4836  -15.4659   18.9203 C   0  0  0  0  0  0  0  0  0  0  0  0
  -24.6507  -30.2972   25.4802 C   0  0  1  0  0  0  0  0  0  0  0  0
  -23.9419  -30.5498   21.7564 C   0  0  1  0  0  0  0  0  0  0  0  0
  -24.9984  -15.2460   20.3634 C   0  0  2  0  0  0  0  0  0  0  0  0
  -19.2917  -29.1374   15.7245 C   0  0  0  0  0  0  0  0  0  0  0  0
  -30.3489  -25.8655   18.9665 C   0  0  0  0  0  0  0  0  0  0  0  0
  -20.2804  -27.7540   22.1260 C   0  0  0  0  0  0  0  0  0  0  0  0
  -19.0796  -27.2605   19.9852 C   0  0  0  0  0  0  0  0  0  0  0  0
  -18.8413  -29.4992   21.0595 C   0  0  0  0  0  0  0  0  0  0  0  0
  -22.8218  -30.5504   15.5894 C   0  0  0  0  0  0  0  0  0  0  0  0
  -28.6393  -18.1264   17.6305 C   0  0  0  0  0  0  0  0  0  0  0  0
  -21.0201  -28.8922   19.9298 C   0  0  1  0  0  0  0  0  0  0  0  0
  -29.3178  -24.5229   20.8841 C   0  0  1  0  0  0  0  0  0  0  0  0
  -20.5415  -29.8015   16.2810 C   0  0  2  0  0  0  0  0  0  0  0  0
  -29.3072  -25.8406   20.0807 C   0  0  2  0  0  0  0  0  0  1  0  0
  -19.8338  -28.3505   20.7763 C   0  0  0  0  0  0  0  0  0  0  0  0
  -28.3209  -24.5596   22.0400 C   0  0  0  0  0  0  0  0  0  0  0  0
  -24.2299  -12.9218   20.6638 N   0  0  0  0  0  0  0  0  0  0  0  0
  -25.2179  -13.8180   20.8276 N   0  0  0  0  0  0  0  0  0  0  0  0
  -23.1695  -29.6645   20.8825 N   0  0  0  0  0  0  0  0  0  0  0  0
  -25.2519  -16.8613   18.5154 N   0  0  0  0  0  0  0  0  0  0  0  0
  -27.4241  -14.0674   21.6528 N   0  0  0  0  0  0  0  0  0  0  0  0
  -30.4223  -17.1378   19.8867 N   0  0  0  0  0  0  0  0  0  0  0  0
  -26.5079   -9.7136   22.4277 N   0  0  0  0  0  0  0  0  0  0  0  0
  -29.6523  -22.1513   20.5269 N   0  0  0  0  0  0  0  0  0  0  0  0
  -24.5564  -30.6976   24.0927 N   0  0  0  0  0  0  0  0  0  0  0  0
  -20.6241  -29.4876   18.6582 N   0  0  0  0  0  0  0  0  0  0  0  0
  -27.5287  -17.3011   18.0503 N   0  0  0  0  0  0  0  0  0  0  0  0
  -21.5500  -29.8961   15.1878 N   0  3  0  0  0  0  0  0  0  0  0  0
  -28.0963  -11.3515   22.6573 O   0  0  0  0  0  0  0  0  0  0  0  0
  -23.3637  -28.8607   23.3015 O   0  0  0  0  0  0  0  0  0  0  0  0
  -21.2545  -30.9877   21.0163 O   0  0  0  0  0  0  0  0  0  0  0  0
  -28.2852  -23.3415   19.0412 O   0  0  0  0  0  0  0  0  0  0  0  0
  -21.8937  -28.0871   17.3152 O   0  0  0  0  0  0  0  0  0  0  0  0
  -25.9490  -18.9346   17.7452 O   0  0  0  0  0  0  0  0  0  0  0  0
  -21.7561   -7.0786   21.1979 O   0  0  0  0  0  0  0  0  0  0  0  0
  -28.0149  -26.0938   19.5311 O   0  0  0  0  0  0  0  0  0  1  0  0
  -21.7527   -4.0738   25.8212 F   0  0  0  0  0  0  0  0  0  0  0  0
  -24.1093   -6.0543   22.2255 F   0  0  0  0  0  0  0  0  0  0  0  0
  -28.5735  -25.5912   22.8763 F   0  0  0  0  0  0  0  0  0  0  0  0
  -27.0589  -24.7209   21.5813 F   0  0  0  0  0  0  0  0  0  0  0  0
  -28.3493  -23.4246   22.7704 F   0  0  0  0  0  0  0  0  0  0  0  0
  -30.4850  -19.6330   20.8569 S   0  0  0  0  0  0  0  0  0  0  0  0
  1  2  1  0  0  0  0
  1  5  2  0  0  0  0
  2  6  2  0  0  0  0
  3  8  2  0  0  0  0
  3 16  1  0  0  0  0
  4  9  1  0  0  0  0
  4 16  2  0  0  0  0
  5 18  1  0  0  0  0
  6 20  1  0  0  0  0
  7 10  2  0  0  0  0
  7 19  1  0  0  0  0
  8 23  1  0  0  0  0
  9 23  2  0  0  0  0
 10 24  1  0  0  0  0
 11 12  2  0  0  0  0
 11 25  1  0  0  0  0
 12 26  1  0  0  0  0
 13 21  1  0  0  0  0
 13 24  2  0  0  0  0
 14 22  1  0  0  0  0
 14 30  2  0  0  0  0
 15 26  2  0  0  0  0
 15 27  1  0  0  0  0
 16 28  1  0  0  0  0
 17 28  1  0  0  0  0
 17 29  2  0  0  0  0
 17 32  1  0  0  0  0
 18 20  2  0  0  0  0
 18 38  1  0  0  0  0
 19 21  2  0  0  0  0
 19 39  1  0  0  0  0
 20 47  1  0  0  0  0
 21 40  1  0  0  0  0
 22 31  2  0  0  0  0
 22 56  1  0  0  0  0
 23 81  1  0  0  0  0
 24 82  1  0  0  0  0
 25 27  2  0  0  0  0
 25 81  1  0  0  0  0
 26 83  1  0  0  0  0
 27 84  1  0  0  0  0
 28 63  2  0  0  0  0
 29 64  1  0  0  0  0
 29 67  1  0  0  0  0
 30 70  1  0  0  0  0
 30 88  1  0  0  0  0
 31 68  1  0  0  0  0
 31 88  1  0  0  0  0
 32 69  1  0  0  0  0
 32 75  2  0  0  0  0
 33 48  1  0  0  0  0
 33 71  1  0  0  0  0
 33 76  2  0  0  0  0
 34 57  1  0  0  0  0
 34 65  1  0  0  0  0
 34 77  2  0  0  0  0
 35 58  1  0  0  0  0
 35 70  1  0  0  0  0
 35 78  2  0  0  0  0
 36 59  1  0  0  0  0
 36 72  1  0  0  0  0
 36 79  2  0  0  0  0
 37 66  1  0  0  0  0
 37 73  1  0  0  0  0
 37 80  2  0  0  0  0
 38 41  1  0  0  0  0
 39 48  1  0  0  0  0
 40 65  1  0  0  0  0
 41 43  1  0  0  0  0
 42 44  1  0  0  0  0
 42 45  1  0  0  0  0
 43 47  1  0  0  0  0
 44 49  1  0  0  0  0
 45 66  1  0  0  0  0
 46 49  1  0  0  0  0
 46 66  1  0  0  0  0
 47 71  1  0  0  0  0
 48 65  1  0  0  0  0
 49 64  1  0  0  0  0
 50 59  1  0  0  0  0
 51 60  1  0  0  0  0
 52 61  1  0  0  0  0
 53 61  1  0  0  0  0
 54 61  1  0  0  0  0
 55 74  1  0  0  0  0
 56 73  1  0  0  0  0
 57 61  1  0  0  0  0
 57 72  1  0  0  0  0
 58 60  1  0  0  0  0
 58 62  1  0  0  0  0
 59 74  1  0  0  0  0
 60 82  1  0  0  0  0
 62 85  1  0  0  0  0
 62 86  1  0  0  0  0
 62 87  1  0  0  0  0
 63 64  1  0  0  0  0
M  CHG  1  74   1
M  ISO  4  37 100  60 101  73 100  82 101
M  END
> <Batch ID>
0186

> <Smiles>
CNC(C)C(=O)NC(C(=O)N1Cc2cc([101O:1][101CH:1](C)C(C(=O)Nc3cc(C[100NH:0][100C:0](=O)N4CCCC(n5nc(-c6ccc(Oc7ccc(F)cc7F)cc6)c(C(N)=O)c5N)C4)c(N)s3)C(F)(F)F)ccc2CC1C(=O)NC1CCCc2ccccc21)C(C)(C)C

> <Shape>
0.321

> <Color>
0.150

> <Negative vol penalty>
0.000

$$$$

  -OEChem-04052305093D

 81 89  0     1  0  0  0  0  0999 V2000
  -33.3367  -23.1744   24.7178 C   0  0  0  0  0  0  0  0  0  0  0  0
  -32.1371  -23.6476   24.1957 C   0  0  0  0  0  0  0  0  0  0  0  0
  -24.6348  -29.1779   22.0416 C   0  0  0  0  0  0  0  0  0  0  0  0
  -25.4245  -31.1089   20.8231 C   0  0  0  0  0  0  0  0  0  0  0  0
  -33.9096  -22.0124   24.2028 C   0  0  0  0  0  0  0  0  0  0  0  0
  -31.5103  -22.9594   23.1575 C   0  0  0  0  0  0  0  0  0  0  0  0
  -24.9924  -21.4184   20.6161 C   0  0  0  0  0  0  0  0  0  0  0  0
  -24.0298  -30.0162   22.9779 C   0  0  0  0  0  0  0  0  0  0  0  0
  -24.8194  -31.9472   21.7594 C   0  0  0  0  0  0  0  0  0  0  0  0
  -24.2536  -21.4834   19.4356 C   0  0  0  0  0  0  0  0  0  0  0  0
  -22.5819  -31.6492   25.8867 C   0  0  0  0  0  0  0  0  0  0  0  0
  -22.7465  -31.3412   27.2371 C   0  0  0  0  0  0  0  0  0  0  0  0
  -25.2951  -19.4434   18.6785 C   0  0  0  0  0  0  0  0  0  0  0  0
  -25.1404  -31.5606   26.9954 C   0  0  0  0  0  0  0  0  0  0  0  0
  -27.8461  -20.4735   15.9543 C   0  0  0  0  0  0  0  0  0  0  0  0
  -25.3323  -29.7242   20.9642 C   0  0  0  0  0  0  0  0  0  0  0  0
  -25.3852  -28.3485   18.8166 C   0  0  0  0  0  0  0  0  0  0  0  0
  -33.2846  -21.3043   23.1642 C   0  0  0  0  0  0  0  0  0  0  0  0
  -25.8977  -20.3695   20.8324 C   0  0  0  0  0  0  0  0  0  0  0  0
  -32.0760  -21.7875   22.6272 C   0  0  0  0  0  0  0  0  0  0  0  0
  -26.0423  -19.3660   19.8637 C   0  0  0  0  0  0  0  0  0  0  0  0
  -24.1220  -31.4008   22.8368 C   0  0  0  0  0  0  0  0  0  0  0  0
  -24.4070  -20.4974   18.4653 C   0  0  0  0  0  0  0  0  0  0  0  0
  -23.6966  -31.9128   25.0905 C   0  0  0  0  0  0  0  0  0  0  0  0
  -24.0257  -31.2970   27.7915 C   0  0  0  0  0  0  0  0  0  0  0  0
  -24.9758  -31.8685   25.6449 C   0  0  0  0  0  0  0  0  0  0  0  0
  -25.9580  -28.8588   19.9969 C   0  0  0  0  0  0  0  0  0  0  0  0
  -28.1253  -21.5656   16.7489 C   0  0  0  0  0  0  0  0  0  0  0  0
  -26.3801  -27.5872   18.2534 C   0  0  0  0  0  0  0  0  0  0  0  0
  -25.7945  -21.1766   16.2812 C   0  0  0  0  0  0  0  0  0  0  0  0
  -24.0713  -28.5450   18.2774 C   0  0  0  0  0  0  0  0  0  0  0  0
  -29.4288  -22.0928   17.2283 C   0  0  0  0  0  0  0  0  0  0  0  0
  -29.0390  -20.1734   21.2766 C   0  0  0  0  0  0  0  0  0  0  0  0
  -28.3752  -17.0436   21.8111 C   0  0  0  0  0  0  0  0  0  0  0  0
  -26.2718  -14.4023   21.3151 C   0  0  0  0  0  0  0  0  0  0  0  0
  -30.4636  -23.8602   18.6173 C   0  0  0  0  0  0  0  0  0  0  0  0
  -33.9660  -20.0792   22.6081 C   0  0  0  0  0  0  0  0  0  0  0  0
  -26.6674  -20.2993   22.1227 C   0  0  0  0  0  0  0  0  0  0  0  0
  -26.9860  -18.2081   20.0563 C   0  0  0  0  0  0  0  0  0  0  0  0
  -33.0470  -19.2025   21.7613 C   0  0  0  0  0  0  0  0  0  0  0  0
  -31.2950  -27.2022   19.4149 C   0  0  0  0  0  0  0  0  0  0  0  0
  -32.2515  -20.0561   20.7787 C   0  0  0  0  0  0  0  0  0  0  0  0
  -29.9344  -27.8944   19.5333 C   0  0  0  0  0  0  0  0  0  0  0  0
  -31.2580  -25.7793   19.9706 C   0  0  0  0  0  0  0  0  0  0  0  0
  -28.8385  -25.6178   19.5486 C   0  0  0  0  0  0  0  0  0  0  0  0
  -31.3531  -21.0553   21.5175 C   0  0  1  0  0  0  0  0  0  0  0  0
  -27.9394  -19.4639   22.0150 C   0  0  1  0  0  0  0  0  0  0  0  0
  -28.8056  -27.0285   18.9387 C   0  0  1  0  0  0  0  0  0  0  0  0
  -26.0145  -11.9627   21.8438 C   0  0  0  0  0  0  0  0  0  0  0  0
  -23.8065  -22.7241   16.3296 C   0  0  0  0  0  0  0  0  0  0  0  0
  -23.7323  -20.6226   14.9345 C   0  0  0  0  0  0  0  0  0  0  0  0
  -30.4726  -16.3675   19.7007 C   0  0  0  0  0  0  0  0  0  0  0  0
  -29.5143  -14.0573   19.5887 C   0  0  0  0  0  0  0  0  0  0  0  0
  -30.5096  -14.8909   21.7188 C   0  0  0  0  0  0  0  0  0  0  0  0
  -23.7473  -14.8687   22.7877 C   0  0  0  0  0  0  0  0  0  0  0  0
  -28.2829  -15.8079   20.9488 C   0  0  1  0  0  0  0  0  0  0  0  0
  -25.6898  -13.3834   22.2783 C   0  0  2  0  0  0  0  0  0  0  0  0
  -24.2718  -21.2662   16.2188 C   0  0  0  0  0  0  0  0  0  1  0  0
  -29.6784  -15.3036   20.4845 C   0  0  0  0  0  0  0  0  0  0  0  0
  -26.5101  -20.2486   15.6853 N   0  0  0  0  0  0  0  0  0  0  0  0
  -27.2190  -28.4556   20.1742 N   0  0  0  0  0  0  0  0  0  0  0  0
  -27.4467  -27.6838   19.0979 N   0  0  0  0  0  0  0  0  0  0  0  0
  -27.7210  -18.1873   21.3318 N   0  0  0  0  0  0  0  0  0  0  0  0
  -30.1687  -25.0228   19.3505 N   0  0  0  0  0  0  0  0  0  0  0  0
  -26.4378  -26.8513   17.1231 N   0  0  0  0  0  0  0  0  0  0  0  0
  -23.1737  -29.3571   18.9841 N   0  0  0  0  0  0  0  0  0  0  0  0
  -29.3596  -23.2334   18.0286 N   0  0  0  0  0  0  0  0  0  0  0  0
  -30.1751  -20.3909   22.0326 N   0  0  0  0  0  0  0  0  0  0  0  0
  -27.5194  -14.8303   21.7169 N   0  0  0  0  0  0  0  0  0  0  0  0
  -24.2080  -13.5259   22.3500 N   0  3  0  0  0  0  0  0  0  0  0  0
  -23.6986  -28.0030   17.2093 O   0  0  0  0  0  0  0  0  0  0  0  0
  -30.4600  -21.4930   16.9370 O   0  0  0  0  0  0  0  0  0  0  0  0
  -28.8698  -20.4982   20.1072 O   0  0  0  0  0  0  0  0  0  0  0  0
  -28.9986  -16.9939   22.8744 O   0  0  0  0  0  0  0  0  0  0  0  0
  -25.6805  -14.7779   20.3053 O   0  0  0  0  0  0  0  0  0  0  0  0
  -31.6143  -23.4376   18.4673 O   0  0  0  0  0  0  0  0  0  0  0  0
  -23.5315  -32.2191   23.7502 O   0  0  0  0  0  0  0  0  0  0  0  0
  -23.6875  -20.5588   17.3118 O   0  0  0  0  0  0  0  0  0  1  0  0
  -24.1835  -31.0028   29.0886 F   0  0  0  0  0  0  0  0  0  0  0  0
  -26.0503  -32.1220   24.8854 F   0  0  0  0  0  0  0  0  0  0  0  0
  -26.6634  -22.3513   17.1812 S   0  0  0  0  0  0  0  0  0  0  0  0
  1  2  1  0  0  0  0
  1  5  2  0  0  0  0
  2  6  2  0  0  0  0
  3  8  2  0  0  0  0
  3 16  1  0  0  0  0
  4  9  1  0  0  0  0
  4 16  2  0  0  0  0
  5 18  1  0  0  0  0
  6 20  1  0  0  0  0
  7 10  2  0  0  0  0
  7 19  1  0  0  0  0
  8 22  1  0  0  0  0
  9 22  2  0  0  0  0
 10 23  1  0  0  0  0
 11 12  2  0  0  0  0
 11 24  1  0  0  0  0
 12 25  1  0  0  0  0
 13 21  1  0  0  0  0
 13 23  2  0  0  0  0
 14 25  2  0  0  0  0
 14 26  1  0  0  0  0
 15 28  2  0  0  0  0
 15 60  1  0  0  0  0
 16 27  1  0  0  0  0
 17 27  1  0  0  0  0
 17 29  2  0  0  0  0
 17 31  1  0  0  0  0
 18 20  2  0  0  0  0
 18 37  1  0  0  0  0
 19 21  2  0  0  0  0
 19 38  1  0  0  0  0
 20 46  1  0  0  0  0
 21 39  1  0  0  0  0
 22 77  1  0  0  0  0
 23 78  1  0  0  0  0
 24 26  2  0  0  0  0
 24 77  1  0  0  0  0
 25 79  1  0  0  0  0
 26 80  1  0  0  0  0
 27 61  2  0  0  0  0
 28 32  1  0  0  0  0
 28 81  1  0  0  0  0
 29 62  1  0  0  0  0
 29 65  1  0  0  0  0
 30 58  1  0  0  0  0
 30 60  2  0  0  0  0
 30 81  1  0  0  0  0
 31 66  1  0  0  0  0
 31 71  2  0  0  0  0
 32 67  1  0  0  0  0
 32 72  2  0  0  0  0
 33 47  1  0  0  0  0
 33 68  1  0  0  0  0
 33 73  2  0  0  0  0
 34 56  1  0  0  0  0
 34 63  1  0  0  0  0
 34 74  2  0  0  0  0
 35 57  1  0  0  0  0
 35 69  1  0  0  0  0
 35 75  2  0  0  0  0
 36 64  1  0  0  0  0
 36 67  1  0  0  0  0
 36 76  2  0  0  0  0
 37 40  1  0  0  0  0
 38 47  1  0  0  0  0
 39 63  1  0  0  0  0
 40 42  1  0  0  0  0
 41 43  1  0  0  0  0
 41 44  1  0  0  0  0
 42 46  1  0  0  0  0
 43 48  1  0  0  0  0
 44 64  1  0  0  0  0
 45 48  1  0  0  0  0
 45 64  1  0  0  0  0
 46 68  1  0  0  0  0
 47 63  1  0  0  0  0
 48 62  1  0  0  0  0
 49 57  1  0  0  0  0
 50 58  1  0  0  0  0
 51 58  1  0  0  0  0
 52 59  1  0  0  0  0
 53 59  1  0  0  0  0
 54 59  1  0  0  0  0
 55 70  1  0  0  0  0
 56 59  1  0  0  0  0
 56 69  1  0  0  0  0
 57 70  1  0  0  0  0
 58 78  1  0  0  0  0
 61 62  1  0  0  0  0
M  CHG  1  70   1
M  ISO  4  36 100  58 101  67 100  78 101
M  END
> <Batch ID>
0186

> <Smiles>
CNC(C)C(=O)NC(C(=O)N1Cc2cc([101O:1][101C:1](C)(C)c3ncc(C(=O)[100NH:0][100C:0](=O)N4CCCC(n5nc(-c6ccc(Oc7ccc(F)cc7F)cc6)c(C(N)=O)c5N)C4)s3)ccc2CC1C(=O)NC1CCCc2ccccc21)C(C)(C)C

> <Shape>
0.202

> <Color>
0.062

> <Negative vol penalty>
0.000

$$$$

  -OEChem-04052305093D

 87 95  0     1  0  0  0  0  0999 V2000
  -28.4132  -31.7050   23.6357 C   0  0  0  0  0  0  0  0  0  0  0  0
  -27.9434  -30.4325   23.9448 C   0  0  0  0  0  0  0  0  0  0  0  0
  -23.1334   -9.8799   19.9035 C   0  0  0  0  0  0  0  0  0  0  0  0
  -23.8953   -9.8703   22.1962 C   0  0  0  0  0  0  0  0  0  0  0  0
  -28.8570  -31.9885   22.3447 C   0  0  0  0  0  0  0  0  0  0  0  0
  -27.9161  -29.4431   22.9626 C   0  0  0  0  0  0  0  0  0  0  0  0
  -29.6649  -24.9952   24.6370 C   0  0  0  0  0  0  0  0  0  0  0  0
  -22.4270   -8.6994   20.1333 C   0  0  0  0  0  0  0  0  0  0  0  0
  -23.1889   -8.6897   22.4260 C   0  0  0  0  0  0  0  0  0  0  0  0
  -28.8059  -24.2285   25.4231 C   0  0  0  0  0  0  0  0  0  0  0  0
  -19.9886   -7.7786   23.0161 C   0  0  0  0  0  0  0  0  0  0  0  0
  -19.2346   -7.6937   24.1865 C   0  0  0  0  0  0  0  0  0  0  0  0
  -28.2665  -22.8735   23.5016 C   0  0  0  0  0  0  0  0  0  0  0  0
  -20.5381   -5.7841   24.8875 C   0  0  0  0  0  0  0  0  0  0  0  0
  -23.8676  -10.4654   20.9349 C   0  0  0  0  0  0  0  0  0  0  0  0
  -24.1286  -13.0019   20.8598 C   0  0  0  0  0  0  0  0  0  0  0  0
  -28.8442  -30.9992   21.3488 C   0  0  0  0  0  0  0  0  0  0  0  0
  -29.8231  -24.7132   23.2725 C   0  0  0  0  0  0  0  0  0  0  0  0
  -28.3589  -29.7139   21.6568 C   0  0  0  0  0  0  0  0  0  0  0  0
  -29.1300  -23.6366   22.7009 C   0  0  0  0  0  0  0  0  0  0  0  0
  -22.4547   -8.1043   21.3945 C   0  0  0  0  0  0  0  0  0  0  0  0
  -28.1043  -23.1693   24.8548 C   0  0  0  0  0  0  0  0  0  0  0  0
  -21.0172   -6.8662   22.7813 C   0  0  0  0  0  0  0  0  0  0  0  0
  -19.5094   -6.6965   25.1223 C   0  0  0  0  0  0  0  0  0  0  0  0
  -21.2920   -5.8690   23.7170 C   0  0  0  0  0  0  0  0  0  0  0  0
  -24.5980  -11.6846   20.6980 C   0  0  0  0  0  0  0  0  0  0  0  0
  -30.4334  -17.1411   24.5686 C   0  0  0  0  0  0  0  0  0  0  0  0
  -30.1537  -17.5913   23.2954 C   0  0  0  0  0  0  0  0  0  0  0  0
  -25.1958  -13.7922   20.5093 C   0  0  0  0  0  0  0  0  0  0  0  0
  -29.0581  -18.7682   25.0891 C   0  0  0  0  0  0  0  0  0  0  0  0
  -22.8428  -13.4694   21.2886 C   0  0  0  0  0  0  0  0  0  0  0  0
  -29.2656  -26.2993   20.5748 C   0  0  0  0  0  0  0  0  0  0  0  0
  -30.7195  -23.7336   19.2234 C   0  0  0  0  0  0  0  0  0  0  0  0
  -28.0627  -19.7993   27.1612 C   0  0  0  0  0  0  0  0  0  0  0  0
  -31.5759  -20.4377   19.4478 C   0  0  0  0  0  0  0  0  0  0  0  0
  -30.6445  -14.9823   20.7126 C   0  0  0  0  0  0  0  0  0  0  0  0
  -29.2897  -31.3661   19.9554 C   0  0  0  0  0  0  0  0  0  0  0  0
  -30.7739  -25.5330   22.4441 C   0  0  0  0  0  0  0  0  0  0  0  0
  -29.2802  -23.2799   21.2453 C   0  0  0  0  0  0  0  0  0  0  0  0
  -29.5783  -30.1566   19.0699 C   0  0  0  0  0  0  0  0  0  0  0  0
  -29.5808  -12.6056   18.2843 C   0  0  0  0  0  0  0  0  0  0  0  0
  -28.4574  -29.1288   19.1882 C   0  0  0  0  0  0  0  0  0  0  0  0
  -28.1540  -12.2585   18.7128 C   0  0  0  0  0  0  0  0  0  0  0  0
  -30.4918  -12.8342   19.4884 C   0  0  0  0  0  0  0  0  0  0  0  0
  -28.5693  -13.4793   20.8890 C   0  0  0  0  0  0  0  0  0  0  0  0
  -28.3368  -28.6070   20.6251 C   0  0  1  0  0  0  0  0  0  0  0  0
  -30.4660  -25.4775   20.9509 C   0  0  1  0  0  0  0  0  0  0  0  0
  -27.5998  -13.2948   19.7090 C   0  0  2  0  0  0  0  0  0  0  0  0
  -26.8891  -20.9794   29.0263 C   0  0  0  0  0  0  0  0  0  0  0  0
  -32.7280  -18.6104   18.1706 C   0  0  0  0  0  0  0  0  0  0  0  0
  -28.2735  -23.4546   17.4208 C   0  0  0  0  0  0  0  0  0  0  0  0
  -29.0335  -21.1345   16.8662 C   0  0  0  0  0  0  0  0  0  0  0  0
  -30.4641  -23.0894   16.2708 C   0  0  0  0  0  0  0  0  0  0  0  0
  -33.6254  -20.0980   21.5556 C   0  0  0  0  0  0  0  0  0  0  0  0
  -30.6431  -17.1115   21.9877 C   0  0  0  0  0  0  0  0  0  0  0  0
  -27.5912  -22.2859   27.0025 C   0  0  0  0  0  0  0  0  0  1  0  0
  -30.2558  -22.3982   18.6938 C   0  0  1  0  0  0  0  0  0  0  0  0
  -27.0888  -20.9328   27.5119 C   0  0  1  0  0  0  0  0  0  0  0  0
  -32.8897  -19.7192   19.1989 C   0  0  2  0  0  0  0  0  0  0  0  0
  -31.3305  -16.0205   24.9172 C   0  0  0  0  0  0  0  0  0  0  0  0
  -29.5022  -22.5269   17.3399 C   0  0  0  0  0  0  0  0  0  0  0  0
  -25.8648  -11.6367   20.2774 N   0  0  0  0  0  0  0  0  0  0  0  0
  -29.8064  -17.8150   25.5984 N   0  0  0  0  0  0  0  0  0  0  0  0
  -26.2004  -12.9337   20.1718 N   0  0  0  0  0  0  0  0  0  0  0  0
  -30.2168  -24.1151   20.4755 N   0  0  0  0  0  0  0  0  0  0  0  0
  -29.9097  -13.8287   20.3930 N   0  0  0  0  0  0  0  0  0  0  0  0
  -25.3636  -15.1308   20.4600 N   0  0  0  0  0  0  0  0  0  0  0  0
  -21.8608  -12.5225   21.6102 N   0  0  0  0  0  0  0  0  0  0  0  0
  -28.2459  -19.6952   25.7848 N   0  0  0  0  0  0  0  0  0  0  0  0
  -29.3759  -27.6378   20.8998 N   0  0  0  0  0  0  0  0  0  0  0  0
  -31.4395  -21.5470   18.6402 N   0  0  0  0  0  0  0  0  0  0  0  0
  -30.0170  -15.8764   21.5714 N   0  0  0  0  0  0  0  0  0  0  0  0
  -33.3983  -19.1167   20.4636 N   0  3  0  0  0  0  0  0  0  0  0  0
  -22.5674  -14.6906   21.3680 O   0  0  0  0  0  0  0  0  0  0  0  0
  -28.3107  -25.7592   20.0288 O   0  0  0  0  0  0  0  0  0  0  0  0
  -31.5045  -24.4101   18.5543 O   0  0  0  0  0  0  0  0  0  0  0  0
  -28.5769  -19.0997   28.0290 O   0  0  0  0  0  0  0  0  0  0  0  0
  -30.7513  -20.0513   20.2731 O   0  0  0  0  0  0  0  0  0  0  0  0
  -31.7737  -15.2020   20.2615 O   0  0  0  0  0  0  0  0  0  0  0  0
  -21.7653   -6.9524   21.6191 O   0  0  0  0  0  0  0  0  0  0  0  0
  -27.2648  -22.4197   25.6198 O   0  0  0  0  0  0  0  0  0  1  0  0
  -18.7863   -6.6160   26.2469 F   0  0  0  0  0  0  0  0  0  0  0  0
  -22.2797   -4.9904   23.4976 F   0  0  0  0  0  0  0  0  0  0  0  0
  -31.9111  -15.4083   23.8356 F   0  0  0  0  0  0  0  0  0  0  0  0
  -32.3862  -16.3752   25.7180 F   0  0  0  0  0  0  0  0  0  0  0  0
  -30.6960  -15.0124   25.5950 F   0  0  0  0  0  0  0  0  0  0  0  0
  -29.0608  -18.9105   23.3789 S   0  0  0  0  0  0  0  0  0  0  0  0
  1  2  1  0  0  0  0
  1  5  2  0  0  0  0
  2  6  2  0  0  0  0
  3  8  2  0  0  0  0
  3 15  1  0  0  0  0
  4  9  1  0  0  0  0
  4 15  2  0  0  0  0
  5 17  1  0  0  0  0
  6 19  1  0  0  0  0
  7 10  2  0  0  0  0
  7 18  1  0  0  0  0
  8 21  1  0  0  0  0
  9 21  2  0  0  0  0
 10 22  1  0  0  0  0
 11 12  2  0  0  0  0
 11 23  1  0  0  0  0
 12 24  1  0  0  0  0
 13 20  1  0  0  0  0
 13 22  2  0  0  0  0
 14 24  2  0  0  0  0
 14 25  1  0  0  0  0
 15 26  1  0  0  0  0
 16 26  1  0  0  0  0
 16 29  2  0  0  0  0
 16 31  1  0  0  0  0
 17 19  2  0  0  0  0
 17 37  1  0  0  0  0
 18 20  2  0  0  0  0
 18 38  1  0  0  0  0
 19 46  1  0  0  0  0
 20 39  1  0  0  0  0
 21 80  1  0  0  0  0
 22 81  1  0  0  0  0
 23 25  2  0  0  0  0
 23 80  1  0  0  0  0
 24 82  1  0  0  0  0
 25 83  1  0  0  0  0
 26 62  2  0  0  0  0
 27 28  2  0  0  0  0
 27 60  1  0  0  0  0
 27 63  1  0  0  0  0
 28 55  1  0  0  0  0
 28 87  1  0  0  0  0
 29 64  1  0  0  0  0
 29 67  1  0  0  0  0
 30 63  2  0  0  0  0
 30 69  1  0  0  0  0
 30 87  1  0  0  0  0
 31 68  1  0  0  0  0
 31 74  2  0  0  0  0
 32 47  1  0  0  0  0
 32 70  1  0  0  0  0
 32 75  2  0  0  0  0
 33 57  1  0  0  0  0
 33 65  1  0  0  0  0
 33 76  2  0  0  0  0
 34 58  1  0  0  0  0
 34 69  1  0  0  0  0
 34 77  2  0  0  0  0
 35 59  1  0  0  0  0
 35 71  1  0  0  0  0
 35 78  2  0  0  0  0
 36 66  1  0  0  0  0
 36 72  1  0  0  0  0
 36 79  2  0  0  0  0
 37 40  1  0  0  0  0
 38 47  1  0  0  0  0
 39 65  1  0  0  0  0
 40 42  1  0  0  0  0
 41 43  1  0  0  0  0
 41 44  1  0  0  0  0
 42 46  1  0  0  0  0
 43 48  1  0  0  0  0
 44 66  1  0  0  0  0
 45 48  1  0  0  0  0
 45 66  1  0  0  0  0
 46 70  1  0  0  0  0
 47 65  1  0  0  0  0
 48 64  1  0  0  0  0
 49 58  1  0  0  0  0
 50 59  1  0  0  0  0
 51 61  1  0  0  0  0
 52 61  1  0  0  0  0
 53 61  1  0  0  0  0
 54 73  1  0  0  0  0
 55 72  1  0  0  0  0
 56 58  1  0  0  0  0
 56 81  1  0  0  0  0
 57 61  1  0  0  0  0
 57 71  1  0  0  0  0
 59 73  1  0  0  0  0
 60 84  1  0  0  0  0
 60 85  1  0  0  0  0
 60 86  1  0  0  0  0
 62 64  1  0  0  0  0
M  CHG  1  73   1
M  ISO  4  36 100  56 101  72 100  81 101
M  END
> <Batch ID>
0186

> <Smiles>
CNC(C)C(=O)NC(C(=O)N1Cc2cc([101O:1][101CH2:1]C(C)C(=O)Nc3nc(C(F)(F)F)c(C[100NH:0][100C:0](=O)N4CCCC(n5nc(-c6ccc(Oc7ccc(F)cc7F)cc6)c(C(N)=O)c5N)C4)s3)ccc2CC1C(=O)NC1CCCc2ccccc21)C(C)(C)C

> <Shape>
0.257

> <Color>
0.194

> <Negative vol penalty>
0.000

$$$$

  -OEChem-04052305093D

 84 92  0     1  0  0  0  0  0999 V2000
  -28.3850  -32.2015   26.9084 C   0  0  0  0  0  0  0  0  0  0  0  0
  -28.4324  -31.1415   26.0086 C   0  0  0  0  0  0  0  0  0  0  0  0
  -28.7173  -10.3999   20.9394 C   0  0  0  0  0  0  0  0  0  0  0  0
  -27.2341  -12.0626   20.0052 C   0  0  0  0  0  0  0  0  0  0  0  0
  -27.1548  -32.6688   27.3690 C   0  0  0  0  0  0  0  0  0  0  0  0
  -27.2497  -30.5475   25.5697 C   0  0  0  0  0  0  0  0  0  0  0  0
  -27.2213  -29.7370   20.5710 C   0  0  0  0  0  0  0  0  0  0  0  0
  -27.6994   -9.4493   20.8638 C   0  0  0  0  0  0  0  0  0  0  0  0
  -26.2161  -11.1119   19.9296 C   0  0  0  0  0  0  0  0  0  0  0  0
  -27.9393  -28.6386   20.0999 C   0  0  0  0  0  0  0  0  0  0  0  0
  -23.9982   -9.6642   22.0310 C   0  0  0  0  0  0  0  0  0  0  0  0
  -22.7267  -10.0404   22.4638 C   0  0  0  0  0  0  0  0  0  0  0  0
  -25.8907  -27.3745   19.9433 C   0  0  0  0  0  0  0  0  0  0  0  0
  -21.8438   -9.5917   20.2601 C   0  0  0  0  0  0  0  0  0  0  0  0
  -28.4847  -11.7066   20.5102 C   0  0  0  0  0  0  0  0  0  0  0  0
  -30.7930  -12.6412   19.9573 C   0  0  0  0  0  0  0  0  0  0  0  0
  -25.9559  -32.0866   26.9280 C   0  0  0  0  0  0  0  0  0  0  0  0
  -25.8317  -29.6587   20.7423 C   0  0  0  0  0  0  0  0  0  0  0  0
  -26.0023  -31.0066   26.0258 C   0  0  0  0  0  0  0  0  0  0  0  0
  -25.1571  -28.4741   20.4142 C   0  0  0  0  0  0  0  0  0  0  0  0
  -26.4488   -9.8053   20.3588 C   0  0  0  0  0  0  0  0  0  0  0  0
  -27.2744  -27.4562   19.7887 C   0  0  0  0  0  0  0  0  0  0  0  0
  -24.1926   -9.2518   20.7127 C   0  0  0  0  0  0  0  0  0  0  0  0
  -21.6495  -10.0041   21.5784 C   0  0  0  0  0  0  0  0  0  0  0  0
  -23.1153   -9.2155   19.8273 C   0  0  0  0  0  0  0  0  0  0  0  0
  -29.5357  -12.6891   20.5885 C   0  0  0  0  0  0  0  0  0  0  0  0
  -28.1983  -22.2819   19.2991 C   0  0  0  0  0  0  0  0  0  0  0  0
  -31.4167  -13.8016   20.3457 C   0  0  0  0  0  0  0  0  0  0  0  0
  -27.7696  -21.5830   18.1901 C   0  0  0  0  0  0  0  0  0  0  0  0
  -28.5310  -20.2460   20.0435 C   0  0  0  0  0  0  0  0  0  0  0  0
  -31.3476  -11.6375   19.0966 C   0  0  0  0  0  0  0  0  0  0  0  0
  -23.8599  -29.9082   23.2229 C   0  0  0  0  0  0  0  0  0  0  0  0
  -27.5659  -24.3267   21.6050 C   0  0  0  0  0  0  0  0  0  0  0  0
  -21.5750  -29.7117   20.9288 C   0  0  0  0  0  0  0  0  0  0  0  0
  -20.6994  -28.6932   17.7915 C   0  0  0  0  0  0  0  0  0  0  0  0
  -29.3825  -19.1278   22.1342 C   0  0  0  0  0  0  0  0  0  0  0  0
  -24.6521  -32.5951   27.4903 C   0  0  0  0  0  0  0  0  0  0  0  0
  -25.0684  -30.8611   21.2260 C   0  0  0  0  0  0  0  0  0  0  0  0
  -23.6637  -28.3452   20.5611 C   0  0  0  0  0  0  0  0  0  0  0  0
  -23.4301  -32.1556   26.6879 C   0  0  0  0  0  0  0  0  0  0  0  0
  -31.5487  -16.9582   23.9447 C   0  0  0  0  0  0  0  0  0  0  0  0
  -23.5096  -30.6665   26.3668 C   0  0  0  0  0  0  0  0  0  0  0  0
  -31.3974  -15.6144   23.2283 C   0  0  0  0  0  0  0  0  0  0  0  0
  -30.2272  -17.7226   24.0015 C   0  0  0  0  0  0  0  0  0  0  0  0
  -29.4073  -16.5599   21.9903 C   0  0  0  0  0  0  0  0  0  0  0  0
  -24.7401  -30.3524   25.5074 C   0  0  1  0  0  0  0  0  0  0  0  0
  -23.7230  -30.5034   21.8501 C   0  0  1  0  0  0  0  0  0  0  0  0
  -30.7263  -15.7824   21.8510 C   0  0  2  0  0  0  0  0  0  0  0  0
  -27.8732  -24.9692   22.9344 C   0  0  0  0  0  0  0  0  0  0  0  0
  -19.2753  -28.4272   15.7424 C   0  0  0  0  0  0  0  0  0  0  0  0
  -30.3394  -25.9911   19.4955 C   0  0  0  0  0  0  0  0  0  0  0  0
  -20.3523  -27.4130   22.5197 C   0  0  0  0  0  0  0  0  0  0  0  0
  -19.0339  -26.7965   20.4826 C   0  0  0  0  0  0  0  0  0  0  0  0
  -18.6911  -29.0189   21.5627 C   0  0  0  0  0  0  0  0  0  0  0  0
  -21.6957  -31.2259   16.6287 C   0  0  0  0  0  0  0  0  0  0  0  0
  -28.6536  -24.3985   20.5395 C   0  0  2  0  0  0  0  0  0  0  0  0
  -20.8185  -28.5853   20.2671 C   0  0  1  0  0  0  0  0  0  0  0  0
  -19.9801  -29.4108   16.6636 C   0  0  2  0  0  0  0  0  0  0  0  0
  -28.9856  -25.8526   20.1838 C   0  0  2  0  0  0  0  0  0  1  0  0
  -19.7524  -27.9549   21.2070 C   0  0  0  0  0  0  0  0  0  0  0  0
  -29.3689  -13.7925   21.3225 N   0  0  0  0  0  0  0  0  0  0  0  0
  -28.6349  -21.5169   20.3630 N   0  0  0  0  0  0  0  0  0  0  0  0
  -30.5297  -14.4487   21.1549 N   0  0  0  0  0  0  0  0  0  0  0  0
  -22.9625  -29.5465   21.0437 N   0  0  0  0  0  0  0  0  0  0  0  0
  -29.6521  -17.8467   22.6604 N   0  0  0  0  0  0  0  0  0  0  0  0
  -32.6319  -14.3214   20.0708 N   0  0  0  0  0  0  0  0  0  0  0  0
  -31.1363  -11.7504   17.7157 N   0  0  0  0  0  0  0  0  0  0  0  0
  -28.2037  -23.6630   19.3757 N   0  0  0  0  0  0  0  0  0  0  0  0
  -28.8675  -19.1222   20.8384 N   0  0  0  0  0  0  0  0  0  0  0  0
  -24.5038  -30.7281   24.1299 N   0  0  0  0  0  0  0  0  0  0  0  0
  -20.2749  -29.1311   19.0282 N   0  0  0  0  0  0  0  0  0  0  0  0
  -20.9480  -30.2029   15.8531 N   0  3  0  0  0  0  0  0  0  0  0  0
  -31.9970  -10.6603   19.5404 O   0  0  0  0  0  0  0  0  0  0  0  0
  -23.4131  -28.7886   23.4434 O   0  0  0  0  0  0  0  0  0  0  0  0
  -26.4741  -23.7942   21.4026 O   0  0  0  0  0  0  0  0  0  0  0  0
  -20.9584  -30.7049   21.3227 O   0  0  0  0  0  0  0  0  0  0  0  0
  -21.5498  -27.8280   17.5952 O   0  0  0  0  0  0  0  0  0  0  0  0
  -29.6185  -20.1554   22.7749 O   0  0  0  0  0  0  0  0  0  0  0  0
  -25.4553   -8.8779   20.2847 O   0  0  0  0  0  0  0  0  0  0  0  0
  -27.9728  -26.3824   19.3294 O   0  0  0  0  0  0  0  0  0  1  0  0
  -20.4283  -10.3640   21.9946 F   0  0  0  0  0  0  0  0  0  0  0  0
  -23.2956   -8.8191   18.5599 F   0  0  0  0  0  0  0  0  0  0  0  0
  -27.3096  -22.1264   17.0598 F   0  0  0  0  0  0  0  0  0  0  0  0
  -27.9164  -19.8989   18.4793 S   0  0  0  0  0  0  0  0  0  0  0  0
  1  2  1  0  0  0  0
  1  5  2  0  0  0  0
  2  6  2  0  0  0  0
  3  8  2  0  0  0  0
  3 15  1  0  0  0  0
  4  9  1  0  0  0  0
  4 15  2  0  0  0  0
  5 17  1  0  0  0  0
  6 19  1  0  0  0  0
  7 10  2  0  0  0  0
  7 18  1  0  0  0  0
  8 21  1  0  0  0  0
  9 21  2  0  0  0  0
 10 22  1  0  0  0  0
 11 12  2  0  0  0  0
 11 23  1  0  0  0  0
 12 24  1  0  0  0  0
 13 20  1  0  0  0  0
 13 22  2  0  0  0  0
 14 24  2  0  0  0  0
 14 25  1  0  0  0  0
 15 26  1  0  0  0  0
 16 26  1  0  0  0  0
 16 28  2  0  0  0  0
 16 31  1  0  0  0  0
 17 19  2  0  0  0  0
 17 37  1  0  0  0  0
 18 20  2  0  0  0  0
 18 38  1  0  0  0  0
 19 46  1  0  0  0  0
 20 39  1  0  0  0  0
 21 79  1  0  0  0  0
 22 80  1  0  0  0  0
 23 25  2  0  0  0  0
 23 79  1  0  0  0  0
 24 81  1  0  0  0  0
 25 82  1  0  0  0  0
 26 61  2  0  0  0  0
 27 29  2  0  0  0  0
 27 62  1  0  0  0  0
 27 68  1  0  0  0  0
 28 63  1  0  0  0  0
 28 66  1  0  0  0  0
 29 83  1  0  0  0  0
 29 84  1  0  0  0  0
 30 62  2  0  0  0  0
 30 69  1  0  0  0  0
 30 84  1  0  0  0  0
 31 67  1  0  0  0  0
 31 73  2  0  0  0  0
 32 47  1  0  0  0  0
 32 70  1  0  0  0  0
 32 74  2  0  0  0  0
 33 49  1  0  0  0  0
 33 56  1  0  0  0  0
 33 75  2  0  0  0  0
 34 57  1  0  0  0  0
 34 64  1  0  0  0  0
 34 76  2  0  0  0  0
 35 58  1  0  0  0  0
 35 71  1  0  0  0  0
 35 77  2  0  0  0  0
 36 65  1  0  0  0  0
 36 69  1  0  0  0  0
 36 78  2  0  0  0  0
 37 40  1  0  0  0  0
 38 47  1  0  0  0  0
 39 64  1  0  0  0  0
 40 42  1  0  0  0  0
 41 43  1  0  0  0  0
 41 44  1  0  0  0  0
 42 46  1  0  0  0  0
 43 48  1  0  0  0  0
 44 65  1  0  0  0  0
 45 48  1  0  0  0  0
 45 65  1  0  0  0  0
 46 70  1  0  0  0  0
 47 64  1  0  0  0  0
 48 63  1  0  0  0  0
 50 58  1  0  0  0  0
 51 59  1  0  0  0  0
 52 60  1  0  0  0  0
 53 60  1  0  0  0  0
 54 60  1  0  0  0  0
 55 72  1  0  0  0  0
 56 59  1  0  0  0  0
 56 68  1  0  0  0  0
 57 60  1  0  0  0  0
 57 71  1  0  0  0  0
 58 72  1  0  0  0  0
 59 80  1  0  0  0  0
 61 63  1  0  0  0  0
M  CHG  1  72   1
M  ISO  4  36 100  59 101  69 100  80 101
M  END
> <Batch ID>
0186

> <Smiles>
CNC(C)C(=O)NC(C(=O)N1Cc2cc([101O:1][101CH:1](C)C(Nc3nc([100NH:0][100C:0](=O)N4CCCC(n5nc(-c6ccc(Oc7ccc(F)cc7F)cc6)c(C(N)=O)c5N)C4)sc3F)C(C)=O)ccc2CC1C(=O)NC1CCCc2ccccc21)C(C)(C)C

> <Shape>
0.314

> <Color>
0.080

> <Negative vol penalty>
0.000

$$$$

  -OEChem-04052305093D

 88 96  0     1  0  0  0  0  0999 V2000
  -18.4811  -26.3416   22.8363 C   0  0  0  0  0  0  0  0  0  0  0  0
  -19.4497  -26.3878   21.8387 C   0  0  0  0  0  0  0  0  0  0  0  0
  -23.0836  -13.0340   21.1376 C   0  0  0  0  0  0  0  0  0  0  0  0
  -23.2343  -13.4932   18.7704 C   0  0  0  0  0  0  0  0  0  0  0  0
  -18.1175  -27.5082   23.5078 C   0  0  0  0  0  0  0  0  0  0  0  0
  -20.0545  -27.6008   21.5114 C   0  0  0  0  0  0  0  0  0  0  0  0
  -25.0761  -27.1920   20.9996 C   0  0  0  0  0  0  0  0  0  0  0  0
  -21.7291  -12.7341   20.9932 C   0  0  0  0  0  0  0  0  0  0  0  0
  -21.8797  -13.1934   18.6260 C   0  0  0  0  0  0  0  0  0  0  0  0
  -25.5522  -26.6419   19.8103 C   0  0  0  0  0  0  0  0  0  0  0  0
  -19.8544  -10.1359   19.9126 C   0  0  0  0  0  0  0  0  0  0  0  0
  -19.3720   -8.9928   20.5499 C   0  0  0  0  0  0  0  0  0  0  0  0
  -26.0195  -28.8579   18.9795 C   0  0  0  0  0  0  0  0  0  0  0  0
  -17.8327  -10.3520   21.8228 C   0  0  0  0  0  0  0  0  0  0  0  0
  -28.4474  -19.3789   15.8149 C   0  0  0  0  0  0  0  0  0  0  0  0
  -23.8362  -13.4136   20.0262 C   0  0  0  0  0  0  0  0  0  0  0  0
  -26.3197  -12.8323   20.0705 C   0  0  0  0  0  0  0  0  0  0  0  0
  -18.7251  -28.7344   23.1952 C   0  0  0  0  0  0  0  0  0  0  0  0
  -25.0579  -28.5821   21.1838 C   0  0  0  0  0  0  0  0  0  0  0  0
  -19.6978  -28.7851   22.1784 C   0  0  0  0  0  0  0  0  0  0  0  0
  -25.5450  -29.4230   20.1730 C   0  0  0  0  0  0  0  0  0  0  0  0
  -21.1271  -12.8138   19.7375 C   0  0  0  0  0  0  0  0  0  0  0  0
  -26.0213  -27.4750   18.7989 C   0  0  0  0  0  0  0  0  0  0  0  0
  -19.3260  -11.3872   20.2304 C   0  0  0  0  0  0  0  0  0  0  0  0
  -18.3612   -9.1009   21.5049 C   0  0  0  0  0  0  0  0  0  0  0  0
  -18.3151  -11.4952   21.1854 C   0  0  0  0  0  0  0  0  0  0  0  0
  -25.2354  -13.7240   20.1747 C   0  0  0  0  0  0  0  0  0  0  0  0
  -28.7401  -19.7808   17.1013 C   0  0  0  0  0  0  0  0  0  0  0  0
  -27.4283  -13.6125   20.2915 C   0  0  0  0  0  0  0  0  0  0  0  0
  -29.8275  -21.3433   16.0122 C   0  0  0  0  0  0  0  0  0  0  0  0
  -26.3245  -11.4246   19.7981 C   0  0  0  0  0  0  0  0  0  0  0  0
  -22.7860  -30.7503   21.6745 C   0  0  0  0  0  0  0  0  0  0  0  0
  -25.3153  -32.7456   22.0534 C   0  0  0  0  0  0  0  0  0  0  0  0
  -28.5960  -33.4210   21.3998 C   0  0  0  0  0  0  0  0  0  0  0  0
  -28.5218  -19.4447   19.5884 C   0  0  0  0  0  0  0  0  0  0  0  0
  -18.2653  -29.9770   23.9157 C   0  0  0  0  0  0  0  0  0  0  0  0
  -24.5660  -29.1585   22.4831 C   0  0  0  0  0  0  0  0  0  0  0  0
  -25.5658  -30.9209   20.3292 C   0  0  0  0  0  0  0  0  0  0  0  0
  -19.2228  -31.1566   23.7674 C   0  0  0  0  0  0  0  0  0  0  0  0
  -28.8226  -17.5698   22.6003 C   0  0  0  0  0  0  0  0  0  0  0  0
  -19.6472  -31.3199   22.3114 C   0  0  0  0  0  0  0  0  0  0  0  0
  -28.0406  -16.2870   22.3084 C   0  0  0  0  0  0  0  0  0  0  0  0
  -28.1669  -18.7918   21.9597 C   0  0  0  0  0  0  0  0  0  0  0  0
  -27.1173  -17.3874   20.2291 C   0  0  0  0  0  0  0  0  0  0  0  0
  -20.3945  -30.0775   21.8119 C   0  0  1  0  0  0  0  0  0  0  0  0
  -24.1158  -30.6110   22.3599 C   0  0  1  0  0  0  0  0  0  0  0  0
  -27.7748  -16.1201   20.7995 C   0  0  2  0  0  0  0  0  0  0  0  0
  -30.3723  -35.1452   21.8117 C   0  0  0  0  0  0  0  0  0  0  0  0
  -33.9783  -22.4909   17.9306 C   0  0  0  0  0  0  0  0  0  0  0  0
  -33.8703  -22.2708   15.4457 C   0  0  0  0  0  0  0  0  0  0  0  0
  -32.8591  -20.5142   16.9187 C   0  0  0  0  0  0  0  0  0  0  0  0
  -24.0427  -34.5552   19.9520 C   0  0  0  0  0  0  0  0  0  0  0  0
  -26.2481  -35.7168   19.7174 C   0  0  0  0  0  0  0  0  0  0  0  0
  -25.0424  -35.7624   21.9008 C   0  0  0  0  0  0  0  0  0  0  0  0
  -30.3034  -31.4846   22.8470 C   0  0  0  0  0  0  0  0  0  0  0  0
  -31.7751  -22.8515   16.7965 C   0  0  0  0  0  0  0  0  0  0  0  0
  -28.7771  -24.1003   16.6680 C   0  0  0  0  0  0  0  0  0  0  0  0
  -27.0813  -25.6450   17.7109 C   0  0  0  0  0  0  0  0  0  1  0  0
  -30.6869  -22.5686   15.7259 C   0  0  2  0  0  0  0  0  0  0  0  0
  -26.1372  -33.6163   21.1340 C   0  0  1  0  0  0  0  0  0  0  0  0
  -29.7347  -33.8556   22.3049 C   0  0  2  0  0  0  0  0  0  0  0  0
  -28.1193  -25.4798   16.6031 C   0  0  2  0  0  0  0  0  0  0  0  0
  -29.7462  -23.7849   15.5201 C   0  0  1  0  0  0  0  0  0  0  0  0
  -33.0962  -22.0226   16.7513 C   0  0  0  0  0  0  0  0  0  0  0  0
  -25.3656  -34.8846   20.6721 C   0  0  0  0  0  0  0  0  0  0  0  0
  -25.6203  -14.9749   20.4414 N   0  0  0  0  0  0  0  0  0  0  0  0
  -29.5318  -20.9068   17.2164 N   0  0  0  0  0  0  0  0  0  0  0  0
  -26.9589  -14.8748   20.5067 N   0  0  0  0  0  0  0  0  0  0  0  0
  -25.0686  -31.4368   21.6153 N   0  0  0  0  0  0  0  0  0  0  0  0
  -27.9497  -18.5628   20.5296 N   0  0  0  0  0  0  0  0  0  0  0  0
  -28.7491  -13.3349   20.3210 N   0  0  0  0  0  0  0  0  0  0  0  0
  -25.0970  -10.7792   19.5956 N   0  0  0  0  0  0  0  0  0  0  0  0
  -28.2746  -19.1078   18.2580 N   0  0  0  0  0  0  0  0  0  0  0  0
  -21.7561  -30.0757   22.3020 N   0  0  0  0  0  0  0  0  0  0  0  0
  -27.3807  -33.8986   21.8429 N   0  0  0  0  0  0  0  0  0  0  0  0
  -30.7865  -32.8011   22.3567 N   0  3  0  0  0  0  0  0  0  0  0  0
  -27.3847  -10.7558   19.7525 O   0  0  0  0  0  0  0  0  0  0  0  0
  -22.7002  -31.4214   20.6528 O   0  0  0  0  0  0  0  0  0  0  0  0
  -24.9131  -33.2075   23.1242 O   0  0  0  0  0  0  0  0  0  0  0  0
  -28.7680  -32.7304   20.3979 O   0  0  0  0  0  0  0  0  0  0  0  0
  -29.2052  -20.4110   19.9365 O   0  0  0  0  0  0  0  0  0  0  0  0
  -27.4713  -25.6249   15.3405 O   0  0  0  0  0  0  0  0  0  0  0  0
  -19.8054  -12.5210   19.5962 O   0  0  0  0  0  0  0  0  0  0  0  0
  -26.4889  -26.9373   17.6294 O   0  0  0  0  0  0  0  0  0  1  0  0
  -17.8969   -8.0029   22.1158 F   0  0  0  0  0  0  0  0  0  0  0  0
  -17.8027  -12.6944   21.4941 F   0  0  0  0  0  0  0  0  0  0  0  0
  -28.9817  -23.5639   14.4079 F   0  0  0  0  0  0  0  0  0  0  0  0
  -29.1865  -20.4480   14.6959 S   0  0  0  0  0  0  0  0  0  0  0  0
  1  2  1  0  0  0  0
  1  5  2  0  0  0  0
  2  6  2  0  0  0  0
  3  8  2  0  0  0  0
  3 16  1  0  0  0  0
  4  9  1  0  0  0  0
  4 16  2  0  0  0  0
  5 18  1  0  0  0  0
  6 20  1  0  0  0  0
  7 10  2  0  0  0  0
  7 19  1  0  0  0  0
  8 22  1  0  0  0  0
  9 22  2  0  0  0  0
 10 23  1  0  0  0  0
 11 12  2  0  0  0  0
 11 24  1  0  0  0  0
 12 25  1  0  0  0  0
 13 21  1  0  0  0  0
 13 23  2  0  0  0  0
 14 25  2  0  0  0  0
 14 26  1  0  0  0  0
 15 28  2  0  0  0  0
 15 88  1  0  0  0  0
 16 27  1  0  0  0  0
 17 27  1  0  0  0  0
 17 29  2  0  0  0  0
 17 31  1  0  0  0  0
 18 20  2  0  0  0  0
 18 36  1  0  0  0  0
 19 21  2  0  0  0  0
 19 37  1  0  0  0  0
 20 45  1  0  0  0  0
 21 38  1  0  0  0  0
 22 83  1  0  0  0  0
 23 84  1  0  0  0  0
 24 26  2  0  0  0  0
 24 83  1  0  0  0  0
 25 85  1  0  0  0  0
 26 86  1  0  0  0  0
 27 66  2  0  0  0  0
 28 67  1  0  0  0  0
 28 73  1  0  0  0  0
 29 68  1  0  0  0  0
 29 71  1  0  0  0  0
 30 59  1  0  0  0  0
 30 67  2  0  0  0  0
 30 88  1  0  0  0  0
 31 72  1  0  0  0  0
 31 77  2  0  0  0  0
 32 46  1  0  0  0  0
 32 74  1  0  0  0  0
 32 78  2  0  0  0  0
 33 60  1  0  0  0  0
 33 69  1  0  0  0  0
 33 79  2  0  0  0  0
 34 61  1  0  0  0  0
 34 75  1  0  0  0  0
 34 80  2  0  0  0  0
 35 70  1  0  0  0  0
 35 73  1  0  0  0  0
 35 81  2  0  0  0  0
 36 39  1  0  0  0  0
 37 46  1  0  0  0  0
 38 69  1  0  0  0  0
 39 41  1  0  0  0  0
 40 42  1  0  0  0  0
 40 43  1  0  0  0  0
 41 45  1  0  0  0  0
 42 47  1  0  0  0  0
 43 70  1  0  0  0  0
 44 47  1  0  0  0  0
 44 70  1  0  0  0  0
 45 74  1  0  0  0  0
 46 69  1  0  0  0  0
 47 68  1  0  0  0  0
 48 61  1  0  0  0  0
 49 64  1  0  0  0  0
 50 64  1  0  0  0  0
 51 64  1  0  0  0  0
 52 65  1  0  0  0  0
 53 65  1  0  0  0  0
 54 65  1  0  0  0  0
 55 76  1  0  0  0  0
 56 59  1  0  0  0  0
 56 64  1  0  0  0  0
 57 62  1  0  0  0  0
 57 63  1  0  0  0  0
 58 62  1  0  0  0  0
 58 84  1  0  0  0  0
 59 63  1  0  0  0  0
 60 65  1  0  0  0  0
 60 75  1  0  0  0  0
 61 76  1  0  0  0  0
 62 82  1  0  0  0  0
 63 87  1  0  0  0  0
 66 68  1  0  0  0  0
M  CHG  1  76   1
M  ISO  4  35 100  58 101  73 100  84 101
M  END
> <Batch ID>
0186

> <Smiles>
CNC(C)C(=O)NC(C(=O)N1Cc2cc([101O:1][101CH2:1]C(O)CC(F)C(CC(C)(C)C)c3nc([100NH:0][100C:0](=O)N4CCCC(n5nc(-c6ccc(Oc7ccc(F)cc7F)cc6)c(C(N)=O)c5N)C4)cs3)ccc2CC1C(=O)NC1CCCc2ccccc21)C(C)(C)C

> <Shape>
0.229

> <Color>
0.095

> <Negative vol penalty>
0.000

$$$$

  -OEChem-04052305093D

 84 92  0     1  0  0  0  0  0999 V2000
  -24.7567   -5.8456   22.6519 C   0  0  0  0  0  0  0  0  0  0  0  0
  -25.8851   -6.6573   22.7098 C   0  0  0  0  0  0  0  0  0  0  0  0
  -25.2604  -31.4110   21.4145 C   0  0  0  0  0  0  0  0  0  0  0  0
  -27.6466  -31.2787   21.0602 C   0  0  0  0  0  0  0  0  0  0  0  0
  -23.5965   -6.3098   22.0336 C   0  0  0  0  0  0  0  0  0  0  0  0
  -25.8542   -7.9334   22.1484 C   0  0  0  0  0  0  0  0  0  0  0  0
  -28.7260  -12.9335   24.2117 C   0  0  0  0  0  0  0  0  0  0  0  0
  -25.3874  -32.7542   21.7684 C   0  0  0  0  0  0  0  0  0  0  0  0
  -27.7736  -32.6219   21.4140 C   0  0  0  0  0  0  0  0  0  0  0  0
  -29.9202  -13.5498   23.8402 C   0  0  0  0  0  0  0  0  0  0  0  0
  -25.1308  -36.1233   23.1125 C   0  0  0  0  0  0  0  0  0  0  0  0
  -24.4383  -36.5670   24.2391 C   0  0  0  0  0  0  0  0  0  0  0  0
  -28.6904  -15.0637   22.4207 C   0  0  0  0  0  0  0  0  0  0  0  0
  -25.6466  -34.9828   25.6057 C   0  0  0  0  0  0  0  0  0  0  0  0
  -26.3900  -30.6732   21.0605 C   0  0  0  0  0  0  0  0  0  0  0  0
  -26.0395  -28.7624   19.4070 C   0  0  0  0  0  0  0  0  0  0  0  0
  -23.5483   -7.5959   21.4729 C   0  0  0  0  0  0  0  0  0  0  0  0
  -27.5040  -13.3714   23.6811 C   0  0  0  0  0  0  0  0  0  0  0  0
  -24.6926   -8.4147   21.5209 C   0  0  0  0  0  0  0  0  0  0  0  0
  -27.4819  -14.4530   22.7890 C   0  0  0  0  0  0  0  0  0  0  0  0
  -26.6440  -33.3597   21.7681 C   0  0  0  0  0  0  0  0  0  0  0  0
  -29.9028  -14.6131   22.9424 C   0  0  0  0  0  0  0  0  0  0  0  0
  -26.0811  -35.1093   23.2324 C   0  0  0  0  0  0  0  0  0  0  0  0
  -24.6963  -35.9968   25.4857 C   0  0  0  0  0  0  0  0  0  0  0  0
  -26.3390  -34.5391   24.4790 C   0  0  0  0  0  0  0  0  0  0  0  0
  -26.2596  -29.2854   20.6954 C   0  0  0  0  0  0  0  0  0  0  0  0
  -29.2752  -19.6619   18.9739 C   0  0  0  0  0  0  0  0  0  0  0  0
  -25.9924  -27.4023   19.5921 C   0  0  0  0  0  0  0  0  0  0  0  0
  -29.5088  -20.3783   17.8188 C   0  0  0  0  0  0  0  0  0  0  0  0
  -28.7641  -21.6612   19.7168 C   0  0  0  0  0  0  0  0  0  0  0  0
  -25.8909  -29.4451   18.1550 C   0  0  0  0  0  0  0  0  0  0  0  0
  -25.2347  -12.0511   21.8892 C   0  0  0  0  0  0  0  0  0  0  0  0
  -23.6897  -14.8418   22.4783 C   0  0  0  0  0  0  0  0  0  0  0  0
  -23.8915  -18.1455   23.3100 C   0  0  0  0  0  0  0  0  0  0  0  0
  -30.6791  -16.7343   20.7564 C   0  0  0  0  0  0  0  0  0  0  0  0
  -27.9819  -22.7237   21.8628 C   0  0  0  0  0  0  0  0  0  0  0  0
  -22.2867   -8.0360   20.7733 C   0  0  0  0  0  0  0  0  0  0  0  0
  -26.2221  -12.7134   24.1124 C   0  0  0  0  0  0  0  0  0  0  0  0
  -26.1945  -14.9742   22.2064 C   0  0  0  0  0  0  0  0  0  0  0  0
  -22.2170   -9.5419   20.5332 C   0  0  0  0  0  0  0  0  0  0  0  0
  -25.7449  -24.6626   23.8412 C   0  0  0  0  0  0  0  0  0  0  0  0
  -23.5365  -10.0533   19.9639 C   0  0  0  0  0  0  0  0  0  0  0  0
  -25.6613  -25.9951   23.0931 C   0  0  0  0  0  0  0  0  0  0  0  0
  -27.1500  -24.0660   23.7815 C   0  0  0  0  0  0  0  0  0  0  0  0
  -27.6273  -25.2649   21.6830 C   0  0  0  0  0  0  0  0  0  0  0  0
  -24.6903   -9.8143   20.9453 C   0  0  1  0  0  0  0  0  0  0  0  0
  -25.0851  -12.9084   23.1141 C   0  0  1  0  0  0  0  0  0  0  0  0
  -26.2153  -25.8727   21.6601 C   0  0  2  0  0  0  0  0  0  0  0  0
  -28.1714  -17.3932   18.8109 C   0  0  0  0  0  0  0  0  0  0  0  0
  -22.4622  -20.1752   23.6777 C   0  0  0  0  0  0  0  0  0  0  0  0
  -32.3240  -17.2681   22.5883 C   0  0  0  0  0  0  0  0  0  0  0  0
  -23.3472  -15.1441   19.4615 C   0  0  0  0  0  0  0  0  0  0  0  0
  -22.7963  -17.5575   19.8361 C   0  0  0  0  0  0  0  0  0  0  0  0
  -21.3389  -15.7818   20.8085 C   0  0  0  0  0  0  0  0  0  0  0  0
  -24.7690  -18.3965   26.1253 C   0  0  0  0  0  0  0  0  0  0  0  0
  -29.4432  -18.1681   19.1496 C   0  0  2  0  0  0  0  0  0  0  0  0
  -23.6261  -16.1914   21.8049 C   0  0  1  0  0  0  0  0  0  0  0  0
  -23.1326  -18.9758   24.3294 C   0  0  2  0  0  0  0  0  0  0  0  0
  -31.0029  -16.6004   22.2380 C   0  0  2  0  0  0  0  0  0  1  0  0
  -22.8017  -16.1579   20.4870 C   0  0  0  0  0  0  0  0  0  0  0  0
  -26.3461  -28.3350   21.6298 N   0  0  0  0  0  0  0  0  0  0  0  0
  -28.8484  -20.3959   20.0634 N   0  0  0  0  0  0  0  0  0  0  0  0
  -26.1795  -27.2011   20.9280 N   0  0  0  0  0  0  0  0  0  0  0  0
  -24.9682  -14.2936   22.6541 N   0  0  0  0  0  0  0  0  0  0  0  0
  -27.6072  -23.9764   22.3931 N   0  0  0  0  0  0  0  0  0  0  0  0
  -25.8095  -26.3707   18.7408 N   0  0  0  0  0  0  0  0  0  0  0  0
  -29.9299  -19.9134   16.6175 N   0  0  0  0  0  0  0  0  0  0  0  0
  -25.9661  -30.8445   18.1440 N   0  0  0  0  0  0  0  0  0  0  0  0
  -28.3680  -22.7568   20.5233 N   0  0  0  0  0  0  0  0  0  0  0  0
  -24.6635  -10.7983   22.0062 N   0  0  0  0  0  0  0  0  0  0  0  0
  -29.8955  -17.8447   20.4824 N   0  0  0  0  0  0  0  0  0  0  0  0
  -23.1163  -17.1231   22.8051 N   0  0  0  0  0  0  0  0  0  0  0  0
  -24.0588  -19.4719   25.3863 N   0  3  0  0  0  0  0  0  0  0  0  0
  -25.6809  -28.8330   17.0803 O   0  0  0  0  0  0  0  0  0  0  0  0
  -25.8235  -12.4940   20.9100 O   0  0  0  0  0  0  0  0  0  0  0  0
  -22.6441  -14.2974   22.8417 O   0  0  0  0  0  0  0  0  0  0  0  0
  -25.0543  -18.3827   22.9906 O   0  0  0  0  0  0  0  0  0  0  0  0
  -31.0671  -15.9215   19.9200 O   0  0  0  0  0  0  0  0  0  0  0  0
  -27.9358  -21.6928   22.5389 O   0  0  0  0  0  0  0  0  0  0  0  0
  -26.7683  -34.6704   22.1131 O   0  0  0  0  0  0  0  0  0  0  0  0
  -31.0670  -15.2160   22.5777 O   0  0  0  0  0  0  0  0  0  1  0  0
  -24.0323  -36.4241   26.5677 F   0  0  0  0  0  0  0  0  0  0  0  0
  -27.2517  -33.5654   24.6007 F   0  0  0  0  0  0  0  0  0  0  0  0
  -29.1824  -22.0391   18.0959 S   0  0  0  0  0  0  0  0  0  0  0  0
  1  2  1  0  0  0  0
  1  5  2  0  0  0  0
  2  6  2  0  0  0  0
  3  8  2  0  0  0  0
  3 15  1  0  0  0  0
  4  9  1  0  0  0  0
  4 15  2  0  0  0  0
  5 17  1  0  0  0  0
  6 19  1  0  0  0  0
  7 10  2  0  0  0  0
  7 18  1  0  0  0  0
  8 21  1  0  0  0  0
  9 21  2  0  0  0  0
 10 22  1  0  0  0  0
 11 12  2  0  0  0  0
 11 23  1  0  0  0  0
 12 24  1  0  0  0  0
 13 20  1  0  0  0  0
 13 22  2  0  0  0  0
 14 24  2  0  0  0  0
 14 25  1  0  0  0  0
 15 26  1  0  0  0  0
 16 26  1  0  0  0  0
 16 28  2  0  0  0  0
 16 31  1  0  0  0  0
 17 19  2  0  0  0  0
 17 37  1  0  0  0  0
 18 20  2  0  0  0  0
 18 38  1  0  0  0  0
 19 46  1  0  0  0  0
 20 39  1  0  0  0  0
 21 80  1  0  0  0  0
 22 81  1  0  0  0  0
 23 25  2  0  0  0  0
 23 80  1  0  0  0  0
 24 82  1  0  0  0  0
 25 83  1  0  0  0  0
 26 61  2  0  0  0  0
 27 29  2  0  0  0  0
 27 56  1  0  0  0  0
 27 62  1  0  0  0  0
 28 63  1  0  0  0  0
 28 66  1  0  0  0  0
 29 67  1  0  0  0  0
 29 84  1  0  0  0  0
 30 62  2  0  0  0  0
 30 69  1  0  0  0  0
 30 84  1  0  0  0  0
 31 68  1  0  0  0  0
 31 74  2  0  0  0  0
 32 47  1  0  0  0  0
 32 70  1  0  0  0  0
 32 75  2  0  0  0  0
 33 57  1  0  0  0  0
 33 64  1  0  0  0  0
 33 76  2  0  0  0  0
 34 58  1  0  0  0  0
 34 72  1  0  0  0  0
 34 77  2  0  0  0  0
 35 59  1  0  0  0  0
 35 71  1  0  0  0  0
 35 78  2  0  0  0  0
 36 65  1  0  0  0  0
 36 69  1  0  0  0  0
 36 79  2  0  0  0  0
 37 40  1  0  0  0  0
 38 47  1  0  0  0  0
 39 64  1  0  0  0  0
 40 42  1  0  0  0  0
 41 43  1  0  0  0  0
 41 44  1  0  0  0  0
 42 46  1  0  0  0  0
 43 48  1  0  0  0  0
 44 65  1  0  0  0  0
 45 48  1  0  0  0  0
 45 65  1  0  0  0  0
 46 70  1  0  0  0  0
 47 64  1  0  0  0  0
 48 63  1  0  0  0  0
 49 56  1  0  0  0  0
 50 58  1  0  0  0  0
 51 59  1  0  0  0  0
 52 60  1  0  0  0  0
 53 60  1  0  0  0  0
 54 60  1  0  0  0  0
 55 73  1  0  0  0  0
 56 71  1  0  0  0  0
 57 60  1  0  0  0  0
 57 72  1  0  0  0  0
 58 73  1  0  0  0  0
 59 81  1  0  0  0  0
 61 63  1  0  0  0  0
M  CHG  1  73   1
M  ISO  4  36 100  59 101  69 100  81 101
M  END
> <Batch ID>
0186

> <Smiles>
CNC(C)C(=O)NC(C(=O)N1Cc2cc([101O:1][101CH:1](C)C(=O)NC(C)c3nc([100NH:0][100C:0](=O)N4CCCC(n5nc(-c6ccc(Oc7ccc(F)cc7F)cc6)c(C(N)=O)c5N)C4)sc3N)ccc2CC1C(=O)NC1CCCc2ccccc21)C(C)(C)C

> <Shape>
0.227

> <Color>
0.069

> <Negative vol penalty>
0.000

$$$$

  -OEChem-04052305093D

 87 95  0     1  0  0  0  0  0999 V2000
  -27.3117  -37.8786   24.2911 C   0  0  0  0  0  0  0  0  0  0  0  0
  -28.1447  -36.7645   24.3069 C   0  0  0  0  0  0  0  0  0  0  0  0
  -24.7172   -8.7208   20.8176 C   0  0  0  0  0  0  0  0  0  0  0  0
  -22.9332  -10.2423   20.2351 C   0  0  0  0  0  0  0  0  0  0  0  0
  -25.9922  -37.7672   24.7276 C   0  0  0  0  0  0  0  0  0  0  0  0
  -27.6590  -35.5385   24.7601 C   0  0  0  0  0  0  0  0  0  0  0  0
  -28.3664  -28.4973   23.6479 C   0  0  0  0  0  0  0  0  0  0  0  0
  -23.7771   -7.7747   21.2257 C   0  0  0  0  0  0  0  0  0  0  0  0
  -21.9930   -9.2962   20.6432 C   0  0  0  0  0  0  0  0  0  0  0  0
  -28.6143  -27.3161   24.3460 C   0  0  0  0  0  0  0  0  0  0  0  0
  -21.8152   -7.2150   23.9205 C   0  0  0  0  0  0  0  0  0  0  0  0
  -22.0416   -6.5572   25.1295 C   0  0  0  0  0  0  0  0  0  0  0  0
  -26.2946  -27.2239   25.0017 C   0  0  0  0  0  0  0  0  0  0  0  0
  -22.0805   -4.4383   23.9692 C   0  0  0  0  0  0  0  0  0  0  0  0
  -24.2953   -9.9547   20.3223 C   0  0  0  0  0  0  0  0  0  0  0  0
  -25.8158  -11.0851   18.6142 C   0  0  0  0  0  0  0  0  0  0  0  0
  -25.4873  -36.5370   25.1774 C   0  0  0  0  0  0  0  0  0  0  0  0
  -27.0809  -29.0574   23.6305 C   0  0  0  0  0  0  0  0  0  0  0  0
  -26.3319  -35.4108   25.2043 C   0  0  0  0  0  0  0  0  0  0  0  0
  -26.0325  -28.4109   24.3005 C   0  0  0  0  0  0  0  0  0  0  0  0
  -22.4150   -8.0623   21.1385 C   0  0  0  0  0  0  0  0  0  0  0  0
  -27.5790  -26.6808   25.0254 C   0  0  0  0  0  0  0  0  0  0  0  0
  -21.7213   -6.4846   22.7359 C   0  0  0  0  0  0  0  0  0  0  0  0
  -22.1743   -5.1689   25.1538 C   0  0  0  0  0  0  0  0  0  0  0  0
  -21.8540   -5.0962   22.7602 C   0  0  0  0  0  0  0  0  0  0  0  0
  -25.2660  -10.9327   19.9012 C   0  0  0  0  0  0  0  0  0  0  0  0
  -24.6014  -20.4976   21.7827 C   0  0  0  0  0  0  0  0  0  0  0  0
  -26.6803  -12.1457   18.7336 C   0  0  0  0  0  0  0  0  0  0  0  0
  -23.4832  -20.0616   21.1032 C   0  0  0  0  0  0  0  0  0  0  0  0
  -25.0806  -18.3591   21.6972 C   0  0  0  0  0  0  0  0  0  0  0  0
  -25.5674  -10.3351   17.4178 C   0  0  0  0  0  0  0  0  0  0  0  0
  -25.8149  -31.7985   24.6239 C   0  0  0  0  0  0  0  0  0  0  0  0
  -23.1622  -30.6591   23.1450 C   0  0  0  0  0  0  0  0  0  0  0  0
  -21.4100  -27.9574   22.0148 C   0  0  0  0  0  0  0  0  0  0  0  0
  -26.9225  -16.8158   22.4534 C   0  0  0  0  0  0  0  0  0  0  0  0
  -24.0680  -36.4764   25.6840 C   0  0  0  0  0  0  0  0  0  0  0  0
  -26.8242  -30.3177   22.8507 C   0  0  0  0  0  0  0  0  0  0  0  0
  -24.6302  -28.9604   24.2960 C   0  0  0  0  0  0  0  0  0  0  0  0
  -23.5217  -35.0554   25.7968 C   0  0  0  0  0  0  0  0  0  0  0  0
  -29.4583  -14.3702   21.9381 C   0  0  0  0  0  0  0  0  0  0  0  0
  -24.5380  -34.1455   26.4796 C   0  0  0  0  0  0  0  0  0  0  0  0
  -28.7224  -13.2275   21.2347 C   0  0  0  0  0  0  0  0  0  0  0  0
  -28.5819  -15.0460   22.9911 C   0  0  0  0  0  0  0  0  0  0  0  0
  -26.5349  -14.3569   21.8061 C   0  0  0  0  0  0  0  0  0  0  0  0
  -25.8346  -34.0581   25.6656 C   0  0  1  0  0  0  0  0  0  0  0  0
  -25.5880  -31.0739   23.3274 C   0  0  1  0  0  0  0  0  0  0  0  0
  -27.3553  -13.6876   20.6914 C   0  0  2  0  0  0  0  0  0  0  0  0
  -25.5863  -22.6348   20.9946 C   0  0  0  0  0  0  0  0  0  0  0  0
  -19.2573  -27.3386   20.8832 C   0  0  0  0  0  0  0  0  0  0  0  0
  -28.1388  -23.0410   27.1887 C   0  0  0  0  0  0  0  0  0  0  0  0
  -21.6571  -31.1271   25.7575 C   0  0  0  0  0  0  0  0  0  0  0  0
  -19.8329  -29.6476   24.8905 C   0  0  0  0  0  0  0  0  0  0  0  0
  -20.3925  -31.7651   23.6964 C   0  0  0  0  0  0  0  0  0  0  0  0
  -23.9864  -23.0042   25.0271 C   0  0  0  0  0  0  0  0  0  0  0  0
  -24.4404  -20.5660   25.0247 C   0  0  0  0  0  0  0  0  0  0  0  0
  -22.8305  -26.7609   19.7107 C   0  0  0  0  0  0  0  0  0  0  0  0
  -25.7826  -22.0940   23.4539 C   0  0  0  0  0  0  0  0  0  0  0  0
  -26.1690  -22.0657   25.9901 C   0  0  0  0  0  0  0  0  0  0  0  0
  -26.7440  -24.5990   25.8158 C   0  0  0  0  0  0  0  0  0  1  0  0
  -24.9073  -21.9308   22.1820 C   0  0  2  0  0  0  0  0  0  0  0  0
  -21.9875  -29.8080   23.5629 C   0  0  1  0  0  0  0  0  0  0  0  0
  -20.7254  -27.6842   20.6878 C   0  0  2  0  0  0  0  0  0  0  0  0
  -27.2614  -23.1622   25.9305 C   0  0  1  0  0  0  0  0  0  0  0  0
  -20.9942  -30.5774   24.4787 C   0  0  0  0  0  0  0  0  0  0  0  0
  -25.0995  -21.9535   24.8484 C   0  0  0  0  0  0  0  0  0  0  0  0
  -25.7413  -11.8249   20.7740 N   0  0  0  0  0  0  0  0  0  0  0  0
  -25.5183  -19.5228   22.1245 N   0  0  0  0  0  0  0  0  0  0  0  0
  -26.5991  -12.5482   20.0342 N   0  0  0  0  0  0  0  0  0  0  0  0
  -24.4309  -30.1983   23.5245 N   0  0  0  0  0  0  0  0  0  0  0  0
  -27.3056  -15.4588   22.4033 N   0  0  0  0  0  0  0  0  0  0  0  0
  -27.4945  -12.7639   17.8519 N   0  0  0  0  0  0  0  0  0  0  0  0
  -22.4380  -20.7979   20.6540 N   0  0  0  0  0  0  0  0  0  0  0  0
  -24.6491   -9.2775   17.4708 N   0  0  0  0  0  0  0  0  0  0  0  0
  -25.7049  -17.0944   21.8335 N   0  0  0  0  0  0  0  0  0  0  0  0
  -25.6635  -33.1693   24.5363 N   0  0  0  0  0  0  0  0  0  0  0  0
  -21.3934  -29.2994   22.3313 N   0  0  0  0  0  0  0  0  0  0  0  0
  -21.3869  -26.5466   19.9882 N   0  3  0  0  0  0  0  0  0  0  0  0
  -26.1548  -10.5845   16.3379 O   0  0  0  0  0  0  0  0  0  0  0  0
  -26.1044  -31.1611   25.6297 O   0  0  0  0  0  0  0  0  0  0  0  0
  -22.9621  -31.6910   22.4993 O   0  0  0  0  0  0  0  0  0  0  0  0
  -21.9063  -27.0688   22.7038 O   0  0  0  0  0  0  0  0  0  0  0  0
  -27.6360  -17.6725   22.9817 O   0  0  0  0  0  0  0  0  0  0  0  0
  -21.4973   -7.1392   21.5364 O   0  0  0  0  0  0  0  0  0  0  0  0
  -27.8202  -25.5192   25.7133 O   0  0  0  0  0  0  0  0  0  1  0  0
  -22.3933   -4.5374   26.3146 F   0  0  0  0  0  0  0  0  0  0  0  0
  -21.7659   -4.3892   21.6253 F   0  0  0  0  0  0  0  0  0  0  0  0
  -23.5738  -18.3641   20.8759 S   0  0  0  0  0  0  0  0  0  0  0  0
  1  2  1  0  0  0  0
  1  5  2  0  0  0  0
  2  6  2  0  0  0  0
  3  8  2  0  0  0  0
  3 15  1  0  0  0  0
  4  9  1  0  0  0  0
  4 15  2  0  0  0  0
  5 17  1  0  0  0  0
  6 19  1  0  0  0  0
  7 10  2  0  0  0  0
  7 18  1  0  0  0  0
  8 21  1  0  0  0  0
  9 21  2  0  0  0  0
 10 22  1  0  0  0  0
 11 12  2  0  0  0  0
 11 23  1  0  0  0  0
 12 24  1  0  0  0  0
 13 20  1  0  0  0  0
 13 22  2  0  0  0  0
 14 24  2  0  0  0  0
 14 25  1  0  0  0  0
 15 26  1  0  0  0  0
 16 26  1  0  0  0  0
 16 28  2  0  0  0  0
 16 31  1  0  0  0  0
 17 19  2  0  0  0  0
 17 36  1  0  0  0  0
 18 20  2  0  0  0  0
 18 37  1  0  0  0  0
 19 45  1  0  0  0  0
 20 38  1  0  0  0  0
 21 83  1  0  0  0  0
 22 84  1  0  0  0  0
 23 25  2  0  0  0  0
 23 83  1  0  0  0  0
 24 85  1  0  0  0  0
 25 86  1  0  0  0  0
 26 66  2  0  0  0  0
 27 29  2  0  0  0  0
 27 60  1  0  0  0  0
 27 67  1  0  0  0  0
 28 68  1  0  0  0  0
 28 71  1  0  0  0  0
 29 72  1  0  0  0  0
 29 87  1  0  0  0  0
 30 67  2  0  0  0  0
 30 74  1  0  0  0  0
 30 87  1  0  0  0  0
 31 73  1  0  0  0  0
 31 78  2  0  0  0  0
 32 46  1  0  0  0  0
 32 75  1  0  0  0  0
 32 79  2  0  0  0  0
 33 61  1  0  0  0  0
 33 69  1  0  0  0  0
 33 80  2  0  0  0  0
 34 62  1  0  0  0  0
 34 76  1  0  0  0  0
 34 81  2  0  0  0  0
 35 70  1  0  0  0  0
 35 74  1  0  0  0  0
 35 82  2  0  0  0  0
 36 39  1  0  0  0  0
 37 46  1  0  0  0  0
 38 69  1  0  0  0  0
 39 41  1  0  0  0  0
 40 42  1  0  0  0  0
 40 43  1  0  0  0  0
 41 45  1  0  0  0  0
 42 47  1  0  0  0  0
 43 70  1  0  0  0  0
 44 47  1  0  0  0  0
 44 70  1  0  0  0  0
 45 75  1  0  0  0  0
 46 69  1  0  0  0  0
 47 68  1  0  0  0  0
 48 60  1  0  0  0  0
 49 62  1  0  0  0  0
 50 63  1  0  0  0  0
 51 64  1  0  0  0  0
 52 64  1  0  0  0  0
 53 64  1  0  0  0  0
 54 65  1  0  0  0  0
 55 65  1  0  0  0  0
 56 77  1  0  0  0  0
 57 60  1  0  0  0  0
 57 65  1  0  0  0  0
 58 63  1  0  0  0  0
 58 65  1  0  0  0  0
 59 63  1  0  0  0  0
 59 84  1  0  0  0  0
 61 64  1  0  0  0  0
 61 76  1  0  0  0  0
 62 77  1  0  0  0  0
 66 68  1  0  0  0  0
M  CHG  1  77   1
M  ISO  4  35 100  59 101  74 100  84 101
M  END
> <Batch ID>
0186

> <Smiles>
CNC(C)C(=O)NC(C(=O)N1Cc2cc([101O:1][101CH2:1]C(C)CC(C)(C)CC(C)c3nc([100NH:0][100C:0](=O)N4CCCC(n5nc(-c6ccc(Oc7ccc(F)cc7F)cc6)c(C(N)=O)c5N)C4)sc3N)ccc2CC1C(=O)NC1CCCc2ccccc21)C(C)(C)C

> <Shape>
0.247

> <Color>
0.086

> <Negative vol penalty>
0.000

$$$$

  -OEChem-04052305093D

 87 95  0     1  0  0  0  0  0999 V2000
  -23.5996  -14.6616   25.0166 C   0  0  0  0  0  0  0  0  0  0  0  0
  -24.0106  -15.8965   24.5250 C   0  0  0  0  0  0  0  0  0  0  0  0
  -22.9990   -9.8895   20.0038 C   0  0  0  0  0  0  0  0  0  0  0  0
  -23.8173   -9.9332   22.2766 C   0  0  0  0  0  0  0  0  0  0  0  0
  -22.2407  -14.3580   25.0875 C   0  0  0  0  0  0  0  0  0  0  0  0
  -23.0628  -16.8281   24.1028 C   0  0  0  0  0  0  0  0  0  0  0  0
  -24.0531  -21.5029   25.7791 C   0  0  0  0  0  0  0  0  0  0  0  0
  -22.2582   -8.7435   20.2925 C   0  0  0  0  0  0  0  0  0  0  0  0
  -23.0764   -8.7872   22.5653 C   0  0  0  0  0  0  0  0  0  0  0  0
  -25.0452  -22.2213   25.1131 C   0  0  0  0  0  0  0  0  0  0  0  0
  -23.3426   -5.4551   22.0582 C   0  0  0  0  0  0  0  0  0  0  0  0
  -23.9730   -4.4401   22.7778 C   0  0  0  0  0  0  0  0  0  0  0  0
  -23.3470  -23.4193   23.8883 C   0  0  0  0  0  0  0  0  0  0  0  0
  -22.3163   -4.6491   24.5239 C   0  0  0  0  0  0  0  0  0  0  0  0
  -23.7786  -10.4844   20.9958 C   0  0  0  0  0  0  0  0  0  0  0  0
  -24.1252  -13.0059   20.8235 C   0  0  0  0  0  0  0  0  0  0  0  0
  -21.2754  -15.2901   24.6751 C   0  0  0  0  0  0  0  0  0  0  0  0
  -22.6985  -21.7301   25.4963 C   0  0  0  0  0  0  0  0  0  0  0  0
  -21.6897  -16.5361   24.1670 C   0  0  0  0  0  0  0  0  0  0  0  0
  -22.3396  -22.7043   24.5539 C   0  0  0  0  0  0  0  0  0  0  0  0
  -22.2968   -8.1924   21.5732 C   0  0  0  0  0  0  0  0  0  0  0  0
  -24.6923  -23.1776   24.1654 C   0  0  0  0  0  0  0  0  0  0  0  0
  -22.1990   -6.0672   22.5714 C   0  0  0  0  0  0  0  0  0  0  0  0
  -23.4599   -4.0370   24.0106 C   0  0  0  0  0  0  0  0  0  0  0  0
  -21.6859   -5.6641   23.8043 C   0  0  0  0  0  0  0  0  0  0  0  0
  -24.5446  -11.6679   20.6980 C   0  0  0  0  0  0  0  0  0  0  0  0
  -31.7065  -18.9854   21.2156 C   0  0  0  0  0  0  0  0  0  0  0  0
  -25.2101  -13.7451   20.4196 C   0  0  0  0  0  0  0  0  0  0  0  0
  -30.4800  -19.6062   21.3279 C   0  0  0  0  0  0  0  0  0  0  0  0
  -30.4215  -17.2383   20.8895 C   0  0  0  0  0  0  0  0  0  0  0  0
  -22.8675  -13.5333   21.2657 C   0  0  0  0  0  0  0  0  0  0  0  0
  -20.3213  -19.9640   24.3415 C   0  0  0  0  0  0  0  0  0  0  0  0
  -18.5487  -22.5873   25.0473 C   0  0  0  0  0  0  0  0  0  0  0  0
  -18.4440  -25.9578   25.5722 C   0  0  0  0  0  0  0  0  0  0  0  0
  -30.6822  -14.7738   20.4368 C   0  0  0  0  0  0  0  0  0  0  0  0
  -19.8198  -14.8986   24.7264 C   0  0  0  0  0  0  0  0  0  0  0  0
  -21.6397  -20.9657   26.2427 C   0  0  0  0  0  0  0  0  0  0  0  0
  -20.8991  -23.0004   24.2286 C   0  0  0  0  0  0  0  0  0  0  0  0
  -18.8656  -16.0844   24.6091 C   0  0  0  0  0  0  0  0  0  0  0  0
  -29.5000  -12.3239   18.1397 C   0  0  0  0  0  0  0  0  0  0  0  0
  -19.2937  -17.0033   23.4693 C   0  0  0  0  0  0  0  0  0  0  0  0
  -28.0709  -12.0449   18.6108 C   0  0  0  0  0  0  0  0  0  0  0  0
  -30.4463  -12.5699   19.3135 C   0  0  0  0  0  0  0  0  0  0  0  0
  -28.5775  -13.3248   20.7302 C   0  0  0  0  0  0  0  0  0  0  0  0
  -20.6908  -17.5825   23.7227 C   0  0  1  0  0  0  0  0  0  0  0  0
  -20.3059  -20.9161   25.5038 C   0  0  1  0  0  0  0  0  0  0  0  0
  -27.5744  -13.1349   19.5808 C   0  0  2  0  0  0  0  0  0  0  0  0
  -33.8658  -19.5465   20.0426 C   0  0  0  0  0  0  0  0  0  0  0  0
  -33.8602  -19.0873   22.5213 C   0  0  0  0  0  0  0  0  0  0  0  0
  -16.8464  -27.8217   26.0927 C   0  0  0  0  0  0  0  0  0  0  0  0
  -17.5540  -22.5370   22.1632 C   0  0  0  0  0  0  0  0  0  0  0  0
  -16.7535  -24.8891   22.4716 C   0  0  0  0  0  0  0  0  0  0  0  0
  -15.7954  -23.0546   23.8643 C   0  0  0  0  0  0  0  0  0  0  0  0
  -26.7303  -23.4981   20.8097 C   0  0  0  0  0  0  0  0  0  0  0  0
  -27.8473  -25.2720   22.1770 C   0  0  0  0  0  0  0  0  0  0  0  0
  -19.8365  -26.6001   28.1035 C   0  0  0  0  0  0  0  0  0  0  0  0
  -28.8854  -21.4937   21.6745 C   0  0  0  0  0  0  0  0  0  0  0  0
  -26.9103  -23.2257   23.3088 C   0  0  0  0  0  0  0  0  0  1  0  0
  -33.0289  -19.6345   21.3389 C   0  0  0  0  0  0  0  0  0  0  0  0
  -18.1563  -23.8433   24.3072 C   0  0  1  0  0  0  0  0  0  0  0  0
  -17.8004  -26.7870   26.6689 C   0  0  2  0  0  0  0  0  0  0  0  0
  -28.9761  -23.0012   21.9047 C   0  0  2  0  0  0  0  0  0  0  0  0
  -17.0921  -23.5743   23.2061 C   0  0  0  0  0  0  0  0  0  0  0  0
  -27.6237  -23.7539   22.0385 C   0  0  0  0  0  0  0  0  0  0  0  0
  -25.7981  -11.5604   20.2493 N   0  0  0  0  0  0  0  0  0  0  0  0
  -31.6749  -17.6275   20.9646 N   0  0  0  0  0  0  0  0  0  0  0  0
  -26.1756  -12.8402   20.0893 N   0  0  0  0  0  0  0  0  0  0  0  0
  -19.9007  -22.2223   24.9805 N   0  0  0  0  0  0  0  0  0  0  0  0
  -29.9132  -13.6176   20.1869 N   0  0  0  0  0  0  0  0  0  0  0  0
  -25.4227  -15.0743   20.3183 N   0  0  0  0  0  0  0  0  0  0  0  0
  -21.8617  -12.6337   21.6443 N   0  0  0  0  0  0  0  0  0  0  0  0
  -30.2190  -20.9430   21.5754 N   0  0  0  0  0  0  0  0  0  0  0  0
  -29.9325  -15.9306   20.6476 N   0  0  0  0  0  0  0  0  0  0  0  0
  -20.6239  -18.6604   24.6860 N   0  0  0  0  0  0  0  0  0  0  0  0
  -17.7354  -24.8014   25.3237 N   0  0  0  0  0  0  0  0  0  0  0  0
  -18.8437  -27.4986   27.4601 N   0  3  0  0  0  0  0  0  0  0  0  0
  -22.6366  -14.7656   21.3078 O   0  0  0  0  0  0  0  0  0  0  0  0
  -20.0753  -20.3808   23.2158 O   0  0  0  0  0  0  0  0  0  0  0  0
  -17.6886  -21.9574   25.6679 O   0  0  0  0  0  0  0  0  0  0  0  0
  -19.4705  -26.3034   24.9913 O   0  0  0  0  0  0  0  0  0  0  0  0
  -31.9156  -14.7458   20.4351 O   0  0  0  0  0  0  0  0  0  0  0  0
  -21.5738   -7.0742   21.8554 O   0  0  0  0  0  0  0  0  0  0  0  0
  -25.6586  -23.8797   23.5135 O   0  0  0  0  0  0  0  0  0  1  0  0
  -24.0645   -3.0612   24.7009 F   0  0  0  0  0  0  0  0  0  0  0  0
  -20.5869   -6.2476   24.3019 F   0  0  0  0  0  0  0  0  0  0  0  0
  -29.6500  -23.5317   20.8374 F   0  0  0  0  0  0  0  0  0  0  0  0
  -29.2295  -18.4529   21.1103 S   0  0  0  0  0  0  0  0  0  0  0  0
  1  2  1  0  0  0  0
  1  5  2  0  0  0  0
  2  6  2  0  0  0  0
  3  8  2  0  0  0  0
  3 15  1  0  0  0  0
  4  9  1  0  0  0  0
  4 15  2  0  0  0  0
  5 17  1  0  0  0  0
  6 19  1  0  0  0  0
  7 10  2  0  0  0  0
  7 18  1  0  0  0  0
  8 21  1  0  0  0  0
  9 21  2  0  0  0  0
 10 22  1  0  0  0  0
 11 12  2  0  0  0  0
 11 23  1  0  0  0  0
 12 24  1  0  0  0  0
 13 20  1  0  0  0  0
 13 22  2  0  0  0  0
 14 24  2  0  0  0  0
 14 25  1  0  0  0  0
 15 26  1  0  0  0  0
 16 26  1  0  0  0  0
 16 28  2  0  0  0  0
 16 31  1  0  0  0  0
 17 19  2  0  0  0  0
 17 36  1  0  0  0  0
 18 20  2  0  0  0  0
 18 37  1  0  0  0  0
 19 45  1  0  0  0  0
 20 38  1  0  0  0  0
 21 82  1  0  0  0  0
 22 83  1  0  0  0  0
 23 25  2  0  0  0  0
 23 82  1  0  0  0  0
 24 84  1  0  0  0  0
 25 85  1  0  0  0  0
 26 65  2  0  0  0  0
 27 29  2  0  0  0  0
 27 59  1  0  0  0  0
 27 66  1  0  0  0  0
 28 67  1  0  0  0  0
 28 70  1  0  0  0  0
 29 72  1  0  0  0  0
 29 87  1  0  0  0  0
 30 66  2  0  0  0  0
 30 73  1  0  0  0  0
 30 87  1  0  0  0  0
 31 71  1  0  0  0  0
 31 77  2  0  0  0  0
 32 46  1  0  0  0  0
 32 74  1  0  0  0  0
 32 78  2  0  0  0  0
 33 60  1  0  0  0  0
 33 68  1  0  0  0  0
 33 79  2  0  0  0  0
 34 61  1  0  0  0  0
 34 75  1  0  0  0  0
 34 80  2  0  0  0  0
 35 69  1  0  0  0  0
 35 73  1  0  0  0  0
 35 81  2  0  0  0  0
 36 39  1  0  0  0  0
 37 46  1  0  0  0  0
 38 68  1  0  0  0  0
 39 41  1  0  0  0  0
 40 42  1  0  0  0  0
 40 43  1  0  0  0  0
 41 45  1  0  0  0  0
 42 47  1  0  0  0  0
 43 69  1  0  0  0  0
 44 47  1  0  0  0  0
 44 69  1  0  0  0  0
 45 74  1  0  0  0  0
 46 68  1  0  0  0  0
 47 67  1  0  0  0  0
 48 59  1  0  0  0  0
 49 59  1  0  0  0  0
 50 61  1  0  0  0  0
 51 63  1  0  0  0  0
 52 63  1  0  0  0  0
 53 63  1  0  0  0  0
 54 64  1  0  0  0  0
 55 64  1  0  0  0  0
 56 76  1  0  0  0  0
 57 62  1  0  0  0  0
 57 72  1  0  0  0  0
 58 64  1  0  0  0  0
 58 83  1  0  0  0  0
 60 63  1  0  0  0  0
 60 75  1  0  0  0  0
 61 76  1  0  0  0  0
 62 64  1  0  0  0  0
 62 86  1  0  0  0  0
 65 67  1  0  0  0  0
M  CHG  1  76   1
M  ISO  4  35 100  58 101  73 100  83 101
M  END
> <Batch ID>
0186

> <Smiles>
CNC(C)C(=O)NC(C(=O)N1Cc2cc([101O:1][101CH2:1]C(C)(C)C(F)CNc3sc([100NH:0][100C:0](=O)N4CCCC(n5nc(-c6ccc(Oc7ccc(F)cc7F)cc6)c(C(N)=O)c5N)C4)nc3C(C)C)ccc2CC1C(=O)NC1CCCc2ccccc21)C(C)(C)C

> <Shape>
0.195

> <Color>
0.185

> <Negative vol penalty>
0.000

$$$$

  -OEChem-04052305093D

 84 92  0     1  0  0  0  0  0999 V2000
  -28.4043  -24.9674   16.3671 C   0  0  0  0  0  0  0  0  0  0  0  0
  -27.2362  -25.0398   17.1192 C   0  0  0  0  0  0  0  0  0  0  0  0
  -26.8524  -13.3709   19.0551 C   0  0  0  0  0  0  0  0  0  0  0  0
  -24.9087  -14.1287   20.2737 C   0  0  0  0  0  0  0  0  0  0  0  0
  -29.5745  -25.5597   16.8402 C   0  0  0  0  0  0  0  0  0  0  0  0
  -27.2378  -25.7037   18.3454 C   0  0  0  0  0  0  0  0  0  0  0  0
  -23.2138  -28.7229   18.9254 C   0  0  0  0  0  0  0  0  0  0  0  0
  -26.7432  -12.1186   19.6597 C   0  0  0  0  0  0  0  0  0  0  0  0
  -24.7995  -12.8764   20.8783 C   0  0  0  0  0  0  0  0  0  0  0  0
  -22.0055  -28.1154   19.2642 C   0  0  0  0  0  0  0  0  0  0  0  0
  -23.6433   -9.8087   20.0581 C   0  0  0  0  0  0  0  0  0  0  0  0
  -22.3752   -9.2317   20.1257 C   0  0  0  0  0  0  0  0  0  0  0  0
  -22.3438  -28.7416   21.5691 C   0  0  0  0  0  0  0  0  0  0  0  0
  -22.5230   -9.1892   22.5368 C   0  0  0  0  0  0  0  0  0  0  0  0
  -25.9352  -14.3759   19.3621 C   0  0  0  0  0  0  0  0  0  0  0  0
  -25.4537  -16.0866   17.5320 C   0  0  0  0  0  0  0  0  0  0  0  0
  -29.5881  -26.2395   18.0683 C   0  0  0  0  0  0  0  0  0  0  0  0
  -24.0028  -29.3359   19.9094 C   0  0  0  0  0  0  0  0  0  0  0  0
  -28.4096  -26.3045   18.8360 C   0  0  0  0  0  0  0  0  0  0  0  0
  -23.5605  -29.3584   21.2398 C   0  0  0  0  0  0  0  0  0  0  0  0
  -25.7168  -11.8714   20.5713 C   0  0  0  0  0  0  0  0  0  0  0  0
  -21.5718  -28.1221   20.5866 C   0  0  0  0  0  0  0  0  0  0  0  0
  -24.3513  -10.0759   21.2299 C   0  0  0  0  0  0  0  0  0  0  0  0
  -21.8150   -8.9220   21.3650 C   0  0  0  0  0  0  0  0  0  0  0  0
  -23.7911   -9.7662   22.4692 C   0  0  0  0  0  0  0  0  0  0  0  0
  -26.0477  -15.6699   18.7383 C   0  0  0  0  0  0  0  0  0  0  0  0
  -24.7097  -24.5483   22.7543 C   0  0  0  0  0  0  0  0  0  0  0  0
  -25.8642  -17.3884   17.3789 C   0  0  0  0  0  0  0  0  0  0  0  0
  -23.5012  -24.1042   22.2600 C   0  0  0  0  0  0  0  0  0  0  0  0
  -25.4248  -22.7763   21.6778 C   0  0  0  0  0  0  0  0  0  0  0  0
  -24.6065  -15.3619   16.6305 C   0  0  0  0  0  0  0  0  0  0  0  0
  -26.9289  -28.8602   21.0562 C   0  0  0  0  0  0  0  0  0  0  0  0
  -26.3051  -31.5849   22.7020 C   0  0  0  0  0  0  0  0  0  0  0  0
  -23.9782  -33.7069   24.0171 C   0  0  0  0  0  0  0  0  0  0  0  0
  -21.0236  -24.0625   21.8294 C   0  0  0  0  0  0  0  0  0  0  0  0
  -27.6093  -21.5996   21.2422 C   0  0  0  0  0  0  0  0  0  0  0  0
  -30.8887  -26.8233   18.5604 C   0  0  0  0  0  0  0  0  0  0  0  0
  -25.2907  -30.0101   19.5233 C   0  0  0  0  0  0  0  0  0  0  0  0
  -24.3607  -30.0208   22.3304 C   0  0  0  0  0  0  0  0  0  0  0  0
  -30.7139  -27.8305   19.6941 C   0  0  0  0  0  0  0  0  0  0  0  0
  -29.4757  -20.3312   18.4883 C   0  0  0  0  0  0  0  0  0  0  0  0
  -29.7585  -27.2847   20.7506 C   0  0  0  0  0  0  0  0  0  0  0  0
  -28.7508  -19.0329   18.1262 C   0  0  0  0  0  0  0  0  0  0  0  0
  -29.4961  -20.5675   19.9974 C   0  0  0  0  0  0  0  0  0  0  0  0
  -27.4578  -19.2152   20.2899 C   0  0  0  0  0  0  0  0  0  0  0  0
  -28.3654  -27.0372   20.1594 C   0  0  1  0  0  0  0  0  0  0  0  0
  -26.2620  -30.1560   20.6906 C   0  0  1  0  0  0  0  0  0  0  0  0
  -27.3548  -18.9668   18.7762 C   0  0  2  0  0  0  0  0  0  0  0  0
  -24.9183  -25.7462   23.5934 C   0  0  0  0  0  0  0  0  0  0  0  0
  -23.7723  -35.8295   25.3399 C   0  0  0  0  0  0  0  0  0  0  0  0
  -27.0381  -30.0678   25.2458 C   0  0  0  0  0  0  0  0  0  0  0  0
  -25.9249  -31.8814   26.5649 C   0  0  0  0  0  0  0  0  0  0  0  0
  -27.9045  -32.4115   25.1427 C   0  0  0  0  0  0  0  0  0  0  0  0
  -22.5443  -35.0745   21.8189 C   0  0  0  0  0  0  0  0  0  0  0  0
  -19.0993  -25.4779   20.9532 C   0  0  0  0  0  0  0  0  0  0  0  0
  -19.9802  -26.4150   20.1301 C   0  0  0  0  0  0  0  0  0  1  0  0
  -25.6857  -31.9074   24.0404 C   0  0  1  0  0  0  0  0  0  0  0  0
  -23.8399  -35.2172   23.9495 C   0  0  2  0  0  0  0  0  0  0  0  0
  -19.7949  -24.8839   22.1808 C   0  0  2  0  0  0  0  0  0  0  0  0
  -26.6239  -31.5528   25.2285 C   0  0  0  0  0  0  0  0  0  0  0  0
  -26.7800  -16.6291   19.3108 N   0  0  0  0  0  0  0  0  0  0  0  0
  -25.8138  -23.7878   22.4219 N   0  0  0  0  0  0  0  0  0  0  0  0
  -26.6489  -17.6615   18.4605 N   0  0  0  0  0  0  0  0  0  0  0  0
  -25.6160  -30.6609   21.9038 N   0  0  0  0  0  0  0  0  0  0  0  0
  -28.1390  -20.4945   20.5431 N   0  0  0  0  0  0  0  0  0  0  0  0
  -25.6269  -18.3146   16.4259 N   0  0  0  0  0  0  0  0  0  0  0  0
  -24.2833  -14.0336   16.9395 N   0  0  0  0  0  0  0  0  0  0  0  0
  -22.1810  -24.5997   22.3779 N   0  0  0  0  0  0  0  0  0  0  0  0
  -26.2285  -21.7517   21.1194 N   0  0  0  0  0  0  0  0  0  0  0  0
  -27.6450  -28.2850   20.0237 N   0  0  0  0  0  0  0  0  0  0  0  0
  -25.2992  -33.3130   23.9833 N   0  0  0  0  0  0  0  0  0  0  0  0
  -22.6010  -35.5913   23.2105 N   0  3  0  0  0  0  0  0  0  0  0  0
  -24.1630  -15.8718   15.5737 O   0  0  0  0  0  0  0  0  0  0  0  0
  -26.8043  -28.4158   22.1914 O   0  0  0  0  0  0  0  0  0  0  0  0
  -27.3577  -32.1380   22.3737 O   0  0  0  0  0  0  0  0  0  0  0  0
  -23.0113  -32.9524   24.0961 O   0  0  0  0  0  0  0  0  0  0  0  0
  -20.9211  -23.0615   21.1261 O   0  0  0  0  0  0  0  0  0  0  0  0
  -28.3311  -22.3712   21.8791 O   0  0  0  0  0  0  0  0  0  0  0  0
  -25.6098  -10.6495   21.1612 O   0  0  0  0  0  0  0  0  0  0  0  0
  -20.3931  -27.5293   20.9201 O   0  0  0  0  0  0  0  0  0  1  0  0
  -20.5966   -8.3693   21.4298 F   0  0  0  0  0  0  0  0  0  0  0  0
  -24.4660  -10.0217   23.5985 F   0  0  0  0  0  0  0  0  0  0  0  0
  -20.1240  -25.8955   23.0332 F   0  0  0  0  0  0  0  0  0  0  0  0
  -23.7454  -22.6786   21.3385 S   0  0  0  0  0  0  0  0  0  0  0  0
  1  2  1  0  0  0  0
  1  5  2  0  0  0  0
  2  6  2  0  0  0  0
  3  8  2  0  0  0  0
  3 15  1  0  0  0  0
  4  9  1  0  0  0  0
  4 15  2  0  0  0  0
  5 17  1  0  0  0  0
  6 19  1  0  0  0  0
  7 10  2  0  0  0  0
  7 18  1  0  0  0  0
  8 21  1  0  0  0  0
  9 21  2  0  0  0  0
 10 22  1  0  0  0  0
 11 12  2  0  0  0  0
 11 23  1  0  0  0  0
 12 24  1  0  0  0  0
 13 20  1  0  0  0  0
 13 22  2  0  0  0  0
 14 24  2  0  0  0  0
 14 25  1  0  0  0  0
 15 26  1  0  0  0  0
 16 26  1  0  0  0  0
 16 28  2  0  0  0  0
 16 31  1  0  0  0  0
 17 19  2  0  0  0  0
 17 37  1  0  0  0  0
 18 20  2  0  0  0  0
 18 38  1  0  0  0  0
 19 46  1  0  0  0  0
 20 39  1  0  0  0  0
 21 79  1  0  0  0  0
 22 80  1  0  0  0  0
 23 25  2  0  0  0  0
 23 79  1  0  0  0  0
 24 81  1  0  0  0  0
 25 82  1  0  0  0  0
 26 61  2  0  0  0  0
 27 29  2  0  0  0  0
 27 49  1  0  0  0  0
 27 62  1  0  0  0  0
 28 63  1  0  0  0  0
 28 66  1  0  0  0  0
 29 68  1  0  0  0  0
 29 84  1  0  0  0  0
 30 62  2  0  0  0  0
 30 69  1  0  0  0  0
 30 84  1  0  0  0  0
 31 67  1  0  0  0  0
 31 73  2  0  0  0  0
 32 47  1  0  0  0  0
 32 70  1  0  0  0  0
 32 74  2  0  0  0  0
 33 57  1  0  0  0  0
 33 64  1  0  0  0  0
 33 75  2  0  0  0  0
 34 58  1  0  0  0  0
 34 71  1  0  0  0  0
 34 76  2  0  0  0  0
 35 59  1  0  0  0  0
 35 68  1  0  0  0  0
 35 77  2  0  0  0  0
 36 65  1  0  0  0  0
 36 69  1  0  0  0  0
 36 78  2  0  0  0  0
 37 40  1  0  0  0  0
 38 47  1  0  0  0  0
 39 64  1  0  0  0  0
 40 42  1  0  0  0  0
 41 43  1  0  0  0  0
 41 44  1  0  0  0  0
 42 46  1  0  0  0  0
 43 48  1  0  0  0  0
 44 65  1  0  0  0  0
 45 48  1  0  0  0  0
 45 65  1  0  0  0  0
 46 70  1  0  0  0  0
 47 64  1  0  0  0  0
 48 63  1  0  0  0  0
 50 58  1  0  0  0  0
 51 60  1  0  0  0  0
 52 60  1  0  0  0  0
 53 60  1  0  0  0  0
 54 72  1  0  0  0  0
 55 56  1  0  0  0  0
 55 59  1  0  0  0  0
 56 80  1  0  0  0  0
 57 60  1  0  0  0  0
 57 71  1  0  0  0  0
 58 72  1  0  0  0  0
 59 83  1  0  0  0  0
 61 63  1  0  0  0  0
M  CHG  1  72   1
M  ISO  4  36 100  56 101  69 100  80 101
M  END
> <Batch ID>
0186

> <Smiles>
CNC(C)C(=O)NC(C(=O)N1Cc2cc([101O:1][101CH2:1]CC(F)C(=O)Nc3sc([100NH:0][100C:0](=O)N4CCCC(n5nc(-c6ccc(Oc7ccc(F)cc7F)cc6)c(C(N)=O)c5N)C4)nc3C)ccc2CC1C(=O)NC1CCCc2ccccc21)C(C)(C)C

> <Shape>
0.301

> <Color>
0.083

> <Negative vol penalty>
0.000

$$$$

  -OEChem-04052305093D

 85 93  0     1  0  0  0  0  0999 V2000
  -21.3412  -17.2171   26.0985 C   0  0  0  0  0  0  0  0  0  0  0  0
  -22.6729  -17.5976   25.9674 C   0  0  0  0  0  0  0  0  0  0  0  0
  -30.2290  -21.8939   15.3159 C   0  0  0  0  0  0  0  0  0  0  0  0
  -25.6631  -13.1874   21.6103 C   0  0  0  0  0  0  0  0  0  0  0  0
  -25.3673  -13.7274   19.2741 C   0  0  0  0  0  0  0  0  0  0  0  0
  -20.3561  -17.8640   25.3536 C   0  0  0  0  0  0  0  0  0  0  0  0
  -23.0204  -18.6245   25.0904 C   0  0  0  0  0  0  0  0  0  0  0  0
  -27.7418  -23.9580   24.3296 C   0  0  0  0  0  0  0  0  0  0  0  0
  -24.6217  -12.2630   21.5286 C   0  0  0  0  0  0  0  0  0  0  0  0
  -24.3259  -12.8029   19.1923 C   0  0  0  0  0  0  0  0  0  0  0  0
  -28.6586  -24.4616   23.4078 C   0  0  0  0  0  0  0  0  0  0  0  0
  -24.1734   -9.1098   20.3932 C   0  0  0  0  0  0  0  0  0  0  0  0
  -24.3683   -7.8601   20.9812 C   0  0  0  0  0  0  0  0  0  0  0  0
  -29.6111  -21.1513   16.3159 C   0  0  0  0  0  0  0  0  0  0  0  0
  -30.4477  -23.2544   15.5023 C   0  0  0  0  0  0  0  0  0  0  0  0
  -26.8625  -25.5610   22.2311 C   0  0  0  0  0  0  0  0  0  0  0  0
  -22.4758   -8.2477   22.4322 C   0  0  0  0  0  0  0  0  0  0  0  0
  -26.0358  -13.9196   20.4831 C   0  0  0  0  0  0  0  0  0  0  0  0
  -28.4796  -14.6370   20.3386 C   0  0  0  0  0  0  0  0  0  0  0  0
  -20.6905  -18.9059   24.4742 C   0  0  0  0  0  0  0  0  0  0  0  0
  -26.3748  -24.2437   24.2026 C   0  0  0  0  0  0  0  0  0  0  0  0
  -22.0390  -19.2850   24.3320 C   0  0  0  0  0  0  0  0  0  0  0  0
  -25.9307  -25.0619   23.1541 C   0  0  0  0  0  0  0  0  0  0  0  0
  -23.9532  -12.0708   20.3195 C   0  0  0  0  0  0  0  0  0  0  0  0
  -28.2187  -25.2608   22.3567 C   0  0  0  0  0  0  0  0  0  0  0  0
  -23.1298   -9.9285   20.8247 C   0  0  0  0  0  0  0  0  0  0  0  0
  -23.5195   -7.4290   22.0007 C   0  0  0  0  0  0  0  0  0  0  0  0
  -22.2809   -9.4975   21.8441 C   0  0  0  0  0  0  0  0  0  0  0  0
  -27.1111  -14.8750   20.5671 C   0  0  0  0  0  0  0  0  0  0  0  0
  -29.2340  -21.8111   17.4745 C   0  0  0  0  0  0  0  0  0  0  0  0
  -30.0328  -23.8200   16.6971 C   0  0  0  0  0  0  0  0  0  0  0  0
  -29.0791  -15.8556   20.5435 C   0  0  0  0  0  0  0  0  0  0  0  0
  -29.1492  -13.4228   19.9736 C   0  0  0  0  0  0  0  0  0  0  0  0
  -23.7529  -22.5055   23.7460 C   0  0  0  0  0  0  0  0  0  0  0  0
  -29.5883  -27.4710   17.2058 C   0  0  0  0  0  0  0  0  0  0  0  0
  -29.7670  -25.8078   19.1243 C   0  0  0  0  0  0  0  0  0  0  0  0
  -22.2600  -25.3511   24.1889 C   0  0  0  0  0  0  0  0  0  0  0  0
  -22.4269  -28.7581   24.0812 C   0  0  0  0  0  0  0  0  0  0  0  0
  -28.1457  -21.4964   19.7246 C   0  0  0  0  0  0  0  0  0  0  0  0
  -19.5965  -19.5435   23.6549 C   0  0  0  0  0  0  0  0  0  0  0  0
  -25.4019  -23.7148   25.2206 C   0  0  0  0  0  0  0  0  0  0  0  0
  -24.4763  -25.4148   22.9849 C   0  0  0  0  0  0  0  0  0  0  0  0
  -20.0029  -20.8741   23.0266 C   0  0  0  0  0  0  0  0  0  0  0  0
  -27.8218  -19.9989   22.9386 C   0  0  0  0  0  0  0  0  0  0  0  0
  -21.3766  -20.7586   22.3736 C   0  0  0  0  0  0  0  0  0  0  0  0
  -27.7393  -18.5014   22.6341 C   0  0  0  0  0  0  0  0  0  0  0  0
  -27.1024  -20.8333   21.8802 C   0  0  0  0  0  0  0  0  0  0  0  0
  -27.4305  -19.0702   20.1911 C   0  0  0  0  0  0  0  0  0  0  0  0
  -22.4525  -20.4111   23.4095 C   0  0  1  0  0  0  0  0  0  0  0  0
  -23.9698  -23.6465   24.6993 C   0  0  1  0  0  0  0  0  0  0  0  0
  -28.1963  -18.1929   21.1948 C   0  0  2  0  0  0  0  0  0  0  0  0
  -28.6876  -27.9339   16.0880 C   0  0  0  0  0  0  0  0  0  0  0  0
  -21.0355  -30.8115   24.4620 C   0  0  0  0  0  0  0  0  0  0  0  0
  -20.8330  -24.8735   21.5346 C   0  0  0  0  0  0  0  0  0  0  0  0
  -20.2228  -27.3015   21.5055 C   0  0  0  0  0  0  0  0  0  0  0  0
  -19.3884  -25.8295   23.3384 C   0  0  0  0  0  0  0  0  0  0  0  0
  -24.2255  -29.7204   26.2255 C   0  0  0  0  0  0  0  0  0  0  0  0
  -28.6394  -25.9705   20.1262 C   0  0  0  0  0  0  0  0  0  1  0  0
  -29.4120  -26.0336   17.6667 C   0  0  2  0  0  0  0  0  0  0  0  0
  -21.8299  -26.4842   23.2889 C   0  0  1  0  0  0  0  0  0  0  0  0
  -22.0070  -29.8193   25.0822 C   0  0  2  0  0  0  0  0  0  0  0  0
  -20.5958  -26.1141   22.4186 C   0  0  0  0  0  0  0  0  0  0  0  0
  -26.8560  -16.1451   20.8925 N   0  0  0  0  0  0  0  0  0  0  0  0
  -29.4296  -23.1310   17.6916 N   0  0  0  0  0  0  0  0  0  0  0  0
  -28.0724  -16.7160   20.8699 N   0  0  0  0  0  0  0  0  0  0  0  0
  -23.5631  -24.8684   24.0023 N   0  0  0  0  0  0  0  0  0  0  0  0
  -27.5899  -20.4901   20.5426 N   0  0  0  0  0  0  0  0  0  0  0  0
  -30.3638  -16.2645   20.4746 N   0  0  0  0  0  0  0  0  0  0  0  0
  -28.3822  -12.2621   19.8032 N   0  0  0  0  0  0  0  0  0  0  0  0
  -28.6050  -21.0456   18.4875 N   0  0  0  0  0  0  0  0  0  0  0  0
  -30.2574  -25.1760   16.8683 N   0  0  0  0  0  0  0  0  0  0  0  0
  -22.8156  -21.5849   24.1742 N   0  0  0  0  0  0  0  0  0  0  0  0
  -21.6246  -27.6391   24.1563 N   0  0  0  0  0  0  0  0  0  0  0  0
  -23.1977  -30.5703   25.5710 N   0  3  0  0  0  0  0  0  0  0  0  0
  -30.3927  -13.3650   19.8197 O   0  0  0  0  0  0  0  0  0  0  0  0
  -24.3879  -22.4643   22.6987 O   0  0  0  0  0  0  0  0  0  0  0  0
  -30.4093  -28.2368   17.7107 O   0  0  0  0  0  0  0  0  0  0  0  0
  -30.9050  -25.4961   19.4754 O   0  0  0  0  0  0  0  0  0  0  0  0
  -21.4714  -24.9153   25.0314 O   0  0  0  0  0  0  0  0  0  0  0  0
  -23.3697  -28.9083   23.3073 O   0  0  0  0  0  0  0  0  0  0  0  0
  -28.2343  -22.6666   20.1051 O   0  0  0  0  0  0  0  0  0  0  0  0
  -22.9371  -11.1687   20.2393 O   0  0  0  0  0  0  0  0  0  0  0  0
  -29.1113  -25.7531   21.4552 O   0  0  0  0  0  0  0  0  0  1  0  0
  -23.7058   -6.2282   22.5642 F   0  0  0  0  0  0  0  0  0  0  0  0
  -21.2759  -10.2791   22.2621 F   0  0  0  0  0  0  0  0  0  0  0  0
  1  2  1  0  0  0  0
  1  6  2  0  0  0  0
  2  7  2  0  0  0  0
  3 14  1  0  0  0  0
  3 15  2  0  0  0  0
  4  9  2  0  0  0  0
  4 18  1  0  0  0  0
  5 10  1  0  0  0  0
  5 18  2  0  0  0  0
  6 20  1  0  0  0  0
  7 22  1  0  0  0  0
  8 11  2  0  0  0  0
  8 21  1  0  0  0  0
  9 24  1  0  0  0  0
 10 24  2  0  0  0  0
 11 25  1  0  0  0  0
 12 13  2  0  0  0  0
 12 26  1  0  0  0  0
 13 27  1  0  0  0  0
 14 30  2  0  0  0  0
 15 31  1  0  0  0  0
 16 23  1  0  0  0  0
 16 25  2  0  0  0  0
 17 27  2  0  0  0  0
 17 28  1  0  0  0  0
 18 29  1  0  0  0  0
 19 29  1  0  0  0  0
 19 32  2  0  0  0  0
 19 33  1  0  0  0  0
 20 22  2  0  0  0  0
 20 40  1  0  0  0  0
 21 23  2  0  0  0  0
 21 41  1  0  0  0  0
 22 49  1  0  0  0  0
 23 42  1  0  0  0  0
 24 82  1  0  0  0  0
 25 83  1  0  0  0  0
 26 28  2  0  0  0  0
 26 82  1  0  0  0  0
 27 84  1  0  0  0  0
 28 85  1  0  0  0  0
 29 63  2  0  0  0  0
 30 64  1  0  0  0  0
 30 70  1  0  0  0  0
 31 64  2  0  0  0  0
 31 71  1  0  0  0  0
 32 65  1  0  0  0  0
 32 68  1  0  0  0  0
 33 69  1  0  0  0  0
 33 75  2  0  0  0  0
 34 50  1  0  0  0  0
 34 72  1  0  0  0  0
 34 76  2  0  0  0  0
 35 52  1  0  0  0  0
 35 59  1  0  0  0  0
 35 77  2  0  0  0  0
 36 58  1  0  0  0  0
 36 59  1  0  0  0  0
 36 78  2  0  0  0  0
 37 60  1  0  0  0  0
 37 66  1  0  0  0  0
 37 79  2  0  0  0  0
 38 61  1  0  0  0  0
 38 73  1  0  0  0  0
 38 80  2  0  0  0  0
 39 67  1  0  0  0  0
 39 70  1  0  0  0  0
 39 81  2  0  0  0  0
 40 43  1  0  0  0  0
 41 50  1  0  0  0  0
 42 66  1  0  0  0  0
 43 45  1  0  0  0  0
 44 46  1  0  0  0  0
 44 47  1  0  0  0  0
 45 49  1  0  0  0  0
 46 51  1  0  0  0  0
 47 67  1  0  0  0  0
 48 51  1  0  0  0  0
 48 67  1  0  0  0  0
 49 72  1  0  0  0  0
 50 66  1  0  0  0  0
 51 65  1  0  0  0  0
 53 61  1  0  0  0  0
 54 62  1  0  0  0  0
 55 62  1  0  0  0  0
 56 62  1  0  0  0  0
 57 74  1  0  0  0  0
 58 83  1  0  0  0  0
 59 71  1  0  0  0  0
 60 62  1  0  0  0  0
 60 73  1  0  0  0  0
 61 74  1  0  0  0  0
 63 65  1  0  0  0  0
M  CHG  1  74   1
M  ISO  4  39 100  58 101  70 100  83 101
M  END
> <Batch ID>
0186

> <Smiles>
CNC(C)C(=O)NC(C(=O)N1Cc2cc([101O:1][101CH2:1]C(=O)C(Nc3cccc([100NH:0][100C:0](=O)N4CCCC(n5nc(-c6ccc(Oc7ccc(F)cc7F)cc6)c(C(N)=O)c5N)C4)n3)C(C)=O)ccc2CC1C(=O)NC1CCCc2ccccc21)C(C)(C)C

> <Shape>
0.207

> <Color>
0.071

> <Negative vol penalty>
0.000

$$$$

  -OEChem-04052305093D

 85 93  0     1  0  0  0  0  0999 V2000
  -30.1257  -23.9338   19.2209 C   0  0  0  0  0  0  0  0  0  0  0  0
  -28.8787  -24.5001   18.9817 C   0  0  0  0  0  0  0  0  0  0  0  0
  -24.7491  -11.9790   20.0001 C   0  0  0  0  0  0  0  0  0  0  0  0
  -25.4662  -12.6338   22.2123 C   0  0  0  0  0  0  0  0  0  0  0  0
  -30.7664  -24.1570   20.4378 C   0  0  0  0  0  0  0  0  0  0  0  0
  -28.2773  -25.2994   19.9545 C   0  0  0  0  0  0  0  0  0  0  0  0
  -22.7897  -27.9452   20.0700 C   0  0  0  0  0  0  0  0  0  0  0  0
  -25.0964  -10.6572   20.2787 C   0  0  0  0  0  0  0  0  0  0  0  0
  -25.8135  -11.3119   22.4910 C   0  0  0  0  0  0  0  0  0  0  0  0
  -21.5070  -27.6351   20.5200 C   0  0  0  0  0  0  0  0  0  0  0  0
  -25.4580   -7.0490   20.5346 C   0  0  0  0  0  0  0  0  0  0  0  0
  -24.5559   -6.0504   20.1677 C   0  0  0  0  0  0  0  0  0  0  0  0
  -21.9356  -28.8493   22.5599 C   0  0  0  0  0  0  0  0  0  0  0  0
  -22.8794   -7.0389   21.5992 C   0  0  0  0  0  0  0  0  0  0  0  0
  -24.5227  -24.5035   21.7902 C   0  0  0  0  0  0  0  0  0  0  0  0
  -24.9341  -12.9674   20.9669 C   0  0  0  0  0  0  0  0  0  0  0  0
  -23.3302  -14.9500   20.9009 C   0  0  0  0  0  0  0  0  0  0  0  0
  -30.1663  -24.9493   21.4303 C   0  0  0  0  0  0  0  0  0  0  0  0
  -23.6603  -28.7017   20.8677 C   0  0  0  0  0  0  0  0  0  0  0  0
  -28.9187  -25.5560   21.1798 C   0  0  0  0  0  0  0  0  0  0  0  0
  -23.2279  -29.1697   22.1167 C   0  0  0  0  0  0  0  0  0  0  0  0
  -25.6285  -10.3236   21.5242 C   0  0  0  0  0  0  0  0  0  0  0  0
  -21.0809  -28.0847   21.7663 C   0  0  0  0  0  0  0  0  0  0  0  0
  -25.0708   -8.0426   21.4338 C   0  0  0  0  0  0  0  0  0  0  0  0
  -23.2666   -6.0453   20.6999 C   0  0  0  0  0  0  0  0  0  0  0  0
  -23.7815   -8.0375   21.9661 C   0  0  0  0  0  0  0  0  0  0  0  0
  -24.5761  -14.3331   20.6794 C   0  0  0  0  0  0  0  0  0  0  0  0
  -23.5687  -23.9925   22.6451 C   0  0  0  0  0  0  0  0  0  0  0  0
  -23.5035  -16.2405   20.4637 C   0  0  0  0  0  0  0  0  0  0  0  0
  -24.9303  -22.3681   21.5007 C   0  0  0  0  0  0  0  0  0  0  0  0
  -22.1241  -14.4053   21.4526 C   0  0  0  0  0  0  0  0  0  0  0  0
  -26.4892  -28.1788   22.2196 C   0  0  0  0  0  0  0  0  0  0  0  0
  -26.2669  -31.3225   22.9877 C   0  0  0  0  0  0  0  0  0  0  0  0
  -24.2720  -34.0351   23.5437 C   0  0  0  0  0  0  0  0  0  0  0  0
  -26.5042  -20.9215   20.1678 C   0  0  0  0  0  0  0  0  0  0  0  0
  -30.9077  -25.1644   22.7262 C   0  0  0  0  0  0  0  0  0  0  0  0
  -25.0313  -29.0502   20.3565 C   0  0  0  0  0  0  0  0  0  0  0  0
  -24.1169  -30.0024   23.0026 C   0  0  0  0  0  0  0  0  0  0  0  0
  -30.0041  -25.6517   23.8542 C   0  0  0  0  0  0  0  0  0  0  0  0
  -27.2793  -18.3480   17.8325 C   0  0  0  0  0  0  0  0  0  0  0  0
  -29.1646  -26.8271   23.3767 C   0  0  0  0  0  0  0  0  0  0  0  0
  -26.5426  -17.1248   18.3832 C   0  0  0  0  0  0  0  0  0  0  0  0
  -27.8460  -19.2200   18.9515 C   0  0  0  0  0  0  0  0  0  0  0  0
  -26.1381  -18.4010   20.5267 C   0  0  0  0  0  0  0  0  0  0  0  0
  -28.2317  -26.4039   22.2350 C   0  0  1  0  0  0  0  0  0  0  0  0
  -26.0153  -29.3923   21.4709 C   0  0  1  0  0  0  0  0  0  0  0  0
  -25.4938  -17.5266   19.4387 C   0  0  2  0  0  0  0  0  0  0  0  0
  -24.3761  -36.4570   24.1923 C   0  0  0  0  0  0  0  0  0  0  0  0
  -18.8415  -25.0391   26.0385 C   0  0  0  0  0  0  0  0  0  0  0  0
  -19.2477  -23.0429   24.5829 C   0  0  0  0  0  0  0  0  0  0  0  0
  -17.9987  -26.8669   20.9572 C   0  0  0  0  0  0  0  0  0  0  0  0
  -26.7777  -30.5215   25.8873 C   0  0  0  0  0  0  0  0  0  0  0  0
  -25.9394  -32.7753   26.5845 C   0  0  0  0  0  0  0  0  0  0  0  0
  -27.9725  -32.5914   25.1508 C   0  0  0  0  0  0  0  0  0  0  0  0
  -23.0466  -34.8915   20.9895 C   0  0  0  0  0  0  0  0  0  0  0  0
  -22.5680  -24.7067   23.5050 C   0  0  0  0  0  0  0  0  0  0  0  0
  -18.9396  -25.6687   22.9673 C   0  0  0  0  0  0  0  0  0  0  0  0
  -25.7026  -32.1014   24.1512 C   0  0  1  0  0  0  0  0  0  0  0  0
  -24.3526  -35.4649   23.0400 C   0  0  2  0  0  0  0  0  0  0  0  0
  -19.8043  -24.3990   25.0337 C   0  0  0  0  0  0  0  0  0  0  0  0
  -20.1642  -25.3036   23.8284 C   0  0  1  0  0  0  0  0  0  0  0  0
  -19.2592  -26.5558   21.7552 C   0  0  2  0  0  0  0  0  0  1  0  0
  -26.5817  -31.9801   25.4278 C   0  0  0  0  0  0  0  0  0  0  0  0
  -25.3047  -23.5735   21.1334 N   0  0  0  0  0  0  0  0  0  0  0  0
  -25.4744  -15.1634   20.1431 N   0  0  0  0  0  0  0  0  0  0  0  0
  -24.7923  -16.3151   20.0238 N   0  0  0  0  0  0  0  0  0  0  0  0
  -25.4506  -30.3114   22.4612 N   0  0  0  0  0  0  0  0  0  0  0  0
  -26.7948  -19.5649   19.9110 N   0  0  0  0  0  0  0  0  0  0  0  0
  -22.6776  -17.3073   20.4165 N   0  0  0  0  0  0  0  0  0  0  0  0
  -22.1191  -13.0616   21.8511 N   0  0  0  0  0  0  0  0  0  0  0  0
  -25.4637  -21.1269   21.0732 N   0  0  0  0  0  0  0  0  0  0  0  0
  -27.6091  -27.5820   21.6727 N   0  0  0  0  0  0  0  0  0  0  0  0
  -25.5224  -33.4695   23.6775 N   0  0  0  0  0  0  0  0  0  0  0  0
  -23.1794  -35.7764   22.1754 N   0  3  0  0  0  0  0  0  0  0  0  0
  -21.1863  -24.6435   22.9648 N   0  3  0  0  0  0  0  0  0  0  0  0
  -21.0769  -15.0853   21.5730 O   0  0  0  0  0  0  0  0  0  0  0  0
  -25.8844  -27.8119   23.2203 O   0  0  0  0  0  0  0  0  0  0  0  0
  -27.3877  -31.6056   22.5572 O   0  0  0  0  0  0  0  0  0  0  0  0
  -23.2066  -33.4771   23.7969 O   0  0  0  0  0  0  0  0  0  0  0  0
  -27.1138  -21.8338   19.6037 O   0  0  0  0  0  0  0  0  0  0  0  0
  -25.9673   -9.0338   21.7965 O   0  0  0  0  0  0  0  0  0  0  0  0
  -19.8296  -27.7830   22.2082 O   0  0  0  0  0  0  0  0  0  1  0  0
  -22.4000   -5.0872   20.3463 F   0  0  0  0  0  0  0  0  0  0  0  0
  -23.4034   -8.9900   22.8295 F   0  0  0  0  0  0  0  0  0  0  0  0
  -23.6435  -22.2791   22.6326 S   0  0  0  0  0  0  0  0  0  0  0  0
  1  2  1  0  0  0  0
  1  5  2  0  0  0  0
  2  6  2  0  0  0  0
  3  8  2  0  0  0  0
  3 16  1  0  0  0  0
  4  9  1  0  0  0  0
  4 16  2  0  0  0  0
  5 18  1  0  0  0  0
  6 20  1  0  0  0  0
  7 10  2  0  0  0  0
  7 19  1  0  0  0  0
  8 22  1  0  0  0  0
  9 22  2  0  0  0  0
 10 23  1  0  0  0  0
 11 12  2  0  0  0  0
 11 24  1  0  0  0  0
 12 25  1  0  0  0  0
 13 21  1  0  0  0  0
 13 23  2  0  0  0  0
 14 25  2  0  0  0  0
 14 26  1  0  0  0  0
 15 28  2  0  0  0  0
 15 64  1  0  0  0  0
 16 27  1  0  0  0  0
 17 27  1  0  0  0  0
 17 29  2  0  0  0  0
 17 31  1  0  0  0  0
 18 20  2  0  0  0  0
 18 36  1  0  0  0  0
 19 21  2  0  0  0  0
 19 37  1  0  0  0  0
 20 45  1  0  0  0  0
 21 38  1  0  0  0  0
 22 81  1  0  0  0  0
 23 82  1  0  0  0  0
 24 26  2  0  0  0  0
 24 81  1  0  0  0  0
 25 83  1  0  0  0  0
 26 84  1  0  0  0  0
 27 65  2  0  0  0  0
 28 56  1  0  0  0  0
 28 85  1  0  0  0  0
 29 66  1  0  0  0  0
 29 69  1  0  0  0  0
 30 64  2  0  0  0  0
 30 71  1  0  0  0  0
 30 85  1  0  0  0  0
 31 70  1  0  0  0  0
 31 76  2  0  0  0  0
 32 46  1  0  0  0  0
 32 72  1  0  0  0  0
 32 77  2  0  0  0  0
 33 58  1  0  0  0  0
 33 67  1  0  0  0  0
 33 78  2  0  0  0  0
 34 59  1  0  0  0  0
 34 73  1  0  0  0  0
 34 79  2  0  0  0  0
 35 68  1  0  0  0  0
 35 71  1  0  0  0  0
 35 80  2  0  0  0  0
 36 39  1  0  0  0  0
 37 46  1  0  0  0  0
 38 67  1  0  0  0  0
 39 41  1  0  0  0  0
 40 42  1  0  0  0  0
 40 43  1  0  0  0  0
 41 45  1  0  0  0  0
 42 47  1  0  0  0  0
 43 68  1  0  0  0  0
 44 47  1  0  0  0  0
 44 68  1  0  0  0  0
 45 72  1  0  0  0  0
 46 67  1  0  0  0  0
 47 66  1  0  0  0  0
 48 59  1  0  0  0  0
 49 60  1  0  0  0  0
 50 60  1  0  0  0  0
 51 62  1  0  0  0  0
 52 63  1  0  0  0  0
 53 63  1  0  0  0  0
 54 63  1  0  0  0  0
 55 74  1  0  0  0  0
 56 75  1  0  0  0  0
 57 61  1  0  0  0  0
 57 62  1  0  0  0  0
 58 63  1  0  0  0  0
 58 73  1  0  0  0  0
 59 74  1  0  0  0  0
 60 61  1  0  0  0  0
 61 75  1  0  0  0  0
 62 82  1  0  0  0  0
 65 66  1  0  0  0  0
M  CHG  2  74   1  75   1
M  ISO  4  35 100  62 101  71 100  82 101
M  END
> <Batch ID>
0186

> <Smiles>
CNC(C)C(=O)NC(C(=O)N1Cc2cc([101O:1][101CH:1](C)CC(NCc3cnc([100NH:0][100C:0](=O)N4CCCC(n5nc(-c6ccc(Oc7ccc(F)cc7F)cc6)c(C(N)=O)c5N)C4)s3)C(C)C)ccc2CC1C(=O)NC1CCCc2ccccc21)C(C)(C)C

> <Shape>
0.268

> <Color>
0.073

> <Negative vol penalty>
0.000

$$$$

  -OEChem-04052305093D

 89 97  0     1  0  0  0  0  0999 V2000
  -16.3192  -22.8385   23.5821 C   0  0  0  0  0  0  0  0  0  0  0  0
  -17.0919  -22.9271   22.4287 C   0  0  0  0  0  0  0  0  0  0  0  0
  -26.1773  -12.7742   21.7790 C   0  0  0  0  0  0  0  0  0  0  0  0
  -25.4185  -13.9588   19.8148 C   0  0  0  0  0  0  0  0  0  0  0  0
  -16.2038  -23.9402   24.4289 C   0  0  0  0  0  0  0  0  0  0  0  0
  -17.7488  -24.1180   22.1207 C   0  0  0  0  0  0  0  0  0  0  0  0
  -22.5275  -23.3690   20.6212 C   0  0  0  0  0  0  0  0  0  0  0  0
  -25.1862  -11.8128   21.5821 C   0  0  0  0  0  0  0  0  0  0  0  0
  -24.4273  -12.9973   19.6179 C   0  0  0  0  0  0  0  0  0  0  0  0
  -22.7228  -22.9311   19.3121 C   0  0  0  0  0  0  0  0  0  0  0  0
  -24.6871   -9.1195   19.5995 C   0  0  0  0  0  0  0  0  0  0  0  0
  -25.0511   -7.7787   19.7226 C   0  0  0  0  0  0  0  0  0  0  0  0
  -23.2570  -25.1865   18.6437 C   0  0  0  0  0  0  0  0  0  0  0  0
  -23.4506   -7.5084   21.5121 C   0  0  0  0  0  0  0  0  0  0  0  0
  -26.2934  -13.8473   20.8954 C   0  0  0  0  0  0  0  0  0  0  0  0
  -28.6273  -14.8292   20.5848 C   0  0  0  0  0  0  0  0  0  0  0  0
  -16.8674  -25.1421   24.1361 C   0  0  0  0  0  0  0  0  0  0  0  0
  -22.6851  -24.7231   20.9497 C   0  0  0  0  0  0  0  0  0  0  0  0
  -17.6411  -25.2372   22.9635 C   0  0  0  0  0  0  0  0  0  0  0  0
  -23.0656  -25.6387   19.9582 C   0  0  0  0  0  0  0  0  0  0  0  0
  -24.3112  -11.9243   20.5015 C   0  0  0  0  0  0  0  0  0  0  0  0
  -23.0848  -23.8403   18.3225 C   0  0  0  0  0  0  0  0  0  0  0  0
  -23.7049   -9.6549   20.4328 C   0  0  0  0  0  0  0  0  0  0  0  0
  -24.4329   -6.9731   20.6789 C   0  0  0  0  0  0  0  0  0  0  0  0
  -23.0867   -8.8493   21.3891 C   0  0  0  0  0  0  0  0  0  0  0  0
  -27.3167  -14.8411   21.0986 C   0  0  0  0  0  0  0  0  0  0  0  0
  -29.9145  -23.2993   19.6364 C   0  0  0  0  0  0  0  0  0  0  0  0
  -30.1204  -24.6614   19.5711 C   0  0  0  0  0  0  0  0  0  0  0  0
  -29.1939  -15.9857   21.0624 C   0  0  0  0  0  0  0  0  0  0  0  0
  -28.4609  -23.7776   18.0653 C   0  0  0  0  0  0  0  0  0  0  0  0
  -29.2747  -13.8595   19.7504 C   0  0  0  0  0  0  0  0  0  0  0  0
  -20.7726  -26.9924   22.0884 C   0  0  0  0  0  0  0  0  0  0  0  0
  -23.5194  -28.7152   22.1848 C   0  0  0  0  0  0  0  0  0  0  0  0
  -26.7924  -22.5695   16.6158 C   0  0  0  0  0  0  0  0  0  0  0  0
  -26.6804  -29.1970   20.9921 C   0  0  0  0  0  0  0  0  0  0  0  0
  -28.9281  -21.4588   22.1207 C   0  0  0  0  0  0  0  0  0  0  0  0
  -16.6745  -26.3208   25.0570 C   0  0  0  0  0  0  0  0  0  0  0  0
  -22.4968  -25.1750   22.3720 C   0  0  0  0  0  0  0  0  0  0  0  0
  -23.2673  -27.0997   20.2633 C   0  0  0  0  0  0  0  0  0  0  0  0
  -17.7052  -27.4282   24.8530 C   0  0  0  0  0  0  0  0  0  0  0  0
  -27.5557  -19.2550   24.5573 C   0  0  0  0  0  0  0  0  0  0  0  0
  -17.8749  -27.7327   23.3680 C   0  0  0  0  0  0  0  0  0  0  0  0
  -27.4736  -17.9116   23.8304 C   0  0  0  0  0  0  0  0  0  0  0  0
  -27.2514  -20.4226   23.6212 C   0  0  0  0  0  0  0  0  0  0  0  0
  -27.9823  -19.1149   21.6643 C   0  0  0  0  0  0  0  0  0  0  0  0
  -18.3888  -26.5039   22.6081 C   0  0  1  0  0  0  0  0  0  0  0  0
  -22.1828  -26.6633   22.4894 C   0  0  1  0  0  0  0  0  0  0  0  0
  -28.3362  -17.9110   22.5540 C   0  0  2  0  0  0  0  0  0  0  0  0
  -31.0441  -25.5217   20.3371 C   0  0  0  0  0  0  0  0  0  0  0  0
  -33.0650  -21.4302   22.2508 C   0  0  0  0  0  0  0  0  0  0  0  0
  -26.4313  -22.9214   14.1379 C   0  0  0  0  0  0  0  0  0  0  0  0
  -28.9800  -30.1875   20.8243 C   0  0  0  0  0  0  0  0  0  0  0  0
  -31.6487  -20.9594   18.6222 C   0  0  0  0  0  0  0  0  0  0  0  0
  -22.0811  -30.8643   20.5654 C   0  0  0  0  0  0  0  0  0  0  0  0
  -24.3153  -31.8632   20.0375 C   0  0  0  0  0  0  0  0  0  0  0  0
  -23.5336  -31.7401   22.4032 C   0  0  0  0  0  0  0  0  0  0  0  0
  -27.7773  -27.2763   22.9585 C   0  0  0  0  0  0  0  0  0  0  0  0
  -32.6355  -20.7736   20.9455 C   0  0  0  0  0  0  0  0  0  0  0  0
  -24.5504  -21.9851   15.5767 C   0  0  0  0  0  0  0  0  0  0  0  0
  -23.7384  -22.0776   16.8660 C   0  0  0  0  0  0  0  0  0  1  0  0
  -30.6122  -22.3563   20.5341 C   0  0  2  0  0  0  0  0  0  0  0  0
  -24.2471  -29.6218   21.2217 C   0  0  1  0  0  0  0  0  0  0  0  0
  -25.7762  -22.9128   15.5189 C   0  0  1  0  0  0  0  0  0  0  0  0
  -28.0018  -29.4244   21.7039 C   0  0  2  0  0  0  0  0  0  0  0  0
  -31.9143  -21.7035   19.9411 C   0  0  2  0  0  0  0  0  0  0  0  0
  -23.5387  -30.9952   21.0505 C   0  0  0  0  0  0  0  0  0  0  0  0
  -27.0655  -15.9196   21.8454 N   0  0  0  0  0  0  0  0  0  0  0  0
  -28.9630  -22.7908   18.7739 N   0  0  0  0  0  0  0  0  0  0  0  0
  -28.2260  -16.5961   21.8045 N   0  0  0  0  0  0  0  0  0  0  0  0
  -23.0652  -27.4938   21.6674 N   0  0  0  0  0  0  0  0  0  0  0  0
  -28.1042  -20.3644   22.4316 N   0  0  0  0  0  0  0  0  0  0  0  0
  -30.4206  -16.5298   20.9157 N   0  0  0  0  0  0  0  0  0  0  0  0
  -28.5476  -12.7299   19.3510 N   0  0  0  0  0  0  0  0  0  0  0  0
  -27.4615  -23.7038   17.0660 N   0  0  0  0  0  0  0  0  0  0  0  0
  -19.8091  -26.3320   22.8268 N   0  0  0  0  0  0  0  0  0  0  0  0
  -25.6201  -29.7140   21.7061 N   0  0  0  0  0  0  0  0  0  0  0  0
  -29.7091  -21.3189   20.9800 N   0  0  0  0  0  0  0  0  0  0  0  0
  -28.6215  -28.1208   22.0746 N   0  3  0  0  0  0  0  0  0  0  0  0
  -30.4680  -13.9827   19.3838 O   0  0  0  0  0  0  0  0  0  0  0  0
  -20.5734  -27.7877   21.1777 O   0  0  0  0  0  0  0  0  0  0  0  0
  -23.3661  -29.0742   23.3549 O   0  0  0  0  0  0  0  0  0  0  0  0
  -26.9488  -21.4162   17.0072 O   0  0  0  0  0  0  0  0  0  0  0  0
  -26.5975  -28.6219   19.9091 O   0  0  0  0  0  0  0  0  0  0  0  0
  -28.9690  -22.4823   22.8118 O   0  0  0  0  0  0  0  0  0  0  0  0
  -23.3441  -10.9861   20.3089 O   0  0  0  0  0  0  0  0  0  0  0  0
  -23.2754  -23.4156   17.0438 O   0  0  0  0  0  0  0  0  0  1  0  0
  -24.7815   -5.6851   20.7959 F   0  0  0  0  0  0  0  0  0  0  0  0
  -22.1415   -9.3577   22.1917 F   0  0  0  0  0  0  0  0  0  0  0  0
  -29.0874  -25.3432   18.3839 S   0  0  0  0  0  0  0  0  0  0  0  0
  1  2  1  0  0  0  0
  1  5  2  0  0  0  0
  2  6  2  0  0  0  0
  3  8  2  0  0  0  0
  3 15  1  0  0  0  0
  4  9  1  0  0  0  0
  4 15  2  0  0  0  0
  5 17  1  0  0  0  0
  6 19  1  0  0  0  0
  7 10  2  0  0  0  0
  7 18  1  0  0  0  0
  8 21  1  0  0  0  0
  9 21  2  0  0  0  0
 10 22  1  0  0  0  0
 11 12  2  0  0  0  0
 11 23  1  0  0  0  0
 12 24  1  0  0  0  0
 13 20  1  0  0  0  0
 13 22  2  0  0  0  0
 14 24  2  0  0  0  0
 14 25  1  0  0  0  0
 15 26  1  0  0  0  0
 16 26  1  0  0  0  0
 16 29  2  0  0  0  0
 16 31  1  0  0  0  0
 17 19  2  0  0  0  0
 17 37  1  0  0  0  0
 18 20  2  0  0  0  0
 18 38  1  0  0  0  0
 19 46  1  0  0  0  0
 20 39  1  0  0  0  0
 21 85  1  0  0  0  0
 22 86  1  0  0  0  0
 23 25  2  0  0  0  0
 23 85  1  0  0  0  0
 24 87  1  0  0  0  0
 25 88  1  0  0  0  0
 26 67  2  0  0  0  0
 27 28  2  0  0  0  0
 27 61  1  0  0  0  0
 27 68  1  0  0  0  0
 28 49  1  0  0  0  0
 28 89  1  0  0  0  0
 29 69  1  0  0  0  0
 29 72  1  0  0  0  0
 30 68  2  0  0  0  0
 30 74  1  0  0  0  0
 30 89  1  0  0  0  0
 31 73  1  0  0  0  0
 31 79  2  0  0  0  0
 32 47  1  0  0  0  0
 32 75  1  0  0  0  0
 32 80  2  0  0  0  0
 33 62  1  0  0  0  0
 33 70  1  0  0  0  0
 33 81  2  0  0  0  0
 34 63  1  0  0  0  0
 34 74  1  0  0  0  0
 34 82  2  0  0  0  0
 35 64  1  0  0  0  0
 35 76  1  0  0  0  0
 35 83  2  0  0  0  0
 36 71  1  0  0  0  0
 36 77  1  0  0  0  0
 36 84  2  0  0  0  0
 37 40  1  0  0  0  0
 38 47  1  0  0  0  0
 39 70  1  0  0  0  0
 40 42  1  0  0  0  0
 41 43  1  0  0  0  0
 41 44  1  0  0  0  0
 42 46  1  0  0  0  0
 43 48  1  0  0  0  0
 44 71  1  0  0  0  0
 45 48  1  0  0  0  0
 45 71  1  0  0  0  0
 46 75  1  0  0  0  0
 47 70  1  0  0  0  0
 48 69  1  0  0  0  0
 50 58  1  0  0  0  0
 51 63  1  0  0  0  0
 52 64  1  0  0  0  0
 53 65  1  0  0  0  0
 54 66  1  0  0  0  0
 55 66  1  0  0  0  0
 56 66  1  0  0  0  0
 57 78  1  0  0  0  0
 58 65  1  0  0  0  0
 59 60  1  0  0  0  0
 59 63  1  0  0  0  0
 60 86  1  0  0  0  0
 61 65  1  0  0  0  0
 61 77  1  0  0  0  0
 62 66  1  0  0  0  0
 62 76  1  0  0  0  0
 64 78  1  0  0  0  0
 67 69  1  0  0  0  0
M  CHG  1  78   1
M  ISO  4  36 100  60 101  77 100  86 101
M  END
> <Batch ID>
0186

> <Smiles>
CCC(C)C([100NH:0][100C:0](=O)N1CCCC(n2nc(-c3ccc(Oc4ccc(F)cc4F)cc3)c(C(N)=O)c2N)C1)c1nc(NC(=O)C(C)C[101CH2:1][101O:1]c2ccc3c(c2)CN(C(=O)C(NC(=O)C(C)NC)C(C)(C)C)C(C(=O)NC2CCCc4ccccc42)C3)sc1C

> <Shape>
0.242

> <Color>
0.055

> <Negative vol penalty>
0.000

$$$$

  -OEChem-04052305093D

 85 93  0     1  0  0  0  0  0999 V2000
  -24.8365  -18.3387   23.6618 C   0  0  0  0  0  0  0  0  0  0  0  0
  -25.7689  -19.2860   23.2511 C   0  0  0  0  0  0  0  0  0  0  0  0
  -26.3624  -12.8027   21.6124 C   0  0  0  0  0  0  0  0  0  0  0  0
  -25.8810  -13.7165   19.4283 C   0  0  0  0  0  0  0  0  0  0  0  0
  -23.4892  -18.5046   23.3434 C   0  0  0  0  0  0  0  0  0  0  0  0
  -25.3546  -20.3993   22.5206 C   0  0  0  0  0  0  0  0  0  0  0  0
  -27.6839  -26.0566   22.7941 C   0  0  0  0  0  0  0  0  0  0  0  0
  -25.1193  -12.1701   21.6217 C   0  0  0  0  0  0  0  0  0  0  0  0
  -24.6378  -13.0838   19.4376 C   0  0  0  0  0  0  0  0  0  0  0  0
  -28.6023  -26.7326   21.9920 C   0  0  0  0  0  0  0  0  0  0  0  0
  -23.7237   -9.4004   20.2750 C   0  0  0  0  0  0  0  0  0  0  0  0
  -23.6762   -8.0707   20.6936 C   0  0  0  0  0  0  0  0  0  0  0  0
  -28.7717  -22.0836   16.1733 C   0  0  0  0  0  0  0  0  0  0  0  0
  -29.2872  -23.3482   16.4345 C   0  0  0  0  0  0  0  0  0  0  0  0
  -26.7836  -27.7368   20.7661 C   0  0  0  0  0  0  0  0  0  0  0  0
  -22.1741   -8.6874   22.4826 C   0  0  0  0  0  0  0  0  0  0  0  0
  -26.7432  -13.5760   20.5156 C   0  0  0  0  0  0  0  0  0  0  0  0
  -29.2420  -13.7108   20.0202 C   0  0  0  0  0  0  0  0  0  0  0  0
  -23.0570  -19.6254   22.6170 C   0  0  0  0  0  0  0  0  0  0  0  0
  -26.3061  -26.2074   22.5807 C   0  0  0  0  0  0  0  0  0  0  0  0
  -24.0006  -20.5796   22.1910 C   0  0  0  0  0  0  0  0  0  0  0  0
  -25.8497  -27.0636   21.5684 C   0  0  0  0  0  0  0  0  0  0  0  0
  -24.2570  -12.3106   20.5344 C   0  0  0  0  0  0  0  0  0  0  0  0
  -28.1523  -27.5706   20.9760 C   0  0  0  0  0  0  0  0  0  0  0  0
  -22.9965  -10.3737   20.9603 C   0  0  0  0  0  0  0  0  0  0  0  0
  -22.9014   -7.7142   21.7973 C   0  0  0  0  0  0  0  0  0  0  0  0
  -28.7453  -21.1276   17.1826 C   0  0  0  0  0  0  0  0  0  0  0  0
  -22.2217  -10.0172   22.0641 C   0  0  0  0  0  0  0  0  0  0  0  0
  -28.0270  -14.2302   20.5056 C   0  0  0  0  0  0  0  0  0  0  0  0
  -29.7602  -23.6047   17.7113 C   0  0  0  0  0  0  0  0  0  0  0  0
  -29.2428  -21.4834   18.4258 C   0  0  0  0  0  0  0  0  0  0  0  0
  -30.1552  -14.7134   20.2375 C   0  0  0  0  0  0  0  0  0  0  0  0
  -29.5203  -12.4359   19.4261 C   0  0  0  0  0  0  0  0  0  0  0  0
  -23.9333  -24.2508   21.7777 C   0  0  0  0  0  0  0  0  0  0  0  0
  -22.1052  -26.8741   22.3245 C   0  0  0  0  0  0  0  0  0  0  0  0
  -29.9116  -26.0958   17.3699 C   0  0  0  0  0  0  0  0  0  0  0  0
  -21.8992  -30.2760   22.5023 C   0  0  0  0  0  0  0  0  0  0  0  0
  -29.6573  -20.6446   20.7648 C   0  0  0  0  0  0  0  0  0  0  0  0
  -21.5969  -19.7374   22.2558 C   0  0  0  0  0  0  0  0  0  0  0  0
  -25.3281  -25.4920   23.4718 C   0  0  0  0  0  0  0  0  0  0  0  0
  -24.3808  -27.2755   21.3115 C   0  0  0  0  0  0  0  0  0  0  0  0
  -21.1875  -21.1360   21.8013 C   0  0  0  0  0  0  0  0  0  0  0  0
  -31.0418  -18.4027   23.1594 C   0  0  0  0  0  0  0  0  0  0  0  0
  -22.1922  -21.6852   20.7934 C   0  0  0  0  0  0  0  0  0  0  0  0
  -30.5413  -17.0303   22.7030 C   0  0  0  0  0  0  0  0  0  0  0  0
  -29.9922  -19.4908   22.9400 C   0  0  0  0  0  0  0  0  0  0  0  0
  -28.9538  -18.1962   21.1194 C   0  0  0  0  0  0  0  0  0  0  0  0
  -23.5867  -21.8133   21.4184 C   0  0  1  0  0  0  0  0  0  0  0  0
  -23.9533  -25.3200   22.8332 C   0  0  1  0  0  0  0  0  0  0  0  0
  -30.0005  -17.0789   21.2605 C   0  0  2  0  0  0  0  0  0  0  0  0
  -32.0362  -27.4529   17.1740 C   0  0  0  0  0  0  0  0  0  0  0  0
  -20.2644  -32.1307   22.9324 C   0  0  0  0  0  0  0  0  0  0  0  0
  -20.9331  -26.4847   19.5344 C   0  0  0  0  0  0  0  0  0  0  0  0
  -20.0602  -28.8284   19.6499 C   0  0  0  0  0  0  0  0  0  0  0  0
  -19.2662  -27.1216   21.2867 C   0  0  0  0  0  0  0  0  0  0  0  0
  -23.4221  -31.2293   24.8541 C   0  0  0  0  0  0  0  0  0  0  0  0
  -29.8829  -28.5670   17.9525 C   0  0  0  0  0  0  0  0  0  0  0  0
  -28.6494  -28.5139   18.8502 C   0  0  0  0  0  0  0  0  0  1  0  0
  -21.6170  -28.0306   21.4859 C   0  0  1  0  0  0  0  0  0  0  0  0
  -30.7182  -27.2756   17.9276 C   0  0  1  0  0  0  0  0  0  0  0  0
  -21.2935  -31.1952   23.5476 C   0  0  2  0  0  0  0  0  0  0  0  0
  -20.4969  -27.6110   20.4926 C   0  0  0  0  0  0  0  0  0  0  0  0
  -28.1535  -15.4667   20.9945 N   0  0  0  0  0  0  0  0  0  0  0  0
  -29.7513  -22.7017   18.7173 N   0  0  0  0  0  0  0  0  0  0  0  0
  -29.4589  -15.7326   20.8175 N   0  0  0  0  0  0  0  0  0  0  0  0
  -23.4639  -26.5490   22.2054 N   0  0  0  0  0  0  0  0  0  0  0  0
  -29.5293  -19.4798   21.5506 N   0  0  0  0  0  0  0  0  0  0  0  0
  -31.4780  -14.8138   19.9871 N   0  0  0  0  0  0  0  0  0  0  0  0
  -28.4667  -11.5237   19.2775 N   0  0  0  0  0  0  0  0  0  0  0  0
  -30.2829  -24.8948   17.9672 N   0  0  0  0  0  0  0  0  0  0  0  0
  -29.2132  -20.5051   19.4503 N   0  0  0  0  0  0  0  0  0  0  0  0
  -23.6564  -22.9867   22.2625 N   0  0  0  0  0  0  0  0  0  0  0  0
  -21.2231  -29.0768   22.4233 N   0  0  0  0  0  0  0  0  0  0  0  0
  -22.3554  -32.0210   24.1889 N   0  3  0  0  0  0  0  0  0  0  0  0
  -30.6726  -12.1090   19.0533 O   0  0  0  0  0  0  0  0  0  0  0  0
  -24.1513  -24.5507   20.6097 O   0  0  0  0  0  0  0  0  0  0  0  0
  -21.3120  -26.2856   23.0634 O   0  0  0  0  0  0  0  0  0  0  0  0
  -29.0554  -26.2560   16.5046 O   0  0  0  0  0  0  0  0  0  0  0  0
  -22.8723  -30.5917   21.8211 O   0  0  0  0  0  0  0  0  0  0  0  0
  -30.1515  -21.6809   21.2163 O   0  0  0  0  0  0  0  0  0  0  0  0
  -23.0441  -11.6933   20.5431 O   0  0  0  0  0  0  0  0  0  0  0  0
  -29.0466  -28.2311   20.1913 O   0  0  0  0  0  0  0  0  0  1  0  0
  -22.8546   -6.4370   22.1982 F   0  0  0  0  0  0  0  0  0  0  0  0
  -28.2518  -19.9054   16.9452 F   0  0  0  0  0  0  0  0  0  0  0  0
  -21.5199  -10.9476   22.7257 F   0  0  0  0  0  0  0  0  0  0  0  0
  1  2  1  0  0  0  0
  1  5  2  0  0  0  0
  2  6  2  0  0  0  0
  3  8  2  0  0  0  0
  3 17  1  0  0  0  0
  4  9  1  0  0  0  0
  4 17  2  0  0  0  0
  5 19  1  0  0  0  0
  6 21  1  0  0  0  0
  7 10  2  0  0  0  0
  7 20  1  0  0  0  0
  8 23  1  0  0  0  0
  9 23  2  0  0  0  0
 10 24  1  0  0  0  0
 11 12  2  0  0  0  0
 11 25  1  0  0  0  0
 12 26  1  0  0  0  0
 13 14  2  0  0  0  0
 13 27  1  0  0  0  0
 14 30  1  0  0  0  0
 15 22  1  0  0  0  0
 15 24  2  0  0  0  0
 16 26  2  0  0  0  0
 16 28  1  0  0  0  0
 17 29  1  0  0  0  0
 18 29  1  0  0  0  0
 18 32  2  0  0  0  0
 18 33  1  0  0  0  0
 19 21  2  0  0  0  0
 19 39  1  0  0  0  0
 20 22  2  0  0  0  0
 20 40  1  0  0  0  0
 21 48  1  0  0  0  0
 22 41  1  0  0  0  0
 23 81  1  0  0  0  0
 24 82  1  0  0  0  0
 25 28  2  0  0  0  0
 25 81  1  0  0  0  0
 26 83  1  0  0  0  0
 27 31  2  0  0  0  0
 27 84  1  0  0  0  0
 28 85  1  0  0  0  0
 29 63  2  0  0  0  0
 30 64  2  0  0  0  0
 30 70  1  0  0  0  0
 31 64  1  0  0  0  0
 31 71  1  0  0  0  0
 32 65  1  0  0  0  0
 32 68  1  0  0  0  0
 33 69  1  0  0  0  0
 33 75  2  0  0  0  0
 34 49  1  0  0  0  0
 34 72  1  0  0  0  0
 34 76  2  0  0  0  0
 35 59  1  0  0  0  0
 35 66  1  0  0  0  0
 35 77  2  0  0  0  0
 36 60  1  0  0  0  0
 36 70  1  0  0  0  0
 36 78  2  0  0  0  0
 37 61  1  0  0  0  0
 37 73  1  0  0  0  0
 37 79  2  0  0  0  0
 38 67  1  0  0  0  0
 38 71  1  0  0  0  0
 38 80  2  0  0  0  0
 39 42  1  0  0  0  0
 40 49  1  0  0  0  0
 41 66  1  0  0  0  0
 42 44  1  0  0  0  0
 43 45  1  0  0  0  0
 43 46  1  0  0  0  0
 44 48  1  0  0  0  0
 45 50  1  0  0  0  0
 46 67  1  0  0  0  0
 47 50  1  0  0  0  0
 47 67  1  0  0  0  0
 48 72  1  0  0  0  0
 49 66  1  0  0  0  0
 50 65  1  0  0  0  0
 51 60  1  0  0  0  0
 52 61  1  0  0  0  0
 53 62  1  0  0  0  0
 54 62  1  0  0  0  0
 55 62  1  0  0  0  0
 56 74  1  0  0  0  0
 57 58  1  0  0  0  0
 57 60  1  0  0  0  0
 58 82  1  0  0  0  0
 59 62  1  0  0  0  0
 59 73  1  0  0  0  0
 61 74  1  0  0  0  0
 63 65  1  0  0  0  0
M  CHG  1  74   1
M  ISO  4  38 100  58 101  71 100  82 101
M  END
> <Batch ID>
0186

> <Smiles>
CNC(C)C(=O)NC(C(=O)N1Cc2cc([101O:1][101CH2:1]CC(C)C(=O)Nc3ccc(F)c([100NH:0][100C:0](=O)N4CCCC(n5nc(-c6ccc(Oc7ccc(F)cc7F)cc6)c(C(N)=O)c5N)C4)n3)ccc2CC1C(=O)NC1CCCc2ccccc21)C(C)(C)C

> <Shape>
0.260

> <Color>
0.076

> <Negative vol penalty>
0.000

$$$$

  -OEChem-04052305093D

 84 92  0     1  0  0  0  0  0999 V2000
  -30.2311  -21.2908   15.8622 C   0  0  0  0  0  0  0  0  0  0  0  0
  -29.8254  -21.3231   17.1926 C   0  0  0  0  0  0  0  0  0  0  0  0
  -20.1273  -15.6685   18.5009 C   0  0  0  0  0  0  0  0  0  0  0  0
  -20.1786  -17.2394   20.3357 C   0  0  0  0  0  0  0  0  0  0  0  0
  -30.5009  -22.4810   15.1879 C   0  0  0  0  0  0  0  0  0  0  0  0
  -29.6904  -22.5455   17.8497 C   0  0  0  0  0  0  0  0  0  0  0  0
  -25.4275  -22.8291   20.5686 C   0  0  0  0  0  0  0  0  0  0  0  0
  -18.8868  -16.1696   18.1064 C   0  0  0  0  0  0  0  0  0  0  0  0
  -18.9381  -17.7406   19.9413 C   0  0  0  0  0  0  0  0  0  0  0  0
  -25.4124  -22.1740   21.7992 C   0  0  0  0  0  0  0  0  0  0  0  0
  -15.6892  -16.8445   20.2105 C   0  0  0  0  0  0  0  0  0  0  0  0
  -14.7318  -17.0590   21.2020 C   0  0  0  0  0  0  0  0  0  0  0  0
  -25.8257  -24.2727   22.9145 C   0  0  0  0  0  0  0  0  0  0  0  0
  -14.6599  -19.4041   20.6252 C   0  0  0  0  0  0  0  0  0  0  0  0
  -20.7732  -16.2033   19.6156 C   0  0  0  0  0  0  0  0  0  0  0  0
  -23.3232  -16.1311   19.6073 C   0  0  0  0  0  0  0  0  0  0  0  0
  -30.3599  -23.7191   15.8343 C   0  0  0  0  0  0  0  0  0  0  0  0
  -25.6530  -24.2115   20.5008 C   0  0  0  0  0  0  0  0  0  0  0  0
  -29.9599  -23.7532   17.1838 C   0  0  0  0  0  0  0  0  0  0  0  0
  -25.8406  -24.9433   21.6820 C   0  0  0  0  0  0  0  0  0  0  0  0
  -18.2922  -17.2057   18.8266 C   0  0  0  0  0  0  0  0  0  0  0  0
  -25.6144  -22.8954   22.9722 C   0  0  0  0  0  0  0  0  0  0  0  0
  -16.1319  -17.9098   19.4264 C   0  0  0  0  0  0  0  0  0  0  0  0
  -14.2172  -18.3387   21.4094 C   0  0  0  0  0  0  0  0  0  0  0  0
  -15.6173  -19.1896   19.6337 C   0  0  0  0  0  0  0  0  0  0  0  0
  -22.0544  -15.6857   20.0239 C   0  0  0  0  0  0  0  0  0  0  0  0
  -22.3417  -17.1522   25.4253 C   0  0  0  0  0  0  0  0  0  0  0  0
  -24.2081  -15.3217   20.2767 C   0  0  0  0  0  0  0  0  0  0  0  0
  -23.4233  -17.9669   25.1633 C   0  0  0  0  0  0  0  0  0  0  0  0
  -23.9124  -15.6216   25.4137 C   0  0  0  0  0  0  0  0  0  0  0  0
  -23.6707  -17.1827   18.6967 C   0  0  0  0  0  0  0  0  0  0  0  0
  -27.8823  -26.0589   19.1890 C   0  0  0  0  0  0  0  0  0  0  0  0
  -25.9172  -28.4506   20.1584 C   0  0  0  0  0  0  0  0  0  0  0  0
  -23.4671  -29.5037   22.2880 C   0  0  0  0  0  0  0  0  0  0  0  0
  -24.6973  -20.0864   24.6904 C   0  0  0  0  0  0  0  0  0  0  0  0
  -23.3011  -12.1284   25.4263 C   0  0  0  0  0  0  0  0  0  0  0  0
  -30.7086  -24.9766   15.0782 C   0  0  0  0  0  0  0  0  0  0  0  0
  -25.6396  -24.9075   19.1674 C   0  0  0  0  0  0  0  0  0  0  0  0
  -26.0666  -26.4323   21.6649 C   0  0  0  0  0  0  0  0  0  0  0  0
  -30.1798  -26.2489   15.7354 C   0  0  0  0  0  0  0  0  0  0  0  0
  -24.6096  -10.9524   22.1696 C   0  0  0  0  0  0  0  0  0  0  0  0
  -30.4746  -26.2389   17.2320 C   0  0  0  0  0  0  0  0  0  0  0  0
  -24.1421  -12.0443   21.2088 C   0  0  0  0  0  0  0  0  0  0  0  0
  -23.6781  -10.8163   23.3702 C   0  0  0  0  0  0  0  0  0  0  0  0
  -22.9907  -13.1812   23.1485 C   0  0  0  0  0  0  0  0  0  0  0  0
  -29.7780  -25.0608   17.9236 C   0  0  1  0  0  0  0  0  0  0  0  0
  -26.3902  -26.2355   19.1791 C   0  0  1  0  0  0  0  0  0  0  0  0
  -23.9332  -13.3757   21.9513 C   0  0  2  0  0  0  0  0  0  0  0  0
  -20.9372  -17.5892   25.5612 C   0  0  0  0  0  0  0  0  0  0  0  0
  -22.0909  -31.5217   22.8637 C   0  0  0  0  0  0  0  0  0  0  0  0
  -23.8465  -22.1752   25.8186 C   0  0  0  0  0  0  0  0  0  0  0  0
  -28.3224  -29.6841   21.5739 C   0  0  0  0  0  0  0  0  0  0  0  0
  -26.7338  -31.1149   22.8768 C   0  0  0  0  0  0  0  0  0  0  0  0
  -26.8511  -31.3265   20.3940 C   0  0  0  0  0  0  0  0  0  0  0  0
  -23.6059  -13.3453   27.5491 C   0  0  0  0  0  0  0  0  0  0  0  0
  -20.9388  -28.1077   21.6416 C   0  0  0  0  0  0  0  0  0  0  0  0
  -24.5853  -14.3075   25.4995 C   0  0  0  0  0  0  0  0  0  0  0  0
  -25.7778  -29.2772   21.4140 C   0  0  1  0  0  0  0  0  0  0  0  0
  -22.1667  -30.2462   22.0389 C   0  0  2  0  0  0  0  0  0  0  0  0
  -24.4006  -21.5757   24.5346 C   0  0  1  0  0  0  0  0  0  1  0  0
  -26.9189  -30.3223   21.5652 C   0  0  0  0  0  0  0  0  0  0  0  0
  -22.1228  -14.6718   20.8907 N   0  0  0  0  0  0  0  0  0  0  0  0
  -22.6202  -15.8070   25.5688 N   0  0  0  0  0  0  0  0  0  0  0  0
  -23.4453  -14.4734   21.0241 N   0  0  0  0  0  0  0  0  0  0  0  0
  -26.0510  -27.0663   20.3362 N   0  0  0  0  0  0  0  0  0  0  0  0
  -23.4626  -12.1038   24.0313 N   0  0  0  0  0  0  0  0  0  0  0  0
  -25.5566  -15.2598   20.2929 N   0  0  0  0  0  0  0  0  0  0  0  0
  -22.6377  -17.9158   18.0969 N   0  0  0  0  0  0  0  0  0  0  0  0
  -23.5403  -19.3624   24.9588 N   0  0  0  0  0  0  0  0  0  0  0  0
  -28.3715  -25.3450   18.1116 N   0  0  0  0  0  0  0  0  0  0  0  0
  -24.4390  -29.8556   21.3754 N   0  0  0  0  0  0  0  0  0  0  0  0
  -23.7413  -13.2772   26.1010 N   0  0  0  0  0  0  0  0  0  0  0  0
  -21.0028  -29.3863   22.3953 N   0  3  0  0  0  0  0  0  0  0  0  0
  -24.8617  -17.4531   18.4104 O   0  0  0  0  0  0  0  0  0  0  0  0
  -28.5412  -26.5362   20.1053 O   0  0  0  0  0  0  0  0  0  0  0  0
  -25.9005  -29.0118   19.0600 O   0  0  0  0  0  0  0  0  0  0  0  0
  -23.6079  -28.6954   23.2031 O   0  0  0  0  0  0  0  0  0  0  0  0
  -25.8372  -19.6481   24.5648 O   0  0  0  0  0  0  0  0  0  0  0  0
  -22.8012  -11.1738   26.0352 O   0  0  0  0  0  0  0  0  0  0  0  0
  -17.0818  -17.6952   18.4419 O   0  0  0  0  0  0  0  0  0  0  0  0
  -25.6009  -22.2584   24.1747 O   0  0  0  0  0  0  0  0  0  1  0  0
  -13.2967  -18.5443   22.3605 F   0  0  0  0  0  0  0  0  0  0  0  0
  -16.0379  -20.2167   18.8828 F   0  0  0  0  0  0  0  0  0  0  0  0
  -24.8523  -17.0213   25.0936 S   0  0  0  0  0  0  0  0  0  0  0  0
  1  2  1  0  0  0  0
  1  5  2  0  0  0  0
  2  6  2  0  0  0  0
  3  8  2  0  0  0  0
  3 15  1  0  0  0  0
  4  9  1  0  0  0  0
  4 15  2  0  0  0  0
  5 17  1  0  0  0  0
  6 19  1  0  0  0  0
  7 10  2  0  0  0  0
  7 18  1  0  0  0  0
  8 21  1  0  0  0  0
  9 21  2  0  0  0  0
 10 22  1  0  0  0  0
 11 12  2  0  0  0  0
 11 23  1  0  0  0  0
 12 24  1  0  0  0  0
 13 20  1  0  0  0  0
 13 22  2  0  0  0  0
 14 24  2  0  0  0  0
 14 25  1  0  0  0  0
 15 26  1  0  0  0  0
 16 26  1  0  0  0  0
 16 28  2  0  0  0  0
 16 31  1  0  0  0  0
 17 19  2  0  0  0  0
 17 37  1  0  0  0  0
 18 20  2  0  0  0  0
 18 38  1  0  0  0  0
 19 46  1  0  0  0  0
 20 39  1  0  0  0  0
 21 80  1  0  0  0  0
 22 81  1  0  0  0  0
 23 25  2  0  0  0  0
 23 80  1  0  0  0  0
 24 82  1  0  0  0  0
 25 83  1  0  0  0  0
 26 62  2  0  0  0  0
 27 29  2  0  0  0  0
 27 49  1  0  0  0  0
 27 63  1  0  0  0  0
 28 64  1  0  0  0  0
 28 67  1  0  0  0  0
 29 69  1  0  0  0  0
 29 84  1  0  0  0  0
 30 57  1  0  0  0  0
 30 63  2  0  0  0  0
 30 84  1  0  0  0  0
 31 68  1  0  0  0  0
 31 74  2  0  0  0  0
 32 47  1  0  0  0  0
 32 70  1  0  0  0  0
 32 75  2  0  0  0  0
 33 58  1  0  0  0  0
 33 65  1  0  0  0  0
 33 76  2  0  0  0  0
 34 59  1  0  0  0  0
 34 71  1  0  0  0  0
 34 77  2  0  0  0  0
 35 60  1  0  0  0  0
 35 69  1  0  0  0  0
 35 78  2  0  0  0  0
 36 66  1  0  0  0  0
 36 72  1  0  0  0  0
 36 79  2  0  0  0  0
 37 40  1  0  0  0  0
 38 47  1  0  0  0  0
 39 65  1  0  0  0  0
 40 42  1  0  0  0  0
 41 43  1  0  0  0  0
 41 44  1  0  0  0  0
 42 46  1  0  0  0  0
 43 48  1  0  0  0  0
 44 66  1  0  0  0  0
 45 48  1  0  0  0  0
 45 66  1  0  0  0  0
 46 70  1  0  0  0  0
 47 65  1  0  0  0  0
 48 64  1  0  0  0  0
 50 59  1  0  0  0  0
 51 60  1  0  0  0  0
 52 61  1  0  0  0  0
 53 61  1  0  0  0  0
 54 61  1  0  0  0  0
 55 72  1  0  0  0  0
 56 73  1  0  0  0  0
 57 72  1  0  0  0  0
 58 61  1  0  0  0  0
 58 71  1  0  0  0  0
 59 73  1  0  0  0  0
 60 81  1  0  0  0  0
 62 64  1  0  0  0  0
M  CHG  1  73   1
M  ISO  4  36 100  60 101  72 100  81 101
M  END
> <Batch ID>
0186

> <Smiles>
CNC(C)C(=O)NC(C(=O)N1Cc2cc([101O:1][101CH:1](C)C(=O)Nc3sc(C[100N:0](C)[100C:0](=O)N4CCCC(n5nc(-c6ccc(Oc7ccc(F)cc7F)cc6)c(C(N)=O)c5N)C4)nc3C)ccc2CC1C(=O)NC1CCCc2ccccc21)C(C)(C)C

> <Shape>
0.142

> <Color>
0.109

> <Negative vol penalty>
0.000

$$$$

  -OEChem-04052305093D

 84 92  0     1  0  0  0  0  0999 V2000
  -17.9578  -30.6008   23.8743 C   0  0  0  0  0  0  0  0  0  0  0  0
  -19.3450  -30.7062   23.8890 C   0  0  0  0  0  0  0  0  0  0  0  0
  -23.0283  -10.1053   19.8916 C   0  0  0  0  0  0  0  0  0  0  0  0
  -24.2635   -9.7146   21.9309 C   0  0  0  0  0  0  0  0  0  0  0  0
  -17.3535  -29.4349   23.4058 C   0  0  0  0  0  0  0  0  0  0  0  0
  -20.1286  -29.6454   23.4363 C   0  0  0  0  0  0  0  0  0  0  0  0
  -26.3331  -28.3076   20.1151 C   0  0  0  0  0  0  0  0  0  0  0  0
  -22.4090   -8.8631   20.0287 C   0  0  0  0  0  0  0  0  0  0  0  0
  -23.6441   -8.4724   22.0681 C   0  0  0  0  0  0  0  0  0  0  0  0
  -27.4945  -27.5512   20.2663 C   0  0  0  0  0  0  0  0  0  0  0  0
  -20.6612   -7.2807   23.1184 C   0  0  0  0  0  0  0  0  0  0  0  0
  -20.1770   -6.9354   24.3801 C   0  0  0  0  0  0  0  0  0  0  0  0
  -26.3391  -25.6165   19.4052 C   0  0  0  0  0  0  0  0  0  0  0  0
  -21.6346   -5.0089   24.4123 C   0  0  0  0  0  0  0  0  0  0  0  0
  -23.9557  -10.5311   20.8427 C   0  0  0  0  0  0  0  0  0  0  0  0
  -24.1486  -13.0482   21.2091 C   0  0  0  0  0  0  0  0  0  0  0  0
  -18.1298  -28.3630   22.9381 C   0  0  0  0  0  0  0  0  0  0  0  0
  -25.1610  -27.7205   19.6173 C   0  0  0  0  0  0  0  0  0  0  0  0
  -19.5340  -28.4636   22.9623 C   0  0  0  0  0  0  0  0  0  0  0  0
  -25.1650  -26.3683   19.2463 C   0  0  0  0  0  0  0  0  0  0  0  0
  -22.7168   -8.0466   21.1170 C   0  0  0  0  0  0  0  0  0  0  0  0
  -27.4968  -26.2047   19.9140 C   0  0  0  0  0  0  0  0  0  0  0  0
  -21.6321   -6.4900   22.5036 C   0  0  0  0  0  0  0  0  0  0  0  0
  -20.6637   -5.7996   25.0271 C   0  0  0  0  0  0  0  0  0  0  0  0
  -22.1188   -5.3541   23.1506 C   0  0  0  0  0  0  0  0  0  0  0  0
  -24.5963  -11.8139   20.7013 C   0  0  0  0  0  0  0  0  0  0  0  0
  -29.2087  -18.7457   19.3515 C   0  0  0  0  0  0  0  0  0  0  0  0
  -28.9341  -18.1700   20.5743 C   0  0  0  0  0  0  0  0  0  0  0  0
  -25.1017  -13.9514   20.8059 C   0  0  0  0  0  0  0  0  0  0  0  0
  -28.8466  -20.5762   20.5039 C   0  0  0  0  0  0  0  0  0  0  0  0
  -22.9762  -13.3513   21.9768 C   0  0  0  0  0  0  0  0  0  0  0  0
  -22.2351  -27.2351   20.7605 C   0  0  0  0  0  0  0  0  0  0  0  0
  -21.6517  -26.1919   17.7449 C   0  0  0  0  0  0  0  0  0  0  0  0
  -22.8854  -24.9033   14.8355 C   0  0  0  0  0  0  0  0  0  0  0  0
  -28.8316  -23.0649   20.1228 C   0  0  0  0  0  0  0  0  0  0  0  0
  -30.6708  -15.0268   20.4252 C   0  0  0  0  0  0  0  0  0  0  0  0
  -17.4324  -27.1048   22.4853 C   0  0  0  0  0  0  0  0  0  0  0  0
  -23.9241  -28.5568   19.4352 C   0  0  0  0  0  0  0  0  0  0  0  0
  -23.9385  -25.6956   18.6881 C   0  0  0  0  0  0  0  0  0  0  0  0
  -18.3265  -26.1713   21.6732 C   0  0  0  0  0  0  0  0  0  0  0  0
  -28.9277  -13.4914   17.5433 C   0  0  0  0  0  0  0  0  0  0  0  0
  -19.6809  -26.0030   22.3543 C   0  0  0  0  0  0  0  0  0  0  0  0
  -27.6425  -12.9601   18.1758 C   0  0  0  0  0  0  0  0  0  0  0  0
  -30.0757  -13.5403   18.5470 C   0  0  0  0  0  0  0  0  0  0  0  0
  -28.4757  -13.7720   20.4180 C   0  0  0  0  0  0  0  0  0  0  0  0
  -20.4176  -27.3441   22.4563 C   0  0  1  0  0  0  0  0  0  0  0  0
  -22.6430  -27.7291   19.4013 C   0  0  1  0  0  0  0  0  0  0  0  0
  -27.2871  -13.7537   19.4452 C   0  0  2  0  0  0  0  0  0  0  0  0
  -29.5451  -18.0249   18.1068 C   0  0  0  0  0  0  0  0  0  0  0  0
  -22.1605  -24.1200   12.5643 C   0  0  0  0  0  0  0  0  0  0  0  0
  -29.5545  -24.5041   22.0634 C   0  0  0  0  0  0  0  0  0  0  0  0
  -20.5845  -23.6129   18.9776 C   0  0  0  0  0  0  0  0  0  0  0  0
  -20.7730  -22.5396   16.7235 C   0  0  0  0  0  0  0  0  0  0  0  0
  -19.2437  -24.4825   17.0539 C   0  0  0  0  0  0  0  0  0  0  0  0
  -31.2033  -16.9951   21.8115 C   0  0  0  0  0  0  0  0  0  0  0  0
  -24.5322  -26.9522   13.4757 C   0  0  0  0  0  0  0  0  0  0  0  0
  -28.8977  -16.7479   20.9696 C   0  0  0  0  0  0  0  0  0  0  0  0
  -21.7433  -24.8615   17.0374 C   0  0  1  0  0  0  0  0  0  0  0  0
  -22.6642  -25.2964   13.3861 C   0  0  2  0  0  0  0  0  0  0  0  0
  -28.5565  -24.3325   20.9278 C   0  0  1  0  0  0  0  0  0  1  0  0
  -20.6088  -23.8860   17.4604 C   0  0  0  0  0  0  0  0  0  0  0  0
  -25.7443  -11.9197   20.0268 N   0  0  0  0  0  0  0  0  0  0  0  0
  -29.1586  -20.1254   19.3091 N   0  0  0  0  0  0  0  0  0  0  0  0
  -26.0260  -13.2312   20.1080 N   0  0  0  0  0  0  0  0  0  0  0  0
  -22.7521  -26.5538   18.5348 N   0  0  0  0  0  0  0  0  0  0  0  0
  -29.6966  -14.2631   19.7615 N   0  0  0  0  0  0  0  0  0  0  0  0
  -25.2307  -15.2833   20.9838 N   0  0  0  0  0  0  0  0  0  0  0  0
  -22.1031  -12.3050   22.3042 N   0  0  0  0  0  0  0  0  0  0  0  0
  -28.6896  -21.9241   20.9059 N   0  0  0  0  0  0  0  0  0  0  0  0
  -21.0026  -27.6976   21.1806 N   0  0  0  0  0  0  0  0  0  0  0  0
  -21.7735  -25.1596   15.6096 N   0  0  0  0  0  0  0  0  0  0  0  0
  -30.2294  -16.1647   21.1173 N   0  0  0  0  0  0  0  0  0  0  0  0
  -23.9368  -25.7817   12.7810 N   0  3  0  0  0  0  0  0  0  0  0  0
  -22.7022  -14.5181   22.3469 O   0  0  0  0  0  0  0  0  0  0  0  0
  -22.9825  -26.4884   21.3813 O   0  0  0  0  0  0  0  0  0  0  0  0
  -20.6441  -26.8878   17.5962 O   0  0  0  0  0  0  0  0  0  0  0  0
  -23.9379  -24.4141   15.2399 O   0  0  0  0  0  0  0  0  0  0  0  0
  -29.1210  -23.1182   18.9309 O   0  0  0  0  0  0  0  0  0  0  0  0
  -31.8682  -14.7149   20.3927 O   0  0  0  0  0  0  0  0  0  0  0  0
  -22.1124   -6.8345   21.2513 O   0  0  0  0  0  0  0  0  0  0  0  0
  -28.6288  -25.4639   20.0611 O   0  0  0  0  0  0  0  0  0  1  0  0
  -20.1998   -5.4690   26.2394 F   0  0  0  0  0  0  0  0  0  0  0  0
  -23.0524   -4.5913   22.5654 F   0  0  0  0  0  0  0  0  0  0  0  0
  -28.6000  -19.3965   21.7255 S   0  0  0  0  0  0  0  0  0  0  0  0
  1  2  1  0  0  0  0
  1  5  2  0  0  0  0
  2  6  2  0  0  0  0
  3  8  2  0  0  0  0
  3 15  1  0  0  0  0
  4  9  1  0  0  0  0
  4 15  2  0  0  0  0
  5 17  1  0  0  0  0
  6 19  1  0  0  0  0
  7 10  2  0  0  0  0
  7 18  1  0  0  0  0
  8 21  1  0  0  0  0
  9 21  2  0  0  0  0
 10 22  1  0  0  0  0
 11 12  2  0  0  0  0
 11 23  1  0  0  0  0
 12 24  1  0  0  0  0
 13 20  1  0  0  0  0
 13 22  2  0  0  0  0
 14 24  2  0  0  0  0
 14 25  1  0  0  0  0
 15 26  1  0  0  0  0
 16 26  1  0  0  0  0
 16 29  2  0  0  0  0
 16 31  1  0  0  0  0
 17 19  2  0  0  0  0
 17 37  1  0  0  0  0
 18 20  2  0  0  0  0
 18 38  1  0  0  0  0
 19 46  1  0  0  0  0
 20 39  1  0  0  0  0
 21 80  1  0  0  0  0
 22 81  1  0  0  0  0
 23 25  2  0  0  0  0
 23 80  1  0  0  0  0
 24 82  1  0  0  0  0
 25 83  1  0  0  0  0
 26 62  2  0  0  0  0
 27 28  2  0  0  0  0
 27 49  1  0  0  0  0
 27 63  1  0  0  0  0
 28 57  1  0  0  0  0
 28 84  1  0  0  0  0
 29 64  1  0  0  0  0
 29 67  1  0  0  0  0
 30 63  2  0  0  0  0
 30 69  1  0  0  0  0
 30 84  1  0  0  0  0
 31 68  1  0  0  0  0
 31 74  2  0  0  0  0
 32 47  1  0  0  0  0
 32 70  1  0  0  0  0
 32 75  2  0  0  0  0
 33 58  1  0  0  0  0
 33 65  1  0  0  0  0
 33 76  2  0  0  0  0
 34 59  1  0  0  0  0
 34 71  1  0  0  0  0
 34 77  2  0  0  0  0
 35 60  1  0  0  0  0
 35 69  1  0  0  0  0
 35 78  2  0  0  0  0
 36 66  1  0  0  0  0
 36 72  1  0  0  0  0
 36 79  2  0  0  0  0
 37 40  1  0  0  0  0
 38 47  1  0  0  0  0
 39 65  1  0  0  0  0
 40 42  1  0  0  0  0
 41 43  1  0  0  0  0
 41 44  1  0  0  0  0
 42 46  1  0  0  0  0
 43 48  1  0  0  0  0
 44 66  1  0  0  0  0
 45 48  1  0  0  0  0
 45 66  1  0  0  0  0
 46 70  1  0  0  0  0
 47 65  1  0  0  0  0
 48 64  1  0  0  0  0
 50 59  1  0  0  0  0
 51 60  1  0  0  0  0
 52 61  1  0  0  0  0
 53 61  1  0  0  0  0
 54 61  1  0  0  0  0
 55 72  1  0  0  0  0
 56 73  1  0  0  0  0
 57 72  1  0  0  0  0
 58 61  1  0  0  0  0
 58 71  1  0  0  0  0
 59 73  1  0  0  0  0
 60 81  1  0  0  0  0
 62 64  1  0  0  0  0
M  CHG  1  73   1
M  ISO  4  36 100  60 101  72 100  81 101
M  END
> <Batch ID>
0186

> <Smiles>
CNC(C)C(=O)NC(C(=O)N1Cc2cc([101O:1][101CH:1](C)C(=O)Nc3nc(C)c(C[100N:0](C)[100C:0](=O)N4CCCC(n5nc(-c6ccc(Oc7ccc(F)cc7F)cc6)c(C(N)=O)c5N)C4)s3)ccc2CC1C(=O)NC1CCCc2ccccc21)C(C)(C)C

> <Shape>
0.372

> <Color>
0.218

> <Negative vol penalty>
0.000

$$$$

  -OEChem-04052305093D

 84 92  0     1  0  0  0  0  0999 V2000
  -29.5005  -12.4020   19.3438 C   0  0  0  0  0  0  0  0  0  0  0  0
  -29.1630  -13.6059   18.7337 C   0  0  0  0  0  0  0  0  0  0  0  0
  -30.3879  -23.7277   19.4605 C   0  0  0  0  0  0  0  0  0  0  0  0
  -28.5463  -23.7632   17.8971 C   0  0  0  0  0  0  0  0  0  0  0  0
  -28.5476  -11.7076   20.0878 C   0  0  0  0  0  0  0  0  0  0  0  0
  -27.8719  -14.1155   18.8664 C   0  0  0  0  0  0  0  0  0  0  0  0
  -24.3410  -20.3337   19.2946 C   0  0  0  0  0  0  0  0  0  0  0  0
  -30.6444  -22.3976   19.1282 C   0  0  0  0  0  0  0  0  0  0  0  0
  -28.8028  -22.4331   17.5647 C   0  0  0  0  0  0  0  0  0  0  0  0
  -23.2736  -21.0091   18.7044 C   0  0  0  0  0  0  0  0  0  0  0  0
  -31.5582  -18.8822   18.9534 C   0  0  0  0  0  0  0  0  0  0  0  0
  -31.8024  -17.9873   19.9951 C   0  0  0  0  0  0  0  0  0  0  0  0
  -21.7325  -19.7626   20.0794 C   0  0  0  0  0  0  0  0  0  0  0  0
  -29.6170  -18.4577   20.9116 C   0  0  0  0  0  0  0  0  0  0  0  0
  -19.9776  -27.7441   22.0036 C   0  0  0  0  0  0  0  0  0  0  0  0
  -29.3388  -24.4106   18.8450 C   0  0  0  0  0  0  0  0  0  0  0  0
  -29.6125  -26.9328   18.5785 C   0  0  0  0  0  0  0  0  0  0  0  0
  -27.2468  -12.2138   20.2377 C   0  0  0  0  0  0  0  0  0  0  0  0
  -24.1112  -19.3583   20.2755 C   0  0  0  0  0  0  0  0  0  0  0  0
  -26.9002  -13.4266   19.6120 C   0  0  0  0  0  0  0  0  0  0  0  0
  -22.7989  -19.0781   20.6823 C   0  0  0  0  0  0  0  0  0  0  0  0
  -29.8519  -21.7502   18.1803 C   0  0  0  0  0  0  0  0  0  0  0  0
  -21.9690  -20.7215   19.0947 C   0  0  0  0  0  0  0  0  0  0  0  0
  -30.3434  -19.5649   18.8908 C   0  0  0  0  0  0  0  0  0  0  0  0
  -30.8319  -17.7751   20.9742 C   0  0  0  0  0  0  0  0  0  0  0  0
  -29.3728  -19.3526   19.8699 C   0  0  0  0  0  0  0  0  0  0  0  0
  -29.0729  -25.7844   19.1883 C   0  0  0  0  0  0  0  0  0  0  0  0
  -21.0418  -27.6339   21.1333 C   0  0  0  0  0  0  0  0  0  0  0  0
  -29.0500  -27.9819   19.2636 C   0  0  0  0  0  0  0  0  0  0  0  0
  -20.1903  -25.6302   20.8684 C   0  0  0  0  0  0  0  0  0  0  0  0
  -30.5393  -27.0415   17.4899 C   0  0  0  0  0  0  0  0  0  0  0  0
  -24.6832  -16.2409   20.5163 C   0  0  0  0  0  0  0  0  0  0  0  0
  -23.6043  -16.6727   23.5448 C   0  0  0  0  0  0  0  0  0  0  0  0
  -21.7291  -18.5204   25.7164 C   0  0  0  0  0  0  0  0  0  0  0  0
  -20.6681  -23.5442   19.5430 C   0  0  0  0  0  0  0  0  0  0  0  0
  -23.9776  -28.5567   22.3927 C   0  0  0  0  0  0  0  0  0  0  0  0
  -26.2374  -11.4039   21.0121 C   0  0  0  0  0  0  0  0  0  0  0  0
  -25.2750  -18.6578   20.9215 C   0  0  0  0  0  0  0  0  0  0  0  0
  -22.4998  -18.0542   21.7456 C   0  0  0  0  0  0  0  0  0  0  0  0
  -24.9985  -12.1993   21.4153 C   0  0  0  0  0  0  0  0  0  0  0  0
  -27.2908  -29.1343   23.5611 C   0  0  0  0  0  0  0  0  0  0  0  0
  -24.4743  -13.0070   20.2322 C   0  0  0  0  0  0  0  0  0  0  0  0
  -28.1720  -28.4449   22.5179 C   0  0  0  0  0  0  0  0  0  0  0  0
  -25.9993  -28.3586   23.8104 C   0  0  0  0  0  0  0  0  0  0  0  0
  -26.0950  -27.3684   21.5556 C   0  0  0  0  0  0  0  0  0  0  0  0
  -25.5171  -14.0242   19.7534 C   0  0  1  0  0  0  0  0  0  0  0  0
  -24.8953  -17.3173   21.5429 C   0  0  1  0  0  0  0  0  0  0  0  0
  -27.3835  -28.1427   21.2294 C   0  0  2  0  0  0  0  0  0  0  0  0
  -21.0090  -18.6044   28.1189 C   0  0  0  0  0  0  0  0  0  0  0  0
  -18.5579  -22.8455   17.4552 C   0  0  0  0  0  0  0  0  0  0  0  0
  -18.0772  -20.7490   18.7291 C   0  0  0  0  0  0  0  0  0  0  0  0
  -21.6202  -14.4133   23.0266 C   0  0  0  0  0  0  0  0  0  0  0  0
  -20.3392  -15.1701   25.0401 C   0  0  0  0  0  0  0  0  0  0  0  0
  -22.6876  -14.3662   25.2877 C   0  0  0  0  0  0  0  0  0  0  0  0
  -23.0176  -21.1522   26.1314 C   0  0  0  0  0  0  0  0  0  0  0  0
  -22.0373  -28.6869   20.8508 C   0  0  0  0  0  0  0  0  0  0  0  0
  -22.2538  -16.6150   24.2170 C   0  0  1  0  0  0  0  0  0  0  0  0
  -22.0364  -19.0687   27.0982 C   0  0  2  0  0  0  0  0  0  0  0  0
  -20.0821  -22.1401   19.3834 C   0  0  1  0  0  0  0  0  0  1  0  0
  -18.6428  -22.1694   18.8283 C   0  0  0  0  0  0  0  0  0  0  0  0
  -21.7304  -15.1591   24.3714 C   0  0  0  0  0  0  0  0  0  0  0  0
  -28.2323  -26.0763   20.1844 N   0  0  0  0  0  0  0  0  0  0  0  0
  -21.1656  -26.4223   20.4818 N   0  0  0  0  0  0  0  0  0  0  0  0
  -28.2395  -27.4200   20.2058 N   0  0  0  0  0  0  0  0  0  0  0  0
  -23.6711  -17.3916   22.3429 N   0  0  0  0  0  0  0  0  0  0  0  0
  -25.2988  -28.1061   22.5489 N   0  0  0  0  0  0  0  0  0  0  0  0
  -29.1746  -29.3210   19.1462 N   0  0  0  0  0  0  0  0  0  0  0  0
  -31.0183  -25.8637   16.9001 N   0  0  0  0  0  0  0  0  0  0  0  0
  -19.9377  -24.3014   20.4526 N   0  0  0  0  0  0  0  0  0  0  0  0
  -25.5483  -15.1701   20.6368 N   0  0  0  0  0  0  0  0  0  0  0  0
  -22.3940  -17.3364   25.4772 N   0  0  0  0  0  0  0  0  0  0  0  0
  -23.3894  -28.2816   21.1642 N   0  0  0  0  0  0  0  0  0  0  0  0
  -22.0365  -20.5588   27.0760 N   0  3  0  0  0  0  0  0  0  0  0  0
  -30.9437  -28.1499   17.0640 O   0  0  0  0  0  0  0  0  0  0  0  0
  -23.7992  -16.3715   19.6778 O   0  0  0  0  0  0  0  0  0  0  0  0
  -24.5662  -16.1070   24.0705 O   0  0  0  0  0  0  0  0  0  0  0  0
  -20.9717  -19.0841   24.9294 O   0  0  0  0  0  0  0  0  0  0  0  0
  -21.6733  -23.8875   18.9273 O   0  0  0  0  0  0  0  0  0  0  0  0
  -23.3691  -29.1642   23.2803 O   0  0  0  0  0  0  0  0  0  0  0  0
  -30.1021  -20.4524   17.8555 O   0  0  0  0  0  0  0  0  0  0  0  0
  -20.9252  -21.3787   18.5198 O   0  0  0  0  0  0  0  0  0  1  0  0
  -31.0659  -16.9146   21.9737 F   0  0  0  0  0  0  0  0  0  0  0  0
  -28.2034  -20.0047   19.8144 F   0  0  0  0  0  0  0  0  0  0  0  0
  -19.0880  -26.2779   22.0131 S   0  0  0  0  0  0  0  0  0  0  0  0
  1  2  1  0  0  0  0
  1  5  2  0  0  0  0
  2  6  2  0  0  0  0
  3  8  2  0  0  0  0
  3 16  1  0  0  0  0
  4  9  1  0  0  0  0
  4 16  2  0  0  0  0
  5 18  1  0  0  0  0
  6 20  1  0  0  0  0
  7 10  2  0  0  0  0
  7 19  1  0  0  0  0
  8 22  1  0  0  0  0
  9 22  2  0  0  0  0
 10 23  1  0  0  0  0
 11 12  2  0  0  0  0
 11 24  1  0  0  0  0
 12 25  1  0  0  0  0
 13 21  1  0  0  0  0
 13 23  2  0  0  0  0
 14 25  2  0  0  0  0
 14 26  1  0  0  0  0
 15 28  2  0  0  0  0
 15 84  1  0  0  0  0
 16 27  1  0  0  0  0
 17 27  1  0  0  0  0
 17 29  2  0  0  0  0
 17 31  1  0  0  0  0
 18 20  2  0  0  0  0
 18 37  1  0  0  0  0
 19 21  2  0  0  0  0
 19 38  1  0  0  0  0
 20 46  1  0  0  0  0
 21 39  1  0  0  0  0
 22 80  1  0  0  0  0
 23 81  1  0  0  0  0
 24 26  2  0  0  0  0
 24 80  1  0  0  0  0
 25 82  1  0  0  0  0
 26 83  1  0  0  0  0
 27 62  2  0  0  0  0
 28 56  1  0  0  0  0
 28 63  1  0  0  0  0
 29 64  1  0  0  0  0
 29 67  1  0  0  0  0
 30 63  2  0  0  0  0
 30 69  1  0  0  0  0
 30 84  1  0  0  0  0
 31 68  1  0  0  0  0
 31 74  2  0  0  0  0
 32 47  1  0  0  0  0
 32 70  1  0  0  0  0
 32 75  2  0  0  0  0
 33 57  1  0  0  0  0
 33 65  1  0  0  0  0
 33 76  2  0  0  0  0
 34 58  1  0  0  0  0
 34 71  1  0  0  0  0
 34 77  2  0  0  0  0
 35 59  1  0  0  0  0
 35 69  1  0  0  0  0
 35 78  2  0  0  0  0
 36 66  1  0  0  0  0
 36 72  1  0  0  0  0
 36 79  2  0  0  0  0
 37 40  1  0  0  0  0
 38 47  1  0  0  0  0
 39 65  1  0  0  0  0
 40 42  1  0  0  0  0
 41 43  1  0  0  0  0
 41 44  1  0  0  0  0
 42 46  1  0  0  0  0
 43 48  1  0  0  0  0
 44 66  1  0  0  0  0
 45 48  1  0  0  0  0
 45 66  1  0  0  0  0
 46 70  1  0  0  0  0
 47 65  1  0  0  0  0
 48 64  1  0  0  0  0
 49 58  1  0  0  0  0
 50 60  1  0  0  0  0
 51 60  1  0  0  0  0
 52 61  1  0  0  0  0
 53 61  1  0  0  0  0
 54 61  1  0  0  0  0
 55 73  1  0  0  0  0
 56 72  1  0  0  0  0
 57 61  1  0  0  0  0
 57 71  1  0  0  0  0
 58 73  1  0  0  0  0
 59 60  1  0  0  0  0
 59 81  1  0  0  0  0
 62 64  1  0  0  0  0
M  CHG  1  73   1
M  ISO  4  36 100  59 101  72 100  81 101
M  END
> <Batch ID>
0186

> <Smiles>
CNC(C)C(=O)NC(C(=O)N1Cc2cc([101O:1][101CH:1](C(=O)Nc3nc(C[100NH:0][100C:0](=O)N4CCCC(n5nc(-c6ccc(Oc7ccc(F)cc7F)cc6)c(C(N)=O)c5N)C4)cs3)C(C)C)ccc2CC1C(=O)NC1CCCc2ccccc21)C(C)(C)C

> <Shape>
0.207

> <Color>
0.066

> <Negative vol penalty>
0.000

$$$$

  -OEChem-04052305093D

 85 93  0     1  0  0  0  0  0999 V2000
  -19.1859  -24.3167   20.7226 C   0  0  0  0  0  0  0  0  0  0  0  0
  -20.5297  -24.6118   20.5163 C   0  0  0  0  0  0  0  0  0  0  0  0
  -24.2251  -13.4155   21.6684 C   0  0  0  0  0  0  0  0  0  0  0  0
  -26.3313  -13.4661   20.4857 C   0  0  0  0  0  0  0  0  0  0  0  0
  -18.3899  -25.1833   21.4704 C   0  0  0  0  0  0  0  0  0  0  0  0
  -21.0780  -25.7744   21.0568 C   0  0  0  0  0  0  0  0  0  0  0  0
  -25.5756  -24.9685   23.2400 C   0  0  0  0  0  0  0  0  0  0  0  0
  -23.8868  -12.2304   21.0152 C   0  0  0  0  0  0  0  0  0  0  0  0
  -25.9930  -12.2809   19.8326 C   0  0  0  0  0  0  0  0  0  0  0  0
  -26.6799  -24.8481   22.3975 C   0  0  0  0  0  0  0  0  0  0  0  0
  -24.6277   -8.9418   21.2788 C   0  0  0  0  0  0  0  0  0  0  0  0
  -24.0829   -7.9118   22.0455 C   0  0  0  0  0  0  0  0  0  0  0  0
  -27.2784  -27.1378   22.8645 C   0  0  0  0  0  0  0  0  0  0  0  0
  -22.0796   -7.9670   20.6961 C   0  0  0  0  0  0  0  0  0  0  0  0
  -25.4473  -14.0334   21.4036 C   0  0  0  0  0  0  0  0  0  0  0  0
  -26.4811  -15.3895   23.3010 C   0  0  0  0  0  0  0  0  0  0  0  0
  -18.9310  -26.3522   22.0285 C   0  0  0  0  0  0  0  0  0  0  0  0
  -25.3078  -26.1799   23.8937 C   0  0  0  0  0  0  0  0  0  0  0  0
  -20.2881  -26.6582   21.8116 C   0  0  0  0  0  0  0  0  0  0  0  0
  -26.1715  -27.2703   23.7168 C   0  0  0  0  0  0  0  0  0  0  0  0
  -24.7707  -11.6631   20.0973 C   0  0  0  0  0  0  0  0  0  0  0  0
  -27.5298  -25.9337   22.2073 C   0  0  0  0  0  0  0  0  0  0  0  0
  -23.8984   -9.4845   20.2207 C   0  0  0  0  0  0  0  0  0  0  0  0
  -22.8089   -7.4244   21.7542 C   0  0  0  0  0  0  0  0  0  0  0  0
  -22.6244   -8.9970   19.9294 C   0  0  0  0  0  0  0  0  0  0  0  0
  -25.7971  -15.2579   22.0776 C   0  0  0  0  0  0  0  0  0  0  0  0
  -30.3044  -23.1986   18.4197 C   0  0  0  0  0  0  0  0  0  0  0  0
  -26.5636  -16.7453   23.5041 C   0  0  0  0  0  0  0  0  0  0  0  0
  -31.2643  -22.3328   18.9005 C   0  0  0  0  0  0  0  0  0  0  0  0
  -28.9823  -21.7643   19.4220 C   0  0  0  0  0  0  0  0  0  0  0  0
  -26.9960  -14.3766   24.1754 C   0  0  0  0  0  0  0  0  0  0  0  0
  -22.9143  -28.2711   23.8499 C   0  0  0  0  0  0  0  0  0  0  0  0
  -24.5915  -29.6510   26.2592 C   0  0  0  0  0  0  0  0  0  0  0  0
  -27.6007  -30.1102   27.8021 C   0  0  0  0  0  0  0  0  0  0  0  0
  -26.5139  -21.4379   19.8051 C   0  0  0  0  0  0  0  0  0  0  0  0
  -18.0198  -27.2824   22.7897 C   0  0  0  0  0  0  0  0  0  0  0  0
  -24.1276  -26.2855   24.8201 C   0  0  0  0  0  0  0  0  0  0  0  0
  -25.9395  -28.5865   24.4113 C   0  0  0  0  0  0  0  0  0  0  0  0
  -18.7673  -28.3037   23.6431 C   0  0  0  0  0  0  0  0  0  0  0  0
  -24.2706  -20.8285   22.5020 C   0  0  0  0  0  0  0  0  0  0  0  0
  -19.8958  -28.9452   22.8419 C   0  0  0  0  0  0  0  0  0  0  0  0
  -24.4742  -19.3442   22.8146 C   0  0  0  0  0  0  0  0  0  0  0  0
  -24.3617  -21.1101   21.0033 C   0  0  0  0  0  0  0  0  0  0  0  0
  -25.7821  -19.1262   20.6631 C   0  0  0  0  0  0  0  0  0  0  0  0
  -20.9253  -27.8971   22.4025 C   0  0  1  0  0  0  0  0  0  0  0  0
  -23.6614  -27.7225   25.0325 C   0  0  1  0  0  0  0  0  0  0  0  0
  -25.7636  -18.8034   22.1662 C   0  0  2  0  0  0  0  0  0  0  0  0
  -28.6637  -31.3217   29.7256 C   0  0  0  0  0  0  0  0  0  0  0  0
  -27.5440  -26.6922   18.0315 C   0  0  0  0  0  0  0  0  0  0  0  0
  -24.4808  -32.2570   24.6759 C   0  0  0  0  0  0  0  0  0  0  0  0
  -26.3146  -33.1396   26.1342 C   0  0  0  0  0  0  0  0  0  0  0  0
  -24.1174  -32.5152   27.1368 C   0  0  0  0  0  0  0  0  0  0  0  0
  -28.5683  -24.3909   16.2820 C   0  0  0  0  0  0  0  0  0  0  0  0
  -30.1762  -26.3035   16.3526 C   0  0  0  0  0  0  0  0  0  0  0  0
  -28.4433  -27.5782   29.0820 C   0  0  0  0  0  0  0  0  0  0  0  0
  -29.6852  -26.6014   19.3873 C   0  0  0  0  0  0  0  0  0  0  0  0
  -29.0403  -27.0009   20.7121 C   0  0  0  0  0  0  0  0  0  1  0  0
  -25.6805  -30.6932   26.3437 C   0  0  1  0  0  0  0  0  0  0  0  0
  -28.0063  -30.0308   29.2628 C   0  0  2  0  0  0  0  0  0  0  0  0
  -28.7458  -25.8199   18.4386 C   0  0  2  0  0  0  0  0  0  0  0  0
  -25.1519  -32.1272   26.0579 C   0  0  0  0  0  0  0  0  0  0  0  0
  -29.4887  -25.2142   17.1960 C   0  0  0  0  0  0  0  0  0  0  0  0
  -25.4683  -16.4362   21.5414 N   0  0  0  0  0  0  0  0  0  0  0  0
  -28.9953  -22.8739   18.7173 N   0  0  0  0  0  0  0  0  0  0  0  0
  -25.9477  -17.3211   22.4321 N   0  0  0  0  0  0  0  0  0  0  0  0
  -24.7687  -28.6419   25.3021 N   0  0  0  0  0  0  0  0  0  0  0  0
  -25.6107  -20.5731   20.4588 N   0  0  0  0  0  0  0  0  0  0  0  0
  -27.1021  -17.4893   24.4935 N   0  0  0  0  0  0  0  0  0  0  0  0
  -26.8251  -13.0330   23.8152 N   0  0  0  0  0  0  0  0  0  0  0  0
  -30.5475  -24.3350   17.6805 N   0  0  0  0  0  0  0  0  0  0  0  0
  -27.8547  -21.0783   19.9375 N   0  0  0  0  0  0  0  0  0  0  0  0
  -21.7902  -27.5439   23.5078 N   0  0  0  0  0  0  0  0  0  0  0  0
  -26.2968  -30.5341   27.6564 N   0  0  0  0  0  0  0  0  0  0  0  0
  -28.9679  -28.9119   29.4734 N   0  3  0  0  0  0  0  0  0  0  0  0
  -27.5755  -14.6545   25.2527 O   0  0  0  0  0  0  0  0  0  0  0  0
  -23.3264  -29.2803   23.2901 O   0  0  0  0  0  0  0  0  0  0  0  0
  -23.6230  -29.7255   27.0195 O   0  0  0  0  0  0  0  0  0  0  0  0
  -28.3655  -29.8282   26.8822 O   0  0  0  0  0  0  0  0  0  0  0  0
  -26.1284  -22.4398   19.1972 O   0  0  0  0  0  0  0  0  0  0  0  0
  -24.4410  -10.5065   19.4600 O   0  0  0  0  0  0  0  0  0  0  0  0
  -28.6080  -25.8190   21.3850 O   0  0  0  0  0  0  0  0  0  1  0  0
  -22.2865   -6.4342   22.4896 F   0  0  0  0  0  0  0  0  0  0  0  0
  -21.9195   -9.5135   18.9135 F   0  0  0  0  0  0  0  0  0  0  0  0
  -32.9361  -22.5027   18.6757 S   0  5  0  0  0  0  0  0  0  0  0  0
  -30.5085  -21.0579   19.7636 S   0  0  0  0  0  0  0  0  0  0  0  0
  1  2  1  0  0  0  0
  1  5  2  0  0  0  0
  2  6  2  0  0  0  0
  3  8  2  0  0  0  0
  3 15  1  0  0  0  0
  4  9  1  0  0  0  0
  4 15  2  0  0  0  0
  5 17  1  0  0  0  0
  6 19  1  0  0  0  0
  7 10  2  0  0  0  0
  7 18  1  0  0  0  0
  8 21  1  0  0  0  0
  9 21  2  0  0  0  0
 10 22  1  0  0  0  0
 11 12  2  0  0  0  0
 11 23  1  0  0  0  0
 12 24  1  0  0  0  0
 13 20  1  0  0  0  0
 13 22  2  0  0  0  0
 14 24  2  0  0  0  0
 14 25  1  0  0  0  0
 15 26  1  0  0  0  0
 16 26  1  0  0  0  0
 16 28  2  0  0  0  0
 16 31  1  0  0  0  0
 17 19  2  0  0  0  0
 17 36  1  0  0  0  0
 18 20  2  0  0  0  0
 18 37  1  0  0  0  0
 19 45  1  0  0  0  0
 20 38  1  0  0  0  0
 21 80  1  0  0  0  0
 22 81  1  0  0  0  0
 23 25  2  0  0  0  0
 23 80  1  0  0  0  0
 24 82  1  0  0  0  0
 25 83  1  0  0  0  0
 26 63  2  0  0  0  0
 27 29  2  0  0  0  0
 27 64  1  0  0  0  0
 27 70  1  0  0  0  0
 28 65  1  0  0  0  0
 28 68  1  0  0  0  0
 29 84  1  0  0  0  0
 29 85  1  0  0  0  0
 30 64  2  0  0  0  0
 30 71  1  0  0  0  0
 30 85  1  0  0  0  0
 31 69  1  0  0  0  0
 31 75  2  0  0  0  0
 32 46  1  0  0  0  0
 32 72  1  0  0  0  0
 32 76  2  0  0  0  0
 33 58  1  0  0  0  0
 33 66  1  0  0  0  0
 33 77  2  0  0  0  0
 34 59  1  0  0  0  0
 34 73  1  0  0  0  0
 34 78  2  0  0  0  0
 35 67  1  0  0  0  0
 35 71  1  0  0  0  0
 35 79  2  0  0  0  0
 36 39  1  0  0  0  0
 37 46  1  0  0  0  0
 38 66  1  0  0  0  0
 39 41  1  0  0  0  0
 40 42  1  0  0  0  0
 40 43  1  0  0  0  0
 41 45  1  0  0  0  0
 42 47  1  0  0  0  0
 43 67  1  0  0  0  0
 44 47  1  0  0  0  0
 44 67  1  0  0  0  0
 45 72  1  0  0  0  0
 46 66  1  0  0  0  0
 47 65  1  0  0  0  0
 48 59  1  0  0  0  0
 49 60  1  0  0  0  0
 50 61  1  0  0  0  0
 51 61  1  0  0  0  0
 52 61  1  0  0  0  0
 53 62  1  0  0  0  0
 54 62  1  0  0  0  0
 55 74  1  0  0  0  0
 56 57  1  0  0  0  0
 56 60  1  0  0  0  0
 57 81  1  0  0  0  0
 58 61  1  0  0  0  0
 58 73  1  0  0  0  0
 59 74  1  0  0  0  0
 60 62  1  0  0  0  0
 62 70  1  0  0  0  0
 63 65  1  0  0  0  0
M  CHG  2  74   1  84  -1
M  ISO  4  35 100  57 101  71 100  81 101
M  END
> <Batch ID>
0186

> <Smiles>
CNC(C)C(=O)NC(C(=O)N1Cc2cc([101O:1][101CH2:1]CC(C)C(C)(C)Nc3nc([100NH:0][100C:0](=O)N4CCCC(n5nc(-c6ccc(Oc7ccc(F)cc7F)cc6)c(C(N)=O)c5N)C4)sc3S)ccc2CC1C(=O)NC1CCCc2ccccc21)C(C)(C)C

> <Shape>
0.234

> <Color>
0.080

> <Negative vol penalty>
0.000

$$$$

  -OEChem-04052305093D

 90 98  0     1  0  0  0  0  0999 V2000
  -18.0766  -25.0456   24.2853 C   0  0  0  0  0  0  0  0  0  0  0  0
  -19.4172  -24.6999   24.1485 C   0  0  0  0  0  0  0  0  0  0  0  0
  -24.7881   -9.8475   21.2112 C   0  0  0  0  0  0  0  0  0  0  0  0
  -25.1950  -10.9785   23.3070 C   0  0  0  0  0  0  0  0  0  0  0  0
  -17.6177  -26.2642   23.7870 C   0  0  0  0  0  0  0  0  0  0  0  0
  -20.2996  -25.5723   23.5122 C   0  0  0  0  0  0  0  0  0  0  0  0
  -26.2038  -26.4730   24.8666 C   0  0  0  0  0  0  0  0  0  0  0  0
  -24.7983   -8.6192   21.8720 C   0  0  0  0  0  0  0  0  0  0  0  0
  -25.2052   -9.7501   23.9678 C   0  0  0  0  0  0  0  0  0  0  0  0
  -27.3806  -25.9745   24.3094 C   0  0  0  0  0  0  0  0  0  0  0  0
  -22.6820   -6.8000   23.7810 C   0  0  0  0  0  0  0  0  0  0  0  0
  -21.6776   -5.8853   23.4647 C   0  0  0  0  0  0  0  0  0  0  0  0
  -27.5754  -27.9626   22.9572 C   0  0  0  0  0  0  0  0  0  0  0  0
  -23.3504   -4.2968   22.7466 C   0  0  0  0  0  0  0  0  0  0  0  0
  -24.9865  -11.0272   21.9286 C   0  0  0  0  0  0  0  0  0  0  0  0
  -23.8646  -13.1278   21.0139 C   0  0  0  0  0  0  0  0  0  0  0  0
  -18.4969  -27.1562   23.1528 C   0  0  0  0  0  0  0  0  0  0  0  0
  -25.6973  -27.7173   24.4646 C   0  0  0  0  0  0  0  0  0  0  0  0
  -19.8517  -26.8034   23.0037 C   0  0  0  0  0  0  0  0  0  0  0  0
  -26.3934  -28.4758   23.5126 C   0  0  0  0  0  0  0  0  0  0  0  0
  -25.0069   -8.5705   23.2503 C   0  0  0  0  0  0  0  0  0  0  0  0
  -28.0650  -26.7180   23.3525 C   0  0  0  0  0  0  0  0  0  0  0  0
  -24.0206   -6.4632   23.5802 C   0  0  0  0  0  0  0  0  0  0  0  0
  -22.0118   -4.6337   22.9475 C   0  0  0  0  0  0  0  0  0  0  0  0
  -24.3548   -5.2116   23.0630 C   0  0  0  0  0  0  0  0  0  0  0  0
  -24.9766  -12.2963   21.2465 C   0  0  0  0  0  0  0  0  0  0  0  0
  -25.2902  -21.9940   19.1163 C   0  0  0  0  0  0  0  0  0  0  0  0
  -26.6567  -22.1791   19.0959 C   0  0  0  0  0  0  0  0  0  0  0  0
  -24.3778  -14.2051   20.3339 C   0  0  0  0  0  0  0  0  0  0  0  0
  -26.6227  -20.0054   19.3852 C   0  0  0  0  0  0  0  0  0  0  0  0
  -22.4908  -12.9428   21.3800 C   0  0  0  0  0  0  0  0  0  0  0  0
  -23.0210  -28.7022   23.0605 C   0  0  0  0  0  0  0  0  0  0  0  0
  -24.2545  -31.6435   23.6516 C   0  0  0  0  0  0  0  0  0  0  0  0
  -28.6457  -23.7109   18.8927 C   0  0  0  0  0  0  0  0  0  0  0  0
  -27.0150  -33.5645   24.2315 C   0  0  0  0  0  0  0  0  0  0  0  0
  -28.2750  -18.1210   19.6408 C   0  0  0  0  0  0  0  0  0  0  0  0
  -17.9450  -28.4412   22.5883 C   0  0  0  0  0  0  0  0  0  0  0  0
  -24.4409  -28.2529   25.0947 C   0  0  0  0  0  0  0  0  0  0  0  0
  -25.9024  -29.8264   23.0618 C   0  0  0  0  0  0  0  0  0  0  0  0
  -19.0204  -29.4736   22.2597 C   0  0  0  0  0  0  0  0  0  0  0  0
  -28.9314  -14.9141   18.2401 C   0  0  0  0  0  0  0  0  0  0  0  0
  -20.1704  -28.8225   21.4980 C   0  0  0  0  0  0  0  0  0  0  0  0
  -27.8695  -14.0155   18.8782 C   0  0  0  0  0  0  0  0  0  0  0  0
  -29.4440  -15.9692   19.2187 C   0  0  0  0  0  0  0  0  0  0  0  0
  -27.3394  -15.8831   20.4963 C   0  0  0  0  0  0  0  0  0  0  0  0
  -20.8447  -27.7339   22.3416 C   0  0  1  0  0  0  0  0  0  0  0  0
  -23.7414  -29.3013   24.2351 C   0  0  1  0  0  0  0  0  0  0  0  0
  -26.7459  -14.8458   19.5291 C   0  0  2  0  0  0  0  0  0  0  0  0
  -28.8961  -25.4455   17.1380 C   0  0  0  0  0  0  0  0  0  0  0  0
  -27.7111  -35.9408   24.6393 C   0  0  0  0  0  0  0  0  0  0  0  0
  -22.7488  -22.1863   20.9110 C   0  0  0  0  0  0  0  0  0  0  0  0
  -24.4697  -23.9396   21.3440 C   0  0  0  0  0  0  0  0  0  0  0  0
  -22.4090  -24.4948   20.0281 C   0  0  0  0  0  0  0  0  0  0  0  0
  -23.8755  -32.2607   20.6876 C   0  0  0  0  0  0  0  0  0  0  0  0
  -25.4205  -34.2107   20.9675 C   0  0  0  0  0  0  0  0  0  0  0  0
  -23.2699  -34.1345   22.2291 C   0  0  0  0  0  0  0  0  0  0  0  0
  -28.1285  -32.9037   26.8928 C   0  0  0  0  0  0  0  0  0  0  0  0
  -24.1915  -22.9724   18.9832 C   0  0  0  0  0  0  0  0  0  0  0  0
  -30.2488  -25.6707   19.2498 C   0  0  0  0  0  0  0  0  0  0  0  0
  -29.5127  -26.6268   21.4678 C   0  0  0  0  0  0  0  0  0  1  0  0
  -25.1577  -32.5941   22.9036 C   0  0  1  0  0  0  0  0  0  0  0  0
  -28.9109  -25.2012   18.6491 C   0  0  2  0  0  0  0  0  0  0  0  0
  -27.3031  -34.6234   25.2804 C   0  0  2  0  0  0  0  0  0  0  0  0
  -30.2942  -25.5216   20.7729 C   0  0  2  0  0  0  0  0  0  0  0  0
  -23.4657  -23.4113   20.3048 C   0  0  0  0  0  0  0  0  0  0  0  0
  -24.4394  -33.2737   21.7038 C   0  0  0  0  0  0  0  0  0  0  0  0
  -26.1105  -12.8020   20.7540 N   0  0  0  0  0  0  0  0  0  0  0  0
  -27.4224  -21.0400   19.2504 N   0  0  0  0  0  0  0  0  0  0  0  0
  -25.7138  -13.9628   20.2052 N   0  0  0  0  0  0  0  0  0  0  0  0
  -24.6661  -30.3042   23.7027 N   0  0  0  0  0  0  0  0  0  0  0  0
  -28.3245  -16.7191   19.7923 N   0  0  0  0  0  0  0  0  0  0  0  0
  -23.8120  -15.3266   19.8394 N   0  0  0  0  0  0  0  0  0  0  0  0
  -22.1356  -11.7793   22.0759 N   0  0  0  0  0  0  0  0  0  0  0  0
  -27.2811  -23.4382   18.9291 N   0  0  0  0  0  0  0  0  0  0  0  0
  -26.9860  -18.6479   19.5666 N   0  0  0  0  0  0  0  0  0  0  0  0
  -21.7181  -28.3291   23.3302 N   0  0  0  0  0  0  0  0  0  0  0  0
  -25.6781  -33.5286   23.8957 N   0  0  0  0  0  0  0  0  0  0  0  0
  -28.4052  -34.1766   26.1785 N   0  3  0  0  0  0  0  0  0  0  0  0
  -21.6016  -13.7766   21.0838 O   0  0  0  0  0  0  0  0  0  0  0  0
  -23.6036  -28.5882   21.9885 O   0  0  0  0  0  0  0  0  0  0  0  0
  -23.2254  -32.0748   24.1775 O   0  0  0  0  0  0  0  0  0  0  0  0
  -29.5641  -22.9033   18.9995 O   0  0  0  0  0  0  0  0  0  0  0  0
  -27.8891  -32.8440   23.7548 O   0  0  0  0  0  0  0  0  0  0  0  0
  -29.3008  -18.8009   19.5538 O   0  0  0  0  0  0  0  0  0  0  0  0
  -25.0167   -7.3721   23.8955 O   0  0  0  0  0  0  0  0  0  0  0  0
  -29.2136  -26.2335   22.8065 O   0  0  0  0  0  0  0  0  0  1  0  0
  -21.0473   -3.7548   22.6451 F   0  0  0  0  0  0  0  0  0  0  0  0
  -25.6391   -4.8818   22.8689 F   0  0  0  0  0  0  0  0  0  0  0  0
  -31.5896  -25.6113   21.1883 F   0  0  0  0  0  0  0  0  0  0  0  0
  -24.9383  -20.3298   19.3353 S   0  0  0  0  0  0  0  0  0  0  0  0
  1  2  1  0  0  0  0
  1  5  2  0  0  0  0
  2  6  2  0  0  0  0
  3  8  2  0  0  0  0
  3 15  1  0  0  0  0
  4  9  1  0  0  0  0
  4 15  2  0  0  0  0
  5 17  1  0  0  0  0
  6 19  1  0  0  0  0
  7 10  2  0  0  0  0
  7 18  1  0  0  0  0
  8 21  1  0  0  0  0
  9 21  2  0  0  0  0
 10 22  1  0  0  0  0
 11 12  2  0  0  0  0
 11 23  1  0  0  0  0
 12 24  1  0  0  0  0
 13 20  1  0  0  0  0
 13 22  2  0  0  0  0
 14 24  2  0  0  0  0
 14 25  1  0  0  0  0
 15 26  1  0  0  0  0
 16 26  1  0  0  0  0
 16 29  2  0  0  0  0
 16 31  1  0  0  0  0
 17 19  2  0  0  0  0
 17 37  1  0  0  0  0
 18 20  2  0  0  0  0
 18 38  1  0  0  0  0
 19 46  1  0  0  0  0
 20 39  1  0  0  0  0
 21 85  1  0  0  0  0
 22 86  1  0  0  0  0
 23 25  2  0  0  0  0
 23 85  1  0  0  0  0
 24 87  1  0  0  0  0
 25 88  1  0  0  0  0
 26 67  2  0  0  0  0
 27 28  2  0  0  0  0
 27 58  1  0  0  0  0
 27 90  1  0  0  0  0
 28 68  1  0  0  0  0
 28 74  1  0  0  0  0
 29 69  1  0  0  0  0
 29 72  1  0  0  0  0
 30 68  2  0  0  0  0
 30 75  1  0  0  0  0
 30 90  1  0  0  0  0
 31 73  1  0  0  0  0
 31 79  2  0  0  0  0
 32 47  1  0  0  0  0
 32 76  1  0  0  0  0
 32 80  2  0  0  0  0
 33 61  1  0  0  0  0
 33 70  1  0  0  0  0
 33 81  2  0  0  0  0
 34 62  1  0  0  0  0
 34 74  1  0  0  0  0
 34 82  2  0  0  0  0
 35 63  1  0  0  0  0
 35 77  1  0  0  0  0
 35 83  2  0  0  0  0
 36 71  1  0  0  0  0
 36 75  1  0  0  0  0
 36 84  2  0  0  0  0
 37 40  1  0  0  0  0
 38 47  1  0  0  0  0
 39 70  1  0  0  0  0
 40 42  1  0  0  0  0
 41 43  1  0  0  0  0
 41 44  1  0  0  0  0
 42 46  1  0  0  0  0
 43 48  1  0  0  0  0
 44 71  1  0  0  0  0
 45 48  1  0  0  0  0
 45 71  1  0  0  0  0
 46 76  1  0  0  0  0
 47 70  1  0  0  0  0
 48 69  1  0  0  0  0
 49 62  1  0  0  0  0
 50 63  1  0  0  0  0
 51 65  1  0  0  0  0
 52 65  1  0  0  0  0
 53 65  1  0  0  0  0
 54 66  1  0  0  0  0
 55 66  1  0  0  0  0
 56 66  1  0  0  0  0
 57 78  1  0  0  0  0
 58 65  1  0  0  0  0
 59 62  1  0  0  0  0
 59 64  1  0  0  0  0
 60 64  1  0  0  0  0
 60 86  1  0  0  0  0
 61 66  1  0  0  0  0
 61 77  1  0  0  0  0
 63 78  1  0  0  0  0
 64 89  1  0  0  0  0
 67 69  1  0  0  0  0
M  CHG  1  78   1
M  ISO  4  36 100  60 101  75 100  86 101
M  END
> <Batch ID>
0186

> <Smiles>
CNC(C)C(=O)NC(C(=O)N1Cc2cc([101O:1][101CH2:1]C(F)CC(C)C(=O)Nc3nc([100NH:0][100C:0](=O)N4CCCC(n5nc(-c6ccc(Oc7ccc(F)cc7F)cc6)c(C(N)=O)c5N)C4)sc3CC(C)(C)C)ccc2CC1C(=O)NC1CCCc2ccccc21)C(C)(C)C

> <Shape>
0.288

> <Color>
0.098

> <Negative vol penalty>
0.000

$$$$

  -OEChem-04052305093D

 83 91  0     1  0  0  0  0  0999 V2000
  -30.5899  -22.3114   25.2713 C   0  0  0  0  0  0  0  0  0  0  0  0
  -30.5289  -22.2087   23.8853 C   0  0  0  0  0  0  0  0  0  0  0  0
  -23.0573   -9.8421   20.0209 C   0  0  0  0  0  0  0  0  0  0  0  0
  -23.7121  -10.0226   22.3395 C   0  0  0  0  0  0  0  0  0  0  0  0
  -30.0096  -23.4039   25.9144 C   0  0  0  0  0  0  0  0  0  0  0  0
  -29.8866  -23.1980   23.1415 C   0  0  0  0  0  0  0  0  0  0  0  0
  -32.5392  -24.5885   19.0580 C   0  0  0  0  0  0  0  0  0  0  0  0
  -22.3066   -8.7056   20.3215 C   0  0  0  0  0  0  0  0  0  0  0  0
  -22.9613   -8.8861   22.6400 C   0  0  0  0  0  0  0  0  0  0  0  0
  -32.4973  -23.7402   17.9523 C   0  0  0  0  0  0  0  0  0  0  0  0
  -23.2879   -5.5341   22.3429 C   0  0  0  0  0  0  0  0  0  0  0  0
  -23.8734   -4.5684   23.1615 C   0  0  0  0  0  0  0  0  0  0  0  0
  -30.8577  -25.1771   16.9197 C   0  0  0  0  0  0  0  0  0  0  0  0
  -22.0956   -4.8559   24.7721 C   0  0  0  0  0  0  0  0  0  0  0  0
  -23.7602  -10.5006   21.0300 C   0  0  0  0  0  0  0  0  0  0  0  0
  -24.0990  -13.0122   20.7396 C   0  0  0  0  0  0  0  0  0  0  0  0
  -29.3682  -24.4120   25.1775 C   0  0  0  0  0  0  0  0  0  0  0  0
  -31.7312  -25.7335   19.1076 C   0  0  0  0  0  0  0  0  0  0  0  0
  -29.2960  -24.3043   23.7755 C   0  0  0  0  0  0  0  0  0  0  0  0
  -30.8931  -26.0396   18.0260 C   0  0  0  0  0  0  0  0  0  0  0  0
  -22.2585   -8.2276   21.6310 C   0  0  0  0  0  0  0  0  0  0  0  0
  -31.6543  -24.0329   16.8842 C   0  0  0  0  0  0  0  0  0  0  0  0
  -22.1063   -6.1608   22.7389 C   0  0  0  0  0  0  0  0  0  0  0  0
  -23.2773   -4.2293   24.3761 C   0  0  0  0  0  0  0  0  0  0  0  0
  -21.5101   -5.8217   23.9535 C   0  0  0  0  0  0  0  0  0  0  0  0
  -24.5364  -11.6743   20.7201 C   0  0  0  0  0  0  0  0  0  0  0  0
  -29.4269  -18.8350   20.4155 C   0  0  0  0  0  0  0  0  0  0  0  0
  -30.5197  -18.0649   20.7543 C   0  0  0  0  0  0  0  0  0  0  0  0
  -25.2041  -13.7401   20.3717 C   0  0  0  0  0  0  0  0  0  0  0  0
  -30.8422  -19.5964   18.9232 C   0  0  0  0  0  0  0  0  0  0  0  0
  -22.8091  -13.5491   21.0616 C   0  0  0  0  0  0  0  0  0  0  0  0
  -29.3901  -26.7464   21.0042 C   0  0  0  0  0  0  0  0  0  0  0  0
  -29.6507  -29.4503   19.2311 C   0  0  0  0  0  0  0  0  0  0  0  0
  -30.5995  -30.9097   16.2957 C   0  0  0  0  0  0  0  0  0  0  0  0
  -30.8768  -21.2836   17.0548 C   0  0  0  0  0  0  0  0  0  0  0  0
  -30.6704  -14.8061   20.7315 C   0  0  0  0  0  0  0  0  0  0  0  0
  -28.7144  -25.5501   25.9204 C   0  0  0  0  0  0  0  0  0  0  0  0
  -31.8078  -26.6526   20.2958 C   0  0  0  0  0  0  0  0  0  0  0  0
  -30.0208  -27.2674   18.0213 C   0  0  0  0  0  0  0  0  0  0  0  0
  -28.3791  -26.7449   25.0315 C   0  0  0  0  0  0  0  0  0  0  0  0
  -29.6501  -12.2452   18.4782 C   0  0  0  0  0  0  0  0  0  0  0  0
  -27.7024  -26.2805   23.7458 C   0  0  0  0  0  0  0  0  0  0  0  0
  -28.1954  -11.9747   18.8664 C   0  0  0  0  0  0  0  0  0  0  0  0
  -30.5110  -12.5597   19.6997 C   0  0  0  0  0  0  0  0  0  0  0  0
  -28.5458  -13.3783   20.9414 C   0  0  0  0  0  0  0  0  0  0  0  0
  -28.6297  -25.3697   22.9322 C   0  0  1  0  0  0  0  0  0  0  0  0
  -30.5618  -27.5166   20.4642 C   0  0  1  0  0  0  0  0  0  0  0  0
  -27.6268  -13.1112   19.7371 C   0  0  2  0  0  0  0  0  0  0  0  0
  -28.1023  -18.7999   21.0684 C   0  0  0  0  0  0  0  0  0  0  0  0
  -30.6535  -33.1295   15.1266 C   0  0  0  0  0  0  0  0  0  0  0  0
  -31.7923  -21.0690   14.7149 C   0  0  0  0  0  0  0  0  0  0  0  0
  -26.6544  -29.2382   18.6953 C   0  0  0  0  0  0  0  0  0  0  0  0
  -26.9466  -30.8633   16.8133 C   0  0  0  0  0  0  0  0  0  0  0  0
  -27.4711  -31.5576   19.1512 C   0  0  0  0  0  0  0  0  0  0  0  0
  -33.5509  -30.8564   16.0827 C   0  0  0  0  0  0  0  0  0  0  0  0
  -30.6730  -17.0422   21.8082 C   0  0  0  0  0  0  0  0  0  0  0  0
  -29.0214  -29.9575   17.9561 C   0  0  1  0  0  0  0  0  0  0  0  0
  -31.4186  -32.1551   16.0086 C   0  0  2  0  0  0  0  0  0  0  0  0
  -31.8754  -21.8229   16.0339 C   0  0  1  0  0  0  0  0  0  1  0  0
  -27.5383  -30.3799   18.1546 C   0  0  0  0  0  0  0  0  0  0  0  0
  -25.8192  -11.5562   20.3675 N   0  0  0  0  0  0  0  0  0  0  0  0
  -29.6101  -19.7140   19.3660 N   0  0  0  0  0  0  0  0  0  0  0  0
  -26.1975  -12.8293   20.1620 N   0  0  0  0  0  0  0  0  0  0  0  0
  -30.1265  -28.1316   19.2086 N   0  0  0  0  0  0  0  0  0  0  0  0
  -29.9174  -13.6470   20.4817 N   0  0  0  0  0  0  0  0  0  0  0  0
  -25.4134  -15.0640   20.2102 N   0  0  0  0  0  0  0  0  0  0  0  0
  -21.7859  -12.6606   21.4190 N   0  0  0  0  0  0  0  0  0  0  0  0
  -31.4511  -20.3064   17.8611 N   0  0  0  0  0  0  0  0  0  0  0  0
  -29.6226  -26.1556   22.2315 N   0  0  0  0  0  0  0  0  0  0  0  0
  -29.8873  -31.0265   17.4706 N   0  0  0  0  0  0  0  0  0  0  0  0
  -30.0306  -15.7904   21.4749 N   0  0  0  0  0  0  0  0  0  0  0  0
  -32.6879  -31.7923   15.3170 N   0  3  0  0  0  0  0  0  0  0  0  0
  -22.5666  -14.7791   21.0173 O   0  0  0  0  0  0  0  0  0  0  0  0
  -28.3515  -26.6934   20.3560 O   0  0  0  0  0  0  0  0  0  0  0  0
  -29.7242  -30.1990   20.2087 O   0  0  0  0  0  0  0  0  0  0  0  0
  -30.5894  -29.9326   15.5503 O   0  0  0  0  0  0  0  0  0  0  0  0
  -29.7293  -21.7162   17.1125 O   0  0  0  0  0  0  0  0  0  0  0  0
  -31.8252  -14.9552   20.3179 O   0  0  0  0  0  0  0  0  0  0  0  0
  -21.5258   -7.1188   21.9246 O   0  0  0  0  0  0  0  0  0  0  0  0
  -31.6110  -23.2063   15.8041 O   0  0  0  0  0  0  0  0  0  1  0  0
  -23.8388   -3.3008   25.1615 F   0  0  0  0  0  0  0  0  0  0  0  0
  -20.3743   -6.4194   24.3387 F   0  0  0  0  0  0  0  0  0  0  0  0
  -31.8351  -18.4472   19.7223 S   0  0  0  0  0  0  0  0  0  0  0  0
  1  2  1  0  0  0  0
  1  5  2  0  0  0  0
  2  6  2  0  0  0  0
  3  8  2  0  0  0  0
  3 15  1  0  0  0  0
  4  9  1  0  0  0  0
  4 15  2  0  0  0  0
  5 17  1  0  0  0  0
  6 19  1  0  0  0  0
  7 10  2  0  0  0  0
  7 18  1  0  0  0  0
  8 21  1  0  0  0  0
  9 21  2  0  0  0  0
 10 22  1  0  0  0  0
 11 12  2  0  0  0  0
 11 23  1  0  0  0  0
 12 24  1  0  0  0  0
 13 20  1  0  0  0  0
 13 22  2  0  0  0  0
 14 24  2  0  0  0  0
 14 25  1  0  0  0  0
 15 26  1  0  0  0  0
 16 26  1  0  0  0  0
 16 29  2  0  0  0  0
 16 31  1  0  0  0  0
 17 19  2  0  0  0  0
 17 37  1  0  0  0  0
 18 20  2  0  0  0  0
 18 38  1  0  0  0  0
 19 46  1  0  0  0  0
 20 39  1  0  0  0  0
 21 79  1  0  0  0  0
 22 80  1  0  0  0  0
 23 25  2  0  0  0  0
 23 79  1  0  0  0  0
 24 81  1  0  0  0  0
 25 82  1  0  0  0  0
 26 61  2  0  0  0  0
 27 28  2  0  0  0  0
 27 49  1  0  0  0  0
 27 62  1  0  0  0  0
 28 56  1  0  0  0  0
 28 83  1  0  0  0  0
 29 63  1  0  0  0  0
 29 66  1  0  0  0  0
 30 62  2  0  0  0  0
 30 68  1  0  0  0  0
 30 83  1  0  0  0  0
 31 67  1  0  0  0  0
 31 73  2  0  0  0  0
 32 47  1  0  0  0  0
 32 69  1  0  0  0  0
 32 74  2  0  0  0  0
 33 57  1  0  0  0  0
 33 64  1  0  0  0  0
 33 75  2  0  0  0  0
 34 58  1  0  0  0  0
 34 70  1  0  0  0  0
 34 76  2  0  0  0  0
 35 59  1  0  0  0  0
 35 68  1  0  0  0  0
 35 77  2  0  0  0  0
 36 65  1  0  0  0  0
 36 71  1  0  0  0  0
 36 78  2  0  0  0  0
 37 40  1  0  0  0  0
 38 47  1  0  0  0  0
 39 64  1  0  0  0  0
 40 42  1  0  0  0  0
 41 43  1  0  0  0  0
 41 44  1  0  0  0  0
 42 46  1  0  0  0  0
 43 48  1  0  0  0  0
 44 65  1  0  0  0  0
 45 48  1  0  0  0  0
 45 65  1  0  0  0  0
 46 69  1  0  0  0  0
 47 64  1  0  0  0  0
 48 63  1  0  0  0  0
 50 58  1  0  0  0  0
 51 59  1  0  0  0  0
 52 60  1  0  0  0  0
 53 60  1  0  0  0  0
 54 60  1  0  0  0  0
 55 72  1  0  0  0  0
 56 71  1  0  0  0  0
 57 60  1  0  0  0  0
 57 70  1  0  0  0  0
 58 72  1  0  0  0  0
 59 80  1  0  0  0  0
 61 63  1  0  0  0  0
M  CHG  1  72   1
M  ISO  4  36 100  59 101  71 100  80 101
M  END
> <Batch ID>
0186

> <Smiles>
CNC(C)C(=O)NC(C(=O)N1Cc2cc([101O:1][101CH:1](C)C(=O)Nc3nc(C)c(C[100NH:0][100C:0](=O)N4CCCC(n5nc(-c6ccc(Oc7ccc(F)cc7F)cc6)c(C(N)=O)c5N)C4)s3)ccc2CC1C(=O)NC1CCCc2ccccc21)C(C)(C)C

> <Shape>
0.256

> <Color>
0.223

> <Negative vol penalty>
0.000

$$$$

  -OEChem-04052305093D

 83 91  0     1  0  0  0  0  0999 V2000
  -27.1684  -30.2391   14.8035 C   0  0  0  0  0  0  0  0  0  0  0  0
  -27.6047  -29.1341   15.5274 C   0  0  0  0  0  0  0  0  0  0  0  0
  -23.8496   -9.6803   21.5493 C   0  0  0  0  0  0  0  0  0  0  0  0
  -24.3874  -10.7975   23.6228 C   0  0  0  0  0  0  0  0  0  0  0  0
  -26.6654  -31.3545   15.4719 C   0  0  0  0  0  0  0  0  0  0  0  0
  -27.5392  -29.1442   16.9202 C   0  0  0  0  0  0  0  0  0  0  0  0
  -25.7137  -24.8155   18.8109 C   0  0  0  0  0  0  0  0  0  0  0  0
  -23.3515   -8.5916   22.2650 C   0  0  0  0  0  0  0  0  0  0  0  0
  -23.8892   -9.7088   24.3386 C   0  0  0  0  0  0  0  0  0  0  0  0
  -26.5842  -23.7280   18.8670 C   0  0  0  0  0  0  0  0  0  0  0  0
  -20.5277   -7.7979   23.9469 C   0  0  0  0  0  0  0  0  0  0  0  0
  -19.3086   -7.2568   23.5388 C   0  0  0  0  0  0  0  0  0  0  0  0
  -26.9636  -24.1602   21.2097 C   0  0  0  0  0  0  0  0  0  0  0  0
  -20.3852   -5.1308   23.1413 C   0  0  0  0  0  0  0  0  0  0  0  0
  -30.5698  -17.7304   23.0756 C   0  0  0  0  0  0  0  0  0  0  0  0
  -24.3676  -10.7832   22.2282 C   0  0  0  0  0  0  0  0  0  0  0  0
  -24.1689  -13.0438   21.0628 C   0  0  0  0  0  0  0  0  0  0  0  0
  -26.5847  -31.3745   16.8733 C   0  0  0  0  0  0  0  0  0  0  0  0
  -25.4696  -25.5915   19.9532 C   0  0  0  0  0  0  0  0  0  0  0  0
  -27.0358  -30.2615   17.6081 C   0  0  0  0  0  0  0  0  0  0  0  0
  -26.0876  -25.2555   21.1661 C   0  0  0  0  0  0  0  0  0  0  0  0
  -23.3713   -8.6059   23.6596 C   0  0  0  0  0  0  0  0  0  0  0  0
  -27.2116  -23.4019   20.0658 C   0  0  0  0  0  0  0  0  0  0  0  0
  -21.6757   -7.0054   23.9521 C   0  0  0  0  0  0  0  0  0  0  0  0
  -19.2373   -5.9233   23.1360 C   0  0  0  0  0  0  0  0  0  0  0  0
  -21.6044   -5.6719   23.5494 C   0  0  0  0  0  0  0  0  0  0  0  0
  -24.8828  -11.9079   21.4894 C   0  0  0  0  0  0  0  0  0  0  0  0
  -31.5439  -16.8601   22.6330 C   0  0  0  0  0  0  0  0  0  0  0  0
  -25.1023  -13.8103   20.4087 C   0  0  0  0  0  0  0  0  0  0  0  0
  -31.7834  -19.1505   21.9264 C   0  0  0  0  0  0  0  0  0  0  0  0
  -22.7858  -13.3763   21.2418 C   0  0  0  0  0  0  0  0  0  0  0  0
  -25.9385  -28.6354   20.7393 C   0  0  0  0  0  0  0  0  0  0  0  0
  -30.3307  -21.6261   20.5811 C   0  0  0  0  0  0  0  0  0  0  0  0
  -24.3135  -27.7890   23.4161 C   0  0  0  0  0  0  0  0  0  0  0  0
  -23.3432  -25.3131   25.5551 C   0  0  0  0  0  0  0  0  0  0  0  0
  -31.0638  -14.1988   20.8091 C   0  0  0  0  0  0  0  0  0  0  0  0
  -26.0775  -32.6215   17.5535 C   0  0  0  0  0  0  0  0  0  0  0  0
  -24.5071  -26.7452   19.8825 C   0  0  0  0  0  0  0  0  0  0  0  0
  -25.8435  -26.0444   22.4257 C   0  0  0  0  0  0  0  0  0  0  0  0
  -25.6936  -32.4048   19.0149 C   0  0  0  0  0  0  0  0  0  0  0  0
  -29.1586  -13.4389   17.8989 C   0  0  0  0  0  0  0  0  0  0  0  0
  -26.7785  -31.6152   19.7405 C   0  0  0  0  0  0  0  0  0  0  0  0
  -27.7823  -13.0628   18.4506 C   0  0  0  0  0  0  0  0  0  0  0  0
  -30.2836  -12.9574   18.8125 C   0  0  0  0  0  0  0  0  0  0  0  0
  -28.7884  -13.0083   20.7709 C   0  0  0  0  0  0  0  0  0  0  0  0
  -26.9578  -30.2248   19.1189 C   0  0  1  0  0  0  0  0  0  0  0  0
  -24.7296  -27.7772   20.9838 C   0  0  1  0  0  0  0  0  0  0  0  0
  -27.6197  -13.5214   19.9123 C   0  0  2  0  0  0  0  0  0  0  0  0
  -32.4958  -22.7320   21.1789 C   0  0  0  0  0  0  0  0  0  0  0  0
  -22.0520  -24.9337   27.6732 C   0  0  0  0  0  0  0  0  0  0  0  0
  -26.6435  -28.9121   25.0347 C   0  0  0  0  0  0  0  0  0  0  0  0
  -25.7643  -27.6765   27.0268 C   0  0  0  0  0  0  0  0  0  0  0  0
  -24.3802  -29.4517   25.9517 C   0  0  0  0  0  0  0  0  0  0  0  0
  -21.4014  -23.5440   24.1916 C   0  0  0  0  0  0  0  0  0  0  0  0
  -31.6999  -15.4133   22.8778 C   0  0  0  0  0  0  0  0  0  0  0  0
  -29.1290  -22.4146   21.0683 C   0  0  0  0  0  0  0  0  0  1  0  0
  -31.5391  -21.5978   21.5064 C   0  0  2  0  0  0  0  0  0  0  0  0
  -24.6949  -27.2392   24.7694 C   0  0  1  0  0  0  0  0  0  0  0  0
  -21.9906  -24.9723   26.1541 C   0  0  2  0  0  0  0  0  0  0  0  0
  -25.3770  -28.3060   25.6716 C   0  0  0  0  0  0  0  0  0  0  0  0
  -30.7058  -19.0443   22.6718 N   0  0  0  0  0  0  0  0  0  0  0  0
  -26.1703  -11.9453   21.1360 N   0  0  0  0  0  0  0  0  0  0  0  0
  -26.2728  -13.1139   20.4803 N   0  0  0  0  0  0  0  0  0  0  0  0
  -24.8990  -27.1672   22.3042 N   0  0  0  0  0  0  0  0  0  0  0  0
  -30.0705  -13.4276   20.1834 N   0  0  0  0  0  0  0  0  0  0  0  0
  -25.0278  -15.0052   19.7851 N   0  0  0  0  0  0  0  0  0  0  0  0
  -21.9670  -12.4767   21.9379 N   0  0  0  0  0  0  0  0  0  0  0  0
  -32.2216  -20.3318   21.3531 N   0  0  0  0  0  0  0  0  0  0  0  0
  -25.8985  -29.3380   19.5501 N   0  0  0  0  0  0  0  0  0  0  0  0
  -23.4778  -26.6677   25.3355 N   0  0  0  0  0  0  0  0  0  0  0  0
  -30.7791  -14.6090   22.1058 N   0  0  0  0  0  0  0  0  0  0  0  0
  -21.5296  -23.6409   25.6684 N   0  3  0  0  0  0  0  0  0  0  0  0
  -22.2870  -14.4320   20.7833 O   0  0  0  0  0  0  0  0  0  0  0  0
  -26.8401  -28.6596   21.5690 O   0  0  0  0  0  0  0  0  0  0  0  0
  -30.3242  -21.0522   19.4917 O   0  0  0  0  0  0  0  0  0  0  0  0
  -23.5196  -28.7307   23.3478 O   0  0  0  0  0  0  0  0  0  0  0  0
  -24.1964  -24.4631   25.3101 O   0  0  0  0  0  0  0  0  0  0  0  0
  -32.1235  -14.5039   20.2515 O   0  0  0  0  0  0  0  0  0  0  0  0
  -22.8851   -7.5438   24.3583 O   0  0  0  0  0  0  0  0  0  0  0  0
  -28.0623  -22.3413   20.1232 O   0  0  0  0  0  0  0  0  0  1  0  0
  -18.0662   -5.4034   22.7456 F   0  0  0  0  0  0  0  0  0  0  0  0
  -22.7036   -4.9053   23.5534 F   0  0  0  0  0  0  0  0  0  0  0  0
  -32.6801  -17.7100   21.6697 S   0  0  0  0  0  0  0  0  0  0  0  0
  1  2  1  0  0  0  0
  1  5  2  0  0  0  0
  2  6  2  0  0  0  0
  3  8  2  0  0  0  0
  3 16  1  0  0  0  0
  4  9  1  0  0  0  0
  4 16  2  0  0  0  0
  5 18  1  0  0  0  0
  6 20  1  0  0  0  0
  7 10  2  0  0  0  0
  7 19  1  0  0  0  0
  8 22  1  0  0  0  0
  9 22  2  0  0  0  0
 10 23  1  0  0  0  0
 11 12  2  0  0  0  0
 11 24  1  0  0  0  0
 12 25  1  0  0  0  0
 13 21  1  0  0  0  0
 13 23  2  0  0  0  0
 14 25  2  0  0  0  0
 14 26  1  0  0  0  0
 15 28  2  0  0  0  0
 15 61  1  0  0  0  0
 16 27  1  0  0  0  0
 17 27  1  0  0  0  0
 17 29  2  0  0  0  0
 17 31  1  0  0  0  0
 18 20  2  0  0  0  0
 18 37  1  0  0  0  0
 19 21  2  0  0  0  0
 19 38  1  0  0  0  0
 20 46  1  0  0  0  0
 21 39  1  0  0  0  0
 22 79  1  0  0  0  0
 23 80  1  0  0  0  0
 24 26  2  0  0  0  0
 24 79  1  0  0  0  0
 25 81  1  0  0  0  0
 26 82  1  0  0  0  0
 27 62  2  0  0  0  0
 28 55  1  0  0  0  0
 28 83  1  0  0  0  0
 29 63  1  0  0  0  0
 29 66  1  0  0  0  0
 30 61  2  0  0  0  0
 30 68  1  0  0  0  0
 30 83  1  0  0  0  0
 31 67  1  0  0  0  0
 31 73  2  0  0  0  0
 32 47  1  0  0  0  0
 32 69  1  0  0  0  0
 32 74  2  0  0  0  0
 33 56  1  0  0  0  0
 33 57  1  0  0  0  0
 33 75  2  0  0  0  0
 34 58  1  0  0  0  0
 34 64  1  0  0  0  0
 34 76  2  0  0  0  0
 35 59  1  0  0  0  0
 35 70  1  0  0  0  0
 35 77  2  0  0  0  0
 36 65  1  0  0  0  0
 36 71  1  0  0  0  0
 36 78  2  0  0  0  0
 37 40  1  0  0  0  0
 38 47  1  0  0  0  0
 39 64  1  0  0  0  0
 40 42  1  0  0  0  0
 41 43  1  0  0  0  0
 41 44  1  0  0  0  0
 42 46  1  0  0  0  0
 43 48  1  0  0  0  0
 44 65  1  0  0  0  0
 45 48  1  0  0  0  0
 45 65  1  0  0  0  0
 46 69  1  0  0  0  0
 47 64  1  0  0  0  0
 48 63  1  0  0  0  0
 49 57  1  0  0  0  0
 50 59  1  0  0  0  0
 51 60  1  0  0  0  0
 52 60  1  0  0  0  0
 53 60  1  0  0  0  0
 54 72  1  0  0  0  0
 55 71  1  0  0  0  0
 56 80  1  0  0  0  0
 57 68  1  0  0  0  0
 58 60  1  0  0  0  0
 58 70  1  0  0  0  0
 59 72  1  0  0  0  0
 62 63  1  0  0  0  0
M  CHG  1  72   1
M  ISO  4  36 100  56 101  71 100  80 101
M  END
> <Batch ID>
0186

> <Smiles>
CNC(C)C(=O)NC(C(=O)N1Cc2cc([101O:1][101CH2:1]C(=O)C(C)Nc3ncc(C[100NH:0][100C:0](=O)N4CCCC(n5nc(-c6ccc(Oc7ccc(F)cc7F)cc6)c(C(N)=O)c5N)C4)s3)ccc2CC1C(=O)NC1CCCc2ccccc21)C(C)(C)C

> <Shape>
0.216

> <Color>
0.151

> <Negative vol penalty>
0.000

$$$$

  -OEChem-04052305093D

 86 94  0     1  0  0  0  0  0999 V2000
  -31.7263  -24.3370   10.7492 C   0  0  0  0  0  0  0  0  0  0  0  0
  -32.3991  -23.9099   11.8895 C   0  0  0  0  0  0  0  0  0  0  0  0
  -23.0032   -9.8879   19.9770 C   0  0  0  0  0  0  0  0  0  0  0  0
  -23.7311   -9.9342   22.2802 C   0  0  0  0  0  0  0  0  0  0  0  0
  -31.1757  -25.6172   10.7045 C   0  0  0  0  0  0  0  0  0  0  0  0
  -32.5228  -24.7632   12.9854 C   0  0  0  0  0  0  0  0  0  0  0  0
  -31.5598  -22.4355   17.3785 C   0  0  0  0  0  0  0  0  0  0  0  0
  -22.2395   -8.7511   20.2412 C   0  0  0  0  0  0  0  0  0  0  0  0
  -22.9673   -8.7974   22.5445 C   0  0  0  0  0  0  0  0  0  0  0  0
  -32.5660  -21.6263   17.9043 C   0  0  0  0  0  0  0  0  0  0  0  0
  -23.2183   -5.4603   22.0632 C   0  0  0  0  0  0  0  0  0  0  0  0
  -23.8090   -4.4423   22.8118 C   0  0  0  0  0  0  0  0  0  0  0  0
  -33.1998  -23.4021   19.4089 C   0  0  0  0  0  0  0  0  0  0  0  0
  -22.0866   -4.6769   24.4898 C   0  0  0  0  0  0  0  0  0  0  0  0
  -23.7491  -10.4795   20.9965 C   0  0  0  0  0  0  0  0  0  0  0  0
  -24.1288  -12.9964   20.8268 C   0  0  0  0  0  0  0  0  0  0  0  0
  -31.2843  -26.4831   11.8040 C   0  0  0  0  0  0  0  0  0  0  0  0
  -31.3727  -23.7402   17.8573 C   0  0  0  0  0  0  0  0  0  0  0  0
  -31.9744  -26.0567   12.9548 C   0  0  0  0  0  0  0  0  0  0  0  0
  -32.1888  -24.2250   18.8893 C   0  0  0  0  0  0  0  0  0  0  0  0
  -22.2215   -8.2058   21.5249 C   0  0  0  0  0  0  0  0  0  0  0  0
  -33.3880  -22.1105   18.9176 C   0  0  0  0  0  0  0  0  0  0  0  0
  -22.0618   -6.0866   22.5279 C   0  0  0  0  0  0  0  0  0  0  0  0
  -23.2432   -4.0506   24.0251 C   0  0  0  0  0  0  0  0  0  0  0  0
  -21.4960   -5.6950   23.7412 C   0  0  0  0  0  0  0  0  0  0  0  0
  -24.5387  -11.6536   20.7241 C   0  0  0  0  0  0  0  0  0  0  0  0
  -30.7264  -19.0706   22.9368 C   0  0  0  0  0  0  0  0  0  0  0  0
  -31.8329  -18.6707   22.2171 C   0  0  0  0  0  0  0  0  0  0  0  0
  -25.2365  -13.7224   20.4630 C   0  0  0  0  0  0  0  0  0  0  0  0
  -30.5736  -16.9043   21.8945 C   0  0  0  0  0  0  0  0  0  0  0  0
  -22.8601  -13.5390   21.2164 C   0  0  0  0  0  0  0  0  0  0  0  0
  -31.5375  -26.6447   16.5765 C   0  0  0  0  0  0  0  0  0  0  0  0
  -30.4177  -27.5633   19.4790 C   0  0  0  0  0  0  0  0  0  0  0  0
  -30.0831  -26.8764   22.8051 C   0  0  0  0  0  0  0  0  0  0  0  0
  -34.1624  -19.1276   21.3678 C   0  0  0  0  0  0  0  0  0  0  0  0
  -30.7142  -14.6946   20.6930 C   0  0  0  0  0  0  0  0  0  0  0  0
  -30.7139  -27.8748   11.6912 C   0  0  0  0  0  0  0  0  0  0  0  0
  -30.2656  -24.5911   17.2981 C   0  0  0  0  0  0  0  0  0  0  0  0
  -32.0160  -25.6113   19.4522 C   0  0  0  0  0  0  0  0  0  0  0  0
  -30.5643  -28.5825   13.0354 C   0  0  0  0  0  0  0  0  0  0  0  0
  -29.5983  -12.2457   18.3616 C   0  0  0  0  0  0  0  0  0  0  0  0
  -31.8325  -28.4215   13.8676 C   0  0  0  0  0  0  0  0  0  0  0  0
  -28.1488  -11.9838   18.7769 C   0  0  0  0  0  0  0  0  0  0  0  0
  -30.4998  -12.4877   19.5710 C   0  0  0  0  0  0  0  0  0  0  0  0
  -28.5844  -13.2688   20.9090 C   0  0  0  0  0  0  0  0  0  0  0  0
  -32.1079  -26.9443   14.1732 C   0  0  1  0  0  0  0  0  0  0  0  0
  -30.4973  -26.0847   17.5049 C   0  0  1  0  0  0  0  0  0  0  0  0
  -27.6257  -13.0837   19.7215 C   0  0  2  0  0  0  0  0  0  0  0  0
  -30.4952  -21.5769   22.8001 C   0  0  0  0  0  0  0  0  0  0  0  0
  -31.4574  -20.5109   24.8721 C   0  0  0  0  0  0  0  0  0  0  0  0
  -29.1535  -27.8336   24.9305 C   0  0  0  0  0  0  0  0  0  0  0  0
  -36.4899  -19.7780   20.6486 C   0  0  0  0  0  0  0  0  0  0  0  0
  -35.6362  -20.5006   22.9082 C   0  0  0  0  0  0  0  0  0  0  0  0
  -32.7770  -29.4916   19.6397 C   0  0  0  0  0  0  0  0  0  0  0  0
  -32.3479  -29.7019   22.0973 C   0  0  0  0  0  0  0  0  0  0  0  0
  -30.6081  -30.4258   20.4627 C   0  0  0  0  0  0  0  0  0  0  0  0
  -28.2252  -24.5993   23.1545 C   0  0  0  0  0  0  0  0  0  0  0  0
  -34.7258  -21.5355   20.7979 C   0  0  0  0  0  0  0  0  0  1  0  0
  -30.4771  -20.3149   23.6929 C   0  0  0  0  0  0  0  0  0  0  0  0
  -31.0488  -27.9582   20.7923 C   0  0  1  0  0  0  0  0  0  0  0  0
  -28.8816  -26.9394   23.7308 C   0  0  2  0  0  0  0  0  0  0  0  0
  -35.2519  -20.2309   21.4426 C   0  0  0  0  0  0  0  0  0  0  0  0
  -31.7002  -29.3689   20.7363 C   0  0  0  0  0  0  0  0  0  0  0  0
  -25.8078  -11.5309   20.3260 N   0  0  0  0  0  0  0  0  0  0  0  0
  -31.7472  -17.4286   21.6190 N   0  0  0  0  0  0  0  0  0  0  0  0
  -26.2048  -12.8059   20.1754 N   0  0  0  0  0  0  0  0  0  0  0  0
  -30.9237  -26.4071   18.8682 N   0  0  0  0  0  0  0  0  0  0  0  0
  -29.9435  -13.5452   20.4179 N   0  0  0  0  0  0  0  0  0  0  0  0
  -25.4670  -15.0488   20.3643 N   0  0  0  0  0  0  0  0  0  0  0  0
  -21.8306  -12.6517   21.5588 N   0  0  0  0  0  0  0  0  0  0  0  0
  -33.0059  -19.4510   22.0716 N   0  0  0  0  0  0  0  0  0  0  0  0
  -30.0689  -15.6462   21.4820 N   0  0  0  0  0  0  0  0  0  0  0  0
  -31.2437  -26.4785   15.2365 N   0  0  0  0  0  0  0  0  0  0  0  0
  -30.0064  -27.8211   21.8037 N   0  0  0  0  0  0  0  0  0  0  0  0
  -28.5390  -25.5770   24.2282 N   0  3  0  0  0  0  0  0  0  0  0  0
  -22.6407  -14.7738   21.2437 O   0  0  0  0  0  0  0  0  0  0  0  0
  -32.5323  -27.1888   17.0414 O   0  0  0  0  0  0  0  0  0  0  0  0
  -29.5045  -28.2511   19.0159 O   0  0  0  0  0  0  0  0  0  0  0  0
  -31.0000  -26.0723   22.9576 O   0  0  0  0  0  0  0  0  0  0  0  0
  -34.3565  -18.0861   20.7434 O   0  0  0  0  0  0  0  0  0  0  0  0
  -31.8520  -14.8372   20.2379 O   0  0  0  0  0  0  0  0  0  0  0  0
  -21.4762   -7.0966   21.7831 O   0  0  0  0  0  0  0  0  0  0  0  0
  -34.3713  -21.3229   19.4321 O   0  0  0  0  0  0  0  0  0  1  0  0
  -23.8096   -3.0720   24.7432 F   0  0  0  0  0  0  0  0  0  0  0  0
  -20.3844   -6.2922   24.1922 F   0  0  0  0  0  0  0  0  0  0  0  0
  -29.5231  -17.8505   22.8672 S   0  0  0  0  0  0  0  0  0  0  0  0
  1  2  1  0  0  0  0
  1  5  2  0  0  0  0
  2  6  2  0  0  0  0
  3  8  2  0  0  0  0
  3 15  1  0  0  0  0
  4  9  1  0  0  0  0
  4 15  2  0  0  0  0
  5 17  1  0  0  0  0
  6 19  1  0  0  0  0
  7 10  2  0  0  0  0
  7 18  1  0  0  0  0
  8 21  1  0  0  0  0
  9 21  2  0  0  0  0
 10 22  1  0  0  0  0
 11 12  2  0  0  0  0
 11 23  1  0  0  0  0
 12 24  1  0  0  0  0
 13 20  1  0  0  0  0
 13 22  2  0  0  0  0
 14 24  2  0  0  0  0
 14 25  1  0  0  0  0
 15 26  1  0  0  0  0
 16 26  1  0  0  0  0
 16 29  2  0  0  0  0
 16 31  1  0  0  0  0
 17 19  2  0  0  0  0
 17 37  1  0  0  0  0
 18 20  2  0  0  0  0
 18 38  1  0  0  0  0
 19 46  1  0  0  0  0
 20 39  1  0  0  0  0
 21 82  1  0  0  0  0
 22 83  1  0  0  0  0
 23 25  2  0  0  0  0
 23 82  1  0  0  0  0
 24 84  1  0  0  0  0
 25 85  1  0  0  0  0
 26 64  2  0  0  0  0
 27 28  2  0  0  0  0
 27 59  1  0  0  0  0
 27 86  1  0  0  0  0
 28 65  1  0  0  0  0
 28 71  1  0  0  0  0
 29 66  1  0  0  0  0
 29 69  1  0  0  0  0
 30 65  2  0  0  0  0
 30 72  1  0  0  0  0
 30 86  1  0  0  0  0
 31 70  1  0  0  0  0
 31 76  2  0  0  0  0
 32 47  1  0  0  0  0
 32 73  1  0  0  0  0
 32 77  2  0  0  0  0
 33 60  1  0  0  0  0
 33 67  1  0  0  0  0
 33 78  2  0  0  0  0
 34 61  1  0  0  0  0
 34 74  1  0  0  0  0
 34 79  2  0  0  0  0
 35 62  1  0  0  0  0
 35 71  1  0  0  0  0
 35 80  2  0  0  0  0
 36 68  1  0  0  0  0
 36 72  1  0  0  0  0
 36 81  2  0  0  0  0
 37 40  1  0  0  0  0
 38 47  1  0  0  0  0
 39 67  1  0  0  0  0
 40 42  1  0  0  0  0
 41 43  1  0  0  0  0
 41 44  1  0  0  0  0
 42 46  1  0  0  0  0
 43 48  1  0  0  0  0
 44 68  1  0  0  0  0
 45 48  1  0  0  0  0
 45 68  1  0  0  0  0
 46 73  1  0  0  0  0
 47 67  1  0  0  0  0
 48 66  1  0  0  0  0
 49 59  1  0  0  0  0
 50 59  1  0  0  0  0
 51 61  1  0  0  0  0
 52 62  1  0  0  0  0
 53 62  1  0  0  0  0
 54 63  1  0  0  0  0
 55 63  1  0  0  0  0
 56 63  1  0  0  0  0
 57 75  1  0  0  0  0
 58 62  1  0  0  0  0
 58 83  1  0  0  0  0
 60 63  1  0  0  0  0
 60 74  1  0  0  0  0
 61 75  1  0  0  0  0
 64 66  1  0  0  0  0
M  CHG  1  75   1
M  ISO  4  36 100  58 101  72 100  83 101
M  END
> <Batch ID>
0186

> <Smiles>
CNC(C)C(=O)NC(C(=O)N1Cc2cc([101O:1][101CH2:1]C(C)(C)C(=O)Nc3nc([100NH:0][100C:0](=O)N4CCCC(n5nc(-c6ccc(Oc7ccc(F)cc7F)cc6)c(C(N)=O)c5N)C4)sc3C(C)C)ccc2CC1C(=O)NC1CCCc2ccccc21)C(C)(C)C

> <Shape>
0.230

> <Color>
0.186

> <Negative vol penalty>
0.000

$$$$

  -OEChem-04052305093D

 86 94  0     1  0  0  0  0  0999 V2000
  -21.6091  -21.1480   22.6788 C   0  0  0  0  0  0  0  0  0  0  0  0
  -22.9915  -21.3034   22.6964 C   0  0  0  0  0  0  0  0  0  0  0  0
  -26.3510  -12.4014   20.6581 C   0  0  0  0  0  0  0  0  0  0  0  0
  -24.6559  -14.0620   20.2038 C   0  0  0  0  0  0  0  0  0  0  0  0
  -20.8138  -22.0689   21.9982 C   0  0  0  0  0  0  0  0  0  0  0  0
  -23.5794  -22.3794   22.0323 C   0  0  0  0  0  0  0  0  0  0  0  0
  -29.1596  -26.8480   22.4904 C   0  0  0  0  0  0  0  0  0  0  0  0
  -25.3975  -11.5998   21.2858 C   0  0  0  0  0  0  0  0  0  0  0  0
  -23.7024  -13.2604   20.8314 C   0  0  0  0  0  0  0  0  0  0  0  0
  -30.2252  -27.3223   21.7266 C   0  0  0  0  0  0  0  0  0  0  0  0
  -23.3366   -8.9545   22.6894 C   0  0  0  0  0  0  0  0  0  0  0  0
  -23.3313   -7.5935   22.3842 C   0  0  0  0  0  0  0  0  0  0  0  0
  -28.7459  -28.8947   20.6502 C   0  0  0  0  0  0  0  0  0  0  0  0
  -22.9251   -8.1160   20.0606 C   0  0  0  0  0  0  0  0  0  0  0  0
  -25.9802  -13.6325   20.1172 C   0  0  0  0  0  0  0  0  0  0  0  0
  -27.3204  -14.4518   18.1071 C   0  0  0  0  0  0  0  0  0  0  0  0
  -21.3916  -23.1621   21.3335 C   0  0  0  0  0  0  0  0  0  0  0  0
  -27.8748  -27.3870   22.3318 C   0  0  0  0  0  0  0  0  0  0  0  0
  -22.7912  -23.3151   21.3409 C   0  0  0  0  0  0  0  0  0  0  0  0
  -27.6662  -28.4273   21.4151 C   0  0  0  0  0  0  0  0  0  0  0  0
  -24.0732  -12.0293   21.3724 C   0  0  0  0  0  0  0  0  0  0  0  0
  -30.0178  -28.3438   20.8043 C   0  0  0  0  0  0  0  0  0  0  0  0
  -23.1362   -9.8963   21.6801 C   0  0  0  0  0  0  0  0  0  0  0  0
  -23.1256   -7.1742   21.0698 C   0  0  0  0  0  0  0  0  0  0  0  0
  -22.9305   -9.4771   20.3658 C   0  0  0  0  0  0  0  0  0  0  0  0
  -26.9648  -14.4613   19.4692 C   0  0  0  0  0  0  0  0  0  0  0  0
  -27.1327  -24.2527   18.0775 C   0  0  0  0  0  0  0  0  0  0  0  0
  -28.4908  -24.4002   18.2671 C   0  0  0  0  0  0  0  0  0  0  0  0
  -28.2926  -15.4160   17.9994 C   0  0  0  0  0  0  0  0  0  0  0  0
  -28.2606  -22.3799   19.0889 C   0  0  0  0  0  0  0  0  0  0  0  0
  -26.1702  -25.1425   17.5164 C   0  0  0  0  0  0  0  0  0  0  0  0
  -26.8168  -13.6438   17.0351 C   0  0  0  0  0  0  0  0  0  0  0  0
  -25.0550  -26.2342   21.4240 C   0  0  0  0  0  0  0  0  0  0  0  0
  -24.0149  -29.1909   22.2595 C   0  0  0  0  0  0  0  0  0  0  0  0
  -24.7466  -32.4879   22.7511 C   0  0  0  0  0  0  0  0  0  0  0  0
  -30.5834  -25.7825   18.0578 C   0  0  0  0  0  0  0  0  0  0  0  0
  -29.7116  -20.5975   20.1205 C   0  0  0  0  0  0  0  0  0  0  0  0
  -20.4945  -24.1052   20.5715 C   0  0  0  0  0  0  0  0  0  0  0  0
  -26.7414  -26.8827   23.1824 C   0  0  0  0  0  0  0  0  0  0  0  0
  -26.3103  -29.0537   21.2213 C   0  0  0  0  0  0  0  0  0  0  0  0
  -21.1679  -25.4260   20.2079 C   0  0  0  0  0  0  0  0  0  0  0  0
  -31.3720  -17.6304   21.1771 C   0  0  0  0  0  0  0  0  0  0  0  0
  -22.5569  -25.1755   19.6293 C   0  0  0  0  0  0  0  0  0  0  0  0
  -30.4407  -16.5085   20.7118 C   0  0  0  0  0  0  0  0  0  0  0  0
  -30.5916  -18.8532   21.6560 C   0  0  0  0  0  0  0  0  0  0  0  0
  -28.6703  -18.2486   20.2376 C   0  0  0  0  0  0  0  0  0  0  0  0
  -23.4644  -24.4830   20.6533 C   0  0  1  0  0  0  0  0  0  0  0  0
  -25.3698  -27.1521   22.5712 C   0  0  1  0  0  0  0  0  0  0  0  0
  -29.4113  -17.0201   19.6850 C   0  0  2  0  0  0  0  0  0  0  0  0
  -23.6820  -34.6672   23.3951 C   0  0  0  0  0  0  0  0  0  0  0  0
  -33.3952  -28.3960   20.3566 C   0  0  0  0  0  0  0  0  0  0  0  0
  -22.7719  -29.4020   19.4809 C   0  0  0  0  0  0  0  0  0  0  0  0
  -22.5729  -31.8727   19.8339 C   0  0  0  0  0  0  0  0  0  0  0  0
  -21.3481  -30.2979   21.3315 C   0  0  0  0  0  0  0  0  0  0  0  0
  -26.4796  -32.7633   25.1343 C   0  0  0  0  0  0  0  0  0  0  0  0
  -32.2248  -27.7456   18.2197 C   0  0  0  0  0  0  0  0  0  0  0  0
  -23.8584  -30.5109   21.5439 C   0  0  1  0  0  0  0  0  0  0  0  0
  -24.4184  -33.4331   23.8927 C   0  0  2  0  0  0  0  0  0  0  0  0
  -30.9906  -27.1542   17.5205 C   0  0  1  0  0  0  0  0  0  0  0  0
  -32.0966  -27.8829   19.7450 C   0  0  2  0  0  0  0  0  0  1  0  0
  -22.6631  -30.5080   20.5496 C   0  0  0  0  0  0  0  0  0  0  0  0
  -27.6551  -15.3600   20.1761 N   0  0  0  0  0  0  0  0  0  0  0  0
  -29.1391  -23.3274   18.8473 N   0  0  0  0  0  0  0  0  0  0  0  0
  -26.4467  -26.3427   17.0528 N   0  0  0  0  0  0  0  0  0  0  0  0
  -28.4542  -15.9243   19.2547 N   0  0  0  0  0  0  0  0  0  0  0  0
  -25.2327  -28.5219   22.0719 N   0  0  0  0  0  0  0  0  0  0  0  0
  -29.6391  -19.2839   20.6303 N   0  0  0  0  0  0  0  0  0  0  0  0
  -29.0165  -15.8701   16.9543 N   0  0  0  0  0  0  0  0  0  0  0  0
  -25.8188  -12.7020   17.3202 N   0  0  0  0  0  0  0  0  0  0  0  0
  -29.2190  -25.5595   17.9095 N   0  0  0  0  0  0  0  0  0  0  0  0
  -28.4942  -21.1109   19.6746 N   0  0  0  0  0  0  0  0  0  0  0  0
  -23.9451  -25.4371   21.6295 N   0  0  0  0  0  0  0  0  0  0  0  0
  -23.7684  -31.5306   22.5834 N   0  0  0  0  0  0  0  0  0  0  0  0
  -25.6676  -33.8746   24.5751 N   0  3  0  0  0  0  0  0  0  0  0  0
  -27.2509  -13.7424   15.8624 O   0  0  0  0  0  0  0  0  0  0  0  0
  -25.7657  -26.2490   20.4258 O   0  0  0  0  0  0  0  0  0  0  0  0
  -23.0935  -28.7724   22.9648 O   0  0  0  0  0  0  0  0  0  0  0  0
  -25.7667  -32.5908   22.0734 O   0  0  0  0  0  0  0  0  0  0  0  0
  -31.4160  -25.0125   18.5286 O   0  0  0  0  0  0  0  0  0  0  0  0
  -30.7801  -21.2110   20.0570 O   0  0  0  0  0  0  0  0  0  0  0  0
  -31.2386  -27.0670   16.1269 O   0  0  0  0  0  0  0  0  0  0  0  0
  -23.1425  -11.2472   21.9846 O   0  0  0  0  0  0  0  0  0  0  0  0
  -31.0560  -28.8082   20.0570 O   0  0  0  0  0  0  0  0  0  1  0  0
  -23.1220   -5.8672   20.7767 F   0  0  0  0  0  0  0  0  0  0  0  0
  -22.7385  -10.3772   19.3918 F   0  0  0  0  0  0  0  0  0  0  0  0
  -26.6369  -22.7114   18.6432 S   0  0  0  0  0  0  0  0  0  0  0  0
  1  2  1  0  0  0  0
  1  5  2  0  0  0  0
  2  6  2  0  0  0  0
  3  8  2  0  0  0  0
  3 15  1  0  0  0  0
  4  9  1  0  0  0  0
  4 15  2  0  0  0  0
  5 17  1  0  0  0  0
  6 19  1  0  0  0  0
  7 10  2  0  0  0  0
  7 18  1  0  0  0  0
  8 21  1  0  0  0  0
  9 21  2  0  0  0  0
 10 22  1  0  0  0  0
 11 12  2  0  0  0  0
 11 23  1  0  0  0  0
 12 24  1  0  0  0  0
 13 20  1  0  0  0  0
 13 22  2  0  0  0  0
 14 24  2  0  0  0  0
 14 25  1  0  0  0  0
 15 26  1  0  0  0  0
 16 26  1  0  0  0  0
 16 29  2  0  0  0  0
 16 32  1  0  0  0  0
 17 19  2  0  0  0  0
 17 38  1  0  0  0  0
 18 20  2  0  0  0  0
 18 39  1  0  0  0  0
 19 47  1  0  0  0  0
 20 40  1  0  0  0  0
 21 82  1  0  0  0  0
 22 83  1  0  0  0  0
 23 25  2  0  0  0  0
 23 82  1  0  0  0  0
 24 84  1  0  0  0  0
 25 85  1  0  0  0  0
 26 62  2  0  0  0  0
 27 28  2  0  0  0  0
 27 31  1  0  0  0  0
 27 86  1  0  0  0  0
 28 63  1  0  0  0  0
 28 70  1  0  0  0  0
 29 65  1  0  0  0  0
 29 68  1  0  0  0  0
 30 63  2  0  0  0  0
 30 71  1  0  0  0  0
 30 86  1  0  0  0  0
 31 64  2  0  0  0  0
 32 69  1  0  0  0  0
 32 75  2  0  0  0  0
 33 48  1  0  0  0  0
 33 72  1  0  0  0  0
 33 76  2  0  0  0  0
 34 57  1  0  0  0  0
 34 66  1  0  0  0  0
 34 77  2  0  0  0  0
 35 58  1  0  0  0  0
 35 73  1  0  0  0  0
 35 78  2  0  0  0  0
 36 59  1  0  0  0  0
 36 70  1  0  0  0  0
 36 79  2  0  0  0  0
 37 67  1  0  0  0  0
 37 71  1  0  0  0  0
 37 80  2  0  0  0  0
 38 41  1  0  0  0  0
 39 48  1  0  0  0  0
 40 66  1  0  0  0  0
 41 43  1  0  0  0  0
 42 44  1  0  0  0  0
 42 45  1  0  0  0  0
 43 47  1  0  0  0  0
 44 49  1  0  0  0  0
 45 67  1  0  0  0  0
 46 49  1  0  0  0  0
 46 67  1  0  0  0  0
 47 72  1  0  0  0  0
 48 66  1  0  0  0  0
 49 65  1  0  0  0  0
 50 58  1  0  0  0  0
 51 60  1  0  0  0  0
 52 61  1  0  0  0  0
 53 61  1  0  0  0  0
 54 61  1  0  0  0  0
 55 74  1  0  0  0  0
 56 59  1  0  0  0  0
 56 60  1  0  0  0  0
 57 61  1  0  0  0  0
 57 73  1  0  0  0  0
 58 74  1  0  0  0  0
 59 81  1  0  0  0  0
 60 83  1  0  0  0  0
 62 65  1  0  0  0  0
M  CHG  1  74   1
M  ISO  4  37 100  60 101  71 100  83 101
M  END
> <Batch ID>
0186

> <Smiles>
CNC(C)C(=O)NC(C(=O)N1Cc2cc([101O:1][101CH:1](C)CC(O)C(=O)Nc3nc([100NH:0][100C:0](=O)N4CCCC(n5nc(-c6ccc(Oc7ccc(F)cc7F)cc6)c(C(N)=O)c5N)C4)sc3C=N)ccc2CC1C(=O)NC1CCCc2ccccc21)C(C)(C)C

> <Shape>
0.276

> <Color>
0.078

> <Negative vol penalty>
0.000

$$$$

  -OEChem-04052305093D

 76 83  0     1  0  0  0  0  0999 V2000
  -18.6061  -24.8524   20.2017 C   0  0  0  0  0  0  0  0  0  0  0  0
  -19.8823  -25.1480   19.7336 C   0  0  0  0  0  0  0  0  0  0  0  0
  -26.2310  -19.0528   20.1705 C   0  0  0  0  0  0  0  0  0  0  0  0
  -27.9091  -17.9082   21.4786 C   0  0  0  0  0  0  0  0  0  0  0  0
  -18.1055  -25.5133   21.3226 C   0  0  0  0  0  0  0  0  0  0  0  0
  -20.6584  -26.1057   20.3856 C   0  0  0  0  0  0  0  0  0  0  0  0
  -25.4475  -24.6002   21.0511 C   0  0  0  0  0  0  0  0  0  0  0  0
  -25.4660  -17.8871   20.1319 C   0  0  0  0  0  0  0  0  0  0  0  0
  -27.1440  -16.7425   21.4400 C   0  0  0  0  0  0  0  0  0  0  0  0
  -26.2970  -24.6733   19.9481 C   0  0  0  0  0  0  0  0  0  0  0  0
  -26.5107  -14.2498   19.2455 C   0  0  0  0  0  0  0  0  0  0  0  0
  -27.1682  -13.0521   18.9649 C   0  0  0  0  0  0  0  0  0  0  0  0
  -27.2162  -26.7345   20.8000 C   0  0  0  0  0  0  0  0  0  0  0  0
  -26.4624  -12.1647   21.0983 C   0  0  0  0  0  0  0  0  0  0  0  0
  -27.4526  -19.0633   20.8438 C   0  0  0  0  0  0  0  0  0  0  0  0
  -28.1879  -21.2893   21.8498 C   0  0  0  0  0  0  0  0  0  0  0  0
  -18.8795  -26.4725   21.9945 C   0  0  0  0  0  0  0  0  0  0  0  0
  -25.4683  -25.6011   22.0330 C   0  0  0  0  0  0  0  0  0  0  0  0
  -20.1672  -26.7810   21.5158 C   0  0  0  0  0  0  0  0  0  0  0  0
  -26.3677  -26.6705   21.9158 C   0  0  0  0  0  0  0  0  0  0  0  0
  -25.9225  -16.7320   20.7667 C   0  0  0  0  0  0  0  0  0  0  0  0
  -27.1795  -25.7420   19.8209 C   0  0  0  0  0  0  0  0  0  0  0  0
  -25.8291  -14.4050   20.4526 C   0  0  0  0  0  0  0  0  0  0  0  0
  -27.1441  -12.0095   19.8913 C   0  0  0  0  0  0  0  0  0  0  0  0
  -25.8049  -13.3624   21.3790 C   0  0  0  0  0  0  0  0  0  0  0  0
  -28.2436  -20.2670   20.8836 C   0  0  0  0  0  0  0  0  0  0  0  0
  -29.1302  -22.2007   21.4401 C   0  0  0  0  0  0  0  0  0  0  0  0
  -27.3587  -21.4047   23.0137 C   0  0  0  0  0  0  0  0  0  0  0  0
  -23.3565  -27.7048   23.1369 C   0  0  0  0  0  0  0  0  0  0  0  0
  -25.6965  -28.3360   25.2928 C   0  0  0  0  0  0  0  0  0  0  0  0
  -29.9580  -26.5487   16.4157 C   0  0  0  0  0  0  0  0  0  0  0  0
  -29.0203  -28.2684   26.0641 C   0  0  0  0  0  0  0  0  0  0  0  0
  -31.3415  -24.5064   16.6495 C   0  0  0  0  0  0  0  0  0  0  0  0
  -18.2775  -27.1948   23.1737 C   0  0  0  0  0  0  0  0  0  0  0  0
  -24.5643  -25.4938   23.2304 C   0  0  0  0  0  0  0  0  0  0  0  0
  -26.4434  -27.7603   22.9527 C   0  0  0  0  0  0  0  0  0  0  0  0
  -19.3075  -27.9264   24.0305 C   0  0  0  0  0  0  0  0  0  0  0  0
  -33.0958  -22.0271   18.4829 C   0  0  0  0  0  0  0  0  0  0  0  0
  -20.2664  -28.7214   23.1500 C   0  0  0  0  0  0  0  0  0  0  0  0
  -32.0207  -21.4195   19.3875 C   0  0  0  0  0  0  0  0  0  0  0  0
  -32.5422  -22.3852   17.1046 C   0  0  0  0  0  0  0  0  0  0  0  0
  -30.2679  -22.6200   18.0199 C   0  0  0  0  0  0  0  0  0  0  0  0
  -21.0489  -27.7957   22.2107 C   0  0  1  0  0  0  0  0  0  0  0  0
  -24.3092  -26.8363   23.9087 C   0  0  1  0  0  0  0  0  0  0  0  0
  -30.7613  -22.3068   19.4417 C   0  0  1  0  0  0  0  0  0  0  0  0
  -28.3675  -28.4904   16.1673 C   0  0  0  0  0  0  0  0  0  0  0  0
  -30.6330  -28.8871   27.8845 C   0  0  0  0  0  0  0  0  0  0  0  0
  -25.4660  -31.2723   24.4957 C   0  0  0  0  0  0  0  0  0  0  0  0
  -27.6771  -31.6734   25.5996 C   0  0  0  0  0  0  0  0  0  0  0  0
  -25.7373  -30.8758   26.9500 C   0  0  0  0  0  0  0  0  0  0  0  0
  -29.8909  -25.4606   26.4064 C   0  0  0  0  0  0  0  0  0  0  0  0
  -28.3809  -27.1189   18.3006 C   0  0  0  0  0  0  0  0  0  1  0  0
  -26.8718  -29.2818   25.3487 C   0  0  1  0  0  0  0  0  0  0  0  0
  -28.5878  -27.1098   16.7853 C   0  0  2  0  0  0  0  0  0  0  0  0
  -29.7577  -27.7888   27.3013 C   0  0  2  0  0  0  0  0  0  0  0  0
  -26.4355  -30.7564   25.5778 C   0  0  0  0  0  0  0  0  0  0  0  0
  -29.1495  -20.5061   19.9316 N   0  0  0  0  0  0  0  0  0  0  0  0
  -29.6717  -21.6891   20.2976 N   0  0  0  0  0  0  0  0  0  0  0  0
  -25.5349  -27.6139   24.1019 N   0  0  0  0  0  0  0  0  0  0  0  0
  -31.3541  -23.2300   17.2383 N   0  0  0  0  0  0  0  0  0  0  0  0
  -29.5401  -23.3819   21.9491 N   0  0  0  0  0  0  0  0  0  0  0  0
  -26.4444  -20.3782   23.2871 N   0  0  0  0  0  0  0  0  0  0  0  0
  -22.1162  -27.1323   22.9285 N   0  0  0  0  0  0  0  0  0  0  0  0
  -30.1764  -25.2485   16.8705 N   0  0  0  0  0  0  0  0  0  0  0  0
  -27.7689  -28.7580   26.3732 N   0  0  0  0  0  0  0  0  0  0  0  0
  -30.6250  -26.6236   26.9682 N   0  3  0  0  0  0  0  0  0  0  0  0
  -27.4149  -22.3967   23.7794 O   0  0  0  0  0  0  0  0  0  0  0  0
  -23.7192  -28.8129   22.7597 O   0  0  0  0  0  0  0  0  0  0  0  0
  -24.9535  -28.2362   26.2724 O   0  0  0  0  0  0  0  0  0  0  0  0
  -30.7595  -27.2141   15.7609 O   0  0  0  0  0  0  0  0  0  0  0  0
  -29.5072  -28.2176   24.9369 O   0  0  0  0  0  0  0  0  0  0  0  0
  -32.2977  -24.9605   16.0136 O   0  0  0  0  0  0  0  0  0  0  0  0
  -25.1761  -15.5944   20.7294 O   0  0  0  0  0  0  0  0  0  0  0  0
  -28.0149  -25.8165   18.7377 O   0  0  0  0  0  0  0  0  0  1  0  0
  -27.7742  -10.8589   19.6210 F   0  0  0  0  0  0  0  0  0  0  0  0
  -25.1507  -13.5053   22.5398 F   0  0  0  0  0  0  0  0  0  0  0  0
  1  2  1  0  0  0  0
  1  5  2  0  0  0  0
  2  6  2  0  0  0  0
  3  8  2  0  0  0  0
  3 15  1  0  0  0  0
  4  9  1  0  0  0  0
  4 15  2  0  0  0  0
  5 17  1  0  0  0  0
  6 19  1  0  0  0  0
  7 10  2  0  0  0  0
  7 18  1  0  0  0  0
  8 21  1  0  0  0  0
  9 21  2  0  0  0  0
 10 22  1  0  0  0  0
 11 12  2  0  0  0  0
 11 23  1  0  0  0  0
 12 24  1  0  0  0  0
 13 20  1  0  0  0  0
 13 22  2  0  0  0  0
 14 24  2  0  0  0  0
 14 25  1  0  0  0  0
 15 26  1  0  0  0  0
 16 26  1  0  0  0  0
 16 27  2  0  0  0  0
 16 28  1  0  0  0  0
 17 19  2  0  0  0  0
 17 34  1  0  0  0  0
 18 20  2  0  0  0  0
 18 35  1  0  0  0  0
 19 43  1  0  0  0  0
 20 36  1  0  0  0  0
 21 73  1  0  0  0  0
 22 74  1  0  0  0  0
 23 25  2  0  0  0  0
 23 73  1  0  0  0  0
 24 75  1  0  0  0  0
 25 76  1  0  0  0  0
 26 57  2  0  0  0  0
 27 58  1  0  0  0  0
 27 61  1  0  0  0  0
 28 62  1  0  0  0  0
 28 67  2  0  0  0  0
 29 44  1  0  0  0  0
 29 63  1  0  0  0  0
 29 68  2  0  0  0  0
 30 53  1  0  0  0  0
 30 59  1  0  0  0  0
 30 69  2  0  0  0  0
 31 54  1  0  0  0  0
 31 64  1  0  0  0  0
 31 70  2  0  0  0  0
 32 55  1  0  0  0  0
 32 65  1  0  0  0  0
 32 71  2  0  0  0  0
 33 60  1  0  0  0  0
 33 64  1  0  0  0  0
 33 72  2  0  0  0  0
 34 37  1  0  0  0  0
 35 44  1  0  0  0  0
 36 59  1  0  0  0  0
 37 39  1  0  0  0  0
 38 40  1  0  0  0  0
 38 41  1  0  0  0  0
 39 43  1  0  0  0  0
 40 45  1  0  0  0  0
 41 60  1  0  0  0  0
 42 45  1  0  0  0  0
 42 60  1  0  0  0  0
 43 63  1  0  0  0  0
 44 59  1  0  0  0  0
 45 58  1  0  0  0  0
 46 54  1  0  0  0  0
 47 55  1  0  0  0  0
 48 56  1  0  0  0  0
 49 56  1  0  0  0  0
 50 56  1  0  0  0  0
 51 66  1  0  0  0  0
 52 54  1  0  0  0  0
 52 74  1  0  0  0  0
 53 56  1  0  0  0  0
 53 65  1  0  0  0  0
 55 66  1  0  0  0  0
 57 58  1  0  0  0  0
M  CHG  1  66   1
M  ISO  4  33 100  52 101  64 100  74 101
M  END
> <Batch ID>
0186

> <Smiles>
CNC(C)C(=O)NC(C(=O)N1Cc2cc([101O:1][101CH2:1]C(C)C(=O)[100NH:0][100C:0](=O)N3CCCC(n4nc(-c5ccc(Oc6ccc(F)cc6F)cc5)c(C(N)=O)c4N)C3)ccc2CC1C(=O)NC1CCCc2ccccc21)C(C)(C)C

> <Shape>
0.209

> <Color>
0.083

> <Negative vol penalty>
0.000

$$$$

  -OEChem-04052305093D

 84 92  0     1  0  0  0  0  0999 V2000
  -25.2266  -35.0979   21.0178 C   0  0  0  0  0  0  0  0  0  0  0  0
  -25.9331  -33.9093   21.1711 C   0  0  0  0  0  0  0  0  0  0  0  0
  -24.7115  -14.2143   21.1098 C   0  0  0  0  0  0  0  0  0  0  0  0
  -26.5077  -13.8462   19.5364 C   0  0  0  0  0  0  0  0  0  0  0  0
  -23.9093  -35.1871   21.4658 C   0  0  0  0  0  0  0  0  0  0  0  0
  -25.3231  -32.8096   21.7734 C   0  0  0  0  0  0  0  0  0  0  0  0
  -26.1875  -28.4945   19.2678 C   0  0  0  0  0  0  0  0  0  0  0  0
  -24.1333  -13.0020   20.7334 C   0  0  0  0  0  0  0  0  0  0  0  0
  -25.9295  -12.6339   19.1600 C   0  0  0  0  0  0  0  0  0  0  0  0
  -27.4324  -27.8928   19.4467 C   0  0  0  0  0  0  0  0  0  0  0  0
  -24.6107   -9.7137   21.3597 C   0  0  0  0  0  0  0  0  0  0  0  0
  -24.1531   -8.8715   22.3730 C   0  0  0  0  0  0  0  0  0  0  0  0
  -26.4536  -26.3498   21.0216 C   0  0  0  0  0  0  0  0  0  0  0  0
  -21.9189   -8.9881   21.4608 C   0  0  0  0  0  0  0  0  0  0  0  0
  -34.0465  -20.5963   20.1152 C   0  0  0  0  0  0  0  0  0  0  0  0
  -25.8987  -14.6364   20.5113 C   0  0  0  0  0  0  0  0  0  0  0  0
  -27.4376  -16.1002   21.9243 C   0  0  0  0  0  0  0  0  0  0  0  0
  -23.2796  -34.0849   22.0652 C   0  0  0  0  0  0  0  0  0  0  0  0
  -25.0666  -28.0346   19.9740 C   0  0  0  0  0  0  0  0  0  0  0  0
  -23.9966  -32.8846   22.2311 C   0  0  0  0  0  0  0  0  0  0  0  0
  -25.1951  -26.9457   20.8480 C   0  0  0  0  0  0  0  0  0  0  0  0
  -24.7423  -12.2118   19.7585 C   0  0  0  0  0  0  0  0  0  0  0  0
  -27.5662  -26.8221   20.3258 C   0  0  0  0  0  0  0  0  0  0  0  0
  -23.7225  -10.1932   20.3969 C   0  0  0  0  0  0  0  0  0  0  0  0
  -22.8072   -8.5087   22.4235 C   0  0  0  0  0  0  0  0  0  0  0  0
  -22.3766   -9.8304   20.4475 C   0  0  0  0  0  0  0  0  0  0  0  0
  -26.4961  -15.8889   20.8993 C   0  0  0  0  0  0  0  0  0  0  0  0
  -27.6853  -17.4507   21.8899 C   0  0  0  0  0  0  0  0  0  0  0  0
  -34.5757  -21.2070   18.9976 C   0  0  0  0  0  0  0  0  0  0  0  0
  -32.3769  -21.9409   19.6525 C   0  0  0  0  0  0  0  0  0  0  0  0
  -28.0349  -15.1598   22.8269 C   0  0  0  0  0  0  0  0  0  0  0  0
  -23.0799  -29.3073   22.1040 C   0  0  0  0  0  0  0  0  0  0  0  0
  -30.8786  -23.3846   21.0594 C   0  0  0  0  0  0  0  0  0  0  0  0
  -21.5001  -26.4992   21.7290 C   0  0  0  0  0  0  0  0  0  0  0  0
  -21.6162  -23.2055   20.8428 C   0  0  0  0  0  0  0  0  0  0  0  0
  -28.7164  -22.1385   19.0427 C   0  0  0  0  0  0  0  0  0  0  0  0
  -21.8697  -34.2439   22.5765 C   0  0  0  0  0  0  0  0  0  0  0  0
  -23.7253  -28.6773   19.7497 C   0  0  0  0  0  0  0  0  0  0  0  0
  -24.0186  -26.4011   21.6147 C   0  0  0  0  0  0  0  0  0  0  0  0
  -21.1732  -32.9166   22.8653 C   0  0  0  0  0  0  0  0  0  0  0  0
  -25.3106  -21.1716   19.4198 C   0  0  0  0  0  0  0  0  0  0  0  0
  -22.0938  -31.9914   23.6549 C   0  0  0  0  0  0  0  0  0  0  0  0
  -25.3932  -19.7272   19.9166 C   0  0  0  0  0  0  0  0  0  0  0  0
  -26.4123  -21.4850   18.4098 C   0  0  0  0  0  0  0  0  0  0  0  0
  -27.8627  -19.7382   19.3684 C   0  0  0  0  0  0  0  0  0  0  0  0
  -23.3612  -31.6620   22.8571 C   0  0  1  0  0  0  0  0  0  0  0  0
  -22.7565  -28.4578   20.9076 C   0  0  1  0  0  0  0  0  0  0  0  0
  -26.8059  -19.3912   20.4310 C   0  0  2  0  0  0  0  0  0  0  0  0
  -20.7655  -20.9017   20.3268 C   0  0  0  0  0  0  0  0  0  0  0  0
  -31.0487  -27.1550   22.0675 C   0  0  0  0  0  0  0  0  0  0  0  0
  -21.6258  -26.1678   24.7596 C   0  0  0  0  0  0  0  0  0  0  0  0
  -21.0559  -23.7497   24.4489 C   0  0  0  0  0  0  0  0  0  0  0  0
  -19.4440  -25.5117   23.7280 C   0  0  0  0  0  0  0  0  0  0  0  0
  -21.1359  -23.8927   18.0045 C   0  0  0  0  0  0  0  0  0  0  0  0
  -31.3103  -24.8459   21.0668 C   0  0  0  0  0  0  0  0  0  0  0  0
  -29.0412  -25.6543   21.7806 C   0  0  0  0  0  0  0  0  0  1  0  0
  -31.0446  -22.6431   19.7383 C   0  0  2  0  0  0  0  0  0  0  0  0
  -21.5577  -25.1435   22.3906 C   0  0  1  0  0  0  0  0  0  0  0  0
  -20.7217  -22.3725   19.9426 C   0  0  2  0  0  0  0  0  0  0  0  0
  -30.5443  -25.7060   22.0827 C   0  0  2  0  0  0  0  0  0  0  0  0
  -20.9436  -25.1544   23.8189 C   0  0  0  0  0  0  0  0  0  0  0  0
  -32.7859  -21.0161   20.4925 N   0  0  0  0  0  0  0  0  0  0  0  0
  -26.1679  -17.0150   20.2604 N   0  0  0  0  0  0  0  0  0  0  0  0
  -26.9072  -17.9469   20.8857 N   0  0  0  0  0  0  0  0  0  0  0  0
  -22.7294  -27.0673   21.3660 N   0  0  0  0  0  0  0  0  0  0  0  0
  -27.7268  -21.1451   18.9599 N   0  0  0  0  0  0  0  0  0  0  0  0
  -28.4906  -18.2503   22.6211 N   0  0  0  0  0  0  0  0  0  0  0  0
  -27.6684  -13.8108   22.7252 N   0  0  0  0  0  0  0  0  0  0  0  0
  -23.0778  -30.6651   21.8470 N   0  0  0  0  0  0  0  0  0  0  0  0
  -20.9136  -24.2125   21.4704 N   0  0  0  0  0  0  0  0  0  0  0  0
  -29.9313  -21.7338   19.5821 N   0  0  0  0  0  0  0  0  0  0  0  0
  -21.1534  -22.5002   18.5220 N   0  3  0  0  0  0  0  0  0  0  0  0
  -28.8565  -15.5079   23.7085 O   0  0  0  0  0  0  0  0  0  0  0  0
  -23.3127  -28.7708   23.1809 O   0  0  0  0  0  0  0  0  0  0  0  0
  -30.4238  -22.8350   22.0631 O   0  0  0  0  0  0  0  0  0  0  0  0
  -20.4042  -27.0312   21.5348 O   0  0  0  0  0  0  0  0  0  0  0  0
  -22.8172  -22.9828   20.9789 O   0  0  0  0  0  0  0  0  0  0  0  0
  -28.5293  -23.3013   18.6688 O   0  0  0  0  0  0  0  0  0  0  0  0
  -24.1785  -11.0287   19.3911 O   0  0  0  0  0  0  0  0  0  0  0  0
  -28.7802  -26.2334   20.5028 O   0  0  0  0  0  0  0  0  0  1  0  0
  -22.3681   -7.6986   23.3958 F   0  0  0  0  0  0  0  0  0  0  0  0
  -21.5187  -10.2869   19.5247 F   0  0  0  0  0  0  0  0  0  0  0  0
  -35.7756  -20.9465   18.4737 F   0  0  0  0  0  0  0  0  0  0  0  0
  -33.4574  -22.3539   18.3849 S   0  0  0  0  0  0  0  0  0  0  0  0
  1  2  1  0  0  0  0
  1  5  2  0  0  0  0
  2  6  2  0  0  0  0
  3  8  2  0  0  0  0
  3 16  1  0  0  0  0
  4  9  1  0  0  0  0
  4 16  2  0  0  0  0
  5 18  1  0  0  0  0
  6 20  1  0  0  0  0
  7 10  2  0  0  0  0
  7 19  1  0  0  0  0
  8 22  1  0  0  0  0
  9 22  2  0  0  0  0
 10 23  1  0  0  0  0
 11 12  2  0  0  0  0
 11 24  1  0  0  0  0
 12 25  1  0  0  0  0
 13 21  1  0  0  0  0
 13 23  2  0  0  0  0
 14 25  2  0  0  0  0
 14 26  1  0  0  0  0
 15 29  2  0  0  0  0
 15 62  1  0  0  0  0
 16 27  1  0  0  0  0
 17 27  1  0  0  0  0
 17 28  2  0  0  0  0
 17 31  1  0  0  0  0
 18 20  2  0  0  0  0
 18 37  1  0  0  0  0
 19 21  2  0  0  0  0
 19 38  1  0  0  0  0
 20 46  1  0  0  0  0
 21 39  1  0  0  0  0
 22 79  1  0  0  0  0
 23 80  1  0  0  0  0
 24 26  2  0  0  0  0
 24 79  1  0  0  0  0
 25 81  1  0  0  0  0
 26 82  1  0  0  0  0
 27 63  2  0  0  0  0
 28 64  1  0  0  0  0
 28 67  1  0  0  0  0
 29 83  1  0  0  0  0
 29 84  1  0  0  0  0
 30 57  1  0  0  0  0
 30 62  2  0  0  0  0
 30 84  1  0  0  0  0
 31 68  1  0  0  0  0
 31 73  2  0  0  0  0
 32 47  1  0  0  0  0
 32 69  1  0  0  0  0
 32 74  2  0  0  0  0
 33 55  1  0  0  0  0
 33 57  1  0  0  0  0
 33 75  2  0  0  0  0
 34 58  1  0  0  0  0
 34 65  1  0  0  0  0
 34 76  2  0  0  0  0
 35 59  1  0  0  0  0
 35 70  1  0  0  0  0
 35 77  2  0  0  0  0
 36 66  1  0  0  0  0
 36 71  1  0  0  0  0
 36 78  2  0  0  0  0
 37 40  1  0  0  0  0
 38 47  1  0  0  0  0
 39 65  1  0  0  0  0
 40 42  1  0  0  0  0
 41 43  1  0  0  0  0
 41 44  1  0  0  0  0
 42 46  1  0  0  0  0
 43 48  1  0  0  0  0
 44 66  1  0  0  0  0
 45 48  1  0  0  0  0
 45 66  1  0  0  0  0
 46 69  1  0  0  0  0
 47 65  1  0  0  0  0
 48 64  1  0  0  0  0
 49 59  1  0  0  0  0
 50 60  1  0  0  0  0
 51 61  1  0  0  0  0
 52 61  1  0  0  0  0
 53 61  1  0  0  0  0
 54 72  1  0  0  0  0
 55 60  1  0  0  0  0
 56 60  1  0  0  0  0
 56 80  1  0  0  0  0
 57 71  1  0  0  0  0
 58 61  1  0  0  0  0
 58 70  1  0  0  0  0
 59 72  1  0  0  0  0
 63 64  1  0  0  0  0
M  CHG  1  72   1
M  ISO  4  36 100  56 101  71 100  80 101
M  END
> <Batch ID>
0186

> <Smiles>
CNC(C)C(=O)NC(C(=O)N1Cc2cc([101O:1][101CH2:1]C(C)CC(=O)C([100NH:0][100C:0](=O)N3CCCC(n4nc(-c5ccc(Oc6ccc(F)cc6F)cc5)c(C(N)=O)c4N)C3)c3ncc(F)s3)ccc2CC1C(=O)NC1CCCc2ccccc21)C(C)(C)C

> <Shape>
0.216

> <Color>
0.077

> <Negative vol penalty>
0.000

$$$$

  -OEChem-04052305093D

 83 91  0     1  0  0  0  0  0999 V2000
  -27.3768  -24.6393   16.7018 C   0  0  0  0  0  0  0  0  0  0  0  0
  -26.1990  -24.9888   17.3546 C   0  0  0  0  0  0  0  0  0  0  0  0
  -25.9408  -13.7372   18.4107 C   0  0  0  0  0  0  0  0  0  0  0  0
  -24.0612  -14.1463   19.8724 C   0  0  0  0  0  0  0  0  0  0  0  0
  -28.6089  -24.9631   17.2683 C   0  0  0  0  0  0  0  0  0  0  0  0
  -26.2527  -25.6614   18.5749 C   0  0  0  0  0  0  0  0  0  0  0  0
  -22.9820  -29.5203   18.8120 C   0  0  0  0  0  0  0  0  0  0  0  0
  -26.1793  -12.5243   19.0568 C   0  0  0  0  0  0  0  0  0  0  0  0
  -24.2997  -12.9333   20.5186 C   0  0  0  0  0  0  0  0  0  0  0  0
  -21.6446  -29.2076   19.0514 C   0  0  0  0  0  0  0  0  0  0  0  0
  -23.7168   -9.6534   19.9503 C   0  0  0  0  0  0  0  0  0  0  0  0
  -22.6192   -8.8334   20.2119 C   0  0  0  0  0  0  0  0  0  0  0  0
  -21.9305  -29.7907   21.3747 C   0  0  0  0  0  0  0  0  0  0  0  0
  -23.0924   -8.9546   22.5780 C   0  0  0  0  0  0  0  0  0  0  0  0
  -24.8817  -14.5482   18.8185 C   0  0  0  0  0  0  0  0  0  0  0  0
  -23.8113  -16.0208   17.0315 C   0  0  0  0  0  0  0  0  0  0  0  0
  -28.6777  -25.6485   18.4915 C   0  0  0  0  0  0  0  0  0  0  0  0
  -23.8079  -29.9609   19.8561 C   0  0  0  0  0  0  0  0  0  0  0  0
  -27.4870  -25.9934   19.1590 C   0  0  0  0  0  0  0  0  0  0  0  0
  -23.2774  -30.1108   21.1454 C   0  0  0  0  0  0  0  0  0  0  0  0
  -25.3588  -12.1223   20.1108 C   0  0  0  0  0  0  0  0  0  0  0  0
  -21.1194  -29.3400   20.3335 C   0  0  0  0  0  0  0  0  0  0  0  0
  -24.5023  -10.1240   21.0026 C   0  0  0  0  0  0  0  0  0  0  0  0
  -22.3070   -8.4840   21.5257 C   0  0  0  0  0  0  0  0  0  0  0  0
  -24.1901   -9.7746   22.3164 C   0  0  0  0  0  0  0  0  0  0  0  0
  -24.6351  -15.8015   18.1518 C   0  0  0  0  0  0  0  0  0  0  0  0
  -23.9143  -17.3686   16.7881 C   0  0  0  0  0  0  0  0  0  0  0  0
  -23.1733  -22.7060   21.3577 C   0  0  0  0  0  0  0  0  0  0  0  0
  -21.5070  -24.3726   21.2431 C   0  0  0  0  0  0  0  0  0  0  0  0
  -23.0234  -15.0894   16.2782 C   0  0  0  0  0  0  0  0  0  0  0  0
  -26.4496  -28.8635   21.2421 C   0  0  0  0  0  0  0  0  0  0  0  0
  -25.3245  -21.9941   20.3557 C   0  0  0  0  0  0  0  0  0  0  0  0
  -26.3284  -31.6933   22.8232 C   0  0  0  0  0  0  0  0  0  0  0  0
  -19.8682  -26.2702   21.4830 C   0  0  0  0  0  0  0  0  0  0  0  0
  -24.4439  -34.3121   23.9357 C   0  0  0  0  0  0  0  0  0  0  0  0
  -30.0330  -25.9351   19.0878 C   0  0  0  0  0  0  0  0  0  0  0  0
  -25.2415  -30.3196   19.5759 C   0  0  0  0  0  0  0  0  0  0  0  0
  -24.1168  -30.5992   22.2965 C   0  0  0  0  0  0  0  0  0  0  0  0
  -30.0004  -26.9798   20.2004 C   0  0  0  0  0  0  0  0  0  0  0  0
  -26.9138  -21.0529   17.2852 C   0  0  0  0  0  0  0  0  0  0  0  0
  -28.8651  -26.6856   21.1758 C   0  0  0  0  0  0  0  0  0  0  0  0
  -26.4576  -19.6101   17.0723 C   0  0  0  0  0  0  0  0  0  0  0  0
  -27.1102  -21.3638   18.7657 C   0  0  0  0  0  0  0  0  0  0  0  0
  -25.4516  -19.6405   19.3987 C   0  0  0  0  0  0  0  0  0  0  0  0
  -27.5039  -26.7454   20.4722 C   0  0  1  0  0  0  0  0  0  0  0  0
  -26.1243  -30.2681   20.8191 C   0  0  1  0  0  0  0  0  0  0  0  0
  -25.2118  -19.2937   17.9187 C   0  0  2  0  0  0  0  0  0  0  0  0
  -24.5361  -20.8505   22.4027 C   0  0  0  0  0  0  0  0  0  0  0  0
  -24.6180  -36.4543   25.2311 C   0  0  0  0  0  0  0  0  0  0  0  0
  -18.0641  -28.6417   18.9821 C   0  0  0  0  0  0  0  0  0  0  0  0
  -26.4939  -30.1049   25.4231 C   0  0  0  0  0  0  0  0  0  0  0  0
  -25.7177  -32.1502   26.6407 C   0  0  0  0  0  0  0  0  0  0  0  0
  -27.8730  -32.1908   25.3854 C   0  0  0  0  0  0  0  0  0  0  0  0
  -23.5364  -35.9200   21.6226 C   0  0  0  0  0  0  0  0  0  0  0  0
  -18.7469  -26.8859   20.6517 C   0  0  0  0  0  0  0  0  0  0  0  0
  -24.0922  -21.5757   21.1175 C   0  0  1  0  0  0  0  0  0  0  0  0
  -25.6930  -32.1754   24.1050 C   0  0  1  0  0  0  0  0  0  0  0  0
  -24.6563  -35.8129   23.8527 C   0  0  2  0  0  0  0  0  0  0  0  0
  -19.2248  -28.0254   19.7517 C   0  0  2  0  0  0  0  0  0  1  0  0
  -26.4288  -31.6442   25.3675 C   0  0  0  0  0  0  0  0  0  0  0  0
  -25.2185  -16.9204   18.5897 N   0  0  0  0  0  0  0  0  0  0  0  0
  -23.1598  -23.4574   22.4381 N   0  0  0  0  0  0  0  0  0  0  0  0
  -22.1818  -24.4343   22.3712 N   0  0  0  0  0  0  0  0  0  0  0  0
  -24.7608  -17.8557   17.7401 N   0  0  0  0  0  0  0  0  0  0  0  0
  -25.5143  -30.9312   21.9734 N   0  0  0  0  0  0  0  0  0  0  0  0
  -25.9129  -21.0287   19.5385 N   0  0  0  0  0  0  0  0  0  0  0  0
  -23.3625  -18.1728   15.8546 N   0  0  0  0  0  0  0  0  0  0  0  0
  -23.0313  -13.7421   16.6642 N   0  0  0  0  0  0  0  0  0  0  0  0
  -20.4432  -25.1975   20.8066 N   0  0  0  0  0  0  0  0  0  0  0  0
  -27.0973  -28.1201   20.2740 N   0  0  0  0  0  0  0  0  0  0  0  0
  -25.6400  -33.6304   24.0122 N   0  0  0  0  0  0  0  0  0  0  0  0
  -23.5971  -36.4403   23.0128 N   0  3  0  0  0  0  0  0  0  0  0  0
  -22.3457  -15.4387   15.2821 O   0  0  0  0  0  0  0  0  0  0  0  0
  -26.1375  -28.4829   22.3644 O   0  0  0  0  0  0  0  0  0  0  0  0
  -25.7483  -23.1459   20.4822 O   0  0  0  0  0  0  0  0  0  0  0  0
  -27.5015  -31.9882   22.5816 O   0  0  0  0  0  0  0  0  0  0  0  0
  -20.1762  -26.7039   22.5881 O   0  0  0  0  0  0  0  0  0  0  0  0
  -23.3283  -33.7963   23.9366 O   0  0  0  0  0  0  0  0  0  0  0  0
  -25.5911  -10.9387   20.7414 O   0  0  0  0  0  0  0  0  0  0  0  0
  -19.8145  -29.0349   20.5701 O   0  0  0  0  0  0  0  0  0  1  0  0
  -21.2521   -7.6977   21.7768 F   0  0  0  0  0  0  0  0  0  0  0  0
  -24.9403  -10.2246   23.3316 F   0  0  0  0  0  0  0  0  0  0  0  0
  -22.0039  -23.1258   20.1753 S   0  0  0  0  0  0  0  0  0  0  0  0
  1  2  1  0  0  0  0
  1  5  2  0  0  0  0
  2  6  2  0  0  0  0
  3  8  2  0  0  0  0
  3 15  1  0  0  0  0
  4  9  1  0  0  0  0
  4 15  2  0  0  0  0
  5 17  1  0  0  0  0
  6 19  1  0  0  0  0
  7 10  2  0  0  0  0
  7 18  1  0  0  0  0
  8 21  1  0  0  0  0
  9 21  2  0  0  0  0
 10 22  1  0  0  0  0
 11 12  2  0  0  0  0
 11 23  1  0  0  0  0
 12 24  1  0  0  0  0
 13 20  1  0  0  0  0
 13 22  2  0  0  0  0
 14 24  2  0  0  0  0
 14 25  1  0  0  0  0
 15 26  1  0  0  0  0
 16 26  1  0  0  0  0
 16 27  2  0  0  0  0
 16 30  1  0  0  0  0
 17 19  2  0  0  0  0
 17 36  1  0  0  0  0
 18 20  2  0  0  0  0
 18 37  1  0  0  0  0
 19 45  1  0  0  0  0
 20 38  1  0  0  0  0
 21 79  1  0  0  0  0
 22 80  1  0  0  0  0
 23 25  2  0  0  0  0
 23 79  1  0  0  0  0
 24 81  1  0  0  0  0
 25 82  1  0  0  0  0
 26 61  2  0  0  0  0
 27 64  1  0  0  0  0
 27 67  1  0  0  0  0
 28 56  1  0  0  0  0
 28 62  2  0  0  0  0
 28 83  1  0  0  0  0
 29 63  2  0  0  0  0
 29 69  1  0  0  0  0
 29 83  1  0  0  0  0
 30 68  1  0  0  0  0
 30 73  2  0  0  0  0
 31 46  1  0  0  0  0
 31 70  1  0  0  0  0
 31 74  2  0  0  0  0
 32 56  1  0  0  0  0
 32 66  1  0  0  0  0
 32 75  2  0  0  0  0
 33 57  1  0  0  0  0
 33 65  1  0  0  0  0
 33 76  2  0  0  0  0
 34 55  1  0  0  0  0
 34 69  1  0  0  0  0
 34 77  2  0  0  0  0
 35 58  1  0  0  0  0
 35 71  1  0  0  0  0
 35 78  2  0  0  0  0
 36 39  1  0  0  0  0
 37 46  1  0  0  0  0
 38 65  1  0  0  0  0
 39 41  1  0  0  0  0
 40 42  1  0  0  0  0
 40 43  1  0  0  0  0
 41 45  1  0  0  0  0
 42 47  1  0  0  0  0
 43 66  1  0  0  0  0
 44 47  1  0  0  0  0
 44 66  1  0  0  0  0
 45 70  1  0  0  0  0
 46 65  1  0  0  0  0
 47 64  1  0  0  0  0
 48 56  1  0  0  0  0
 49 58  1  0  0  0  0
 50 59  1  0  0  0  0
 51 60  1  0  0  0  0
 52 60  1  0  0  0  0
 53 60  1  0  0  0  0
 54 72  1  0  0  0  0
 55 59  1  0  0  0  0
 57 60  1  0  0  0  0
 57 71  1  0  0  0  0
 58 72  1  0  0  0  0
 59 80  1  0  0  0  0
 61 64  1  0  0  0  0
 62 63  1  0  0  0  0
M  CHG  1  72   1
M  ISO  4  32 100  56 100  59 101  80 101
M  END
> <Batch ID>
0186

> <Smiles>
CNC(C)C(=O)NC(C(=O)N1Cc2cc([101O:1][101CH:1](C)CC(=O)Nc3nnc([100CH:0](C)[100C:0](=O)N4CCCC(n5nc(-c6ccc(Oc7ccc(F)cc7F)cc6)c(C(N)=O)c5N)C4)s3)ccc2CC1C(=O)NC1CCCc2ccccc21)C(C)(C)C

> <Shape>
0.271

> <Color>
0.081

> <Negative vol penalty>
0.000

$$$$

  -OEChem-04052305093D

 83 91  0     1  0  0  0  0  0999 V2000
  -23.9803  -22.9045   17.8448 C   0  0  0  0  0  0  0  0  0  0  0  0
  -24.7482  -21.7860   17.5413 C   0  0  0  0  0  0  0  0  0  0  0  0
  -22.1159  -28.1912   22.1653 C   0  0  0  0  0  0  0  0  0  0  0  0
  -22.1476  -26.0879   23.3536 C   0  0  0  0  0  0  0  0  0  0  0  0
  -23.3125  -22.9764   19.0654 C   0  0  0  0  0  0  0  0  0  0  0  0
  -24.8390  -20.7338   18.4532 C   0  0  0  0  0  0  0  0  0  0  0  0
  -28.1334  -15.6110   18.2755 C   0  0  0  0  0  0  0  0  0  0  0  0
  -20.7222  -28.2020   22.2215 C   0  0  0  0  0  0  0  0  0  0  0  0
  -20.7539  -26.0987   23.4099 C   0  0  0  0  0  0  0  0  0  0  0  0
  -29.3870  -15.1783   18.7055 C   0  0  0  0  0  0  0  0  0  0  0  0
  -18.3266  -28.9344   24.4926 C   0  0  0  0  0  0  0  0  0  0  0  0
  -17.7016  -30.1288   24.8508 C   0  0  0  0  0  0  0  0  0  0  0  0
  -28.3785  -14.2470   20.6891 C   0  0  0  0  0  0  0  0  0  0  0  0
  -16.5443  -30.1593   22.7302 C   0  0  0  0  0  0  0  0  0  0  0  0
  -22.8286  -27.1340   22.7312 C   0  0  0  0  0  0  0  0  0  0  0  0
  -25.1618  -27.6671   23.6143 C   0  0  0  0  0  0  0  0  0  0  0  0
  -23.4057  -21.9296   19.9974 C   0  0  0  0  0  0  0  0  0  0  0  0
  -26.9924  -15.3741   19.0557 C   0  0  0  0  0  0  0  0  0  0  0  0
  -24.1531  -20.7771   19.6805 C   0  0  0  0  0  0  0  0  0  0  0  0
  -27.1112  -14.6755   20.2656 C   0  0  0  0  0  0  0  0  0  0  0  0
  -20.0412  -27.1558   22.8439 C   0  0  0  0  0  0  0  0  0  0  0  0
  -29.5101  -14.4987   19.9138 C   0  0  0  0  0  0  0  0  0  0  0  0
  -18.0606  -28.3525   23.2531 C   0  0  0  0  0  0  0  0  0  0  0  0
  -16.8105  -30.7412   23.9696 C   0  0  0  0  0  0  0  0  0  0  0  0
  -17.1694  -28.9648   22.3720 C   0  0  0  0  0  0  0  0  0  0  0  0
  -24.2682  -27.1220   22.6729 C   0  0  0  0  0  0  0  0  0  0  0  0
  -26.4072  -27.3958   23.1027 C   0  0  0  0  0  0  0  0  0  0  0  0
  -29.8169  -19.3476   20.4354 C   0  0  0  0  0  0  0  0  0  0  0  0
  -28.5352  -21.0752   20.7640 C   0  0  0  0  0  0  0  0  0  0  0  0
  -24.8902  -28.3569   24.8415 C   0  0  0  0  0  0  0  0  0  0  0  0
  -24.8488  -17.2150   20.5115 C   0  0  0  0  0  0  0  0  0  0  0  0
  -23.3916  -14.3783   21.1050 C   0  0  0  0  0  0  0  0  0  0  0  0
  -23.6717  -10.9957   21.4605 C   0  0  0  0  0  0  0  0  0  0  0  0
  -28.4694  -23.1886   19.3944 C   0  0  0  0  0  0  0  0  0  0  0  0
  -22.6560  -22.0561   21.3001 C   0  0  0  0  0  0  0  0  0  0  0  0
  -25.6436  -15.8239   18.5650 C   0  0  0  0  0  0  0  0  0  0  0  0
  -25.9144  -14.3781   21.1304 C   0  0  0  0  0  0  0  0  0  0  0  0
  -23.1668  -21.1023   22.3751 C   0  0  0  0  0  0  0  0  0  0  0  0
  -28.6795  -26.7140   18.9426 C   0  0  0  0  0  0  0  0  0  0  0  0
  -23.2699  -19.6925   21.8127 C   0  0  0  0  0  0  0  0  0  0  0  0
  -27.6578  -27.2686   19.9379 C   0  0  0  0  0  0  0  0  0  0  0  0
  -28.2030  -25.4081   18.3091 C   0  0  0  0  0  0  0  0  0  0  0  0
  -26.7764  -24.9217   20.2578 C   0  0  0  0  0  0  0  0  0  0  0  0
  -24.2912  -19.6339   20.6696 C   0  0  1  0  0  0  0  0  0  0  0  0
  -24.6213  -15.9800   19.6866 C   0  0  1  0  0  0  0  0  0  0  0  0
  -27.2406  -26.2027   20.9701 C   0  0  2  0  0  0  0  0  0  0  0  0
  -22.3142   -8.9507   21.9821 C   0  0  0  0  0  0  0  0  0  0  0  0
  -33.7584  -17.2349   20.2346 C   0  0  0  0  0  0  0  0  0  0  0  0
  -31.3912  -13.4239   22.5504 C   0  0  0  0  0  0  0  0  0  0  0  0
  -23.3630  -15.1530   24.0562 C   0  0  0  0  0  0  0  0  0  0  0  0
  -22.8965  -12.7562   24.6091 C   0  0  0  0  0  0  0  0  0  0  0  0
  -21.2654  -14.0598   23.2442 C   0  0  0  0  0  0  0  0  0  0  0  0
  -24.2791   -9.7801   18.8314 C   0  0  0  0  0  0  0  0  0  0  0  0
  -30.8367  -18.3950   19.8846 C   0  0  0  0  0  0  0  0  0  0  0  0
  -32.5201  -15.3373   21.3580 C   0  0  0  0  0  0  0  0  0  0  0  0
  -23.4607  -13.3514   22.2094 C   0  0  1  0  0  0  0  0  0  0  0  0
  -22.8577   -9.8515   20.8840 C   0  0  2  0  0  0  0  0  0  0  0  0
  -32.4174  -16.5300   20.3966 C   0  0  1  0  0  0  0  0  0  0  0  0
  -31.2013  -14.5864   21.5836 C   0  0  1  0  0  0  0  0  0  1  0  0
  -22.7694  -13.8372   23.5146 C   0  0  0  0  0  0  0  0  0  0  0  0
  -24.8929  -26.5479   21.6413 N   0  0  0  0  0  0  0  0  0  0  0  0
  -29.5279  -20.5395   19.9612 N   0  0  0  0  0  0  0  0  0  0  0  0
  -28.0534  -20.3913   21.8017 N   0  0  0  0  0  0  0  0  0  0  0  0
  -26.1923  -26.7309   21.9314 N   0  0  0  0  0  0  0  0  0  0  0  0
  -24.6181  -14.8439   20.6105 N   0  0  0  0  0  0  0  0  0  0  0  0
  -27.8290  -24.4449   19.3470 N   0  0  0  0  0  0  0  0  0  0  0  0
  -27.6542  -27.6636   23.5449 N   0  0  0  0  0  0  0  0  0  0  0  0
  -23.5541  -28.5502   25.2178 N   0  0  0  0  0  0  0  0  0  0  0  0
  -28.0548  -22.3693   20.4439 N   0  0  0  0  0  0  0  0  0  0  0  0
  -24.2083  -18.3401   20.0284 N   0  0  0  0  0  0  0  0  0  0  0  0
  -22.9010  -12.1217   21.6589 N   0  0  0  0  0  0  0  0  0  0  0  0
  -23.6985   -9.0257   19.9718 N   0  3  0  0  0  0  0  0  0  0  0  0
  -31.4400  -17.5224   20.9249 N   0  3  0  0  0  0  0  0  0  0  0  0
  -25.8052  -28.8034   25.5743 O   0  0  0  0  0  0  0  0  0  0  0  0
  -25.5520  -17.1516   21.5131 O   0  0  0  0  0  0  0  0  0  0  0  0
  -22.2899  -14.7483   20.6914 O   0  0  0  0  0  0  0  0  0  0  0  0
  -24.8706  -10.8991   21.7133 O   0  0  0  0  0  0  0  0  0  0  0  0
  -29.3423  -22.8740   18.5813 O   0  0  0  0  0  0  0  0  0  0  0  0
  -18.6813  -27.1662   22.8993 O   0  0  0  0  0  0  0  0  0  0  0  0
  -30.7327  -14.0758   20.3362 O   0  0  0  0  0  0  0  0  0  1  0  0
  -16.2092  -31.8874   24.3144 F   0  0  0  0  0  0  0  0  0  0  0  0
  -16.9089  -28.4099   21.1804 F   0  0  0  0  0  0  0  0  0  0  0  0
  -28.8837  -18.9383   21.8161 S   0  0  0  0  0  0  0  0  0  0  0  0
  1  2  1  0  0  0  0
  1  5  2  0  0  0  0
  2  6  2  0  0  0  0
  3  8  2  0  0  0  0
  3 15  1  0  0  0  0
  4  9  1  0  0  0  0
  4 15  2  0  0  0  0
  5 17  1  0  0  0  0
  6 19  1  0  0  0  0
  7 10  2  0  0  0  0
  7 18  1  0  0  0  0
  8 21  1  0  0  0  0
  9 21  2  0  0  0  0
 10 22  1  0  0  0  0
 11 12  2  0  0  0  0
 11 23  1  0  0  0  0
 12 24  1  0  0  0  0
 13 20  1  0  0  0  0
 13 22  2  0  0  0  0
 14 24  2  0  0  0  0
 14 25  1  0  0  0  0
 15 26  1  0  0  0  0
 16 26  1  0  0  0  0
 16 27  2  0  0  0  0
 16 30  1  0  0  0  0
 17 19  2  0  0  0  0
 17 35  1  0  0  0  0
 18 20  2  0  0  0  0
 18 36  1  0  0  0  0
 19 44  1  0  0  0  0
 20 37  1  0  0  0  0
 21 79  1  0  0  0  0
 22 80  1  0  0  0  0
 23 25  2  0  0  0  0
 23 79  1  0  0  0  0
 24 81  1  0  0  0  0
 25 82  1  0  0  0  0
 26 61  2  0  0  0  0
 27 64  1  0  0  0  0
 27 67  1  0  0  0  0
 28 54  1  0  0  0  0
 28 62  2  0  0  0  0
 28 83  1  0  0  0  0
 29 62  1  0  0  0  0
 29 63  2  0  0  0  0
 29 69  1  0  0  0  0
 30 68  1  0  0  0  0
 30 74  2  0  0  0  0
 31 45  1  0  0  0  0
 31 70  1  0  0  0  0
 31 75  2  0  0  0  0
 32 56  1  0  0  0  0
 32 65  1  0  0  0  0
 32 76  2  0  0  0  0
 33 57  1  0  0  0  0
 33 71  1  0  0  0  0
 33 77  2  0  0  0  0
 34 66  1  0  0  0  0
 34 69  1  0  0  0  0
 34 78  2  0  0  0  0
 35 38  1  0  0  0  0
 36 45  1  0  0  0  0
 37 65  1  0  0  0  0
 38 40  1  0  0  0  0
 39 41  1  0  0  0  0
 39 42  1  0  0  0  0
 40 44  1  0  0  0  0
 41 46  1  0  0  0  0
 42 66  1  0  0  0  0
 43 46  1  0  0  0  0
 43 66  1  0  0  0  0
 44 70  1  0  0  0  0
 45 65  1  0  0  0  0
 46 64  1  0  0  0  0
 47 57  1  0  0  0  0
 48 58  1  0  0  0  0
 49 59  1  0  0  0  0
 50 60  1  0  0  0  0
 51 60  1  0  0  0  0
 52 60  1  0  0  0  0
 53 72  1  0  0  0  0
 54 73  1  0  0  0  0
 55 58  1  0  0  0  0
 55 59  1  0  0  0  0
 56 60  1  0  0  0  0
 56 71  1  0  0  0  0
 57 72  1  0  0  0  0
 58 73  1  0  0  0  0
 59 80  1  0  0  0  0
 61 64  1  0  0  0  0
 63 83  1  0  0  0  0
M  CHG  2  72   1  73   1
M  ISO  4  34 100  59 101  69 100  80 101
M  END
> <Batch ID>
0186

> <Smiles>
CNC(C)C(=O)NC(C(=O)N1Cc2cc([101O:1][101CH:1](C)CC(C)NCc3nc([100NH:0][100C:0](=O)N4CCCC(n5nc(-c6ccc(Oc7ccc(F)cc7F)cc6)c(C(N)=O)c5N)C4)ns3)ccc2CC1C(=O)NC1CCCc2ccccc21)C(C)(C)C

> <Shape>
0.233

> <Color>
0.076

> <Negative vol penalty>
0.000

$$$$

  -OEChem-04052305093D

 89 97  0     1  0  0  0  0  0999 V2000
  -32.2361  -27.7301   16.7466 C   0  0  0  0  0  0  0  0  0  0  0  0
  -30.9299  -27.4600   16.3546 C   0  0  0  0  0  0  0  0  0  0  0  0
  -26.5521  -12.6023   21.6954 C   0  0  0  0  0  0  0  0  0  0  0  0
  -25.9873  -13.8015   19.6754 C   0  0  0  0  0  0  0  0  0  0  0  0
  -32.6443  -27.4380   18.0463 C   0  0  0  0  0  0  0  0  0  0  0  0
  -30.0281  -26.9087   17.2655 C   0  0  0  0  0  0  0  0  0  0  0  0
  -25.3412  -26.5289   15.8192 C   0  0  0  0  0  0  0  0  0  0  0  0
  -25.2889  -12.0108   21.6974 C   0  0  0  0  0  0  0  0  0  0  0  0
  -24.7241  -13.2099   19.6774 C   0  0  0  0  0  0  0  0  0  0  0  0
  -24.9184  -25.5998   14.8696 C   0  0  0  0  0  0  0  0  0  0  0  0
  -23.7217   -9.4784   20.0963 C   0  0  0  0  0  0  0  0  0  0  0  0
  -23.6480   -8.1081   20.3462 C   0  0  0  0  0  0  0  0  0  0  0  0
  -23.9976  -24.2298   16.6287 C   0  0  0  0  0  0  0  0  0  0  0  0
  -22.2685   -8.5355   22.2830 C   0  0  0  0  0  0  0  0  0  0  0  0
  -26.9013  -13.4977   20.6844 C   0  0  0  0  0  0  0  0  0  0  0  0
  -29.3730  -13.6206   20.0653 C   0  0  0  0  0  0  0  0  0  0  0  0
  -31.7499  -26.8713   18.9693 C   0  0  0  0  0  0  0  0  0  0  0  0
  -25.1046  -26.3097   17.1840 C   0  0  0  0  0  0  0  0  0  0  0  0
  -30.4143  -26.6289   18.5888 C   0  0  0  0  0  0  0  0  0  0  0  0
  -24.4161  -25.1589   17.5934 C   0  0  0  0  0  0  0  0  0  0  0  0
  -24.3749  -12.3146   20.6885 C   0  0  0  0  0  0  0  0  0  0  0  0
  -24.2490  -24.4487   15.2745 C   0  0  0  0  0  0  0  0  0  0  0  0
  -23.0688  -10.3772   20.9399 C   0  0  0  0  0  0  0  0  0  0  0  0
  -22.9214   -7.6366   21.4395 C   0  0  0  0  0  0  0  0  0  0  0  0
  -22.3422   -9.9058   22.0332 C   0  0  0  0  0  0  0  0  0  0  0  0
  -28.2058  -14.1096   20.6821 C   0  0  0  0  0  0  0  0  0  0  0  0
  -29.6614  -21.4612   17.0566 C   0  0  0  0  0  0  0  0  0  0  0  0
  -29.0165  -21.5524   18.2722 C   0  0  0  0  0  0  0  0  0  0  0  0
  -30.3329  -14.5598   20.3534 C   0  0  0  0  0  0  0  0  0  0  0  0
  -27.5929  -21.3031   16.3451 C   0  0  0  0  0  0  0  0  0  0  0  0
  -29.5717  -12.4245   19.3001 C   0  0  0  0  0  0  0  0  0  0  0  0
  -26.9457  -25.9284   19.7468 C   0  0  0  0  0  0  0  0  0  0  0  0
  -24.1063  -25.9889   21.3141 C   0  0  0  0  0  0  0  0  0  0  0  0
  -26.3718  -21.0373   14.1599 C   0  0  0  0  0  0  0  0  0  0  0  0
  -20.7281  -25.5161   21.2086 C   0  0  0  0  0  0  0  0  0  0  0  0
  -30.0622  -20.3926   21.6788 C   0  0  0  0  0  0  0  0  0  0  0  0
  -32.2425  -26.5824   20.3654 C   0  0  0  0  0  0  0  0  0  0  0  0
  -25.5435  -27.3346   18.1937 C   0  0  0  0  0  0  0  0  0  0  0  0
  -24.1194  -24.8866   19.0447 C   0  0  0  0  0  0  0  0  0  0  0  0
  -31.3530  -25.5981   21.1179 C   0  0  0  0  0  0  0  0  0  0  0  0
  -31.5161  -17.8131   23.6560 C   0  0  0  0  0  0  0  0  0  0  0  0
  -29.8974  -26.0276   21.0124 C   0  0  0  0  0  0  0  0  0  0  0  0
  -30.9379  -16.5273   23.0624 C   0  0  0  0  0  0  0  0  0  0  0  0
  -30.4953  -18.9488   23.6446 C   0  0  0  0  0  0  0  0  0  0  0  0
  -29.3105  -17.9374   21.7349 C   0  0  0  0  0  0  0  0  0  0  0  0
  -29.4245  -26.0011   19.5534 C   0  0  1  0  0  0  0  0  0  0  0  0
  -25.7030  -26.7597   19.5978 C   0  0  1  0  0  0  0  0  0  0  0  0
  -30.3208  -16.7790   21.6734 C   0  0  2  0  0  0  0  0  0  0  0  0
  -18.6802  -25.6064   22.6561 C   0  0  0  0  0  0  0  0  0  0  0  0
  -25.3633  -21.9038   11.3192 C   0  0  0  0  0  0  0  0  0  0  0  0
  -31.8524  -20.3411   17.5958 C   0  0  0  0  0  0  0  0  0  0  0  0
  -31.7461  -22.8443   17.3534 C   0  0  0  0  0  0  0  0  0  0  0  0
  -31.6000  -21.3786   15.3504 C   0  0  0  0  0  0  0  0  0  0  0  0
  -24.9041  -23.3412   22.6038 C   0  0  0  0  0  0  0  0  0  0  0  0
  -22.5093  -23.0187   23.2589 C   0  0  0  0  0  0  0  0  0  0  0  0
  -23.7936  -24.9623   24.1508 C   0  0  0  0  0  0  0  0  0  0  0  0
  -19.4949  -27.6211   19.5330 C   0  0  0  0  0  0  0  0  0  0  0  0
  -29.5686  -21.7076   19.6328 C   0  0  0  0  0  0  0  0  0  0  0  0
  -24.6118  -23.4279   13.1573 C   0  0  0  0  0  0  0  0  0  1  0  0
  -23.0885  -24.9517   21.7229 C   0  0  1  0  0  0  0  0  0  0  0  0
  -24.9291  -20.9306   13.6703 C   0  0  1  0  0  0  0  0  0  0  0  0
  -19.5751  -26.3748   21.6961 C   0  0  2  0  0  0  0  0  0  0  0  0
  -24.5447  -21.9927   12.6120 C   0  0  2  0  0  0  0  0  0  0  0  0
  -31.1223  -21.5026   16.8419 C   0  0  0  0  0  0  0  0  0  0  0  0
  -23.5810  -24.0724   22.9068 C   0  0  0  0  0  0  0  0  0  0  0  0
  -28.4039  -15.2692   21.3145 N   0  0  0  0  0  0  0  0  0  0  0  0
  -28.8468  -21.3178   15.9504 N   0  0  0  0  0  0  0  0  0  0  0  0
  -29.7068  -15.5168   21.0967 N   0  0  0  0  0  0  0  0  0  0  0  0
  -24.5743  -25.9154   19.9945 N   0  0  0  0  0  0  0  0  0  0  0  0
  -29.9495  -19.1370   22.2983 N   0  0  0  0  0  0  0  0  0  0  0  0
  -31.6430  -14.6522   20.0411 N   0  0  0  0  0  0  0  0  0  0  0  0
  -28.4788  -11.5703   19.0995 N   0  0  0  0  0  0  0  0  0  0  0  0
  -26.4350  -21.1753   15.5420 N   0  0  0  0  0  0  0  0  0  0  0  0
  -28.1153  -26.6103   19.4704 N   0  0  0  0  0  0  0  0  0  0  0  0
  -21.8516  -25.6772   21.9916 N   0  0  0  0  0  0  0  0  0  0  0  0
  -29.5242  -20.4834   20.4009 N   0  0  0  0  0  0  0  0  0  0  0  0
  -24.7043  -19.5627   13.1073 N   0  3  0  0  0  0  0  0  0  0  0  0
  -18.7465  -26.8317   20.5448 N   0  3  0  0  0  0  0  0  0  0  0  0
  -30.6894  -12.1138   18.8228 O   0  0  0  0  0  0  0  0  0  0  0  0
  -26.8506  -24.7555   20.0888 O   0  0  0  0  0  0  0  0  0  0  0  0
  -24.4673  -26.8376   22.1333 O   0  0  0  0  0  0  0  0  0  0  0  0
  -27.3149  -21.0004   13.3741 O   0  0  0  0  0  0  0  0  0  0  0  0
  -20.6397  -24.7738   20.2330 O   0  0  0  0  0  0  0  0  0  0  0  0
  -30.6071  -21.3595   22.2221 O   0  0  0  0  0  0  0  0  0  0  0  0
  -23.1423  -11.7373   20.6900 O   0  0  0  0  0  0  0  0  0  0  0  0
  -23.8358  -23.5399   14.3496 O   0  0  0  0  0  0  0  0  0  1  0  0
  -22.8494   -6.3206   21.6785 F   0  0  0  0  0  0  0  0  0  0  0  0
  -21.7119  -10.7644   22.8464 F   0  0  0  0  0  0  0  0  0  0  0  0
  -27.3210  -21.4578   18.0325 S   0  0  0  0  0  0  0  0  0  0  0  0
  1  2  1  0  0  0  0
  1  5  2  0  0  0  0
  2  6  2  0  0  0  0
  3  8  2  0  0  0  0
  3 15  1  0  0  0  0
  4  9  1  0  0  0  0
  4 15  2  0  0  0  0
  5 17  1  0  0  0  0
  6 19  1  0  0  0  0
  7 10  2  0  0  0  0
  7 18  1  0  0  0  0
  8 21  1  0  0  0  0
  9 21  2  0  0  0  0
 10 22  1  0  0  0  0
 11 12  2  0  0  0  0
 11 23  1  0  0  0  0
 12 24  1  0  0  0  0
 13 20  1  0  0  0  0
 13 22  2  0  0  0  0
 14 24  2  0  0  0  0
 14 25  1  0  0  0  0
 15 26  1  0  0  0  0
 16 26  1  0  0  0  0
 16 29  2  0  0  0  0
 16 31  1  0  0  0  0
 17 19  2  0  0  0  0
 17 37  1  0  0  0  0
 18 20  2  0  0  0  0
 18 38  1  0  0  0  0
 19 46  1  0  0  0  0
 20 39  1  0  0  0  0
 21 85  1  0  0  0  0
 22 86  1  0  0  0  0
 23 25  2  0  0  0  0
 23 85  1  0  0  0  0
 24 87  1  0  0  0  0
 25 88  1  0  0  0  0
 26 66  2  0  0  0  0
 27 28  2  0  0  0  0
 27 64  1  0  0  0  0
 27 67  1  0  0  0  0
 28 58  1  0  0  0  0
 28 89  1  0  0  0  0
 29 68  1  0  0  0  0
 29 71  1  0  0  0  0
 30 67  2  0  0  0  0
 30 73  1  0  0  0  0
 30 89  1  0  0  0  0
 31 72  1  0  0  0  0
 31 79  2  0  0  0  0
 32 47  1  0  0  0  0
 32 74  1  0  0  0  0
 32 80  2  0  0  0  0
 33 60  1  0  0  0  0
 33 69  1  0  0  0  0
 33 81  2  0  0  0  0
 34 61  1  0  0  0  0
 34 73  1  0  0  0  0
 34 82  2  0  0  0  0
 35 62  1  0  0  0  0
 35 75  1  0  0  0  0
 35 83  2  0  0  0  0
 36 70  1  0  0  0  0
 36 76  1  0  0  0  0
 36 84  2  0  0  0  0
 37 40  1  0  0  0  0
 38 47  1  0  0  0  0
 39 69  1  0  0  0  0
 40 42  1  0  0  0  0
 41 43  1  0  0  0  0
 41 44  1  0  0  0  0
 42 46  1  0  0  0  0
 43 48  1  0  0  0  0
 44 70  1  0  0  0  0
 45 48  1  0  0  0  0
 45 70  1  0  0  0  0
 46 74  1  0  0  0  0
 47 69  1  0  0  0  0
 48 68  1  0  0  0  0
 49 62  1  0  0  0  0
 50 63  1  0  0  0  0
 51 64  1  0  0  0  0
 52 64  1  0  0  0  0
 53 64  1  0  0  0  0
 54 65  1  0  0  0  0
 55 65  1  0  0  0  0
 56 65  1  0  0  0  0
 57 78  1  0  0  0  0
 58 76  1  0  0  0  0
 59 63  1  0  0  0  0
 59 86  1  0  0  0  0
 60 65  1  0  0  0  0
 60 75  1  0  0  0  0
 61 63  1  0  0  0  0
 61 77  1  0  0  0  0
 62 78  1  0  0  0  0
 66 68  1  0  0  0  0
M  CHG  2  77   1  78   1
M  ISO  4  36 100  59 101  76 100  86 101
M  END
> <Batch ID>
0186

> <Smiles>
CNC(C)C(=O)NC(C(=O)N1Cc2cc([101O:1][101CH2:1]C(C)C(N)C(=O)Nc3nc(C(C)(C)C)c(C[100NH:0][100C:0](=O)N4CCCC(n5nc(-c6ccc(Oc7ccc(F)cc7F)cc6)c(C(N)=O)c5N)C4)s3)ccc2CC1C(=O)NC1CCCc2ccccc21)C(C)(C)C

> <Shape>
0.225

> <Color>
0.047

> <Negative vol penalty>
0.000

$$$$

  -OEChem-04052305093D

 84 92  0     1  0  0  0  0  0999 V2000
  -23.4863  -30.9381   18.4896 C   0  0  0  0  0  0  0  0  0  0  0  0
  -23.5799  -29.5658   18.2818 C   0  0  0  0  0  0  0  0  0  0  0  0
  -23.0644   -9.8466   19.9572 C   0  0  0  0  0  0  0  0  0  0  0  0
  -23.8003   -9.9058   22.2577 C   0  0  0  0  0  0  0  0  0  0  0  0
  -24.5899  -31.6473   18.9621 C   0  0  0  0  0  0  0  0  0  0  0  0
  -24.7775  -28.9019   18.5452 C   0  0  0  0  0  0  0  0  0  0  0  0
  -27.2753  -22.5920   20.8393 C   0  0  0  0  0  0  0  0  0  0  0  0
  -22.3395   -8.6840   20.2190 C   0  0  0  0  0  0  0  0  0  0  0  0
  -23.0753   -8.7432   22.5195 C   0  0  0  0  0  0  0  0  0  0  0  0
  -28.1744  -21.5917   20.4722 C   0  0  0  0  0  0  0  0  0  0  0  0
  -23.4336   -5.4185   22.0209 C   0  0  0  0  0  0  0  0  0  0  0  0
  -24.0605   -4.4169   22.7621 C   0  0  0  0  0  0  0  0  0  0  0  0
  -29.9911  -22.9066   21.3608 C   0  0  0  0  0  0  0  0  0  0  0  0
  -22.3386   -4.5869   24.4483 C   0  0  0  0  0  0  0  0  0  0  0  0
  -23.7949  -10.4575   20.9766 C   0  0  0  0  0  0  0  0  0  0  0  0
  -24.0910  -12.9862   20.8176 C   0  0  0  0  0  0  0  0  0  0  0  0
  -25.7987  -30.9902   19.2407 C   0  0  0  0  0  0  0  0  0  0  0  0
  -27.7296  -23.7640   21.4612 C   0  0  0  0  0  0  0  0  0  0  0  0
  -25.8987  -29.6032   19.0206 C   0  0  0  0  0  0  0  0  0  0  0  0
  -29.0955  -23.9192   21.7371 C   0  0  0  0  0  0  0  0  0  0  0  0
  -22.3449   -8.1323   21.5001 C   0  0  0  0  0  0  0  0  0  0  0  0
  -29.5328  -21.7501   20.7303 C   0  0  0  0  0  0  0  0  0  0  0  0
  -22.2591   -6.0044   22.4934 C   0  0  0  0  0  0  0  0  0  0  0  0
  -23.5130   -4.0011   23.9758 C   0  0  0  0  0  0  0  0  0  0  0  0
  -21.7116   -5.5886   23.7071 C   0  0  0  0  0  0  0  0  0  0  0  0
  -24.5443  -11.6581   20.7066 C   0  0  0  0  0  0  0  0  0  0  0  0
  -31.6094  -18.9040   22.2068 C   0  0  0  0  0  0  0  0  0  0  0  0
  -25.1728  -13.7499   20.4528 C   0  0  0  0  0  0  0  0  0  0  0  0
  -30.4934  -19.2619   22.9337 C   0  0  0  0  0  0  0  0  0  0  0  0
  -30.4087  -17.0985   21.8779 C   0  0  0  0  0  0  0  0  0  0  0  0
  -22.8069  -13.4850   21.2151 C   0  0  0  0  0  0  0  0  0  0  0  0
  -27.6890  -26.8554   20.7229 C   0  0  0  0  0  0  0  0  0  0  0  0
  -28.8968  -27.1867   23.7152 C   0  0  0  0  0  0  0  0  0  0  0  0
  -30.5978  -25.7908   26.3238 C   0  0  0  0  0  0  0  0  0  0  0  0
  -30.6166  -14.9003   20.6650 C   0  0  0  0  0  0  0  0  0  0  0  0
  -26.9786  -31.8069   19.7049 C   0  0  0  0  0  0  0  0  0  0  0  0
  -26.7438  -24.8219   21.8751 C   0  0  0  0  0  0  0  0  0  0  0  0
  -29.6316  -25.1496   22.4207 C   0  0  0  0  0  0  0  0  0  0  0  0
  -28.0978  -30.9674   20.3157 C   0  0  0  0  0  0  0  0  0  0  0  0
  -29.5716  -12.4272   18.3263 C   0  0  0  0  0  0  0  0  0  0  0  0
  -28.3985  -29.7578   19.4364 C   0  0  0  0  0  0  0  0  0  0  0  0
  -28.1333  -12.1159   18.7462 C   0  0  0  0  0  0  0  0  0  0  0  0
  -30.4699  -12.6929   19.5331 C   0  0  0  0  0  0  0  0  0  0  0  0
  -28.5356  -13.4043   20.8828 C   0  0  0  0  0  0  0  0  0  0  0  0
  -27.1731  -28.8434   19.3183 C   0  0  1  0  0  0  0  0  0  0  0  0
  -27.3790  -26.1993   22.0386 C   0  0  1  0  0  0  0  0  0  0  0  0
  -27.5784  -13.1935   19.6984 C   0  0  2  0  0  0  0  0  0  0  0  0
  -31.4641  -26.3195   28.6189 C   0  0  0  0  0  0  0  0  0  0  0  0
  -33.4829  -20.0121   23.4135 C   0  0  0  0  0  0  0  0  0  0  0  0
  -31.1787  -28.7928   22.4812 C   0  0  0  0  0  0  0  0  0  0  0  0
  -32.4604  -28.4742   24.6081 C   0  0  0  0  0  0  0  0  0  0  0  0
  -30.2971  -29.7160   24.6317 C   0  0  0  0  0  0  0  0  0  0  0  0
  -32.2745  -20.1828   19.0065 C   0  0  0  0  0  0  0  0  0  0  0  0
  -31.6622  -22.5728   19.3982 C   0  0  0  0  0  0  0  0  0  0  0  0
  -28.9326  -23.6821   27.5646 C   0  0  0  0  0  0  0  0  0  0  0  0
  -32.6256  -21.1199   21.3092 C   0  0  0  0  0  0  0  0  0  0  0  0
  -30.2832  -27.2081   24.3121 C   0  0  1  0  0  0  0  0  0  0  0  0
  -30.3050  -25.7542   27.8129 C   0  0  2  0  0  0  0  0  0  0  0  0
  -32.8748  -19.7466   22.0164 C   0  0  2  0  0  0  0  0  0  0  0  0
  -31.0453  -28.5253   23.9936 C   0  0  0  0  0  0  0  0  0  0  0  0
  -31.7372  -21.1873   20.0376 C   0  0  0  0  0  0  0  0  0  1  0  0
  -25.8150  -11.5790   20.3027 N   0  0  0  0  0  0  0  0  0  0  0  0
  -31.5629  -17.6636   21.6010 N   0  0  0  0  0  0  0  0  0  0  0  0
  -26.1694  -12.8671   20.1567 N   0  0  0  0  0  0  0  0  0  0  0  0
  -28.6289  -26.1585   22.8003 N   0  0  0  0  0  0  0  0  0  0  0  0
  -29.8828  -13.7275   20.3875 N   0  0  0  0  0  0  0  0  0  0  0  0
  -25.3592  -15.0837   20.3596 N   0  0  0  0  0  0  0  0  0  0  0  0
  -30.2765  -20.4090   23.6221 N   0  0  0  0  0  0  0  0  0  0  0  0
  -21.8086  -12.5628   21.5573 N   0  0  0  0  0  0  0  0  0  0  0  0
  -29.9437  -15.8265   21.4613 N   0  0  0  0  0  0  0  0  0  0  0  0
  -27.0197  -28.0467   20.5167 N   0  0  0  0  0  0  0  0  0  0  0  0
  -30.1182  -26.9428   25.7372 N   0  0  0  0  0  0  0  0  0  0  0  0
  -33.9719  -19.0457   21.2512 N   0  3  0  0  0  0  0  0  0  0  0  0
  -30.0617  -24.3531   28.2587 N   0  3  0  0  0  0  0  0  0  0  0  0
  -22.5473  -14.7118   21.2494 O   0  0  0  0  0  0  0  0  0  0  0  0
  -28.4781  -26.3212   19.9524 O   0  0  0  0  0  0  0  0  0  0  0  0
  -28.0793  -28.0462   24.0537 O   0  0  0  0  0  0  0  0  0  0  0  0
  -31.1956  -24.8895   25.7402 O   0  0  0  0  0  0  0  0  0  0  0  0
  -31.7471  -15.0823   20.2060 O   0  0  0  0  0  0  0  0  0  0  0  0
  -21.6375   -6.9981   21.7560 O   0  0  0  0  0  0  0  0  0  0  0  0
  -30.4125  -20.7755   20.3724 O   0  0  0  0  0  0  0  0  0  1  0  0
  -24.1143   -3.0382   24.6867 F   0  0  0  0  0  0  0  0  0  0  0  0
  -20.5830   -6.1468   24.1656 F   0  0  0  0  0  0  0  0  0  0  0  0
  -29.3313  -18.0027   22.8610 S   0  0  0  0  0  0  0  0  0  0  0  0
  1  2  1  0  0  0  0
  1  5  2  0  0  0  0
  2  6  2  0  0  0  0
  3  8  2  0  0  0  0
  3 15  1  0  0  0  0
  4  9  1  0  0  0  0
  4 15  2  0  0  0  0
  5 17  1  0  0  0  0
  6 19  1  0  0  0  0
  7 10  2  0  0  0  0
  7 18  1  0  0  0  0
  8 21  1  0  0  0  0
  9 21  2  0  0  0  0
 10 22  1  0  0  0  0
 11 12  2  0  0  0  0
 11 23  1  0  0  0  0
 12 24  1  0  0  0  0
 13 20  1  0  0  0  0
 13 22  2  0  0  0  0
 14 24  2  0  0  0  0
 14 25  1  0  0  0  0
 15 26  1  0  0  0  0
 16 26  1  0  0  0  0
 16 28  2  0  0  0  0
 16 31  1  0  0  0  0
 17 19  2  0  0  0  0
 17 36  1  0  0  0  0
 18 20  2  0  0  0  0
 18 37  1  0  0  0  0
 19 45  1  0  0  0  0
 20 38  1  0  0  0  0
 21 80  1  0  0  0  0
 22 81  1  0  0  0  0
 23 25  2  0  0  0  0
 23 80  1  0  0  0  0
 24 82  1  0  0  0  0
 25 83  1  0  0  0  0
 26 62  2  0  0  0  0
 27 29  2  0  0  0  0
 27 59  1  0  0  0  0
 27 63  1  0  0  0  0
 28 64  1  0  0  0  0
 28 67  1  0  0  0  0
 29 68  1  0  0  0  0
 29 84  1  0  0  0  0
 30 63  2  0  0  0  0
 30 70  1  0  0  0  0
 30 84  1  0  0  0  0
 31 69  1  0  0  0  0
 31 75  2  0  0  0  0
 32 46  1  0  0  0  0
 32 71  1  0  0  0  0
 32 76  2  0  0  0  0
 33 57  1  0  0  0  0
 33 65  1  0  0  0  0
 33 77  2  0  0  0  0
 34 58  1  0  0  0  0
 34 72  1  0  0  0  0
 34 78  2  0  0  0  0
 35 66  1  0  0  0  0
 35 70  1  0  0  0  0
 35 79  2  0  0  0  0
 36 39  1  0  0  0  0
 37 46  1  0  0  0  0
 38 65  1  0  0  0  0
 39 41  1  0  0  0  0
 40 42  1  0  0  0  0
 40 43  1  0  0  0  0
 41 45  1  0  0  0  0
 42 47  1  0  0  0  0
 43 66  1  0  0  0  0
 44 47  1  0  0  0  0
 44 66  1  0  0  0  0
 45 71  1  0  0  0  0
 46 65  1  0  0  0  0
 47 64  1  0  0  0  0
 48 58  1  0  0  0  0
 49 59  1  0  0  0  0
 50 60  1  0  0  0  0
 51 60  1  0  0  0  0
 52 60  1  0  0  0  0
 53 61  1  0  0  0  0
 54 61  1  0  0  0  0
 55 74  1  0  0  0  0
 56 59  1  0  0  0  0
 56 61  1  0  0  0  0
 57 60  1  0  0  0  0
 57 72  1  0  0  0  0
 58 74  1  0  0  0  0
 59 73  1  0  0  0  0
 61 81  1  0  0  0  0
 62 64  1  0  0  0  0
M  CHG  2  73   1  74   1
M  ISO  4  35 100  61 101  70 100  81 101
M  END
> <Batch ID>
0186

> <Smiles>
CNC(C)C(=O)NC(C(=O)N1Cc2cc([101O:1][101C:1](C)(C)CC(C)(N)c3nc([100NH:0][100C:0](=O)N4CCCC(n5nc(-c6ccc(Oc7ccc(F)cc7F)cc6)c(C(N)=O)c5N)C4)sc3N)ccc2CC1C(=O)NC1CCCc2ccccc21)C(C)(C)C

> <Shape>
0.254

> <Color>
0.204

> <Negative vol penalty>
0.000

$$$$

  -OEChem-04052305093D

 88 96  0     1  0  0  0  0  0999 V2000
  -30.7078  -25.7372   17.2898 C   0  0  0  0  0  0  0  0  0  0  0  0
  -29.4287  -26.2691   17.1721 C   0  0  0  0  0  0  0  0  0  0  0  0
  -25.7550  -13.3656   19.0957 C   0  0  0  0  0  0  0  0  0  0  0  0
  -25.0042  -14.5381   21.0702 C   0  0  0  0  0  0  0  0  0  0  0  0
  -31.3157  -25.6641   18.5413 C   0  0  0  0  0  0  0  0  0  0  0  0
  -28.7618  -26.7389   18.3041 C   0  0  0  0  0  0  0  0  0  0  0  0
  -23.1068  -28.9133   18.9525 C   0  0  0  0  0  0  0  0  0  0  0  0
  -25.7981  -12.1741   19.8196 C   0  0  0  0  0  0  0  0  0  0  0  0
  -25.0472  -13.3465   21.7941 C   0  0  0  0  0  0  0  0  0  0  0  0
  -21.8422  -28.4154   19.2633 C   0  0  0  0  0  0  0  0  0  0  0  0
  -24.6133  -10.5457   24.0712 C   0  0  0  0  0  0  0  0  0  0  0  0
  -23.5333  -10.2525   24.9038 C   0  0  0  0  0  0  0  0  0  0  0  0
  -22.1605  -29.0608   21.5658 C   0  0  0  0  0  0  0  0  0  0  0  0
  -22.0518  -10.2910   22.9957 C   0  0  0  0  0  0  0  0  0  0  0  0
  -25.3581  -14.5476   19.7210 C   0  0  0  0  0  0  0  0  0  0  0  0
  -24.2219  -16.2963   18.2517 C   0  0  0  0  0  0  0  0  0  0  0  0
  -30.6503  -26.1221   19.6904 C   0  0  0  0  0  0  0  0  0  0  0  0
  -23.9135  -29.4798   19.9499 C   0  0  0  0  0  0  0  0  0  0  0  0
  -29.3680  -26.6958   19.5727 C   0  0  0  0  0  0  0  0  0  0  0  0
  -23.4339  -29.5675   21.2646 C   0  0  0  0  0  0  0  0  0  0  0  0
  -25.4442  -12.1645   21.1688 C   0  0  0  0  0  0  0  0  0  0  0  0
  -21.3700  -28.4865   20.5706 C   0  0  0  0  0  0  0  0  0  0  0  0
  -24.4125  -10.7117   22.7009 C   0  0  0  0  0  0  0  0  0  0  0  0
  -22.2526  -10.1251   24.3661 C   0  0  0  0  0  0  0  0  0  0  0  0
  -23.1318  -10.5843   22.1631 C   0  0  0  0  0  0  0  0  0  0  0  0
  -25.3139  -15.7789   18.9739 C   0  0  0  0  0  0  0  0  0  0  0  0
  -24.9114  -23.4239   21.9812 C   0  0  0  0  0  0  0  0  0  0  0  0
  -25.3438  -23.7496   20.7127 C   0  0  0  0  0  0  0  0  0  0  0  0
  -24.6859  -17.4779   17.7274 C   0  0  0  0  0  0  0  0  0  0  0  0
  -23.0250  -24.2050   21.1802 C   0  0  0  0  0  0  0  0  0  0  0  0
  -22.9058  -15.7570   18.0709 C   0  0  0  0  0  0  0  0  0  0  0  0
  -26.7530  -28.7880   21.1999 C   0  0  0  0  0  0  0  0  0  0  0  0
  -26.3086  -31.5898   22.7730 C   0  0  0  0  0  0  0  0  0  0  0  0
  -20.6568  -24.5655   21.9593 C   0  0  0  0  0  0  0  0  0  0  0  0
  -24.1276  -33.9250   23.9716 C   0  0  0  0  0  0  0  0  0  0  0  0
  -28.1647  -21.9047   19.0751 C   0  0  0  0  0  0  0  0  0  0  0  0
  -31.3581  -26.0262   21.0190 C   0  0  0  0  0  0  0  0  0  0  0  0
  -25.2645  -30.0366   19.5932 C   0  0  0  0  0  0  0  0  0  0  0  0
  -24.2527  -30.1845   22.3679 C   0  0  0  0  0  0  0  0  0  0  0  0
  -30.4087  -26.1358   22.2077 C   0  0  0  0  0  0  0  0  0  0  0  0
  -29.1632  -19.3569   16.7972 C   0  0  0  0  0  0  0  0  0  0  0  0
  -29.4980  -27.3424   22.0359 C   0  0  0  0  0  0  0  0  0  0  0  0
  -28.1709  -18.2227   17.0591 C   0  0  0  0  0  0  0  0  0  0  0  0
  -29.5320  -20.0925   18.0836 C   0  0  0  0  0  0  0  0  0  0  0  0
  -27.3911  -19.4561   19.1253 C   0  0  0  0  0  0  0  0  0  0  0  0
  -28.6112  -27.1850   20.7943 C   0  0  1  0  0  0  0  0  0  0  0  0
  -26.2083  -30.1265   20.7884 C   0  0  1  0  0  0  0  0  0  0  0  0
  -26.9460  -18.7206   17.8497 C   0  0  2  0  0  0  0  0  0  0  0  0
  -25.2379  -21.4349   23.4948 C   0  0  0  0  0  0  0  0  0  0  0  0
  -25.8535  -23.7441   24.2972 C   0  0  0  0  0  0  0  0  0  0  0  0
  -18.2821  -24.0189   21.3186 C   0  0  0  0  0  0  0  0  0  0  0  0
  -24.0591  -36.0853   25.2468 C   0  0  0  0  0  0  0  0  0  0  0  0
  -17.5519  -26.9530   21.7011 C   0  0  0  0  0  0  0  0  0  0  0  0
  -26.8336  -30.0721   25.3674 C   0  0  0  0  0  0  0  0  0  0  0  0
  -25.8357  -31.9996   26.6152 C   0  0  0  0  0  0  0  0  0  0  0  0
  -27.8955  -32.3332   25.2483 C   0  0  0  0  0  0  0  0  0  0  0  0
  -22.8813  -35.3593   21.7026 C   0  0  0  0  0  0  0  0  0  0  0  0
  -26.6785  -23.6092   20.0973 C   0  0  0  0  0  0  0  0  0  0  0  0
  -19.9477  -27.4919   22.1966 C   0  0  0  0  0  0  0  0  0  1  0  0
  -25.7345  -22.8314   23.0551 C   0  0  0  0  0  0  0  0  0  0  0  0
  -25.6774  -31.9911   24.0842 C   0  0  1  0  0  0  0  0  0  0  0  0
  -19.3403  -25.1229   21.3933 C   0  0  1  0  0  0  0  0  0  0  0  0
  -24.1181  -35.4397   23.8711 C   0  0  2  0  0  0  0  0  0  0  0  0
  -18.8868  -26.3807   22.1897 C   0  0  2  0  0  0  0  0  0  0  0  0
  -26.5457  -31.5856   25.3086 C   0  0  0  0  0  0  0  0  0  0  0  0
  -26.3906  -16.5672   18.9158 N   0  0  0  0  0  0  0  0  0  0  0  0
  -23.5821  -23.6848   22.2512 N   0  0  0  0  0  0  0  0  0  0  0  0
  -25.9774  -17.5919   18.1508 N   0  0  0  0  0  0  0  0  0  0  0  0
  -25.5696  -30.7091   21.9703 N   0  0  0  0  0  0  0  0  0  0  0  0
  -28.3261  -20.5399   18.7847 N   0  0  0  0  0  0  0  0  0  0  0  0
  -24.1111  -18.4202   16.9502 N   0  0  0  0  0  0  0  0  0  0  0  0
  -22.5960  -14.5329   18.6791 N   0  0  0  0  0  0  0  0  0  0  0  0
  -21.6815  -24.6191   21.0187 N   0  0  0  0  0  0  0  0  0  0  0  0
  -27.9179  -28.4302   20.5483 N   0  0  0  0  0  0  0  0  0  0  0  0
  -25.4115  -33.4224   23.9881 N   0  0  0  0  0  0  0  0  0  0  0  0
  -26.9905  -22.2444   19.7358 N   0  0  0  0  0  0  0  0  0  0  0  0
  -22.9381  -35.8993   23.0854 N   0  3  0  0  0  0  0  0  0  0  0  0
  -22.0356  -16.3352   17.3767 O   0  0  0  0  0  0  0  0  0  0  0  0
  -26.1611  -28.1292   22.0468 O   0  0  0  0  0  0  0  0  0  0  0  0
  -27.4133  -32.0466   22.4687 O   0  0  0  0  0  0  0  0  0  0  0  0
  -20.7333  -24.1454   23.1105 O   0  0  0  0  0  0  0  0  0  0  0  0
  -23.0991  -33.2551   24.0334 O   0  0  0  0  0  0  0  0  0  0  0  0
  -29.0024  -22.7580   18.7635 O   0  0  0  0  0  0  0  0  0  0  0  0
  -25.4859  -11.0020   21.8754 O   0  0  0  0  0  0  0  0  0  0  0  0
  -20.1362  -28.0007   20.8767 O   0  0  0  0  0  0  0  0  0  1  0  0
  -21.2158   -9.8420   25.1656 F   0  0  0  0  0  0  0  0  0  0  0  0
  -22.9329  -10.7415   20.8472 F   0  0  0  0  0  0  0  0  0  0  0  0
  -24.0411  -24.4081   19.8122 S   0  0  0  0  0  0  0  0  0  0  0  0
  1  2  1  0  0  0  0
  1  5  2  0  0  0  0
  2  6  2  0  0  0  0
  3  8  2  0  0  0  0
  3 15  1  0  0  0  0
  4  9  1  0  0  0  0
  4 15  2  0  0  0  0
  5 17  1  0  0  0  0
  6 19  1  0  0  0  0
  7 10  2  0  0  0  0
  7 18  1  0  0  0  0
  8 21  1  0  0  0  0
  9 21  2  0  0  0  0
 10 22  1  0  0  0  0
 11 12  2  0  0  0  0
 11 23  1  0  0  0  0
 12 24  1  0  0  0  0
 13 20  1  0  0  0  0
 13 22  2  0  0  0  0
 14 24  2  0  0  0  0
 14 25  1  0  0  0  0
 15 26  1  0  0  0  0
 16 26  1  0  0  0  0
 16 29  2  0  0  0  0
 16 31  1  0  0  0  0
 17 19  2  0  0  0  0
 17 37  1  0  0  0  0
 18 20  2  0  0  0  0
 18 38  1  0  0  0  0
 19 46  1  0  0  0  0
 20 39  1  0  0  0  0
 21 84  1  0  0  0  0
 22 85  1  0  0  0  0
 23 25  2  0  0  0  0
 23 84  1  0  0  0  0
 24 86  1  0  0  0  0
 25 87  1  0  0  0  0
 26 66  2  0  0  0  0
 27 28  2  0  0  0  0
 27 60  1  0  0  0  0
 27 67  1  0  0  0  0
 28 58  1  0  0  0  0
 28 88  1  0  0  0  0
 29 68  1  0  0  0  0
 29 71  1  0  0  0  0
 30 67  2  0  0  0  0
 30 73  1  0  0  0  0
 30 88  1  0  0  0  0
 31 72  1  0  0  0  0
 31 78  2  0  0  0  0
 32 47  1  0  0  0  0
 32 74  1  0  0  0  0
 32 79  2  0  0  0  0
 33 61  1  0  0  0  0
 33 69  1  0  0  0  0
 33 80  2  0  0  0  0
 34 62  1  0  0  0  0
 34 73  1  0  0  0  0
 34 81  2  0  0  0  0
 35 63  1  0  0  0  0
 35 75  1  0  0  0  0
 35 82  2  0  0  0  0
 36 70  1  0  0  0  0
 36 76  1  0  0  0  0
 36 83  2  0  0  0  0
 37 40  1  0  0  0  0
 38 47  1  0  0  0  0
 39 69  1  0  0  0  0
 40 42  1  0  0  0  0
 41 43  1  0  0  0  0
 41 44  1  0  0  0  0
 42 46  1  0  0  0  0
 43 48  1  0  0  0  0
 44 70  1  0  0  0  0
 45 48  1  0  0  0  0
 45 70  1  0  0  0  0
 46 74  1  0  0  0  0
 47 69  1  0  0  0  0
 48 68  1  0  0  0  0
 49 60  1  0  0  0  0
 50 60  1  0  0  0  0
 51 62  1  0  0  0  0
 52 63  1  0  0  0  0
 53 64  1  0  0  0  0
 54 65  1  0  0  0  0
 55 65  1  0  0  0  0
 56 65  1  0  0  0  0
 57 77  1  0  0  0  0
 58 76  1  0  0  0  0
 59 64  1  0  0  0  0
 59 85  1  0  0  0  0
 61 65  1  0  0  0  0
 61 75  1  0  0  0  0
 62 64  1  0  0  0  0
 63 77  1  0  0  0  0
 66 68  1  0  0  0  0
M  CHG  1  77   1
M  ISO  4  36 100  59 101  76 100  85 101
M  END
> <Batch ID>
0186

> <Smiles>
CNC(C)C(=O)NC(C(=O)N1Cc2cc([101O:1][101CH2:1]C(C)C(C)C(=O)Nc3nc(C(C)C)c(C[100NH:0][100C:0](=O)N4CCCC(n5nc(-c6ccc(Oc7ccc(F)cc7F)cc6)c(C(N)=O)c5N)C4)s3)ccc2CC1C(=O)NC1CCCc2ccccc21)C(C)(C)C

> <Shape>
0.283

> <Color>
0.081

> <Negative vol penalty>
0.000

$$$$

  -OEChem-04052305093D

 83 91  0     1  0  0  0  0  0999 V2000
  -20.3777  -29.4860   20.0997 C   0  0  0  0  0  0  0  0  0  0  0  0
  -20.9736  -28.8683   21.1946 C   0  0  0  0  0  0  0  0  0  0  0  0
  -23.0466   -9.8824   19.9333 C   0  0  0  0  0  0  0  0  0  0  0  0
  -23.8186   -9.8525   22.2224 C   0  0  0  0  0  0  0  0  0  0  0  0
  -20.2597  -28.7991   18.8921 C   0  0  0  0  0  0  0  0  0  0  0  0
  -21.4509  -27.5628   21.0828 C   0  0  0  0  0  0  0  0  0  0  0  0
  -26.3806  -25.1966   23.8405 C   0  0  0  0  0  0  0  0  0  0  0  0
  -22.2897   -8.7356   20.1735 C   0  0  0  0  0  0  0  0  0  0  0  0
  -23.0617   -8.7058   22.4627 C   0  0  0  0  0  0  0  0  0  0  0  0
  -26.5308  -24.4194   24.9881 C   0  0  0  0  0  0  0  0  0  0  0  0
  -19.8713   -6.0237   20.2824 C   0  0  0  0  0  0  0  0  0  0  0  0
  -18.5625   -5.9978   19.8007 C   0  0  0  0  0  0  0  0  0  0  0  0
  -26.5605  -22.4273   23.6280 C   0  0  0  0  0  0  0  0  0  0  0  0
  -18.0286   -7.9316   21.1469 C   0  0  0  0  0  0  0  0  0  0  0  0
  -31.9065  -18.6012   22.3027 C   0  0  0  0  0  0  0  0  0  0  0  0
  -23.8111  -10.4408   20.9577 C   0  0  0  0  0  0  0  0  0  0  0  0
  -24.1837  -12.9628   20.8658 C   0  0  0  0  0  0  0  0  0  0  0  0
  -20.7445  -27.4881   18.7627 C   0  0  0  0  0  0  0  0  0  0  0  0
  -26.3081  -24.5932   22.5767 C   0  0  0  0  0  0  0  0  0  0  0  0
  -21.3380  -26.8573   19.8727 C   0  0  0  0  0  0  0  0  0  0  0  0
  -26.4119  -23.1993   22.4656 C   0  0  0  0  0  0  0  0  0  0  0  0
  -22.2973   -8.1474   21.4383 C   0  0  0  0  0  0  0  0  0  0  0  0
  -26.6179  -23.0344   24.8823 C   0  0  0  0  0  0  0  0  0  0  0  0
  -20.2587   -7.0036   21.1965 C   0  0  0  0  0  0  0  0  0  0  0  0
  -17.6412   -6.9517   20.2329 C   0  0  0  0  0  0  0  0  0  0  0  0
  -19.3374   -7.9575   21.6287 C   0  0  0  0  0  0  0  0  0  0  0  0
  -24.5936  -11.6250   20.7099 C   0  0  0  0  0  0  0  0  0  0  0  0
  -30.8149  -18.9724   23.0594 C   0  0  0  0  0  0  0  0  0  0  0  0
  -25.2832  -13.7029   20.5055 C   0  0  0  0  0  0  0  0  0  0  0  0
  -30.6423  -16.8460   21.9407 C   0  0  0  0  0  0  0  0  0  0  0  0
  -22.9220  -13.4893   21.2977 C   0  0  0  0  0  0  0  0  0  0  0  0
  -30.5843  -20.1838   23.8598 C   0  0  0  0  0  0  0  0  0  0  0  0
  -24.1155  -24.4546   20.2795 C   0  0  0  0  0  0  0  0  0  0  0  0
  -26.4811  -22.9478   18.6498 C   0  0  0  0  0  0  0  0  0  0  0  0
  -29.3653  -21.1265   18.7536 C   0  0  0  0  0  0  0  0  0  0  0  0
  -28.8860  -21.3364   25.3622 C   0  0  0  0  0  0  0  0  0  0  0  0
  -30.7629  -14.6783   20.6628 C   0  0  0  0  0  0  0  0  0  0  0  0
  -20.5518  -26.7691   17.4510 C   0  0  0  0  0  0  0  0  0  0  0  0
  -26.1729  -25.4475   21.3461 C   0  0  0  0  0  0  0  0  0  0  0  0
  -26.3600  -22.5041   21.1305 C   0  0  0  0  0  0  0  0  0  0  0  0
  -21.4203  -25.5220   17.3066 C   0  0  0  0  0  0  0  0  0  0  0  0
  -29.6059  -12.3072   18.2720 C   0  0  0  0  0  0  0  0  0  0  0  0
  -21.3543  -24.6758   18.5741 C   0  0  0  0  0  0  0  0  0  0  0  0
  -28.1650  -12.0284   18.7060 C   0  0  0  0  0  0  0  0  0  0  0  0
  -30.5301  -12.5101   19.4713 C   0  0  0  0  0  0  0  0  0  0  0  0
  -28.6398  -13.2416   20.8715 C   0  0  0  0  0  0  0  0  0  0  0  0
  -21.8903  -25.4512   19.7836 C   0  0  1  0  0  0  0  0  0  0  0  0
  -25.5941  -24.6911   20.1543 C   0  0  1  0  0  0  0  0  0  0  0  0
  -27.6586  -13.0946   19.6971 C   0  0  2  0  0  0  0  0  0  0  0  0
  -31.0438  -20.0084   17.2603 C   0  0  0  0  0  0  0  0  0  0  0  0
  -27.5091  -20.3588   27.2188 C   0  0  0  0  0  0  0  0  0  0  0  0
  -24.5135  -20.6705   18.1474 C   0  0  0  0  0  0  0  0  0  0  0  0
  -26.4567  -19.2241   17.5149 C   0  0  0  0  0  0  0  0  0  0  0  0
  -25.9403  -21.2689   16.1826 C   0  0  0  0  0  0  0  0  0  0  0  0
  -31.5665  -22.8315   19.7569 C   0  0  0  0  0  0  0  0  0  0  0  0
  -26.9285  -21.5142   18.4968 C   0  0  1  0  0  0  0  0  0  0  0  0
  -30.6807  -21.2799   18.0115 C   0  0  2  0  0  0  0  0  0  0  0  0
  -27.4764  -21.0448   25.8623 C   0  0  1  0  0  0  0  0  0  1  0  0
  -25.9588  -20.6821   17.6109 C   0  0  0  0  0  0  0  0  0  0  0  0
  -31.8095  -17.3820   21.6608 N   0  0  0  0  0  0  0  0  0  0  0  0
  -25.8549  -11.5185   20.2836 N   0  0  0  0  0  0  0  0  0  0  0  0
  -26.2471  -12.7988   20.1685 N   0  0  0  0  0  0  0  0  0  0  0  0
  -26.2206  -23.3824   19.9571 N   0  0  0  0  0  0  0  0  0  0  0  0
  -29.9888  -13.5372   20.3640 N   0  0  0  0  0  0  0  0  0  0  0  0
  -25.5098  -15.0325   20.4471 N   0  0  0  0  0  0  0  0  0  0  0  0
  -21.9007  -12.5888   21.6297 N   0  0  0  0  0  0  0  0  0  0  0  0
  -30.1315  -15.6015   21.4958 N   0  0  0  0  0  0  0  0  0  0  0  0
  -29.3677  -20.3035   24.5369 N   0  0  0  0  0  0  0  0  0  0  0  0
  -23.3372  -25.4753   19.7677 N   0  0  0  0  0  0  0  0  0  0  0  0
  -28.2985  -21.5651   17.9980 N   0  0  0  0  0  0  0  0  0  0  0  0
  -31.7811  -21.5918   18.9668 N   0  3  0  0  0  0  0  0  0  0  0  0
  -22.7014  -14.7219   21.3709 O   0  0  0  0  0  0  0  0  0  0  0  0
  -23.7108  -23.4219   20.8005 O   0  0  0  0  0  0  0  0  0  0  0  0
  -26.3738  -23.6581   17.6470 O   0  0  0  0  0  0  0  0  0  0  0  0
  -29.2912  -20.6606   19.8884 O   0  0  0  0  0  0  0  0  0  0  0  0
  -29.4799  -22.3719   25.6502 O   0  0  0  0  0  0  0  0  0  0  0  0
  -31.8915  -14.8386   20.1911 O   0  0  0  0  0  0  0  0  0  0  0  0
  -21.5586   -7.0285   21.6732 O   0  0  0  0  0  0  0  0  0  0  0  0
  -26.7638  -22.2734   26.0010 O   0  0  0  0  0  0  0  0  0  1  0  0
  -16.3849   -6.9276   19.7690 F   0  0  0  0  0  0  0  0  0  0  0  0
  -19.7041   -8.9020   22.5058 F   0  0  0  0  0  0  0  0  0  0  0  0
  -31.7377  -21.4008   23.9603 S   0  0  0  0  0  0  0  0  0  0  0  0
  -29.6114  -17.7539   22.9693 S   0  0  0  0  0  0  0  0  0  0  0  0
  1  2  1  0  0  0  0
  1  5  2  0  0  0  0
  2  6  2  0  0  0  0
  3  8  2  0  0  0  0
  3 16  1  0  0  0  0
  4  9  1  0  0  0  0
  4 16  2  0  0  0  0
  5 18  1  0  0  0  0
  6 20  1  0  0  0  0
  7 10  2  0  0  0  0
  7 19  1  0  0  0  0
  8 22  1  0  0  0  0
  9 22  2  0  0  0  0
 10 23  1  0  0  0  0
 11 12  2  0  0  0  0
 11 24  1  0  0  0  0
 12 25  1  0  0  0  0
 13 21  1  0  0  0  0
 13 23  2  0  0  0  0
 14 25  2  0  0  0  0
 14 26  1  0  0  0  0
 15 28  2  0  0  0  0
 15 60  1  0  0  0  0
 16 27  1  0  0  0  0
 17 27  1  0  0  0  0
 17 29  2  0  0  0  0
 17 31  1  0  0  0  0
 18 20  2  0  0  0  0
 18 38  1  0  0  0  0
 19 21  2  0  0  0  0
 19 39  1  0  0  0  0
 20 47  1  0  0  0  0
 21 40  1  0  0  0  0
 22 78  1  0  0  0  0
 23 79  1  0  0  0  0
 24 26  2  0  0  0  0
 24 78  1  0  0  0  0
 25 80  1  0  0  0  0
 26 81  1  0  0  0  0
 27 61  2  0  0  0  0
 28 32  1  0  0  0  0
 28 83  1  0  0  0  0
 29 62  1  0  0  0  0
 29 65  1  0  0  0  0
 30 60  2  0  0  0  0
 30 67  1  0  0  0  0
 30 83  1  0  0  0  0
 31 66  1  0  0  0  0
 31 72  2  0  0  0  0
 32 68  1  0  0  0  0
 32 82  2  0  0  0  0
 33 48  1  0  0  0  0
 33 69  1  0  0  0  0
 33 73  2  0  0  0  0
 34 56  1  0  0  0  0
 34 63  1  0  0  0  0
 34 74  2  0  0  0  0
 35 57  1  0  0  0  0
 35 70  1  0  0  0  0
 35 75  2  0  0  0  0
 36 58  1  0  0  0  0
 36 68  1  0  0  0  0
 36 76  2  0  0  0  0
 37 64  1  0  0  0  0
 37 67  1  0  0  0  0
 37 77  2  0  0  0  0
 38 41  1  0  0  0  0
 39 48  1  0  0  0  0
 40 63  1  0  0  0  0
 41 43  1  0  0  0  0
 42 44  1  0  0  0  0
 42 45  1  0  0  0  0
 43 47  1  0  0  0  0
 44 49  1  0  0  0  0
 45 64  1  0  0  0  0
 46 49  1  0  0  0  0
 46 64  1  0  0  0  0
 47 69  1  0  0  0  0
 48 63  1  0  0  0  0
 49 62  1  0  0  0  0
 50 57  1  0  0  0  0
 51 58  1  0  0  0  0
 52 59  1  0  0  0  0
 53 59  1  0  0  0  0
 54 59  1  0  0  0  0
 55 71  1  0  0  0  0
 56 59  1  0  0  0  0
 56 70  1  0  0  0  0
 57 71  1  0  0  0  0
 58 79  1  0  0  0  0
 61 62  1  0  0  0  0
M  CHG  1  71   1
M  ISO  4  37 100  58 101  67 100  79 101
M  END
> <Batch ID>
0186

> <Smiles>
CNC(C)C(=O)NC(C(=O)N1Cc2cc([101O:1][101CH:1](C)C(=O)NC(=S)c3cnc([100NH:0][100C:0](=O)N4CCCC(n5nc(-c6ccc(Oc7ccc(F)cc7F)cc6)c(C(N)=O)c5N)C4)s3)ccc2CC1C(=O)NC1CCCc2ccccc21)C(C)(C)C

> <Shape>
0.186

> <Color>
0.206

> <Negative vol penalty>
0.000

$$$$

  -OEChem-04052305093D

 83 91  0     1  0  0  0  0  0999 V2000
  -30.7995  -34.9546   24.0587 C   0  0  0  0  0  0  0  0  0  0  0  0
  -30.8213  -33.7954   23.2897 C   0  0  0  0  0  0  0  0  0  0  0  0
  -24.5068   -9.1261   20.4184 C   0  0  0  0  0  0  0  0  0  0  0  0
  -22.7030  -10.5924   21.0763 C   0  0  0  0  0  0  0  0  0  0  0  0
  -29.8513  -35.1008   25.0704 C   0  0  0  0  0  0  0  0  0  0  0  0
  -29.8955  -32.7814   23.5326 C   0  0  0  0  0  0  0  0  0  0  0  0
  -27.3161  -29.0812   19.3900 C   0  0  0  0  0  0  0  0  0  0  0  0
  -23.7842   -8.0279   20.8846 C   0  0  0  0  0  0  0  0  0  0  0  0
  -21.9803   -9.4942   21.5425 C   0  0  0  0  0  0  0  0  0  0  0  0
  -27.6040  -27.7775   18.9885 C   0  0  0  0  0  0  0  0  0  0  0  0
  -21.2236   -6.0954   19.8162 C   0  0  0  0  0  0  0  0  0  0  0  0
  -21.1736   -4.9610   19.0061 C   0  0  0  0  0  0  0  0  0  0  0  0
  -25.9261  -26.9453   20.5088 C   0  0  0  0  0  0  0  0  0  0  0  0
  -25.1666  -20.7576   21.2657 C   0  0  0  0  0  0  0  0  0  0  0  0
  -22.2109   -3.6629   20.7600 C   0  0  0  0  0  0  0  0  0  0  0  0
  -23.9662  -10.4084   20.5143 C   0  0  0  0  0  0  0  0  0  0  0  0
  -24.6849  -12.0913   18.7369 C   0  0  0  0  0  0  0  0  0  0  0  0
  -28.9073  -34.0922   25.3195 C   0  0  0  0  0  0  0  0  0  0  0  0
  -26.3370  -29.3264   20.3635 C   0  0  0  0  0  0  0  0  0  0  0  0
  -28.9346  -32.9137   24.5495 C   0  0  0  0  0  0  0  0  0  0  0  0
  -25.6259  -28.2532   20.9190 C   0  0  0  0  0  0  0  0  0  0  0  0
  -24.8323  -19.5764   21.9889 C   0  0  0  0  0  0  0  0  0  0  0  0
  -22.5210   -8.2119   21.4467 C   0  0  0  0  0  0  0  0  0  0  0  0
  -26.9110  -26.7091   19.5501 C   0  0  0  0  0  0  0  0  0  0  0  0
  -21.7673   -6.0136   21.0982 C   0  0  0  0  0  0  0  0  0  0  0  0
  -21.6673   -3.7447   19.4780 C   0  0  0  0  0  0  0  0  0  0  0  0
  -22.2609   -4.7973   21.5701 C   0  0  0  0  0  0  0  0  0  0  0  0
  -24.7125  -11.5433   20.0333 C   0  0  0  0  0  0  0  0  0  0  0  0
  -25.7376  -19.3106   22.9926 C   0  0  0  0  0  0  0  0  0  0  0  0
  -25.5619  -13.1470   18.7917 C   0  0  0  0  0  0  0  0  0  0  0  0
  -26.3146  -21.3499   21.7444 C   0  0  0  0  0  0  0  0  0  0  0  0
  -23.9336  -11.6828   17.5861 C   0  0  0  0  0  0  0  0  0  0  0  0
  -26.3341  -30.6246   23.2649 C   0  0  0  0  0  0  0  0  0  0  0  0
  -23.1217  -30.2609   22.9991 C   0  0  0  0  0  0  0  0  0  0  0  0
  -20.5016  -28.6169   21.5574 C   0  0  0  0  0  0  0  0  0  0  0  0
  -26.6442  -23.3846   20.2986 C   0  0  0  0  0  0  0  0  0  0  0  0
  -27.5211  -16.5915   23.2803 C   0  0  0  0  0  0  0  0  0  0  0  0
  -27.9318  -34.2754   26.4551 C   0  0  0  0  0  0  0  0  0  0  0  0
  -26.0196  -30.7404   20.7662 C   0  0  0  0  0  0  0  0  0  0  0  0
  -24.5512  -28.4644   21.9530 C   0  0  0  0  0  0  0  0  0  0  0  0
  -26.7473  -33.3139   26.4016 C   0  0  0  0  0  0  0  0  0  0  0  0
  -29.5015  -14.6279   21.0670 C   0  0  0  0  0  0  0  0  0  0  0  0
  -27.2259  -31.8921   26.1250 C   0  0  0  0  0  0  0  0  0  0  0  0
  -28.4962  -13.6641   20.4341 C   0  0  0  0  0  0  0  0  0  0  0  0
  -29.1731  -14.9038   22.5326 C   0  0  0  0  0  0  0  0  0  0  0  0
  -26.7903  -14.4047   22.1488 C   0  0  0  0  0  0  0  0  0  0  0  0
  -27.9311  -31.8019   24.7663 C   0  0  1  0  0  0  0  0  0  0  0  0
  -25.3618  -30.8373   22.1393 C   0  0  1  0  0  0  0  0  0  0  0  0
  -27.0477  -14.1396   20.6556 C   0  0  2  0  0  0  0  0  0  0  0  0
  -23.6466  -18.7396   21.6871 C   0  0  0  0  0  0  0  0  0  0  0  0
  -17.9943  -28.5144   21.5680 C   0  0  0  0  0  0  0  0  0  0  0  0
  -29.0322  -24.0295   19.8074 C   0  0  0  0  0  0  0  0  0  0  0  0
  -23.1963  -28.7694   25.6599 C   0  0  0  0  0  0  0  0  0  0  0  0
  -20.9075  -27.8910   25.1521 C   0  0  0  0  0  0  0  0  0  0  0  0
  -21.2724  -30.3461   25.4014 C   0  0  0  0  0  0  0  0  0  0  0  0
  -20.3441  -29.3437   18.6928 C   0  0  0  0  0  0  0  0  0  0  0  0
  -25.7494  -18.1906   23.9609 C   0  0  0  0  0  0  0  0  0  0  0  0
  -22.1379  -29.1675   23.3389 C   0  0  1  0  0  0  0  0  0  0  0  0
  -19.2240  -29.1258   20.9146 C   0  0  2  0  0  0  0  0  0  0  0  0
  -27.6423  -24.5323   20.1687 C   0  0  1  0  0  0  0  0  0  1  0  0
  -21.9001  -29.0391   24.8700 C   0  0  0  0  0  0  0  0  0  0  0  0
  -25.5414  -12.1966   20.8518 N   0  0  0  0  0  0  0  0  0  0  0  0
  -26.0429  -13.1661   20.0678 N   0  0  0  0  0  0  0  0  0  0  0  0
  -24.2818  -29.8649   22.3185 N   0  0  0  0  0  0  0  0  0  0  0  0
  -27.7858  -15.3526   22.6736 N   0  0  0  0  0  0  0  0  0  0  0  0
  -25.9608  -14.0514   17.8723 N   0  0  0  0  0  0  0  0  0  0  0  0
  -23.0793  -10.5779   17.7036 N   0  0  0  0  0  0  0  0  0  0  0  0
  -26.9958  -22.5188   21.3290 N   0  0  0  0  0  0  0  0  0  0  0  0
  -26.9602  -31.7796   23.6934 N   0  0  0  0  0  0  0  0  0  0  0  0
  -20.9316  -29.4500   22.5685 N   0  0  0  0  0  0  0  0  0  0  0  0
  -26.1799  -16.9439   23.3683 N   0  0  0  0  0  0  0  0  0  0  0  0
  -19.2032  -28.7861   19.4637 N   0  3  0  0  0  0  0  0  0  0  0  0
  -24.0298  -12.2697   16.4817 O   0  0  0  0  0  0  0  0  0  0  0  0
  -26.5028  -29.4964   23.7126 O   0  0  0  0  0  0  0  0  0  0  0  0
  -22.8670  -31.4246   23.3194 O   0  0  0  0  0  0  0  0  0  0  0  0
  -21.0601  -27.5817   21.2009 O   0  0  0  0  0  0  0  0  0  0  0  0
  -25.6650  -23.3064   19.5623 O   0  0  0  0  0  0  0  0  0  0  0  0
  -28.4142  -17.3314   23.7067 O   0  0  0  0  0  0  0  0  0  0  0  0
  -21.8154   -7.1405   21.9015 O   0  0  0  0  0  0  0  0  0  0  0  0
  -27.1905  -25.4355   19.1605 O   0  0  0  0  0  0  0  0  0  1  0  0
  -21.6178   -2.6551   18.7006 F   0  0  0  0  0  0  0  0  0  0  0  0
  -22.7833   -4.7123   22.8012 F   0  0  0  0  0  0  0  0  0  0  0  0
  -26.9843  -20.4826   23.0603 S   0  0  0  0  0  0  0  0  0  0  0  0
  1  2  1  0  0  0  0
  1  5  2  0  0  0  0
  2  6  2  0  0  0  0
  3  8  2  0  0  0  0
  3 16  1  0  0  0  0
  4  9  1  0  0  0  0
  4 16  2  0  0  0  0
  5 18  1  0  0  0  0
  6 20  1  0  0  0  0
  7 10  2  0  0  0  0
  7 19  1  0  0  0  0
  8 23  1  0  0  0  0
  9 23  2  0  0  0  0
 10 24  1  0  0  0  0
 11 12  2  0  0  0  0
 11 25  1  0  0  0  0
 12 26  1  0  0  0  0
 13 21  1  0  0  0  0
 13 24  2  0  0  0  0
 14 22  1  0  0  0  0
 14 31  2  0  0  0  0
 15 26  2  0  0  0  0
 15 27  1  0  0  0  0
 16 28  1  0  0  0  0
 17 28  1  0  0  0  0
 17 30  2  0  0  0  0
 17 32  1  0  0  0  0
 18 20  2  0  0  0  0
 18 38  1  0  0  0  0
 19 21  2  0  0  0  0
 19 39  1  0  0  0  0
 20 47  1  0  0  0  0
 21 40  1  0  0  0  0
 22 29  2  0  0  0  0
 22 50  1  0  0  0  0
 23 79  1  0  0  0  0
 24 80  1  0  0  0  0
 25 27  2  0  0  0  0
 25 79  1  0  0  0  0
 26 81  1  0  0  0  0
 27 82  1  0  0  0  0
 28 62  2  0  0  0  0
 29 57  1  0  0  0  0
 29 83  1  0  0  0  0
 30 63  1  0  0  0  0
 30 66  1  0  0  0  0
 31 68  1  0  0  0  0
 31 83  1  0  0  0  0
 32 67  1  0  0  0  0
 32 73  2  0  0  0  0
 33 48  1  0  0  0  0
 33 69  1  0  0  0  0
 33 74  2  0  0  0  0
 34 58  1  0  0  0  0
 34 64  1  0  0  0  0
 34 75  2  0  0  0  0
 35 59  1  0  0  0  0
 35 70  1  0  0  0  0
 35 76  2  0  0  0  0
 36 60  1  0  0  0  0
 36 68  1  0  0  0  0
 36 77  2  0  0  0  0
 37 65  1  0  0  0  0
 37 71  1  0  0  0  0
 37 78  2  0  0  0  0
 38 41  1  0  0  0  0
 39 48  1  0  0  0  0
 40 64  1  0  0  0  0
 41 43  1  0  0  0  0
 42 44  1  0  0  0  0
 42 45  1  0  0  0  0
 43 47  1  0  0  0  0
 44 49  1  0  0  0  0
 45 65  1  0  0  0  0
 46 49  1  0  0  0  0
 46 65  1  0  0  0  0
 47 69  1  0  0  0  0
 48 64  1  0  0  0  0
 49 63  1  0  0  0  0
 51 59  1  0  0  0  0
 52 60  1  0  0  0  0
 53 61  1  0  0  0  0
 54 61  1  0  0  0  0
 55 61  1  0  0  0  0
 56 72  1  0  0  0  0
 57 71  1  0  0  0  0
 58 61  1  0  0  0  0
 58 70  1  0  0  0  0
 59 72  1  0  0  0  0
 60 80  1  0  0  0  0
 62 63  1  0  0  0  0
M  CHG  1  72   1
M  ISO  4  37 100  60 101  71 100  80 101
M  END
> <Batch ID>
0186

> <Smiles>
CNC(C)C(=O)NC(C(=O)N1Cc2cc([101O:1][101CH:1](C)C(=O)Nc3cc(C)c(C[100NH:0][100C:0](=O)N4CCCC(n5nc(-c6ccc(Oc7ccc(F)cc7F)cc6)c(C(N)=O)c5N)C4)s3)ccc2CC1C(=O)NC1CCCc2ccccc21)C(C)(C)C

> <Shape>
0.231

> <Color>
0.095

> <Negative vol penalty>
0.000

$$$$

  -OEChem-04052305093D

 86 94  0     1  0  0  0  0  0999 V2000
  -18.3561  -26.2806   23.5373 C   0  0  0  0  0  0  0  0  0  0  0  0
  -19.2573  -26.0681   22.4990 C   0  0  0  0  0  0  0  0  0  0  0  0
  -26.7329  -12.5604   21.8183 C   0  0  0  0  0  0  0  0  0  0  0  0
  -26.0195  -14.1740   20.1677 C   0  0  0  0  0  0  0  0  0  0  0  0
  -18.0889  -27.5780   23.9723 C   0  0  0  0  0  0  0  0  0  0  0  0
  -19.8911  -27.1531   21.8944 C   0  0  0  0  0  0  0  0  0  0  0  0
  -24.8450  -26.3676   21.1971 C   0  0  0  0  0  0  0  0  0  0  0  0
  -25.4505  -12.0120   21.8365 C   0  0  0  0  0  0  0  0  0  0  0  0
  -24.7370  -13.6256   20.1859 C   0  0  0  0  0  0  0  0  0  0  0  0
  -25.2167  -25.5608   20.1225 C   0  0  0  0  0  0  0  0  0  0  0  0
  -22.4595   -9.9570   22.0516 C   0  0  0  0  0  0  0  0  0  0  0  0
  -22.3481   -8.5670   22.0206 C   0  0  0  0  0  0  0  0  0  0  0  0
  -25.7233  -27.5312   18.8263 C   0  0  0  0  0  0  0  0  0  0  0  0
  -23.4990   -8.5221   19.8968 C   0  0  0  0  0  0  0  0  0  0  0  0
  -27.0174  -13.6414   20.9839 C   0  0  0  0  0  0  0  0  0  0  0  0
  -29.4152  -13.8342   20.1347 C   0  0  0  0  0  0  0  0  0  0  0  0
  -18.7269  -28.6788   23.3792 C   0  0  0  0  0  0  0  0  0  0  0  0
  -24.8994  -27.7647   21.0905 C   0  0  0  0  0  0  0  0  0  0  0  0
  -19.6311  -28.4666   22.3210 C   0  0  0  0  0  0  0  0  0  0  0  0
  -25.3542  -28.3534   19.9019 C   0  0  0  0  0  0  0  0  0  0  0  0
  -24.4526  -12.5446   21.0204 C   0  0  0  0  0  0  0  0  0  0  0  0
  -25.6532  -26.1426   18.9359 C   0  0  0  0  0  0  0  0  0  0  0  0
  -23.0906  -10.6296   21.0051 C   0  0  0  0  0  0  0  0  0  0  0  0
  -22.8678   -7.8495   20.9433 C   0  0  0  0  0  0  0  0  0  0  0  0
  -23.6104   -9.9121   19.9278 C   0  0  0  0  0  0  0  0  0  0  0  0
  -28.3417  -14.2087   20.9650 C   0  0  0  0  0  0  0  0  0  0  0  0
  -30.2105  -23.7945   20.6582 C   0  0  0  0  0  0  0  0  0  0  0  0
  -30.4422  -14.6678   20.5045 C   0  0  0  0  0  0  0  0  0  0  0  0
  -29.4299  -23.4220   19.5840 C   0  0  0  0  0  0  0  0  0  0  0  0
  -29.9202  -21.6837   21.1778 C   0  0  0  0  0  0  0  0  0  0  0  0
  -29.4782  -12.8234   19.1199 C   0  0  0  0  0  0  0  0  0  0  0  0
  -22.7613  -30.1114   21.2488 C   0  0  0  0  0  0  0  0  0  0  0  0
  -25.3943  -31.9970   21.0642 C   0  0  0  0  0  0  0  0  0  0  0  0
  -28.6505  -32.3399   20.1018 C   0  0  0  0  0  0  0  0  0  0  0  0
  -28.1513  -23.6524   17.4301 C   0  0  0  0  0  0  0  0  0  0  0  0
  -30.5982  -20.0911   23.0082 C   0  0  0  0  0  0  0  0  0  0  0  0
  -18.3704  -30.0659   23.8518 C   0  0  0  0  0  0  0  0  0  0  0  0
  -24.5204  -28.6205   22.2679 C   0  0  0  0  0  0  0  0  0  0  0  0
  -25.4503  -29.8481   19.7434 C   0  0  0  0  0  0  0  0  0  0  0  0
  -19.3661  -31.1350   23.4092 C   0  0  0  0  0  0  0  0  0  0  0  0
  -32.1049  -17.1207   24.2666 C   0  0  0  0  0  0  0  0  0  0  0  0
  -19.6994  -30.9741   21.9293 C   0  0  0  0  0  0  0  0  0  0  0  0
  -31.4129  -16.0031   23.4828 C   0  0  0  0  0  0  0  0  0  0  0  0
  -31.1433  -18.2605   24.5978 C   0  0  0  0  0  0  0  0  0  0  0  0
  -29.7250  -17.6964   22.6640 C   0  0  0  0  0  0  0  0  0  0  0  0
  -20.3573  -29.6160   21.6565 C   0  0  1  0  0  0  0  0  0  0  0  0
  -24.1264  -30.0403   21.8725 C   0  0  1  0  0  0  0  0  0  0  0  0
  -30.6693  -16.5557   22.2510 C   0  0  2  0  0  0  0  0  0  0  0  0
  -30.5233  -34.0094   20.0478 C   0  0  0  0  0  0  0  0  0  0  0  0
  -29.8081  -26.0299   21.7415 C   0  0  0  0  0  0  0  0  0  0  0  0
  -32.1435  -25.1051   21.5954 C   0  0  0  0  0  0  0  0  0  0  0  0
  -24.0644  -33.4089   18.7087 C   0  0  0  0  0  0  0  0  0  0  0  0
  -26.2977  -34.3727   18.1155 C   0  0  0  0  0  0  0  0  0  0  0  0
  -25.2430  -34.9298   20.3064 C   0  0  0  0  0  0  0  0  0  0  0  0
  -30.3647  -30.6463   21.8201 C   0  0  0  0  0  0  0  0  0  0  0  0
  -27.0160  -25.8705   17.0060 C   0  0  0  0  0  0  0  0  0  1  0  0
  -26.1903  -32.6145   19.9399 C   0  0  1  0  0  0  0  0  0  0  0  0
  -29.8646  -32.8852   20.8320 C   0  0  2  0  0  0  0  0  0  0  0  0
  -27.8305  -24.7316   16.4106 C   0  0  2  0  0  0  0  0  0  0  0  0
  -30.7601  -25.1431   20.9071 C   0  0  0  0  0  0  0  0  0  0  0  0
  -25.4453  -33.8033   19.2696 C   0  0  0  0  0  0  0  0  0  0  0  0
  -28.6577  -15.2026   21.7995 N   0  0  0  0  0  0  0  0  0  0  0  0
  -30.4923  -22.7992   21.5734 N   0  0  0  0  0  0  0  0  0  0  0  0
  -29.9412  -15.4598   21.4954 N   0  0  0  0  0  0  0  0  0  0  0  0
  -25.0625  -30.6423   20.9208 N   0  0  0  0  0  0  0  0  0  0  0  0
  -30.4786  -18.7360   23.3825 N   0  0  0  0  0  0  0  0  0  0  0  0
  -31.7161  -14.7932   20.0755 N   0  0  0  0  0  0  0  0  0  0  0  0
  -28.3318  -12.0574   18.8677 N   0  0  0  0  0  0  0  0  0  0  0  0
  -28.9405  -24.1373   18.4654 N   0  0  0  0  0  0  0  0  0  0  0  0
  -29.9509  -20.4198   21.8176 N   0  0  0  0  0  0  0  0  0  0  0  0
  -21.7472  -29.6377   22.0592 N   0  0  0  0  0  0  0  0  0  0  0  0
  -27.4892  -32.9651   20.5040 N   0  0  0  0  0  0  0  0  0  0  0  0
  -30.8708  -31.8061   21.0417 N   0  3  0  0  0  0  0  0  0  0  0  0
  -30.5250  -12.5947   18.4678 O   0  0  0  0  0  0  0  0  0  0  0  0
  -22.6370  -30.5640   20.1168 O   0  0  0  0  0  0  0  0  0  0  0  0
  -25.0846  -32.6892   22.0371 O   0  0  0  0  0  0  0  0  0  0  0  0
  -28.7254  -31.4510   19.2564 O   0  0  0  0  0  0  0  0  0  0  0  0
  -27.7340  -22.5081   17.2770 O   0  0  0  0  0  0  0  0  0  0  0  0
  -31.2513  -20.8945   23.6792 O   0  0  0  0  0  0  0  0  0  0  0  0
  -23.2011  -12.0096   21.0377 O   0  0  0  0  0  0  0  0  0  0  0  0
  -26.0160  -25.3575   17.8852 O   0  0  0  0  0  0  0  0  0  1  0  0
  -22.7621   -6.5145   20.9144 F   0  0  0  0  0  0  0  0  0  0  0  0
  -24.2188  -10.5526   18.9201 F   0  0  0  0  0  0  0  0  0  0  0  0
  -27.1248  -24.2069   15.3676 F   0  0  0  0  0  0  0  0  0  0  0  0
  -30.9767  -25.8734   19.7449 F   0  0  0  0  0  0  0  0  0  0  0  0
  -29.0282  -21.7597   19.7137 S   0  0  0  0  0  0  0  0  0  0  0  0
  1  2  1  0  0  0  0
  1  5  2  0  0  0  0
  2  6  2  0  0  0  0
  3  8  2  0  0  0  0
  3 15  1  0  0  0  0
  4  9  1  0  0  0  0
  4 15  2  0  0  0  0
  5 17  1  0  0  0  0
  6 19  1  0  0  0  0
  7 10  2  0  0  0  0
  7 18  1  0  0  0  0
  8 21  1  0  0  0  0
  9 21  2  0  0  0  0
 10 22  1  0  0  0  0
 11 12  2  0  0  0  0
 11 23  1  0  0  0  0
 12 24  1  0  0  0  0
 13 20  1  0  0  0  0
 13 22  2  0  0  0  0
 14 24  2  0  0  0  0
 14 25  1  0  0  0  0
 15 26  1  0  0  0  0
 16 26  1  0  0  0  0
 16 28  2  0  0  0  0
 16 31  1  0  0  0  0
 17 19  2  0  0  0  0
 17 37  1  0  0  0  0
 18 20  2  0  0  0  0
 18 38  1  0  0  0  0
 19 46  1  0  0  0  0
 20 39  1  0  0  0  0
 21 80  1  0  0  0  0
 22 81  1  0  0  0  0
 23 25  2  0  0  0  0
 23 80  1  0  0  0  0
 24 82  1  0  0  0  0
 25 83  1  0  0  0  0
 26 62  2  0  0  0  0
 27 29  2  0  0  0  0
 27 60  1  0  0  0  0
 27 63  1  0  0  0  0
 28 64  1  0  0  0  0
 28 67  1  0  0  0  0
 29 69  1  0  0  0  0
 29 86  1  0  0  0  0
 30 63  2  0  0  0  0
 30 70  1  0  0  0  0
 30 86  1  0  0  0  0
 31 68  1  0  0  0  0
 31 74  2  0  0  0  0
 32 47  1  0  0  0  0
 32 71  1  0  0  0  0
 32 75  2  0  0  0  0
 33 57  1  0  0  0  0
 33 65  1  0  0  0  0
 33 76  2  0  0  0  0
 34 58  1  0  0  0  0
 34 72  1  0  0  0  0
 34 77  2  0  0  0  0
 35 59  1  0  0  0  0
 35 69  1  0  0  0  0
 35 78  2  0  0  0  0
 36 66  1  0  0  0  0
 36 70  1  0  0  0  0
 36 79  2  0  0  0  0
 37 40  1  0  0  0  0
 38 47  1  0  0  0  0
 39 65  1  0  0  0  0
 40 42  1  0  0  0  0
 41 43  1  0  0  0  0
 41 44  1  0  0  0  0
 42 46  1  0  0  0  0
 43 48  1  0  0  0  0
 44 66  1  0  0  0  0
 45 48  1  0  0  0  0
 45 66  1  0  0  0  0
 46 71  1  0  0  0  0
 47 65  1  0  0  0  0
 48 64  1  0  0  0  0
 49 58  1  0  0  0  0
 50 60  1  0  0  0  0
 51 60  1  0  0  0  0
 52 61  1  0  0  0  0
 53 61  1  0  0  0  0
 54 61  1  0  0  0  0
 55 73  1  0  0  0  0
 56 59  1  0  0  0  0
 56 81  1  0  0  0  0
 57 61  1  0  0  0  0
 57 72  1  0  0  0  0
 58 73  1  0  0  0  0
 59 84  1  0  0  0  0
 60 85  1  0  0  0  0
 62 64  1  0  0  0  0
M  CHG  1  73   1
M  ISO  4  36 100  56 101  70 100  81 101
M  END
> <Batch ID>
0186

> <Smiles>
CNC(C)C(=O)NC(C(=O)N1Cc2cc([101O:1][101CH2:1]C(F)C(=O)Nc3sc([100NH:0][100C:0](=O)N4CCCC(n5nc(-c6ccc(Oc7ccc(F)cc7F)cc6)c(C(N)=O)c5N)C4)nc3C(C)(C)F)ccc2CC1C(=O)NC1CCCc2ccccc21)C(C)(C)C

> <Shape>
0.307

> <Color>
0.086

> <Negative vol penalty>
0.000

$$$$

  -OEChem-04052305093D

 91 99  0     1  0  0  0  0  0999 V2000
  -29.5071  -24.8393   17.5488 C   0  0  0  0  0  0  0  0  0  0  0  0
  -28.1322  -25.0433   17.6089 C   0  0  0  0  0  0  0  0  0  0  0  0
  -26.1174  -14.1245   19.0556 C   0  0  0  0  0  0  0  0  0  0  0  0
  -23.9022  -14.2659   20.0095 C   0  0  0  0  0  0  0  0  0  0  0  0
  -30.3140  -25.2155   18.6218 C   0  0  0  0  0  0  0  0  0  0  0  0
  -27.5633  -25.6227   18.7425 C   0  0  0  0  0  0  0  0  0  0  0  0
  -22.7334  -29.3836   18.9250 C   0  0  0  0  0  0  0  0  0  0  0  0
  -26.3252  -12.9145   19.7176 C   0  0  0  0  0  0  0  0  0  0  0  0
  -24.1100  -13.0558   20.6715 C   0  0  0  0  0  0  0  0  0  0  0  0
  -21.3851  -29.1658   19.2047 C   0  0  0  0  0  0  0  0  0  0  0  0
  -24.0594   -9.7630   19.9131 C   0  0  0  0  0  0  0  0  0  0  0  0
  -23.0311   -8.8212   19.8767 C   0  0  0  0  0  0  0  0  0  0  0  0
  -21.7589  -29.8297   21.4936 C   0  0  0  0  0  0  0  0  0  0  0  0
  -22.8911   -8.8809   22.2879 C   0  0  0  0  0  0  0  0  0  0  0  0
  -24.9059  -14.8003   19.2016 C   0  0  0  0  0  0  0  0  0  0  0  0
  -24.1485  -16.2343   17.2325 C   0  0  0  0  0  0  0  0  0  0  0  0
  -29.7558  -25.8086   19.7652 C   0  0  0  0  0  0  0  0  0  0  0  0
  -23.6083  -29.8163   19.9318 C   0  0  0  0  0  0  0  0  0  0  0  0
  -28.3634  -26.0059   19.8323 C   0  0  0  0  0  0  0  0  0  0  0  0
  -23.1173  -30.0547   21.2234 C   0  0  0  0  0  0  0  0  0  0  0  0
  -25.3216  -12.3801   20.5255 C   0  0  0  0  0  0  0  0  0  0  0  0
  -20.8982  -29.3860   20.4898 C   0  0  0  0  0  0  0  0  0  0  0  0
  -24.5035  -10.2637   21.1369 C   0  0  0  0  0  0  0  0  0  0  0  0
  -22.4470   -8.3802   21.0641 C   0  0  0  0  0  0  0  0  0  0  0  0
  -23.9194   -9.8227   22.3243 C   0  0  0  0  0  0  0  0  0  0  0  0
  -24.6908  -16.0506   18.5185 C   0  0  0  0  0  0  0  0  0  0  0  0
  -20.2968  -23.8102   22.5131 C   0  0  0  0  0  0  0  0  0  0  0  0
  -24.1551  -17.5954   17.0483 C   0  0  0  0  0  0  0  0  0  0  0  0
  -19.4648  -22.7111   22.5564 C   0  0  0  0  0  0  0  0  0  0  0  0
  -21.6752  -22.3204   21.6822 C   0  0  0  0  0  0  0  0  0  0  0  0
  -23.6805  -15.2617   16.2887 C   0  0  0  0  0  0  0  0  0  0  0  0
  -26.2081  -28.6169   21.3124 C   0  0  0  0  0  0  0  0  0  0  0  0
  -26.2972  -31.5144   22.7681 C   0  0  0  0  0  0  0  0  0  0  0  0
  -17.3814  -21.3702   22.9870 C   0  0  0  0  0  0  0  0  0  0  0  0
  -18.3455  -26.9444   22.1461 C   0  0  0  0  0  0  0  0  0  0  0  0
  -24.6033  -34.2915   23.8001 C   0  0  0  0  0  0  0  0  0  0  0  0
  -24.0415  -22.2261   20.8230 C   0  0  0  0  0  0  0  0  0  0  0  0
  -30.6628  -26.1553   20.9193 C   0  0  0  0  0  0  0  0  0  0  0  0
  -25.0546  -30.0723   19.6074 C   0  0  0  0  0  0  0  0  0  0  0  0
  -24.0111  -30.5390   22.3348 C   0  0  0  0  0  0  0  0  0  0  0  0
  -30.0262  -27.1059   21.9299 C   0  0  0  0  0  0  0  0  0  0  0  0
  -26.5268  -21.5412   18.3672 C   0  0  0  0  0  0  0  0  0  0  0  0
  -28.6126  -26.6489   22.2757 C   0  0  0  0  0  0  0  0  0  0  0  0
  -26.2848  -20.0739   18.0058 C   0  0  0  0  0  0  0  0  0  0  0  0
  -26.2904  -21.8058   19.8530 C   0  0  0  0  0  0  0  0  0  0  0  0
  -24.7457  -19.8925   20.0021 C   0  0  0  0  0  0  0  0  0  0  0  0
  -27.7119  -26.6542   21.0346 C   0  0  1  0  0  0  0  0  0  0  0  0
  -25.9604  -30.0194   20.8338 C   0  0  1  0  0  0  0  0  0  0  0  0
  -24.9084  -19.5906   18.5034 C   0  0  2  0  0  0  0  0  0  0  0  0
  -15.9953  -21.6087   23.5315 C   0  0  0  0  0  0  0  0  0  0  0  0
  -16.7468  -28.6082   21.1923 C   0  0  0  0  0  0  0  0  0  0  0  0
  -24.9384  -36.4725   24.9951 C   0  0  0  0  0  0  0  0  0  0  0  0
  -26.4234  -30.0325   25.4323 C   0  0  0  0  0  0  0  0  0  0  0  0
  -25.8025  -32.1730   26.5728 C   0  0  0  0  0  0  0  0  0  0  0  0
  -27.9272  -32.0245   25.2743 C   0  0  0  0  0  0  0  0  0  0  0  0
  -23.7445  -35.8515   21.4363 C   0  0  0  0  0  0  0  0  0  0  0  0
  -18.9135  -28.1686   20.0050 C   0  0  0  0  0  0  0  0  0  1  0  0
  -19.9435  -25.2125   22.9593 C   0  0  1  0  0  0  0  0  0  0  0  0
  -25.7220  -32.0902   24.0395 C   0  0  1  0  0  0  0  0  0  0  0  0
  -17.7978  -27.5526   20.8521 C   0  0  1  0  0  0  0  0  0  0  0  0
  -24.9059  -35.7711   23.6462 C   0  0  2  0  0  0  0  0  0  0  0  0
  -26.4521  -31.5691   25.3095 C   0  0  0  0  0  0  0  0  0  0  0  0
  -21.1518  -25.9762   23.4808 C   0  0  0  0  0  0  0  0  0  0  0  0
  -25.0183  -17.2028   19.1095 N   0  0  0  0  0  0  0  0  0  0  0  0
  -21.5648  -23.5880   22.0125 N   0  0  0  0  0  0  0  0  0  0  0  0
  -24.6809  -18.1236   18.1906 N   0  0  0  0  0  0  0  0  0  0  0  0
  -25.4187  -30.7687   21.9694 N   0  0  0  0  0  0  0  0  0  0  0  0
  -24.9655  -21.3257   20.2517 N   0  0  0  0  0  0  0  0  0  0  0  0
  -23.7626  -18.3800   16.0222 N   0  0  0  0  0  0  0  0  0  0  0  0
  -23.7455  -13.9060   16.6386 N   0  0  0  0  0  0  0  0  0  0  0  0
  -18.1753  -22.5471   22.9749 N   0  0  0  0  0  0  0  0  0  0  0  0
  -22.8036  -21.6633   21.1319 N   0  0  0  0  0  0  0  0  0  0  0  0
  -27.2947  -28.0034   20.7187 N   0  0  0  0  0  0  0  0  0  0  0  0
  -19.2820  -25.9489   21.9062 N   0  0  0  0  0  0  0  0  0  0  0  0
  -25.7566  -33.5403   23.8831 N   0  0  0  0  0  0  0  0  0  0  0  0
  -23.8686  -36.4266   22.8004 N   0  3  0  0  0  0  0  0  0  0  0  0
  -23.2336  -15.5841   15.1619 O   0  0  0  0  0  0  0  0  0  0  0  0
  -25.4691  -28.1279   22.1589 O   0  0  0  0  0  0  0  0  0  0  0  0
  -27.4805  -31.7246   22.4902 O   0  0  0  0  0  0  0  0  0  0  0  0
  -17.7260  -20.2536   22.6138 O   0  0  0  0  0  0  0  0  0  0  0  0
  -17.9772  -27.3080   23.2608 O   0  0  0  0  0  0  0  0  0  0  0  0
  -23.4584  -33.8470   23.8462 O   0  0  0  0  0  0  0  0  0  0  0  0
  -24.3180  -23.4156   20.9984 O   0  0  0  0  0  0  0  0  0  0  0  0
  -25.5239  -11.1993   21.1714 O   0  0  0  0  0  0  0  0  0  0  0  0
  -19.5826  -29.1736   20.7657 O   0  0  0  0  0  0  0  0  0  1  0  0
  -21.4585   -7.4769   21.0289 F   0  0  0  0  0  0  0  0  0  0  0  0
  -24.3410  -10.3010   23.5030 F   0  0  0  0  0  0  0  0  0  0  0  0
  -21.6933  -25.3421   24.5466 F   0  0  0  0  0  0  0  0  0  0  0  0
  -22.1169  -26.0650   22.5381 F   0  0  0  0  0  0  0  0  0  0  0  0
  -20.8375  -27.2299   23.8699 F   0  0  0  0  0  0  0  0  0  0  0  0
  -20.2927  -21.3386   21.9462 S   0  0  0  0  0  0  0  0  0  0  0  0
  1  2  1  0  0  0  0
  1  5  2  0  0  0  0
  2  6  2  0  0  0  0
  3  8  2  0  0  0  0
  3 15  1  0  0  0  0
  4  9  1  0  0  0  0
  4 15  2  0  0  0  0
  5 17  1  0  0  0  0
  6 19  1  0  0  0  0
  7 10  2  0  0  0  0
  7 18  1  0  0  0  0
  8 21  1  0  0  0  0
  9 21  2  0  0  0  0
 10 22  1  0  0  0  0
 11 12  2  0  0  0  0
 11 23  1  0  0  0  0
 12 24  1  0  0  0  0
 13 20  1  0  0  0  0
 13 22  2  0  0  0  0
 14 24  2  0  0  0  0
 14 25  1  0  0  0  0
 15 26  1  0  0  0  0
 16 26  1  0  0  0  0
 16 28  2  0  0  0  0
 16 31  1  0  0  0  0
 17 19  2  0  0  0  0
 17 38  1  0  0  0  0
 18 20  2  0  0  0  0
 18 39  1  0  0  0  0
 19 47  1  0  0  0  0
 20 40  1  0  0  0  0
 21 84  1  0  0  0  0
 22 85  1  0  0  0  0
 23 25  2  0  0  0  0
 23 84  1  0  0  0  0
 24 86  1  0  0  0  0
 25 87  1  0  0  0  0
 26 64  2  0  0  0  0
 27 29  2  0  0  0  0
 27 58  1  0  0  0  0
 27 65  1  0  0  0  0
 28 66  1  0  0  0  0
 28 69  1  0  0  0  0
 29 71  1  0  0  0  0
 29 91  1  0  0  0  0
 30 65  2  0  0  0  0
 30 72  1  0  0  0  0
 30 91  1  0  0  0  0
 31 70  1  0  0  0  0
 31 77  2  0  0  0  0
 32 48  1  0  0  0  0
 32 73  1  0  0  0  0
 32 78  2  0  0  0  0
 33 59  1  0  0  0  0
 33 67  1  0  0  0  0
 33 79  2  0  0  0  0
 34 50  1  0  0  0  0
 34 71  1  0  0  0  0
 34 80  2  0  0  0  0
 35 60  1  0  0  0  0
 35 74  1  0  0  0  0
 35 81  2  0  0  0  0
 36 61  1  0  0  0  0
 36 75  1  0  0  0  0
 36 82  2  0  0  0  0
 37 68  1  0  0  0  0
 37 72  1  0  0  0  0
 37 83  2  0  0  0  0
 38 41  1  0  0  0  0
 39 48  1  0  0  0  0
 40 67  1  0  0  0  0
 41 43  1  0  0  0  0
 42 44  1  0  0  0  0
 42 45  1  0  0  0  0
 43 47  1  0  0  0  0
 44 49  1  0  0  0  0
 45 68  1  0  0  0  0
 46 49  1  0  0  0  0
 46 68  1  0  0  0  0
 47 73  1  0  0  0  0
 48 67  1  0  0  0  0
 49 66  1  0  0  0  0
 51 60  1  0  0  0  0
 52 61  1  0  0  0  0
 53 62  1  0  0  0  0
 54 62  1  0  0  0  0
 55 62  1  0  0  0  0
 56 76  1  0  0  0  0
 57 60  1  0  0  0  0
 57 85  1  0  0  0  0
 58 63  1  0  0  0  0
 58 74  1  0  0  0  0
 59 62  1  0  0  0  0
 59 75  1  0  0  0  0
 61 76  1  0  0  0  0
 63 88  1  0  0  0  0
 63 89  1  0  0  0  0
 63 90  1  0  0  0  0
 64 66  1  0  0  0  0
M  CHG  1  76   1
M  ISO  4  37 100  57 101  72 100  85 101
M  END
> <Batch ID>
0186

> <Smiles>
CNC(C)C(=O)NC(C(=O)N1Cc2cc([101O:1][101CH2:1]C(C)C(=O)NC(c3nc([100NH:0][100C:0](=O)N4CCCC(n5nc(-c6ccc(Oc7ccc(F)cc7F)cc6)c(C(N)=O)c5N)C4)sc3NC(C)=O)C(F)(F)F)ccc2CC1C(=O)NC1CCCc2ccccc21)C(C)(C)C

> <Shape>
0.294

> <Color>
0.077

> <Negative vol penalty>
0.000

$$$$

  -OEChem-04052305093D

 83 91  0     1  0  0  0  0  0999 V2000
  -23.0088  -23.9402   20.1966 C   0  0  0  0  0  0  0  0  0  0  0  0
  -24.1586  -23.1915   20.4267 C   0  0  0  0  0  0  0  0  0  0  0  0
  -21.2939  -27.8961   20.9204 C   0  0  0  0  0  0  0  0  0  0  0  0
  -22.1083  -26.8547   22.9426 C   0  0  0  0  0  0  0  0  0  0  0  0
  -21.7632  -23.4338   20.5655 C   0  0  0  0  0  0  0  0  0  0  0  0
  -24.0635  -21.9364   21.0269 C   0  0  0  0  0  0  0  0  0  0  0  0
  -26.9175  -18.4536   18.7096 C   0  0  0  0  0  0  0  0  0  0  0  0
  -20.0510  -27.2921   21.1098 C   0  0  0  0  0  0  0  0  0  0  0  0
  -20.8653  -26.2507   23.1321 C   0  0  0  0  0  0  0  0  0  0  0  0
  -28.2855  -18.4703   18.9779 C   0  0  0  0  0  0  0  0  0  0  0  0
  -16.5530  -26.3131   21.2541 C   0  0  0  0  0  0  0  0  0  0  0  0
  -15.4154  -27.0996   21.0727 C   0  0  0  0  0  0  0  0  0  0  0  0
  -27.9948  -16.6562   20.5412 C   0  0  0  0  0  0  0  0  0  0  0  0
  -16.1610  -28.5829   22.8280 C   0  0  0  0  0  0  0  0  0  0  0  0
  -29.0353  -23.1874   23.6818 C   0  0  0  0  0  0  0  0  0  0  0  0
  -22.3226  -27.6773   21.8367 C   0  0  0  0  0  0  0  0  0  0  0  0
  -24.0240  -29.5568   22.1205 C   0  0  0  0  0  0  0  0  0  0  0  0
  -21.6519  -22.1678   21.1616 C   0  0  0  0  0  0  0  0  0  0  0  0
  -26.0748  -17.5439   19.3643 C   0  0  0  0  0  0  0  0  0  0  0  0
  -22.8154  -21.4133   21.4053 C   0  0  0  0  0  0  0  0  0  0  0  0
  -26.6169  -16.6283   20.2775 C   0  0  0  0  0  0  0  0  0  0  0  0
  -19.8367  -26.4694   22.2157 C   0  0  0  0  0  0  0  0  0  0  0  0
  -28.8239  -17.5735   19.8960 C   0  0  0  0  0  0  0  0  0  0  0  0
  -17.4946  -26.6615   22.2226 C   0  0  0  0  0  0  0  0  0  0  0  0
  -15.2194  -28.2345   21.8596 C   0  0  0  0  0  0  0  0  0  0  0  0
  -17.2985  -27.7964   23.0095 C   0  0  0  0  0  0  0  0  0  0  0  0
  -23.6069  -28.3005   21.6413 C   0  0  0  0  0  0  0  0  0  0  0  0
  -30.0406  -23.3579   22.7531 C   0  0  0  0  0  0  0  0  0  0  0  0
  -25.3145  -29.6856   21.6682 C   0  0  0  0  0  0  0  0  0  0  0  0
  -30.1634  -21.1796   22.9759 C   0  0  0  0  0  0  0  0  0  0  0  0
  -23.3089  -30.5210   22.9045 C   0  0  0  0  0  0  0  0  0  0  0  0
  -23.5955  -17.8022   21.3366 C   0  0  0  0  0  0  0  0  0  0  0  0
  -23.4574  -14.5835   20.9589 C   0  0  0  0  0  0  0  0  0  0  0  0
  -25.0833  -11.6850   20.1831 C   0  0  0  0  0  0  0  0  0  0  0  0
  -29.5150  -25.7032   20.1362 C   0  0  0  0  0  0  0  0  0  0  0  0
  -20.2884  -21.6827   21.5862 C   0  0  0  0  0  0  0  0  0  0  0  0
  -24.6053  -17.5208   19.0438 C   0  0  0  0  0  0  0  0  0  0  0  0
  -25.7582  -15.6181   20.9920 C   0  0  0  0  0  0  0  0  0  0  0  0
  -20.2377  -20.1847   21.8756 C   0  0  0  0  0  0  0  0  0  0  0  0
  -28.1871  -28.3047   18.1001 C   0  0  0  0  0  0  0  0  0  0  0  0
  -21.4201  -19.7686   22.7448 C   0  0  0  0  0  0  0  0  0  0  0  0
  -26.9003  -28.7120   18.8200 C   0  0  0  0  0  0  0  0  0  0  0  0
  -28.4355  -26.8010   18.1955 C   0  0  0  0  0  0  0  0  0  0  0  0
  -27.1381  -26.6646   20.2864 C   0  0  0  0  0  0  0  0  0  0  0  0
  -22.7507  -20.0371   22.0314 C   0  0  1  0  0  0  0  0  0  0  0  0
  -23.7622  -16.8950   20.1506 C   0  0  1  0  0  0  0  0  0  0  0  0
  -26.8741  -28.1799   20.2655 C   0  0  2  0  0  0  0  0  0  0  0  0
  -24.7166   -9.2093   19.9982 C   0  0  0  0  0  0  0  0  0  0  0  0
  -23.5199  -14.3494   24.0005 C   0  0  0  0  0  0  0  0  0  0  0  0
  -24.1063  -11.9302   23.7326 C   0  0  0  0  0  0  0  0  0  0  0  0
  -21.9297  -12.7874   22.8664 C   0  0  0  0  0  0  0  0  0  0  0  0
  -32.9827  -17.6229   20.9062 C   0  0  0  0  0  0  0  0  0  0  0  0
  -32.2697  -17.4364   23.2948 C   0  0  0  0  0  0  0  0  0  0  0  0
  -25.7631  -11.6822   17.3027 C   0  0  0  0  0  0  0  0  0  0  0  0
  -30.4663  -24.6457   22.1698 C   0  0  0  0  0  0  0  0  0  0  0  0
  -31.6406  -19.4719   21.9140 C   0  0  0  0  0  0  0  0  0  0  0  0
  -30.5663  -17.1888   21.4683 C   0  0  0  0  0  0  0  0  0  1  0  0
  -24.0687  -13.3970   21.6643 C   0  0  1  0  0  0  0  0  0  0  0  0
  -24.7132  -10.5386   19.2593 C   0  0  2  0  0  0  0  0  0  0  0  0
  -23.4223  -13.1362   23.0541 C   0  0  0  0  0  0  0  0  0  0  0  0
  -31.8466  -17.9377   21.9015 C   0  0  0  0  0  0  0  0  0  0  0  0
  -24.5555  -27.6760   20.9383 N   0  0  0  0  0  0  0  0  0  0  0  0
  -30.6889  -22.2077   22.3475 N   0  0  0  0  0  0  0  0  0  0  0  0
  -25.5814  -28.5434   20.9724 N   0  0  0  0  0  0  0  0  0  0  0  0
  -24.3265  -15.6392   20.6495 N   0  0  0  0  0  0  0  0  0  0  0  0
  -28.3993  -26.3609   19.5923 N   0  0  0  0  0  0  0  0  0  0  0  0
  -26.2356  -30.6635   21.8018 N   0  0  0  0  0  0  0  0  0  0  0  0
  -21.9916  -30.2291   23.2838 N   0  0  0  0  0  0  0  0  0  0  0  0
  -30.5760  -19.8683   22.8072 N   0  0  0  0  0  0  0  0  0  0  0  0
  -23.0066  -19.0161   21.0381 N   0  0  0  0  0  0  0  0  0  0  0  0
  -23.9671  -12.2745   20.7379 N   0  0  0  0  0  0  0  0  0  0  0  0
  -29.4001  -25.3254   21.4684 N   0  0  0  0  0  0  0  0  0  0  0  0
  -25.6810  -10.4507   18.1295 N   0  3  0  0  0  0  0  0  0  0  0  0
  -23.8173  -31.6162   23.2444 O   0  0  0  0  0  0  0  0  0  0  0  0
  -23.9720  -17.4280   22.4412 O   0  0  0  0  0  0  0  0  0  0  0  0
  -22.2545  -14.5708   20.6858 O   0  0  0  0  0  0  0  0  0  0  0  0
  -26.2464  -12.0212   20.3945 O   0  0  0  0  0  0  0  0  0  0  0  0
  -30.5397  -25.4748   19.4844 O   0  0  0  0  0  0  0  0  0  0  0  0
  -18.6238  -25.8801   22.4010 O   0  0  0  0  0  0  0  0  0  0  0  0
  -30.1588  -17.5880   20.1603 O   0  0  0  0  0  0  0  0  0  1  0  0
  -14.1277  -28.9905   21.6842 F   0  0  0  0  0  0  0  0  0  0  0  0
  -18.2002  -28.1368   23.9406 F   0  0  0  0  0  0  0  0  0  0  0  0
  -28.8857  -21.5233   24.0686 S   0  0  0  0  0  0  0  0  0  0  0  0
  1  2  1  0  0  0  0
  1  5  2  0  0  0  0
  2  6  2  0  0  0  0
  3  8  2  0  0  0  0
  3 16  1  0  0  0  0
  4  9  1  0  0  0  0
  4 16  2  0  0  0  0
  5 18  1  0  0  0  0
  6 20  1  0  0  0  0
  7 10  2  0  0  0  0
  7 19  1  0  0  0  0
  8 22  1  0  0  0  0
  9 22  2  0  0  0  0
 10 23  1  0  0  0  0
 11 12  2  0  0  0  0
 11 24  1  0  0  0  0
 12 25  1  0  0  0  0
 13 21  1  0  0  0  0
 13 23  2  0  0  0  0
 14 25  2  0  0  0  0
 14 26  1  0  0  0  0
 15 28  2  0  0  0  0
 15 83  1  0  0  0  0
 16 27  1  0  0  0  0
 17 27  1  0  0  0  0
 17 29  2  0  0  0  0
 17 31  1  0  0  0  0
 18 20  2  0  0  0  0
 18 36  1  0  0  0  0
 19 21  2  0  0  0  0
 19 37  1  0  0  0  0
 20 45  1  0  0  0  0
 21 38  1  0  0  0  0
 22 79  1  0  0  0  0
 23 80  1  0  0  0  0
 24 26  2  0  0  0  0
 24 79  1  0  0  0  0
 25 81  1  0  0  0  0
 26 82  1  0  0  0  0
 27 62  2  0  0  0  0
 28 55  1  0  0  0  0
 28 63  1  0  0  0  0
 29 64  1  0  0  0  0
 29 67  1  0  0  0  0
 30 63  2  0  0  0  0
 30 69  1  0  0  0  0
 30 83  1  0  0  0  0
 31 68  1  0  0  0  0
 31 74  2  0  0  0  0
 32 46  1  0  0  0  0
 32 70  1  0  0  0  0
 32 75  2  0  0  0  0
 33 58  1  0  0  0  0
 33 65  1  0  0  0  0
 33 76  2  0  0  0  0
 34 59  1  0  0  0  0
 34 71  1  0  0  0  0
 34 77  2  0  0  0  0
 35 66  1  0  0  0  0
 35 72  1  0  0  0  0
 35 78  2  0  0  0  0
 36 39  1  0  0  0  0
 37 46  1  0  0  0  0
 38 65  1  0  0  0  0
 39 41  1  0  0  0  0
 40 42  1  0  0  0  0
 40 43  1  0  0  0  0
 41 45  1  0  0  0  0
 42 47  1  0  0  0  0
 43 66  1  0  0  0  0
 44 47  1  0  0  0  0
 44 66  1  0  0  0  0
 45 70  1  0  0  0  0
 46 65  1  0  0  0  0
 47 64  1  0  0  0  0
 48 59  1  0  0  0  0
 49 60  1  0  0  0  0
 50 60  1  0  0  0  0
 51 60  1  0  0  0  0
 52 61  1  0  0  0  0
 53 61  1  0  0  0  0
 54 73  1  0  0  0  0
 55 72  1  0  0  0  0
 56 61  1  0  0  0  0
 56 69  1  0  0  0  0
 57 61  1  0  0  0  0
 57 80  1  0  0  0  0
 58 60  1  0  0  0  0
 58 71  1  0  0  0  0
 59 73  1  0  0  0  0
 62 64  1  0  0  0  0
M  CHG  1  73   1
M  ISO  4  35 100  57 101  72 100  80 101
M  END
> <Batch ID>
0186

> <Smiles>
CNC(C)C(=O)NC(C(=O)N1Cc2cc([101O:1][101CH2:1]C(C)(C)CNc3nc(C[100NH:0][100C:0](=O)N4CCCC(n5nc(-c6ccc(Oc7ccc(F)cc7F)cc6)c(C(N)=O)c5N)C4)cs3)ccc2CC1C(=O)NC1CCCc2ccccc21)C(C)(C)C

> <Shape>
0.226

> <Color>
0.085

> <Negative vol penalty>
0.000

$$$$

  -OEChem-04052305093D

 84 92  0     1  0  0  0  0  0999 V2000
  -27.6744  -16.0205   16.1356 C   0  0  0  0  0  0  0  0  0  0  0  0
  -28.0808  -17.0545   16.9729 C   0  0  0  0  0  0  0  0  0  0  0  0
  -23.0940   -9.8258   20.0439 C   0  0  0  0  0  0  0  0  0  0  0  0
  -23.9227   -9.9401   22.3104 C   0  0  0  0  0  0  0  0  0  0  0  0
  -28.6236  -15.2836   15.4285 C   0  0  0  0  0  0  0  0  0  0  0  0
  -29.4369  -17.3516   17.1044 C   0  0  0  0  0  0  0  0  0  0  0  0
  -30.3640  -22.3262   16.9072 C   0  0  0  0  0  0  0  0  0  0  0  0
  -22.3894   -8.6643   20.3600 C   0  0  0  0  0  0  0  0  0  0  0  0
  -23.2181   -8.7785   22.6266 C   0  0  0  0  0  0  0  0  0  0  0  0
  -30.0971  -23.0696   18.0561 C   0  0  0  0  0  0  0  0  0  0  0  0
  -23.0596   -5.3752   20.7568 C   0  0  0  0  0  0  0  0  0  0  0  0
  -23.1257   -4.3126   19.8557 C   0  0  0  0  0  0  0  0  0  0  0  0
  -32.4424  -23.0299   18.6193 C   0  0  0  0  0  0  0  0  0  0  0  0
  -20.7280   -4.4032   19.5731 C   0  0  0  0  0  0  0  0  0  0  0  0
  -23.8607  -10.4637   21.0191 C   0  0  0  0  0  0  0  0  0  0  0  0
  -24.1305  -12.9904   20.7940 C   0  0  0  0  0  0  0  0  0  0  0  0
  -29.9913  -15.5781   15.5440 C   0  0  0  0  0  0  0  0  0  0  0  0
  -31.6727  -21.9190   16.6110 C   0  0  0  0  0  0  0  0  0  0  0  0
  -30.4053  -16.6171   16.3992 C   0  0  0  0  0  0  0  0  0  0  0  0
  -32.7236  -22.2835   17.4647 C   0  0  0  0  0  0  0  0  0  0  0  0
  -22.4515   -8.1406   21.6514 C   0  0  0  0  0  0  0  0  0  0  0  0
  -31.1360  -23.4191   18.9138 C   0  0  0  0  0  0  0  0  0  0  0  0
  -21.8277   -5.9519   21.0661 C   0  0  0  0  0  0  0  0  0  0  0  0
  -21.9599   -3.8266   19.2638 C   0  0  0  0  0  0  0  0  0  0  0  0
  -20.6619   -5.4659   20.4742 C   0  0  0  0  0  0  0  0  0  0  0  0
  -24.5892  -11.6633   20.6930 C   0  0  0  0  0  0  0  0  0  0  0  0
  -31.5320  -19.2000   21.0200 C   0  0  0  0  0  0  0  0  0  0  0  0
  -25.1905  -13.7534   20.3689 C   0  0  0  0  0  0  0  0  0  0  0  0
  -30.2884  -19.7868   21.1270 C   0  0  0  0  0  0  0  0  0  0  0  0
  -30.2971  -17.4097   20.7373 C   0  0  0  0  0  0  0  0  0  0  0  0
  -22.8599  -13.4889   21.2330 C   0  0  0  0  0  0  0  0  0  0  0  0
  -33.1275  -19.1126   16.2772 C   0  0  0  0  0  0  0  0  0  0  0  0
  -35.6330  -20.9597   15.3644 C   0  0  0  0  0  0  0  0  0  0  0  0
  -30.5527  -22.1109   22.0597 C   0  0  0  0  0  0  0  0  0  0  0  0
  -37.1823  -23.9986   15.4706 C   0  0  0  0  0  0  0  0  0  0  0  0
  -30.6293  -14.9455   20.3328 C   0  0  0  0  0  0  0  0  0  0  0  0
  -30.9835  -14.7231   14.7963 C   0  0  0  0  0  0  0  0  0  0  0  0
  -31.9478  -21.1403   15.3538 C   0  0  0  0  0  0  0  0  0  0  0  0
  -34.1491  -21.8885   17.1812 C   0  0  0  0  0  0  0  0  0  0  0  0
  -32.3745  -15.3450   14.7024 C   0  0  0  0  0  0  0  0  0  0  0  0
  -29.5089  -12.4151   18.0925 C   0  0  0  0  0  0  0  0  0  0  0  0
  -32.8119  -15.8821   16.0614 C   0  0  0  0  0  0  0  0  0  0  0  0
  -28.0914  -12.1031   18.5776 C   0  0  0  0  0  0  0  0  0  0  0  0
  -30.4536  -12.7131   19.2554 C   0  0  0  0  0  0  0  0  0  0  0  0
  -28.5707  -13.4404   20.6678 C   0  0  0  0  0  0  0  0  0  0  0  0
  -31.8654  -16.9857   16.5492 C   0  0  1  0  0  0  0  0  0  0  0  0
  -33.2450  -20.3400   15.4185 C   0  0  1  0  0  0  0  0  0  0  0  0
  -27.5675  -13.1973   19.5284 C   0  0  2  0  0  0  0  0  0  0  0  0
  -32.8322  -19.8941   21.1218 C   0  0  0  0  0  0  0  0  0  0  0  0
  -39.2345  -25.1930   14.6586 C   0  0  0  0  0  0  0  0  0  0  0  0
  -28.8451  -25.2985   20.5945 C   0  0  0  0  0  0  0  0  0  0  0  0
  -37.3038  -19.5146   17.4692 C   0  0  0  0  0  0  0  0  0  0  0  0
  -39.0005  -21.3458   17.2790 C   0  0  0  0  0  0  0  0  0  0  0  0
  -38.4809  -19.9188   15.3000 C   0  0  0  0  0  0  0  0  0  0  0  0
  -35.5769  -25.9716   13.9576 C   0  0  0  0  0  0  0  0  0  0  0  0
  -36.7854  -21.6259   16.0765 C   0  0  1  0  0  0  0  0  0  0  0  0
  -29.7704  -23.4215   22.0629 C   0  0  2  0  0  0  0  0  0  0  0  0
  -37.7769  -24.8650   14.3750 C   0  0  2  0  0  0  0  0  0  0  0  0
  -29.5967  -23.9726   20.6402 C   0  0  2  0  0  0  0  0  0  1  0  0
  -37.8656  -20.6072   16.5378 C   0  0  0  0  0  0  0  0  0  0  0  0
  -25.8429  -11.5842   20.2391 N   0  0  0  0  0  0  0  0  0  0  0  0
  -31.5389  -17.8370   20.7970 N   0  0  0  0  0  0  0  0  0  0  0  0
  -26.1810  -12.8713   20.0511 N   0  0  0  0  0  0  0  0  0  0  0  0
  -34.3662  -21.1223   15.9429 N   0  0  0  0  0  0  0  0  0  0  0  0
  -29.8940  -13.7619   20.1108 N   0  0  0  0  0  0  0  0  0  0  0  0
  -25.3626  -15.0861   20.2395 N   0  0  0  0  0  0  0  0  0  0  0  0
  -21.8836  -12.5675   21.6356 N   0  0  0  0  0  0  0  0  0  0  0  0
  -29.8788  -21.1231   21.3479 N   0  0  0  0  0  0  0  0  0  0  0  0
  -29.8463  -16.0833   20.5247 N   0  0  0  0  0  0  0  0  0  0  0  0
  -32.1463  -18.2305   15.8667 N   0  0  0  0  0  0  0  0  0  0  0  0
  -37.2835  -22.6564   15.1718 N   0  0  0  0  0  0  0  0  0  0  0  0
  -30.4613  -24.4232   22.9261 N   0  3  0  0  0  0  0  0  0  0  0  0
  -37.0213  -26.1443   14.2589 N   0  3  0  0  0  0  0  0  0  0  0  0
  -22.5924  -14.7143   21.2517 O   0  0  0  0  0  0  0  0  0  0  0  0
  -33.8730  -18.9752   17.2401 O   0  0  0  0  0  0  0  0  0  0  0  0
  -35.8478  -20.3246   14.3290 O   0  0  0  0  0  0  0  0  0  0  0  0
  -31.6361  -22.0089   22.6280 O   0  0  0  0  0  0  0  0  0  0  0  0
  -36.6818  -24.4658   16.4913 O   0  0  0  0  0  0  0  0  0  0  0  0
  -31.8629  -14.9543   20.3243 O   0  0  0  0  0  0  0  0  0  0  0  0
  -21.7639   -7.0073   21.9603 O   0  0  0  0  0  0  0  0  0  0  0  0
  -30.8782  -24.1442   20.0362 O   0  0  0  0  0  0  0  0  0  1  0  0
  -22.0237   -2.8071   18.3973 F   0  0  0  0  0  0  0  0  0  0  0  0
  -19.4757   -6.0165   20.7665 F   0  0  0  0  0  0  0  0  0  0  0  0
  -29.0711  -18.5932   20.9404 S   0  0  0  0  0  0  0  0  0  0  0  0
  1  2  1  0  0  0  0
  1  5  2  0  0  0  0
  2  6  2  0  0  0  0
  3  8  2  0  0  0  0
  3 15  1  0  0  0  0
  4  9  1  0  0  0  0
  4 15  2  0  0  0  0
  5 17  1  0  0  0  0
  6 19  1  0  0  0  0
  7 10  2  0  0  0  0
  7 18  1  0  0  0  0
  8 21  1  0  0  0  0
  9 21  2  0  0  0  0
 10 22  1  0  0  0  0
 11 12  2  0  0  0  0
 11 23  1  0  0  0  0
 12 24  1  0  0  0  0
 13 20  1  0  0  0  0
 13 22  2  0  0  0  0
 14 24  2  0  0  0  0
 14 25  1  0  0  0  0
 15 26  1  0  0  0  0
 16 26  1  0  0  0  0
 16 28  2  0  0  0  0
 16 31  1  0  0  0  0
 17 19  2  0  0  0  0
 17 37  1  0  0  0  0
 18 20  2  0  0  0  0
 18 38  1  0  0  0  0
 19 46  1  0  0  0  0
 20 39  1  0  0  0  0
 21 80  1  0  0  0  0
 22 81  1  0  0  0  0
 23 25  2  0  0  0  0
 23 80  1  0  0  0  0
 24 82  1  0  0  0  0
 25 83  1  0  0  0  0
 26 61  2  0  0  0  0
 27 29  2  0  0  0  0
 27 49  1  0  0  0  0
 27 62  1  0  0  0  0
 28 63  1  0  0  0  0
 28 66  1  0  0  0  0
 29 68  1  0  0  0  0
 29 84  1  0  0  0  0
 30 62  2  0  0  0  0
 30 69  1  0  0  0  0
 30 84  1  0  0  0  0
 31 67  1  0  0  0  0
 31 74  2  0  0  0  0
 32 47  1  0  0  0  0
 32 70  1  0  0  0  0
 32 75  2  0  0  0  0
 33 56  1  0  0  0  0
 33 64  1  0  0  0  0
 33 76  2  0  0  0  0
 34 57  1  0  0  0  0
 34 68  1  0  0  0  0
 34 77  2  0  0  0  0
 35 58  1  0  0  0  0
 35 71  1  0  0  0  0
 35 78  2  0  0  0  0
 36 65  1  0  0  0  0
 36 69  1  0  0  0  0
 36 79  2  0  0  0  0
 37 40  1  0  0  0  0
 38 47  1  0  0  0  0
 39 64  1  0  0  0  0
 40 42  1  0  0  0  0
 41 43  1  0  0  0  0
 41 44  1  0  0  0  0
 42 46  1  0  0  0  0
 43 48  1  0  0  0  0
 44 65  1  0  0  0  0
 45 48  1  0  0  0  0
 45 65  1  0  0  0  0
 46 70  1  0  0  0  0
 47 64  1  0  0  0  0
 48 63  1  0  0  0  0
 50 58  1  0  0  0  0
 51 59  1  0  0  0  0
 52 60  1  0  0  0  0
 53 60  1  0  0  0  0
 54 60  1  0  0  0  0
 55 73  1  0  0  0  0
 56 60  1  0  0  0  0
 56 71  1  0  0  0  0
 57 59  1  0  0  0  0
 57 72  1  0  0  0  0
 58 73  1  0  0  0  0
 59 81  1  0  0  0  0
 61 63  1  0  0  0  0
M  CHG  2  72   1  73   1
M  ISO  4  36 100  59 101  69 100  81 101
M  END
> <Batch ID>
0186

> <Smiles>
CNC(C)C(=O)NC(C(=O)N1Cc2cc([101O:1][101CH:1](C)C(N)C(=O)Nc3sc([100NH:0][100C:0](=O)N4CCCC(n5nc(-c6ccc(Oc7ccc(F)cc7F)cc6)c(C(N)=O)c5N)C4)nc3C)ccc2CC1C(=O)NC1CCCc2ccccc21)C(C)(C)C

> <Shape>
0.196

> <Color>
0.180

> <Negative vol penalty>
0.000

$$$$

  -OEChem-04052305093D

 90 98  0     1  0  0  0  0  0999 V2000
  -29.3253  -37.1025   20.1448 C   0  0  0  0  0  0  0  0  0  0  0  0
  -29.6327  -35.7732   19.8731 C   0  0  0  0  0  0  0  0  0  0  0  0
  -24.9374   -9.6502   21.2143 C   0  0  0  0  0  0  0  0  0  0  0  0
  -25.1520  -10.6643   23.3966 C   0  0  0  0  0  0  0  0  0  0  0  0
  -28.4427  -37.4156   21.1777 C   0  0  0  0  0  0  0  0  0  0  0  0
  -29.0585  -34.7561   20.6349 C   0  0  0  0  0  0  0  0  0  0  0  0
  -27.4019  -29.1892   18.6931 C   0  0  0  0  0  0  0  0  0  0  0  0
  -24.7659   -8.4014   21.8114 C   0  0  0  0  0  0  0  0  0  0  0  0
  -24.9804   -9.4155   23.9938 C   0  0  0  0  0  0  0  0  0  0  0  0
  -28.0290  -27.9461   18.7637 C   0  0  0  0  0  0  0  0  0  0  0  0
  -23.9113   -5.0009   22.7713 C   0  0  0  0  0  0  0  0  0  0  0  0
  -22.8919   -4.1833   22.2835 C   0  0  0  0  0  0  0  0  0  0  0  0
  -26.7662  -27.4287   20.7529 C   0  0  0  0  0  0  0  0  0  0  0  0
  -21.2629   -5.8735   22.8551 C   0  0  0  0  0  0  0  0  0  0  0  0
  -25.1305  -10.7817   22.0069 C   0  0  0  0  0  0  0  0  0  0  0  0
  -24.3041  -13.0007   21.0579 C   0  0  0  0  0  0  0  0  0  0  0  0
  -27.8499  -36.4014   21.9463 C   0  0  0  0  0  0  0  0  0  0  0  0
  -26.4586  -29.5665   19.6597 C   0  0  0  0  0  0  0  0  0  0  0  0
  -28.1682  -35.0560   21.6800 C   0  0  0  0  0  0  0  0  0  0  0  0
  -26.1266  -28.6762   20.6908 C   0  0  0  0  0  0  0  0  0  0  0  0
  -24.7874   -8.2840   23.2012 C   0  0  0  0  0  0  0  0  0  0  0  0
  -27.7134  -27.0668   19.7953 C   0  0  0  0  0  0  0  0  0  0  0  0
  -23.6065   -6.2547   23.3011 C   0  0  0  0  0  0  0  0  0  0  0  0
  -21.5677   -4.6196   22.3254 C   0  0  0  0  0  0  0  0  0  0  0  0
  -22.2823   -6.6910   23.3429 C   0  0  0  0  0  0  0  0  0  0  0  0
  -25.3083  -12.0719   21.3906 C   0  0  0  0  0  0  0  0  0  0  0  0
  -26.7810  -21.6209   21.2698 C   0  0  0  0  0  0  0  0  0  0  0  0
  -28.0263  -21.8409   20.7300 C   0  0  0  0  0  0  0  0  0  0  0  0
  -24.9838  -14.0566   20.5013 C   0  0  0  0  0  0  0  0  0  0  0  0
  -27.8625  -19.7292   20.9407 C   0  0  0  0  0  0  0  0  0  0  0  0
  -22.8840  -12.9166   21.2360 C   0  0  0  0  0  0  0  0  0  0  0  0
  -26.2663  -31.8912   21.8190 C   0  0  0  0  0  0  0  0  0  0  0  0
  -23.2873  -30.6909   22.2743 C   0  0  0  0  0  0  0  0  0  0  0  0
  -21.1694  -28.0258   22.0328 C   0  0  0  0  0  0  0  0  0  0  0  0
  -29.2292  -17.6593   20.5001 C   0  0  0  0  0  0  0  0  0  0  0  0
  -26.9385  -36.7909   23.0831 C   0  0  0  0  0  0  0  0  0  0  0  0
  -25.7713  -30.9003   19.5542 C   0  0  0  0  0  0  0  0  0  0  0  0
  -25.1059  -29.0252   21.7419 C   0  0  0  0  0  0  0  0  0  0  0  0
  -26.0829  -35.6374   23.6005 C   0  0  0  0  0  0  0  0  0  0  0  0
  -29.8138  -14.4637   19.0430 C   0  0  0  0  0  0  0  0  0  0  0  0
  -26.9344  -34.3869   23.7956 C   0  0  0  0  0  0  0  0  0  0  0  0
  -28.6112  -13.6329   19.4964 C   0  0  0  0  0  0  0  0  0  0  0  0
  -30.2736  -15.4354   20.1284 C   0  0  0  0  0  0  0  0  0  0  0  0
  -28.0192  -15.4762   21.1210 C   0  0  0  0  0  0  0  0  0  0  0  0
  -27.5464  -33.9236   22.4681 C   0  0  1  0  0  0  0  0  0  0  0  0
  -25.2037  -31.3867   20.8841 C   0  0  1  0  0  0  0  0  0  0  0  0
  -27.4794  -14.5285   20.0374 C   0  0  2  0  0  0  0  0  0  0  0  0
  -18.8057  -27.3376   22.5191 C   0  0  0  0  0  0  0  0  0  0  0  0
  -30.4792  -24.9774   21.6035 C   0  0  0  0  0  0  0  0  0  0  0  0
  -29.8503  -22.8693   18.3669 C   0  0  0  0  0  0  0  0  0  0  0  0
  -23.9625  -30.4780   25.2423 C   0  0  0  0  0  0  0  0  0  0  0  0
  -21.9991  -28.9474   25.5078 C   0  0  0  0  0  0  0  0  0  0  0  0
  -21.6515  -31.2999   24.7546 C   0  0  0  0  0  0  0  0  0  0  0  0
  -25.5586  -19.5328   21.9243 C   0  0  0  0  0  0  0  0  0  0  0  0
  -20.6237  -27.4620   19.1791 C   0  0  0  0  0  0  0  0  0  0  0  0
  -29.6512  -25.7622   19.3492 C   0  0  0  0  0  0  0  0  0  1  0  0
  -22.6869  -29.6294   23.1641 C   0  0  1  0  0  0  0  0  0  0  0  0
  -19.7605  -27.9056   21.4806 C   0  0  2  0  0  0  0  0  0  0  0  0
  -30.4294  -24.6696   20.0987 C   0  0  2  0  0  0  0  0  0  0  0  0
  -29.8941  -23.2402   19.8475 C   0  0  1  0  0  0  0  0  0  0  0  0
  -25.6995  -22.5433   21.6625 C   0  0  0  0  0  0  0  0  0  0  0  0
  -22.5957  -30.0826   24.6486 C   0  0  0  0  0  0  0  0  0  0  0  0
  -25.8061  -23.0057   23.1150 C   0  0  0  0  0  0  0  0  0  0  0  0
  -26.5327  -12.5000   21.0718 N   0  0  0  0  0  0  0  0  0  0  0  0
  -28.6943  -20.6593   20.5272 N   0  0  0  0  0  0  0  0  0  0  0  0
  -26.6903  -20.2636   21.3986 N   0  0  0  0  0  0  0  0  0  0  0  0
  -26.3024  -13.7093   20.5329 N   0  0  0  0  0  0  0  0  0  0  0  0
  -24.4660  -30.3434   21.5992 N   0  0  0  0  0  0  0  0  0  0  0  0
  -29.1498  -16.2534   20.5895 N   0  0  0  0  0  0  0  0  0  0  0  0
  -24.5762  -15.2388   19.9928 N   0  0  0  0  0  0  0  0  0  0  0  0
  -22.3516  -11.7613   21.8244 N   0  0  0  0  0  0  0  0  0  0  0  0
  -28.5718  -23.0721   20.4162 N   0  0  0  0  0  0  0  0  0  0  0  0
  -28.0879  -18.3303   20.9382 N   0  0  0  0  0  0  0  0  0  0  0  0
  -26.5567  -33.2338   21.6687 N   0  0  0  0  0  0  0  0  0  0  0  0
  -21.4035  -29.2749   22.5677 N   0  0  0  0  0  0  0  0  0  0  0  0
  -19.7456  -27.0105   20.2892 N   0  3  0  0  0  0  0  0  0  0  0  0
  -22.1085  -13.8317   20.8690 O   0  0  0  0  0  0  0  0  0  0  0  0
  -26.7834  -31.1198   22.6185 O   0  0  0  0  0  0  0  0  0  0  0  0
  -22.7272  -31.7856   22.1762 O   0  0  0  0  0  0  0  0  0  0  0  0
  -21.9799  -27.1026   21.9967 O   0  0  0  0  0  0  0  0  0  0  0  0
  -30.2249  -18.2252   20.0415 O   0  0  0  0  0  0  0  0  0  0  0  0
  -24.6198   -7.0656   23.7843 O   0  0  0  0  0  0  0  0  0  0  0  0
  -28.3246  -25.8530   19.8670 O   0  0  0  0  0  0  0  0  0  1  0  0
  -20.5890   -3.8350   21.8555 F   0  0  0  0  0  0  0  0  0  0  0  0
  -21.9834   -7.8951   23.8496 F   0  0  0  0  0  0  0  0  0  0  0  0
  -25.6499  -23.6884   20.8965 F   0  0  0  0  0  0  0  0  0  0  0  0
  -24.4391  -22.0026   21.5222 F   0  0  0  0  0  0  0  0  0  0  0  0
  -26.9688  -23.6565   23.3449 F   0  0  0  0  0  0  0  0  0  0  0  0
  -25.7530  -21.9568   23.9636 F   0  0  0  0  0  0  0  0  0  0  0  0
  -24.7996  -23.8484   23.4312 F   0  0  0  0  0  0  0  0  0  0  0  0
  1  2  1  0  0  0  0
  1  5  2  0  0  0  0
  2  6  2  0  0  0  0
  3  8  2  0  0  0  0
  3 15  1  0  0  0  0
  4  9  1  0  0  0  0
  4 15  2  0  0  0  0
  5 17  1  0  0  0  0
  6 19  1  0  0  0  0
  7 10  2  0  0  0  0
  7 18  1  0  0  0  0
  8 21  1  0  0  0  0
  9 21  2  0  0  0  0
 10 22  1  0  0  0  0
 11 12  2  0  0  0  0
 11 23  1  0  0  0  0
 12 24  1  0  0  0  0
 13 20  1  0  0  0  0
 13 22  2  0  0  0  0
 14 24  2  0  0  0  0
 14 25  1  0  0  0  0
 15 26  1  0  0  0  0
 16 26  1  0  0  0  0
 16 29  2  0  0  0  0
 16 31  1  0  0  0  0
 17 19  2  0  0  0  0
 17 36  1  0  0  0  0
 18 20  2  0  0  0  0
 18 37  1  0  0  0  0
 19 45  1  0  0  0  0
 20 38  1  0  0  0  0
 21 82  1  0  0  0  0
 22 83  1  0  0  0  0
 23 25  2  0  0  0  0
 23 82  1  0  0  0  0
 24 84  1  0  0  0  0
 25 85  1  0  0  0  0
 26 64  2  0  0  0  0
 27 28  2  0  0  0  0
 27 61  1  0  0  0  0
 27 66  1  0  0  0  0
 28 65  1  0  0  0  0
 28 72  1  0  0  0  0
 29 67  1  0  0  0  0
 29 70  1  0  0  0  0
 30 65  2  0  0  0  0
 30 66  1  0  0  0  0
 30 73  1  0  0  0  0
 31 71  1  0  0  0  0
 31 77  2  0  0  0  0
 32 46  1  0  0  0  0
 32 74  1  0  0  0  0
 32 78  2  0  0  0  0
 33 57  1  0  0  0  0
 33 68  1  0  0  0  0
 33 79  2  0  0  0  0
 34 58  1  0  0  0  0
 34 75  1  0  0  0  0
 34 80  2  0  0  0  0
 35 69  1  0  0  0  0
 35 73  1  0  0  0  0
 35 81  2  0  0  0  0
 36 39  1  0  0  0  0
 37 46  1  0  0  0  0
 38 68  1  0  0  0  0
 39 41  1  0  0  0  0
 40 42  1  0  0  0  0
 40 43  1  0  0  0  0
 41 45  1  0  0  0  0
 42 47  1  0  0  0  0
 43 69  1  0  0  0  0
 44 47  1  0  0  0  0
 44 69  1  0  0  0  0
 45 74  1  0  0  0  0
 46 68  1  0  0  0  0
 47 67  1  0  0  0  0
 48 58  1  0  0  0  0
 49 59  1  0  0  0  0
 50 60  1  0  0  0  0
 51 62  1  0  0  0  0
 52 62  1  0  0  0  0
 53 62  1  0  0  0  0
 54 66  1  0  0  0  0
 55 76  1  0  0  0  0
 56 59  1  0  0  0  0
 56 83  1  0  0  0  0
 57 62  1  0  0  0  0
 57 75  1  0  0  0  0
 58 76  1  0  0  0  0
 59 60  1  0  0  0  0
 60 72  1  0  0  0  0
 61 63  1  0  0  0  0
 61 86  1  0  0  0  0
 61 87  1  0  0  0  0
 63 88  1  0  0  0  0
 63 89  1  0  0  0  0
 63 90  1  0  0  0  0
 64 67  1  0  0  0  0
M  CHG  1  76   1
M  ISO  4  35 100  56 101  73 100  83 101
M  END
> <Batch ID>
0186

> <Smiles>
CNC(C)C(=O)NC(C(=O)N1Cc2cc([101O:1][101CH2:1]C(C)C(C)Nc3nc([100NH:0][100C:0](=O)N4CCCC(n5nc(-c6ccc(Oc7ccc(F)cc7F)cc6)c(C(N)=O)c5N)C4)n(C)c3C(F)(F)C(F)(F)F)ccc2CC1C(=O)NC1CCCc2ccccc21)C(C)(C)C

> <Shape>
0.332

> <Color>
0.122

> <Negative vol penalty>
0.000

$$$$

  -OEChem-04052305093D

 88 96  0     1  0  0  0  0  0999 V2000
  -24.2560  -34.9734   19.9001 C   0  0  0  0  0  0  0  0  0  0  0  0
  -25.1012  -33.9088   20.1962 C   0  0  0  0  0  0  0  0  0  0  0  0
  -23.5179  -10.7201   21.0628 C   0  0  0  0  0  0  0  0  0  0  0  0
  -24.6320   -9.6414   22.9155 C   0  0  0  0  0  0  0  0  0  0  0  0
  -22.9613  -34.9988   20.4169 C   0  0  0  0  0  0  0  0  0  0  0  0
  -24.6524  -32.8694   21.0102 C   0  0  0  0  0  0  0  0  0  0  0  0
  -25.8797  -28.3065   19.1884 C   0  0  0  0  0  0  0  0  0  0  0  0
  -22.8736   -9.5224   20.7530 C   0  0  0  0  0  0  0  0  0  0  0  0
  -23.9876   -8.4437   22.6057 C   0  0  0  0  0  0  0  0  0  0  0  0
  -27.1928  -27.8777   19.3770 C   0  0  0  0  0  0  0  0  0  0  0  0
  -22.3602   -5.1937   22.5223 C   0  0  0  0  0  0  0  0  0  0  0  0
  -21.8025   -4.4657   23.5733 C   0  0  0  0  0  0  0  0  0  0  0  0
  -26.4779  -26.5303   21.2459 C   0  0  0  0  0  0  0  0  0  0  0  0
  -20.3753   -6.3388   24.1133 C   0  0  0  0  0  0  0  0  0  0  0  0
  -24.3972  -10.7796   22.1441 C   0  0  0  0  0  0  0  0  0  0  0  0
  -24.6066  -13.0290   23.3289 C   0  0  0  0  0  0  0  0  0  0  0  0
  -22.4933  -33.9544   21.2298 C   0  0  0  0  0  0  0  0  0  0  0  0
  -24.8559  -27.8582   20.0353 C   0  0  0  0  0  0  0  0  0  0  0  0
  -23.3507  -32.8815   21.5395 C   0  0  0  0  0  0  0  0  0  0  0  0
  -25.1522  -26.9529   21.0643 C   0  0  0  0  0  0  0  0  0  0  0  0
  -26.6099  -19.3898   18.9803 C   0  0  0  0  0  0  0  0  0  0  0  0
  -23.1084   -8.3842   21.5244 C   0  0  0  0  0  0  0  0  0  0  0  0
  -27.4926  -26.9917   20.4077 C   0  0  0  0  0  0  0  0  0  0  0  0
  -21.9255   -6.4943   22.2668 C   0  0  0  0  0  0  0  0  0  0  0  0
  -20.8100   -5.0382   24.3688 C   0  0  0  0  0  0  0  0  0  0  0  0
  -20.9330   -7.0668   23.0623 C   0  0  0  0  0  0  0  0  0  0  0  0
  -25.0635  -12.0163   22.4643 C   0  0  0  0  0  0  0  0  0  0  0  0
  -26.4905  -20.6157   18.3579 C   0  0  0  0  0  0  0  0  0  0  0  0
  -27.7844  -19.1849   19.6751 C   0  0  0  0  0  0  0  0  0  0  0  0
  -25.5938  -13.9833   23.2919 C   0  0  0  0  0  0  0  0  0  0  0  0
  -28.5371  -21.2549   19.1130 C   0  0  0  0  0  0  0  0  0  0  0  0
  -23.3980  -13.1007   24.0968 C   0  0  0  0  0  0  0  0  0  0  0  0
  -22.8456  -29.2584   22.0606 C   0  0  0  0  0  0  0  0  0  0  0  0
  -21.5818  -26.2775   22.2579 C   0  0  0  0  0  0  0  0  0  0  0  0
  -22.0307  -22.9118   21.9147 C   0  0  0  0  0  0  0  0  0  0  0  0
  -29.0555  -17.0742   20.0273 C   0  0  0  0  0  0  0  0  0  0  0  0
  -21.1018  -34.0491   21.8039 C   0  0  0  0  0  0  0  0  0  0  0  0
  -23.4401  -28.3093   19.8019 C   0  0  0  0  0  0  0  0  0  0  0  0
  -24.0860  -26.4260   21.9884 C   0  0  0  0  0  0  0  0  0  0  0  0
  -20.5778  -32.7244   22.3524 C   0  0  0  0  0  0  0  0  0  0  0  0
  -30.2557  -13.8492   21.3573 C   0  0  0  0  0  0  0  0  0  0  0  0
  -21.6369  -32.0483   23.2172 C   0  0  0  0  0  0  0  0  0  0  0  0
  -28.9624  -13.1490   21.7710 C   0  0  0  0  0  0  0  0  0  0  0  0
  -30.0343  -14.8042   20.1881 C   0  0  0  0  0  0  0  0  0  0  0  0
  -27.6664  -15.1101   20.8438 C   0  0  0  0  0  0  0  0  0  0  0  0
  -22.8922  -31.7231   22.3986 C   0  0  1  0  0  0  0  0  0  0  0  0
  -22.5623  -28.1891   21.0438 C   0  0  1  0  0  0  0  0  0  0  0  0
  -27.8483  -14.1733   22.0476 C   0  0  1  0  0  0  0  0  0  0  0  0
  -24.3663  -18.6638   19.8321 C   0  0  0  0  0  0  0  0  0  0  0  0
  -21.4254  -20.4776   21.8409 C   0  0  0  0  0  0  0  0  0  0  0  0
  -29.7215  -23.3436   17.0494 C   0  0  0  0  0  0  0  0  0  0  0  0
  -21.8967  -26.4800   25.2860 C   0  0  0  0  0  0  0  0  0  0  0  0
  -21.5934  -23.9981   25.4137 C   0  0  0  0  0  0  0  0  0  0  0  0
  -19.7557  -25.4335   24.5275 C   0  0  0  0  0  0  0  0  0  0  0  0
  -27.1800  -17.6460   21.5521 C   0  0  0  0  0  0  0  0  0  0  0  0
  -21.3329  -23.0533   19.0421 C   0  0  0  0  0  0  0  0  0  0  0  0
  -25.5408  -18.3545   18.9066 C   0  0  0  0  0  0  0  0  0  0  0  0
  -30.4323  -24.4855   19.1785 C   0  0  0  0  0  0  0  0  0  0  0  0
  -28.9562  -25.2690   21.1466 C   0  0  0  0  0  0  0  0  0  1  0  0
  -21.8279  -25.0672   23.1261 C   0  0  1  0  0  0  0  0  0  0  0  0
  -21.1937  -21.8490   21.2259 C   0  0  2  0  0  0  0  0  0  0  0  0
  -29.4369  -23.5103   18.5396 C   0  0  2  0  0  0  0  0  0  0  0  0
  -30.2768  -24.6624   20.6916 C   0  0  2  0  0  0  0  0  0  0  0  0
  -21.2891  -25.2560   24.5723 C   0  0  0  0  0  0  0  0  0  0  0  0
  -26.2486  -12.3007   21.9178 N   0  0  0  0  0  0  0  0  0  0  0  0
  -27.4380  -21.5751   18.4038 N   0  0  0  0  0  0  0  0  0  0  0  0
  -28.7729  -20.0990   19.7626 N   0  0  0  0  0  0  0  0  0  0  0  0
  -26.5448  -13.5030   22.4403 N   0  0  0  0  0  0  0  0  0  0  0  0
  -22.7180  -26.9015   21.7236 N   0  0  0  0  0  0  0  0  0  0  0  0
  -28.9400  -15.7375   20.4586 N   0  0  0  0  0  0  0  0  0  0  0  0
  -25.3072  -20.8867   17.6271 N   0  0  0  0  0  0  0  0  0  0  0  0
  -25.7324  -15.1780   23.9050 N   0  0  0  0  0  0  0  0  0  0  0  0
  -22.4927  -12.0336   24.0190 N   0  0  0  0  0  0  0  0  0  0  0  0
  -29.5299  -22.2160   19.1815 N   0  0  0  0  0  0  0  0  0  0  0  0
  -22.6748  -30.5451   21.5865 N   0  0  0  0  0  0  0  0  0  0  0  0
  -21.2496  -23.9313   22.4164 N   0  0  0  0  0  0  0  0  0  0  0  0
  -27.9766  -17.9244   20.3526 N   0  0  0  0  0  0  0  0  0  0  0  0
  -21.5361  -21.7784   19.7772 N   0  3  0  0  0  0  0  0  0  0  0  0
  -23.1212  -14.0893   24.8176 O   0  0  0  0  0  0  0  0  0  0  0  0
  -23.1922  -28.9398   23.1920 O   0  0  0  0  0  0  0  0  0  0  0  0
  -20.4238  -26.6510   22.0552 O   0  0  0  0  0  0  0  0  0  0  0  0
  -23.2546  -22.8425   22.0025 O   0  0  0  0  0  0  0  0  0  0  0  0
  -30.0566  -17.4815   19.4259 O   0  0  0  0  0  0  0  0  0  0  0  0
  -22.4796   -7.2154   21.2225 O   0  0  0  0  0  0  0  0  0  0  0  0
  -28.7736  -26.5721   20.5944 O   0  0  0  0  0  0  0  0  0  1  0  0
  -20.2735   -4.3385   25.3770 F   0  0  0  0  0  0  0  0  0  0  0  0
  -20.5105   -8.3154   22.8210 F   0  0  0  0  0  0  0  0  0  0  0  0
  -31.2765  -25.4986   21.1059 F   0  0  0  0  0  0  0  0  0  0  0  0
  1  2  1  0  0  0  0
  1  5  2  0  0  0  0
  2  6  2  0  0  0  0
  3  8  2  0  0  0  0
  3 15  1  0  0  0  0
  4  9  1  0  0  0  0
  4 15  2  0  0  0  0
  5 17  1  0  0  0  0
  6 19  1  0  0  0  0
  7 10  2  0  0  0  0
  7 18  1  0  0  0  0
  8 22  1  0  0  0  0
  9 22  2  0  0  0  0
 10 23  1  0  0  0  0
 11 12  2  0  0  0  0
 11 24  1  0  0  0  0
 12 25  1  0  0  0  0
 13 20  1  0  0  0  0
 13 23  2  0  0  0  0
 14 25  2  0  0  0  0
 14 26  1  0  0  0  0
 15 27  1  0  0  0  0
 16 27  1  0  0  0  0
 16 30  2  0  0  0  0
 16 32  1  0  0  0  0
 17 19  2  0  0  0  0
 17 37  1  0  0  0  0
 18 20  2  0  0  0  0
 18 38  1  0  0  0  0
 19 46  1  0  0  0  0
 20 39  1  0  0  0  0
 21 28  1  0  0  0  0
 21 29  2  0  0  0  0
 21 57  1  0  0  0  0
 22 84  1  0  0  0  0
 23 85  1  0  0  0  0
 24 26  2  0  0  0  0
 24 84  1  0  0  0  0
 25 86  1  0  0  0  0
 26 87  1  0  0  0  0
 27 65  2  0  0  0  0
 28 66  2  0  0  0  0
 28 71  1  0  0  0  0
 29 67  1  0  0  0  0
 29 77  1  0  0  0  0
 30 68  1  0  0  0  0
 30 72  1  0  0  0  0
 31 66  1  0  0  0  0
 31 67  2  0  0  0  0
 31 74  1  0  0  0  0
 32 73  1  0  0  0  0
 32 79  2  0  0  0  0
 33 47  1  0  0  0  0
 33 75  1  0  0  0  0
 33 80  2  0  0  0  0
 34 60  1  0  0  0  0
 34 69  1  0  0  0  0
 34 81  2  0  0  0  0
 35 61  1  0  0  0  0
 35 76  1  0  0  0  0
 35 82  2  0  0  0  0
 36 70  1  0  0  0  0
 36 77  1  0  0  0  0
 36 83  2  0  0  0  0
 37 40  1  0  0  0  0
 38 47  1  0  0  0  0
 39 69  1  0  0  0  0
 40 42  1  0  0  0  0
 41 43  1  0  0  0  0
 41 44  1  0  0  0  0
 42 46  1  0  0  0  0
 43 48  1  0  0  0  0
 44 70  1  0  0  0  0
 45 48  1  0  0  0  0
 45 70  1  0  0  0  0
 46 75  1  0  0  0  0
 47 69  1  0  0  0  0
 48 68  1  0  0  0  0
 49 57  1  0  0  0  0
 50 61  1  0  0  0  0
 51 62  1  0  0  0  0
 52 64  1  0  0  0  0
 53 64  1  0  0  0  0
 54 64  1  0  0  0  0
 55 77  1  0  0  0  0
 56 78  1  0  0  0  0
 58 62  1  0  0  0  0
 58 63  1  0  0  0  0
 59 63  1  0  0  0  0
 59 85  1  0  0  0  0
 60 64  1  0  0  0  0
 60 76  1  0  0  0  0
 61 78  1  0  0  0  0
 62 74  1  0  0  0  0
 63 88  1  0  0  0  0
 65 68  1  0  0  0  0
M  CHG  1  78   1
M  ISO  4  36 100  59 101  77 100  85 101
M  END
> <Batch ID>
0186

> <Smiles>
CCc1c(N)nc(NC(C)CC(F)[101CH2:1][101O:1]c2ccc3c(c2)CN(C(=O)C(NC(=O)C(C)NC)C(C)(C)C)C(C(=O)NC2CCCc4ccccc42)C3)nc1[100N:0](C)[100C:0](=O)N1CCCC(n2nc(-c3ccc(Oc4ccc(F)cc4F)cc3)c(C(N)=O)c2N)C1

> <Shape>
0.249

> <Color>
0.091

> <Negative vol penalty>
0.000

$$$$

  -OEChem-04052305093D

 85 93  0     1  0  0  0  0  0999 V2000
  -23.5881  -36.8850   17.3369 C   0  0  0  0  0  0  0  0  0  0  0  0
  -23.7100  -35.5748   16.8853 C   0  0  0  0  0  0  0  0  0  0  0  0
  -24.8312   -8.5825   20.8362 C   0  0  0  0  0  0  0  0  0  0  0  0
  -23.1033  -10.0296   19.9659 C   0  0  0  0  0  0  0  0  0  0  0  0
  -24.2217  -37.2767   18.5155 C   0  0  0  0  0  0  0  0  0  0  0  0
  -24.4665  -34.6557   17.6115 C   0  0  0  0  0  0  0  0  0  0  0  0
  -24.7129  -27.6879   19.2564 C   0  0  0  0  0  0  0  0  0  0  0  0
  -23.8601   -7.6682   21.2442 C   0  0  0  0  0  0  0  0  0  0  0  0
  -22.1321   -9.1153   20.3739 C   0  0  0  0  0  0  0  0  0  0  0  0
  -25.5929  -26.6067   19.2352 C   0  0  0  0  0  0  0  0  0  0  0  0
  -21.6702   -7.3344   23.7972 C   0  0  0  0  0  0  0  0  0  0  0  0
  -21.7906   -6.7895   25.0755 C   0  0  0  0  0  0  0  0  0  0  0  0
  -26.5777  -27.3757   21.2988 C   0  0  0  0  0  0  0  0  0  0  0  0
  -21.9335   -4.5757   24.1184 C   0  0  0  0  0  0  0  0  0  0  0  0
  -24.4529   -9.7632   20.1970 C   0  0  0  0  0  0  0  0  0  0  0  0
  -26.1159  -10.7499   18.5332 C   0  0  0  0  0  0  0  0  0  0  0  0
  -24.9785  -36.3595   19.2616 C   0  0  0  0  0  0  0  0  0  0  0  0
  -24.7661  -28.6287   20.2949 C   0  0  0  0  0  0  0  0  0  0  0  0
  -25.1120  -35.0358   18.8005 C   0  0  0  0  0  0  0  0  0  0  0  0
  -25.6956  -28.4665   21.3321 C   0  0  0  0  0  0  0  0  0  0  0  0
  -22.5105   -7.9346   21.0131 C   0  0  0  0  0  0  0  0  0  0  0  0
  -26.5274  -26.4521   20.2550 C   0  0  0  0  0  0  0  0  0  0  0  0
  -21.6814   -6.5000   22.6794 C   0  0  0  0  0  0  0  0  0  0  0  0
  -21.9222   -5.4102   25.2361 C   0  0  0  0  0  0  0  0  0  0  0  0
  -21.8130   -5.1207   22.8400 C   0  0  0  0  0  0  0  0  0  0  0  0
  -25.4556  -10.7083   19.7758 C   0  0  0  0  0  0  0  0  0  0  0  0
  -23.9535  -18.3917   20.1245 C   0  0  0  0  0  0  0  0  0  0  0  0
  -25.1050  -18.2640   20.8727 C   0  0  0  0  0  0  0  0  0  0  0  0
  -26.9654  -11.8248   18.6316 C   0  0  0  0  0  0  0  0  0  0  0  0
  -24.9191  -20.4486   20.9240 C   0  0  0  0  0  0  0  0  0  0  0  0
  -25.9741   -9.8936   17.3921 C   0  0  0  0  0  0  0  0  0  0  0  0
  -25.3544  -31.7476   20.4683 C   0  0  0  0  0  0  0  0  0  0  0  0
  -24.5305  -31.3344   23.5784 C   0  0  0  0  0  0  0  0  0  0  0  0
  -24.2322  -29.2196   26.2402 C   0  0  0  0  0  0  0  0  0  0  0  0
  -26.8752  -16.8113   21.9227 C   0  0  0  0  0  0  0  0  0  0  0  0
  -25.6840  -36.8415   20.5044 C   0  0  0  0  0  0  0  0  0  0  0  0
  -23.7921  -29.7747   20.3172 C   0  0  0  0  0  0  0  0  0  0  0  0
  -25.7800  -29.4375   22.4804 C   0  0  0  0  0  0  0  0  0  0  0  0
  -26.1588  -35.7102   21.4128 C   0  0  0  0  0  0  0  0  0  0  0  0
  -29.4491  -14.3522   21.8531 C   0  0  0  0  0  0  0  0  0  0  0  0
  -26.8595  -34.6286   20.5966 C   0  0  0  0  0  0  0  0  0  0  0  0
  -28.7790  -13.1445   21.1939 C   0  0  0  0  0  0  0  0  0  0  0  0
  -28.4829  -15.1117   22.7604 C   0  0  0  0  0  0  0  0  0  0  0  0
  -26.5486  -14.3008   21.4682 C   0  0  0  0  0  0  0  0  0  0  0  0
  -25.9036  -34.0034   19.5735 C   0  0  1  0  0  0  0  0  0  0  0  0
  -24.2772  -30.9550   21.1532 C   0  0  1  0  0  0  0  0  0  0  0  0
  -27.4644  -13.5418   20.4941 C   0  0  2  0  0  0  0  0  0  0  0  0
  -23.1094  -17.3609   19.4861 C   0  0  0  0  0  0  0  0  0  0  0  0
  -27.9814  -23.6009   18.0543 C   0  0  0  0  0  0  0  0  0  0  0  0
  -23.5680  -29.1798   28.6598 C   0  0  0  0  0  0  0  0  0  0  0  0
  -26.0129  -21.9714   23.4661 C   0  0  0  0  0  0  0  0  0  0  0  0
  -27.1816  -32.6472   24.3251 C   0  0  0  0  0  0  0  0  0  0  0  0
  -26.9012  -31.7355   26.6399 C   0  0  0  0  0  0  0  0  0  0  0  0
  -25.2359  -33.3537   25.7285 C   0  0  0  0  0  0  0  0  0  0  0  0
  -22.0392  -27.2996   25.7266 C   0  0  0  0  0  0  0  0  0  0  0  0
  -27.7261  -23.1327   19.4819 C   0  0  0  0  0  0  0  0  0  0  0  0
  -25.2751  -30.9855   24.8443 C   0  0  1  0  0  0  0  0  0  0  0  0
  -23.0993  -28.9935   27.2251 C   0  0  2  0  0  0  0  0  0  0  0  0
  -26.3182  -22.2177   21.9910 C   0  0  2  0  0  0  0  0  0  0  0  0
  -26.8148  -24.0913   20.2566 C   0  0  1  0  0  0  0  0  0  1  0  0
  -26.6062  -23.7007   21.7267 C   0  0  1  0  0  0  0  0  0  0  0  0
  -26.1484  -32.1631   25.3620 C   0  0  0  0  0  0  0  0  0  0  0  0
  -25.8516  -11.6794   20.6029 N   0  0  0  0  0  0  0  0  0  0  0  0
  -25.6603  -19.4425   21.3317 N   0  0  0  0  0  0  0  0  0  0  0  0
  -26.7700  -12.3413   19.8787 N   0  0  0  0  0  0  0  0  0  0  0  0
  -24.8104  -30.5450   22.4540 N   0  0  0  0  0  0  0  0  0  0  0  0
  -27.2627  -15.4587   22.0287 N   0  0  0  0  0  0  0  0  0  0  0  0
  -27.8529  -12.3689   17.7722 N   0  0  0  0  0  0  0  0  0  0  0  0
  -25.0560   -8.8368   17.4597 N   0  0  0  0  0  0  0  0  0  0  0  0
  -25.7163  -17.0223   21.1763 N   0  0  0  0  0  0  0  0  0  0  0  0
  -25.1844  -21.7768   21.2059 N   0  0  0  0  0  0  0  0  0  0  0  0
  -25.0137  -33.0638   20.2215 N   0  0  0  0  0  0  0  0  0  0  0  0
  -24.2696  -30.5242   25.7954 N   0  0  0  0  0  0  0  0  0  0  0  0
  -22.5574  -27.6125   27.0833 N   0  3  0  0  0  0  0  0  0  0  0  0
  -26.6537  -10.0507   16.3494 O   0  0  0  0  0  0  0  0  0  0  0  0
  -26.4166  -31.2055   20.1860 O   0  0  0  0  0  0  0  0  0  0  0  0
  -23.7246  -32.2683   23.5887 O   0  0  0  0  0  0  0  0  0  0  0  0
  -25.0087  -28.3289   25.9022 O   0  0  0  0  0  0  0  0  0  0  0  0
  -27.5386  -17.7182   22.4320 O   0  0  0  0  0  0  0  0  0  0  0  0
  -21.5626   -7.0426   21.4109 O   0  0  0  0  0  0  0  0  0  0  0  0
  -27.3879  -25.3980   20.2365 O   0  0  0  0  0  0  0  0  0  1  0  0
  -22.0394   -4.8871   26.4637 F   0  0  0  0  0  0  0  0  0  0  0  0
  -21.8256   -4.3141   21.7699 F   0  0  0  0  0  0  0  0  0  0  0  0
  -25.5416  -24.4277   22.1886 F   0  0  0  0  0  0  0  0  0  0  0  0
  -23.5390  -20.0500   19.9851 S   0  0  0  0  0  0  0  0  0  0  0  0
  1  2  1  0  0  0  0
  1  5  2  0  0  0  0
  2  6  2  0  0  0  0
  3  8  2  0  0  0  0
  3 15  1  0  0  0  0
  4  9  1  0  0  0  0
  4 15  2  0  0  0  0
  5 17  1  0  0  0  0
  6 19  1  0  0  0  0
  7 10  2  0  0  0  0
  7 18  1  0  0  0  0
  8 21  1  0  0  0  0
  9 21  2  0  0  0  0
 10 22  1  0  0  0  0
 11 12  2  0  0  0  0
 11 23  1  0  0  0  0
 12 24  1  0  0  0  0
 13 20  1  0  0  0  0
 13 22  2  0  0  0  0
 14 24  2  0  0  0  0
 14 25  1  0  0  0  0
 15 26  1  0  0  0  0
 16 26  1  0  0  0  0
 16 29  2  0  0  0  0
 16 31  1  0  0  0  0
 17 19  2  0  0  0  0
 17 36  1  0  0  0  0
 18 20  2  0  0  0  0
 18 37  1  0  0  0  0
 19 45  1  0  0  0  0
 20 38  1  0  0  0  0
 21 80  1  0  0  0  0
 22 81  1  0  0  0  0
 23 25  2  0  0  0  0
 23 80  1  0  0  0  0
 24 82  1  0  0  0  0
 25 83  1  0  0  0  0
 26 63  2  0  0  0  0
 27 28  2  0  0  0  0
 27 48  1  0  0  0  0
 27 85  1  0  0  0  0
 28 64  1  0  0  0  0
 28 70  1  0  0  0  0
 29 65  1  0  0  0  0
 29 68  1  0  0  0  0
 30 64  2  0  0  0  0
 30 71  1  0  0  0  0
 30 85  1  0  0  0  0
 31 69  1  0  0  0  0
 31 75  2  0  0  0  0
 32 46  1  0  0  0  0
 32 72  1  0  0  0  0
 32 76  2  0  0  0  0
 33 57  1  0  0  0  0
 33 66  1  0  0  0  0
 33 77  2  0  0  0  0
 34 58  1  0  0  0  0
 34 73  1  0  0  0  0
 34 78  2  0  0  0  0
 35 67  1  0  0  0  0
 35 70  1  0  0  0  0
 35 79  2  0  0  0  0
 36 39  1  0  0  0  0
 37 46  1  0  0  0  0
 38 66  1  0  0  0  0
 39 41  1  0  0  0  0
 40 42  1  0  0  0  0
 40 43  1  0  0  0  0
 41 45  1  0  0  0  0
 42 47  1  0  0  0  0
 43 67  1  0  0  0  0
 44 47  1  0  0  0  0
 44 67  1  0  0  0  0
 45 72  1  0  0  0  0
 46 66  1  0  0  0  0
 47 65  1  0  0  0  0
 49 56  1  0  0  0  0
 50 58  1  0  0  0  0
 51 59  1  0  0  0  0
 52 62  1  0  0  0  0
 53 62  1  0  0  0  0
 54 62  1  0  0  0  0
 55 74  1  0  0  0  0
 56 60  1  0  0  0  0
 57 62  1  0  0  0  0
 57 73  1  0  0  0  0
 58 74  1  0  0  0  0
 59 61  1  0  0  0  0
 59 71  1  0  0  0  0
 60 61  1  0  0  0  0
 60 81  1  0  0  0  0
 61 84  1  0  0  0  0
 63 65  1  0  0  0  0
M  CHG  1  74   1
M  ISO  4  35 100  60 101  70 100  81 101
M  END
> <Batch ID>
0186

> <Smiles>
CC[101CH:1](C(F)C(C)Nc1nc([100NH:0][100C:0](=O)N2CCCC(n3nc(-c4ccc(Oc5ccc(F)cc5F)cc4)c(C(N)=O)c3N)C2)c(C)s1)[101O:1]c1ccc2c(c1)CN(C(=O)C(NC(=O)C(C)NC)C(C)(C)C)C(C(=O)NC1CCCc3ccccc31)C2

> <Shape>
0.236

> <Color>
0.108

> <Negative vol penalty>
0.000

$$$$

  -OEChem-04052305093D

 86 94  0     1  0  0  0  0  0999 V2000
  -16.2063  -30.1075   23.5971 C   0  0  0  0  0  0  0  0  0  0  0  0
  -15.8577  -28.7917   23.3097 C   0  0  0  0  0  0  0  0  0  0  0  0
  -30.1416  -23.5198   19.1340 C   0  0  0  0  0  0  0  0  0  0  0  0
  -28.9535  -23.6397   21.2342 C   0  0  0  0  0  0  0  0  0  0  0  0
  -17.5496  -30.4614   23.7159 C   0  0  0  0  0  0  0  0  0  0  0  0
  -16.8523  -27.8293   23.1399 C   0  0  0  0  0  0  0  0  0  0  0  0
  -16.5666  -21.9206   24.7249 C   0  0  0  0  0  0  0  0  0  0  0  0
  -29.8799  -24.8712   18.9087 C   0  0  0  0  0  0  0  0  0  0  0  0
  -28.6918  -24.9912   21.0090 C   0  0  0  0  0  0  0  0  0  0  0  0
  -16.2879  -20.7661   23.9948 C   0  0  0  0  0  0  0  0  0  0  0  0
  -26.5385  -26.8392   19.1709 C   0  0  0  0  0  0  0  0  0  0  0  0
  -25.2443  -27.2983   19.4158 C   0  0  0  0  0  0  0  0  0  0  0  0
  -18.6523  -20.3861   23.7044 C   0  0  0  0  0  0  0  0  0  0  0  0
  -26.1041  -28.8432   21.0624 C   0  0  0  0  0  0  0  0  0  0  0  0
  -22.7014  -17.9410   22.6305 C   0  0  0  0  0  0  0  0  0  0  0  0
  -29.6784  -22.9040   20.2967 C   0  0  0  0  0  0  0  0  0  0  0  0
  -31.0612  -20.9558   21.1912 C   0  0  0  0  0  0  0  0  0  0  0  0
  -18.5609  -29.5008   23.5570 C   0  0  0  0  0  0  0  0  0  0  0  0
  -17.8923  -22.3232   24.9413 C   0  0  0  0  0  0  0  0  0  0  0  0
  -18.2104  -28.1710   23.2554 C   0  0  0  0  0  0  0  0  0  0  0  0
  -18.9453  -21.5448   24.4398 C   0  0  0  0  0  0  0  0  0  0  0  0
  -29.1551  -25.6069   19.8462 C   0  0  0  0  0  0  0  0  0  0  0  0
  -17.3307  -20.0002   23.4820 C   0  0  0  0  0  0  0  0  0  0  0  0
  -27.6154  -27.3820   19.8717 C   0  0  0  0  0  0  0  0  0  0  0  0
  -25.0271  -28.3004   20.3615 C   0  0  0  0  0  0  0  0  0  0  0  0
  -27.3982  -28.3841   20.8175 C   0  0  0  0  0  0  0  0  0  0  0  0
  -29.9479  -21.5078   20.5297 C   0  0  0  0  0  0  0  0  0  0  0  0
  -23.2774  -16.6917   22.5333 C   0  0  0  0  0  0  0  0  0  0  0  0
  -30.8479  -19.5996   21.1490 C   0  0  0  0  0  0  0  0  0  0  0  0
  -20.9496  -16.8239   21.9282 C   0  0  0  0  0  0  0  0  0  0  0  0
  -32.1873  -21.6104   21.7904 C   0  0  0  0  0  0  0  0  0  0  0  0
  -19.6173  -24.8762   24.1600 C   0  0  0  0  0  0  0  0  0  0  0  0
  -21.8547  -23.4528   26.0282 C   0  0  0  0  0  0  0  0  0  0  0  0
  -23.0739  -20.5803   27.4100 C   0  0  0  0  0  0  0  0  0  0  0  0
  -25.8994  -16.2631   20.6684 C   0  0  0  0  0  0  0  0  0  0  0  0
  -20.0007  -29.9406   23.6480 C   0  0  0  0  0  0  0  0  0  0  0  0
  -18.1768  -23.5567   25.7537 C   0  0  0  0  0  0  0  0  0  0  0  0
  -20.3863  -21.9226   24.6615 C   0  0  0  0  0  0  0  0  0  0  0  0
  -20.9810  -28.7838   23.8240 C   0  0  0  0  0  0  0  0  0  0  0  0
  -28.7268  -16.2232   18.5049 C   0  0  0  0  0  0  0  0  0  0  0  0
  -20.6629  -27.6605   22.8422 C   0  0  0  0  0  0  0  0  0  0  0  0
  -29.4608  -17.5232   18.8382 C   0  0  0  0  0  0  0  0  0  0  0  0
  -27.2112  -16.3978   18.5714 C   0  0  0  0  0  0  0  0  0  0  0  0
  -27.4412  -18.2566   20.1732 C   0  0  0  0  0  0  0  0  0  0  0  0
  -19.2597  -27.0933   23.0887 C   0  0  1  0  0  0  0  0  0  0  0  0
  -19.5537  -24.1515   25.4747 C   0  0  1  0  0  0  0  0  0  0  0  0
  -28.9731  -18.1160   20.1739 C   0  0  2  0  0  0  0  0  0  0  0  0
  -24.1940  -14.3392   25.2875 C   0  0  0  0  0  0  0  0  0  0  0  0
  -24.9370  -19.7276   28.8588 C   0  0  0  0  0  0  0  0  0  0  0  0
  -26.6281  -16.1319   24.4920 C   0  0  0  0  0  0  0  0  0  0  0  0
  -17.5429  -17.0386   20.4603 C   0  0  0  0  0  0  0  0  0  0  0  0
  -17.3821  -16.5992   23.4774 C   0  0  0  0  0  0  0  0  0  0  0  0
  -23.7879  -23.6934   23.6798 C   0  0  0  0  0  0  0  0  0  0  0  0
  -25.2655  -22.0212   24.8149 C   0  0  0  0  0  0  0  0  0  0  0  0
  -24.7892  -24.2101   25.9124 C   0  0  0  0  0  0  0  0  0  0  0  0
  -21.1830  -19.6011   29.4654 C   0  0  0  0  0  0  0  0  0  0  0  0
  -24.2658  -15.8587   25.3582 C   0  0  0  0  0  0  0  0  0  0  0  0
  -24.6607  -16.2644   22.8190 C   0  0  2  0  0  0  0  0  0  0  0  0
  -22.9681  -22.4603   25.7948 C   0  0  1  0  0  0  0  0  0  0  0  0
  -23.5089  -20.2494   28.8262 C   0  0  2  0  0  0  0  0  0  0  0  0
  -25.1576  -16.5312   24.2877 C   0  0  2  0  0  0  0  0  0  0  0  0
  -18.6087  -17.5333   21.4357 C   0  0  1  0  0  0  0  0  0  0  0  0
  -18.0235  -17.8209   22.8286 C   0  0  1  0  0  0  0  0  0  1  0  0
  -24.1756  -23.0899   25.0445 C   0  0  0  0  0  0  0  0  0  0  0  0
  -21.3667  -18.0188   22.2835 N   0  0  0  0  0  0  0  0  0  0  0  0
  -29.0911  -20.5783   20.0986 N   0  0  0  0  0  0  0  0  0  0  0  0
  -29.6661  -19.4284   20.4901 N   0  0  0  0  0  0  0  0  0  0  0  0
  -20.6130  -23.1407   25.4568 N   0  0  0  0  0  0  0  0  0  0  0  0
  -26.8142  -16.9621   19.8637 N   0  0  0  0  0  0  0  0  0  0  0  0
  -31.5580  -18.5488   21.6116 N   0  0  0  0  0  0  0  0  0  0  0  0
  -32.2489  -23.0098   21.7445 N   0  0  0  0  0  0  0  0  0  0  0  0
  -19.6600  -16.5390   21.5191 N   0  0  0  0  0  0  0  0  0  0  0  0
  -19.2657  -26.2104   24.2355 N   0  0  0  0  0  0  0  0  0  0  0  0
  -23.3007  -21.9051   27.1023 N   0  0  0  0  0  0  0  0  0  0  0  0
  -25.5819  -16.8648   21.8800 N   0  0  0  0  0  0  0  0  0  0  0  0
  -22.6155  -19.2111   29.4133 N   0  3  0  0  0  0  0  0  0  0  0  0
  -33.1197  -20.9724   22.3355 O   0  0  0  0  0  0  0  0  0  0  0  0
  -19.9614  -24.2702   23.1521 O   0  0  0  0  0  0  0  0  0  0  0  0
  -22.0767  -24.4640   26.6989 O   0  0  0  0  0  0  0  0  0  0  0  0
  -22.5854  -19.7459   26.6511 O   0  0  0  0  0  0  0  0  0  0  0  0
  -25.4065  -15.1803   20.3345 O   0  0  0  0  0  0  0  0  0  0  0  0
  -28.8998  -26.9257   19.6269 O   0  0  0  0  0  0  0  0  0  0  0  0
  -17.0614  -18.8731   22.7684 O   0  0  0  0  0  0  0  0  0  1  0  0
  -23.7845  -28.7422   20.5955 F   0  0  0  0  0  0  0  0  0  0  0  0
  -28.4290  -28.9103   21.4931 F   0  0  0  0  0  0  0  0  0  0  0  0
  -22.1094  -15.5605   21.9881 S   0  0  0  0  0  0  0  0  0  0  0  0
  1  2  1  0  0  0  0
  1  5  2  0  0  0  0
  2  6  2  0  0  0  0
  3  8  2  0  0  0  0
  3 16  1  0  0  0  0
  4  9  1  0  0  0  0
  4 16  2  0  0  0  0
  5 18  1  0  0  0  0
  6 20  1  0  0  0  0
  7 10  2  0  0  0  0
  7 19  1  0  0  0  0
  8 22  1  0  0  0  0
  9 22  2  0  0  0  0
 10 23  1  0  0  0  0
 11 12  2  0  0  0  0
 11 24  1  0  0  0  0
 12 25  1  0  0  0  0
 13 21  1  0  0  0  0
 13 23  2  0  0  0  0
 14 25  2  0  0  0  0
 14 26  1  0  0  0  0
 15 28  2  0  0  0  0
 15 65  1  0  0  0  0
 16 27  1  0  0  0  0
 17 27  1  0  0  0  0
 17 29  2  0  0  0  0
 17 31  1  0  0  0  0
 18 20  2  0  0  0  0
 18 36  1  0  0  0  0
 19 21  2  0  0  0  0
 19 37  1  0  0  0  0
 20 45  1  0  0  0  0
 21 38  1  0  0  0  0
 22 82  1  0  0  0  0
 23 83  1  0  0  0  0
 24 26  2  0  0  0  0
 24 82  1  0  0  0  0
 25 84  1  0  0  0  0
 26 85  1  0  0  0  0
 27 66  2  0  0  0  0
 28 58  1  0  0  0  0
 28 86  1  0  0  0  0
 29 67  1  0  0  0  0
 29 70  1  0  0  0  0
 30 65  2  0  0  0  0
 30 72  1  0  0  0  0
 30 86  1  0  0  0  0
 31 71  1  0  0  0  0
 31 77  2  0  0  0  0
 32 46  1  0  0  0  0
 32 73  1  0  0  0  0
 32 78  2  0  0  0  0
 33 59  1  0  0  0  0
 33 68  1  0  0  0  0
 33 79  2  0  0  0  0
 34 60  1  0  0  0  0
 34 74  1  0  0  0  0
 34 80  2  0  0  0  0
 35 69  1  0  0  0  0
 35 75  1  0  0  0  0
 35 81  2  0  0  0  0
 36 39  1  0  0  0  0
 37 46  1  0  0  0  0
 38 68  1  0  0  0  0
 39 41  1  0  0  0  0
 40 42  1  0  0  0  0
 40 43  1  0  0  0  0
 41 45  1  0  0  0  0
 42 47  1  0  0  0  0
 43 69  1  0  0  0  0
 44 47  1  0  0  0  0
 44 69  1  0  0  0  0
 45 73  1  0  0  0  0
 46 68  1  0  0  0  0
 47 67  1  0  0  0  0
 48 57  1  0  0  0  0
 49 60  1  0  0  0  0
 50 61  1  0  0  0  0
 51 62  1  0  0  0  0
 52 63  1  0  0  0  0
 53 64  1  0  0  0  0
 54 64  1  0  0  0  0
 55 64  1  0  0  0  0
 56 76  1  0  0  0  0
 57 61  1  0  0  0  0
 58 61  1  0  0  0  0
 58 75  1  0  0  0  0
 59 64  1  0  0  0  0
 59 74  1  0  0  0  0
 60 76  1  0  0  0  0
 62 63  1  0  0  0  0
 62 72  1  0  0  0  0
 63 83  1  0  0  0  0
 66 67  1  0  0  0  0
M  CHG  1  76   1
M  ISO  4  35 100  63 101  75 100  83 101
M  END
> <Batch ID>
0186

> <Smiles>
CCC(C)C([100NH:0][100C:0](=O)N1CCCC(n2nc(-c3ccc(Oc4ccc(F)cc4F)cc3)c(C(N)=O)c2N)C1)c1cnc(NC(C)[101CH:1](C)[101O:1]c2ccc3c(c2)CN(C(=O)C(NC(=O)C(C)NC)C(C)(C)C)C(C(=O)NC2CCCc4ccccc42)C3)s1

> <Shape>
0.182

> <Color>
0.078

> <Negative vol penalty>
0.000

$$$$

  -OEChem-04052305093D

 89 97  0     1  0  0  0  0  0999 V2000
  -30.0912  -24.0609   17.8243 C   0  0  0  0  0  0  0  0  0  0  0  0
  -29.1760  -23.5982   18.7644 C   0  0  0  0  0  0  0  0  0  0  0  0
  -30.7796  -18.3727   24.3520 C   0  0  0  0  0  0  0  0  0  0  0  0
  -23.6552  -11.7982   19.2850 C   0  0  0  0  0  0  0  0  0  0  0  0
  -25.1182  -11.5334   21.1894 C   0  0  0  0  0  0  0  0  0  0  0  0
  -30.3857  -25.4217   17.7507 C   0  0  0  0  0  0  0  0  0  0  0  0
  -28.5555  -24.4961   19.6322 C   0  0  0  0  0  0  0  0  0  0  0  0
  -23.5817  -23.6515   20.0713 C   0  0  0  0  0  0  0  0  0  0  0  0
  -23.5447  -10.4120   19.1771 C   0  0  0  0  0  0  0  0  0  0  0  0
  -25.0076  -10.1471   21.0815 C   0  0  0  0  0  0  0  0  0  0  0  0
  -23.1851  -22.5960   20.8912 C   0  0  0  0  0  0  0  0  0  0  0  0
  -24.8223   -6.5440   21.5303 C   0  0  0  0  0  0  0  0  0  0  0  0
  -24.6094   -5.8166   22.7012 C   0  0  0  0  0  0  0  0  0  0  0  0
  -30.2952  -19.2002   23.2981 C   0  0  0  0  0  0  0  0  0  0  0  0
  -22.7004  -24.1614   22.6615 C   0  0  0  0  0  0  0  0  0  0  0  0
  -22.5527   -7.0268   23.0790 C   0  0  0  0  0  0  0  0  0  0  0  0
  -29.8320  -17.4675   24.7764 C   0  0  0  0  0  0  0  0  0  0  0  0
  -24.4420  -12.3589   20.2911 C   0  0  0  0  0  0  0  0  0  0  0  0
  -23.7363  -14.6537   21.1535 C   0  0  0  0  0  0  0  0  0  0  0  0
  -29.7612  -26.3379   18.6116 C   0  0  0  0  0  0  0  0  0  0  0  0
  -23.5509  -24.9711   20.5447 C   0  0  0  0  0  0  0  0  0  0  0  0
  -28.8429  -25.8703   19.5710 C   0  0  0  0  0  0  0  0  0  0  0  0
  -23.0947  -25.2321   21.8447 C   0  0  0  0  0  0  0  0  0  0  0  0
  -24.2208   -9.5864   20.0754 C   0  0  0  0  0  0  0  0  0  0  0  0
  -22.7470  -22.8506   22.1875 C   0  0  0  0  0  0  0  0  0  0  0  0
  -23.9005   -7.5129   21.1337 C   0  0  0  0  0  0  0  0  0  0  0  0
  -23.4746   -6.0579   23.4756 C   0  0  0  0  0  0  0  0  0  0  0  0
  -22.7657   -7.7542   21.9080 C   0  0  0  0  0  0  0  0  0  0  0  0
  -24.5571  -13.7909   20.4027 C   0  0  0  0  0  0  0  0  0  0  0  0
  -28.9956  -18.8957   22.9570 C   0  0  0  0  0  0  0  0  0  0  0  0
  -24.2569  -15.9047   20.9287 C   0  0  0  0  0  0  0  0  0  0  0  0
  -22.6046  -14.3514   21.9802 C   0  0  0  0  0  0  0  0  0  0  0  0
  -25.7317  -27.2330   21.0258 C   0  0  0  0  0  0  0  0  0  0  0  0
  -28.7021  -19.2763   20.5263 C   0  0  0  0  0  0  0  0  0  0  0  0
  -23.1307  -29.0535   21.6913 C   0  0  0  0  0  0  0  0  0  0  0  0
  -25.2826  -20.4907   24.6707 C   0  0  0  0  0  0  0  0  0  0  0  0
  -26.9424  -22.9322   23.4257 C   0  0  0  0  0  0  0  0  0  0  0  0
  -19.8715  -29.1928   22.6940 C   0  0  0  0  0  0  0  0  0  0  0  0
  -30.1470  -27.7934   18.5261 C   0  0  0  0  0  0  0  0  0  0  0  0
  -23.9568  -26.1010   19.6387 C   0  0  0  0  0  0  0  0  0  0  0  0
  -23.0235  -26.6327   22.3939 C   0  0  0  0  0  0  0  0  0  0  0  0
  -29.1659  -28.7261   19.2317 C   0  0  0  0  0  0  0  0  0  0  0  0
  -27.6886  -17.4999   17.5840 C   0  0  0  0  0  0  0  0  0  0  0  0
  -28.8150  -28.1849   20.6140 C   0  0  0  0  0  0  0  0  0  0  0  0
  -26.7399  -16.4286   18.1203 C   0  0  0  0  0  0  0  0  0  0  0  0
  -28.8254  -17.7794   18.5620 C   0  0  0  0  0  0  0  0  0  0  0  0
  -27.4191  -17.0802   20.4739 C   0  0  0  0  0  0  0  0  0  0  0  0
  -28.1305  -26.8163   20.5132 C   0  0  1  0  0  0  0  0  0  0  0  0
  -24.3718  -27.3569   20.3989 C   0  0  1  0  0  0  0  0  0  0  0  0
  -26.2389  -16.7896   19.5300 C   0  0  2  0  0  0  0  0  0  0  0  0
  -18.0281  -30.8247   23.1800 C   0  0  0  0  0  0  0  0  0  0  0  0
  -24.4616  -29.7633   24.3437 C   0  0  0  0  0  0  0  0  0  0  0  0
  -22.2399  -30.5789   25.1604 C   0  0  0  0  0  0  0  0  0  0  0  0
  -23.3262  -31.6765   23.2013 C   0  0  0  0  0  0  0  0  0  0  0  0
  -22.9228  -20.8566   26.6016 C   0  0  0  0  0  0  0  0  0  0  0  0
  -21.4635  -19.7741   24.8882 C   0  0  0  0  0  0  0  0  0  0  0  0
  -18.1450  -28.0501   20.5793 C   0  0  0  0  0  0  0  0  0  0  0  0
  -23.9292  -19.8182   24.5104 C   0  0  0  0  0  0  0  0  0  0  0  0
  -27.9235  -21.0517   22.0833 C   0  0  0  0  0  0  0  0  0  0  0  0
  -22.5520  -21.9865   24.3947 C   0  0  0  0  0  0  0  0  0  1  0  0
  -28.1254  -19.5354   21.8953 C   0  0  2  0  0  0  0  0  0  0  0  0
  -22.3345  -29.3661   22.9353 C   0  0  1  0  0  0  0  0  0  0  0  0
  -27.1789  -21.4292   23.3711 C   0  0  2  0  0  0  0  0  0  0  0  0
  -18.6747  -29.9361   22.1287 C   0  0  2  0  0  0  0  0  0  0  0  0
  -23.0936  -30.3195   23.9008 C   0  0  0  0  0  0  0  0  0  0  0  0
  -22.7381  -20.6216   25.0915 C   0  0  0  0  0  0  0  0  0  0  0  0
  -25.5254  -14.4389   19.7497 N   0  0  0  0  0  0  0  0  0  0  0  0
  -25.3163  -15.7223   20.0893 N   0  0  0  0  0  0  0  0  0  0  0  0
  -23.4371  -27.7031   21.4715 N   0  0  0  0  0  0  0  0  0  0  0  0
  -28.3089  -18.0962   19.8947 N   0  0  0  0  0  0  0  0  0  0  0  0
  -23.9071  -17.1320   21.3689 N   0  0  0  0  0  0  0  0  0  0  0  0
  -22.2038  -13.0139   22.1012 N   0  0  0  0  0  0  0  0  0  0  0  0
  -27.9699  -23.6128   24.0444 N   0  0  0  0  0  0  0  0  0  0  0  0
  -26.7453  -26.9715   20.1238 N   0  0  0  0  0  0  0  0  0  0  0  0
  -21.0477  -29.8794   22.4780 N   0  0  0  0  0  0  0  0  0  0  0  0
  -25.8896  -20.7845   23.4618 N   0  0  0  0  0  0  0  0  0  0  0  0
  -17.6517  -28.9714   21.6351 N   0  3  0  0  0  0  0  0  0  0  0  0
  -21.9577  -15.2429   22.5805 O   0  0  0  0  0  0  0  0  0  0  0  0
  -25.8526  -27.3665   22.2379 O   0  0  0  0  0  0  0  0  0  0  0  0
  -29.4764  -20.1007   20.0333 O   0  0  0  0  0  0  0  0  0  0  0  0
  -23.4623  -29.9728   20.9386 O   0  0  0  0  0  0  0  0  0  0  0  0
  -25.7537  -20.7359   25.7795 O   0  0  0  0  0  0  0  0  0  0  0  0
  -25.9630  -23.4879   22.9342 O   0  0  0  0  0  0  0  0  0  0  0  0
  -19.7725  -28.1131   23.2727 O   0  0  0  0  0  0  0  0  0  0  0  0
  -24.1130   -8.2336   19.9705 O   0  0  0  0  0  0  0  0  0  0  0  0
  -22.3599  -21.8221   22.9902 O   0  0  0  0  0  0  0  0  0  1  0  0
  -23.2694   -5.3582   24.5992 F   0  0  0  0  0  0  0  0  0  0  0  0
  -21.8760   -8.6829   21.5315 F   0  0  0  0  0  0  0  0  0  0  0  0
  -28.3651  -17.6171   23.9057 S   0  0  0  0  0  0  0  0  0  0  0  0
  1  2  1  0  0  0  0
  1  6  2  0  0  0  0
  2  7  2  0  0  0  0
  3 14  1  0  0  0  0
  3 17  2  0  0  0  0
  4  9  2  0  0  0  0
  4 18  1  0  0  0  0
  5 10  1  0  0  0  0
  5 18  2  0  0  0  0
  6 20  1  0  0  0  0
  7 22  1  0  0  0  0
  8 11  2  0  0  0  0
  8 21  1  0  0  0  0
  9 24  1  0  0  0  0
 10 24  2  0  0  0  0
 11 25  1  0  0  0  0
 12 13  2  0  0  0  0
 12 26  1  0  0  0  0
 13 27  1  0  0  0  0
 14 30  2  0  0  0  0
 15 23  1  0  0  0  0
 15 25  2  0  0  0  0
 16 27  2  0  0  0  0
 16 28  1  0  0  0  0
 17 89  1  0  0  0  0
 18 29  1  0  0  0  0
 19 29  1  0  0  0  0
 19 31  2  0  0  0  0
 19 32  1  0  0  0  0
 20 22  2  0  0  0  0
 20 39  1  0  0  0  0
 21 23  2  0  0  0  0
 21 40  1  0  0  0  0
 22 48  1  0  0  0  0
 23 41  1  0  0  0  0
 24 85  1  0  0  0  0
 25 86  1  0  0  0  0
 26 28  2  0  0  0  0
 26 85  1  0  0  0  0
 27 87  1  0  0  0  0
 28 88  1  0  0  0  0
 29 67  2  0  0  0  0
 30 61  1  0  0  0  0
 30 89  1  0  0  0  0
 31 68  1  0  0  0  0
 31 71  1  0  0  0  0
 32 72  1  0  0  0  0
 32 78  2  0  0  0  0
 33 49  1  0  0  0  0
 33 74  1  0  0  0  0
 33 79  2  0  0  0  0
 34 61  1  0  0  0  0
 34 70  1  0  0  0  0
 34 80  2  0  0  0  0
 35 62  1  0  0  0  0
 35 69  1  0  0  0  0
 35 81  2  0  0  0  0
 36 58  1  0  0  0  0
 36 76  1  0  0  0  0
 36 82  2  0  0  0  0
 37 63  1  0  0  0  0
 37 73  1  0  0  0  0
 37 83  2  0  0  0  0
 38 64  1  0  0  0  0
 38 75  1  0  0  0  0
 38 84  2  0  0  0  0
 39 42  1  0  0  0  0
 40 49  1  0  0  0  0
 41 69  1  0  0  0  0
 42 44  1  0  0  0  0
 43 45  1  0  0  0  0
 43 46  1  0  0  0  0
 44 48  1  0  0  0  0
 45 50  1  0  0  0  0
 46 70  1  0  0  0  0
 47 50  1  0  0  0  0
 47 70  1  0  0  0  0
 48 74  1  0  0  0  0
 49 69  1  0  0  0  0
 50 68  1  0  0  0  0
 51 64  1  0  0  0  0
 52 65  1  0  0  0  0
 53 65  1  0  0  0  0
 54 65  1  0  0  0  0
 55 66  1  0  0  0  0
 56 66  1  0  0  0  0
 57 77  1  0  0  0  0
 58 66  1  0  0  0  0
 59 61  1  0  0  0  0
 59 63  1  0  0  0  0
 60 66  1  0  0  0  0
 60 86  1  0  0  0  0
 62 65  1  0  0  0  0
 62 75  1  0  0  0  0
 63 76  1  0  0  0  0
 64 77  1  0  0  0  0
 67 68  1  0  0  0  0
M  CHG  1  77   1
M  ISO  4  34 100  60 101  61 100  86 101
M  END
> <Batch ID>
0186

> <Smiles>
CNC(C)C(=O)NC(C(=O)N1Cc2cc([101O:1][101CH2:1]C(C)(C)CC(=O)NC(C[100CH:0](c3cccs3)[100C:0](=O)N3CCCC(n4nc(-c5ccc(Oc6ccc(F)cc6F)cc5)c(C(N)=O)c4N)C3)C(N)=O)ccc2CC1C(=O)NC1CCCc2ccccc21)C(C)(C)C

> <Shape>
0.239

> <Color>
0.052

> <Negative vol penalty>
0.000

$$$$

  -OEChem-04052305093D

 85 93  0     1  0  0  0  0  0999 V2000
  -19.6953  -34.2864   21.2994 C   0  0  0  0  0  0  0  0  0  0  0  0
  -20.9855  -33.8659   20.9928 C   0  0  0  0  0  0  0  0  0  0  0  0
  -25.7659  -13.3704   21.4062 C   0  0  0  0  0  0  0  0  0  0  0  0
  -25.0706  -14.0024   19.1804 C   0  0  0  0  0  0  0  0  0  0  0  0
  -18.9467  -33.5969   22.2524 C   0  0  0  0  0  0  0  0  0  0  0  0
  -21.5283  -32.7564   21.6398 C   0  0  0  0  0  0  0  0  0  0  0  0
  -25.3638  -28.6179   19.2590 C   0  0  0  0  0  0  0  0  0  0  0  0
  -24.7307  -12.4374   21.4648 C   0  0  0  0  0  0  0  0  0  0  0  0
  -24.0353  -13.0693   19.2390 C   0  0  0  0  0  0  0  0  0  0  0  0
  -26.7486  -28.4730   19.3292 C   0  0  0  0  0  0  0  0  0  0  0  0
  -24.1100   -9.3283   20.2896 C   0  0  0  0  0  0  0  0  0  0  0  0
  -24.4094   -8.0579   20.7817 C   0  0  0  0  0  0  0  0  0  0  0  0
  -26.4871  -26.9141   21.1515 C   0  0  0  0  0  0  0  0  0  0  0  0
  -22.7922   -8.3622   22.5507 C   0  0  0  0  0  0  0  0  0  0  0  0
  -25.9034  -21.9091   16.4187 C   0  0  0  0  0  0  0  0  0  0  0  0
  -25.9358  -14.1529   20.2641 C   0  0  0  0  0  0  0  0  0  0  0  0
  -28.3148  -14.9056   19.7336 C   0  0  0  0  0  0  0  0  0  0  0  0
  -19.4771  -32.4725   22.9044 C   0  0  0  0  0  0  0  0  0  0  0  0
  -24.5293  -27.9192   20.1432 C   0  0  0  0  0  0  0  0  0  0  0  0
  -20.7866  -32.0520   22.6033 C   0  0  0  0  0  0  0  0  0  0  0  0
  -25.0918  -27.0500   21.0888 C   0  0  0  0  0  0  0  0  0  0  0  0
  -23.8654  -12.2869   20.3811 C   0  0  0  0  0  0  0  0  0  0  0  0
  -27.3106  -27.6232   20.2774 C   0  0  0  0  0  0  0  0  0  0  0  0
  -23.1519  -10.1157   20.9281 C   0  0  0  0  0  0  0  0  0  0  0  0
  -23.7504   -7.5749   21.9122 C   0  0  0  0  0  0  0  0  0  0  0  0
  -22.4930   -9.6326   22.0586 C   0  0  0  0  0  0  0  0  0  0  0  0
  -27.0047  -15.1173   20.2032 C   0  0  0  0  0  0  0  0  0  0  0  0
  -26.2953  -22.3074   17.7108 C   0  0  0  0  0  0  0  0  0  0  0  0
  -28.9344  -16.1222   19.8845 C   0  0  0  0  0  0  0  0  0  0  0  0
  -25.8074  -23.0829   15.7119 C   0  0  0  0  0  0  0  0  0  0  0  0
  -28.9179  -13.7159   19.2078 C   0  0  0  0  0  0  0  0  0  0  0  0
  -22.4391  -28.7542   22.3877 C   0  0  0  0  0  0  0  0  0  0  0  0
  -21.8523  -25.5651   22.4777 C   0  0  0  0  0  0  0  0  0  0  0  0
  -29.4476  -26.6761   17.6688 C   0  0  0  0  0  0  0  0  0  0  0  0
  -22.9714  -22.3956   21.8876 C   0  0  0  0  0  0  0  0  0  0  0  0
  -26.9059  -21.7390   20.0878 C   0  0  0  0  0  0  0  0  0  0  0  0
  -18.6474  -31.7878   23.9616 C   0  0  0  0  0  0  0  0  0  0  0  0
  -23.0361  -28.0661   20.0369 C   0  0  0  0  0  0  0  0  0  0  0  0
  -24.2388  -26.2618   22.0476 C   0  0  0  0  0  0  0  0  0  0  0  0
  -19.1575  -30.3971   24.3303 C   0  0  0  0  0  0  0  0  0  0  0  0
  -28.8183  -20.0739   22.5873 C   0  0  0  0  0  0  0  0  0  0  0  0
  -20.6673  -30.4223   24.5464 C   0  0  0  0  0  0  0  0  0  0  0  0
  -28.6945  -18.5950   22.2133 C   0  0  0  0  0  0  0  0  0  0  0  0
  -27.5222  -20.8370   22.3198 C   0  0  0  0  0  0  0  0  0  0  0  0
  -26.8636  -19.2159   20.5855 C   0  0  0  0  0  0  0  0  0  0  0  0
  -21.4011  -30.8380   23.2657 C   0  0  1  0  0  0  0  0  0  0  0  0
  -22.3065  -27.6996   21.3256 C   0  0  1  0  0  0  0  0  0  0  0  0
  -28.1648  -18.4196   20.7766 C   0  0  2  0  0  0  0  0  0  0  0  0
  -22.8890  -19.8946   21.6980 C   0  0  0  0  0  0  0  0  0  0  0  0
  -29.9239  -25.7418   21.4095 C   0  0  0  0  0  0  0  0  0  0  0  0
  -22.3606  -25.6832   25.4840 C   0  0  0  0  0  0  0  0  0  0  0  0
  -22.5987  -23.1910   25.4712 C   0  0  0  0  0  0  0  0  0  0  0  0
  -20.4343  -24.2388   24.8076 C   0  0  0  0  0  0  0  0  0  0  0  0
  -22.0301  -22.5231   19.0846 C   0  0  0  0  0  0  0  0  0  0  0  0
  -30.1306  -26.2027   18.9436 C   0  0  0  0  0  0  0  0  0  0  0  0
  -26.1757  -25.5051   16.3022 C   0  0  0  0  0  0  0  0  0  0  0  0
  -27.5930  -26.0409   16.1310 C   0  0  0  0  0  0  0  0  0  0  0  0
  -22.4172  -24.3954   23.2469 C   0  0  1  0  0  0  0  0  0  0  0  0
  -22.3245  -21.2124   21.1904 C   0  0  2  0  0  0  0  0  0  0  0  0
  -29.1882  -26.1694   20.1464 C   0  0  2  0  0  0  0  0  0  1  0  0
  -21.9692  -24.3933   24.7358 C   0  0  0  0  0  0  0  0  0  0  0  0
  -26.8028  -16.3696   20.6213 N   0  0  0  0  0  0  0  0  0  0  0  0
  -26.4387  -23.6308   17.8211 N   0  0  0  0  0  0  0  0  0  0  0  0
  -27.9944  -16.9559   20.4150 N   0  0  0  0  0  0  0  0  0  0  0  0
  -26.1352  -24.0742   16.5893 N   0  0  0  0  0  0  0  0  0  0  0  0
  -22.7845  -26.4442   21.9084 N   0  0  0  0  0  0  0  0  0  0  0  0
  -27.0831  -20.6273   20.9384 N   0  0  0  0  0  0  0  0  0  0  0  0
  -30.1861  -16.5493   19.6139 N   0  0  0  0  0  0  0  0  0  0  0  0
  -28.1390  -12.5538   19.1220 N   0  0  0  0  0  0  0  0  0  0  0  0
  -26.5181  -21.4146   18.7882 N   0  0  0  0  0  0  0  0  0  0  0  0
  -21.4625  -29.7304   22.3363 N   0  0  0  0  0  0  0  0  0  0  0  0
  -28.4108  -25.8292   17.3034 N   0  0  0  0  0  0  0  0  0  0  0  0
  -22.0360  -23.1976   22.5065 N   0  0  0  0  0  0  0  0  0  0  0  0
  -22.5561  -21.2876   19.7201 N   0  3  0  0  0  0  0  0  0  0  0  0
  -30.1168  -13.6798   18.8407 O   0  0  0  0  0  0  0  0  0  0  0  0
  -23.3585  -28.6863   23.1951 O   0  0  0  0  0  0  0  0  0  0  0  0
  -20.6291  -25.6902   22.3794 O   0  0  0  0  0  0  0  0  0  0  0  0
  -29.7881  -27.6839   17.0556 O   0  0  0  0  0  0  0  0  0  0  0  0
  -24.1855  -22.5870   21.8867 O   0  0  0  0  0  0  0  0  0  0  0  0
  -27.1113  -22.8920   20.4755 O   0  0  0  0  0  0  0  0  0  0  0  0
  -22.8553  -11.3764   20.4378 O   0  0  0  0  0  0  0  0  0  0  0  0
  -28.6621  -27.4804   20.3485 O   0  0  0  0  0  0  0  0  0  1  0  0
  -24.0368   -6.3543   22.3838 F   0  0  0  0  0  0  0  0  0  0  0  0
  -21.5707  -10.3840   22.6756 F   0  0  0  0  0  0  0  0  0  0  0  0
  -25.4632  -23.2248   14.4321 F   0  0  0  0  0  0  0  0  0  0  0  0
  1  2  1  0  0  0  0
  1  5  2  0  0  0  0
  2  6  2  0  0  0  0
  3  8  2  0  0  0  0
  3 16  1  0  0  0  0
  4  9  1  0  0  0  0
  4 16  2  0  0  0  0
  5 18  1  0  0  0  0
  6 20  1  0  0  0  0
  7 10  2  0  0  0  0
  7 19  1  0  0  0  0
  8 22  1  0  0  0  0
  9 22  2  0  0  0  0
 10 23  1  0  0  0  0
 11 12  2  0  0  0  0
 11 24  1  0  0  0  0
 12 25  1  0  0  0  0
 13 21  1  0  0  0  0
 13 23  2  0  0  0  0
 14 25  2  0  0  0  0
 14 26  1  0  0  0  0
 15 28  1  0  0  0  0
 15 30  2  0  0  0  0
 16 27  1  0  0  0  0
 17 27  1  0  0  0  0
 17 29  2  0  0  0  0
 17 31  1  0  0  0  0
 18 20  2  0  0  0  0
 18 37  1  0  0  0  0
 19 21  2  0  0  0  0
 19 38  1  0  0  0  0
 20 46  1  0  0  0  0
 21 39  1  0  0  0  0
 22 81  1  0  0  0  0
 23 82  1  0  0  0  0
 24 26  2  0  0  0  0
 24 81  1  0  0  0  0
 25 83  1  0  0  0  0
 26 84  1  0  0  0  0
 27 62  2  0  0  0  0
 28 63  2  0  0  0  0
 28 70  1  0  0  0  0
 29 64  1  0  0  0  0
 29 68  1  0  0  0  0
 30 65  1  0  0  0  0
 30 85  1  0  0  0  0
 31 69  1  0  0  0  0
 31 75  2  0  0  0  0
 32 47  1  0  0  0  0
 32 71  1  0  0  0  0
 32 76  2  0  0  0  0
 33 58  1  0  0  0  0
 33 66  1  0  0  0  0
 33 77  2  0  0  0  0
 34 55  1  0  0  0  0
 34 72  1  0  0  0  0
 34 78  2  0  0  0  0
 35 59  1  0  0  0  0
 35 73  1  0  0  0  0
 35 79  2  0  0  0  0
 36 67  1  0  0  0  0
 36 70  1  0  0  0  0
 36 80  2  0  0  0  0
 37 40  1  0  0  0  0
 38 47  1  0  0  0  0
 39 66  1  0  0  0  0
 40 42  1  0  0  0  0
 41 43  1  0  0  0  0
 41 44  1  0  0  0  0
 42 46  1  0  0  0  0
 43 48  1  0  0  0  0
 44 67  1  0  0  0  0
 45 48  1  0  0  0  0
 45 67  1  0  0  0  0
 46 71  1  0  0  0  0
 47 66  1  0  0  0  0
 48 64  1  0  0  0  0
 49 59  1  0  0  0  0
 50 60  1  0  0  0  0
 51 61  1  0  0  0  0
 52 61  1  0  0  0  0
 53 61  1  0  0  0  0
 54 74  1  0  0  0  0
 55 60  1  0  0  0  0
 56 57  1  0  0  0  0
 56 65  1  0  0  0  0
 57 72  1  0  0  0  0
 58 61  1  0  0  0  0
 58 73  1  0  0  0  0
 59 74  1  0  0  0  0
 60 82  1  0  0  0  0
 62 64  1  0  0  0  0
 63 65  1  0  0  0  0
M  CHG  1  74   1
M  ISO  4  36 100  60 101  70 100  82 101
M  END
> <Batch ID>
0186

> <Smiles>
CNC(C)C(=O)NC(C(=O)N1Cc2cc([101O:1][101CH:1](C)CC(=O)NCCn3nc([100NH:0][100C:0](=O)N4CCCC(n5nc(-c6ccc(Oc7ccc(F)cc7F)cc6)c(C(N)=O)c5N)C4)cc3F)ccc2CC1C(=O)NC1CCCc2ccccc21)C(C)(C)C

> <Shape>
0.209

> <Color>
0.090

> <Negative vol penalty>
0.000

$$$$

  -OEChem-04052305093D

 85 93  0     1  0  0  0  0  0999 V2000
  -20.4101  -30.5016   24.1845 C   0  0  0  0  0  0  0  0  0  0  0  0
  -21.6510  -29.9507   23.8810 C   0  0  0  0  0  0  0  0  0  0  0  0
  -26.9647  -12.9601   21.2494 C   0  0  0  0  0  0  0  0  0  0  0  0
  -26.7779  -13.5795   18.9216 C   0  0  0  0  0  0  0  0  0  0  0  0
  -19.2444  -29.7956   23.8901 C   0  0  0  0  0  0  0  0  0  0  0  0
  -21.7269  -28.6928   23.2840 C   0  0  0  0  0  0  0  0  0  0  0  0
  -25.0464  -28.5535   19.4621 C   0  0  0  0  0  0  0  0  0  0  0  0
  -26.1882  -11.8264   21.0101 C   0  0  0  0  0  0  0  0  0  0  0  0
  -26.0013  -12.4458   18.6823 C   0  0  0  0  0  0  0  0  0  0  0  0
  -26.3976  -28.4690   19.7951 C   0  0  0  0  0  0  0  0  0  0  0  0
  -22.9135  -11.0893   20.6133 C   0  0  0  0  0  0  0  0  0  0  0  0
  -21.8974  -10.7967   21.5230 C   0  0  0  0  0  0  0  0  0  0  0  0
  -26.3519  -26.0979   19.3537 C   0  0  0  0  0  0  0  0  0  0  0  0
  -22.9353   -8.6672   21.9974 C   0  0  0  0  0  0  0  0  0  0  0  0
  -27.0157  -20.2284   16.0158 C   0  0  0  0  0  0  0  0  0  0  0  0
  -28.7691  -19.2982   15.0829 C   0  0  0  0  0  0  0  0  0  0  0  0
  -27.2596  -13.8367   20.2052 C   0  0  0  0  0  0  0  0  0  0  0  0
  -29.4626  -15.1127   20.3670 C   0  0  0  0  0  0  0  0  0  0  0  0
  -19.3057  -28.5327   23.2804 C   0  0  0  0  0  0  0  0  0  0  0  0
  -24.3339  -27.4070   19.0823 C   0  0  0  0  0  0  0  0  0  0  0  0
  -20.5609  -27.9687   22.9824 C   0  0  0  0  0  0  0  0  0  0  0  0
  -24.9924  -26.1710   19.0139 C   0  0  0  0  0  0  0  0  0  0  0  0
  -25.7065  -11.5692   19.7265 C   0  0  0  0  0  0  0  0  0  0  0  0
  -27.0498  -27.2406   19.7437 C   0  0  0  0  0  0  0  0  0  0  0  0
  -23.9404  -10.1707   20.3955 C   0  0  0  0  0  0  0  0  0  0  0  0
  -21.9083   -9.5858   22.2151 C   0  0  0  0  0  0  0  0  0  0  0  0
  -23.9513   -8.9597   21.0876 C   0  0  0  0  0  0  0  0  0  0  0  0
  -28.0612  -15.0082   20.4519 C   0  0  0  0  0  0  0  0  0  0  0  0
  -27.9453  -20.5099   16.9949 C   0  0  0  0  0  0  0  0  0  0  0  0
  -29.7297  -16.4201   20.6926 C   0  0  0  0  0  0  0  0  0  0  0  0
  -28.0921  -22.7143   18.1125 C   0  0  0  0  0  0  0  0  0  0  0  0
  -30.4357  -14.1171   20.0244 C   0  0  0  0  0  0  0  0  0  0  0  0
  -21.8324  -25.8312   20.2498 C   0  0  0  0  0  0  0  0  0  0  0  0
  -29.3085  -24.6015   18.5294 C   0  0  0  0  0  0  0  0  0  0  0  0
  -26.3814  -21.3998   20.3720 C   0  0  0  0  0  0  0  0  0  0  0  0
  -22.1418  -24.1026   17.5224 C   0  0  0  0  0  0  0  0  0  0  0  0
  -24.1563  -23.0293   14.9853 C   0  0  0  0  0  0  0  0  0  0  0  0
  -18.0201  -27.7869   23.0244 C   0  0  0  0  0  0  0  0  0  0  0  0
  -22.8834  -27.5195   18.7003 C   0  0  0  0  0  0  0  0  0  0  0  0
  -24.2776  -24.9139   18.5927 C   0  0  0  0  0  0  0  0  0  0  0  0
  -18.1751  -26.6223   22.0498 C   0  0  0  0  0  0  0  0  0  0  0  0
  -28.0289  -20.0697   23.2628 C   0  0  0  0  0  0  0  0  0  0  0  0
  -19.3991  -25.7855   22.4082 C   0  0  0  0  0  0  0  0  0  0  0  0
  -28.3258  -18.6224   22.8726 C   0  0  0  0  0  0  0  0  0  0  0  0
  -26.7070  -20.5478   22.6703 C   0  0  0  0  0  0  0  0  0  0  0  0
  -26.9119  -18.9479   20.7941 C   0  0  0  0  0  0  0  0  0  0  0  0
  -20.6836  -26.6175   22.3120 C   0  0  1  0  0  0  0  0  0  0  0  0
  -22.1289  -26.1993   18.8235 C   0  0  1  0  0  0  0  0  0  0  0  0
  -28.2536  -18.4353   21.3467 C   0  0  2  0  0  0  0  0  0  0  0  0
  -24.1358  -21.5962   12.9255 C   0  0  0  0  0  0  0  0  0  0  0  0
  -29.2916  -26.2054   22.0530 C   0  0  0  0  0  0  0  0  0  0  0  0
  -22.2201  -21.5997   19.2659 C   0  0  0  0  0  0  0  0  0  0  0  0
  -23.1363  -20.3453   17.3024 C   0  0  0  0  0  0  0  0  0  0  0  0
  -20.8667  -21.3727   17.1751 C   0  0  0  0  0  0  0  0  0  0  0  0
  -24.8451  -25.3207   13.2435 C   0  0  0  0  0  0  0  0  0  0  0  0
  -26.3640  -21.1012   18.8940 C   0  0  0  0  0  0  0  0  0  0  0  0
  -27.7768  -21.2447   18.3119 C   0  0  1  0  0  0  0  0  0  0  0  0
  -29.9069  -25.2901   19.7499 C   0  0  2  0  0  0  0  0  0  0  0  0
  -22.9074  -22.8644   17.1225 C   0  0  1  0  0  0  0  0  0  0  0  0
  -23.9528  -22.9999   13.4813 C   0  0  2  0  0  0  0  0  0  0  0  0
  -28.8204  -25.9240   20.6312 C   0  0  2  0  0  0  0  0  0  1  0  0
  -22.2959  -21.5687   17.7263 C   0  0  0  0  0  0  0  0  0  0  0  0
  -27.4864  -19.5340   14.9184 N   0  0  0  0  0  0  0  0  0  0  0  0
  -27.4789  -16.1575   20.8040 N   0  0  0  0  0  0  0  0  0  0  0  0
  -29.0728  -23.2607   18.7518 N   0  0  0  0  0  0  0  0  0  0  0  0
  -28.5194  -16.9966   20.9433 N   0  0  0  0  0  0  0  0  0  0  0  0
  -22.8585  -25.0744   18.2350 N   0  0  0  0  0  0  0  0  0  0  0  0
  -26.6690  -20.3323   21.2228 N   0  0  0  0  0  0  0  0  0  0  0  0
  -30.8796  -17.1212   20.7862 N   0  0  0  0  0  0  0  0  0  0  0  0
  -29.9895  -12.8245   19.7171 N   0  0  0  0  0  0  0  0  0  0  0  0
  -21.0831  -26.7723   20.9297 N   0  0  0  0  0  0  0  0  0  0  0  0
  -22.9666  -22.8742   15.6648 N   0  0  0  0  0  0  0  0  0  0  0  0
  -30.8928  -26.3251   19.3226 N   0  3  0  0  0  0  0  0  0  0  0  0
  -24.9294  -23.9027   12.8087 N   0  3  0  0  0  0  0  0  0  0  0  0
  -31.6659  -14.3620   20.0078 O   0  0  0  0  0  0  0  0  0  0  0  0
  -22.2511  -24.7710   20.6997 O   0  0  0  0  0  0  0  0  0  0  0  0
  -29.0937  -25.2112   17.4833 O   0  0  0  0  0  0  0  0  0  0  0  0
  -26.1490  -22.5488   20.7568 O   0  0  0  0  0  0  0  0  0  0  0  0
  -20.9536  -24.2069   17.2078 O   0  0  0  0  0  0  0  0  0  0  0  0
  -25.2607  -23.1717   15.5055 O   0  0  0  0  0  0  0  0  0  0  0  0
  -24.9489  -10.4629   19.4926 O   0  0  0  0  0  0  0  0  0  0  0  0
  -28.3685  -27.1552   20.0689 O   0  0  0  0  0  0  0  0  0  1  0  0
  -20.9334   -9.3056   23.0898 F   0  0  0  0  0  0  0  0  0  0  0  0
  -24.9359   -8.0739   20.8835 F   0  0  0  0  0  0  0  0  0  0  0  0
  -29.4737  -19.8827   16.5345 S   0  0  0  0  0  0  0  0  0  0  0  0
  1  2  1  0  0  0  0
  1  5  2  0  0  0  0
  2  6  2  0  0  0  0
  3  8  2  0  0  0  0
  3 17  1  0  0  0  0
  4  9  1  0  0  0  0
  4 17  2  0  0  0  0
  5 19  1  0  0  0  0
  6 21  1  0  0  0  0
  7 10  2  0  0  0  0
  7 20  1  0  0  0  0
  8 23  1  0  0  0  0
  9 23  2  0  0  0  0
 10 24  1  0  0  0  0
 11 12  2  0  0  0  0
 11 25  1  0  0  0  0
 12 26  1  0  0  0  0
 13 22  1  0  0  0  0
 13 24  2  0  0  0  0
 14 26  2  0  0  0  0
 14 27  1  0  0  0  0
 15 29  2  0  0  0  0
 15 63  1  0  0  0  0
 16 63  2  0  0  0  0
 16 85  1  0  0  0  0
 17 28  1  0  0  0  0
 18 28  1  0  0  0  0
 18 30  2  0  0  0  0
 18 32  1  0  0  0  0
 19 21  2  0  0  0  0
 19 38  1  0  0  0  0
 20 22  2  0  0  0  0
 20 39  1  0  0  0  0
 21 47  1  0  0  0  0
 22 40  1  0  0  0  0
 23 81  1  0  0  0  0
 24 82  1  0  0  0  0
 25 27  2  0  0  0  0
 25 81  1  0  0  0  0
 26 83  1  0  0  0  0
 27 84  1  0  0  0  0
 28 64  2  0  0  0  0
 29 57  1  0  0  0  0
 29 85  1  0  0  0  0
 30 66  1  0  0  0  0
 30 69  1  0  0  0  0
 31 57  1  0  0  0  0
 31 65  2  0  0  0  0
 32 70  1  0  0  0  0
 32 75  2  0  0  0  0
 33 48  1  0  0  0  0
 33 71  1  0  0  0  0
 33 76  2  0  0  0  0
 34 58  1  0  0  0  0
 34 65  1  0  0  0  0
 34 77  2  0  0  0  0
 35 56  1  0  0  0  0
 35 68  1  0  0  0  0
 35 78  2  0  0  0  0
 36 59  1  0  0  0  0
 36 67  1  0  0  0  0
 36 79  2  0  0  0  0
 37 60  1  0  0  0  0
 37 72  1  0  0  0  0
 37 80  2  0  0  0  0
 38 41  1  0  0  0  0
 39 48  1  0  0  0  0
 40 67  1  0  0  0  0
 41 43  1  0  0  0  0
 42 44  1  0  0  0  0
 42 45  1  0  0  0  0
 43 47  1  0  0  0  0
 44 49  1  0  0  0  0
 45 68  1  0  0  0  0
 46 49  1  0  0  0  0
 46 68  1  0  0  0  0
 47 71  1  0  0  0  0
 48 67  1  0  0  0  0
 49 66  1  0  0  0  0
 50 60  1  0  0  0  0
 51 61  1  0  0  0  0
 52 62  1  0  0  0  0
 53 62  1  0  0  0  0
 54 62  1  0  0  0  0
 55 74  1  0  0  0  0
 56 57  1  0  0  0  0
 58 61  1  0  0  0  0
 58 73  1  0  0  0  0
 59 62  1  0  0  0  0
 59 72  1  0  0  0  0
 60 74  1  0  0  0  0
 61 82  1  0  0  0  0
 64 66  1  0  0  0  0
M  CHG  2  73   1  74   1
M  ISO  4  35 100  56 100  61 101  82 101
M  END
> <Batch ID>
0186

> <Smiles>
CNC(C)C(=O)NC(C(=O)N1Cc2cc([101O:1][101CH:1](C)C(N)C(=O)NC=C([100CH2:0][100C:0](=O)N3CCCC(n4nc(-c5ccc(Oc6ccc(F)cc6F)cc5)c(C(N)=O)c4N)C3)c3cncs3)ccc2CC1C(=O)NC1CCCc2ccccc21)C(C)(C)C

> <Shape>
0.249

> <Color>
0.088

> <Negative vol penalty>
0.000

$$$$

  -OEChem-04052305093D

 85 93  0     1  0  0  0  0  0999 V2000
  -19.0759  -23.9993   21.9825 C   0  0  0  0  0  0  0  0  0  0  0  0
  -20.3119  -24.2157   21.3819 C   0  0  0  0  0  0  0  0  0  0  0  0
  -22.4257  -15.6011   22.0291 C   0  0  0  0  0  0  0  0  0  0  0  0
  -23.1497  -17.7836   21.2877 C   0  0  0  0  0  0  0  0  0  0  0  0
  -18.3164  -25.0828   22.4220 C   0  0  0  0  0  0  0  0  0  0  0  0
  -20.7888  -25.5160   21.2195 C   0  0  0  0  0  0  0  0  0  0  0  0
  -25.6660  -25.9712   22.5041 C   0  0  0  0  0  0  0  0  0  0  0  0
  -21.5605  -16.1993   22.9451 C   0  0  0  0  0  0  0  0  0  0  0  0
  -22.2845  -18.3818   22.2037 C   0  0  0  0  0  0  0  0  0  0  0  0
  -26.6115  -25.5174   21.5854 C   0  0  0  0  0  0  0  0  0  0  0  0
  -18.5244  -17.6868   22.8990 C   0  0  0  0  0  0  0  0  0  0  0  0
  -17.2269  -17.1829   22.9896 C   0  0  0  0  0  0  0  0  0  0  0  0
  -26.9762  -27.7856   20.8496 C   0  0  0  0  0  0  0  0  0  0  0  0
  -31.7930  -21.1688   20.7500 C   0  0  0  0  0  0  0  0  0  0  0  0
  -17.5963  -16.6503   25.3170 C   0  0  0  0  0  0  0  0  0  0  0  0
  -29.9771  -21.0252   19.2208 C   0  0  0  0  0  0  0  0  0  0  0  0
  -23.2204  -16.3932   21.2004 C   0  0  0  0  0  0  0  0  0  0  0  0
  -23.8293  -15.4185   18.9229 C   0  0  0  0  0  0  0  0  0  0  0  0
  -18.7885  -26.3964   22.2736 C   0  0  0  0  0  0  0  0  0  0  0  0
  -25.3601  -27.3367   22.5950 C   0  0  0  0  0  0  0  0  0  0  0  0
  -20.0343  -26.6181   21.6562 C   0  0  0  0  0  0  0  0  0  0  0  0
  -26.0283  -28.2544   21.7720 C   0  0  0  0  0  0  0  0  0  0  0  0
  -30.7164  -21.7801   20.1172 C   0  0  0  0  0  0  0  0  0  0  0  0
  -21.4898  -17.5896   23.0324 C   0  0  0  0  0  0  0  0  0  0  0  0
  -27.2646  -26.4243   20.7560 C   0  0  0  0  0  0  0  0  0  0  0  0
  -19.3579  -17.6724   24.0174 C   0  0  0  0  0  0  0  0  0  0  0  0
  -16.7628  -16.6647   24.1986 C   0  0  0  0  0  0  0  0  0  0  0  0
  -32.0933  -19.8402   20.4711 C   0  0  0  0  0  0  0  0  0  0  0  0
  -18.8938  -17.1541   25.2264 C   0  0  0  0  0  0  0  0  0  0  0  0
  -24.1148  -15.7759   20.2543 C   0  0  0  0  0  0  0  0  0  0  0  0
  -31.2923  -19.1721   19.5590 C   0  0  0  0  0  0  0  0  0  0  0  0
  -24.9996  -14.8724   18.4555 C   0  0  0  0  0  0  0  0  0  0  0  0
  -22.6148  -15.5670   18.1755 C   0  0  0  0  0  0  0  0  0  0  0  0
  -22.7422  -29.0834   22.1491 C   0  0  0  0  0  0  0  0  0  0  0  0
  -24.6197  -31.4779   23.2732 C   0  0  0  0  0  0  0  0  0  0  0  0
  -27.7660  -32.7059   23.7625 C   0  0  0  0  0  0  0  0  0  0  0  0
  -29.3415  -23.8704   19.8354 C   0  0  0  0  0  0  0  0  0  0  0  0
  -30.7344  -15.5549   20.0359 C   0  0  0  0  0  0  0  0  0  0  0  0
  -17.9108  -27.5382   22.7216 C   0  0  0  0  0  0  0  0  0  0  0  0
  -24.3573  -27.8131   23.6098 C   0  0  0  0  0  0  0  0  0  0  0  0
  -25.7508  -29.7330   21.8444 C   0  0  0  0  0  0  0  0  0  0  0  0
  -18.6555  -28.8645   22.8510 C   0  0  0  0  0  0  0  0  0  0  0  0
  -28.8869  -12.5128   19.9428 C   0  0  0  0  0  0  0  0  0  0  0  0
  -19.5316  -29.1065   21.6260 C   0  0  0  0  0  0  0  0  0  0  0  0
  -27.4286  -12.9718   19.8920 C   0  0  0  0  0  0  0  0  0  0  0  0
  -29.7364  -13.4282   20.8217 C   0  0  0  0  0  0  0  0  0  0  0  0
  -28.2066  -15.3191   20.4246 C   0  0  0  0  0  0  0  0  0  0  0  0
  -20.5968  -28.0125   21.4847 C   0  0  1  0  0  0  0  0  0  0  0  0
  -23.7506  -29.1684   23.2597 C   0  0  1  0  0  0  0  0  0  0  0  0
  -27.3222  -14.4593   19.5055 C   0  0  2  0  0  0  0  0  0  0  0  0
  -31.9003  -17.5252   17.7480 C   0  0  0  0  0  0  0  0  0  0  0  0
  -28.9813  -34.7048   24.6710 C   0  0  0  0  0  0  0  0  0  0  0  0
  -30.5876  -26.0565   20.0021 C   0  0  0  0  0  0  0  0  0  0  0  0
  -23.8912  -33.0572   20.7661 C   0  0  0  0  0  0  0  0  0  0  0  0
  -25.8201  -34.5786   21.2486 C   0  0  0  0  0  0  0  0  0  0  0  0
  -23.9344  -34.4050   22.8723 C   0  0  0  0  0  0  0  0  0  0  0  0
  -29.1456  -31.0797   25.8146 C   0  0  0  0  0  0  0  0  0  0  0  0
  -31.5827  -17.7450   19.2339 C   0  0  2  0  0  0  0  0  0  0  0  0
  -25.5600  -32.4814   22.6503 C   0  0  1  0  0  0  0  0  0  0  0  0
  -28.4284  -33.3225   24.9814 C   0  0  2  0  0  0  0  0  0  0  0  0
  -29.3243  -25.2968   20.3789 C   0  0  1  0  0  0  0  0  0  1  0  0
  -24.8055  -33.6025   21.8814 C   0  0  0  0  0  0  0  0  0  0  0  0
  -30.2383  -19.7324   18.9243 N   0  0  0  0  0  0  0  0  0  0  0  0
  -25.3681  -15.4814   20.6098 N   0  0  0  0  0  0  0  0  0  0  0  0
  -25.8806  -14.9332   19.4949 N   0  0  0  0  0  0  0  0  0  0  0  0
  -24.7574  -30.1489   22.8482 N   0  0  0  0  0  0  0  0  0  0  0  0
  -29.5920  -14.8242   20.4018 N   0  0  0  0  0  0  0  0  0  0  0  0
  -25.3508  -14.3509   17.2609 N   0  0  0  0  0  0  0  0  0  0  0  0
  -21.5076  -16.1485   18.8084 N   0  0  0  0  0  0  0  0  0  0  0  0
  -30.3858  -23.1307   20.3807 N   0  0  0  0  0  0  0  0  0  0  0  0
  -21.6810  -28.2395   22.4160 N   0  0  0  0  0  0  0  0  0  0  0  0
  -26.4125  -32.9669   23.7300 N   0  0  0  0  0  0  0  0  0  0  0  0
  -30.5082  -16.8689   19.6447 N   0  0  0  0  0  0  0  0  0  0  0  0
  -29.5507  -32.4622   25.4518 N   0  3  0  0  0  0  0  0  0  0  0  0
  -22.5093  -15.1801   16.9869 O   0  0  0  0  0  0  0  0  0  0  0  0
  -22.9133  -29.7364   21.1263 O   0  0  0  0  0  0  0  0  0  0  0  0
  -23.7984  -31.8580   24.1113 O   0  0  0  0  0  0  0  0  0  0  0  0
  -28.3879  -32.0608   22.9213 O   0  0  0  0  0  0  0  0  0  0  0  0
  -28.4975  -23.4855   19.0313 O   0  0  0  0  0  0  0  0  0  0  0  0
  -31.8711  -15.0706   20.0513 O   0  0  0  0  0  0  0  0  0  0  0  0
  -20.6455  -18.1737   23.9260 O   0  0  0  0  0  0  0  0  0  0  0  0
  -28.1874  -25.9840   19.8579 O   0  0  0  0  0  0  0  0  0  1  0  0
  -15.5163  -16.1823   24.2859 F   0  0  0  0  0  0  0  0  0  0  0  0
  -33.1262  -19.2351   21.0701 F   0  0  0  0  0  0  0  0  0  0  0  0
  -19.6895  -17.1387   26.3046 F   0  0  0  0  0  0  0  0  0  0  0  0
  1  2  1  0  0  0  0
  1  5  2  0  0  0  0
  2  6  2  0  0  0  0
  3  8  2  0  0  0  0
  3 17  1  0  0  0  0
  4  9  1  0  0  0  0
  4 17  2  0  0  0  0
  5 19  1  0  0  0  0
  6 21  1  0  0  0  0
  7 10  2  0  0  0  0
  7 20  1  0  0  0  0
  8 24  1  0  0  0  0
  9 24  2  0  0  0  0
 10 25  1  0  0  0  0
 11 12  2  0  0  0  0
 11 26  1  0  0  0  0
 12 27  1  0  0  0  0
 13 22  1  0  0  0  0
 13 25  2  0  0  0  0
 14 23  2  0  0  0  0
 14 28  1  0  0  0  0
 15 27  2  0  0  0  0
 15 29  1  0  0  0  0
 16 23  1  0  0  0  0
 16 63  2  0  0  0  0
 17 30  1  0  0  0  0
 18 30  1  0  0  0  0
 18 32  2  0  0  0  0
 18 33  1  0  0  0  0
 19 21  2  0  0  0  0
 19 39  1  0  0  0  0
 20 22  2  0  0  0  0
 20 40  1  0  0  0  0
 21 48  1  0  0  0  0
 22 41  1  0  0  0  0
 23 70  1  0  0  0  0
 24 81  1  0  0  0  0
 25 82  1  0  0  0  0
 26 29  2  0  0  0  0
 26 81  1  0  0  0  0
 27 83  1  0  0  0  0
 28 31  2  0  0  0  0
 28 84  1  0  0  0  0
 29 85  1  0  0  0  0
 30 64  2  0  0  0  0
 31 58  1  0  0  0  0
 31 63  1  0  0  0  0
 32 65  1  0  0  0  0
 32 68  1  0  0  0  0
 33 69  1  0  0  0  0
 33 75  2  0  0  0  0
 34 49  1  0  0  0  0
 34 71  1  0  0  0  0
 34 76  2  0  0  0  0
 35 59  1  0  0  0  0
 35 66  1  0  0  0  0
 35 77  2  0  0  0  0
 36 60  1  0  0  0  0
 36 72  1  0  0  0  0
 36 78  2  0  0  0  0
 37 61  1  0  0  0  0
 37 70  1  0  0  0  0
 37 79  2  0  0  0  0
 38 67  1  0  0  0  0
 38 73  1  0  0  0  0
 38 80  2  0  0  0  0
 39 42  1  0  0  0  0
 40 49  1  0  0  0  0
 41 66  1  0  0  0  0
 42 44  1  0  0  0  0
 43 45  1  0  0  0  0
 43 46  1  0  0  0  0
 44 48  1  0  0  0  0
 45 50  1  0  0  0  0
 46 67  1  0  0  0  0
 47 50  1  0  0  0  0
 47 67  1  0  0  0  0
 48 71  1  0  0  0  0
 49 66  1  0  0  0  0
 50 65  1  0  0  0  0
 51 58  1  0  0  0  0
 52 60  1  0  0  0  0
 53 61  1  0  0  0  0
 54 62  1  0  0  0  0
 55 62  1  0  0  0  0
 56 62  1  0  0  0  0
 57 74  1  0  0  0  0
 58 73  1  0  0  0  0
 59 62  1  0  0  0  0
 59 72  1  0  0  0  0
 60 74  1  0  0  0  0
 61 82  1  0  0  0  0
 64 65  1  0  0  0  0
M  CHG  1  74   1
M  ISO  4  38 100  61 101  73 100  82 101
M  END
> <Batch ID>
0186

> <Smiles>
CNC(C)C(=O)NC(C(=O)N1Cc2cc([101O:1][101CH:1](C)C(=O)Nc3cnc(C(C)[100NH:0][100C:0](=O)N4CCCC(n5nc(-c6ccc(Oc7ccc(F)cc7F)cc6)c(C(N)=O)c5N)C4)c(F)c3)ccc2CC1C(=O)NC1CCCc2ccccc21)C(C)(C)C

> <Shape>
0.231

> <Color>
0.099

> <Negative vol penalty>
0.000

$$$$

  -OEChem-04052305093D

 85 93  0     1  0  0  0  0  0999 V2000
  -30.4214  -24.6579   18.1435 C   0  0  0  0  0  0  0  0  0  0  0  0
  -29.1981  -25.2771   17.9134 C   0  0  0  0  0  0  0  0  0  0  0  0
  -26.0210  -14.5132   18.3974 C   0  0  0  0  0  0  0  0  0  0  0  0
  -24.4780  -14.9433   20.2061 C   0  0  0  0  0  0  0  0  0  0  0  0
  -30.9727  -24.6661   19.4231 C   0  0  0  0  0  0  0  0  0  0  0  0
  -28.5313  -25.9150   18.9600 C   0  0  0  0  0  0  0  0  0  0  0  0
  -23.0633  -28.5986   19.1218 C   0  0  0  0  0  0  0  0  0  0  0  0
  -26.2387  -13.2262   18.8891 C   0  0  0  0  0  0  0  0  0  0  0  0
  -24.6957  -13.6563   20.6978 C   0  0  0  0  0  0  0  0  0  0  0  0
  -21.7496  -28.2404   19.4216 C   0  0  0  0  0  0  0  0  0  0  0  0
  -23.6796  -10.5135   19.9830 C   0  0  0  0  0  0  0  0  0  0  0  0
  -22.5638   -9.7733   20.3737 C   0  0  0  0  0  0  0  0  0  0  0  0
  -22.0342  -29.0937   21.6599 C   0  0  0  0  0  0  0  0  0  0  0  0
  -23.4513   -9.6186   22.6155 C   0  0  0  0  0  0  0  0  0  0  0  0
  -20.1282  -23.6407   22.9721 C   0  0  0  0  0  0  0  0  0  0  0  0
  -25.1407  -15.3718   19.0559 C   0  0  0  0  0  0  0  0  0  0  0  0
  -23.9376  -17.1027   17.6191 C   0  0  0  0  0  0  0  0  0  0  0  0
  -30.3057  -25.2938   20.4880 C   0  0  0  0  0  0  0  0  0  0  0  0
  -23.8770  -29.1981   20.0938 C   0  0  0  0  0  0  0  0  0  0  0  0
  -29.0828  -25.9548   20.2534 C   0  0  0  0  0  0  0  0  0  0  0  0
  -23.3570  -29.4608   21.3692 C   0  0  0  0  0  0  0  0  0  0  0  0
  -25.5761  -12.7977   20.0393 C   0  0  0  0  0  0  0  0  0  0  0  0
  -21.2358  -28.4853   20.6917 C   0  0  0  0  0  0  0  0  0  0  0  0
  -24.6813  -10.8062   20.9086 C   0  0  0  0  0  0  0  0  0  0  0  0
  -22.4496   -9.3259   21.6899 C   0  0  0  0  0  0  0  0  0  0  0  0
  -24.5671  -10.3588   22.2248 C   0  0  0  0  0  0  0  0  0  0  0  0
  -24.9158  -16.7016   18.5487 C   0  0  0  0  0  0  0  0  0  0  0  0
  -20.1070  -24.6602   22.0436 C   0  0  0  0  0  0  0  0  0  0  0  0
  -24.1386  -18.4533   17.4705 C   0  0  0  0  0  0  0  0  0  0  0  0
  -22.2490  -24.1946   21.9730 C   0  0  0  0  0  0  0  0  0  0  0  0
  -22.9368  -16.3242   16.9499 C   0  0  0  0  0  0  0  0  0  0  0  0
  -26.5969  -28.4110   21.5382 C   0  0  0  0  0  0  0  0  0  0  0  0
  -25.6796  -23.0588   20.6582 C   0  0  0  0  0  0  0  0  0  0  0  0
  -26.3350  -31.3881   22.7994 C   0  0  0  0  0  0  0  0  0  0  0  0
  -24.3185  -34.0053   23.6541 C   0  0  0  0  0  0  0  0  0  0  0  0
  -30.9514  -25.2794   21.8511 C   0  0  0  0  0  0  0  0  0  0  0  0
  -25.2835  -29.6028   19.7465 C   0  0  0  0  0  0  0  0  0  0  0  0
  -24.1830  -30.1205   22.4420 C   0  0  0  0  0  0  0  0  0  0  0  0
  -29.9703  -25.5891   22.9771 C   0  0  0  0  0  0  0  0  0  0  0  0
  -27.9029  -21.5369   18.2958 C   0  0  0  0  0  0  0  0  0  0  0  0
  -29.1739  -26.8414   22.6426 C   0  0  0  0  0  0  0  0  0  0  0  0
  -27.2825  -20.1616   18.0534 C   0  0  0  0  0  0  0  0  0  0  0  0
  -27.7112  -21.9893   19.7400 C   0  0  0  0  0  0  0  0  0  0  0  0
  -25.6645  -20.6152   19.9512 C   0  0  0  0  0  0  0  0  0  0  0  0
  -28.3247  -26.6284   21.3830 C   0  0  1  0  0  0  0  0  0  0  0  0
  -26.1852  -29.7394   20.9694 C   0  0  1  0  0  0  0  0  0  0  0  0
  -25.8089  -20.1340   18.4965 C   0  0  2  0  0  0  0  0  0  0  0  0
  -24.3871  -36.2848   24.7013 C   0  0  0  0  0  0  0  0  0  0  0  0
  -26.6286  -30.1109   25.5548 C   0  0  0  0  0  0  0  0  0  0  0  0
  -25.7529  -32.2326   26.5547 C   0  0  0  0  0  0  0  0  0  0  0  0
  -27.8844  -32.2532   25.2589 C   0  0  0  0  0  0  0  0  0  0  0  0
  -18.3001  -26.4005   23.9119 C   0  0  0  0  0  0  0  0  0  0  0  0
  -23.2872  -35.2924   21.1967 C   0  0  0  0  0  0  0  0  0  0  0  0
  -18.8841  -25.4384   21.6149 C   0  0  0  0  0  0  0  0  0  0  0  0
  -23.6791  -24.2416   21.5985 C   0  0  0  0  0  0  0  0  0  0  0  0
  -24.2255  -22.9190   21.0323 C   0  0  0  0  0  0  0  0  0  0  0  0
  -19.6724  -27.7845   22.3411 C   0  0  0  0  0  0  0  0  0  1  0  0
  -25.6911  -31.9738   24.0328 C   0  0  1  0  0  0  0  0  0  0  0  0
  -24.4428  -35.4970   23.4016 C   0  0  2  0  0  0  0  0  0  0  0  0
  -26.4740  -31.6284   25.3309 C   0  0  0  0  0  0  0  0  0  0  0  0
  -18.5477  -26.7271   22.4264 C   0  0  2  0  0  0  0  0  0  0  0  0
  -17.2471  -27.3166   21.8442 C   0  0  0  0  0  0  0  0  0  0  0  0
  -25.6814  -17.7152   18.9614 N   0  0  0  0  0  0  0  0  0  0  0  0
  -21.3222  -24.9795   21.4699 N   0  0  0  0  0  0  0  0  0  0  0  0
  -25.1844  -18.7667   18.2880 N   0  0  0  0  0  0  0  0  0  0  0  0
  -25.5543  -30.4919   22.0556 N   0  0  0  0  0  0  0  0  0  0  0  0
  -26.3013  -21.9275   20.1295 N   0  0  0  0  0  0  0  0  0  0  0  0
  -23.5210  -19.3914   16.7216 N   0  0  0  0  0  0  0  0  0  0  0  0
  -22.8692  -14.9502   17.2180 N   0  0  0  0  0  0  0  0  0  0  0  0
  -27.7508  -27.8937   20.9811 N   0  0  0  0  0  0  0  0  0  0  0  0
  -25.5529  -33.4042   23.7810 N   0  0  0  0  0  0  0  0  0  0  0  0
  -23.3374  -35.9670   22.5194 N   0  3  0  0  0  0  0  0  0  0  0  0
  -22.1370  -16.8289   16.1258 O   0  0  0  0  0  0  0  0  0  0  0  0
  -25.9188  -27.8943   22.4185 O   0  0  0  0  0  0  0  0  0  0  0  0
  -26.2435  -24.1429   20.8287 O   0  0  0  0  0  0  0  0  0  0  0  0
  -27.4856  -31.7192   22.5027 O   0  0  0  0  0  0  0  0  0  0  0  0
  -23.2346  -33.4314   23.7348 O   0  0  0  0  0  0  0  0  0  0  0  0
  -25.7881  -11.5419   20.5193 O   0  0  0  0  0  0  0  0  0  0  0  0
  -19.9541  -28.1362   20.9871 O   0  0  0  0  0  0  0  0  0  1  0  0
  -21.3773   -8.6164   22.0653 F   0  0  0  0  0  0  0  0  0  0  0  0
  -25.5257  -10.6379   23.1187 F   0  0  0  0  0  0  0  0  0  0  0  0
  -16.8843  -28.4454   22.4958 F   0  0  0  0  0  0  0  0  0  0  0  0
  -17.3895  -27.6350   20.5376 F   0  0  0  0  0  0  0  0  0  0  0  0
  -16.2140  -26.4503   21.9381 F   0  0  0  0  0  0  0  0  0  0  0  0
  -21.7292  -23.0491   23.1403 S   0  0  0  0  0  0  0  0  0  0  0  0
  1  2  1  0  0  0  0
  1  5  2  0  0  0  0
  2  6  2  0  0  0  0
  3  8  2  0  0  0  0
  3 16  1  0  0  0  0
  4  9  1  0  0  0  0
  4 16  2  0  0  0  0
  5 18  1  0  0  0  0
  6 20  1  0  0  0  0
  7 10  2  0  0  0  0
  7 19  1  0  0  0  0
  8 22  1  0  0  0  0
  9 22  2  0  0  0  0
 10 23  1  0  0  0  0
 11 12  2  0  0  0  0
 11 24  1  0  0  0  0
 12 25  1  0  0  0  0
 13 21  1  0  0  0  0
 13 23  2  0  0  0  0
 14 25  2  0  0  0  0
 14 26  1  0  0  0  0
 15 28  2  0  0  0  0
 15 85  1  0  0  0  0
 16 27  1  0  0  0  0
 17 27  1  0  0  0  0
 17 29  2  0  0  0  0
 17 31  1  0  0  0  0
 18 20  2  0  0  0  0
 18 36  1  0  0  0  0
 19 21  2  0  0  0  0
 19 37  1  0  0  0  0
 20 45  1  0  0  0  0
 21 38  1  0  0  0  0
 22 78  1  0  0  0  0
 23 79  1  0  0  0  0
 24 26  2  0  0  0  0
 24 78  1  0  0  0  0
 25 80  1  0  0  0  0
 26 81  1  0  0  0  0
 27 63  2  0  0  0  0
 28 54  1  0  0  0  0
 28 64  1  0  0  0  0
 29 65  1  0  0  0  0
 29 68  1  0  0  0  0
 30 55  1  0  0  0  0
 30 64  2  0  0  0  0
 30 85  1  0  0  0  0
 31 69  1  0  0  0  0
 31 73  2  0  0  0  0
 32 46  1  0  0  0  0
 32 70  1  0  0  0  0
 32 74  2  0  0  0  0
 33 56  1  0  0  0  0
 33 67  1  0  0  0  0
 33 75  2  0  0  0  0
 34 58  1  0  0  0  0
 34 66  1  0  0  0  0
 34 76  2  0  0  0  0
 35 59  1  0  0  0  0
 35 71  1  0  0  0  0
 35 77  2  0  0  0  0
 36 39  1  0  0  0  0
 37 46  1  0  0  0  0
 38 66  1  0  0  0  0
 39 41  1  0  0  0  0
 40 42  1  0  0  0  0
 40 43  1  0  0  0  0
 41 45  1  0  0  0  0
 42 47  1  0  0  0  0
 43 67  1  0  0  0  0
 44 47  1  0  0  0  0
 44 67  1  0  0  0  0
 45 70  1  0  0  0  0
 46 66  1  0  0  0  0
 47 65  1  0  0  0  0
 48 59  1  0  0  0  0
 49 60  1  0  0  0  0
 50 60  1  0  0  0  0
 51 60  1  0  0  0  0
 52 61  1  0  0  0  0
 53 72  1  0  0  0  0
 54 61  1  0  0  0  0
 55 56  1  0  0  0  0
 57 61  1  0  0  0  0
 57 79  1  0  0  0  0
 58 60  1  0  0  0  0
 58 71  1  0  0  0  0
 59 72  1  0  0  0  0
 61 62  1  0  0  0  0
 62 82  1  0  0  0  0
 62 83  1  0  0  0  0
 62 84  1  0  0  0  0
 63 65  1  0  0  0  0
M  CHG  1  72   1
M  ISO  4  33 100  56 100  57 101  79 101
M  END
> <Batch ID>
0186

> <Smiles>
CNC(C)C(=O)NC(C(=O)N1Cc2cc([101O:1][101CH2:1]C(C)(Cc3csc(C[100CH2:0][100C:0](=O)N4CCCC(n5nc(-c6ccc(Oc7ccc(F)cc7F)cc6)c(C(N)=O)c5N)C4)n3)C(F)(F)F)ccc2CC1C(=O)NC1CCCc2ccccc21)C(C)(C)C

> <Shape>
0.293

> <Color>
0.079

> <Negative vol penalty>
0.000

$$$$

  -OEChem-04052305093D

 77 84  0     1  0  0  0  0  0999 V2000
  -25.6063  -19.2742   26.8173 C   0  0  0  0  0  0  0  0  0  0  0  0
  -26.1057  -20.3853   26.1473 C   0  0  0  0  0  0  0  0  0  0  0  0
  -24.2284  -13.7004   21.3204 C   0  0  0  0  0  0  0  0  0  0  0  0
  -26.5106  -13.4569   20.5656 C   0  0  0  0  0  0  0  0  0  0  0  0
  -24.2412  -18.9977   26.7796 C   0  0  0  0  0  0  0  0  0  0  0  0
  -25.2388  -21.2269   25.4494 C   0  0  0  0  0  0  0  0  0  0  0  0
  -27.1481  -25.3683   23.6035 C   0  0  0  0  0  0  0  0  0  0  0  0
  -23.9219  -12.4435   20.7991 C   0  0  0  0  0  0  0  0  0  0  0  0
  -26.2041  -12.1999   20.0444 C   0  0  0  0  0  0  0  0  0  0  0  0
  -28.0082  -25.3780   22.5063 C   0  0  0  0  0  0  0  0  0  0  0  0
  -22.6274   -9.1454   19.9856 C   0  0  0  0  0  0  0  0  0  0  0  0
  -21.8717   -8.2813   20.7780 C   0  0  0  0  0  0  0  0  0  0  0  0
  -26.1999  -26.1398   21.1031 C   0  0  0  0  0  0  0  0  0  0  0  0
  -23.5856   -8.3431   22.4798 C   0  0  0  0  0  0  0  0  0  0  0  0
  -25.5228  -14.2072   21.2036 C   0  0  0  0  0  0  0  0  0  0  0  0
  -26.3005  -15.7992   23.0389 C   0  0  0  0  0  0  0  0  0  0  0  0
  -23.3596  -19.8299   26.0703 C   0  0  0  0  0  0  0  0  0  0  0  0
  -25.8025  -25.7343   23.4563 C   0  0  0  0  0  0  0  0  0  0  0  0
  -23.8547  -20.9781   25.4194 C   0  0  0  0  0  0  0  0  0  0  0  0
  -25.3254  -26.1363   22.2006 C   0  0  0  0  0  0  0  0  0  0  0  0
  -24.9097  -11.6932   20.1612 C   0  0  0  0  0  0  0  0  0  0  0  0
  -27.5334  -25.7610   21.2553 C   0  0  0  0  0  0  0  0  0  0  0  0
  -23.8623   -9.6082   20.4402 C   0  0  0  0  0  0  0  0  0  0  0  0
  -22.3508   -7.8802   22.0251 C   0  0  0  0  0  0  0  0  0  0  0  0
  -24.3414   -9.2071   21.6873 C   0  0  0  0  0  0  0  0  0  0  0  0
  -25.8399  -15.5058   21.7414 C   0  0  0  0  0  0  0  0  0  0  0  0
  -26.4505  -17.1644   23.0494 C   0  0  0  0  0  0  0  0  0  0  0  0
  -26.5689  -14.9166   24.1365 C   0  0  0  0  0  0  0  0  0  0  0  0
  -23.0181  -24.2566   23.8654 C   0  0  0  0  0  0  0  0  0  0  0  0
  -21.8077  -27.2038   23.2563 C   0  0  0  0  0  0  0  0  0  0  0  0
  -22.2351  -30.2723   21.8252 C   0  0  0  0  0  0  0  0  0  0  0  0
  -29.1753  -23.4091   18.5971 C   0  0  0  0  0  0  0  0  0  0  0  0
  -28.2166  -21.2897   19.4597 C   0  0  0  0  0  0  0  0  0  0  0  0
  -21.8904  -19.4881   26.0691 C   0  0  0  0  0  0  0  0  0  0  0  0
  -24.8941  -25.7442   24.6552 C   0  0  0  0  0  0  0  0  0  0  0  0
  -23.8943  -26.5578   21.9937 C   0  0  0  0  0  0  0  0  0  0  0  0
  -21.1207  -20.1770   24.9470 C   0  0  0  0  0  0  0  0  0  0  0  0
  -24.6647  -20.9023   20.3890 C   0  0  0  0  0  0  0  0  0  0  0  0
  -21.4478  -21.6626   24.9281 C   0  0  0  0  0  0  0  0  0  0  0  0
  -24.6509  -19.4658   20.9023 C   0  0  0  0  0  0  0  0  0  0  0  0
  -25.6682  -21.0984   19.2532 C   0  0  0  0  0  0  0  0  0  0  0  0
  -27.0352  -19.2139   20.1153 C   0  0  0  0  0  0  0  0  0  0  0  0
  -22.9348  -21.8906   24.6284 C   0  0  1  0  0  0  0  0  0  0  0  0
  -23.4172  -25.6426   24.2866 C   0  0  1  0  0  0  0  0  0  0  0  0
  -26.0675  -19.0170   21.2917 C   0  0  2  0  0  0  0  0  0  0  0  0
  -21.0560  -32.4573   21.4605 C   0  0  0  0  0  0  0  0  0  0  0  0
  -30.0090  -25.6223   17.7226 C   0  0  0  0  0  0  0  0  0  0  0  0
  -28.0826  -24.4967   16.6095 C   0  0  0  0  0  0  0  0  0  0  0  0
  -20.0956  -25.9146   21.0845 C   0  0  0  0  0  0  0  0  0  0  0  0
  -19.6816  -28.2007   20.1514 C   0  0  0  0  0  0  0  0  0  0  0  0
  -18.9144  -27.6391   22.4576 C   0  0  0  0  0  0  0  0  0  0  0  0
  -24.3049  -31.7712   23.3179 C   0  0  0  0  0  0  0  0  0  0  0  0
  -27.7901  -25.5175   18.9037 C   0  0  0  0  0  0  0  0  0  1  0  0
  -21.3840  -27.9498   22.0141 C   0  0  1  0  0  0  0  0  0  0  0  0
  -22.0007  -31.6741   22.3587 C   0  0  2  0  0  0  0  0  0  0  0  0
  -28.7582  -24.7603   17.9700 C   0  0  0  0  0  0  0  0  0  0  0  0
  -20.0454  -27.4163   21.4301 C   0  0  0  0  0  0  0  0  0  0  0  0
  -25.7059  -16.5969   20.9827 N   0  0  0  0  0  0  0  0  0  0  0  0
  -26.0845  -17.5892   21.8061 N   0  0  0  0  0  0  0  0  0  0  0  0
  -23.0436  -26.5447   23.1953 N   0  0  0  0  0  0  0  0  0  0  0  0
  -27.0024  -20.5923   19.6129 N   0  0  0  0  0  0  0  0  0  0  0  0
  -26.8584  -18.0310   24.0008 N   0  0  0  0  0  0  0  0  0  0  0  0
  -26.3614  -13.5424   23.9550 N   0  0  0  0  0  0  0  0  0  0  0  0
  -23.2470  -23.2891   24.8251 N   0  0  0  0  0  0  0  0  0  0  0  0
  -28.1033  -22.5573   18.8774 N   0  0  0  0  0  0  0  0  0  0  0  0
  -21.3571  -29.3629   22.3758 N   0  0  0  0  0  0  0  0  0  0  0  0
  -23.2896  -32.4171   22.4467 N   0  3  0  0  0  0  0  0  0  0  0  0
  -26.9647  -15.3358   25.2505 O   0  0  0  0  0  0  0  0  0  0  0  0
  -22.5367  -24.0783   22.7526 O   0  0  0  0  0  0  0  0  0  0  0  0
  -21.0725  -27.2118   24.2468 O   0  0  0  0  0  0  0  0  0  0  0  0
  -23.1071  -30.0110   20.9995 O   0  0  0  0  0  0  0  0  0  0  0  0
  -30.3516  -23.1341   18.8345 O   0  0  0  0  0  0  0  0  0  0  0  0
  -29.3092  -20.8118   19.7805 O   0  0  0  0  0  0  0  0  0  0  0  0
  -24.6110  -10.4665   19.6526 O   0  0  0  0  0  0  0  0  0  0  0  0
  -28.3762  -25.7709   20.1754 O   0  0  0  0  0  0  0  0  0  1  0  0
  -21.6243   -7.0518   22.7867 F   0  0  0  0  0  0  0  0  0  0  0  0
  -25.5264   -9.6493   22.1299 F   0  0  0  0  0  0  0  0  0  0  0  0
  1  2  1  0  0  0  0
  1  5  2  0  0  0  0
  2  6  2  0  0  0  0
  3  8  2  0  0  0  0
  3 15  1  0  0  0  0
  4  9  1  0  0  0  0
  4 15  2  0  0  0  0
  5 17  1  0  0  0  0
  6 19  1  0  0  0  0
  7 10  2  0  0  0  0
  7 18  1  0  0  0  0
  8 21  1  0  0  0  0
  9 21  2  0  0  0  0
 10 22  1  0  0  0  0
 11 12  2  0  0  0  0
 11 23  1  0  0  0  0
 12 24  1  0  0  0  0
 13 20  1  0  0  0  0
 13 22  2  0  0  0  0
 14 24  2  0  0  0  0
 14 25  1  0  0  0  0
 15 26  1  0  0  0  0
 16 26  1  0  0  0  0
 16 27  2  0  0  0  0
 16 28  1  0  0  0  0
 17 19  2  0  0  0  0
 17 34  1  0  0  0  0
 18 20  2  0  0  0  0
 18 35  1  0  0  0  0
 19 43  1  0  0  0  0
 20 36  1  0  0  0  0
 21 74  1  0  0  0  0
 22 75  1  0  0  0  0
 23 25  2  0  0  0  0
 23 74  1  0  0  0  0
 24 76  1  0  0  0  0
 25 77  1  0  0  0  0
 26 58  2  0  0  0  0
 27 59  1  0  0  0  0
 27 62  1  0  0  0  0
 28 63  1  0  0  0  0
 28 68  2  0  0  0  0
 29 44  1  0  0  0  0
 29 64  1  0  0  0  0
 29 69  2  0  0  0  0
 30 54  1  0  0  0  0
 30 60  1  0  0  0  0
 30 70  2  0  0  0  0
 31 55  1  0  0  0  0
 31 66  1  0  0  0  0
 31 71  2  0  0  0  0
 32 56  1  0  0  0  0
 32 65  1  0  0  0  0
 32 72  2  0  0  0  0
 33 61  1  0  0  0  0
 33 65  1  0  0  0  0
 33 73  2  0  0  0  0
 34 37  1  0  0  0  0
 35 44  1  0  0  0  0
 36 60  1  0  0  0  0
 37 39  1  0  0  0  0
 38 40  1  0  0  0  0
 38 41  1  0  0  0  0
 39 43  1  0  0  0  0
 40 45  1  0  0  0  0
 41 61  1  0  0  0  0
 42 45  1  0  0  0  0
 42 61  1  0  0  0  0
 43 64  1  0  0  0  0
 44 60  1  0  0  0  0
 45 59  1  0  0  0  0
 46 55  1  0  0  0  0
 47 56  1  0  0  0  0
 48 56  1  0  0  0  0
 49 57  1  0  0  0  0
 50 57  1  0  0  0  0
 51 57  1  0  0  0  0
 52 67  1  0  0  0  0
 53 56  1  0  0  0  0
 53 75  1  0  0  0  0
 54 57  1  0  0  0  0
 54 66  1  0  0  0  0
 55 67  1  0  0  0  0
 58 59  1  0  0  0  0
M  CHG  1  67   1
M  ISO  4  33 100  53 101  65 100  75 101
M  END
> <Batch ID>
0186

> <Smiles>
CNC(C)C(=O)NC(C(=O)N1Cc2cc([101O:1][101CH2:1]C(C)(C)C(=O)[100NH:0][100C:0](=O)N3CCCC(n4nc(-c5ccc(Oc6ccc(F)cc6F)cc5)c(C(N)=O)c4N)C3)ccc2CC1C(=O)NC1CCCc2ccccc21)C(C)(C)C

> <Shape>
0.200

> <Color>
0.082

> <Negative vol penalty>
0.000

$$$$

  -OEChem-04052305093D

 84 92  0     1  0  0  0  0  0999 V2000
  -18.2282  -24.3181   24.0341 C   0  0  0  0  0  0  0  0  0  0  0  0
  -19.5760  -24.1590   23.7283 C   0  0  0  0  0  0  0  0  0  0  0  0
  -24.2871   -9.1484   20.1921 C   0  0  0  0  0  0  0  0  0  0  0  0
  -22.9029  -10.7630   21.3385 C   0  0  0  0  0  0  0  0  0  0  0  0
  -17.5938  -25.5318   23.7725 C   0  0  0  0  0  0  0  0  0  0  0  0
  -20.2899  -25.2131   23.1596 C   0  0  0  0  0  0  0  0  0  0  0  0
  -24.8284  -25.8683   25.3085 C   0  0  0  0  0  0  0  0  0  0  0  0
  -23.4750   -8.1172   20.6638 C   0  0  0  0  0  0  0  0  0  0  0  0
  -22.0907   -9.7318   21.8102 C   0  0  0  0  0  0  0  0  0  0  0  0
  -25.8432  -24.9886   24.9341 C   0  0  0  0  0  0  0  0  0  0  0  0
  -23.0619   -6.3895   23.5394 C   0  0  0  0  0  0  0  0  0  0  0  0
  -23.6895   -5.2555   24.0547 C   0  0  0  0  0  0  0  0  0  0  0  0
  -26.7255  -26.6559   23.4304 C   0  0  0  0  0  0  0  0  0  0  0  0
  -22.6047   -3.8939   22.3794 C   0  0  0  0  0  0  0  0  0  0  0  0
  -24.0011  -10.4714   20.5294 C   0  0  0  0  0  0  0  0  0  0  0  0
  -24.6881  -12.2585   18.8437 C   0  0  0  0  0  0  0  0  0  0  0  0
  -18.3027  -26.6045   23.2093 C   0  0  0  0  0  0  0  0  0  0  0  0
  -24.7481  -27.1467   24.7377 C   0  0  0  0  0  0  0  0  0  0  0  0
  -19.6641  -26.4419   22.8890 C   0  0  0  0  0  0  0  0  0  0  0  0
  -25.7103  -27.5509   23.8012 C   0  0  0  0  0  0  0  0  0  0  0  0
  -22.3768   -8.4088   21.4729 C   0  0  0  0  0  0  0  0  0  0  0  0
  -26.7902  -25.3813   23.9928 C   0  0  0  0  0  0  0  0  0  0  0  0
  -22.2056   -6.2759   22.4441 C   0  0  0  0  0  0  0  0  0  0  0  0
  -23.4609   -4.0077   23.4747 C   0  0  0  0  0  0  0  0  0  0  0  0
  -21.9771   -5.0281   21.8641 C   0  0  0  0  0  0  0  0  0  0  0  0
  -24.8400  -11.5370   20.0429 C   0  0  0  0  0  0  0  0  0  0  0  0
  -28.9180  -20.9131   19.6756 C   0  0  0  0  0  0  0  0  0  0  0  0
  -25.7311  -13.1522   18.8461 C   0  0  0  0  0  0  0  0  0  0  0  0
  -27.7398  -20.9507   18.9597 C   0  0  0  0  0  0  0  0  0  0  0  0
  -28.1931  -18.8929   20.1269 C   0  0  0  0  0  0  0  0  0  0  0  0
  -23.6930  -12.1323   17.8192 C   0  0  0  0  0  0  0  0  0  0  0  0
  -22.6040  -28.6789   22.9603 C   0  0  0  0  0  0  0  0  0  0  0  0
  -24.6071  -31.1915   23.4045 C   0  0  0  0  0  0  0  0  0  0  0  0
  -27.7603  -32.2948   24.1021 C   0  0  0  0  0  0  0  0  0  0  0  0
  -28.9424  -16.8831   21.4481 C   0  0  0  0  0  0  0  0  0  0  0  0
  -17.5623  -27.8818   22.9009 C   0  0  0  0  0  0  0  0  0  0  0  0
  -23.6630  -28.0935   25.1720 C   0  0  0  0  0  0  0  0  0  0  0  0
  -25.6802  -28.9198   23.1738 C   0  0  0  0  0  0  0  0  0  0  0  0
  -18.4826  -29.0721   22.6429 C   0  0  0  0  0  0  0  0  0  0  0  0
  -29.8061  -13.4506   21.8339 C   0  0  0  0  0  0  0  0  0  0  0  0
  -19.6087  -28.6799   21.6916 C   0  0  0  0  0  0  0  0  0  0  0  0
  -28.5786  -12.7061   21.3037 C   0  0  0  0  0  0  0  0  0  0  0  0
  -29.4173  -14.7240   22.5829 C   0  0  0  0  0  0  0  0  0  0  0  0
  -27.3161  -14.8954   21.3082 C   0  0  0  0  0  0  0  0  0  0  0  0
  -20.4785  -27.5701   22.2942 C   0  0  1  0  0  0  0  0  0  0  0  0
  -23.3764  -29.1851   24.1456 C   0  0  1  0  0  0  0  0  0  0  0  0
  -27.6608  -13.6399   20.4905 C   0  0  2  0  0  0  0  0  0  0  0  0
  -29.0981  -34.4024   24.3588 C   0  0  0  0  0  0  0  0  0  0  0  0
  -30.4460  -22.3866   18.3572 C   0  0  0  0  0  0  0  0  0  0  0  0
  -31.1992  -21.6923   20.6117 C   0  0  0  0  0  0  0  0  0  0  0  0
  -24.6609  -31.5237   20.3719 C   0  0  0  0  0  0  0  0  0  0  0  0
  -26.6895  -32.9670   20.6358 C   0  0  0  0  0  0  0  0  0  0  0  0
  -24.5223  -33.6666   21.6538 C   0  0  0  0  0  0  0  0  0  0  0  0
  -28.4159  -31.6731   26.9204 C   0  0  0  0  0  0  0  0  0  0  0  0
  -29.3076  -23.3618   20.3809 C   0  0  0  0  0  0  0  0  0  0  0  0
  -28.2873  -24.6483   22.2965 C   0  0  0  0  0  0  0  0  0  1  0  0
  -25.8077  -31.7436   22.6746 C   0  0  1  0  0  0  0  0  0  0  0  0
  -28.2679  -33.3465   25.0720 C   0  0  2  0  0  0  0  0  0  0  0  0
  -28.7816  -23.2812   21.8251 C   0  0  1  0  0  0  0  0  0  0  0  0
  -29.9411  -22.0577   19.7872 C   0  0  0  0  0  0  0  0  0  0  0  0
  -25.4198  -32.4487   21.3442 C   0  0  0  0  0  0  0  0  0  0  0  0
  -25.8964  -11.9376   20.7553 N   0  0  0  0  0  0  0  0  0  0  0  0
  -29.1794  -19.7340   20.3459 N   0  0  0  0  0  0  0  0  0  0  0  0
  -26.4178  -12.9204   20.0015 N   0  0  0  0  0  0  0  0  0  0  0  0
  -24.5961  -29.8071   23.6265 N   0  0  0  0  0  0  0  0  0  0  0  0
  -28.5517  -15.5613   21.7495 N   0  0  0  0  0  0  0  0  0  0  0  0
  -26.1186  -14.1057   17.9726 N   0  0  0  0  0  0  0  0  0  0  0  0
  -22.6928  -11.1630   17.9750 N   0  0  0  0  0  0  0  0  0  0  0  0
  -28.0558  -17.5721   20.6212 N   0  0  0  0  0  0  0  0  0  0  0  0
  -21.3832  -28.1175   23.2824 N   0  0  0  0  0  0  0  0  0  0  0  0
  -26.5037  -32.6035   23.6257 N   0  0  0  0  0  0  0  0  0  0  0  0
  -29.1136  -32.7155   26.1244 N   0  3  0  0  0  0  0  0  0  0  0  0
  -23.7005  -12.8464   16.7879 O   0  0  0  0  0  0  0  0  0  0  0  0
  -23.0799  -28.7908   21.8366 O   0  0  0  0  0  0  0  0  0  0  0  0
  -23.7153  -31.9611   23.7706 O   0  0  0  0  0  0  0  0  0  0  0  0
  -28.4147  -31.3009   23.7948 O   0  0  0  0  0  0  0  0  0  0  0  0
  -30.0000  -17.3591   21.8687 O   0  0  0  0  0  0  0  0  0  0  0  0
  -27.6923  -22.3651   21.8942 O   0  0  0  0  0  0  0  0  0  0  0  0
  -21.5839   -7.4028   21.9332 O   0  0  0  0  0  0  0  0  0  0  0  0
  -27.7813  -24.5244   23.6250 O   0  0  0  0  0  0  0  0  0  1  0  0
  -24.0649   -2.9189   23.9687 F   0  0  0  0  0  0  0  0  0  0  0  0
  -21.1565   -4.9127   20.8110 F   0  0  0  0  0  0  0  0  0  0  0  0
  -27.3023  -21.9903   18.2446 F   0  0  0  0  0  0  0  0  0  0  0  0
  -26.9188  -19.4539   19.1237 S   0  0  0  0  0  0  0  0  0  0  0  0
  1  2  1  0  0  0  0
  1  5  2  0  0  0  0
  2  6  2  0  0  0  0
  3  8  2  0  0  0  0
  3 15  1  0  0  0  0
  4  9  1  0  0  0  0
  4 15  2  0  0  0  0
  5 17  1  0  0  0  0
  6 19  1  0  0  0  0
  7 10  2  0  0  0  0
  7 18  1  0  0  0  0
  8 21  1  0  0  0  0
  9 21  2  0  0  0  0
 10 22  1  0  0  0  0
 11 12  2  0  0  0  0
 11 23  1  0  0  0  0
 12 24  1  0  0  0  0
 13 20  1  0  0  0  0
 13 22  2  0  0  0  0
 14 24  2  0  0  0  0
 14 25  1  0  0  0  0
 15 26  1  0  0  0  0
 16 26  1  0  0  0  0
 16 28  2  0  0  0  0
 16 31  1  0  0  0  0
 17 19  2  0  0  0  0
 17 36  1  0  0  0  0
 18 20  2  0  0  0  0
 18 37  1  0  0  0  0
 19 45  1  0  0  0  0
 20 38  1  0  0  0  0
 21 79  1  0  0  0  0
 22 80  1  0  0  0  0
 23 25  2  0  0  0  0
 23 79  1  0  0  0  0
 24 81  1  0  0  0  0
 25 82  1  0  0  0  0
 26 62  2  0  0  0  0
 27 29  2  0  0  0  0
 27 60  1  0  0  0  0
 27 63  1  0  0  0  0
 28 64  1  0  0  0  0
 28 67  1  0  0  0  0
 29 83  1  0  0  0  0
 29 84  1  0  0  0  0
 30 63  2  0  0  0  0
 30 69  1  0  0  0  0
 30 84  1  0  0  0  0
 31 68  1  0  0  0  0
 31 73  2  0  0  0  0
 32 46  1  0  0  0  0
 32 70  1  0  0  0  0
 32 74  2  0  0  0  0
 33 57  1  0  0  0  0
 33 65  1  0  0  0  0
 33 75  2  0  0  0  0
 34 58  1  0  0  0  0
 34 71  1  0  0  0  0
 34 76  2  0  0  0  0
 35 66  1  0  0  0  0
 35 69  1  0  0  0  0
 35 77  2  0  0  0  0
 36 39  1  0  0  0  0
 37 46  1  0  0  0  0
 38 65  1  0  0  0  0
 39 41  1  0  0  0  0
 40 42  1  0  0  0  0
 40 43  1  0  0  0  0
 41 45  1  0  0  0  0
 42 47  1  0  0  0  0
 43 66  1  0  0  0  0
 44 47  1  0  0  0  0
 44 66  1  0  0  0  0
 45 70  1  0  0  0  0
 46 65  1  0  0  0  0
 47 64  1  0  0  0  0
 48 58  1  0  0  0  0
 49 60  1  0  0  0  0
 50 60  1  0  0  0  0
 51 61  1  0  0  0  0
 52 61  1  0  0  0  0
 53 61  1  0  0  0  0
 54 72  1  0  0  0  0
 55 59  1  0  0  0  0
 55 60  1  0  0  0  0
 56 59  1  0  0  0  0
 56 80  1  0  0  0  0
 57 61  1  0  0  0  0
 57 71  1  0  0  0  0
 58 72  1  0  0  0  0
 59 78  1  0  0  0  0
 62 64  1  0  0  0  0
M  CHG  1  72   1
M  ISO  4  35 100  56 101  69 100  80 101
M  END
> <Batch ID>
0186

> <Smiles>
CNC(C)C(=O)NC(C(=O)N1Cc2cc([101O:1][101CH2:1]C(O)CC(C)(C)c3nc([100NH:0][100C:0](=O)N4CCCC(n5nc(-c6ccc(Oc7ccc(F)cc7F)cc6)c(C(N)=O)c5N)C4)sc3F)ccc2CC1C(=O)NC1CCCc2ccccc21)C(C)(C)C

> <Shape>
0.294

> <Color>
0.106

> <Negative vol penalty>
0.000

$$$$

  -OEChem-04052305093D

 85 93  0     1  0  0  0  0  0999 V2000
  -40.3833  -28.3762   27.6508 C   0  0  0  0  0  0  0  0  0  0  0  0
  -39.4305  -27.3887   27.4222 C   0  0  0  0  0  0  0  0  0  0  0  0
  -23.0743   -9.8659   19.9428 C   0  0  0  0  0  0  0  0  0  0  0  0
  -23.8323   -9.8773   22.2368 C   0  0  0  0  0  0  0  0  0  0  0  0
  -40.2563  -29.6214   27.0365 C   0  0  0  0  0  0  0  0  0  0  0  0
  -38.3494  -27.6462   26.5799 C   0  0  0  0  0  0  0  0  0  0  0  0
  -37.4439  -23.8414   23.3629 C   0  0  0  0  0  0  0  0  0  0  0  0
  -22.3307   -8.7129   20.1942 C   0  0  0  0  0  0  0  0  0  0  0  0
  -23.0887   -8.7243   22.4882 C   0  0  0  0  0  0  0  0  0  0  0  0
  -36.7761  -22.7264   23.8673 C   0  0  0  0  0  0  0  0  0  0  0  0
  -19.3816   -7.9178   21.6445 C   0  0  0  0  0  0  0  0  0  0  0  0
  -18.0751   -7.8702   21.1583 C   0  0  0  0  0  0  0  0  0  0  0  0
  -34.7148  -23.5356   22.9105 C   0  0  0  0  0  0  0  0  0  0  0  0
  -18.6366   -5.9250   19.8400 C   0  0  0  0  0  0  0  0  0  0  0  0
  -23.8252  -10.4481   20.9641 C   0  0  0  0  0  0  0  0  0  0  0  0
  -24.1662  -12.9731   20.8398 C   0  0  0  0  0  0  0  0  0  0  0  0
  -39.1783  -29.8910   26.1786 C   0  0  0  0  0  0  0  0  0  0  0  0
  -36.7489  -24.8191   22.6366 C   0  0  0  0  0  0  0  0  0  0  0  0
  -38.2071  -28.8965   25.9546 C   0  0  0  0  0  0  0  0  0  0  0  0
  -35.3767  -24.6608   22.3957 C   0  0  0  0  0  0  0  0  0  0  0  0
  -22.3378   -8.1421   21.4669 C   0  0  0  0  0  0  0  0  0  0  0  0
  -35.4108  -22.5748   23.6436 C   0  0  0  0  0  0  0  0  0  0  0  0
  -20.3156   -6.9691   21.2284 C   0  0  0  0  0  0  0  0  0  0  0  0
  -17.7026   -6.8738   20.2561 C   0  0  0  0  0  0  0  0  0  0  0  0
  -19.9431   -5.9726   20.3262 C   0  0  0  0  0  0  0  0  0  0  0  0
  -24.5940  -11.6388   20.7048 C   0  0  0  0  0  0  0  0  0  0  0  0
  -31.8057  -18.7313   22.2421 C   0  0  0  0  0  0  0  0  0  0  0  0
  -30.7034  -19.1005   22.9843 C   0  0  0  0  0  0  0  0  0  0  0  0
  -25.2583  -13.7224   20.4760 C   0  0  0  0  0  0  0  0  0  0  0  0
  -30.5677  -16.9535   21.9006 C   0  0  0  0  0  0  0  0  0  0  0  0
  -22.8952  -13.4892   21.2567 C   0  0  0  0  0  0  0  0  0  0  0  0
  -36.1602  -27.9167   23.0386 C   0  0  0  0  0  0  0  0  0  0  0  0
  -34.2713  -18.8165   22.6653 C   0  0  0  0  0  0  0  0  0  0  0  0
  -34.8689  -27.6577   20.0742 C   0  0  0  0  0  0  0  0  0  0  0  0
  -33.4571  -25.6613   17.6934 C   0  0  0  0  0  0  0  0  0  0  0  0
  -30.7240  -14.7702   20.6534 C   0  0  0  0  0  0  0  0  0  0  0  0
  -39.0581  -31.2677   25.5746 C   0  0  0  0  0  0  0  0  0  0  0  0
  -37.4891  -26.0025   22.0763 C   0  0  0  0  0  0  0  0  0  0  0  0
  -34.5886  -25.6716   21.6047 C   0  0  0  0  0  0  0  0  0  0  0  0
  -38.0843  -31.3349   24.4009 C   0  0  0  0  0  0  0  0  0  0  0  0
  -29.6124  -12.3519   18.2884 C   0  0  0  0  0  0  0  0  0  0  0  0
  -36.7838  -30.6156   24.7444 C   0  0  0  0  0  0  0  0  0  0  0  0
  -28.1725  -12.0606   18.7173 C   0  0  0  0  0  0  0  0  0  0  0  0
  -30.5265  -12.5831   19.4904 C   0  0  0  0  0  0  0  0  0  0  0  0
  -28.6181  -13.3093   20.8689 C   0  0  0  0  0  0  0  0  0  0  0  0
  -37.0336  -29.1294   25.0279 C   0  0  1  0  0  0  0  0  0  0  0  0
  -36.5809  -27.1944   21.7900 C   0  0  1  0  0  0  0  0  0  0  0  0
  -27.6463  -13.1337   19.6906 C   0  0  2  0  0  0  0  0  0  0  0  0
  -30.4510  -20.3264   23.7676 C   0  0  0  0  0  0  0  0  0  0  0  0
  -32.2311  -20.7504   19.9616 C   0  0  0  0  0  0  0  0  0  0  0  0
  -35.1744  -17.8346   24.7718 C   0  0  0  0  0  0  0  0  0  0  0  0
  -32.4687  -25.7420   15.3882 C   0  0  0  0  0  0  0  0  0  0  0  0
  -32.3216  -28.8930   21.2123 C   0  0  0  0  0  0  0  0  0  0  0  0
  -31.1042  -28.0837   19.1797 C   0  0  0  0  0  0  0  0  0  0  0  0
  -32.9638  -29.7297   18.9447 C   0  0  0  0  0  0  0  0  0  0  0  0
  -35.5047  -23.8108   16.6248 C   0  0  0  0  0  0  0  0  0  0  0  0
  -33.3415  -19.9115   20.5817 C   0  0  0  0  0  0  0  0  0  0  0  0
  -35.5081  -20.2820   24.2678 C   0  0  0  0  0  0  0  0  0  1  0  0
  -33.0701  -19.5473   22.0551 C   0  0  1  0  0  0  0  0  0  0  0  0
  -34.5685  -19.0845   24.1422 C   0  0  1  0  0  0  0  0  0  0  0  0
  -33.4998  -27.3291   19.5294 C   0  0  1  0  0  0  0  0  0  0  0  0
  -33.7306  -25.5186   16.2070 C   0  0  2  0  0  0  0  0  0  0  0  0
  -32.4865  -28.4906   19.7331 C   0  0  0  0  0  0  0  0  0  0  0  0
  -25.8593  -11.5427   20.2877 N   0  0  0  0  0  0  0  0  0  0  0  0
  -31.7298  -17.5003   21.6203 N   0  0  0  0  0  0  0  0  0  0  0  0
  -26.2358  -12.8262   20.1574 N   0  0  0  0  0  0  0  0  0  0  0  0
  -35.3560  -26.8147   21.0832 N   0  0  0  0  0  0  0  0  0  0  0  0
  -29.9664  -13.6153   20.3655 N   0  0  0  0  0  0  0  0  0  0  0  0
  -25.4683  -15.0538   20.4008 N   0  0  0  0  0  0  0  0  0  0  0  0
  -21.8833  -12.5803   21.5948 N   0  0  0  0  0  0  0  0  0  0  0  0
  -30.0757  -15.6965   21.4697 N   0  0  0  0  0  0  0  0  0  0  0  0
  -37.2136  -28.4019   23.7899 N   0  0  0  0  0  0  0  0  0  0  0  0
  -33.6965  -26.9452   18.1358 N   0  0  0  0  0  0  0  0  0  0  0  0
  -34.2518  -24.1556   15.9048 N   0  3  0  0  0  0  0  0  0  0  0  0
  -22.6584  -14.7199   21.3117 O   0  0  0  0  0  0  0  0  0  0  0  0
  -34.9681  -28.0270   23.3003 O   0  0  0  0  0  0  0  0  0  0  0  0
  -34.9676  -18.0436   22.0048 O   0  0  0  0  0  0  0  0  0  0  0  0
  -35.4865  -28.6223   19.6163 O   0  0  0  0  0  0  0  0  0  0  0  0
  -33.0664  -24.7282   18.3914 O   0  0  0  0  0  0  0  0  0  0  0  0
  -31.8534  -14.9386   20.1864 O   0  0  0  0  0  0  0  0  0  0  0  0
  -21.6121   -7.0172   21.7127 O   0  0  0  0  0  0  0  0  0  0  0  0
  -34.7564  -21.4877   24.1354 O   0  0  0  0  0  0  0  0  0  1  0  0
  -16.4475   -6.8273   19.7904 F   0  0  0  0  0  0  0  0  0  0  0  0
  -20.8357   -5.0577   19.9238 F   0  0  0  0  0  0  0  0  0  0  0  0
  -29.5169  -17.8645   22.9060 S   0  0  0  0  0  0  0  0  0  0  0  0
  1  2  1  0  0  0  0
  1  5  2  0  0  0  0
  2  6  2  0  0  0  0
  3  8  2  0  0  0  0
  3 15  1  0  0  0  0
  4  9  1  0  0  0  0
  4 15  2  0  0  0  0
  5 17  1  0  0  0  0
  6 19  1  0  0  0  0
  7 10  2  0  0  0  0
  7 18  1  0  0  0  0
  8 21  1  0  0  0  0
  9 21  2  0  0  0  0
 10 22  1  0  0  0  0
 11 12  2  0  0  0  0
 11 23  1  0  0  0  0
 12 24  1  0  0  0  0
 13 20  1  0  0  0  0
 13 22  2  0  0  0  0
 14 24  2  0  0  0  0
 14 25  1  0  0  0  0
 15 26  1  0  0  0  0
 16 26  1  0  0  0  0
 16 29  2  0  0  0  0
 16 31  1  0  0  0  0
 17 19  2  0  0  0  0
 17 37  1  0  0  0  0
 18 20  2  0  0  0  0
 18 38  1  0  0  0  0
 19 46  1  0  0  0  0
 20 39  1  0  0  0  0
 21 81  1  0  0  0  0
 22 82  1  0  0  0  0
 23 25  2  0  0  0  0
 23 81  1  0  0  0  0
 24 83  1  0  0  0  0
 25 84  1  0  0  0  0
 26 64  2  0  0  0  0
 27 28  2  0  0  0  0
 27 59  1  0  0  0  0
 27 65  1  0  0  0  0
 28 49  1  0  0  0  0
 28 85  1  0  0  0  0
 29 66  1  0  0  0  0
 29 69  1  0  0  0  0
 30 65  2  0  0  0  0
 30 71  1  0  0  0  0
 30 85  1  0  0  0  0
 31 70  1  0  0  0  0
 31 75  2  0  0  0  0
 32 47  1  0  0  0  0
 32 72  1  0  0  0  0
 32 76  2  0  0  0  0
 33 59  1  0  0  0  0
 33 60  1  0  0  0  0
 33 77  2  0  0  0  0
 34 61  1  0  0  0  0
 34 67  1  0  0  0  0
 34 78  2  0  0  0  0
 35 62  1  0  0  0  0
 35 73  1  0  0  0  0
 35 79  2  0  0  0  0
 36 68  1  0  0  0  0
 36 71  1  0  0  0  0
 36 80  2  0  0  0  0
 37 40  1  0  0  0  0
 38 47  1  0  0  0  0
 39 67  1  0  0  0  0
 40 42  1  0  0  0  0
 41 43  1  0  0  0  0
 41 44  1  0  0  0  0
 42 46  1  0  0  0  0
 43 48  1  0  0  0  0
 44 68  1  0  0  0  0
 45 48  1  0  0  0  0
 45 68  1  0  0  0  0
 46 72  1  0  0  0  0
 47 67  1  0  0  0  0
 48 66  1  0  0  0  0
 50 57  1  0  0  0  0
 51 60  1  0  0  0  0
 52 62  1  0  0  0  0
 53 63  1  0  0  0  0
 54 63  1  0  0  0  0
 55 63  1  0  0  0  0
 56 74  1  0  0  0  0
 57 59  1  0  0  0  0
 58 60  1  0  0  0  0
 58 82  1  0  0  0  0
 61 63  1  0  0  0  0
 61 73  1  0  0  0  0
 62 74  1  0  0  0  0
 64 66  1  0  0  0  0
M  CHG  1  74   1
M  ISO  4  36 100  58 101  71 100  82 101
M  END
> <Batch ID>
0186

> <Smiles>
CCC(C(=O)C(C)[101CH2:1][101O:1]c1ccc2c(c1)CN(C(=O)C(NC(=O)C(C)NC)C(C)(C)C)C(C(=O)NC1CCCc3ccccc31)C2)c1nc([100NH:0][100C:0](=O)N2CCCC(n3nc(-c4ccc(Oc5ccc(F)cc5F)cc4)c(C(N)=O)c3N)C2)sc1C

> <Shape>
0.155

> <Color>
0.184

> <Negative vol penalty>
0.000

$$$$

  -OEChem-04052305093D

 82 90  0     1  0  0  0  0  0999 V2000
  -27.5605  -24.6491   16.7157 C   0  0  0  0  0  0  0  0  0  0  0  0
  -26.3848  -24.9420   17.3992 C   0  0  0  0  0  0  0  0  0  0  0  0
  -26.9155  -17.1649   19.4376 C   0  0  0  0  0  0  0  0  0  0  0  0
  -24.6902  -16.4005   19.9860 C   0  0  0  0  0  0  0  0  0  0  0  0
  -28.7891  -25.0443   17.2432 C   0  0  0  0  0  0  0  0  0  0  0  0
  -26.4370  -25.6294   18.6113 C   0  0  0  0  0  0  0  0  0  0  0  0
  -22.9717  -29.3102   18.9083 C   0  0  0  0  0  0  0  0  0  0  0  0
  -27.2581  -15.8755   19.0306 C   0  0  0  0  0  0  0  0  0  0  0  0
  -25.0328  -15.1111   19.5790 C   0  0  0  0  0  0  0  0  0  0  0  0
  -21.6604  -28.9290   19.1893 C   0  0  0  0  0  0  0  0  0  0  0  0
  -28.1358  -12.9548   20.4878 C   0  0  0  0  0  0  0  0  0  0  0  0
  -29.3630  -12.4464   20.9132 C   0  0  0  0  0  0  0  0  0  0  0  0
  -21.9807  -29.5511   21.4979 C   0  0  0  0  0  0  0  0  0  0  0  0
  -30.0575  -12.1979   18.6126 C   0  0  0  0  0  0  0  0  0  0  0  0
  -20.7986  -25.2118   25.4692 C   0  0  0  0  0  0  0  0  0  0  0  0
  -25.6315  -17.4274   19.9154 C   0  0  0  0  0  0  0  0  0  0  0  0
  -24.7291  -19.7841   19.5424 C   0  0  0  0  0  0  0  0  0  0  0  0
  -28.8558  -25.7453   18.4576 C   0  0  0  0  0  0  0  0  0  0  0  0
  -23.8022  -29.8053   19.9240 C   0  0  0  0  0  0  0  0  0  0  0  0
  -27.6678  -26.0331   19.1563 C   0  0  0  0  0  0  0  0  0  0  0  0
  -23.3013  -29.9403   21.2267 C   0  0  0  0  0  0  0  0  0  0  0  0
  -26.3168  -14.8486   19.1013 C   0  0  0  0  0  0  0  0  0  0  0  0
  -21.1656  -29.0467   20.4849 C   0  0  0  0  0  0  0  0  0  0  0  0
  -27.8693  -13.0847   19.1248 C   0  0  0  0  0  0  0  0  0  0  0  0
  -30.3239  -12.0679   19.9756 C   0  0  0  0  0  0  0  0  0  0  0  0
  -28.8302  -12.7063   18.1872 C   0  0  0  0  0  0  0  0  0  0  0  0
  -25.2771  -18.7590   20.3365 C   0  0  0  0  0  0  0  0  0  0  0  0
  -24.5771  -20.8424   20.4046 C   0  0  0  0  0  0  0  0  0  0  0  0
  -21.0759  -24.2882   24.4832 C   0  0  0  0  0  0  0  0  0  0  0  0
  -19.2458  -25.7879   24.0316 C   0  0  0  0  0  0  0  0  0  0  0  0
  -24.3877  -19.7801   18.1498 C   0  0  0  0  0  0  0  0  0  0  0  0
  -26.5375  -28.8656   21.2426 C   0  0  0  0  0  0  0  0  0  0  0  0
  -18.4958  -27.1648   22.0464 C   0  0  0  0  0  0  0  0  0  0  0  0
  -26.3094  -31.7014   22.8009 C   0  0  0  0  0  0  0  0  0  0  0  0
  -24.3193  -34.2273   23.9439 C   0  0  0  0  0  0  0  0  0  0  0  0
  -23.0230  -22.9304   25.3268 C   0  0  0  0  0  0  0  0  0  0  0  0
  -30.2102  -26.1102   19.0117 C   0  0  0  0  0  0  0  0  0  0  0  0
  -25.2058  -30.2372   19.5991 C   0  0  0  0  0  0  0  0  0  0  0  0
  -24.1458  -30.4851   22.3485 C   0  0  0  0  0  0  0  0  0  0  0  0
  -30.1532  -27.1634   20.1153 C   0  0  0  0  0  0  0  0  0  0  0  0
  -26.2857  -21.5200   25.1209 C   0  0  0  0  0  0  0  0  0  0  0  0
  -29.0636  -26.8193   21.1258 C   0  0  0  0  0  0  0  0  0  0  0  0
  -26.2691  -20.7603   23.7925 C   0  0  0  0  0  0  0  0  0  0  0  0
  -24.9404  -21.4352   25.8396 C   0  0  0  0  0  0  0  0  0  0  0  0
  -23.7632  -21.0759   23.7056 C   0  0  0  0  0  0  0  0  0  0  0  0
  -27.6817  -26.7988   20.4615 C   0  0  1  0  0  0  0  0  0  0  0  0
  -26.1252  -30.2462   20.8165 C   0  0  1  0  0  0  0  0  0  0  0  0
  -25.0766  -21.1869   22.9142 C   0  0  2  0  0  0  0  0  0  0  0  0
  -24.4150  -36.3893   25.2142 C   0  0  0  0  0  0  0  0  0  0  0  0
  -17.4594  -27.6503   24.2590 C   0  0  0  0  0  0  0  0  0  0  0  0
  -16.9348  -25.5015   23.1353 C   0  0  0  0  0  0  0  0  0  0  0  0
  -26.6341  -30.1517   25.4091 C   0  0  0  0  0  0  0  0  0  0  0  0
  -25.7842  -32.1653   26.6302 C   0  0  0  0  0  0  0  0  0  0  0  0
  -27.8975  -32.3079   25.3126 C   0  0  0  0  0  0  0  0  0  0  0  0
  -23.2612  -35.7598   21.6437 C   0  0  0  0  0  0  0  0  0  0  0  0
  -19.6215  -28.1895   22.0776 C   0  0  0  0  0  0  0  0  0  1  0  0
  -25.6859  -32.1624   24.0962 C   0  0  1  0  0  0  0  0  0  0  0  0
  -24.4484  -35.7363   23.8412 C   0  0  2  0  0  0  0  0  0  0  0  0
  -18.0637  -26.5268   23.3904 C   0  0  0  0  0  0  0  0  0  0  0  0
  -26.4849  -31.6847   25.3415 C   0  0  0  0  0  0  0  0  0  0  0  0
  -19.7498  -26.0729   25.2118 N   0  0  0  0  0  0  0  0  0  0  0  0
  -25.4611  -19.1324   21.6056 N   0  0  0  0  0  0  0  0  0  0  0  0
  -25.0263  -20.4040   21.6155 N   0  0  0  0  0  0  0  0  0  0  0  0
  -25.5136  -30.8879   21.9819 N   0  0  0  0  0  0  0  0  0  0  0  0
  -23.8585  -21.8585   24.9478 N   0  0  0  0  0  0  0  0  0  0  0  0
  -24.1046  -22.0958   20.2376 N   0  0  0  0  0  0  0  0  0  0  0  0
  -24.6086  -18.6096   17.4112 N   0  0  0  0  0  0  0  0  0  0  0  0
  -22.0507  -23.2645   24.3847 N   0  0  0  0  0  0  0  0  0  0  0  0
  -27.1963  -28.1476   20.2628 N   0  0  0  0  0  0  0  0  0  0  0  0
  -25.5521  -33.6114   23.9918 N   0  0  0  0  0  0  0  0  0  0  0  0
  -23.3335  -36.2973   23.0268 N   0  3  0  0  0  0  0  0  0  0  0  0
  -23.9166  -20.7899   17.5738 O   0  0  0  0  0  0  0  0  0  0  0  0
  -26.2784  -28.4807   22.3768 O   0  0  0  0  0  0  0  0  0  0  0  0
  -17.9585  -26.8560   20.9803 O   0  0  0  0  0  0  0  0  0  0  0  0
  -27.4576  -32.0561   22.5226 O   0  0  0  0  0  0  0  0  0  0  0  0
  -23.2336  -33.6526   23.9818 O   0  0  0  0  0  0  0  0  0  0  0  0
  -23.1773  -23.5270   26.3956 O   0  0  0  0  0  0  0  0  0  0  0  0
  -26.6508  -13.5903   18.7040 O   0  0  0  0  0  0  0  0  0  0  0  0
  -19.8863  -28.6747   20.7620 O   0  0  0  0  0  0  0  0  0  1  0  0
  -31.5030  -11.5812   20.3843 F   0  0  0  0  0  0  0  0  0  0  0  0
  -28.5805  -12.8299   16.8764 F   0  0  0  0  0  0  0  0  0  0  0  0
  -19.9841  -24.4958   23.1770 S   0  0  0  0  0  0  0  0  0  0  0  0
  1  2  1  0  0  0  0
  1  5  2  0  0  0  0
  2  6  2  0  0  0  0
  3  8  2  0  0  0  0
  3 16  1  0  0  0  0
  4  9  1  0  0  0  0
  4 16  2  0  0  0  0
  5 18  1  0  0  0  0
  6 20  1  0  0  0  0
  7 10  2  0  0  0  0
  7 19  1  0  0  0  0
  8 22  1  0  0  0  0
  9 22  2  0  0  0  0
 10 23  1  0  0  0  0
 11 12  2  0  0  0  0
 11 24  1  0  0  0  0
 12 25  1  0  0  0  0
 13 21  1  0  0  0  0
 13 23  2  0  0  0  0
 14 25  2  0  0  0  0
 14 26  1  0  0  0  0
 15 29  2  0  0  0  0
 15 61  1  0  0  0  0
 16 27  1  0  0  0  0
 17 27  1  0  0  0  0
 17 28  2  0  0  0  0
 17 31  1  0  0  0  0
 18 20  2  0  0  0  0
 18 37  1  0  0  0  0
 19 21  2  0  0  0  0
 19 38  1  0  0  0  0
 20 46  1  0  0  0  0
 21 39  1  0  0  0  0
 22 78  1  0  0  0  0
 23 79  1  0  0  0  0
 24 26  2  0  0  0  0
 24 78  1  0  0  0  0
 25 80  1  0  0  0  0
 26 81  1  0  0  0  0
 27 62  2  0  0  0  0
 28 63  1  0  0  0  0
 28 66  1  0  0  0  0
 29 68  1  0  0  0  0
 29 82  1  0  0  0  0
 30 59  1  0  0  0  0
 30 61  2  0  0  0  0
 30 82  1  0  0  0  0
 31 67  1  0  0  0  0
 31 72  2  0  0  0  0
 32 47  1  0  0  0  0
 32 69  1  0  0  0  0
 32 73  2  0  0  0  0
 33 56  1  0  0  0  0
 33 59  1  0  0  0  0
 33 74  2  0  0  0  0
 34 57  1  0  0  0  0
 34 64  1  0  0  0  0
 34 75  2  0  0  0  0
 35 58  1  0  0  0  0
 35 70  1  0  0  0  0
 35 76  2  0  0  0  0
 36 65  1  0  0  0  0
 36 68  1  0  0  0  0
 36 77  2  0  0  0  0
 37 40  1  0  0  0  0
 38 47  1  0  0  0  0
 39 64  1  0  0  0  0
 40 42  1  0  0  0  0
 41 43  1  0  0  0  0
 41 44  1  0  0  0  0
 42 46  1  0  0  0  0
 43 48  1  0  0  0  0
 44 65  1  0  0  0  0
 45 48  1  0  0  0  0
 45 65  1  0  0  0  0
 46 69  1  0  0  0  0
 47 64  1  0  0  0  0
 48 63  1  0  0  0  0
 49 58  1  0  0  0  0
 50 59  1  0  0  0  0
 51 59  1  0  0  0  0
 52 60  1  0  0  0  0
 53 60  1  0  0  0  0
 54 60  1  0  0  0  0
 55 71  1  0  0  0  0
 56 79  1  0  0  0  0
 57 60  1  0  0  0  0
 57 70  1  0  0  0  0
 58 71  1  0  0  0  0
 62 63  1  0  0  0  0
M  CHG  1  71   1
M  ISO  4  36 100  56 101  68 100  79 101
M  END
> <Batch ID>
0186

> <Smiles>
CNC(C)C(=O)NC(C(=O)N1Cc2cc([101O:1][101CH2:1]C(=O)C(C)(C)c3ncc([100NH:0][100C:0](=O)N4CCCC(n5nc(-c6ccc(Oc7ccc(F)cc7F)cc6)c(C(N)=O)c5N)C4)s3)ccc2CC1C(=O)NC1CCCc2ccccc21)C(C)(C)C

> <Shape>
0.280

> <Color>
0.072

> <Negative vol penalty>
0.000

$$$$

  -OEChem-04052305093D

 86 94  0     1  0  0  0  0  0999 V2000
  -30.1483  -12.3542   19.8029 C   0  0  0  0  0  0  0  0  0  0  0  0
  -29.9054  -13.6717   19.4281 C   0  0  0  0  0  0  0  0  0  0  0  0
  -19.5213  -28.8297   23.5542 C   0  0  0  0  0  0  0  0  0  0  0  0
  -20.6204  -27.0158   22.3971 C   0  0  0  0  0  0  0  0  0  0  0  0
  -29.0805  -11.4864   20.0279 C   0  0  0  0  0  0  0  0  0  0  0  0
  -28.5943  -14.1220   19.2769 C   0  0  0  0  0  0  0  0  0  0  0  0
  -27.8387  -18.6536   21.4073 C   0  0  0  0  0  0  0  0  0  0  0  0
  -18.3262  -28.5196   22.9052 C   0  0  0  0  0  0  0  0  0  0  0  0
  -19.4253  -26.7056   21.7481 C   0  0  0  0  0  0  0  0  0  0  0  0
  -28.2951  -19.7700   20.7079 C   0  0  0  0  0  0  0  0  0  0  0  0
  -16.5755  -25.2093   20.0576 C   0  0  0  0  0  0  0  0  0  0  0  0
  -16.2050  -23.8665   19.9863 C   0  0  0  0  0  0  0  0  0  0  0  0
  -26.0545  -20.1812   19.9143 C   0  0  0  0  0  0  0  0  0  0  0  0
  -16.1733  -23.7471   22.3991 C   0  0  0  0  0  0  0  0  0  0  0  0
  -28.0961  -28.1888   18.2024 C   0  0  0  0  0  0  0  0  0  0  0  0
  -20.6684  -28.0778   23.3001 C   0  0  0  0  0  0  0  0  0  0  0  0
  -22.3598  -27.8893   25.2005 C   0  0  0  0  0  0  0  0  0  0  0  0
  -27.7555  -11.9289   19.8888 C   0  0  0  0  0  0  0  0  0  0  0  0
  -26.4865  -18.2857   21.3565 C   0  0  0  0  0  0  0  0  0  0  0  0
  -27.5078  -13.2589   19.4990 C   0  0  0  0  0  0  0  0  0  0  0  0
  -25.5831  -19.0612   20.6160 C   0  0  0  0  0  0  0  0  0  0  0  0
  -18.2782  -27.4575   22.0022 C   0  0  0  0  0  0  0  0  0  0  0  0
  -27.4035  -20.5323   19.9589 C   0  0  0  0  0  0  0  0  0  0  0  0
  -16.7450  -25.8210   21.2997 C   0  0  0  0  0  0  0  0  0  0  0  0
  -16.0038  -23.1354   21.1570 C   0  0  0  0  0  0  0  0  0  0  0  0
  -16.5439  -25.0899   22.4705 C   0  0  0  0  0  0  0  0  0  0  0  0
  -21.9034  -28.3981   23.9698 C   0  0  0  0  0  0  0  0  0  0  0  0
  -28.4979  -27.9953   19.5075 C   0  0  0  0  0  0  0  0  0  0  0  0
  -23.5745  -28.5000   25.3952 C   0  0  0  0  0  0  0  0  0  0  0  0
  -28.2547  -25.8956   18.9226 C   0  0  0  0  0  0  0  0  0  0  0  0
  -21.7410  -26.9487   26.0882 C   0  0  0  0  0  0  0  0  0  0  0  0
  -24.8931  -15.7340   20.3301 C   0  0  0  0  0  0  0  0  0  0  0  0
  -29.9365  -28.6489   21.4726 C   0  0  0  0  0  0  0  0  0  0  0  0
  -22.3552  -17.2788   21.6319 C   0  0  0  0  0  0  0  0  0  0  0  0
  -20.9538  -20.2308   22.6160 C   0  0  0  0  0  0  0  0  0  0  0  0
  -27.5967  -30.8660   21.6436 C   0  0  0  0  0  0  0  0  0  0  0  0
  -26.6348  -10.9413   20.0968 C   0  0  0  0  0  0  0  0  0  0  0  0
  -26.0052  -17.0941   22.1382 C   0  0  0  0  0  0  0  0  0  0  0  0
  -24.1177  -18.7204   20.5453 C   0  0  0  0  0  0  0  0  0  0  0  0
  -25.2694  -11.5991   20.2796 C   0  0  0  0  0  0  0  0  0  0  0  0
  -25.9600  -32.5118   24.3435 C   0  0  0  0  0  0  0  0  0  0  0  0
  -25.0514  -12.6788   19.2243 C   0  0  0  0  0  0  0  0  0  0  0  0
  -24.7759  -31.5982   24.6649 C   0  0  0  0  0  0  0  0  0  0  0  0
  -26.2451  -32.5597   22.8440 C   0  0  0  0  0  0  0  0  0  0  0  0
  -25.2459  -30.3291   22.5277 C   0  0  0  0  0  0  0  0  0  0  0  0
  -26.0992  -13.7915   19.3489 C   0  0  1  0  0  0  0  0  0  0  0  0
  -24.7010  -16.5137   21.6000 C   0  0  1  0  0  0  0  0  0  0  0  0
  -24.9553  -30.2046   24.0332 C   0  0  2  0  0  0  0  0  0  0  0  0
  -30.8097  -28.1656   23.7976 C   0  0  0  0  0  0  0  0  0  0  0  0
  -18.8536  -21.1803   23.6085 C   0  0  0  0  0  0  0  0  0  0  0  0
  -27.4121  -23.8214   21.1568 C   0  0  0  0  0  0  0  0  0  0  0  0
  -30.1310  -22.2297   18.8413 C   0  0  0  0  0  0  0  0  0  0  0  0
  -20.9484  -16.9728   18.9416 C   0  0  0  0  0  0  0  0  0  0  0  0
  -19.3129  -18.7201   19.6769 C   0  0  0  0  0  0  0  0  0  0  0  0
  -19.4897  -16.5722   20.9332 C   0  0  0  0  0  0  0  0  0  0  0  0
  -22.4006  -21.2626   24.9827 C   0  0  0  0  0  0  0  0  0  0  0  0
  -29.6210  -28.6078   22.9609 C   0  0  0  0  0  0  0  0  0  0  0  0
  -28.8334  -29.0604   20.4734 C   0  0  2  0  0  0  0  0  0  0  0  0
  -21.3425  -18.2808   21.1325 C   0  0  1  0  0  0  0  0  0  0  0  0
  -20.2423  -20.6308   23.8959 C   0  0  2  0  0  0  0  0  0  0  0  0
  -28.5854  -23.7665   20.1809 C   0  0  1  0  0  0  0  0  0  0  0  0
  -28.9652  -22.3206   19.8198 C   0  0  1  0  0  0  0  0  0  1  0  0
  -20.3013  -17.6420   20.1706 C   0  0  0  0  0  0  0  0  0  0  0  0
  -22.7585  -29.2653   23.4214 N   0  0  0  0  0  0  0  0  0  0  0  0
  -28.5890  -26.6810   19.9224 N   0  0  0  0  0  0  0  0  0  0  0  0
  -23.7643  -29.3063   24.3117 N   0  0  0  0  0  0  0  0  0  0  0  0
  -23.6969  -17.5424   21.3217 N   0  0  0  0  0  0  0  0  0  0  0  0
  -26.4063  -31.2063   22.3071 N   0  0  0  0  0  0  0  0  0  0  0  0
  -24.4881  -28.4207   26.3859 N   0  0  0  0  0  0  0  0  0  0  0  0
  -20.4926  -26.4184   25.7353 N   0  0  0  0  0  0  0  0  0  0  0  0
  -28.2350  -24.5148   18.9900 N   0  0  0  0  0  0  0  0  0  0  0  0
  -25.7714  -14.6737   20.4482 N   0  0  0  0  0  0  0  0  0  0  0  0
  -20.7600  -18.8984   22.3189 N   0  0  0  0  0  0  0  0  0  0  0  0
  -27.6703  -29.5614   21.1712 N   0  0  0  0  0  0  0  0  0  0  0  0
  -21.0217  -21.6767   24.6167 N   0  3  0  0  0  0  0  0  0  0  0  0
  -22.2717  -26.6016   27.1706 O   0  0  0  0  0  0  0  0  0  0  0  0
  -24.2882  -16.0686   19.3183 O   0  0  0  0  0  0  0  0  0  0  0  0
  -31.0597  -28.3645   21.0472 O   0  0  0  0  0  0  0  0  0  0  0  0
  -21.9706  -16.3020   22.2796 O   0  0  0  0  0  0  0  0  0  0  0  0
  -21.6125  -21.0222   21.9448 O   0  0  0  0  0  0  0  0  0  0  0  0
  -28.5273  -31.6641   21.4887 O   0  0  0  0  0  0  0  0  0  0  0  0
  -17.1122  -27.1545   21.3689 O   0  0  0  0  0  0  0  0  0  0  0  0
  -27.8465  -21.6222   19.2748 O   0  0  0  0  0  0  0  0  0  1  0  0
  -15.6465  -21.8463   21.0883 F   0  0  0  0  0  0  0  0  0  0  0  0
  -16.7041  -25.6724   23.6666 F   0  0  0  0  0  0  0  0  0  0  0  0
  -27.8203  -26.6704   17.4543 S   0  0  0  0  0  0  0  0  0  0  0  0
  1  2  1  0  0  0  0
  1  5  2  0  0  0  0
  2  6  2  0  0  0  0
  3  8  2  0  0  0  0
  3 16  1  0  0  0  0
  4  9  1  0  0  0  0
  4 16  2  0  0  0  0
  5 18  1  0  0  0  0
  6 20  1  0  0  0  0
  7 10  2  0  0  0  0
  7 19  1  0  0  0  0
  8 22  1  0  0  0  0
  9 22  2  0  0  0  0
 10 23  1  0  0  0  0
 11 12  2  0  0  0  0
 11 24  1  0  0  0  0
 12 25  1  0  0  0  0
 13 21  1  0  0  0  0
 13 23  2  0  0  0  0
 14 25  2  0  0  0  0
 14 26  1  0  0  0  0
 15 28  2  0  0  0  0
 15 86  1  0  0  0  0
 16 27  1  0  0  0  0
 17 27  1  0  0  0  0
 17 29  2  0  0  0  0
 17 31  1  0  0  0  0
 18 20  2  0  0  0  0
 18 37  1  0  0  0  0
 19 21  2  0  0  0  0
 19 38  1  0  0  0  0
 20 46  1  0  0  0  0
 21 39  1  0  0  0  0
 22 82  1  0  0  0  0
 23 83  1  0  0  0  0
 24 26  2  0  0  0  0
 24 82  1  0  0  0  0
 25 84  1  0  0  0  0
 26 85  1  0  0  0  0
 27 64  2  0  0  0  0
 28 58  1  0  0  0  0
 28 65  1  0  0  0  0
 29 66  1  0  0  0  0
 29 69  1  0  0  0  0
 30 65  2  0  0  0  0
 30 71  1  0  0  0  0
 30 86  1  0  0  0  0
 31 70  1  0  0  0  0
 31 76  2  0  0  0  0
 32 47  1  0  0  0  0
 32 72  1  0  0  0  0
 32 77  2  0  0  0  0
 33 57  1  0  0  0  0
 33 58  1  0  0  0  0
 33 78  2  0  0  0  0
 34 59  1  0  0  0  0
 34 67  1  0  0  0  0
 34 79  2  0  0  0  0
 35 60  1  0  0  0  0
 35 73  1  0  0  0  0
 35 80  2  0  0  0  0
 36 68  1  0  0  0  0
 36 74  1  0  0  0  0
 36 81  2  0  0  0  0
 37 40  1  0  0  0  0
 38 47  1  0  0  0  0
 39 67  1  0  0  0  0
 40 42  1  0  0  0  0
 41 43  1  0  0  0  0
 41 44  1  0  0  0  0
 42 46  1  0  0  0  0
 43 48  1  0  0  0  0
 44 68  1  0  0  0  0
 45 48  1  0  0  0  0
 45 68  1  0  0  0  0
 46 72  1  0  0  0  0
 47 67  1  0  0  0  0
 48 66  1  0  0  0  0
 49 57  1  0  0  0  0
 50 60  1  0  0  0  0
 51 61  1  0  0  0  0
 52 62  1  0  0  0  0
 53 63  1  0  0  0  0
 54 63  1  0  0  0  0
 55 63  1  0  0  0  0
 56 75  1  0  0  0  0
 58 74  1  0  0  0  0
 59 63  1  0  0  0  0
 59 73  1  0  0  0  0
 60 75  1  0  0  0  0
 61 62  1  0  0  0  0
 61 71  1  0  0  0  0
 62 83  1  0  0  0  0
 64 66  1  0  0  0  0
M  CHG  1  75   1
M  ISO  4  36 100  62 101  74 100  83 101
M  END
> <Batch ID>
0186

> <Smiles>
CCC(=O)C([100NH:0][100C:0](=O)N1CCCC(n2nc(-c3ccc(Oc4ccc(F)cc4F)cc3)c(C(N)=O)c2N)C1)c1csc(NC(C)[101CH:1](C)[101O:1]c2ccc3c(c2)CN(C(=O)C(NC(=O)C(C)NC)C(C)(C)C)C(C(=O)NC2CCCc4ccccc42)C3)n1

> <Shape>
0.230

> <Color>
0.079

> <Negative vol penalty>
0.000

$$$$

  -OEChem-04052305093D

 85 93  0     1  0  0  0  0  0999 V2000
  -17.4048  -22.5618   24.9506 C   0  0  0  0  0  0  0  0  0  0  0  0
  -18.2843  -22.1927   23.9380 C   0  0  0  0  0  0  0  0  0  0  0  0
  -26.0418  -13.3266   21.8142 C   0  0  0  0  0  0  0  0  0  0  0  0
  -25.2303  -14.4804   19.8527 C   0  0  0  0  0  0  0  0  0  0  0  0
  -17.1000  -23.9075   25.1514 C   0  0  0  0  0  0  0  0  0  0  0  0
  -18.8589  -23.1689   23.1248 C   0  0  0  0  0  0  0  0  0  0  0  0
  -24.4868  -23.1045   20.7108 C   0  0  0  0  0  0  0  0  0  0  0  0
  -24.9178  -12.5009   21.7935 C   0  0  0  0  0  0  0  0  0  0  0  0
  -24.1063  -13.6547   19.8321 C   0  0  0  0  0  0  0  0  0  0  0  0
  -24.9617  -22.7541   19.4476 C   0  0  0  0  0  0  0  0  0  0  0  0
  -23.8533   -9.7847   20.0842 C   0  0  0  0  0  0  0  0  0  0  0  0
  -24.0504   -8.4166   20.2718 C   0  0  0  0  0  0  0  0  0  0  0  0
  -24.9027  -25.0739   18.7886 C   0  0  0  0  0  0  0  0  0  0  0  0
  -22.6377   -8.4817   22.2307 C   0  0  0  0  0  0  0  0  0  0  0  0
  -31.2535  -24.3906   18.3086 C   0  0  0  0  0  0  0  0  0  0  0  0
  -26.1980  -14.3164   20.8438 C   0  0  0  0  0  0  0  0  0  0  0  0
  -28.5910  -14.9453   20.2225 C   0  0  0  0  0  0  0  0  0  0  0  0
  -17.6786  -24.9015   24.3465 C   0  0  0  0  0  0  0  0  0  0  0  0
  -24.2055  -24.4432   21.0193 C   0  0  0  0  0  0  0  0  0  0  0  0
  -18.5605  -24.5290   23.3141 C   0  0  0  0  0  0  0  0  0  0  0  0
  -24.4268  -25.4389   20.0572 C   0  0  0  0  0  0  0  0  0  0  0  0
  -23.9500  -12.6650   20.8025 C   0  0  0  0  0  0  0  0  0  0  0  0
  -25.1670  -23.7385   18.4854 C   0  0  0  0  0  0  0  0  0  0  0  0
  -23.0485  -10.5013   20.9700 C   0  0  0  0  0  0  0  0  0  0  0  0
  -23.4426   -7.7651   21.3450 C   0  0  0  0  0  0  0  0  0  0  0  0
  -22.4407   -9.8498   22.0431 C   0  0  0  0  0  0  0  0  0  0  0  0
  -27.3587  -15.1700   20.8649 C   0  0  0  0  0  0  0  0  0  0  0  0
  -30.8675  -23.0801   18.4973 C   0  0  0  0  0  0  0  0  0  0  0  0
  -29.3535  -16.0398   20.5499 C   0  0  0  0  0  0  0  0  0  0  0  0
  -29.3377  -23.6679   17.0399 C   0  0  0  0  0  0  0  0  0  0  0  0
  -29.0091  -13.8455   19.4032 C   0  0  0  0  0  0  0  0  0  0  0  0
  -21.5941  -26.0517   21.8540 C   0  0  0  0  0  0  0  0  0  0  0  0
  -23.6939  -28.4941   22.2384 C   0  0  0  0  0  0  0  0  0  0  0  0
  -26.7052  -29.8805   21.4281 C   0  0  0  0  0  0  0  0  0  0  0  0
  -29.9249  -21.5521   21.2078 C   0  0  0  0  0  0  0  0  0  0  0  0
  -17.2821  -26.3392   24.5710 C   0  0  0  0  0  0  0  0  0  0  0  0
  -23.7192  -24.8079   22.3951 C   0  0  0  0  0  0  0  0  0  0  0  0
  -24.1595  -26.8930   20.3450 C   0  0  0  0  0  0  0  0  0  0  0  0
  -18.2233  -27.3413   23.9075 C   0  0  0  0  0  0  0  0  0  0  0  0
  -28.5562  -19.7147   23.9331 C   0  0  0  0  0  0  0  0  0  0  0  0
  -18.5214  -26.9235   22.4711 C   0  0  0  0  0  0  0  0  0  0  0  0
  -28.2188  -18.3529   23.3234 C   0  0  0  0  0  0  0  0  0  0  0  0
  -28.3048  -20.8527   22.9464 C   0  0  0  0  0  0  0  0  0  0  0  0
  -28.6360  -19.3377   21.0310 C   0  0  0  0  0  0  0  0  0  0  0  0
  -19.2232  -25.5607   22.4272 C   0  0  1  0  0  0  0  0  0  0  0  0
  -22.9778  -26.1406   22.4330 C   0  0  1  0  0  0  0  0  0  0  0  0
  -28.9264  -18.1539   21.9695 C   0  0  2  0  0  0  0  0  0  0  0  0
  -33.8983  -20.7107   20.9181 C   0  0  0  0  0  0  0  0  0  0  0  0
  -28.1273  -31.9000   21.8718 C   0  0  0  0  0  0  0  0  0  0  0  0
  -26.7135  -22.5098   14.6745 C   0  0  0  0  0  0  0  0  0  0  0  0
  -21.9113  -30.1508   20.3979 C   0  0  0  0  0  0  0  0  0  0  0  0
  -23.8108  -31.7579   20.1199 C   0  0  0  0  0  0  0  0  0  0  0  0
  -22.8090  -31.3917   22.3749 C   0  0  0  0  0  0  0  0  0  0  0  0
  -28.8824  -28.2383   22.5778 C   0  0  0  0  0  0  0  0  0  0  0  0
  -33.2789  -20.1857   19.6291 C   0  0  0  0  0  0  0  0  0  0  0  0
  -26.4769  -22.2539   17.1679 C   0  0  0  0  0  0  0  0  0  1  0  0
  -31.5245  -22.1082   19.3936 C   0  0  2  0  0  0  0  0  0  0  0  0
  -24.2438  -29.5814   21.3473 C   0  0  1  0  0  0  0  0  0  0  0  0
  -27.8056  -30.4735   22.2895 C   0  0  2  0  0  0  0  0  0  0  0  0
  -27.4521  -22.4054   16.0024 C   0  0  2  0  0  0  0  0  0  0  0  0
  -32.6393  -21.2475   18.7179 C   0  0  2  0  0  0  0  0  0  0  0  0
  -23.1970  -30.6929   21.0537 C   0  0  0  0  0  0  0  0  0  0  0  0
  -27.3353  -16.3171   21.5487 N   0  0  0  0  0  0  0  0  0  0  0  0
  -29.7688  -22.6640   17.7710 N   0  0  0  0  0  0  0  0  0  0  0  0
  -28.5624  -16.8229   21.3380 N   0  0  0  0  0  0  0  0  0  0  0  0
  -23.6790  -27.1985   21.7027 N   0  0  0  0  0  0  0  0  0  0  0  0
  -29.0048  -20.6036   21.6839 N   0  0  0  0  0  0  0  0  0  0  0  0
  -30.6167  -16.3990   20.2377 N   0  0  0  0  0  0  0  0  0  0  0  0
  -28.1007  -12.8046   19.1676 N   0  0  0  0  0  0  0  0  0  0  0  0
  -28.2495  -23.6010   16.1894 N   0  0  0  0  0  0  0  0  0  0  0  0
  -20.6218  -25.7012   22.7713 N   0  0  0  0  0  0  0  0  0  0  0  0
  -25.4605  -30.0621   21.9930 N   0  0  0  0  0  0  0  0  0  0  0  0
  -30.5489  -21.2351   20.0074 N   0  0  0  0  0  0  0  0  0  0  0  0
  -32.0848  -20.5613   17.5073 N   0  3  0  0  0  0  0  0  0  0  0  0
  -29.0483  -29.6588   22.1757 N   0  3  0  0  0  0  0  0  0  0  0  0
  -30.1599  -13.7797   18.9084 O   0  0  0  0  0  0  0  0  0  0  0  0
  -21.4211  -26.2853   20.6636 O   0  0  0  0  0  0  0  0  0  0  0  0
  -23.2990  -28.7824   23.3709 O   0  0  0  0  0  0  0  0  0  0  0  0
  -26.9272  -29.3163   20.3590 O   0  0  0  0  0  0  0  0  0  0  0  0
  -30.1759  -22.6011   21.8107 O   0  0  0  0  0  0  0  0  0  0  0  0
  -22.8532  -11.8593   20.7819 O   0  0  0  0  0  0  0  0  0  0  0  0
  -25.6298  -23.3992   17.2515 O   0  0  0  0  0  0  0  0  0  1  0  0
  -23.6306   -6.4511   21.5241 F   0  0  0  0  0  0  0  0  0  0  0  0
  -21.6654  -10.5327   22.8966 F   0  0  0  0  0  0  0  0  0  0  0  0
  -30.2067  -25.1414   17.1764 S   0  0  0  0  0  0  0  0  0  0  0  0
  1  2  1  0  0  0  0
  1  5  2  0  0  0  0
  2  6  2  0  0  0  0
  3  8  2  0  0  0  0
  3 16  1  0  0  0  0
  4  9  1  0  0  0  0
  4 16  2  0  0  0  0
  5 18  1  0  0  0  0
  6 20  1  0  0  0  0
  7 10  2  0  0  0  0
  7 19  1  0  0  0  0
  8 22  1  0  0  0  0
  9 22  2  0  0  0  0
 10 23  1  0  0  0  0
 11 12  2  0  0  0  0
 11 24  1  0  0  0  0
 12 25  1  0  0  0  0
 13 21  1  0  0  0  0
 13 23  2  0  0  0  0
 14 25  2  0  0  0  0
 14 26  1  0  0  0  0
 15 28  2  0  0  0  0
 15 85  1  0  0  0  0
 16 27  1  0  0  0  0
 17 27  1  0  0  0  0
 17 29  2  0  0  0  0
 17 31  1  0  0  0  0
 18 20  2  0  0  0  0
 18 36  1  0  0  0  0
 19 21  2  0  0  0  0
 19 37  1  0  0  0  0
 20 45  1  0  0  0  0
 21 38  1  0  0  0  0
 22 81  1  0  0  0  0
 23 82  1  0  0  0  0
 24 26  2  0  0  0  0
 24 81  1  0  0  0  0
 25 83  1  0  0  0  0
 26 84  1  0  0  0  0
 27 63  2  0  0  0  0
 28 57  1  0  0  0  0
 28 64  1  0  0  0  0
 29 65  1  0  0  0  0
 29 68  1  0  0  0  0
 30 64  2  0  0  0  0
 30 70  1  0  0  0  0
 30 85  1  0  0  0  0
 31 69  1  0  0  0  0
 31 76  2  0  0  0  0
 32 46  1  0  0  0  0
 32 71  1  0  0  0  0
 32 77  2  0  0  0  0
 33 58  1  0  0  0  0
 33 66  1  0  0  0  0
 33 78  2  0  0  0  0
 34 59  1  0  0  0  0
 34 72  1  0  0  0  0
 34 79  2  0  0  0  0
 35 67  1  0  0  0  0
 35 73  1  0  0  0  0
 35 80  2  0  0  0  0
 36 39  1  0  0  0  0
 37 46  1  0  0  0  0
 38 66  1  0  0  0  0
 39 41  1  0  0  0  0
 40 42  1  0  0  0  0
 40 43  1  0  0  0  0
 41 45  1  0  0  0  0
 42 47  1  0  0  0  0
 43 67  1  0  0  0  0
 44 47  1  0  0  0  0
 44 67  1  0  0  0  0
 45 71  1  0  0  0  0
 46 66  1  0  0  0  0
 47 65  1  0  0  0  0
 48 55  1  0  0  0  0
 49 59  1  0  0  0  0
 50 60  1  0  0  0  0
 51 62  1  0  0  0  0
 52 62  1  0  0  0  0
 53 62  1  0  0  0  0
 54 75  1  0  0  0  0
 55 61  1  0  0  0  0
 56 60  1  0  0  0  0
 56 82  1  0  0  0  0
 57 61  1  0  0  0  0
 57 73  1  0  0  0  0
 58 62  1  0  0  0  0
 58 72  1  0  0  0  0
 59 75  1  0  0  0  0
 60 70  1  0  0  0  0
 61 74  1  0  0  0  0
 63 65  1  0  0  0  0
M  CHG  2  74   1  75   1
M  ISO  4  35 100  56 101  73 100  82 101
M  END
> <Batch ID>
0186

> <Smiles>
CCC(N)C([100NH:0][100C:0](=O)N1CCCC(n2nc(-c3ccc(Oc4ccc(F)cc4F)cc3)c(C(N)=O)c2N)C1)c1csc(NC(C)[101CH2:1][101O:1]c2ccc3c(c2)CN(C(=O)C(NC(=O)C(C)NC)C(C)(C)C)C(C(=O)NC2CCCc4ccccc42)C3)n1

> <Shape>
0.243

> <Color>
0.049

> <Negative vol penalty>
0.000

$$$$

  -OEChem-04052305093D

 84 92  0     1  0  0  0  0  0999 V2000
  -25.7457  -35.6643   23.3553 C   0  0  0  0  0  0  0  0  0  0  0  0
  -26.4271  -34.4519   23.3897 C   0  0  0  0  0  0  0  0  0  0  0  0
  -24.2007  -11.9865   19.4526 C   0  0  0  0  0  0  0  0  0  0  0  0
  -25.1110  -11.5324   21.6439 C   0  0  0  0  0  0  0  0  0  0  0  0
  -24.3530  -35.6819   23.4182 C   0  0  0  0  0  0  0  0  0  0  0  0
  -25.7161  -33.2563   23.4880 C   0  0  0  0  0  0  0  0  0  0  0  0
  -27.4274  -29.7106   20.3030 C   0  0  0  0  0  0  0  0  0  0  0  0
  -24.2699  -10.6284   19.1424 C   0  0  0  0  0  0  0  0  0  0  0  0
  -25.1802  -10.1742   21.3338 C   0  0  0  0  0  0  0  0  0  0  0  0
  -28.5937  -29.0384   20.6656 C   0  0  0  0  0  0  0  0  0  0  0  0
  -25.2596   -6.5404   21.2495 C   0  0  0  0  0  0  0  0  0  0  0  0
  -24.8144   -5.6317   22.2095 C   0  0  0  0  0  0  0  0  0  0  0  0
  -27.2717  -27.1762   21.4426 C   0  0  0  0  0  0  0  0  0  0  0  0
  -22.6171   -6.6338   22.1389 C   0  0  0  0  0  0  0  0  0  0  0  0
  -24.6214  -12.4386   20.7034 C   0  0  0  0  0  0  0  0  0  0  0  0
  -23.4710  -14.5252   21.6146 C   0  0  0  0  0  0  0  0  0  0  0  0
  -23.6242  -34.4855   23.5076 C   0  0  0  0  0  0  0  0  0  0  0  0
  -26.1718  -29.1243   20.5178 C   0  0  0  0  0  0  0  0  0  0  0  0
  -24.3124  -33.2581   23.5535 C   0  0  0  0  0  0  0  0  0  0  0  0
  -26.0910  -27.8420   21.0794 C   0  0  0  0  0  0  0  0  0  0  0  0
  -24.7596   -9.7222   20.0830 C   0  0  0  0  0  0  0  0  0  0  0  0
  -28.5159  -27.7722   21.2382 C   0  0  0  0  0  0  0  0  0  0  0  0
  -24.3836   -7.4959   20.7343 C   0  0  0  0  0  0  0  0  0  0  0  0
  -23.4931   -5.6783   22.6542 C   0  0  0  0  0  0  0  0  0  0  0  0
  -23.0624   -7.5425   21.1790 C   0  0  0  0  0  0  0  0  0  0  0  0
  -24.5507  -13.8415   21.0242 C   0  0  0  0  0  0  0  0  0  0  0  0
  -28.0302  -23.1156   17.6489 C   0  0  0  0  0  0  0  0  0  0  0  0
  -23.8986  -15.8271   21.7077 C   0  0  0  0  0  0  0  0  0  0  0  0
  -28.0279  -23.8055   16.4547 C   0  0  0  0  0  0  0  0  0  0  0  0
  -29.6014  -24.5751   18.1083 C   0  0  0  0  0  0  0  0  0  0  0  0
  -27.1974  -22.0174   17.9638 C   0  0  0  0  0  0  0  0  0  0  0  0
  -27.1612  -21.3241   19.1496 C   0  0  0  0  0  0  0  0  0  0  0  0
  -22.1956  -14.0279   22.0409 C   0  0  0  0  0  0  0  0  0  0  0  0
  -26.2221  -20.1987   19.3295 C   0  0  0  0  0  0  0  0  0  0  0  0
  -23.6137  -29.8720   22.2501 C   0  0  0  0  0  0  0  0  0  0  0  0
  -22.3189  -27.3164   20.7286 C   0  0  0  0  0  0  0  0  0  0  0  0
  -22.8134  -24.3635   19.0908 C   0  0  0  0  0  0  0  0  0  0  0  0
  -22.1219  -34.5574   23.6207 C   0  0  0  0  0  0  0  0  0  0  0  0
  -24.9243  -29.8513   20.0965 C   0  0  0  0  0  0  0  0  0  0  0  0
  -24.7684  -27.1602   21.3124 C   0  0  0  0  0  0  0  0  0  0  0  0
  -21.4261  -33.2268   23.3461 C   0  0  0  0  0  0  0  0  0  0  0  0
  -28.4648  -17.8622   21.0450 C   0  0  0  0  0  0  0  0  0  0  0  0
  -22.1217  -32.0957   24.0969 C   0  0  0  0  0  0  0  0  0  0  0  0
  -27.5592  -16.6428   21.1954 C   0  0  0  0  0  0  0  0  0  0  0  0
  -28.1870  -18.6244   19.7502 C   0  0  0  0  0  0  0  0  0  0  0  0
  -25.8516  -17.7964   19.7347 C   0  0  0  0  0  0  0  0  0  0  0  0
  -23.5754  -31.9389   23.6347 C   0  0  1  0  0  0  0  0  0  0  0  0
  -23.6768  -29.3742   20.8338 C   0  0  1  0  0  0  0  0  0  0  0  0
  -26.0816  -17.0412   21.0531 C   0  0  1  0  0  0  0  0  0  0  0  0
  -21.5612  -22.4831   17.9984 C   0  0  0  0  0  0  0  0  0  0  0  0
  -31.9023  -23.7021   20.0882 C   0  0  0  0  0  0  0  0  0  0  0  0
  -21.5941  -26.2058   23.4766 C   0  0  0  0  0  0  0  0  0  0  0  0
  -21.2333  -23.9734   22.4021 C   0  0  0  0  0  0  0  0  0  0  0  0
  -19.8222  -25.9194   21.7351 C   0  0  0  0  0  0  0  0  0  0  0  0
  -24.0715  -24.8965   16.4656 C   0  0  0  0  0  0  0  0  0  0  0  0
  -30.8266  -27.3858   20.8290 C   0  0  0  0  0  0  0  0  0  1  0  0
  -22.2412  -25.8343   21.0049 C   0  0  1  0  0  0  0  0  0  0  0  0
  -22.2447  -23.8255   17.7902 C   0  0  2  0  0  0  0  0  0  0  0  0
  -31.0003  -24.9327   20.1432 C   0  0  1  0  0  0  0  0  0  0  0  0
  -31.6989  -26.1317   20.8052 C   0  0  1  0  0  0  0  0  0  0  0  0
  -21.2477  -25.4966   22.1522 C   0  0  0  0  0  0  0  0  0  0  0  0
  -25.5863  -14.6428   20.7606 N   0  0  0  0  0  0  0  0  0  0  0  0
  -28.9321  -23.5551   18.5981 N   0  0  0  0  0  0  0  0  0  0  0  0
  -25.1592  -15.8435   21.1873 N   0  0  0  0  0  0  0  0  0  0  0  0
  -26.7583  -18.9430   19.6091 N   0  0  0  0  0  0  0  0  0  0  0  0
  -23.5768  -27.9143   20.8894 N   0  0  0  0  0  0  0  0  0  0  0  0
  -23.3155  -16.9480   22.1830 N   0  0  0  0  0  0  0  0  0  0  0  0
  -27.2572  -23.5940   15.3590 N   0  0  0  0  0  0  0  0  0  0  0  0
  -21.9198  -12.6642   21.8720 N   0  0  0  0  0  0  0  0  0  0  0  0
  -30.5875  -25.2608   18.7930 N   0  0  0  0  0  0  0  0  0  0  0  0
  -23.6299  -31.2490   22.3637 N   0  0  0  0  0  0  0  0  0  0  0  0
  -21.9220  -25.1979   19.7315 N   0  0  0  0  0  0  0  0  0  0  0  0
  -23.3299  -23.6493   16.7840 N   0  3  0  0  0  0  0  0  0  0  0  0
  -21.3200  -14.7740   22.5412 O   0  0  0  0  0  0  0  0  0  0  0  0
  -25.0187  -20.4387   19.2162 O   0  0  0  0  0  0  0  0  0  0  0  0
  -23.5532  -29.0664   23.1715 O   0  0  0  0  0  0  0  0  0  0  0  0
  -21.3025  -27.9199   20.3760 O   0  0  0  0  0  0  0  0  0  0  0  0
  -23.9346  -24.0697   19.4996 O   0  0  0  0  0  0  0  0  0  0  0  0
  -32.9146  -26.4225   20.1134 O   0  0  0  0  0  0  0  0  0  0  0  0
  -24.8270   -8.3968   19.7807 O   0  0  0  0  0  0  0  0  0  0  0  0
  -29.6527  -27.1142   21.5937 O   0  0  0  0  0  0  0  0  0  1  0  0
  -23.0653   -4.8046   23.5750 F   0  0  0  0  0  0  0  0  0  0  0  0
  -22.2158   -8.4574   20.6868 F   0  0  0  0  0  0  0  0  0  0  0  0
  -29.1971  -25.0589   16.5122 S   0  0  0  0  0  0  0  0  0  0  0  0
  1  2  1  0  0  0  0
  1  5  2  0  0  0  0
  2  6  2  0  0  0  0
  3  8  2  0  0  0  0
  3 15  1  0  0  0  0
  4  9  1  0  0  0  0
  4 15  2  0  0  0  0
  5 17  1  0  0  0  0
  6 19  1  0  0  0  0
  7 10  2  0  0  0  0
  7 18  1  0  0  0  0
  8 21  1  0  0  0  0
  9 21  2  0  0  0  0
 10 22  1  0  0  0  0
 11 12  2  0  0  0  0
 11 23  1  0  0  0  0
 12 24  1  0  0  0  0
 13 20  1  0  0  0  0
 13 22  2  0  0  0  0
 14 24  2  0  0  0  0
 14 25  1  0  0  0  0
 15 26  1  0  0  0  0
 16 26  1  0  0  0  0
 16 28  2  0  0  0  0
 16 33  1  0  0  0  0
 17 19  2  0  0  0  0
 17 38  1  0  0  0  0
 18 20  2  0  0  0  0
 18 39  1  0  0  0  0
 19 47  1  0  0  0  0
 20 40  1  0  0  0  0
 21 80  1  0  0  0  0
 22 81  1  0  0  0  0
 23 25  2  0  0  0  0
 23 80  1  0  0  0  0
 24 82  1  0  0  0  0
 25 83  1  0  0  0  0
 26 62  2  0  0  0  0
 27 29  2  0  0  0  0
 27 31  1  0  0  0  0
 27 63  1  0  0  0  0
 28 64  1  0  0  0  0
 28 67  1  0  0  0  0
 29 68  1  0  0  0  0
 29 84  1  0  0  0  0
 30 63  2  0  0  0  0
 30 70  1  0  0  0  0
 30 84  1  0  0  0  0
 31 32  2  0  0  0  0
 32 34  1  0  0  0  0
 33 69  1  0  0  0  0
 33 74  2  0  0  0  0
 34 65  1  0  0  0  0
 34 75  2  0  0  0  0
 35 48  1  0  0  0  0
 35 71  1  0  0  0  0
 35 76  2  0  0  0  0
 36 57  1  0  0  0  0
 36 66  1  0  0  0  0
 36 77  2  0  0  0  0
 37 58  1  0  0  0  0
 37 72  1  0  0  0  0
 37 78  2  0  0  0  0
 38 41  1  0  0  0  0
 39 48  1  0  0  0  0
 40 66  1  0  0  0  0
 41 43  1  0  0  0  0
 42 44  1  0  0  0  0
 42 45  1  0  0  0  0
 43 47  1  0  0  0  0
 44 49  1  0  0  0  0
 45 65  1  0  0  0  0
 46 49  1  0  0  0  0
 46 65  1  0  0  0  0
 47 71  1  0  0  0  0
 48 66  1  0  0  0  0
 49 64  1  0  0  0  0
 50 58  1  0  0  0  0
 51 59  1  0  0  0  0
 52 61  1  0  0  0  0
 53 61  1  0  0  0  0
 54 61  1  0  0  0  0
 55 73  1  0  0  0  0
 56 60  1  0  0  0  0
 56 81  1  0  0  0  0
 57 61  1  0  0  0  0
 57 72  1  0  0  0  0
 58 73  1  0  0  0  0
 59 60  1  0  0  0  0
 59 70  1  0  0  0  0
 60 79  1  0  0  0  0
 62 64  1  0  0  0  0
M  CHG  1  73   1
M  ISO  4  32 100  34 100  56 101  81 101
M  END
> <Batch ID>
0186

> <Smiles>
CNC(C)C(=O)NC(C(=O)N1Cc2cc([101O:1][101CH2:1]C(O)C(C)Nc3nc(C=[100CH:0][100C:0](=O)N4CCCC(n5nc(-c6ccc(Oc7ccc(F)cc7F)cc6)c(C(N)=O)c5N)C4)c(N)s3)ccc2CC1C(=O)NC1CCCc2ccccc21)C(C)(C)C

> <Shape>
0.260

> <Color>
0.065

> <Negative vol penalty>
0.000

$$$$

  -OEChem-04052305093D

 84 92  0     1  0  0  0  0  0999 V2000
  -29.1000  -25.3369   16.4423 C   0  0  0  0  0  0  0  0  0  0  0  0
  -27.8934  -25.3460   17.1348 C   0  0  0  0  0  0  0  0  0  0  0  0
  -25.7359  -13.1348   19.1909 C   0  0  0  0  0  0  0  0  0  0  0  0
  -24.3351  -13.4739   21.1299 C   0  0  0  0  0  0  0  0  0  0  0  0
  -30.2185  -25.9683   16.9847 C   0  0  0  0  0  0  0  0  0  0  0  0
  -27.8050  -25.9856   18.3707 C   0  0  0  0  0  0  0  0  0  0  0  0
  -23.6317  -28.8223   18.7959 C   0  0  0  0  0  0  0  0  0  0  0  0
  -25.9146  -11.7998   19.5535 C   0  0  0  0  0  0  0  0  0  0  0  0
  -24.5137  -12.1389   21.4925 C   0  0  0  0  0  0  0  0  0  0  0  0
  -22.4349  -28.1585   19.0620 C   0  0  0  0  0  0  0  0  0  0  0  0
  -23.2872   -9.1257   20.5779 C   0  0  0  0  0  0  0  0  0  0  0  0
  -22.1599   -8.4077   20.9772 C   0  0  0  0  0  0  0  0  0  0  0  0
  -23.0760  -23.8049   23.6149 C   0  0  0  0  0  0  0  0  0  0  0  0
  -24.2237  -23.2831   24.2788 C   0  0  0  0  0  0  0  0  0  0  0  0
  -22.6297  -28.7535   21.3916 C   0  0  0  0  0  0  0  0  0  0  0  0
  -23.1769   -8.0094   23.1322 C   0  0  0  0  0  0  0  0  0  0  0  0
  -24.9462  -13.9719   19.9792 C   0  0  0  0  0  0  0  0  0  0  0  0
  -23.7501  -15.8809   18.7822 C   0  0  0  0  0  0  0  0  0  0  0  0
  -30.1412  -26.6242   18.2234 C   0  0  0  0  0  0  0  0  0  0  0  0
  -24.3432  -29.4486   19.8294 C   0  0  0  0  0  0  0  0  0  0  0  0
  -28.9239  -26.6252   18.9308 C   0  0  0  0  0  0  0  0  0  0  0  0
  -23.8339  -29.4269   21.1356 C   0  0  0  0  0  0  0  0  0  0  0  0
  -25.3035  -11.3019   20.7042 C   0  0  0  0  0  0  0  0  0  0  0  0
  -21.9352  -28.1215   20.3605 C   0  0  0  0  0  0  0  0  0  0  0  0
  -24.3593   -9.2854   21.4558 C   0  0  0  0  0  0  0  0  0  0  0  0
  -22.1048   -7.8496   22.2543 C   0  0  0  0  0  0  0  0  0  0  0  0
  -24.3042   -8.7273   22.7329 C   0  0  0  0  0  0  0  0  0  0  0  0
  -24.7617  -15.3512   19.6055 C   0  0  0  0  0  0  0  0  0  0  0  0
  -24.0136  -17.2281   18.7380 C   0  0  0  0  0  0  0  0  0  0  0  0
  -23.4085  -24.4845   22.4638 C   0  0  0  0  0  0  0  0  0  0  0  0
  -25.3898  -23.5836   23.6096 C   0  0  0  0  0  0  0  0  0  0  0  0
  -22.6687  -15.2147   18.1169 C   0  0  0  0  0  0  0  0  0  0  0  0
  -27.2255  -29.0734   21.1159 C   0  0  0  0  0  0  0  0  0  0  0  0
  -26.4039  -31.7374   22.7743 C   0  0  0  0  0  0  0  0  0  0  0  0
  -23.9253  -33.7346   24.0050 C   0  0  0  0  0  0  0  0  0  0  0  0
  -21.2126  -25.2874   21.5299 C   0  0  0  0  0  0  0  0  0  0  0  0
  -26.7565  -20.8388   22.5031 C   0  0  0  0  0  0  0  0  0  0  0  0
  -31.3893  -27.2522   18.7913 C   0  0  0  0  0  0  0  0  0  0  0  0
  -25.6190  -30.1833   19.5213 C   0  0  0  0  0  0  0  0  0  0  0  0
  -24.5492  -30.1009   22.2769 C   0  0  0  0  0  0  0  0  0  0  0  0
  -31.1148  -28.2292   19.9317 C   0  0  0  0  0  0  0  0  0  0  0  0
  -27.6230  -20.3526   19.0353 C   0  0  0  0  0  0  0  0  0  0  0  0
  -30.1316  -27.6236   20.9284 C   0  0  0  0  0  0  0  0  0  0  0  0
  -26.8856  -19.0515   18.7151 C   0  0  0  0  0  0  0  0  0  0  0  0
  -28.1979  -20.3340   20.4494 C   0  0  0  0  0  0  0  0  0  0  0  0
  -26.4618  -18.7502   21.1954 C   0  0  0  0  0  0  0  0  0  0  0  0
  -28.7818  -27.3297   20.2626 C   0  0  1  0  0  0  0  0  0  0  0  0
  -26.5232  -30.3471   20.7390 C   0  0  1  0  0  0  0  0  0  0  0  0
  -25.8329  -18.7274   19.7911 C   0  0  2  0  0  0  0  0  0  0  0  0
  -23.5626  -35.8207   25.3518 C   0  0  0  0  0  0  0  0  0  0  0  0
  -19.2927  -25.6975   19.9471 C   0  0  0  0  0  0  0  0  0  0  0  0
  -27.0719  -30.2033   25.3258 C   0  0  0  0  0  0  0  0  0  0  0  0
  -25.8173  -31.9430   26.6173 C   0  0  0  0  0  0  0  0  0  0  0  0
  -27.8416  -32.5827   25.3074 C   0  0  0  0  0  0  0  0  0  0  0  0
  -22.5468  -35.0834   21.7601 C   0  0  0  0  0  0  0  0  0  0  0  0
  -25.7047  -32.0078   24.0847 C   0  0  1  0  0  0  0  0  0  0  0  0
  -23.7262  -35.2387   23.9563 C   0  0  2  0  0  0  0  0  0  0  0  0
  -20.7167  -26.0795   20.3228 C   0  0  1  0  0  0  0  0  0  1  0  0
  -26.5961  -31.6698   25.3128 C   0  0  0  0  0  0  0  0  0  0  0  0
  -25.6051  -16.2857   20.0520 N   0  0  0  0  0  0  0  0  0  0  0  0
  -25.1240  -17.4161   19.5073 N   0  0  0  0  0  0  0  0  0  0  0  0
  -25.7959  -30.8010   21.9261 N   0  0  0  0  0  0  0  0  0  0  0  0
  -27.1478  -20.0257   21.4271 N   0  0  0  0  0  0  0  0  0  0  0  0
  -23.4016  -18.2584   18.1165 N   0  0  0  0  0  0  0  0  0  0  0  0
  -22.5444  -13.8269   18.2688 N   0  0  0  0  0  0  0  0  0  0  0  0
  -22.5968  -25.1512   21.5153 N   0  0  0  0  0  0  0  0  0  0  0  0
  -28.0166  -28.5487   20.1117 N   0  0  0  0  0  0  0  0  0  0  0  0
  -25.2619  -33.3969   24.0320 N   0  0  0  0  0  0  0  0  0  0  0  0
  -27.4276  -22.0988   22.6740 N   0  0  0  0  0  0  0  0  0  0  0  0
  -22.5113  -35.5750   23.1615 N   0  3  0  0  0  0  0  0  0  0  0  0
  -21.8471  -15.8293   17.3954 O   0  0  0  0  0  0  0  0  0  0  0  0
  -27.0630  -28.6023   22.2355 O   0  0  0  0  0  0  0  0  0  0  0  0
  -27.4471  -32.3402   22.5098 O   0  0  0  0  0  0  0  0  0  0  0  0
  -22.9887  -32.9389   24.0214 O   0  0  0  0  0  0  0  0  0  0  0  0
  -20.4323  -24.8667   22.3792 O   0  0  0  0  0  0  0  0  0  0  0  0
  -25.8625  -20.5080   23.2830 O   0  0  0  0  0  0  0  0  0  0  0  0
  -27.8283  -24.4497   23.6726 O   0  0  0  0  0  0  0  0  0  0  0  0
  -27.1859  -22.5597   25.2083 O   0  0  0  0  0  0  0  0  0  0  0  0
  -25.4775   -9.9992   21.0582 O   0  0  0  0  0  0  0  0  0  0  0  0
  -20.7676  -27.4736   20.6230 O   0  0  0  0  0  0  0  0  0  1  0  0
  -21.0216   -7.1615   22.6382 F   0  0  0  0  0  0  0  0  0  0  0  0
  -25.3306   -8.8785   23.5811 F   0  0  0  0  0  0  0  0  0  0  0  0
  -25.0984  -24.4916   22.1873 S   0  0  0  0  0  0  0  0  0  0  0  0
  -27.0918  -23.2260   23.9237 S   0  0  0  0  0  0  0  0  0  0  0  0
  1  2  1  0  0  0  0
  1  5  2  0  0  0  0
  2  6  2  0  0  0  0
  3  8  2  0  0  0  0
  3 17  1  0  0  0  0
  4  9  1  0  0  0  0
  4 17  2  0  0  0  0
  5 19  1  0  0  0  0
  6 21  1  0  0  0  0
  7 10  2  0  0  0  0
  7 20  1  0  0  0  0
  8 23  1  0  0  0  0
  9 23  2  0  0  0  0
 10 24  1  0  0  0  0
 11 12  2  0  0  0  0
 11 25  1  0  0  0  0
 12 26  1  0  0  0  0
 13 14  1  0  0  0  0
 13 30  2  0  0  0  0
 14 31  2  0  0  0  0
 15 22  1  0  0  0  0
 15 24  2  0  0  0  0
 16 26  2  0  0  0  0
 16 27  1  0  0  0  0
 17 28  1  0  0  0  0
 18 28  1  0  0  0  0
 18 29  2  0  0  0  0
 18 32  1  0  0  0  0
 19 21  2  0  0  0  0
 19 38  1  0  0  0  0
 20 22  2  0  0  0  0
 20 39  1  0  0  0  0
 21 47  1  0  0  0  0
 22 40  1  0  0  0  0
 23 79  1  0  0  0  0
 24 80  1  0  0  0  0
 25 27  2  0  0  0  0
 25 79  1  0  0  0  0
 26 81  1  0  0  0  0
 27 82  1  0  0  0  0
 28 60  2  0  0  0  0
 29 61  1  0  0  0  0
 29 64  1  0  0  0  0
 30 66  1  0  0  0  0
 30 83  1  0  0  0  0
 31 83  1  0  0  0  0
 31 84  1  0  0  0  0
 32 65  1  0  0  0  0
 32 71  2  0  0  0  0
 33 48  1  0  0  0  0
 33 67  1  0  0  0  0
 33 72  2  0  0  0  0
 34 56  1  0  0  0  0
 34 62  1  0  0  0  0
 34 73  2  0  0  0  0
 35 57  1  0  0  0  0
 35 68  1  0  0  0  0
 35 74  2  0  0  0  0
 36 58  1  0  0  0  0
 36 66  1  0  0  0  0
 36 75  2  0  0  0  0
 37 63  1  0  0  0  0
 37 69  1  0  0  0  0
 37 76  2  0  0  0  0
 38 41  1  0  0  0  0
 39 48  1  0  0  0  0
 40 62  1  0  0  0  0
 41 43  1  0  0  0  0
 42 44  1  0  0  0  0
 42 45  1  0  0  0  0
 43 47  1  0  0  0  0
 44 49  1  0  0  0  0
 45 63  1  0  0  0  0
 46 49  1  0  0  0  0
 46 63  1  0  0  0  0
 47 67  1  0  0  0  0
 48 62  1  0  0  0  0
 49 61  1  0  0  0  0
 50 57  1  0  0  0  0
 51 58  1  0  0  0  0
 52 59  1  0  0  0  0
 53 59  1  0  0  0  0
 54 59  1  0  0  0  0
 55 70  1  0  0  0  0
 56 59  1  0  0  0  0
 56 68  1  0  0  0  0
 57 70  1  0  0  0  0
 58 80  1  0  0  0  0
 60 61  1  0  0  0  0
 69 84  1  0  0  0  0
 77 84  2  0  0  0  0
 78 84  2  0  0  0  0
M  CHG  1  70   1
M  ISO  4  37 100  58 101  69 100  80 101
M  END
> <Batch ID>
0186

> <Smiles>
CNC(C)C(=O)NC(C(=O)N1Cc2cc([101O:1][101CH:1](C)C(=O)Nc3ccc(S(=O)(=O)[100NH:0][100C:0](=O)N4CCCC(n5nc(-c6ccc(Oc7ccc(F)cc7F)cc6)c(C(N)=O)c5N)C4)s3)ccc2CC1C(=O)NC1CCCc2ccccc21)C(C)(C)C

> <Shape>
0.275

> <Color>
0.082

> <Negative vol penalty>
0.000

$$$$

  -OEChem-04052305093D

 83 91  0     1  0  0  0  0  0999 V2000
  -16.9911  -30.3276   24.4422 C   0  0  0  0  0  0  0  0  0  0  0  0
  -18.2445  -30.5078   25.0184 C   0  0  0  0  0  0  0  0  0  0  0  0
  -23.0454  -14.4491   20.7305 C   0  0  0  0  0  0  0  0  0  0  0  0
  -24.3686  -14.9704   22.6836 C   0  0  0  0  0  0  0  0  0  0  0  0
  -16.8411  -29.4633   23.3586 C   0  0  0  0  0  0  0  0  0  0  0  0
  -19.3484  -29.8228   24.5120 C   0  0  0  0  0  0  0  0  0  0  0  0
  -26.4071  -30.5559   23.5352 C   0  0  0  0  0  0  0  0  0  0  0  0
  -22.7947  -13.1752   21.2403 C   0  0  0  0  0  0  0  0  0  0  0  0
  -24.1178  -13.6965   23.1935 C   0  0  0  0  0  0  0  0  0  0  0  0
  -27.6053  -29.8930   23.7973 C   0  0  0  0  0  0  0  0  0  0  0  0
  -24.4232  -10.2229   21.4774 C   0  0  0  0  0  0  0  0  0  0  0  0
  -24.5433   -9.1413   20.6049 C   0  0  0  0  0  0  0  0  0  0  0  0
  -27.2411  -28.4862   21.8718 C   0  0  0  0  0  0  0  0  0  0  0  0
  -22.2253   -8.5766   20.9858 C   0  0  0  0  0  0  0  0  0  0  0  0
  -31.4401  -22.5694   20.1808 C   0  0  0  0  0  0  0  0  0  0  0  0
  -23.8324  -15.3467   21.4522 C   0  0  0  0  0  0  0  0  0  0  0  0
  -23.3285  -17.8270   21.1327 C   0  0  0  0  0  0  0  0  0  0  0  0
  -17.9455  -28.7747   22.8325 C   0  0  0  0  0  0  0  0  0  0  0  0
  -25.6102  -30.1811   22.4439 C   0  0  0  0  0  0  0  0  0  0  0  0
  -19.2128  -28.9474   23.4211 C   0  0  0  0  0  0  0  0  0  0  0  0
  -26.0346  -29.1477   21.5965 C   0  0  0  0  0  0  0  0  0  0  0  0
  -23.3309  -12.7989   22.4718 C   0  0  0  0  0  0  0  0  0  0  0  0
  -28.0211  -28.8561   22.9672 C   0  0  0  0  0  0  0  0  0  0  0  0
  -23.2041  -10.4813   22.1042 C   0  0  0  0  0  0  0  0  0  0  0  0
  -23.4444   -8.3182   20.3590 C   0  0  0  0  0  0  0  0  0  0  0  0
  -22.1052   -9.6582   21.8584 C   0  0  0  0  0  0  0  0  0  0  0  0
  -24.0922  -16.6626   20.9258 C   0  0  0  0  0  0  0  0  0  0  0  0
  -30.9399  -21.4904   20.8792 C   0  0  0  0  0  0  0  0  0  0  0  0
  -23.9897  -18.8014   20.4258 C   0  0  0  0  0  0  0  0  0  0  0  0
  -30.3485  -23.6619   21.7380 C   0  0  0  0  0  0  0  0  0  0  0  0
  -22.1287  -18.0113   21.8958 C   0  0  0  0  0  0  0  0  0  0  0  0
  -22.6647  -29.0350   22.1061 C   0  0  0  0  0  0  0  0  0  0  0  0
  -23.2899  -29.4357   18.9484 C   0  0  0  0  0  0  0  0  0  0  0  0
  -25.6172  -29.6920   16.4655 C   0  0  0  0  0  0  0  0  0  0  0  0
  -29.8976  -26.0496   22.3949 C   0  0  0  0  0  0  0  0  0  0  0  0
  -29.6861  -19.4235   18.6893 C   0  0  0  0  0  0  0  0  0  0  0  0
  -17.7255  -27.8148   21.6902 C   0  0  0  0  0  0  0  0  0  0  0  0
  -24.3336  -30.9239   22.1592 C   0  0  0  0  0  0  0  0  0  0  0  0
  -25.2254  -28.7204   20.4002 C   0  0  0  0  0  0  0  0  0  0  0  0
  -19.0132  -27.4133   20.9754 C   0  0  0  0  0  0  0  0  0  0  0  0
  -26.8023  -19.3961   16.6013 C   0  0  0  0  0  0  0  0  0  0  0  0
  -20.0934  -27.0459   21.9878 C   0  0  0  0  0  0  0  0  0  0  0  0
  -25.7118  -18.7975   17.4915 C   0  0  0  0  0  0  0  0  0  0  0  0
  -28.1604  -18.7470   16.8587 C   0  0  0  0  0  0  0  0  0  0  0  0
  -27.5025  -18.1556   19.1589 C   0  0  0  0  0  0  0  0  0  0  0  0
  -20.4388  -28.2410   22.8843 C   0  0  1  0  0  0  0  0  0  0  0  0
  -23.3478  -30.1176   21.3193 C   0  0  1  0  0  0  0  0  0  0  0  0
  -26.1258  -18.8170   18.9753 C   0  0  2  0  0  0  0  0  0  0  0  0
  -31.0884  -26.8796   25.0933 C   0  0  0  0  0  0  0  0  0  0  0  0
  -25.8237  -29.9768   13.9808 C   0  0  0  0  0  0  0  0  0  0  0  0
  -22.5092  -26.5130   18.5510 C   0  0  0  0  0  0  0  0  0  0  0  0
  -23.6201  -26.5935   16.3088 C   0  0  0  0  0  0  0  0  0  0  0  0
  -21.6648  -28.0679   16.7836 C   0  0  0  0  0  0  0  0  0  0  0  0
  -27.0928  -32.2401   16.7635 C   0  0  0  0  0  0  0  0  0  0  0  0
  -31.1034  -20.0453   20.6293 C   0  0  0  0  0  0  0  0  0  0  0  0
  -29.6239  -26.5113   24.8827 C   0  0  0  0  0  0  0  0  0  0  0  0
  -23.8938  -28.5800   17.8612 C   0  0  1  0  0  0  0  0  0  0  0  0
  -25.7697  -30.6837   15.3263 C   0  0  2  0  0  0  0  0  0  0  0  0
  -29.1129  -26.8036   23.4683 C   0  0  1  0  0  0  0  0  0  1  0  0
  -22.9365  -27.4451   17.3997 C   0  0  0  0  0  0  0  0  0  0  0  0
  -31.1017  -23.8154   20.6716 N   0  0  0  0  0  0  0  0  0  0  0  0
  -25.1570  -16.8758   20.1482 N   0  0  0  0  0  0  0  0  0  0  0  0
  -25.0671  -18.1854   19.8602 N   0  0  0  0  0  0  0  0  0  0  0  0
  -23.9817  -29.4731   20.1674 N   0  0  0  0  0  0  0  0  0  0  0  0
  -28.4944  -18.8000   18.2840 N   0  0  0  0  0  0  0  0  0  0  0  0
  -23.7487  -20.1165   20.2389 N   0  0  0  0  0  0  0  0  0  0  0  0
  -21.5827  -16.9045   22.5601 N   0  0  0  0  0  0  0  0  0  0  0  0
  -29.7811  -24.6726   22.5499 N   0  0  0  0  0  0  0  0  0  0  0  0
  -21.2916  -29.1728   22.1781 N   0  0  0  0  0  0  0  0  0  0  0  0
  -24.2934  -29.4943   16.7968 N   0  0  0  0  0  0  0  0  0  0  0  0
  -29.9233  -19.4354   20.0584 N   0  0  0  0  0  0  0  0  0  0  0  0
  -27.0217  -31.4747   15.4922 N   0  3  0  0  0  0  0  0  0  0  0  0
  -21.5486  -19.1208   21.9724 O   0  0  0  0  0  0  0  0  0  0  0  0
  -23.3337  -28.1400   22.6093 O   0  0  0  0  0  0  0  0  0  0  0  0
  -22.2468  -30.0540   18.7221 O   0  0  0  0  0  0  0  0  0  0  0  0
  -26.5763  -29.1446   17.0049 O   0  0  0  0  0  0  0  0  0  0  0  0
  -30.5170  -26.6503   21.5215 O   0  0  0  0  0  0  0  0  0  0  0  0
  -30.4772  -19.9366   17.8907 O   0  0  0  0  0  0  0  0  0  0  0  0
  -23.0863  -11.5560   22.9696 O   0  0  0  0  0  0  0  0  0  0  0  0
  -29.1898  -28.2070   23.2212 O   0  0  0  0  0  0  0  0  0  1  0  0
  -23.5594   -7.2805   19.5199 F   0  0  0  0  0  0  0  0  0  0  0  0
  -20.9312   -9.9021   22.4567 F   0  0  0  0  0  0  0  0  0  0  0  0
  -30.0082  -22.0466   22.2073 S   0  0  0  0  0  0  0  0  0  0  0  0
  1  2  1  0  0  0  0
  1  5  2  0  0  0  0
  2  6  2  0  0  0  0
  3  8  2  0  0  0  0
  3 16  1  0  0  0  0
  4  9  1  0  0  0  0
  4 16  2  0  0  0  0
  5 18  1  0  0  0  0
  6 20  1  0  0  0  0
  7 10  2  0  0  0  0
  7 19  1  0  0  0  0
  8 22  1  0  0  0  0
  9 22  2  0  0  0  0
 10 23  1  0  0  0  0
 11 12  2  0  0  0  0
 11 24  1  0  0  0  0
 12 25  1  0  0  0  0
 13 21  1  0  0  0  0
 13 23  2  0  0  0  0
 14 25  2  0  0  0  0
 14 26  1  0  0  0  0
 15 28  2  0  0  0  0
 15 61  1  0  0  0  0
 16 27  1  0  0  0  0
 17 27  1  0  0  0  0
 17 29  2  0  0  0  0
 17 31  1  0  0  0  0
 18 20  2  0  0  0  0
 18 37  1  0  0  0  0
 19 21  2  0  0  0  0
 19 38  1  0  0  0  0
 20 46  1  0  0  0  0
 21 39  1  0  0  0  0
 22 79  1  0  0  0  0
 23 80  1  0  0  0  0
 24 26  2  0  0  0  0
 24 79  1  0  0  0  0
 25 81  1  0  0  0  0
 26 82  1  0  0  0  0
 27 62  2  0  0  0  0
 28 55  1  0  0  0  0
 28 83  1  0  0  0  0
 29 63  1  0  0  0  0
 29 66  1  0  0  0  0
 30 61  2  0  0  0  0
 30 68  1  0  0  0  0
 30 83  1  0  0  0  0
 31 67  1  0  0  0  0
 31 73  2  0  0  0  0
 32 47  1  0  0  0  0
 32 69  1  0  0  0  0
 32 74  2  0  0  0  0
 33 57  1  0  0  0  0
 33 64  1  0  0  0  0
 33 75  2  0  0  0  0
 34 58  1  0  0  0  0
 34 70  1  0  0  0  0
 34 76  2  0  0  0  0
 35 59  1  0  0  0  0
 35 68  1  0  0  0  0
 35 77  2  0  0  0  0
 36 65  1  0  0  0  0
 36 71  1  0  0  0  0
 36 78  2  0  0  0  0
 37 40  1  0  0  0  0
 38 47  1  0  0  0  0
 39 64  1  0  0  0  0
 40 42  1  0  0  0  0
 41 43  1  0  0  0  0
 41 44  1  0  0  0  0
 42 46  1  0  0  0  0
 43 48  1  0  0  0  0
 44 65  1  0  0  0  0
 45 48  1  0  0  0  0
 45 65  1  0  0  0  0
 46 69  1  0  0  0  0
 47 64  1  0  0  0  0
 48 63  1  0  0  0  0
 49 56  1  0  0  0  0
 50 58  1  0  0  0  0
 51 60  1  0  0  0  0
 52 60  1  0  0  0  0
 53 60  1  0  0  0  0
 54 72  1  0  0  0  0
 55 71  1  0  0  0  0
 56 59  1  0  0  0  0
 57 60  1  0  0  0  0
 57 70  1  0  0  0  0
 58 72  1  0  0  0  0
 59 80  1  0  0  0  0
 62 63  1  0  0  0  0
M  CHG  1  72   1
M  ISO  4  36 100  59 101  71 100  80 101
M  END
> <Batch ID>
0186

> <Smiles>
CC[101CH:1](C(=O)Nc1ncc(C[100NH:0][100C:0](=O)N2CCCC(n3nc(-c4ccc(Oc5ccc(F)cc5F)cc4)c(C(N)=O)c3N)C2)s1)[101O:1]c1ccc2c(c1)CN(C(=O)C(NC(=O)C(C)NC)C(C)(C)C)C(C(=O)NC1CCCc3ccccc31)C2

> <Shape>
0.222

> <Color>
0.085

> <Negative vol penalty>
0.000

$$$$

  -OEChem-04052305093D

 85 93  0     1  0  0  0  0  0999 V2000
  -26.1675  -20.3437   14.3928 C   0  0  0  0  0  0  0  0  0  0  0  0
  -26.6689  -19.2065   15.0159 C   0  0  0  0  0  0  0  0  0  0  0  0
  -23.7392  -28.3638   21.1176 C   0  0  0  0  0  0  0  0  0  0  0  0
  -24.7576  -27.7756   23.2281 C   0  0  0  0  0  0  0  0  0  0  0  0
  -25.0601  -20.9970   14.9296 C   0  0  0  0  0  0  0  0  0  0  0  0
  -26.0560  -18.7155   16.1692 C   0  0  0  0  0  0  0  0  0  0  0  0
  -27.6718  -14.4009   17.8948 C   0  0  0  0  0  0  0  0  0  0  0  0
  -30.7964  -20.6831   24.6684 C   0  0  0  0  0  0  0  0  0  0  0  0
  -22.5874  -28.7753   21.7881 C   0  0  0  0  0  0  0  0  0  0  0  0
  -23.6057  -28.1871   23.8986 C   0  0  0  0  0  0  0  0  0  0  0  0
  -28.9115  -14.2541   18.5156 C   0  0  0  0  0  0  0  0  0  0  0  0
  -19.2420  -29.6451   22.9176 C   0  0  0  0  0  0  0  0  0  0  0  0
  -18.0104  -29.2439   22.4002 C   0  0  0  0  0  0  0  0  0  0  0  0
  -30.0040  -21.4312   23.8048 C   0  0  0  0  0  0  0  0  0  0  0  0
  -27.8188  -14.1731   20.6647 C   0  0  0  0  0  0  0  0  0  0  0  0
  -18.6443  -26.9300   22.6855 C   0  0  0  0  0  0  0  0  0  0  0  0
  -24.8243  -27.8639   21.8376 C   0  0  0  0  0  0  0  0  0  0  0  0
  -27.1370  -28.2237   20.8230 C   0  0  0  0  0  0  0  0  0  0  0  0
  -24.4416  -20.5202   16.0971 C   0  0  0  0  0  0  0  0  0  0  0  0
  -26.4952  -14.4460   18.6564 C   0  0  0  0  0  0  0  0  0  0  0  0
  -24.9228  -19.3470   16.7129 C   0  0  0  0  0  0  0  0  0  0  0  0
  -26.5652  -14.3180   20.0509 C   0  0  0  0  0  0  0  0  0  0  0  0
  -31.3618  -19.4917   24.2278 C   0  0  0  0  0  0  0  0  0  0  0  0
  -22.5206  -28.6870   23.1785 C   0  0  0  0  0  0  0  0  0  0  0  0
  -28.9853  -14.1430   19.9010 C   0  0  0  0  0  0  0  0  0  0  0  0
  -20.1749  -28.6887   23.3189 C   0  0  0  0  0  0  0  0  0  0  0  0
  -17.7115  -27.8864   22.2842 C   0  0  0  0  0  0  0  0  0  0  0  0
  -19.8759  -27.3312   23.2029 C   0  0  0  0  0  0  0  0  0  0  0  0
  -26.0142  -27.4382   21.1456 C   0  0  0  0  0  0  0  0  0  0  0  0
  -29.8092  -20.9482   22.5209 C   0  0  0  0  0  0  0  0  0  0  0  0
  -31.1060  -19.0953   22.9250 C   0  0  0  0  0  0  0  0  0  0  0  0
  -27.9852  -27.3601   20.1740 C   0  0  0  0  0  0  0  0  0  0  0  0
  -27.3906  -29.6101   21.0865 C   0  0  0  0  0  0  0  0  0  0  0  0
  -24.2094  -16.6040   19.1275 C   0  0  0  0  0  0  0  0  0  0  0  0
  -22.8144  -14.1919   20.7881 C   0  0  0  0  0  0  0  0  0  0  0  0
  -31.5427  -17.3128   21.1997 C   0  0  0  0  0  0  0  0  0  0  0  0
  -23.1848  -11.2802   22.5292 C   0  0  0  0  0  0  0  0  0  0  0  0
  -28.6696  -21.4260   20.3256 C   0  0  0  0  0  0  0  0  0  0  0  0
  -23.2413  -21.2618   16.6305 C   0  0  0  0  0  0  0  0  0  0  0  0
  -25.1637  -14.5781   17.9694 C   0  0  0  0  0  0  0  0  0  0  0  0
  -25.3299  -14.3401   20.9123 C   0  0  0  0  0  0  0  0  0  0  0  0
  -22.9367  -20.9298   18.0877 C   0  0  0  0  0  0  0  0  0  0  0  0
  -27.9552  -23.4146   17.4599 C   0  0  0  0  0  0  0  0  0  0  0  0
  -22.9153  -19.4212   18.2836 C   0  0  0  0  0  0  0  0  0  0  0  0
  -27.4844  -24.7456   18.0504 C   0  0  0  0  0  0  0  0  0  0  0  0
  -27.4826  -22.2252   18.2940 C   0  0  0  0  0  0  0  0  0  0  0  0
  -27.3428  -23.6294   20.3134 C   0  0  0  0  0  0  0  0  0  0  0  0
  -24.2912  -18.8122   17.9855 C   0  0  1  0  0  0  0  0  0  0  0  0
  -24.0722  -15.1279   18.8826 C   0  0  1  0  0  0  0  0  0  0  0  0
  -27.8491  -24.8601   19.5436 C   0  0  2  0  0  0  0  0  0  0  0  0
  -33.8213  -16.2184   21.2649 C   0  0  0  0  0  0  0  0  0  0  0  0
  -21.8672   -9.5632   23.7993 C   0  0  0  0  0  0  0  0  0  0  0  0
  -22.5857  -16.1151   23.1459 C   0  0  0  0  0  0  0  0  0  0  0  0
  -22.1668  -14.1400   24.6265 C   0  0  0  0  0  0  0  0  0  0  0  0
  -20.5771  -14.6710   22.7789 C   0  0  0  0  0  0  0  0  0  0  0  0
  -23.9865   -9.1211   20.6706 C   0  0  0  0  0  0  0  0  0  0  0  0
  -31.7731  -14.9401   22.0742 C   0  0  0  0  0  0  0  0  0  0  0  0
  -30.3236  -14.5289   21.8287 C   0  0  0  0  0  0  0  0  0  1  0  0
  -22.8520  -13.7192   22.2214 C   0  0  1  0  0  0  0  0  0  0  0  0
  -32.3189  -15.9937   21.0952 C   0  0  1  0  0  0  0  0  0  0  0  0
  -22.4446   -9.9573   22.4488 C   0  0  2  0  0  0  0  0  0  0  0  0
  -22.0690  -14.6628   23.1774 C   0  0  0  0  0  0  0  0  0  0  0  0
  -26.1351  -26.1729   20.7352 N   0  0  0  0  0  0  0  0  0  0  0  0
  -30.3416  -19.7954   22.0571 N   0  0  0  0  0  0  0  0  0  0  0  0
  -27.3438  -26.1568   20.1480 N   0  0  0  0  0  0  0  0  0  0  0  0
  -24.0520  -14.4775   20.1943 N   0  0  0  0  0  0  0  0  0  0  0  0
  -27.8673  -22.4011   19.6961 N   0  0  0  0  0  0  0  0  0  0  0  0
  -32.1629  -18.7323   25.1011 N   0  0  0  0  0  0  0  0  0  0  0  0
  -29.2097  -27.5203   19.6286 N   0  0  0  0  0  0  0  0  0  0  0  0
  -26.4129  -30.3511   21.7640 N   0  0  0  0  0  0  0  0  0  0  0  0
  -31.6744  -17.8849   22.4616 N   0  0  0  0  0  0  0  0  0  0  0  0
  -28.9986  -21.7168   21.6491 N   0  0  0  0  0  0  0  0  0  0  0  0
  -24.1777  -17.3704   17.9780 N   0  0  0  0  0  0  0  0  0  0  0  0
  -22.3668  -12.3434   22.2103 N   0  0  0  0  0  0  0  0  0  0  0  0
  -23.3648   -8.8754   21.9973 N   0  3  0  0  0  0  0  0  0  0  0  0
  -28.4459  -30.1789   20.7172 O   0  0  0  0  0  0  0  0  0  0  0  0
  -24.3334  -17.0172   20.2745 O   0  0  0  0  0  0  0  0  0  0  0  0
  -21.7275  -14.2968   20.2143 O   0  0  0  0  0  0  0  0  0  0  0  0
  -30.9037  -17.7581   20.2505 O   0  0  0  0  0  0  0  0  0  0  0  0
  -24.3692  -11.3625   22.8471 O   0  0  0  0  0  0  0  0  0  0  0  0
  -29.0604  -20.4213   19.7257 O   0  0  0  0  0  0  0  0  0  0  0  0
  -21.3969  -29.0886   23.8331 O   0  0  0  0  0  0  0  0  0  0  0  0
  -30.1941  -14.0002   20.5096 O   0  0  0  0  0  0  0  0  0  1  0  0
  -16.5281  -27.5013   21.7887 F   0  0  0  0  0  0  0  0  0  0  0  0
  -20.7676  -26.4079   23.5878 F   0  0  0  0  0  0  0  0  0  0  0  0
  1  2  1  0  0  0  0
  1  5  2  0  0  0  0
  2  6  2  0  0  0  0
  3  9  2  0  0  0  0
  3 17  1  0  0  0  0
  4 10  1  0  0  0  0
  4 17  2  0  0  0  0
  5 19  1  0  0  0  0
  6 21  1  0  0  0  0
  7 11  2  0  0  0  0
  7 20  1  0  0  0  0
  8 14  2  0  0  0  0
  8 23  1  0  0  0  0
  9 24  1  0  0  0  0
 10 24  2  0  0  0  0
 11 25  1  0  0  0  0
 12 13  2  0  0  0  0
 12 26  1  0  0  0  0
 13 27  1  0  0  0  0
 14 30  1  0  0  0  0
 15 22  1  0  0  0  0
 15 25  2  0  0  0  0
 16 27  2  0  0  0  0
 16 28  1  0  0  0  0
 17 29  1  0  0  0  0
 18 29  1  0  0  0  0
 18 32  2  0  0  0  0
 18 33  1  0  0  0  0
 19 21  2  0  0  0  0
 19 39  1  0  0  0  0
 20 22  2  0  0  0  0
 20 40  1  0  0  0  0
 21 48  1  0  0  0  0
 22 41  1  0  0  0  0
 23 31  2  0  0  0  0
 23 68  1  0  0  0  0
 24 82  1  0  0  0  0
 25 83  1  0  0  0  0
 26 28  2  0  0  0  0
 26 82  1  0  0  0  0
 27 84  1  0  0  0  0
 28 85  1  0  0  0  0
 29 63  2  0  0  0  0
 30 64  2  0  0  0  0
 30 72  1  0  0  0  0
 31 64  1  0  0  0  0
 31 71  1  0  0  0  0
 32 65  1  0  0  0  0
 32 69  1  0  0  0  0
 33 70  1  0  0  0  0
 33 76  2  0  0  0  0
 34 49  1  0  0  0  0
 34 73  1  0  0  0  0
 34 77  2  0  0  0  0
 35 59  1  0  0  0  0
 35 66  1  0  0  0  0
 35 78  2  0  0  0  0
 36 60  1  0  0  0  0
 36 71  1  0  0  0  0
 36 79  2  0  0  0  0
 37 61  1  0  0  0  0
 37 74  1  0  0  0  0
 37 80  2  0  0  0  0
 38 67  1  0  0  0  0
 38 72  1  0  0  0  0
 38 81  2  0  0  0  0
 39 42  1  0  0  0  0
 40 49  1  0  0  0  0
 41 66  1  0  0  0  0
 42 44  1  0  0  0  0
 43 45  1  0  0  0  0
 43 46  1  0  0  0  0
 44 48  1  0  0  0  0
 45 50  1  0  0  0  0
 46 67  1  0  0  0  0
 47 50  1  0  0  0  0
 47 67  1  0  0  0  0
 48 73  1  0  0  0  0
 49 66  1  0  0  0  0
 50 65  1  0  0  0  0
 51 60  1  0  0  0  0
 52 61  1  0  0  0  0
 53 62  1  0  0  0  0
 54 62  1  0  0  0  0
 55 62  1  0  0  0  0
 56 75  1  0  0  0  0
 57 58  1  0  0  0  0
 57 60  1  0  0  0  0
 58 83  1  0  0  0  0
 59 62  1  0  0  0  0
 59 74  1  0  0  0  0
 61 75  1  0  0  0  0
 63 65  1  0  0  0  0
M  CHG  1  75   1
M  ISO  4  38 100  58 101  72 100  83 101
M  END
> <Batch ID>
0186

> <Smiles>
CNC(C)C(=O)NC(C(=O)N1Cc2cc([101O:1][101CH2:1]CC(C)C(=O)Nc3nc([100NH:0][100C:0](=O)N4CCCC(n5nc(-c6ccc(Oc7ccc(F)cc7F)cc6)c(C(N)=O)c5N)C4)ccc3N)ccc2CC1C(=O)NC1CCCc2ccccc21)C(C)(C)C

> <Shape>
0.244

> <Color>
0.067

> <Negative vol penalty>
0.000

$$$$

  -OEChem-04052305093D

 83 91  0     1  0  0  0  0  0999 V2000
  -30.5899  -22.3114   25.2713 C   0  0  0  0  0  0  0  0  0  0  0  0
  -30.5289  -22.2087   23.8853 C   0  0  0  0  0  0  0  0  0  0  0  0
  -23.0573   -9.8421   20.0209 C   0  0  0  0  0  0  0  0  0  0  0  0
  -23.7121  -10.0226   22.3395 C   0  0  0  0  0  0  0  0  0  0  0  0
  -30.0096  -23.4039   25.9144 C   0  0  0  0  0  0  0  0  0  0  0  0
  -29.8866  -23.1980   23.1415 C   0  0  0  0  0  0  0  0  0  0  0  0
  -32.5392  -24.5885   19.0580 C   0  0  0  0  0  0  0  0  0  0  0  0
  -22.3066   -8.7056   20.3215 C   0  0  0  0  0  0  0  0  0  0  0  0
  -22.9613   -8.8861   22.6400 C   0  0  0  0  0  0  0  0  0  0  0  0
  -32.4973  -23.7402   17.9523 C   0  0  0  0  0  0  0  0  0  0  0  0
  -23.2879   -5.5341   22.3429 C   0  0  0  0  0  0  0  0  0  0  0  0
  -23.8734   -4.5684   23.1615 C   0  0  0  0  0  0  0  0  0  0  0  0
  -30.8577  -25.1771   16.9197 C   0  0  0  0  0  0  0  0  0  0  0  0
  -22.0956   -4.8559   24.7721 C   0  0  0  0  0  0  0  0  0  0  0  0
  -23.7602  -10.5006   21.0300 C   0  0  0  0  0  0  0  0  0  0  0  0
  -24.0990  -13.0122   20.7396 C   0  0  0  0  0  0  0  0  0  0  0  0
  -29.3682  -24.4120   25.1775 C   0  0  0  0  0  0  0  0  0  0  0  0
  -31.7312  -25.7335   19.1076 C   0  0  0  0  0  0  0  0  0  0  0  0
  -29.2960  -24.3043   23.7755 C   0  0  0  0  0  0  0  0  0  0  0  0
  -30.8931  -26.0396   18.0260 C   0  0  0  0  0  0  0  0  0  0  0  0
  -22.2585   -8.2276   21.6310 C   0  0  0  0  0  0  0  0  0  0  0  0
  -31.6543  -24.0329   16.8842 C   0  0  0  0  0  0  0  0  0  0  0  0
  -22.1063   -6.1608   22.7389 C   0  0  0  0  0  0  0  0  0  0  0  0
  -23.2773   -4.2293   24.3761 C   0  0  0  0  0  0  0  0  0  0  0  0
  -21.5101   -5.8217   23.9535 C   0  0  0  0  0  0  0  0  0  0  0  0
  -24.5364  -11.6743   20.7201 C   0  0  0  0  0  0  0  0  0  0  0  0
  -29.4269  -18.8350   20.4155 C   0  0  0  0  0  0  0  0  0  0  0  0
  -30.5197  -18.0649   20.7543 C   0  0  0  0  0  0  0  0  0  0  0  0
  -25.2041  -13.7401   20.3717 C   0  0  0  0  0  0  0  0  0  0  0  0
  -30.8422  -19.5964   18.9232 C   0  0  0  0  0  0  0  0  0  0  0  0
  -22.8091  -13.5491   21.0616 C   0  0  0  0  0  0  0  0  0  0  0  0
  -29.3901  -26.7464   21.0042 C   0  0  0  0  0  0  0  0  0  0  0  0
  -29.6507  -29.4503   19.2311 C   0  0  0  0  0  0  0  0  0  0  0  0
  -30.5995  -30.9097   16.2957 C   0  0  0  0  0  0  0  0  0  0  0  0
  -30.8768  -21.2836   17.0548 C   0  0  0  0  0  0  0  0  0  0  0  0
  -30.6704  -14.8061   20.7315 C   0  0  0  0  0  0  0  0  0  0  0  0
  -28.7144  -25.5501   25.9204 C   0  0  0  0  0  0  0  0  0  0  0  0
  -31.8078  -26.6526   20.2958 C   0  0  0  0  0  0  0  0  0  0  0  0
  -30.0208  -27.2674   18.0213 C   0  0  0  0  0  0  0  0  0  0  0  0
  -28.3791  -26.7449   25.0315 C   0  0  0  0  0  0  0  0  0  0  0  0
  -29.6501  -12.2452   18.4782 C   0  0  0  0  0  0  0  0  0  0  0  0
  -27.7024  -26.2805   23.7458 C   0  0  0  0  0  0  0  0  0  0  0  0
  -28.1954  -11.9747   18.8664 C   0  0  0  0  0  0  0  0  0  0  0  0
  -30.5110  -12.5597   19.6997 C   0  0  0  0  0  0  0  0  0  0  0  0
  -28.5458  -13.3783   20.9414 C   0  0  0  0  0  0  0  0  0  0  0  0
  -28.6297  -25.3697   22.9322 C   0  0  1  0  0  0  0  0  0  0  0  0
  -30.5618  -27.5166   20.4642 C   0  0  1  0  0  0  0  0  0  0  0  0
  -27.6268  -13.1112   19.7371 C   0  0  2  0  0  0  0  0  0  0  0  0
  -28.1023  -18.7999   21.0684 C   0  0  0  0  0  0  0  0  0  0  0  0
  -30.6535  -33.1295   15.1266 C   0  0  0  0  0  0  0  0  0  0  0  0
  -31.7923  -21.0690   14.7149 C   0  0  0  0  0  0  0  0  0  0  0  0
  -26.6544  -29.2382   18.6953 C   0  0  0  0  0  0  0  0  0  0  0  0
  -26.9466  -30.8633   16.8133 C   0  0  0  0  0  0  0  0  0  0  0  0
  -27.4711  -31.5576   19.1512 C   0  0  0  0  0  0  0  0  0  0  0  0
  -33.5509  -30.8564   16.0827 C   0  0  0  0  0  0  0  0  0  0  0  0
  -30.6730  -17.0422   21.8082 C   0  0  0  0  0  0  0  0  0  0  0  0
  -29.0214  -29.9575   17.9561 C   0  0  1  0  0  0  0  0  0  0  0  0
  -31.4186  -32.1551   16.0086 C   0  0  2  0  0  0  0  0  0  0  0  0
  -31.8754  -21.8229   16.0339 C   0  0  1  0  0  0  0  0  0  1  0  0
  -27.5383  -30.3799   18.1546 C   0  0  0  0  0  0  0  0  0  0  0  0
  -25.8192  -11.5562   20.3675 N   0  0  0  0  0  0  0  0  0  0  0  0
  -29.6101  -19.7140   19.3660 N   0  0  0  0  0  0  0  0  0  0  0  0
  -26.1975  -12.8293   20.1620 N   0  0  0  0  0  0  0  0  0  0  0  0
  -30.1265  -28.1316   19.2086 N   0  0  0  0  0  0  0  0  0  0  0  0
  -29.9174  -13.6470   20.4817 N   0  0  0  0  0  0  0  0  0  0  0  0
  -25.4134  -15.0640   20.2102 N   0  0  0  0  0  0  0  0  0  0  0  0
  -21.7859  -12.6606   21.4190 N   0  0  0  0  0  0  0  0  0  0  0  0
  -31.4511  -20.3064   17.8611 N   0  0  0  0  0  0  0  0  0  0  0  0
  -29.6226  -26.1556   22.2315 N   0  0  0  0  0  0  0  0  0  0  0  0
  -29.8873  -31.0265   17.4706 N   0  0  0  0  0  0  0  0  0  0  0  0
  -30.0306  -15.7904   21.4749 N   0  0  0  0  0  0  0  0  0  0  0  0
  -32.6879  -31.7923   15.3170 N   0  3  0  0  0  0  0  0  0  0  0  0
  -22.5666  -14.7791   21.0173 O   0  0  0  0  0  0  0  0  0  0  0  0
  -28.3515  -26.6934   20.3560 O   0  0  0  0  0  0  0  0  0  0  0  0
  -29.7242  -30.1990   20.2087 O   0  0  0  0  0  0  0  0  0  0  0  0
  -30.5894  -29.9326   15.5503 O   0  0  0  0  0  0  0  0  0  0  0  0
  -29.7293  -21.7162   17.1125 O   0  0  0  0  0  0  0  0  0  0  0  0
  -31.8252  -14.9552   20.3179 O   0  0  0  0  0  0  0  0  0  0  0  0
  -21.5258   -7.1188   21.9246 O   0  0  0  0  0  0  0  0  0  0  0  0
  -31.6110  -23.2063   15.8041 O   0  0  0  0  0  0  0  0  0  1  0  0
  -23.8388   -3.3008   25.1615 F   0  0  0  0  0  0  0  0  0  0  0  0
  -20.3743   -6.4194   24.3387 F   0  0  0  0  0  0  0  0  0  0  0  0
  -31.8351  -18.4472   19.7223 S   0  0  0  0  0  0  0  0  0  0  0  0
  1  2  1  0  0  0  0
  1  5  2  0  0  0  0
  2  6  2  0  0  0  0
  3  8  2  0  0  0  0
  3 15  1  0  0  0  0
  4  9  1  0  0  0  0
  4 15  2  0  0  0  0
  5 17  1  0  0  0  0
  6 19  1  0  0  0  0
  7 10  2  0  0  0  0
  7 18  1  0  0  0  0
  8 21  1  0  0  0  0
  9 21  2  0  0  0  0
 10 22  1  0  0  0  0
 11 12  2  0  0  0  0
 11 23  1  0  0  0  0
 12 24  1  0  0  0  0
 13 20  1  0  0  0  0
 13 22  2  0  0  0  0
 14 24  2  0  0  0  0
 14 25  1  0  0  0  0
 15 26  1  0  0  0  0
 16 26  1  0  0  0  0
 16 29  2  0  0  0  0
 16 31  1  0  0  0  0
 17 19  2  0  0  0  0
 17 37  1  0  0  0  0
 18 20  2  0  0  0  0
 18 38  1  0  0  0  0
 19 46  1  0  0  0  0
 20 39  1  0  0  0  0
 21 79  1  0  0  0  0
 22 80  1  0  0  0  0
 23 25  2  0  0  0  0
 23 79  1  0  0  0  0
 24 81  1  0  0  0  0
 25 82  1  0  0  0  0
 26 61  2  0  0  0  0
 27 28  2  0  0  0  0
 27 49  1  0  0  0  0
 27 62  1  0  0  0  0
 28 56  1  0  0  0  0
 28 83  1  0  0  0  0
 29 63  1  0  0  0  0
 29 66  1  0  0  0  0
 30 62  2  0  0  0  0
 30 68  1  0  0  0  0
 30 83  1  0  0  0  0
 31 67  1  0  0  0  0
 31 73  2  0  0  0  0
 32 47  1  0  0  0  0
 32 69  1  0  0  0  0
 32 74  2  0  0  0  0
 33 57  1  0  0  0  0
 33 64  1  0  0  0  0
 33 75  2  0  0  0  0
 34 58  1  0  0  0  0
 34 70  1  0  0  0  0
 34 76  2  0  0  0  0
 35 59  1  0  0  0  0
 35 68  1  0  0  0  0
 35 77  2  0  0  0  0
 36 65  1  0  0  0  0
 36 71  1  0  0  0  0
 36 78  2  0  0  0  0
 37 40  1  0  0  0  0
 38 47  1  0  0  0  0
 39 64  1  0  0  0  0
 40 42  1  0  0  0  0
 41 43  1  0  0  0  0
 41 44  1  0  0  0  0
 42 46  1  0  0  0  0
 43 48  1  0  0  0  0
 44 65  1  0  0  0  0
 45 48  1  0  0  0  0
 45 65  1  0  0  0  0
 46 69  1  0  0  0  0
 47 64  1  0  0  0  0
 48 63  1  0  0  0  0
 50 58  1  0  0  0  0
 51 59  1  0  0  0  0
 52 60  1  0  0  0  0
 53 60  1  0  0  0  0
 54 60  1  0  0  0  0
 55 72  1  0  0  0  0
 56 71  1  0  0  0  0
 57 60  1  0  0  0  0
 57 70  1  0  0  0  0
 58 72  1  0  0  0  0
 59 80  1  0  0  0  0
 61 63  1  0  0  0  0
M  CHG  1  72   1
M  ISO  4  36 100  59 101  71 100  80 101
M  END
> <Batch ID>
0186

> <Smiles>
CNC(C)C(=O)NC(C(=O)N1Cc2cc([101O:1][101CH:1](C)C(=O)Nc3nc(C)c(C[100NH:0][100C:0](=O)N4CCCC(n5nc(-c6ccc(Oc7ccc(F)cc7F)cc6)c(C(N)=O)c5N)C4)s3)ccc2CC1C(=O)NC1CCCc2ccccc21)C(C)(C)C

> <Shape>
0.256

> <Color>
0.223

> <Negative vol penalty>
0.000

$$$$

  -OEChem-04052305093D

 92100  0     1  0  0  0  0  0999 V2000
  -25.9106  -24.4800   13.8702 C   0  0  0  0  0  0  0  0  0  0  0  0
  -25.4618  -24.3858   15.1836 C   0  0  0  0  0  0  0  0  0  0  0  0
  -27.4755  -11.5883   21.0940 C   0  0  0  0  0  0  0  0  0  0  0  0
  -26.6312  -13.4559   19.8149 C   0  0  0  0  0  0  0  0  0  0  0  0
  -27.1277  -25.1013   13.5935 C   0  0  0  0  0  0  0  0  0  0  0  0
  -26.2305  -24.9119   16.2213 C   0  0  0  0  0  0  0  0  0  0  0  0
  -23.4648  -27.5505   19.5430 C   0  0  0  0  0  0  0  0  0  0  0  0
  -26.4289  -10.7942   20.6255 C   0  0  0  0  0  0  0  0  0  0  0  0
  -25.5846  -12.6617   19.3463 C   0  0  0  0  0  0  0  0  0  0  0  0
  -22.7213  -26.8237   20.4719 C   0  0  0  0  0  0  0  0  0  0  0  0
  -23.7743   -8.3769   20.0481 C   0  0  0  0  0  0  0  0  0  0  0  0
  -23.1026   -7.5757   20.9714 C   0  0  0  0  0  0  0  0  0  0  0  0
  -24.4228  -27.2205   22.1352 C   0  0  0  0  0  0  0  0  0  0  0  0
  -22.4732   -9.5446   22.2221 C   0  0  0  0  0  0  0  0  0  0  0  0
  -27.5766  -12.9192   20.6888 C   0  0  0  0  0  0  0  0  0  0  0  0
  -29.9248  -13.9107   20.5846 C   0  0  0  0  0  0  0  0  0  0  0  0
  -27.9072  -25.6438   14.6273 C   0  0  0  0  0  0  0  0  0  0  0  0
  -24.7001  -28.1094   19.9008 C   0  0  0  0  0  0  0  0  0  0  0  0
  -27.4599  -25.5399   15.9583 C   0  0  0  0  0  0  0  0  0  0  0  0
  -25.1788  -27.9560   21.2097 C   0  0  0  0  0  0  0  0  0  0  0  0
  -25.4835  -11.3309   19.7516 C   0  0  0  0  0  0  0  0  0  0  0  0
  -23.2016  -26.6562   21.7674 C   0  0  0  0  0  0  0  0  0  0  0  0
  -23.7956   -9.7620   20.2119 C   0  0  0  0  0  0  0  0  0  0  0  0
  -22.4520   -8.1595   22.0584 C   0  0  0  0  0  0  0  0  0  0  0  0
  -23.1450  -10.3458   21.2989 C   0  0  0  0  0  0  0  0  0  0  0  0
  -28.6572  -13.7402   21.1729 C   0  0  0  0  0  0  0  0  0  0  0  0
  -26.7901  -21.2505   23.0580 C   0  0  0  0  0  0  0  0  0  0  0  0
  -30.5780  -14.7811   21.4226 C   0  0  0  0  0  0  0  0  0  0  0  0
  -26.8155  -20.9643   21.7090 C   0  0  0  0  0  0  0  0  0  0  0  0
  -24.8343  -22.0769   22.5086 C   0  0  0  0  0  0  0  0  0  0  0  0
  -30.4636  -13.3338   19.3877 C   0  0  0  0  0  0  0  0  0  0  0  0
  -27.7016  -27.7266   18.9269 C   0  0  0  0  0  0  0  0  0  0  0  0
  -27.9806  -21.4121   18.8557 C   0  0  0  0  0  0  0  0  0  0  0  0
  -28.2607  -30.2053   20.9433 C   0  0  0  0  0  0  0  0  0  0  0  0
  -22.8981  -23.2363   23.6288 C   0  0  0  0  0  0  0  0  0  0  0  0
  -27.2730  -31.9983   23.6739 C   0  0  0  0  0  0  0  0  0  0  0  0
  -28.6612  -18.9458   25.2739 C   0  0  0  0  0  0  0  0  0  0  0  0
  -29.2383  -26.2641   14.2839 C   0  0  0  0  0  0  0  0  0  0  0  0
  -25.4774  -28.9132   18.8947 C   0  0  0  0  0  0  0  0  0  0  0  0
  -26.4896  -28.5532   21.6498 C   0  0  0  0  0  0  0  0  0  0  0  0
  -29.8147  -27.1277   15.4030 C   0  0  0  0  0  0  0  0  0  0  0  0
  -30.7465  -16.1535   26.0029 C   0  0  0  0  0  0  0  0  0  0  0  0
  -29.7153  -26.4031   16.7416 C   0  0  0  0  0  0  0  0  0  0  0  0
  -30.5619  -15.2338   24.7946 C   0  0  0  0  0  0  0  0  0  0  0  0
  -29.4486  -16.8691   26.3710 C   0  0  0  0  0  0  0  0  0  0  0  0
  -28.6269  -16.6855   24.0548 C   0  0  0  0  0  0  0  0  0  0  0  0
  -28.2535  -26.1203   17.1086 C   0  0  1  0  0  0  0  0  0  0  0  0
  -26.9648  -29.0024   19.2219 C   0  0  1  0  0  0  0  0  0  0  0  0
  -29.9223  -15.9844   23.6111 C   0  0  2  0  0  0  0  0  0  0  0  0
  -27.2285  -21.6388   17.5683 C   0  0  0  0  0  0  0  0  0  0  0  0
  -20.8237  -24.3451   24.4749 C   0  0  0  0  0  0  0  0  0  0  0  0
  -27.9535  -33.9451   25.1037 C   0  0  0  0  0  0  0  0  0  0  0  0
  -28.6225  -18.6649   17.6496 C   0  0  0  0  0  0  0  0  0  0  0  0
  -30.2017  -19.2982   19.4820 C   0  0  0  0  0  0  0  0  0  0  0  0
  -28.3685  -17.6529   19.9113 C   0  0  0  0  0  0  0  0  0  0  0  0
  -30.3985  -28.4798   22.2710 C   0  0  0  0  0  0  0  0  0  0  0  0
  -30.3620  -30.0548   24.2169 C   0  0  0  0  0  0  0  0  0  0  0  0
  -31.0375  -30.8778   21.9610 C   0  0  0  0  0  0  0  0  0  0  0  0
  -24.7985  -33.4872   23.0272 C   0  0  0  0  0  0  0  0  0  0  0  0
  -27.8531  -20.9400   24.0373 C   0  0  0  0  0  0  0  0  0  0  0  0
  -21.6530  -24.8972   22.1720 C   0  0  0  0  0  0  0  0  0  1  0  0
  -27.7446  -20.0824   19.5678 C   0  0  1  0  0  0  0  0  0  0  0  0
  -28.6086  -30.3356   22.4065 C   0  0  1  0  0  0  0  0  0  0  0  0
  -21.5267  -23.8004   23.2322 C   0  0  1  0  0  0  0  0  0  0  0  0
  -27.1378  -33.4929   23.9025 C   0  0  2  0  0  0  0  0  0  0  0  0
  -28.7347  -18.9526   19.1603 C   0  0  0  0  0  0  0  0  0  0  0  0
  -30.0778  -29.9240   22.7053 C   0  0  0  0  0  0  0  0  0  0  0  0
  -28.5118  -14.4456   22.2977 N   0  0  0  0  0  0  0  0  0  0  0  0
  -25.6550  -21.8888   23.5182 N   0  0  0  0  0  0  0  0  0  0  0  0
  -29.6964  -15.0676   22.4231 N   0  0  0  0  0  0  0  0  0  0  0  0
  -27.2158  -29.3252   20.6279 N   0  0  0  0  0  0  0  0  0  0  0  0
  -28.8946  -17.5624   25.2055 N   0  0  0  0  0  0  0  0  0  0  0  0
  -31.8147  -15.3215   21.3940 N   0  0  0  0  0  0  0  0  0  0  0  0
  -29.6574  -12.4600   18.6455 N   0  0  0  0  0  0  0  0  0  0  0  0
  -27.7963  -20.3511   21.0029 N   0  0  0  0  0  0  0  0  0  0  0  0
  -23.5606  -22.6936   22.5309 N   0  0  0  0  0  0  0  0  0  0  0  0
  -27.6169  -27.3198   17.6090 N   0  0  0  0  0  0  0  0  0  0  0  0
  -28.2841  -31.7073   22.7826 N   0  0  0  0  0  0  0  0  0  0  0  0
  -28.1408  -19.5256   24.1233 N   0  0  0  0  0  0  0  0  0  0  0  0
  -25.7115  -33.8535   24.1403 N   0  3  0  0  0  0  0  0  0  0  0  0
  -31.6313  -13.5730   18.9969 O   0  0  0  0  0  0  0  0  0  0  0  0
  -28.3036  -27.1544   19.8279 O   0  0  0  0  0  0  0  0  0  0  0  0
  -28.7265  -22.2800   19.3101 O   0  0  0  0  0  0  0  0  0  0  0  0
  -28.8881  -30.8656   20.1114 O   0  0  0  0  0  0  0  0  0  0  0  0
  -23.3021  -23.2789   24.7873 O   0  0  0  0  0  0  0  0  0  0  0  0
  -26.5562  -31.1713   24.2332 O   0  0  0  0  0  0  0  0  0  0  0  0
  -28.9040  -19.6156   26.2835 O   0  0  0  0  0  0  0  0  0  0  0  0
  -24.4622  -10.5562   19.2940 O   0  0  0  0  0  0  0  0  0  0  0  0
  -22.4782  -25.9468   22.6758 O   0  0  0  0  0  0  0  0  0  1  0  0
  -21.8057   -7.3901   22.9441 F   0  0  0  0  0  0  0  0  0  0  0  0
  -23.1609  -11.6760   21.4608 F   0  0  0  0  0  0  0  0  0  0  0  0
  -25.3636  -21.5105   20.9776 S   0  0  0  0  0  0  0  0  0  0  0  0
  1  2  1  0  0  0  0
  1  5  2  0  0  0  0
  2  6  2  0  0  0  0
  3  8  2  0  0  0  0
  3 15  1  0  0  0  0
  4  9  1  0  0  0  0
  4 15  2  0  0  0  0
  5 17  1  0  0  0  0
  6 19  1  0  0  0  0
  7 10  2  0  0  0  0
  7 18  1  0  0  0  0
  8 21  1  0  0  0  0
  9 21  2  0  0  0  0
 10 22  1  0  0  0  0
 11 12  2  0  0  0  0
 11 23  1  0  0  0  0
 12 24  1  0  0  0  0
 13 20  1  0  0  0  0
 13 22  2  0  0  0  0
 14 24  2  0  0  0  0
 14 25  1  0  0  0  0
 15 26  1  0  0  0  0
 16 26  1  0  0  0  0
 16 28  2  0  0  0  0
 16 31  1  0  0  0  0
 17 19  2  0  0  0  0
 17 38  1  0  0  0  0
 18 20  2  0  0  0  0
 18 39  1  0  0  0  0
 19 47  1  0  0  0  0
 20 40  1  0  0  0  0
 21 88  1  0  0  0  0
 22 89  1  0  0  0  0
 23 25  2  0  0  0  0
 23 88  1  0  0  0  0
 24 90  1  0  0  0  0
 25 91  1  0  0  0  0
 26 68  2  0  0  0  0
 27 29  2  0  0  0  0
 27 60  1  0  0  0  0
 27 69  1  0  0  0  0
 28 70  1  0  0  0  0
 28 73  1  0  0  0  0
 29 75  1  0  0  0  0
 29 92  1  0  0  0  0
 30 69  2  0  0  0  0
 30 76  1  0  0  0  0
 30 92  1  0  0  0  0
 31 74  1  0  0  0  0
 31 81  2  0  0  0  0
 32 48  1  0  0  0  0
 32 77  1  0  0  0  0
 32 82  2  0  0  0  0
 33 50  1  0  0  0  0
 33 62  1  0  0  0  0
 33 83  2  0  0  0  0
 34 63  1  0  0  0  0
 34 71  1  0  0  0  0
 34 84  2  0  0  0  0
 35 64  1  0  0  0  0
 35 76  1  0  0  0  0
 35 85  2  0  0  0  0
 36 65  1  0  0  0  0
 36 78  1  0  0  0  0
 36 86  2  0  0  0  0
 37 72  1  0  0  0  0
 37 79  1  0  0  0  0
 37 87  2  0  0  0  0
 38 41  1  0  0  0  0
 39 48  1  0  0  0  0
 40 71  1  0  0  0  0
 41 43  1  0  0  0  0
 42 44  1  0  0  0  0
 42 45  1  0  0  0  0
 43 47  1  0  0  0  0
 44 49  1  0  0  0  0
 45 72  1  0  0  0  0
 46 49  1  0  0  0  0
 46 72  1  0  0  0  0
 47 77  1  0  0  0  0
 48 71  1  0  0  0  0
 49 70  1  0  0  0  0
 51 64  1  0  0  0  0
 52 65  1  0  0  0  0
 53 66  1  0  0  0  0
 54 66  1  0  0  0  0
 55 66  1  0  0  0  0
 56 67  1  0  0  0  0
 57 67  1  0  0  0  0
 58 67  1  0  0  0  0
 59 80  1  0  0  0  0
 60 79  1  0  0  0  0
 61 64  1  0  0  0  0
 61 89  1  0  0  0  0
 62 66  1  0  0  0  0
 62 75  1  0  0  0  0
 63 67  1  0  0  0  0
 63 78  1  0  0  0  0
 65 80  1  0  0  0  0
 68 70  1  0  0  0  0
M  CHG  1  80   1
M  ISO  4  37 100  61 101  79 100  89 101
M  END
> <Batch ID>
0186

> <Smiles>
CNC(C)C(=O)NC(C(=O)N1Cc2cc([101O:1][101CH2:1]C(C)C(=O)Nc3nc(C[100NH:0][100C:0](=O)N4CCCC(n5nc(-c6ccc(Oc7ccc(F)cc7F)cc6)c(C(N)=O)c5N)C4)c(NC(C(C)=O)C(C)(C)C)s3)ccc2CC1C(=O)NC1CCCc2ccccc21)C(C)(C)C

> <Shape>
0.232

> <Color>
0.077

> <Negative vol penalty>
0.000

$$$$

  -OEChem-04052305093D

 88 96  0     1  0  0  0  0  0999 V2000
  -20.7705  -26.1419   26.0552 C   0  0  0  0  0  0  0  0  0  0  0  0
  -21.7383  -25.8732   25.0927 C   0  0  0  0  0  0  0  0  0  0  0  0
  -24.2966   -9.6331   21.9549 C   0  0  0  0  0  0  0  0  0  0  0  0
  -22.8004  -10.5069   20.2711 C   0  0  0  0  0  0  0  0  0  0  0  0
  -19.7122  -26.9994   25.7576 C   0  0  0  0  0  0  0  0  0  0  0  0
  -21.6477  -26.4609   23.8314 C   0  0  0  0  0  0  0  0  0  0  0  0
  -26.0852  -28.2915   22.2180 C   0  0  0  0  0  0  0  0  0  0  0  0
  -23.5749   -8.4398   21.9770 C   0  0  0  0  0  0  0  0  0  0  0  0
  -22.0787   -9.3135   20.2932 C   0  0  0  0  0  0  0  0  0  0  0  0
  -27.0077  -27.3744   21.7164 C   0  0  0  0  0  0  0  0  0  0  0  0
  -23.3324   -5.6401   20.0966 C   0  0  0  0  0  0  0  0  0  0  0  0
  -24.0535   -4.4461   20.0871 C   0  0  0  0  0  0  0  0  0  0  0  0
  -26.3659  -27.9677   19.4680 C   0  0  0  0  0  0  0  0  0  0  0  0
  -23.6014  -22.5076   20.6005 C   0  0  0  0  0  0  0  0  0  0  0  0
  -23.0642   -3.8319   22.2040 C   0  0  0  0  0  0  0  0  0  0  0  0
  -23.9094  -10.6668   21.1020 C   0  0  0  0  0  0  0  0  0  0  0  0
  -25.7567  -12.2122   20.2612 C   0  0  0  0  0  0  0  0  0  0  0  0
  -19.6139  -27.6056   24.4953 C   0  0  0  0  0  0  0  0  0  0  0  0
  -25.2870  -29.0470   21.3470 C   0  0  0  0  0  0  0  0  0  0  0  0
  -20.5864  -27.3263   23.5162 C   0  0  0  0  0  0  0  0  0  0  0  0
  -25.4358  -28.8956   19.9610 C   0  0  0  0  0  0  0  0  0  0  0  0
  -22.5498  -21.8132   21.2654 C   0  0  0  0  0  0  0  0  0  0  0  0
  -22.4659   -8.2799   21.1461 C   0  0  0  0  0  0  0  0  0  0  0  0
  -27.1462  -27.2103   20.3413 C   0  0  0  0  0  0  0  0  0  0  0  0
  -22.4773   -5.9300   21.1597 C   0  0  0  0  0  0  0  0  0  0  0  0
  -23.9194   -3.5420   21.1408 C   0  0  0  0  0  0  0  0  0  0  0  0
  -22.3431   -5.0260   22.2134 C   0  0  0  0  0  0  0  0  0  0  0  0
  -24.6542  -11.9000   21.0791 C   0  0  0  0  0  0  0  0  0  0  0  0
  -23.0057  -21.1043   22.3549 C   0  0  0  0  0  0  0  0  0  0  0  0
  -26.0990  -13.4929   20.6205 C   0  0  0  0  0  0  0  0  0  0  0  0
  -24.8211  -22.3031   21.2074 C   0  0  0  0  0  0  0  0  0  0  0  0
  -26.4126  -11.4158   19.2657 C   0  0  0  0  0  0  0  0  0  0  0  0
  -22.1624  -29.3064   20.8239 C   0  0  0  0  0  0  0  0  0  0  0  0
  -23.0884  -31.6989   18.8388 C   0  0  0  0  0  0  0  0  0  0  0  0
  -26.4586  -23.6344   19.8324 C   0  0  0  0  0  0  0  0  0  0  0  0
  -25.5449  -33.0779   16.9125 C   0  0  0  0  0  0  0  0  0  0  0  0
  -22.9359  -17.9064   22.9381 C   0  0  0  0  0  0  0  0  0  0  0  0
  -18.4261  -28.4883   24.2044 C   0  0  0  0  0  0  0  0  0  0  0  0
  -24.3154  -30.0513   21.9036 C   0  0  0  0  0  0  0  0  0  0  0  0
  -24.6172  -29.6971   18.9833 C   0  0  0  0  0  0  0  0  0  0  0  0
  -18.6068  -29.3648   22.9677 C   0  0  0  0  0  0  0  0  0  0  0  0
  -25.9625  -16.5020   24.3399 C   0  0  0  0  0  0  0  0  0  0  0  0
  -19.1569  -28.5427   21.8065 C   0  0  0  0  0  0  0  0  0  0  0  0
  -26.0688  -15.1824   23.5735 C   0  0  0  0  0  0  0  0  0  0  0  0
  -24.5096  -16.8382   24.6630 C   0  0  0  0  0  0  0  0  0  0  0  0
  -23.7136  -15.5643   22.7091 C   0  0  0  0  0  0  0  0  0  0  0  0
  -20.5362  -27.9642   22.1448 C   0  0  1  0  0  0  0  0  0  0  0  0
  -23.1908  -30.3965   20.9323 C   0  0  1  0  0  0  0  0  0  0  0  0
  -25.1561  -15.1798   22.3329 C   0  0  2  0  0  0  0  0  0  0  0  0
  -21.1346  -21.8563   20.8265 C   0  0  0  0  0  0  0  0  0  0  0  0
  -25.9927  -35.0133   15.3792 C   0  0  0  0  0  0  0  0  0  0  0  0
  -29.8023  -25.1746   21.0118 C   0  0  0  0  0  0  0  0  0  0  0  0
  -20.8845  -19.9450   25.4535 C   0  0  0  0  0  0  0  0  0  0  0  0
  -20.6350  -22.0966   24.2013 C   0  0  0  0  0  0  0  0  0  0  0  0
  -22.7429  -21.6019   25.4443 C   0  0  0  0  0  0  0  0  0  0  0  0
  -21.4918  -30.3192   16.6349 C   0  0  0  0  0  0  0  0  0  0  0  0
  -22.7223  -31.7189   14.9632 C   0  0  0  0  0  0  0  0  0  0  0  0
  -21.2748  -32.8103   16.6768 C   0  0  0  0  0  0  0  0  0  0  0  0
  -27.6962  -34.1149   18.6604 C   0  0  0  0  0  0  0  0  0  0  0  0
  -27.9579  -23.9161   19.8495 C   0  0  0  0  0  0  0  0  0  0  0  0
  -22.2408  -20.2606   23.3010 C   0  0  2  0  0  0  0  0  0  0  0  0
  -23.4776  -31.7898   17.3830 C   0  0  1  0  0  0  0  0  0  0  0  0
  -26.0646  -34.5005   16.8090 C   0  0  2  0  0  0  0  0  0  0  0  0
  -28.3232  -25.1668   20.6490 C   0  0  2  0  0  0  0  0  0  1  0  0
  -21.6246  -20.9774   24.5769 C   0  0  0  0  0  0  0  0  0  0  0  0
  -22.2558  -31.6429   16.4326 C   0  0  0  0  0  0  0  0  0  0  0  0
  -24.3185  -12.9016   21.8965 N   0  0  0  0  0  0  0  0  0  0  0  0
  -25.2154  -13.8557   21.5941 N   0  0  0  0  0  0  0  0  0  0  0  0
  -23.6764  -30.6617   19.5765 N   0  0  0  0  0  0  0  0  0  0  0  0
  -23.6984  -16.8374   23.4373 N   0  0  0  0  0  0  0  0  0  0  0  0
  -27.0666  -14.3328   20.1955 N   0  0  0  0  0  0  0  0  0  0  0  0
  -25.9323  -10.1218   19.0221 N   0  0  0  0  0  0  0  0  0  0  0  0
  -26.1092  -22.7927   20.8851 N   0  0  0  0  0  0  0  0  0  0  0  0
  -21.5557  -28.9841   22.0229 N   0  0  0  0  0  0  0  0  0  0  0  0
  -24.2040  -33.0460   17.2324 N   0  0  0  0  0  0  0  0  0  0  0  0
  -22.9698  -19.0740   23.6905 N   0  0  0  0  0  0  0  0  0  0  0  0
  -27.4828  -34.5681   17.2619 N   0  3  0  0  0  0  0  0  0  0  0  0
  -27.4059  -11.8330   18.6231 O   0  0  0  0  0  0  0  0  0  0  0  0
  -21.9351  -28.7965   19.7330 O   0  0  0  0  0  0  0  0  0  0  0  0
  -22.2975  -32.5222   19.3059 O   0  0  0  0  0  0  0  0  0  0  0  0
  -25.7135  -24.1122   18.9835 O   0  0  0  0  0  0  0  0  0  0  0  0
  -26.2563  -32.0936   16.7243 O   0  0  0  0  0  0  0  0  0  0  0  0
  -22.2772  -17.8279   21.8954 O   0  0  0  0  0  0  0  0  0  0  0  0
  -21.7615   -7.1155   21.1672 O   0  0  0  0  0  0  0  0  0  0  0  0
  -28.0455  -26.3154   19.8490 O   0  0  0  0  0  0  0  0  0  1  0  0
  -24.6107   -2.3948   21.1309 F   0  0  0  0  0  0  0  0  0  0  0  0
  -21.5222   -5.2985   23.2370 F   0  0  0  0  0  0  0  0  0  0  0  0
  -24.6954  -21.2774   22.5728 S   0  0  0  0  0  0  0  0  0  0  0  0
  1  2  1  0  0  0  0
  1  5  2  0  0  0  0
  2  6  2  0  0  0  0
  3  8  2  0  0  0  0
  3 16  1  0  0  0  0
  4  9  1  0  0  0  0
  4 16  2  0  0  0  0
  5 18  1  0  0  0  0
  6 20  1  0  0  0  0
  7 10  2  0  0  0  0
  7 19  1  0  0  0  0
  8 23  1  0  0  0  0
  9 23  2  0  0  0  0
 10 24  1  0  0  0  0
 11 12  2  0  0  0  0
 11 25  1  0  0  0  0
 12 26  1  0  0  0  0
 13 21  1  0  0  0  0
 13 24  2  0  0  0  0
 14 22  1  0  0  0  0
 14 31  2  0  0  0  0
 15 26  2  0  0  0  0
 15 27  1  0  0  0  0
 16 28  1  0  0  0  0
 17 28  1  0  0  0  0
 17 30  2  0  0  0  0
 17 32  1  0  0  0  0
 18 20  2  0  0  0  0
 18 38  1  0  0  0  0
 19 21  2  0  0  0  0
 19 39  1  0  0  0  0
 20 47  1  0  0  0  0
 21 40  1  0  0  0  0
 22 29  2  0  0  0  0
 22 50  1  0  0  0  0
 23 84  1  0  0  0  0
 24 85  1  0  0  0  0
 25 27  2  0  0  0  0
 25 84  1  0  0  0  0
 26 86  1  0  0  0  0
 27 87  1  0  0  0  0
 28 67  2  0  0  0  0
 29 61  1  0  0  0  0
 29 88  1  0  0  0  0
 30 68  1  0  0  0  0
 30 71  1  0  0  0  0
 31 73  1  0  0  0  0
 31 88  1  0  0  0  0
 32 72  1  0  0  0  0
 32 78  2  0  0  0  0
 33 48  1  0  0  0  0
 33 74  1  0  0  0  0
 33 79  2  0  0  0  0
 34 62  1  0  0  0  0
 34 69  1  0  0  0  0
 34 80  2  0  0  0  0
 35 60  1  0  0  0  0
 35 73  1  0  0  0  0
 35 81  2  0  0  0  0
 36 63  1  0  0  0  0
 36 75  1  0  0  0  0
 36 82  2  0  0  0  0
 37 70  1  0  0  0  0
 37 76  1  0  0  0  0
 37 83  2  0  0  0  0
 38 41  1  0  0  0  0
 39 48  1  0  0  0  0
 40 69  1  0  0  0  0
 41 43  1  0  0  0  0
 42 44  1  0  0  0  0
 42 45  1  0  0  0  0
 43 47  1  0  0  0  0
 44 49  1  0  0  0  0
 45 70  1  0  0  0  0
 46 49  1  0  0  0  0
 46 70  1  0  0  0  0
 47 74  1  0  0  0  0
 48 69  1  0  0  0  0
 49 68  1  0  0  0  0
 51 63  1  0  0  0  0
 52 64  1  0  0  0  0
 53 65  1  0  0  0  0
 54 65  1  0  0  0  0
 55 65  1  0  0  0  0
 56 66  1  0  0  0  0
 57 66  1  0  0  0  0
 58 66  1  0  0  0  0
 59 77  1  0  0  0  0
 60 64  1  0  0  0  0
 61 65  1  0  0  0  0
 61 76  1  0  0  0  0
 62 66  1  0  0  0  0
 62 75  1  0  0  0  0
 63 77  1  0  0  0  0
 64 85  1  0  0  0  0
 67 68  1  0  0  0  0
M  CHG  1  77   1
M  ISO  4  37 100  64 101  76 100  85 101
M  END
> <Batch ID>
0186

> <Smiles>
CNC(C)C(=O)NC(C(=O)N1Cc2cc([101O:1][101CH:1](C)CC(=O)Nc3cc(C)c(C([100NH:0][100C:0](=O)N4CCCC(n5nc(-c6ccc(Oc7ccc(F)cc7F)cc6)c(C(N)=O)c5N)C4)C(C)(C)C)s3)ccc2CC1C(=O)NC1CCCc2ccccc21)C(C)(C)C

> <Shape>
0.200

> <Color>
0.114

> <Negative vol penalty>
0.000

$$$$

  -OEChem-04052305093D

 86 94  0     1  0  0  0  0  0999 V2000
  -35.1787  -33.6660   18.4063 C   0  0  0  0  0  0  0  0  0  0  0  0
  -34.8023  -32.5313   17.6949 C   0  0  0  0  0  0  0  0  0  0  0  0
  -23.0648   -9.9464   19.9179 C   0  0  0  0  0  0  0  0  0  0  0  0
  -23.8349   -9.8962   22.2073 C   0  0  0  0  0  0  0  0  0  0  0  0
  -35.2761  -33.6156   19.7962 C   0  0  0  0  0  0  0  0  0  0  0  0
  -34.5240  -31.3451   18.3730 C   0  0  0  0  0  0  0  0  0  0  0  0
  -30.3326  -27.1409   16.8688 C   0  0  0  0  0  0  0  0  0  0  0  0
  -22.3294   -8.7822   20.1397 C   0  0  0  0  0  0  0  0  0  0  0  0
  -23.0994   -8.7319   22.4292 C   0  0  0  0  0  0  0  0  0  0  0  0
  -30.4242  -25.9252   16.1924 C   0  0  0  0  0  0  0  0  0  0  0  0
  -23.4088   -5.4282   21.7808 C   0  0  0  0  0  0  0  0  0  0  0  0
  -24.0340   -4.3878   22.4680 C   0  0  0  0  0  0  0  0  0  0  0  0
  -30.5628  -24.7676   18.3043 C   0  0  0  0  0  0  0  0  0  0  0  0
  -22.3392   -4.5042   24.1859 C   0  0  0  0  0  0  0  0  0  0  0  0
  -23.8176  -10.5034   20.9517 C   0  0  0  0  0  0  0  0  0  0  0  0
  -24.1429  -13.0331   20.8987 C   0  0  0  0  0  0  0  0  0  0  0  0
  -34.9895  -32.4308   20.4925 C   0  0  0  0  0  0  0  0  0  0  0  0
  -30.3664  -27.1801   18.2701 C   0  0  0  0  0  0  0  0  0  0  0  0
  -34.6189  -31.2784   19.7734 C   0  0  0  0  0  0  0  0  0  0  0  0
  -30.4688  -25.9849   18.9961 C   0  0  0  0  0  0  0  0  0  0  0  0
  -22.3466   -8.1749   21.3953 C   0  0  0  0  0  0  0  0  0  0  0  0
  -30.5422  -24.7386   16.9101 C   0  0  0  0  0  0  0  0  0  0  0  0
  -22.2488   -6.0067   22.2961 C   0  0  0  0  0  0  0  0  0  0  0  0
  -23.4992   -3.9258   23.6706 C   0  0  0  0  0  0  0  0  0  0  0  0
  -21.7140   -5.5447   23.4986 C   0  0  0  0  0  0  0  0  0  0  0  0
  -24.5780  -11.7058   20.7230 C   0  0  0  0  0  0  0  0  0  0  0  0
  -29.2997  -18.7155   20.8151 C   0  0  0  0  0  0  0  0  0  0  0  0
  -30.4853  -18.0721   21.1023 C   0  0  0  0  0  0  0  0  0  0  0  0
  -25.2287  -13.7991   20.5512 C   0  0  0  0  0  0  0  0  0  0  0  0
  -30.6182  -19.8378   19.4691 C   0  0  0  0  0  0  0  0  0  0  0  0
  -22.8711  -13.5292   21.3369 C   0  0  0  0  0  0  0  0  0  0  0  0
  -32.3043  -28.4744   20.4318 C   0  0  0  0  0  0  0  0  0  0  0  0
  -30.0448  -27.4300   22.5118 C   0  0  0  0  0  0  0  0  0  0  0  0
  -27.5039  -25.2505   23.1755 C   0  0  0  0  0  0  0  0  0  0  0  0
  -30.4445  -21.7205   17.8065 C   0  0  0  0  0  0  0  0  0  0  0  0
  -30.7067  -14.8480   20.7436 C   0  0  0  0  0  0  0  0  0  0  0  0
  -35.1544  -32.4117   21.9915 C   0  0  0  0  0  0  0  0  0  0  0  0
  -30.2396  -28.4972   18.9853 C   0  0  0  0  0  0  0  0  0  0  0  0
  -30.4893  -25.9710   20.5020 C   0  0  0  0  0  0  0  0  0  0  0  0
  -34.4793  -31.2188   22.6634 C   0  0  0  0  0  0  0  0  0  0  0  0
  -29.5736  -12.5217   18.2979 C   0  0  0  0  0  0  0  0  0  0  0  0
  -34.8064  -29.9297   21.9163 C   0  0  0  0  0  0  0  0  0  0  0  0
  -28.1399  -12.2071   18.7289 C   0  0  0  0  0  0  0  0  0  0  0  0
  -30.4946  -12.7158   19.5004 C   0  0  0  0  0  0  0  0  0  0  0  0
  -28.5945  -13.3968   20.9145 C   0  0  0  0  0  0  0  0  0  0  0  0
  -34.2849  -29.9798   20.4751 C   0  0  1  0  0  0  0  0  0  0  0  0
  -30.8020  -28.4639   20.4030 C   0  0  1  0  0  0  0  0  0  0  0  0
  -27.6162  -13.2479   19.7367 C   0  0  2  0  0  0  0  0  0  0  0  0
  -27.9821  -18.4185   21.4132 C   0  0  0  0  0  0  0  0  0  0  0  0
  -25.8734  -24.6146   24.9740 C   0  0  0  0  0  0  0  0  0  0  0  0
  -32.0049  -21.6210   15.8278 C   0  0  0  0  0  0  0  0  0  0  0  0
  -30.7061  -16.0591   24.4595 C   0  0  0  0  0  0  0  0  0  0  0  0
  -31.1976  -18.4715   24.0611 C   0  0  0  0  0  0  0  0  0  0  0  0
  -32.2787  -26.0136   24.0328 C   0  0  0  0  0  0  0  0  0  0  0  0
  -30.5281  -24.6615   25.2056 C   0  0  0  0  0  0  0  0  0  0  0  0
  -30.5808  -27.1400   25.4828 C   0  0  0  0  0  0  0  0  0  0  0  0
  -25.1810  -25.9004   21.4607 C   0  0  0  0  0  0  0  0  0  0  0  0
  -30.7645  -16.9647   22.0380 C   0  0  1  0  0  0  0  0  0  0  0  0
  -29.8115  -26.1547   23.2852 C   0  0  1  0  0  0  0  0  0  0  0  0
  -26.1110  -25.4686   23.7383 C   0  0  2  0  0  0  0  0  0  0  0  0
  -31.3739  -22.5106   16.8887 C   0  0  1  0  0  0  0  0  0  1  0  0
  -30.4182  -17.2560   23.5418 C   0  0  0  0  0  0  0  0  0  0  0  0
  -30.8014  -25.9925   24.4732 C   0  0  0  0  0  0  0  0  0  0  0  0
  -25.8416  -11.6295   20.2969 N   0  0  0  0  0  0  0  0  0  0  0  0
  -29.3740  -19.7285   19.8792 N   0  0  0  0  0  0  0  0  0  0  0  0
  -26.2098  -12.9184   20.2018 N   0  0  0  0  0  0  0  0  0  0  0  0
  -30.3688  -27.2848   21.1554 N   0  0  0  0  0  0  0  0  0  0  0  0
  -29.9415  -13.7164   20.4163 N   0  0  0  0  0  0  0  0  0  0  0  0
  -25.4304  -15.1334   20.5134 N   0  0  0  0  0  0  0  0  0  0  0  0
  -21.8665  -12.6047   21.6537 N   0  0  0  0  0  0  0  0  0  0  0  0
  -31.1382  -20.7459   18.5162 N   0  0  0  0  0  0  0  0  0  0  0  0
  -32.8579  -29.7404   20.4454 N   0  0  0  0  0  0  0  0  0  0  0  0
  -28.4059  -26.1656   23.6759 N   0  0  0  0  0  0  0  0  0  0  0  0
  -30.1054  -15.7498   21.6130 N   0  0  0  0  0  0  0  0  0  0  0  0
  -25.0804  -25.1189   22.7201 N   0  3  0  0  0  0  0  0  0  0  0  0
  -22.6273  -14.7562   21.4286 O   0  0  0  0  0  0  0  0  0  0  0  0
  -32.9158  -27.4125   20.4425 O   0  0  0  0  0  0  0  0  0  0  0  0
  -29.9364  -28.5152   23.0881 O   0  0  0  0  0  0  0  0  0  0  0  0
  -27.7665  -24.3555   22.3752 O   0  0  0  0  0  0  0  0  0  0  0  0
  -29.2460  -21.9779   17.8729 O   0  0  0  0  0  0  0  0  0  0  0  0
  -31.8395  -15.0430   20.2900 O   0  0  0  0  0  0  0  0  0  0  0  0
  -21.6289   -7.0390   21.6122 O   0  0  0  0  0  0  0  0  0  0  0  0
  -30.6325  -23.5507   16.2524 O   0  0  0  0  0  0  0  0  0  1  0  0
  -24.0987   -2.9257   24.3296 F   0  0  0  0  0  0  0  0  0  0  0  0
  -20.5992   -6.0956   23.9981 F   0  0  0  0  0  0  0  0  0  0  0  0
  -31.7509  -18.7537   20.1668 S   0  0  0  0  0  0  0  0  0  0  0  0
  1  2  1  0  0  0  0
  1  5  2  0  0  0  0
  2  6  2  0  0  0  0
  3  8  2  0  0  0  0
  3 15  1  0  0  0  0
  4  9  1  0  0  0  0
  4 15  2  0  0  0  0
  5 17  1  0  0  0  0
  6 19  1  0  0  0  0
  7 10  2  0  0  0  0
  7 18  1  0  0  0  0
  8 21  1  0  0  0  0
  9 21  2  0  0  0  0
 10 22  1  0  0  0  0
 11 12  2  0  0  0  0
 11 23  1  0  0  0  0
 12 24  1  0  0  0  0
 13 20  1  0  0  0  0
 13 22  2  0  0  0  0
 14 24  2  0  0  0  0
 14 25  1  0  0  0  0
 15 26  1  0  0  0  0
 16 26  1  0  0  0  0
 16 29  2  0  0  0  0
 16 31  1  0  0  0  0
 17 19  2  0  0  0  0
 17 37  1  0  0  0  0
 18 20  2  0  0  0  0
 18 38  1  0  0  0  0
 19 46  1  0  0  0  0
 20 39  1  0  0  0  0
 21 82  1  0  0  0  0
 22 83  1  0  0  0  0
 23 25  2  0  0  0  0
 23 82  1  0  0  0  0
 24 84  1  0  0  0  0
 25 85  1  0  0  0  0
 26 64  2  0  0  0  0
 27 28  2  0  0  0  0
 27 49  1  0  0  0  0
 27 65  1  0  0  0  0
 28 58  1  0  0  0  0
 28 86  1  0  0  0  0
 29 66  1  0  0  0  0
 29 69  1  0  0  0  0
 30 65  2  0  0  0  0
 30 71  1  0  0  0  0
 30 86  1  0  0  0  0
 31 70  1  0  0  0  0
 31 76  2  0  0  0  0
 32 47  1  0  0  0  0
 32 72  1  0  0  0  0
 32 77  2  0  0  0  0
 33 59  1  0  0  0  0
 33 67  1  0  0  0  0
 33 78  2  0  0  0  0
 34 60  1  0  0  0  0
 34 73  1  0  0  0  0
 34 79  2  0  0  0  0
 35 61  1  0  0  0  0
 35 71  1  0  0  0  0
 35 80  2  0  0  0  0
 36 68  1  0  0  0  0
 36 74  1  0  0  0  0
 36 81  2  0  0  0  0
 37 40  1  0  0  0  0
 38 47  1  0  0  0  0
 39 67  1  0  0  0  0
 40 42  1  0  0  0  0
 41 43  1  0  0  0  0
 41 44  1  0  0  0  0
 42 46  1  0  0  0  0
 43 48  1  0  0  0  0
 44 68  1  0  0  0  0
 45 48  1  0  0  0  0
 45 68  1  0  0  0  0
 46 72  1  0  0  0  0
 47 67  1  0  0  0  0
 48 66  1  0  0  0  0
 50 60  1  0  0  0  0
 51 61  1  0  0  0  0
 52 62  1  0  0  0  0
 53 62  1  0  0  0  0
 54 63  1  0  0  0  0
 55 63  1  0  0  0  0
 56 63  1  0  0  0  0
 57 75  1  0  0  0  0
 58 62  1  0  0  0  0
 58 74  1  0  0  0  0
 59 63  1  0  0  0  0
 59 73  1  0  0  0  0
 60 75  1  0  0  0  0
 61 83  1  0  0  0  0
 64 66  1  0  0  0  0
M  CHG  1  75   1
M  ISO  4  36 100  61 101  74 100  83 101
M  END
> <Batch ID>
0186

> <Smiles>
CNC(C)C(=O)NC(C(=O)N1Cc2cc([101O:1][101CH:1](C)C(=O)Nc3nc(C)c(C([100NH:0][100C:0](=O)N4CCCC(n5nc(-c6ccc(Oc7ccc(F)cc7F)cc6)c(C(N)=O)c5N)C4)C(C)C)s3)ccc2CC1C(=O)NC1CCCc2ccccc21)C(C)(C)C

> <Shape>
0.262

> <Color>
0.203

> <Negative vol penalty>
0.000

$$$$

  -OEChem-04052305093D

 88 96  0     1  0  0  0  0  0999 V2000
  -19.2302  -30.8369   18.3290 C   0  0  0  0  0  0  0  0  0  0  0  0
  -20.5908  -30.5510   18.3769 C   0  0  0  0  0  0  0  0  0  0  0  0
  -23.6526  -10.2449   22.2607 C   0  0  0  0  0  0  0  0  0  0  0  0
  -24.0470   -9.3148   20.0660 C   0  0  0  0  0  0  0  0  0  0  0  0
  -18.4872  -30.8847   19.5079 C   0  0  0  0  0  0  0  0  0  0  0  0
  -21.2096  -30.3138   19.6038 C   0  0  0  0  0  0  0  0  0  0  0  0
  -24.3091  -26.3111   19.4747 C   0  0  0  0  0  0  0  0  0  0  0  0
  -22.3914   -9.6498   22.2863 C   0  0  0  0  0  0  0  0  0  0  0  0
  -22.7857   -8.7197   20.0916 C   0  0  0  0  0  0  0  0  0  0  0  0
  -25.5602  -26.4933   18.8872 C   0  0  0  0  0  0  0  0  0  0  0  0
  -21.0970   -6.5795   22.8616 C   0  0  0  0  0  0  0  0  0  0  0  0
  -20.7138   -5.9226   24.0309 C   0  0  0  0  0  0  0  0  0  0  0  0
  -26.5481  -26.7216   21.0760 C   0  0  0  0  0  0  0  0  0  0  0  0
  -30.2401  -22.3994   20.8226 C   0  0  0  0  0  0  0  0  0  0  0  0
  -18.8286   -7.4173   24.2528 C   0  0  0  0  0  0  0  0  0  0  0  0
  -24.4804  -10.0775   21.1505 C   0  0  0  0  0  0  0  0  0  0  0  0
  -26.9950  -10.1372   21.5761 C   0  0  0  0  0  0  0  0  0  0  0  0
  -19.0952  -30.6384   20.7490 C   0  0  0  0  0  0  0  0  0  0  0  0
  -24.1661  -26.3437   20.8693 C   0  0  0  0  0  0  0  0  0  0  0  0
  -20.4743  -30.3596   20.8005 C   0  0  0  0  0  0  0  0  0  0  0  0
  -25.2945  -26.5370   21.6789 C   0  0  0  0  0  0  0  0  0  0  0  0
  -29.9959  -21.1506   21.4638 C   0  0  0  0  0  0  0  0  0  0  0  0
  -21.9579   -8.8871   21.2018 C   0  0  0  0  0  0  0  0  0  0  0  0
  -26.6795  -26.7015   19.6877 C   0  0  0  0  0  0  0  0  0  0  0  0
  -20.3461   -7.6554   22.3879 C   0  0  0  0  0  0  0  0  0  0  0  0
  -19.5796   -6.3414   24.7264 C   0  0  0  0  0  0  0  0  0  0  0  0
  -19.2119   -8.0742   23.0835 C   0  0  0  0  0  0  0  0  0  0  0  0
  -25.7832  -10.6925   21.1233 C   0  0  0  0  0  0  0  0  0  0  0  0
  -28.9577  -20.4616   20.8764 C   0  0  0  0  0  0  0  0  0  0  0  0
  -27.9318  -11.1112   21.3308 C   0  0  0  0  0  0  0  0  0  0  0  0
  -29.3792  -22.6172   19.7693 C   0  0  0  0  0  0  0  0  0  0  0  0
  -28.4190  -19.2010   21.2179 C   0  0  0  0  0  0  0  0  0  0  0  0
  -27.8491  -18.2883   20.3625 C   0  0  0  0  0  0  0  0  0  0  0  0
  -27.2509   -8.8556   22.1657 C   0  0  0  0  0  0  0  0  0  0  0  0
  -27.3371  -17.0011   20.8742 C   0  0  0  0  0  0  0  0  0  0  0  0
  -22.5766  -28.1812   22.9189 C   0  0  0  0  0  0  0  0  0  0  0  0
  -23.6346  -26.0097   25.0840 C   0  0  0  0  0  0  0  0  0  0  0  0
  -25.9451  -23.6414   25.9204 C   0  0  0  0  0  0  0  0  0  0  0  0
  -30.0393  -24.8683   18.8453 C   0  0  0  0  0  0  0  0  0  0  0  0
  -18.2607  -30.7478   22.0005 C   0  0  0  0  0  0  0  0  0  0  0  0
  -22.8139  -26.1188   21.4885 C   0  0  0  0  0  0  0  0  0  0  0  0
  -25.1977  -26.5604   23.1817 C   0  0  0  0  0  0  0  0  0  0  0  0
  -18.9150  -30.1152   23.2261 C   0  0  0  0  0  0  0  0  0  0  0  0
  -28.8739  -14.7642   18.4112 C   0  0  0  0  0  0  0  0  0  0  0  0
  -20.3760  -30.5412   23.3309 C   0  0  0  0  0  0  0  0  0  0  0  0
  -28.3173  -13.4135   18.8537 C   0  0  0  0  0  0  0  0  0  0  0  0
  -27.8729  -15.8965   18.6362 C   0  0  0  0  0  0  0  0  0  0  0  0
  -26.8123  -14.6258   20.4803 C   0  0  0  0  0  0  0  0  0  0  0  0
  -21.1764  -30.0721   22.1099 C   0  0  1  0  0  0  0  0  0  0  0  0
  -22.7020  -26.6840   22.9011 C   0  0  1  0  0  0  0  0  0  0  0  0
  -27.8204  -13.4791   20.3066 C   0  0  1  0  0  0  0  0  0  0  0  0
  -26.5699  -22.0659   27.7710 C   0  0  0  0  0  0  0  0  0  0  0  0
  -29.7975  -25.1526   16.3517 C   0  0  0  0  0  0  0  0  0  0  0  0
  -30.4935  -27.1187   17.7684 C   0  0  0  0  0  0  0  0  0  0  0  0
  -24.7652  -28.3461   26.6880 C   0  0  0  0  0  0  0  0  0  0  0  0
  -26.1565  -26.7041   27.9671 C   0  0  0  0  0  0  0  0  0  0  0  0
  -23.6675  -26.5699   28.0645 C   0  0  0  0  0  0  0  0  0  0  0  0
  -25.5976  -21.2739   24.1789 C   0  0  0  0  0  0  0  0  0  0  0  0
  -28.1360  -26.2323   17.8671 C   0  0  0  0  0  0  0  0  0  1  0  0
  -24.8644  -25.8743   25.9489 C   0  0  1  0  0  0  0  0  0  0  0  0
  -25.7922  -22.2368   26.4753 C   0  0  2  0  0  0  0  0  0  0  0  0
  -30.7809  -20.6679   22.6270 C   0  0  0  0  0  0  0  0  0  0  0  0
  -29.6270  -25.8479   17.7139 C   0  0  0  0  0  0  0  0  0  0  0  0
  -24.8653  -26.8752   27.1388 C   0  0  0  0  0  0  0  0  0  0  0  0
  -25.9334  -11.9237   20.6279 N   0  0  0  0  0  0  0  0  0  0  0  0
  -27.2506  -12.1503   20.7681 N   0  0  0  0  0  0  0  0  0  0  0  0
  -27.3682  -15.9023   20.0174 N   0  0  0  0  0  0  0  0  0  0  0  0
  -23.8528  -26.3419   23.7394 N   0  0  0  0  0  0  0  0  0  0  0  0
  -29.2635  -11.1717   21.5436 N   0  0  0  0  0  0  0  0  0  0  0  0
  -26.1747   -7.9761   22.3459 N   0  0  0  0  0  0  0  0  0  0  0  0
  -29.2697  -23.7088   18.8735 N   0  0  0  0  0  0  0  0  0  0  0  0
  -21.4863  -28.6628   22.2197 N   0  0  0  0  0  0  0  0  0  0  0  0
  -24.9310  -24.4724   26.3473 N   0  0  0  0  0  0  0  0  0  0  0  0
  -26.2912  -21.2342   25.4920 N   0  3  0  0  0  0  0  0  0  0  0  0
  -28.3973   -8.5073   22.5373 O   0  0  0  0  0  0  0  0  0  0  0  0
  -26.9080  -16.9786   22.0292 O   0  0  0  0  0  0  0  0  0  0  0  0
  -23.4066  -28.8499   23.5235 O   0  0  0  0  0  0  0  0  0  0  0  0
  -22.5217  -25.8205   25.5813 O   0  0  0  0  0  0  0  0  0  0  0  0
  -26.8735  -23.9697   25.1849 O   0  0  0  0  0  0  0  0  0  0  0  0
  -30.9553  -25.1422   19.6186 O   0  0  0  0  0  0  0  0  0  0  0  0
  -20.7274   -8.3061   21.2265 O   0  0  0  0  0  0  0  0  0  0  0  0
  -27.9018  -26.8803   19.1168 O   0  0  0  0  0  0  0  0  0  1  0  0
  -19.2108   -5.7095   25.8484 F   0  0  0  0  0  0  0  0  0  0  0  0
  -18.4858   -9.1064   22.6327 F   0  0  0  0  0  0  0  0  0  0  0  0
  -31.7633  -21.5317   23.0304 F   0  0  0  0  0  0  0  0  0  0  0  0
  -30.0290  -20.4456   23.7491 F   0  0  0  0  0  0  0  0  0  0  0  0
  -31.4212  -19.4842   22.3830 F   0  0  0  0  0  0  0  0  0  0  0  0
  -28.2822  -21.3196   19.5573 S   0  0  0  0  0  0  0  0  0  0  0  0
  1  2  1  0  0  0  0
  1  5  2  0  0  0  0
  2  6  2  0  0  0  0
  3  8  2  0  0  0  0
  3 16  1  0  0  0  0
  4  9  1  0  0  0  0
  4 16  2  0  0  0  0
  5 18  1  0  0  0  0
  6 20  1  0  0  0  0
  7 10  2  0  0  0  0
  7 19  1  0  0  0  0
  8 23  1  0  0  0  0
  9 23  2  0  0  0  0
 10 24  1  0  0  0  0
 11 12  2  0  0  0  0
 11 25  1  0  0  0  0
 12 26  1  0  0  0  0
 13 21  1  0  0  0  0
 13 24  2  0  0  0  0
 14 22  1  0  0  0  0
 14 31  2  0  0  0  0
 15 26  2  0  0  0  0
 15 27  1  0  0  0  0
 16 28  1  0  0  0  0
 17 28  1  0  0  0  0
 17 30  2  0  0  0  0
 17 34  1  0  0  0  0
 18 20  2  0  0  0  0
 18 40  1  0  0  0  0
 19 21  2  0  0  0  0
 19 41  1  0  0  0  0
 20 49  1  0  0  0  0
 21 42  1  0  0  0  0
 22 29  2  0  0  0  0
 22 62  1  0  0  0  0
 23 81  1  0  0  0  0
 24 82  1  0  0  0  0
 25 27  2  0  0  0  0
 25 81  1  0  0  0  0
 26 83  1  0  0  0  0
 27 84  1  0  0  0  0
 28 65  2  0  0  0  0
 29 32  1  0  0  0  0
 29 88  1  0  0  0  0
 30 66  1  0  0  0  0
 30 69  1  0  0  0  0
 31 71  1  0  0  0  0
 31 88  1  0  0  0  0
 32 33  2  0  0  0  0
 33 35  1  0  0  0  0
 34 70  1  0  0  0  0
 34 75  2  0  0  0  0
 35 67  1  0  0  0  0
 35 76  2  0  0  0  0
 36 50  1  0  0  0  0
 36 72  1  0  0  0  0
 36 77  2  0  0  0  0
 37 60  1  0  0  0  0
 37 68  1  0  0  0  0
 37 78  2  0  0  0  0
 38 61  1  0  0  0  0
 38 73  1  0  0  0  0
 38 79  2  0  0  0  0
 39 63  1  0  0  0  0
 39 71  1  0  0  0  0
 39 80  2  0  0  0  0
 40 43  1  0  0  0  0
 41 50  1  0  0  0  0
 42 68  1  0  0  0  0
 43 45  1  0  0  0  0
 44 46  1  0  0  0  0
 44 47  1  0  0  0  0
 45 49  1  0  0  0  0
 46 51  1  0  0  0  0
 47 67  1  0  0  0  0
 48 51  1  0  0  0  0
 48 67  1  0  0  0  0
 49 72  1  0  0  0  0
 50 68  1  0  0  0  0
 51 66  1  0  0  0  0
 52 61  1  0  0  0  0
 53 63  1  0  0  0  0
 54 63  1  0  0  0  0
 55 64  1  0  0  0  0
 56 64  1  0  0  0  0
 57 64  1  0  0  0  0
 58 74  1  0  0  0  0
 59 63  1  0  0  0  0
 59 82  1  0  0  0  0
 60 64  1  0  0  0  0
 60 73  1  0  0  0  0
 61 74  1  0  0  0  0
 62 85  1  0  0  0  0
 62 86  1  0  0  0  0
 62 87  1  0  0  0  0
 65 66  1  0  0  0  0
M  CHG  1  74   1
M  ISO  4  33 100  35 100  59 101  82 101
M  END
> <Batch ID>
0186

> <Smiles>
CNC(C)C(=O)NC(C(=O)N1Cc2cc([101O:1][101CH2:1]C(C)(C)C(=O)Nc3cc(C(F)(F)F)c(C=[100CH:0][100C:0](=O)N4CCCC(n5nc(-c6ccc(Oc7ccc(F)cc7F)cc6)c(C(N)=O)c5N)C4)s3)ccc2CC1C(=O)NC1CCCc2ccccc21)C(C)(C)C

> <Shape>
0.207

> <Color>
0.094

> <Negative vol penalty>
0.000

$$$$

  -OEChem-04052305093D

 86 94  0     1  0  0  0  0  0999 V2000
  -28.3785  -14.0999   11.7435 C   0  0  0  0  0  0  0  0  0  0  0  0
  -28.8899  -14.2928   13.0228 C   0  0  0  0  0  0  0  0  0  0  0  0
  -27.1562  -29.3413   20.1688 C   0  0  0  0  0  0  0  0  0  0  0  0
  -25.7111  -27.5031   20.7770 C   0  0  0  0  0  0  0  0  0  0  0  0
  -27.0033  -14.1715   11.5256 C   0  0  0  0  0  0  0  0  0  0  0  0
  -28.0262  -14.5584   14.0849 C   0  0  0  0  0  0  0  0  0  0  0  0
  -29.1544  -11.8698   18.2254 C   0  0  0  0  0  0  0  0  0  0  0  0
  -26.0451  -30.1764   20.0525 C   0  0  0  0  0  0  0  0  0  0  0  0
  -24.5999  -28.3383   20.6608 C   0  0  0  0  0  0  0  0  0  0  0  0
  -30.2281  -12.3105   18.9977 C   0  0  0  0  0  0  0  0  0  0  0  0
  -21.4143  -30.0772   20.8755 C   0  0  0  0  0  0  0  0  0  0  0  0
  -20.4506  -30.0195   21.8822 C   0  0  0  0  0  0  0  0  0  0  0  0
  -28.6873  -13.3442   20.5394 C   0  0  0  0  0  0  0  0  0  0  0  0
  -22.1123  -30.6717   23.5102 C   0  0  0  0  0  0  0  0  0  0  0  0
  -29.3089  -18.9695   19.8708 C   0  0  0  0  0  0  0  0  0  0  0  0
  -26.9892  -28.0046   20.5310 C   0  0  0  0  0  0  0  0  0  0  0  0
  -28.9120  -26.9128   21.8033 C   0  0  0  0  0  0  0  0  0  0  0  0
  -26.1216  -14.4287   12.5872 C   0  0  0  0  0  0  0  0  0  0  0  0
  -27.8371  -12.1728   18.5990 C   0  0  0  0  0  0  0  0  0  0  0  0
  -26.6380  -14.6349   13.8807 C   0  0  0  0  0  0  0  0  0  0  0  0
  -27.5984  -12.9039   19.7714 C   0  0  0  0  0  0  0  0  0  0  0  0
  -24.7669  -29.6749   20.2985 C   0  0  0  0  0  0  0  0  0  0  0  0
  -29.9948  -13.0503   20.1534 C   0  0  0  0  0  0  0  0  0  0  0  0
  -22.7270  -30.4320   21.1861 C   0  0  0  0  0  0  0  0  0  0  0  0
  -20.7995  -30.3168   23.1996 C   0  0  0  0  0  0  0  0  0  0  0  0
  -23.0760  -30.7293   22.5035 C   0  0  0  0  0  0  0  0  0  0  0  0
  -28.1366  -27.1413   20.6507 C   0  0  0  0  0  0  0  0  0  0  0  0
  -29.4546  -19.1484   18.5111 C   0  0  0  0  0  0  0  0  0  0  0  0
  -29.8746  -26.0208   21.3982 C   0  0  0  0  0  0  0  0  0  0  0  0
  -30.9977  -17.6102   19.5385 C   0  0  0  0  0  0  0  0  0  0  0  0
  -28.7743  -27.4581   23.1222 C   0  0  0  0  0  0  0  0  0  0  0  0
  -25.4517  -13.8090   17.2813 C   0  0  0  0  0  0  0  0  0  0  0  0
  -23.7818  -12.6595   19.8135 C   0  0  0  0  0  0  0  0  0  0  0  0
  -23.8269  -11.4335   22.9981 C   0  0  0  0  0  0  0  0  0  0  0  0
  -30.0842  -21.9676   16.9961 C   0  0  0  0  0  0  0  0  0  0  0  0
  -24.6466  -14.5436   12.2943 C   0  0  0  0  0  0  0  0  0  0  0  0
  -26.6888  -11.6672   17.7695 C   0  0  0  0  0  0  0  0  0  0  0  0
  -26.2023  -13.2384   20.2270 C   0  0  0  0  0  0  0  0  0  0  0  0
  -23.7696  -14.4580   13.5408 C   0  0  0  0  0  0  0  0  0  0  0  0
  -32.3380  -24.6728   17.5245 C   0  0  0  0  0  0  0  0  0  0  0  0
  -24.3254  -15.3495   14.6468 C   0  0  0  0  0  0  0  0  0  0  0  0
  -31.5867  -25.5916   18.4896 C   0  0  0  0  0  0  0  0  0  0  0  0
  -31.3935  -24.0159   16.5202 C   0  0  0  0  0  0  0  0  0  0  0  0
  -29.5006  -24.2192   18.0853 C   0  0  0  0  0  0  0  0  0  0  0  0
  -25.7314  -14.9006   15.0629 C   0  0  1  0  0  0  0  0  0  0  0  0
  -25.4085  -12.4729   17.9673 C   0  0  1  0  0  0  0  0  0  0  0  0
  -30.4034  -24.8612   19.1526 C   0  0  2  0  0  0  0  0  0  0  0  0
  -22.3023  -10.6170   24.8164 C   0  0  0  0  0  0  0  0  0  0  0  0
  -33.0206  -17.2229   21.9176 C   0  0  0  0  0  0  0  0  0  0  0  0
  -22.9876  -15.5387   20.4372 C   0  0  0  0  0  0  0  0  0  0  0  0
  -22.2985  -14.7803   22.7215 C   0  0  0  0  0  0  0  0  0  0  0  0
  -21.1468  -13.8673   20.7058 C   0  0  0  0  0  0  0  0  0  0  0  0
  -25.0744   -8.7497   22.9984 C   0  0  0  0  0  0  0  0  0  0  0  0
  -28.6878  -20.0017   17.5830 C   0  0  0  0  0  0  0  0  0  0  0  0
  -32.2661  -13.7516   20.2280 C   0  0  0  0  0  0  0  0  0  1  0  0
  -23.5113  -13.1350   21.2205 C   0  0  1  0  0  0  0  0  0  0  0  0
  -23.1557  -10.2227   23.6209 C   0  0  2  0  0  0  0  0  0  0  0  0
  -33.0759  -14.8175   20.9897 C   0  0  2  0  0  0  0  0  0  0  0  0
  -32.2994  -16.1580   21.0949 C   0  0  2  0  0  0  0  0  0  0  0  0
  -22.5125  -14.3258   21.2619 C   0  0  0  0  0  0  0  0  0  0  0  0
  -34.4695  -14.9355   20.3730 C   0  0  0  0  0  0  0  0  0  0  0  0
  -30.1926  -18.0876   20.4617 N   0  0  0  0  0  0  0  0  0  0  0  0
  -28.5694  -26.4503   19.5928 N   0  0  0  0  0  0  0  0  0  0  0  0
  -29.6272  -25.7789   20.0790 N   0  0  0  0  0  0  0  0  0  0  0  0
  -25.1131  -12.7270   19.3788 N   0  0  0  0  0  0  0  0  0  0  0  0
  -30.2946  -23.3393   17.2134 N   0  0  0  0  0  0  0  0  0  0  0  0
  -30.9002  -25.4277   22.0454 N   0  0  0  0  0  0  0  0  0  0  0  0
  -27.7302  -28.3607   23.3664 N   0  0  0  0  0  0  0  0  0  0  0  0
  -32.0076  -16.6976   19.7820 N   0  0  0  0  0  0  0  0  0  0  0  0
  -25.6576  -13.7345   15.9169 N   0  0  0  0  0  0  0  0  0  0  0  0
  -23.0746  -11.9624   21.9707 N   0  0  0  0  0  0  0  0  0  0  0  0
  -29.0255  -21.4030   17.6970 N   0  0  0  0  0  0  0  0  0  0  0  0
  -24.1794   -9.2407   24.0777 N   0  3  0  0  0  0  0  0  0  0  0  0
  -29.5639  -27.1665   24.0522 O   0  0  0  0  0  0  0  0  0  0  0  0
  -25.3074  -14.8318   17.9407 O   0  0  0  0  0  0  0  0  0  0  0  0
  -22.8475  -12.2367   19.1279 O   0  0  0  0  0  0  0  0  0  0  0  0
  -24.9086  -11.8689   23.3867 O   0  0  0  0  0  0  0  0  0  0  0  0
  -30.7909  -21.2947   16.2381 O   0  0  0  0  0  0  0  0  0  0  0  0
  -23.6825  -30.4896   20.1854 O   0  0  0  0  0  0  0  0  0  0  0  0
  -31.0411  -13.4822   20.9087 O   0  0  0  0  0  0  0  0  0  1  0  0
  -19.8736  -30.2629   24.1660 F   0  0  0  0  0  0  0  0  0  0  0  0
  -24.3352  -31.0721   22.8078 F   0  0  0  0  0  0  0  0  0  0  0  0
  -35.1113  -13.7483   20.3494 F   0  0  0  0  0  0  0  0  0  0  0  0
  -34.3889  -15.3609   19.0900 F   0  0  0  0  0  0  0  0  0  0  0  0
  -35.2464  -15.8136   21.0414 F   0  0  0  0  0  0  0  0  0  0  0  0
  -30.7487  -18.1793   17.9388 S   0  0  0  0  0  0  0  0  0  0  0  0
  1  2  1  0  0  0  0
  1  5  2  0  0  0  0
  2  6  2  0  0  0  0
  3  8  2  0  0  0  0
  3 16  1  0  0  0  0
  4  9  1  0  0  0  0
  4 16  2  0  0  0  0
  5 18  1  0  0  0  0
  6 20  1  0  0  0  0
  7 10  2  0  0  0  0
  7 19  1  0  0  0  0
  8 22  1  0  0  0  0
  9 22  2  0  0  0  0
 10 23  1  0  0  0  0
 11 12  2  0  0  0  0
 11 24  1  0  0  0  0
 12 25  1  0  0  0  0
 13 21  1  0  0  0  0
 13 23  2  0  0  0  0
 14 25  2  0  0  0  0
 14 26  1  0  0  0  0
 15 28  2  0  0  0  0
 15 62  1  0  0  0  0
 16 27  1  0  0  0  0
 17 27  1  0  0  0  0
 17 29  2  0  0  0  0
 17 31  1  0  0  0  0
 18 20  2  0  0  0  0
 18 36  1  0  0  0  0
 19 21  2  0  0  0  0
 19 37  1  0  0  0  0
 20 45  1  0  0  0  0
 21 38  1  0  0  0  0
 22 79  1  0  0  0  0
 23 80  1  0  0  0  0
 24 26  2  0  0  0  0
 24 79  1  0  0  0  0
 25 81  1  0  0  0  0
 26 82  1  0  0  0  0
 27 63  2  0  0  0  0
 28 54  1  0  0  0  0
 28 86  1  0  0  0  0
 29 64  1  0  0  0  0
 29 67  1  0  0  0  0
 30 62  2  0  0  0  0
 30 69  1  0  0  0  0
 30 86  1  0  0  0  0
 31 68  1  0  0  0  0
 31 74  2  0  0  0  0
 32 46  1  0  0  0  0
 32 70  1  0  0  0  0
 32 75  2  0  0  0  0
 33 56  1  0  0  0  0
 33 65  1  0  0  0  0
 33 76  2  0  0  0  0
 34 57  1  0  0  0  0
 34 71  1  0  0  0  0
 34 77  2  0  0  0  0
 35 66  1  0  0  0  0
 35 72  1  0  0  0  0
 35 78  2  0  0  0  0
 36 39  1  0  0  0  0
 37 46  1  0  0  0  0
 38 65  1  0  0  0  0
 39 41  1  0  0  0  0
 40 42  1  0  0  0  0
 40 43  1  0  0  0  0
 41 45  1  0  0  0  0
 42 47  1  0  0  0  0
 43 66  1  0  0  0  0
 44 47  1  0  0  0  0
 44 66  1  0  0  0  0
 45 70  1  0  0  0  0
 46 65  1  0  0  0  0
 47 64  1  0  0  0  0
 48 57  1  0  0  0  0
 49 59  1  0  0  0  0
 50 60  1  0  0  0  0
 51 60  1  0  0  0  0
 52 60  1  0  0  0  0
 53 73  1  0  0  0  0
 54 72  1  0  0  0  0
 55 58  1  0  0  0  0
 55 80  1  0  0  0  0
 56 60  1  0  0  0  0
 56 71  1  0  0  0  0
 57 73  1  0  0  0  0
 58 59  1  0  0  0  0
 58 61  1  0  0  0  0
 59 69  1  0  0  0  0
 61 83  1  0  0  0  0
 61 84  1  0  0  0  0
 61 85  1  0  0  0  0
 63 64  1  0  0  0  0
M  CHG  1  73   1
M  ISO  4  35 100  55 101  72 100  80 101
M  END
> <Batch ID>
0186

> <Smiles>
CNC(C)C(=O)NC(C(=O)N1Cc2cc([101O:1][101CH2:1]C(C(C)Nc3ncc(C[100NH:0][100C:0](=O)N4CCCC(n5nc(-c6ccc(Oc7ccc(F)cc7F)cc6)c(C(N)=O)c5N)C4)s3)C(F)(F)F)ccc2CC1C(=O)NC1CCCc2ccccc21)C(C)(C)C

> <Shape>
0.262

> <Color>
0.061

> <Negative vol penalty>
0.000

$$$$

  -OEChem-04052305093D

 85 93  0     1  0  0  0  0  0999 V2000
  -22.8729  -30.4713   17.5884 C   0  0  0  0  0  0  0  0  0  0  0  0
  -23.3850  -29.1825   17.6990 C   0  0  0  0  0  0  0  0  0  0  0  0
  -23.0383   -9.8877   19.8946 C   0  0  0  0  0  0  0  0  0  0  0  0
  -23.8926   -9.7316   22.1491 C   0  0  0  0  0  0  0  0  0  0  0  0
  -23.1559  -31.4193   18.5708 C   0  0  0  0  0  0  0  0  0  0  0  0
  -24.1815  -28.8413   18.7915 C   0  0  0  0  0  0  0  0  0  0  0  0
  -22.9275  -24.3584   20.7853 C   0  0  0  0  0  0  0  0  0  0  0  0
  -22.2990   -8.7218   20.0940 C   0  0  0  0  0  0  0  0  0  0  0  0
  -23.1532   -8.5658   22.3486 C   0  0  0  0  0  0  0  0  0  0  0  0
  -23.3694  -23.2179   20.1162 C   0  0  0  0  0  0  0  0  0  0  0  0
  -19.9484   -7.7364   23.0280 C   0  0  0  0  0  0  0  0  0  0  0  0
  -19.2404   -7.6164   24.2237 C   0  0  0  0  0  0  0  0  0  0  0  0
  -25.1784  -22.9988   21.6970 C   0  0  0  0  0  0  0  0  0  0  0  0
  -29.3824  -18.5257   20.9475 C   0  0  0  0  0  0  0  0  0  0  0  0
  -20.5003   -5.6287   24.7703 C   0  0  0  0  0  0  0  0  0  0  0  0
  -30.7710  -19.7347   19.5290 C   0  0  0  0  0  0  0  0  0  0  0  0
  -23.8352  -10.3925   20.9221 C   0  0  0  0  0  0  0  0  0  0  0  0
  -24.1859  -12.9190   20.9650 C   0  0  0  0  0  0  0  0  0  0  0  0
  -23.9482  -31.0868   19.6808 C   0  0  0  0  0  0  0  0  0  0  0  0
  -23.6152  -24.8347   21.9108 C   0  0  0  0  0  0  0  0  0  0  0  0
  -24.4765  -29.7862   19.7890 C   0  0  0  0  0  0  0  0  0  0  0  0
  -24.7416  -24.1440   22.3802 C   0  0  0  0  0  0  0  0  0  0  0  0
  -29.4892  -19.5971   20.0143 C   0  0  0  0  0  0  0  0  0  0  0  0
  -22.3564   -8.0609   21.3210 C   0  0  0  0  0  0  0  0  0  0  0  0
  -24.4967  -22.5395   20.5703 C   0  0  0  0  0  0  0  0  0  0  0  0
  -20.9323   -6.8025   22.7033 C   0  0  0  0  0  0  0  0  0  0  0  0
  -19.5164   -6.5626   25.0949 C   0  0  0  0  0  0  0  0  0  0  0  0
  -21.2083   -5.7487   23.5745 C   0  0  0  0  0  0  0  0  0  0  0  0
  -24.5996  -11.5965   20.7165 C   0  0  0  0  0  0  0  0  0  0  0  0
  -30.5868  -17.8851   21.1398 C   0  0  0  0  0  0  0  0  0  0  0  0
  -25.2663  -13.6891   20.6099 C   0  0  0  0  0  0  0  0  0  0  0  0
  -22.9368  -13.4075   21.4717 C   0  0  0  0  0  0  0  0  0  0  0  0
  -25.1593  -27.5194   22.6260 C   0  0  0  0  0  0  0  0  0  0  0  0
  -25.3476  -26.1676   25.5686 C   0  0  0  0  0  0  0  0  0  0  0  0
  -25.3272  -23.3257   27.4581 C   0  0  0  0  0  0  0  0  0  0  0  0
  -27.0979  -20.3844   20.0483 C   0  0  0  0  0  0  0  0  0  0  0  0
  -30.7588  -14.6776   20.6401 C   0  0  0  0  0  0  0  0  0  0  0  0
  -24.2660  -32.1588   20.6931 C   0  0  0  0  0  0  0  0  0  0  0  0
  -23.1100  -26.0510   22.6372 C   0  0  0  0  0  0  0  0  0  0  0  0
  -25.5034  -24.6027   23.5958 C   0  0  0  0  0  0  0  0  0  0  0  0
  -24.8089  -31.6109   22.0104 C   0  0  0  0  0  0  0  0  0  0  0  0
  -29.5099  -12.4696   18.1418 C   0  0  0  0  0  0  0  0  0  0  0  0
  -25.8890  -30.5659   21.7493 C   0  0  0  0  0  0  0  0  0  0  0  0
  -28.0900  -12.1501   18.6127 C   0  0  0  0  0  0  0  0  0  0  0  0
  -30.4772  -12.6031   19.3159 C   0  0  0  0  0  0  0  0  0  0  0  0
  -28.6387  -13.2402   20.8284 C   0  0  0  0  0  0  0  0  0  0  0  0
  -25.3240  -29.3709   20.9719 C   0  0  1  0  0  0  0  0  0  0  0  0
  -24.1876  -26.7415   23.4676 C   0  0  1  0  0  0  0  0  0  0  0  0
  -27.6156  -13.1513   19.6831 C   0  0  2  0  0  0  0  0  0  0  0  0
  -25.5400  -22.5359   29.8305 C   0  0  0  0  0  0  0  0  0  0  0  0
  -26.1833  -21.2688   17.8709 C   0  0  0  0  0  0  0  0  0  0  0  0
  -30.9056  -15.7347   24.4026 C   0  0  0  0  0  0  0  0  0  0  0  0
  -31.4092  -18.1564   24.0848 C   0  0  0  0  0  0  0  0  0  0  0  0
  -28.3625  -26.6204   25.4464 C   0  0  0  0  0  0  0  0  0  0  0  0
  -28.6122  -25.0014   27.3396 C   0  0  0  0  0  0  0  0  0  0  0  0
  -27.3230  -27.1116   27.6674 C   0  0  0  0  0  0  0  0  0  0  0  0
  -22.6111  -22.1504   27.4327 C   0  0  0  0  0  0  0  0  0  0  0  0
  -30.8879  -16.7359   22.0207 C   0  0  1  0  0  0  0  0  0  0  0  0
  -26.3290  -25.2569   26.2660 C   0  0  1  0  0  0  0  0  0  0  0  0
  -24.5819  -22.9679   28.7313 C   0  0  2  0  0  0  0  0  0  0  0  0
  -26.2509  -21.4634   19.3784 C   0  0  1  0  0  0  0  0  0  1  0  0
  -30.5984  -16.9708   23.5451 C   0  0  0  0  0  0  0  0  0  0  0  0
  -27.6437  -25.9898   26.6558 C   0  0  0  0  0  0  0  0  0  0  0  0
  -25.8455  -11.5268   20.2402 N   0  0  0  0  0  0  0  0  0  0  0  0
  -26.2240  -12.8152   20.1864 N   0  0  0  0  0  0  0  0  0  0  0  0
  -24.9739  -25.8007   24.2680 N   0  0  0  0  0  0  0  0  0  0  0  0
  -29.9696  -13.5684   20.2939 N   0  0  0  0  0  0  0  0  0  0  0  0
  -25.4810  -15.0219   20.6215 N   0  0  0  0  0  0  0  0  0  0  0  0
  -21.9347  -12.4797   21.7864 N   0  0  0  0  0  0  0  0  0  0  0  0
  -28.4193  -20.4339   19.6166 N   0  0  0  0  0  0  0  0  0  0  0  0
  -24.5725  -28.5039   21.8540 N   0  0  0  0  0  0  0  0  0  0  0  0
  -25.6130  -24.6731   27.3951 N   0  0  0  0  0  0  0  0  0  0  0  0
  -30.2003  -15.5467   21.5694 N   0  0  0  0  0  0  0  0  0  0  0  0
  -23.6260  -21.8534   28.4762 N   0  3  0  0  0  0  0  0  0  0  0  0
  -22.7101  -14.6317   21.6249 O   0  0  0  0  0  0  0  0  0  0  0  0
  -26.3532  -27.2477   22.6746 O   0  0  0  0  0  0  0  0  0  0  0  0
  -24.9225  -27.1638   26.1589 O   0  0  0  0  0  0  0  0  0  0  0  0
  -25.6290  -22.4925   26.6065 O   0  0  0  0  0  0  0  0  0  0  0  0
  -26.6119  -19.6125   20.8699 O   0  0  0  0  0  0  0  0  0  0  0  0
  -31.8759  -14.8814   20.1529 O   0  0  0  0  0  0  0  0  0  0  0  0
  -21.6349   -6.9234   21.5161 O   0  0  0  0  0  0  0  0  0  0  0  0
  -24.9306  -21.4265   19.9186 O   0  0  0  0  0  0  0  0  0  1  0  0
  -18.8375   -6.4484   26.2440 F   0  0  0  0  0  0  0  0  0  0  0  0
  -22.1532   -4.8491   23.2685 F   0  0  0  0  0  0  0  0  0  0  0  0
  -31.8391  -18.5753   20.1977 S   0  0  0  0  0  0  0  0  0  0  0  0
  1  2  1  0  0  0  0
  1  5  2  0  0  0  0
  2  6  2  0  0  0  0
  3  8  2  0  0  0  0
  3 17  1  0  0  0  0
  4  9  1  0  0  0  0
  4 17  2  0  0  0  0
  5 19  1  0  0  0  0
  6 21  1  0  0  0  0
  7 10  2  0  0  0  0
  7 20  1  0  0  0  0
  8 24  1  0  0  0  0
  9 24  2  0  0  0  0
 10 25  1  0  0  0  0
 11 12  2  0  0  0  0
 11 26  1  0  0  0  0
 12 27  1  0  0  0  0
 13 22  1  0  0  0  0
 13 25  2  0  0  0  0
 14 23  1  0  0  0  0
 14 30  2  0  0  0  0
 15 27  2  0  0  0  0
 15 28  1  0  0  0  0
 16 23  2  0  0  0  0
 16 85  1  0  0  0  0
 17 29  1  0  0  0  0
 18 29  1  0  0  0  0
 18 31  2  0  0  0  0
 18 32  1  0  0  0  0
 19 21  2  0  0  0  0
 19 38  1  0  0  0  0
 20 22  2  0  0  0  0
 20 39  1  0  0  0  0
 21 47  1  0  0  0  0
 22 40  1  0  0  0  0
 23 70  1  0  0  0  0
 24 81  1  0  0  0  0
 25 82  1  0  0  0  0
 26 28  2  0  0  0  0
 26 81  1  0  0  0  0
 27 83  1  0  0  0  0
 28 84  1  0  0  0  0
 29 64  2  0  0  0  0
 30 58  1  0  0  0  0
 30 85  1  0  0  0  0
 31 65  1  0  0  0  0
 31 68  1  0  0  0  0
 32 69  1  0  0  0  0
 32 75  2  0  0  0  0
 33 48  1  0  0  0  0
 33 71  1  0  0  0  0
 33 76  2  0  0  0  0
 34 59  1  0  0  0  0
 34 66  1  0  0  0  0
 34 77  2  0  0  0  0
 35 60  1  0  0  0  0
 35 72  1  0  0  0  0
 35 78  2  0  0  0  0
 36 61  1  0  0  0  0
 36 70  1  0  0  0  0
 36 79  2  0  0  0  0
 37 67  1  0  0  0  0
 37 73  1  0  0  0  0
 37 80  2  0  0  0  0
 38 41  1  0  0  0  0
 39 48  1  0  0  0  0
 40 66  1  0  0  0  0
 41 43  1  0  0  0  0
 42 44  1  0  0  0  0
 42 45  1  0  0  0  0
 43 47  1  0  0  0  0
 44 49  1  0  0  0  0
 45 67  1  0  0  0  0
 46 49  1  0  0  0  0
 46 67  1  0  0  0  0
 47 71  1  0  0  0  0
 48 66  1  0  0  0  0
 49 65  1  0  0  0  0
 50 60  1  0  0  0  0
 51 61  1  0  0  0  0
 52 62  1  0  0  0  0
 53 62  1  0  0  0  0
 54 63  1  0  0  0  0
 55 63  1  0  0  0  0
 56 63  1  0  0  0  0
 57 74  1  0  0  0  0
 58 62  1  0  0  0  0
 58 73  1  0  0  0  0
 59 63  1  0  0  0  0
 59 72  1  0  0  0  0
 60 74  1  0  0  0  0
 61 82  1  0  0  0  0
 64 65  1  0  0  0  0
M  CHG  1  74   1
M  ISO  4  37 100  61 101  73 100  82 101
M  END
> <Batch ID>
0186

> <Smiles>
CNC(C)C(=O)NC(C(=O)N1Cc2cc([101O:1][101CH:1](C)C(=O)Nc3csc(C([100NH:0][100C:0](=O)N4CCCC(n5nc(-c6ccc(Oc7ccc(F)cc7F)cc6)c(C(N)=O)c5N)C4)C(C)C)c3)ccc2CC1C(=O)NC1CCCc2ccccc21)C(C)(C)C

> <Shape>
0.254

> <Color>
0.198

> <Negative vol penalty>
0.000

$$$$

  -OEChem-04052305093D

 81 89  0     1  0  0  0  0  0999 V2000
  -29.7903  -33.5237   24.6904 C   0  0  0  0  0  0  0  0  0  0  0  0
  -30.5259  -32.8856   23.6969 C   0  0  0  0  0  0  0  0  0  0  0  0
  -23.0711   -9.8306   19.9708 C   0  0  0  0  0  0  0  0  0  0  0  0
  -23.8642   -9.8755   22.2525 C   0  0  0  0  0  0  0  0  0  0  0  0
  -29.0060  -32.7738   25.5659 C   0  0  0  0  0  0  0  0  0  0  0  0
  -30.4785  -31.4969   23.5789 C   0  0  0  0  0  0  0  0  0  0  0  0
  -30.7644  -26.2991   18.6578 C   0  0  0  0  0  0  0  0  0  0  0  0
  -22.3471   -8.6705   20.2453 C   0  0  0  0  0  0  0  0  0  0  0  0
  -23.1401   -8.7154   22.5271 C   0  0  0  0  0  0  0  0  0  0  0  0
  -31.4466  -25.1155   18.3798 C   0  0  0  0  0  0  0  0  0  0  0  0
  -19.9324   -7.8808   23.1865 C   0  0  0  0  0  0  0  0  0  0  0  0
  -19.1933   -7.8446   24.3688 C   0  0  0  0  0  0  0  0  0  0  0  0
  -29.9950  -23.9293   19.8981 C   0  0  0  0  0  0  0  0  0  0  0  0
  -20.4720   -5.9333   25.1098 C   0  0  0  0  0  0  0  0  0  0  0  0
  -31.8749  -16.8307   23.0006 C   0  0  0  0  0  0  0  0  0  0  0  0
  -23.8298  -10.4331   20.9744 C   0  0  0  0  0  0  0  0  0  0  0  0
  -24.1348  -12.9611   20.8195 C   0  0  0  0  0  0  0  0  0  0  0  0
  -28.9414  -31.3760   25.4525 C   0  0  0  0  0  0  0  0  0  0  0  0
  -29.6975  -26.3088   19.5678 C   0  0  0  0  0  0  0  0  0  0  0  0
  -29.6936  -30.7275   24.4545 C   0  0  0  0  0  0  0  0  0  0  0  0
  -29.2993  -25.1139   20.1839 C   0  0  0  0  0  0  0  0  0  0  0  0
  -22.3815   -8.1129   21.5234 C   0  0  0  0  0  0  0  0  0  0  0  0
  -31.0639  -23.9309   19.0021 C   0  0  0  0  0  0  0  0  0  0  0  0
  -20.9414   -6.9432   22.9657 C   0  0  0  0  0  0  0  0  0  0  0  0
  -19.4631   -6.8709   25.3305 C   0  0  0  0  0  0  0  0  0  0  0  0
  -21.2112   -5.9695   23.9274 C   0  0  0  0  0  0  0  0  0  0  0  0
  -24.5785  -11.6312   20.6913 C   0  0  0  0  0  0  0  0  0  0  0  0
  -31.0078  -16.8365   21.9280 C   0  0  0  0  0  0  0  0  0  0  0  0
  -25.2110  -13.7210   20.4313 C   0  0  0  0  0  0  0  0  0  0  0  0
  -31.9173  -18.8094   21.6274 C   0  0  0  0  0  0  0  0  0  0  0  0
  -22.8635  -13.4645   21.2510 C   0  0  0  0  0  0  0  0  0  0  0  0
  -29.1325  -27.7451   22.3466 C   0  0  0  0  0  0  0  0  0  0  0  0
  -30.7055  -14.7522   20.6241 C   0  0  0  0  0  0  0  0  0  0  0  0
  -26.1913  -26.4251   21.9867 C   0  0  0  0  0  0  0  0  0  0  0  0
  -24.2643  -23.9805   20.5876 C   0  0  0  0  0  0  0  0  0  0  0  0
  -31.7378  -20.7377   20.0185 C   0  0  0  0  0  0  0  0  0  0  0  0
  -28.1167  -30.6040   26.4518 C   0  0  0  0  0  0  0  0  0  0  0  0
  -28.9547  -27.5888   19.8366 C   0  0  0  0  0  0  0  0  0  0  0  0
  -28.1475  -25.0670   21.1533 C   0  0  0  0  0  0  0  0  0  0  0  0
  -27.8274  -29.1679   26.0227 C   0  0  0  0  0  0  0  0  0  0  0  0
  -29.5364  -12.4101   18.1771 C   0  0  0  0  0  0  0  0  0  0  0  0
  -29.0983  -28.4971   25.5113 C   0  0  0  0  0  0  0  0  0  0  0  0
  -28.1170  -12.0851   18.6407 C   0  0  0  0  0  0  0  0  0  0  0  0
  -30.4714  -12.6397   19.3604 C   0  0  0  0  0  0  0  0  0  0  0  0
  -28.5787  -13.3651   20.7792 C   0  0  0  0  0  0  0  0  0  0  0  0
  -29.6487  -29.2251   24.2790 C   0  0  1  0  0  0  0  0  0  0  0  0
  -28.2130  -27.5806   21.1697 C   0  0  1  0  0  0  0  0  0  0  0  0
  -27.5947  -13.1562   19.6146 C   0  0  2  0  0  0  0  0  0  0  0  0
  -21.9018  -23.1381   20.5084 C   0  0  0  0  0  0  0  0  0  0  0  0
  -33.8574  -22.0278   19.5685 C   0  0  0  0  0  0  0  0  0  0  0  0
  -26.5336  -25.2113   24.7651 C   0  0  0  0  0  0  0  0  0  0  0  0
  -24.6396  -23.6590   24.2440 C   0  0  0  0  0  0  0  0  0  0  0  0
  -24.2518  -26.1226   24.2986 C   0  0  0  0  0  0  0  0  0  0  0  0
  -24.0801  -24.4274   17.6678 C   0  0  0  0  0  0  0  0  0  0  0  0
  -30.0776  -15.7489   21.5656 C   0  0  0  0  0  0  0  0  0  0  0  0
  -25.5523  -25.1149   22.3789 C   0  0  1  0  0  0  0  0  0  0  0  0
  -22.9365  -24.0407   19.8544 C   0  0  2  0  0  0  0  0  0  0  0  0
  -32.3614  -22.1184   19.8311 C   0  0  1  0  0  0  0  0  0  1  0  0
  -25.2673  -25.0279   23.9049 C   0  0  0  0  0  0  0  0  0  0  0  0
  -25.8383  -11.5477   20.2555 N   0  0  0  0  0  0  0  0  0  0  0  0
  -31.0305  -17.9704   21.1397 N   0  0  0  0  0  0  0  0  0  0  0  0
  -26.1954  -12.8346   20.1065 N   0  0  0  0  0  0  0  0  0  0  0  0
  -27.4567  -26.3458   21.3881 N   0  0  0  0  0  0  0  0  0  0  0  0
  -29.9292  -13.6475   20.2734 N   0  0  0  0  0  0  0  0  0  0  0  0
  -25.4019  -15.0542   20.3395 N   0  0  0  0  0  0  0  0  0  0  0  0
  -21.8694  -12.5456   21.6139 N   0  0  0  0  0  0  0  0  0  0  0  0
  -32.2628  -20.0891   21.1315 N   0  0  0  0  0  0  0  0  0  0  0  0
  -28.8833  -28.8753   23.1016 N   0  0  0  0  0  0  0  0  0  0  0  0
  -24.3669  -24.9717   21.5406 N   0  0  0  0  0  0  0  0  0  0  0  0
  -23.1070  -23.6106   18.4377 N   0  3  0  0  0  0  0  0  0  0  0  0
  -22.6111  -14.6923   21.2972 O   0  0  0  0  0  0  0  0  0  0  0  0
  -30.0027  -26.9079   22.5551 O   0  0  0  0  0  0  0  0  0  0  0  0
  -31.8508  -14.9528   20.2114 O   0  0  0  0  0  0  0  0  0  0  0  0
  -25.5869  -27.4796   22.1969 O   0  0  0  0  0  0  0  0  0  0  0  0
  -25.1231  -23.1362   20.3422 O   0  0  0  0  0  0  0  0  0  0  0  0
  -30.8727  -20.3210   19.2536 O   0  0  0  0  0  0  0  0  0  0  0  0
  -21.6749   -6.9810   21.7918 O   0  0  0  0  0  0  0  0  0  0  0  0
  -31.7285  -22.7742   18.7331 O   0  0  0  0  0  0  0  0  0  1  0  0
  -18.7542   -6.8372   26.4665 F   0  0  0  0  0  0  0  0  0  0  0  0
  -22.1800   -5.0669   23.7214 F   0  0  0  0  0  0  0  0  0  0  0  0
  -32.7608  -18.2989   23.0320 S   0  0  0  0  0  0  0  0  0  0  0  0
  1  2  1  0  0  0  0
  1  5  2  0  0  0  0
  2  6  2  0  0  0  0
  3  8  2  0  0  0  0
  3 16  1  0  0  0  0
  4  9  1  0  0  0  0
  4 16  2  0  0  0  0
  5 18  1  0  0  0  0
  6 20  1  0  0  0  0
  7 10  2  0  0  0  0
  7 19  1  0  0  0  0
  8 22  1  0  0  0  0
  9 22  2  0  0  0  0
 10 23  1  0  0  0  0
 11 12  2  0  0  0  0
 11 24  1  0  0  0  0
 12 25  1  0  0  0  0
 13 21  1  0  0  0  0
 13 23  2  0  0  0  0
 14 25  2  0  0  0  0
 14 26  1  0  0  0  0
 15 28  2  0  0  0  0
 15 81  1  0  0  0  0
 16 27  1  0  0  0  0
 17 27  1  0  0  0  0
 17 29  2  0  0  0  0
 17 31  1  0  0  0  0
 18 20  2  0  0  0  0
 18 37  1  0  0  0  0
 19 21  2  0  0  0  0
 19 38  1  0  0  0  0
 20 46  1  0  0  0  0
 21 39  1  0  0  0  0
 22 77  1  0  0  0  0
 23 78  1  0  0  0  0
 24 26  2  0  0  0  0
 24 77  1  0  0  0  0
 25 79  1  0  0  0  0
 26 80  1  0  0  0  0
 27 60  2  0  0  0  0
 28 55  1  0  0  0  0
 28 61  1  0  0  0  0
 29 62  1  0  0  0  0
 29 65  1  0  0  0  0
 30 61  2  0  0  0  0
 30 67  1  0  0  0  0
 30 81  1  0  0  0  0
 31 66  1  0  0  0  0
 31 71  2  0  0  0  0
 32 47  1  0  0  0  0
 32 68  1  0  0  0  0
 32 72  2  0  0  0  0
 33 55  1  0  0  0  0
 33 64  1  0  0  0  0
 33 73  2  0  0  0  0
 34 56  1  0  0  0  0
 34 63  1  0  0  0  0
 34 74  2  0  0  0  0
 35 57  1  0  0  0  0
 35 69  1  0  0  0  0
 35 75  2  0  0  0  0
 36 58  1  0  0  0  0
 36 67  1  0  0  0  0
 36 76  2  0  0  0  0
 37 40  1  0  0  0  0
 38 47  1  0  0  0  0
 39 63  1  0  0  0  0
 40 42  1  0  0  0  0
 41 43  1  0  0  0  0
 41 44  1  0  0  0  0
 42 46  1  0  0  0  0
 43 48  1  0  0  0  0
 44 64  1  0  0  0  0
 45 48  1  0  0  0  0
 45 64  1  0  0  0  0
 46 68  1  0  0  0  0
 47 63  1  0  0  0  0
 48 62  1  0  0  0  0
 49 57  1  0  0  0  0
 50 58  1  0  0  0  0
 51 59  1  0  0  0  0
 52 59  1  0  0  0  0
 53 59  1  0  0  0  0
 54 70  1  0  0  0  0
 56 59  1  0  0  0  0
 56 69  1  0  0  0  0
 57 70  1  0  0  0  0
 58 78  1  0  0  0  0
 60 62  1  0  0  0  0
M  CHG  1  70   1
M  ISO  4  33 100  55 100  58 101  78 101
M  END
> <Batch ID>
0186

> <Smiles>
CNC(C)C(=O)NC(C(=O)N1Cc2cc([101O:1][101CH:1](C)C(=O)Nc3nc([100CH2:0][100C:0](=O)N4CCCC(n5nc(-c6ccc(Oc7ccc(F)cc7F)cc6)c(C(N)=O)c5N)C4)cs3)ccc2CC1C(=O)NC1CCCc2ccccc21)C(C)(C)C

> <Shape>
0.257

> <Color>
0.195

> <Negative vol penalty>
0.000

$$$$

  -OEChem-04052305093D

 83 90  0     1  0  0  0  0  0999 V2000
  -20.9215  -34.3049   20.7665 C   0  0  0  0  0  0  0  0  0  0  0  0
  -22.1793  -33.7130   20.8211 C   0  0  0  0  0  0  0  0  0  0  0  0
  -27.8019  -12.5084   20.1695 C   0  0  0  0  0  0  0  0  0  0  0  0
  -25.6721  -13.5849   20.5465 C   0  0  0  0  0  0  0  0  0  0  0  0
  -19.8591  -33.7485   21.4775 C   0  0  0  0  0  0  0  0  0  0  0  0
  -22.3757  -32.5650   21.5878 C   0  0  0  0  0  0  0  0  0  0  0  0
  -25.0824  -29.0437   19.1548 C   0  0  0  0  0  0  0  0  0  0  0  0
  -27.3270  -11.3520   20.7882 C   0  0  0  0  0  0  0  0  0  0  0  0
  -25.1971  -12.4284   21.1651 C   0  0  0  0  0  0  0  0  0  0  0  0
  -26.4626  -29.2307   19.0943 C   0  0  0  0  0  0  0  0  0  0  0  0
  -24.0094   -9.4088   20.2209 C   0  0  0  0  0  0  0  0  0  0  0  0
  -22.7334   -8.9663   19.8720 C   0  0  0  0  0  0  0  0  0  0  0  0
  -26.7479  -27.6666   20.9085 C   0  0  0  0  0  0  0  0  0  0  0  0
  -22.0259   -9.1941   22.1708 C   0  0  0  0  0  0  0  0  0  0  0  0
  -26.9745  -13.6249   20.0487 C   0  0  0  0  0  0  0  0  0  0  0  0
  -27.3874  -15.1462   18.0430 C   0  0  0  0  0  0  0  0  0  0  0  0
  -20.0403  -32.5875   22.2456 C   0  0  0  0  0  0  0  0  0  0  0  0
  -24.5228  -28.1735   20.1014 C   0  0  0  0  0  0  0  0  0  0  0  0
  -21.3151  -31.9933   22.3108 C   0  0  0  0  0  0  0  0  0  0  0  0
  -25.3605  -27.4683   20.9772 C   0  0  0  0  0  0  0  0  0  0  0  0
  -26.0246  -11.3120   21.2859 C   0  0  0  0  0  0  0  0  0  0  0  0
  -27.2955  -28.5443   19.9732 C   0  0  0  0  0  0  0  0  0  0  0  0
  -24.2936   -9.7438   21.5448 C   0  0  0  0  0  0  0  0  0  0  0  0
  -21.7416   -8.8590   20.8469 C   0  0  0  0  0  0  0  0  0  0  0  0
  -23.3019   -9.6365   22.5197 C   0  0  0  0  0  0  0  0  0  0  0  0
  -27.4647  -14.8200   19.4103 C   0  0  0  0  0  0  0  0  0  0  0  0
  -27.9914  -16.3762   17.9488 C   0  0  0  0  0  0  0  0  0  0  0  0
  -26.8202  -14.4039   16.9554 C   0  0  0  0  0  0  0  0  0  0  0  0
  -22.5140  -28.5059   22.5423 C   0  0  0  0  0  0  0  0  0  0  0  0
  -22.7074  -25.2692   22.6365 C   0  0  0  0  0  0  0  0  0  0  0  0
  -28.5799  -21.5144   19.8278 C   0  0  0  0  0  0  0  0  0  0  0  0
  -24.4827  -22.4501   21.8962 C   0  0  0  0  0  0  0  0  0  0  0  0
  -31.4241  -24.1054   20.2292 C   0  0  0  0  0  0  0  0  0  0  0  0
  -18.8730  -32.0496   23.0348 C   0  0  0  0  0  0  0  0  0  0  0  0
  -23.0339  -27.9625   20.1360 C   0  0  0  0  0  0  0  0  0  0  0  0
  -24.8111  -26.5073   21.9985 C   0  0  0  0  0  0  0  0  0  0  0  0
  -19.0763  -30.6179   23.5238 C   0  0  0  0  0  0  0  0  0  0  0  0
  -30.7277  -18.9773   21.3033 C   0  0  0  0  0  0  0  0  0  0  0  0
  -20.4612  -30.4569   24.1428 C   0  0  0  0  0  0  0  0  0  0  0  0
  -30.0383  -17.6914   20.8491 C   0  0  0  0  0  0  0  0  0  0  0  0
  -29.7168  -20.0834   21.5945 C   0  0  0  0  0  0  0  0  0  0  0  0
  -28.1079  -19.0916   19.9970 C   0  0  0  0  0  0  0  0  0  0  0  0
  -21.5619  -30.7331   23.1115 C   0  0  1  0  0  0  0  0  0  0  0  0
  -22.5352  -27.4427   21.4808 C   0  0  1  0  0  0  0  0  0  0  0  0
  -29.0947  -17.9601   19.6638 C   0  0  2  0  0  0  0  0  0  0  0  0
  -24.4019  -19.9529   22.1308 C   0  0  0  0  0  0  0  0  0  0  0  0
  -33.0592  -26.7108   19.1316 C   0  0  0  0  0  0  0  0  0  0  0  0
  -23.4524  -25.5245   25.5844 C   0  0  0  0  0  0  0  0  0  0  0  0
  -24.2696  -23.1591   25.5109 C   0  0  0  0  0  0  0  0  0  0  0  0
  -21.8668  -23.6610   25.0667 C   0  0  0  0  0  0  0  0  0  0  0  0
  -24.5212  -22.0571   18.9631 C   0  0  0  0  0  0  0  0  0  0  0  0
  -30.7831  -27.7048   19.5419 C   0  0  0  0  0  0  0  0  0  0  0  0
  -29.4632  -27.6232   20.3020 C   0  0  0  0  0  0  0  0  0  1  0  0
  -23.6018  -24.2714   23.3319 C   0  0  1  0  0  0  0  0  0  0  0  0
  -24.0709  -21.1429   21.2435 C   0  0  2  0  0  0  0  0  0  0  0  0
  -31.7345  -26.5494   19.8713 C   0  0  1  0  0  0  0  0  0  0  0  0
  -29.3121  -22.7103   20.3823 C   0  0  0  0  0  0  0  0  0  0  0  0
  -30.6552  -22.9109   19.6991 C   0  0  0  0  0  0  0  0  0  0  0  0
  -23.3082  -24.1735   24.8556 C   0  0  0  0  0  0  0  0  0  0  0  0
  -28.0702  -15.7662   20.1327 N   0  0  0  0  0  0  0  0  0  0  0  0
  -28.3790  -16.6991   19.2160 N   0  0  0  0  0  0  0  0  0  0  0  0
  -23.3484  -26.3398   21.9972 N   0  0  0  0  0  0  0  0  0  0  0  0
  -28.8193  -20.2897   20.4516 N   0  0  0  0  0  0  0  0  0  0  0  0
  -28.2235  -17.2021   16.9065 N   0  0  0  0  0  0  0  0  0  0  0  0
  -26.2395  -13.1577   17.2280 N   0  0  0  0  0  0  0  0  0  0  0  0
  -21.7254  -29.5968   22.2302 N   0  0  0  0  0  0  0  0  0  0  0  0
  -23.4465  -23.0124   22.6114 N   0  0  0  0  0  0  0  0  0  0  0  0
  -31.1413  -25.2743   19.5437 N   0  0  0  0  0  0  0  0  0  0  0  0
  -24.7760  -20.9691   19.9421 N   0  3  0  0  0  0  0  0  0  0  0  0
  -26.8427  -14.8255   15.7742 O   0  0  0  0  0  0  0  0  0  0  0  0
  -23.1637  -28.3475   23.5691 O   0  0  0  0  0  0  0  0  0  0  0  0
  -21.4855  -25.1009   22.6537 O   0  0  0  0  0  0  0  0  0  0  0  0
  -27.8206  -21.6656   18.8672 O   0  0  0  0  0  0  0  0  0  0  0  0
  -25.6117  -22.9231   21.7860 O   0  0  0  0  0  0  0  0  0  0  0  0
  -32.1960  -24.0035   21.1800 O   0  0  0  0  0  0  0  0  0  0  0  0
  -25.5607  -10.1837   21.8894 O   0  0  0  0  0  0  0  0  0  0  0  0
  -28.6430  -28.7255   19.9167 O   0  0  0  0  0  0  0  0  0  1  0  0
  -20.5159   -8.4356   20.5114 F   0  0  0  0  0  0  0  0  0  0  0  0
  -23.5686   -9.9581   23.7930 F   0  0  0  0  0  0  0  0  0  0  0  0
  -28.5697  -23.8371   20.2031 F   0  0  0  0  0  0  0  0  0  0  0  0
  -29.4912  -22.5879   21.7232 F   0  0  0  0  0  0  0  0  0  0  0  0
  -31.3896  -21.7717   19.8397 F   0  0  0  0  0  0  0  0  0  0  0  0
  -30.4339  -23.0432   18.3604 F   0  0  0  0  0  0  0  0  0  0  0  0
  1  2  1  0  0  0  0
  1  5  2  0  0  0  0
  2  6  2  0  0  0  0
  3  8  2  0  0  0  0
  3 15  1  0  0  0  0
  4  9  1  0  0  0  0
  4 15  2  0  0  0  0
  5 17  1  0  0  0  0
  6 19  1  0  0  0  0
  7 10  2  0  0  0  0
  7 18  1  0  0  0  0
  8 21  1  0  0  0  0
  9 21  2  0  0  0  0
 10 22  1  0  0  0  0
 11 12  2  0  0  0  0
 11 23  1  0  0  0  0
 12 24  1  0  0  0  0
 13 20  1  0  0  0  0
 13 22  2  0  0  0  0
 14 24  2  0  0  0  0
 14 25  1  0  0  0  0
 15 26  1  0  0  0  0
 16 26  1  0  0  0  0
 16 27  2  0  0  0  0
 16 28  1  0  0  0  0
 17 19  2  0  0  0  0
 17 34  1  0  0  0  0
 18 20  2  0  0  0  0
 18 35  1  0  0  0  0
 19 43  1  0  0  0  0
 20 36  1  0  0  0  0
 21 76  1  0  0  0  0
 22 77  1  0  0  0  0
 23 25  2  0  0  0  0
 23 76  1  0  0  0  0
 24 78  1  0  0  0  0
 25 79  1  0  0  0  0
 26 60  2  0  0  0  0
 27 61  1  0  0  0  0
 27 64  1  0  0  0  0
 28 65  1  0  0  0  0
 28 70  2  0  0  0  0
 29 44  1  0  0  0  0
 29 66  1  0  0  0  0
 29 71  2  0  0  0  0
 30 54  1  0  0  0  0
 30 62  1  0  0  0  0
 30 72  2  0  0  0  0
 31 57  1  0  0  0  0
 31 63  1  0  0  0  0
 31 73  2  0  0  0  0
 32 55  1  0  0  0  0
 32 67  1  0  0  0  0
 32 74  2  0  0  0  0
 33 58  1  0  0  0  0
 33 68  1  0  0  0  0
 33 75  2  0  0  0  0
 34 37  1  0  0  0  0
 35 44  1  0  0  0  0
 36 62  1  0  0  0  0
 37 39  1  0  0  0  0
 38 40  1  0  0  0  0
 38 41  1  0  0  0  0
 39 43  1  0  0  0  0
 40 45  1  0  0  0  0
 41 63  1  0  0  0  0
 42 45  1  0  0  0  0
 42 63  1  0  0  0  0
 43 66  1  0  0  0  0
 44 62  1  0  0  0  0
 45 61  1  0  0  0  0
 46 55  1  0  0  0  0
 47 56  1  0  0  0  0
 48 59  1  0  0  0  0
 49 59  1  0  0  0  0
 50 59  1  0  0  0  0
 51 69  1  0  0  0  0
 52 53  1  0  0  0  0
 52 56  1  0  0  0  0
 53 77  1  0  0  0  0
 54 59  1  0  0  0  0
 54 67  1  0  0  0  0
 55 69  1  0  0  0  0
 56 68  1  0  0  0  0
 57 58  1  0  0  0  0
 57 80  1  0  0  0  0
 57 81  1  0  0  0  0
 58 82  1  0  0  0  0
 58 83  1  0  0  0  0
 60 61  1  0  0  0  0
M  CHG  1  69   1
M  ISO  4  31 100  53 101  57 100  77 101
M  END
> <Batch ID>
0186

> <Smiles>
CNC(C)C(=O)NC(C(=O)N1Cc2cc([101O:1][101CH2:1]CC(C)NC(=O)C(F)(F)[100C:0](F)(F)[100C:0](=O)N3CCCC(n4nc(-c5ccc(Oc6ccc(F)cc6F)cc5)c(C(N)=O)c4N)C3)ccc2CC1C(=O)NC1CCCc2ccccc21)C(C)(C)C

> <Shape>
0.243

> <Color>
0.075

> <Negative vol penalty>
0.000

$$$$

  -OEChem-04052305093D

 84 92  0     1  0  0  0  0  0999 V2000
  -35.8005  -20.8745   21.8706 C   0  0  0  0  0  0  0  0  0  0  0  0
  -34.4781  -20.6991   22.2654 C   0  0  0  0  0  0  0  0  0  0  0  0
  -23.0012   -9.8923   19.9832 C   0  0  0  0  0  0  0  0  0  0  0  0
  -23.7282   -9.9477   22.2865 C   0  0  0  0  0  0  0  0  0  0  0  0
  -36.6303  -21.7399   22.5822 C   0  0  0  0  0  0  0  0  0  0  0  0
  -33.9850  -21.3881   23.3729 C   0  0  0  0  0  0  0  0  0  0  0  0
  -29.4163  -23.4036   22.5309 C   0  0  0  0  0  0  0  0  0  0  0  0
  -22.2363   -8.7572   20.2519 C   0  0  0  0  0  0  0  0  0  0  0  0
  -22.9633   -8.8126   22.5553 C   0  0  0  0  0  0  0  0  0  0  0  0
  -28.3206  -22.5434   22.5875 C   0  0  0  0  0  0  0  0  0  0  0  0
  -23.2115   -5.4733   22.0883 C   0  0  0  0  0  0  0  0  0  0  0  0
  -23.8009   -4.4580   22.8414 C   0  0  0  0  0  0  0  0  0  0  0  0
  -27.8396  -23.3125   24.8227 C   0  0  0  0  0  0  0  0  0  0  0  0
  -22.0781   -4.7013   24.5177 C   0  0  0  0  0  0  0  0  0  0  0  0
  -31.1757  -17.4695   24.3164 C   0  0  0  0  0  0  0  0  0  0  0  0
  -23.7472  -10.4875   21.0005 C   0  0  0  0  0  0  0  0  0  0  0  0
  -24.1291  -13.0033   20.8203 C   0  0  0  0  0  0  0  0  0  0  0  0
  -36.1445  -22.4473   23.6932 C   0  0  0  0  0  0  0  0  0  0  0  0
  -29.7388  -24.2183   23.6258 C   0  0  0  0  0  0  0  0  0  0  0  0
  -34.8095  -22.2628   24.1009 C   0  0  0  0  0  0  0  0  0  0  0  0
  -28.9384  -24.1842   24.7766 C   0  0  0  0  0  0  0  0  0  0  0  0
  -22.2173   -8.2174   21.5379 C   0  0  0  0  0  0  0  0  0  0  0  0
  -27.5338  -22.4956   23.7345 C   0  0  0  0  0  0  0  0  0  0  0  0
  -22.0554   -6.1027   22.5498 C   0  0  0  0  0  0  0  0  0  0  0  0
  -23.2343   -4.0720   24.0561 C   0  0  0  0  0  0  0  0  0  0  0  0
  -21.4887   -5.7166   23.7645 C   0  0  0  0  0  0  0  0  0  0  0  0
  -24.5379  -11.6597   20.7234 C   0  0  0  0  0  0  0  0  0  0  0  0
  -30.3804  -17.3561   23.1954 C   0  0  0  0  0  0  0  0  0  0  0  0
  -25.2377  -13.7267   20.4539 C   0  0  0  0  0  0  0  0  0  0  0  0
  -28.8878  -18.1767   24.5771 C   0  0  0  0  0  0  0  0  0  0  0  0
  -22.8608  -13.5487   21.2070 C   0  0  0  0  0  0  0  0  0  0  0  0
  -32.2424  -24.4794   25.5669 C   0  0  0  0  0  0  0  0  0  0  0  0
  -30.6043  -27.0400   26.6993 C   0  0  0  0  0  0  0  0  0  0  0  0
  -27.6003  -28.6058   27.1124 C   0  0  0  0  0  0  0  0  0  0  0  0
  -30.7330  -14.6687   20.6964 C   0  0  0  0  0  0  0  0  0  0  0  0
  -37.0924  -23.3355   24.4594 C   0  0  0  0  0  0  0  0  0  0  0  0
  -30.9082  -25.1603   23.5390 C   0  0  0  0  0  0  0  0  0  0  0  0
  -29.2302  -25.0532   25.9716 C   0  0  0  0  0  0  0  0  0  0  0  0
  -36.3879  -24.3137   25.3959 C   0  0  0  0  0  0  0  0  0  0  0  0
  -29.5935  -12.2400   18.3556 C   0  0  0  0  0  0  0  0  0  0  0  0
  -35.3086  -23.5979   26.2019 C   0  0  0  0  0  0  0  0  0  0  0  0
  -28.1457  -11.9791   18.7748 C   0  0  0  0  0  0  0  0  0  0  0  0
  -30.4966  -12.4784   19.5637 C   0  0  0  0  0  0  0  0  0  0  0  0
  -28.5866  -13.2735   20.9029 C   0  0  0  0  0  0  0  0  0  0  0  0
  -34.2310  -23.0114   25.2820 C   0  0  1  0  0  0  0  0  0  0  0  0
  -31.4481  -25.5701   24.9057 C   0  0  1  0  0  0  0  0  0  0  0  0
  -27.6268  -13.0828   19.7159 C   0  0  2  0  0  0  0  0  0  0  0  0
  -30.6622  -17.8837   20.7452 C   0  0  0  0  0  0  0  0  0  0  0  0
  -26.5740  -30.6673   28.1097 C   0  0  0  0  0  0  0  0  0  0  0  0
  -25.8673  -17.3571   24.1521 C   0  0  0  0  0  0  0  0  0  0  0  0
  -30.8810  -25.8270   29.4853 C   0  0  0  0  0  0  0  0  0  0  0  0
  -29.0748  -27.3764   30.2633 C   0  0  0  0  0  0  0  0  0  0  0  0
  -31.2188  -28.3031   29.3873 C   0  0  0  0  0  0  0  0  0  0  0  0
  -26.6017  -29.5222   24.4815 C   0  0  0  0  0  0  0  0  0  0  0  0
  -26.1072  -21.1469   25.0769 C   0  0  0  0  0  0  0  0  0  1  0  0
  -30.8140  -16.8495   21.8782 C   0  0  2  0  0  0  0  0  0  0  0  0
  -29.5722  -27.2564   27.7795 C   0  0  1  0  0  0  0  0  0  0  0  0
  -27.1679  -30.0387   26.8587 C   0  0  2  0  0  0  0  0  0  0  0  0
  -26.4781  -18.7506   24.2777 C   0  0  1  0  0  0  0  0  0  0  0  0
  -25.4977  -19.7569   24.9024 C   0  0  1  0  0  0  0  0  0  0  0  0
  -30.1821  -27.1728   29.2073 C   0  0  0  0  0  0  0  0  0  0  0  0
  -25.8070  -11.5342   20.3264 N   0  0  0  0  0  0  0  0  0  0  0  0
  -29.0680  -17.7607   23.3431 N   0  0  0  0  0  0  0  0  0  0  0  0
  -26.2052  -12.8082   20.1705 N   0  0  0  0  0  0  0  0  0  0  0  0
  -30.3880  -25.9530   25.8405 N   0  0  0  0  0  0  0  0  0  0  0  0
  -29.9492  -13.5377   20.4146 N   0  0  0  0  0  0  0  0  0  0  0  0
  -25.4694  -15.0526   20.3496 N   0  0  0  0  0  0  0  0  0  0  0  0
  -21.8304  -12.6637   21.5528 N   0  0  0  0  0  0  0  0  0  0  0  0
  -27.6874  -18.6526   25.0709 N   0  0  0  0  0  0  0  0  0  0  0  0
  -33.3308  -24.0510   24.8312 N   0  0  0  0  0  0  0  0  0  0  0  0
  -28.9274  -28.5300   27.4788 N   0  0  0  0  0  0  0  0  0  0  0  0
  -30.1361  -15.6279   21.5053 N   0  0  0  0  0  0  0  0  0  0  0  0
  -26.1439  -30.0870   25.7770 N   0  3  0  0  0  0  0  0  0  0  0  0
  -22.6425  -14.7837   21.2291 O   0  0  0  0  0  0  0  0  0  0  0  0
  -31.8944  -24.0588   26.6640 O   0  0  0  0  0  0  0  0  0  0  0  0
  -31.5633  -27.8115   26.6159 O   0  0  0  0  0  0  0  0  0  0  0  0
  -26.8361  -27.6497   27.0007 O   0  0  0  0  0  0  0  0  0  0  0  0
  -31.8779  -14.8154   20.2551 O   0  0  0  0  0  0  0  0  0  0  0  0
  -25.0604  -19.2763   26.1747 O   0  0  0  0  0  0  0  0  0  0  0  0
  -21.4709   -7.1099   21.8005 O   0  0  0  0  0  0  0  0  0  0  0  0
  -26.4641  -21.6563   23.7926 O   0  0  0  0  0  0  0  0  0  1  0  0
  -23.7996   -3.0959   24.7786 F   0  0  0  0  0  0  0  0  0  0  0  0
  -20.3774   -6.3168   24.2126 F   0  0  0  0  0  0  0  0  0  0  0  0
  -30.2540  -18.1094   25.6134 S   0  0  0  0  0  0  0  0  0  0  0  0
  1  2  1  0  0  0  0
  1  5  2  0  0  0  0
  2  6  2  0  0  0  0
  3  8  2  0  0  0  0
  3 16  1  0  0  0  0
  4  9  1  0  0  0  0
  4 16  2  0  0  0  0
  5 18  1  0  0  0  0
  6 20  1  0  0  0  0
  7 10  2  0  0  0  0
  7 19  1  0  0  0  0
  8 22  1  0  0  0  0
  9 22  2  0  0  0  0
 10 23  1  0  0  0  0
 11 12  2  0  0  0  0
 11 24  1  0  0  0  0
 12 25  1  0  0  0  0
 13 21  1  0  0  0  0
 13 23  2  0  0  0  0
 14 25  2  0  0  0  0
 14 26  1  0  0  0  0
 15 28  2  0  0  0  0
 15 84  1  0  0  0  0
 16 27  1  0  0  0  0
 17 27  1  0  0  0  0
 17 29  2  0  0  0  0
 17 31  1  0  0  0  0
 18 20  2  0  0  0  0
 18 36  1  0  0  0  0
 19 21  2  0  0  0  0
 19 37  1  0  0  0  0
 20 45  1  0  0  0  0
 21 38  1  0  0  0  0
 22 80  1  0  0  0  0
 23 81  1  0  0  0  0
 24 26  2  0  0  0  0
 24 80  1  0  0  0  0
 25 82  1  0  0  0  0
 26 83  1  0  0  0  0
 27 62  2  0  0  0  0
 28 56  1  0  0  0  0
 28 63  1  0  0  0  0
 29 64  1  0  0  0  0
 29 67  1  0  0  0  0
 30 63  2  0  0  0  0
 30 69  1  0  0  0  0
 30 84  1  0  0  0  0
 31 68  1  0  0  0  0
 31 74  2  0  0  0  0
 32 46  1  0  0  0  0
 32 70  1  0  0  0  0
 32 75  2  0  0  0  0
 33 57  1  0  0  0  0
 33 65  1  0  0  0  0
 33 76  2  0  0  0  0
 34 58  1  0  0  0  0
 34 71  1  0  0  0  0
 34 77  2  0  0  0  0
 35 66  1  0  0  0  0
 35 72  1  0  0  0  0
 35 78  2  0  0  0  0
 36 39  1  0  0  0  0
 37 46  1  0  0  0  0
 38 65  1  0  0  0  0
 39 41  1  0  0  0  0
 40 42  1  0  0  0  0
 40 43  1  0  0  0  0
 41 45  1  0  0  0  0
 42 47  1  0  0  0  0
 43 66  1  0  0  0  0
 44 47  1  0  0  0  0
 44 66  1  0  0  0  0
 45 70  1  0  0  0  0
 46 65  1  0  0  0  0
 47 64  1  0  0  0  0
 48 56  1  0  0  0  0
 49 58  1  0  0  0  0
 50 59  1  0  0  0  0
 51 61  1  0  0  0  0
 52 61  1  0  0  0  0
 53 61  1  0  0  0  0
 54 73  1  0  0  0  0
 55 60  1  0  0  0  0
 55 81  1  0  0  0  0
 56 72  1  0  0  0  0
 57 61  1  0  0  0  0
 57 71  1  0  0  0  0
 58 73  1  0  0  0  0
 59 60  1  0  0  0  0
 59 69  1  0  0  0  0
 60 79  1  0  0  0  0
 62 64  1  0  0  0  0
M  CHG  1  73   1
M  ISO  4  35 100  55 101  72 100  81 101
M  END
> <Batch ID>
0186

> <Smiles>
CNC(C)C(=O)NC(C(=O)N1Cc2cc([101O:1][101CH2:1]C(O)C(C)Nc3nc(C(C)[100NH:0][100C:0](=O)N4CCCC(n5nc(-c6ccc(Oc7ccc(F)cc7F)cc6)c(C(N)=O)c5N)C4)cs3)ccc2CC1C(=O)NC1CCCc2ccccc21)C(C)(C)C

> <Shape>
0.197

> <Color>
0.189

> <Negative vol penalty>
0.000

$$$$
