
  -OEChem-04052305123D

 85 93  0     1  0  0  0  0  0999 V2000
  -16.5879  -29.6204   22.9427 C   0  0  0  0  0  0  0  0  0  0  0  0
  -17.7463  -30.0616   22.3112 C   0  0  0  0  0  0  0  0  0  0  0  0
  -26.3580  -12.8653   21.5527 C   0  0  0  0  0  0  0  0  0  0  0  0
  -25.6267  -13.8685   19.4800 C   0  0  0  0  0  0  0  0  0  0  0  0
  -16.6403  -28.5303   23.8104 C   0  0  0  0  0  0  0  0  0  0  0  0
  -18.9581  -29.4137   22.5480 C   0  0  0  0  0  0  0  0  0  0  0  0
  -25.1005  -27.6950   19.2871 C   0  0  0  0  0  0  0  0  0  0  0  0
  -25.1188  -12.2394   21.6870 C   0  0  0  0  0  0  0  0  0  0  0  0
  -24.3874  -13.2425   19.6143 C   0  0  0  0  0  0  0  0  0  0  0  0
  -26.4795  -27.8009   19.4628 C   0  0  0  0  0  0  0  0  0  0  0  0
  -23.5436   -9.5332   20.4108 C   0  0  0  0  0  0  0  0  0  0  0  0
  -23.5334   -8.1881   20.7796 C   0  0  0  0  0  0  0  0  0  0  0  0
  -26.4355  -25.8793   20.9203 C   0  0  0  0  0  0  0  0  0  0  0  0
  -28.1873  -22.3443   16.2314 C   0  0  0  0  0  0  0  0  0  0  0  0
  -22.2636   -8.7405   22.7594 C   0  0  0  0  0  0  0  0  0  0  0  0
  -26.6119  -13.6800   20.4492 C   0  0  0  0  0  0  0  0  0  0  0  0
  -29.0343  -13.8214   19.6619 C   0  0  0  0  0  0  0  0  0  0  0  0
  -17.8516  -27.8627   24.0506 C   0  0  0  0  0  0  0  0  0  0  0  0
  -24.3758  -26.6853   19.9365 C   0  0  0  0  0  0  0  0  0  0  0  0
  -19.0270  -28.3145   23.4209 C   0  0  0  0  0  0  0  0  0  0  0  0
  -25.0477  -25.7611   20.7492 C   0  0  0  0  0  0  0  0  0  0  0  0
  -28.7415  -23.5953   16.4785 C   0  0  0  0  0  0  0  0  0  0  0  0
  -24.1335  -12.4279   20.7179 C   0  0  0  0  0  0  0  0  0  0  0  0
  -27.1468  -26.8948   20.2817 C   0  0  0  0  0  0  0  0  0  0  0  0
  -22.9139  -10.4821   21.2164 C   0  0  0  0  0  0  0  0  0  0  0  0
  -22.8934   -7.7917   21.9539 C   0  0  0  0  0  0  0  0  0  0  0  0
  -28.2745  -21.3484   17.1978 C   0  0  0  0  0  0  0  0  0  0  0  0
  -22.2738  -10.0857   22.3906 C   0  0  0  0  0  0  0  0  0  0  0  0
  -27.8917  -14.3273   20.3102 C   0  0  0  0  0  0  0  0  0  0  0  0
  -29.3673  -23.7981   17.6979 C   0  0  0  0  0  0  0  0  0  0  0  0
  -28.9214  -21.6516   18.3849 C   0  0  0  0  0  0  0  0  0  0  0  0
  -29.9770  -14.8097   19.8067 C   0  0  0  0  0  0  0  0  0  0  0  0
  -29.2263  -12.5700   18.9890 C   0  0  0  0  0  0  0  0  0  0  0  0
  -22.0337  -26.6328   22.0848 C   0  0  0  0  0  0  0  0  0  0  0  0
  -22.1028  -23.4415   21.5078 C   0  0  0  0  0  0  0  0  0  0  0  0
  -23.8748  -20.7288   20.4361 C   0  0  0  0  0  0  0  0  0  0  0  0
  -29.6057  -20.7175   20.6222 C   0  0  0  0  0  0  0  0  0  0  0  0
  -17.8675  -26.7187   25.0333 C   0  0  0  0  0  0  0  0  0  0  0  0
  -22.8926  -26.5683   19.7154 C   0  0  0  0  0  0  0  0  0  0  0  0
  -24.3187  -24.6465   21.4526 C   0  0  0  0  0  0  0  0  0  0  0  0
  -19.1218  -25.8536   24.9406 C   0  0  0  0  0  0  0  0  0  0  0  0
  -31.2454  -18.3741   22.7428 C   0  0  0  0  0  0  0  0  0  0  0  0
  -20.3701  -26.7281   24.8787 C   0  0  0  0  0  0  0  0  0  0  0  0
  -30.6800  -17.0238   22.2965 C   0  0  0  0  0  0  0  0  0  0  0  0
  -30.1881  -19.4756   22.6943 C   0  0  0  0  0  0  0  0  0  0  0  0
  -28.9254  -18.2605   20.9627 C   0  0  0  0  0  0  0  0  0  0  0  0
  -20.3559  -27.6223   23.6330 C   0  0  1  0  0  0  0  0  0  0  0  0
  -22.1795  -25.8140   20.8335 C   0  0  1  0  0  0  0  0  0  0  0  0
  -29.9701  -17.1330   20.9328 C   0  0  2  0  0  0  0  0  0  0  0  0
  -28.6443  -24.6609   15.4405 C   0  0  0  0  0  0  0  0  0  0  0  0
  -23.6765  -18.2479   20.1151 C   0  0  0  0  0  0  0  0  0  0  0  0
  -32.0005  -24.7719   19.1452 C   0  0  0  0  0  0  0  0  0  0  0  0
  -22.4022  -23.0307   24.5164 C   0  0  0  0  0  0  0  0  0  0  0  0
  -23.1421  -20.6844   24.0520 C   0  0  0  0  0  0  0  0  0  0  0  0
  -20.8519  -21.4217   23.3930 C   0  0  0  0  0  0  0  0  0  0  0  0
  -24.3426  -20.9515   17.5223 C   0  0  0  0  0  0  0  0  0  0  0  0
  -29.2483  -27.5377   19.3727 C   0  0  0  0  0  0  0  0  0  1  0  0
  -22.8483  -22.2655   22.0912 C   0  0  1  0  0  0  0  0  0  0  0  0
  -23.5231  -19.6149   19.4666 C   0  0  2  0  0  0  0  0  0  0  0  0
  -30.6008  -25.3808   19.1809 C   0  0  1  0  0  0  0  0  0  0  0  0
  -30.6390  -26.9051   19.3789 C   0  0  1  0  0  0  0  0  0  0  0  0
  -22.3249  -21.8726   23.5016 C   0  0  0  0  0  0  0  0  0  0  0  0
  -28.0884  -15.5425   20.8283 N   0  0  0  0  0  0  0  0  0  0  0  0
  -29.4720  -22.8551   18.6609 N   0  0  0  0  0  0  0  0  0  0  0  0
  -29.3657  -15.8085   20.5059 N   0  0  0  0  0  0  0  0  0  0  0  0
  -22.8682  -24.5778   21.2099 N   0  0  0  0  0  0  0  0  0  0  0  0
  -29.5614  -19.5228   21.3715 N   0  0  0  0  0  0  0  0  0  0  0  0
  -31.2610  -14.9131   19.4028 N   0  0  0  0  0  0  0  0  0  0  0  0
  -28.1534  -11.6700   18.9329 N   0  0  0  0  0  0  0  0  0  0  0  0
  -29.0054  -20.6331   19.3664 N   0  0  0  0  0  0  0  0  0  0  0  0
  -29.9200  -25.0407   17.9473 N   0  0  0  0  0  0  0  0  0  0  0  0
  -20.7230  -26.8596   22.4591 N   0  0  0  0  0  0  0  0  0  0  0  0
  -22.7618  -21.1962   21.1025 N   0  0  0  0  0  0  0  0  0  0  0  0
  -24.4103  -19.6699   18.2705 N   0  3  0  0  0  0  0  0  0  0  0  0
  -30.3221  -12.2522   18.4676 O   0  0  0  0  0  0  0  0  0  0  0  0
  -23.0360  -27.0282   22.6684 O   0  0  0  0  0  0  0  0  0  0  0  0
  -20.8875  -23.3525   21.3166 O   0  0  0  0  0  0  0  0  0  0  0  0
  -25.0226  -21.1404   20.5898 O   0  0  0  0  0  0  0  0  0  0  0  0
  -30.1610  -21.7322   21.0511 O   0  0  0  0  0  0  0  0  0  0  0  0
  -31.4286  -27.5045   18.3502 O   0  0  0  0  0  0  0  0  0  0  0  0
  -22.9242  -11.8171   20.8485 O   0  0  0  0  0  0  0  0  0  0  0  0
  -28.4927  -26.9963   20.4554 O   0  0  0  0  0  0  0  0  0  1  0  0
  -22.8824   -6.4997   22.3071 F   0  0  0  0  0  0  0  0  0  0  0  0
  -27.7439  -20.1394   16.9735 F   0  0  0  0  0  0  0  0  0  0  0  0
  -21.6661  -10.9924   23.1679 F   0  0  0  0  0  0  0  0  0  0  0  0
  1  2  1  0  0  0  0
  1  5  2  0  0  0  0
  2  6  2  0  0  0  0
  3  8  2  0  0  0  0
  3 16  1  0  0  0  0
  4  9  1  0  0  0  0
  4 16  2  0  0  0  0
  5 18  1  0  0  0  0
  6 20  1  0  0  0  0
  7 10  2  0  0  0  0
  7 19  1  0  0  0  0
  8 23  1  0  0  0  0
  9 23  2  0  0  0  0
 10 24  1  0  0  0  0
 11 12  2  0  0  0  0
 11 25  1  0  0  0  0
 12 26  1  0  0  0  0
 13 21  1  0  0  0  0
 13 24  2  0  0  0  0
 14 22  1  0  0  0  0
 14 27  2  0  0  0  0
 15 26  2  0  0  0  0
 15 28  1  0  0  0  0
 16 29  1  0  0  0  0
 17 29  1  0  0  0  0
 17 32  2  0  0  0  0
 17 33  1  0  0  0  0
 18 20  2  0  0  0  0
 18 38  1  0  0  0  0
 19 21  2  0  0  0  0
 19 39  1  0  0  0  0
 20 47  1  0  0  0  0
 21 40  1  0  0  0  0
 22 30  2  0  0  0  0
 22 50  1  0  0  0  0
 23 81  1  0  0  0  0
 24 82  1  0  0  0  0
 25 28  2  0  0  0  0
 25 81  1  0  0  0  0
 26 83  1  0  0  0  0
 27 31  1  0  0  0  0
 27 84  1  0  0  0  0
 28 85  1  0  0  0  0
 29 63  2  0  0  0  0
 30 64  1  0  0  0  0
 30 71  1  0  0  0  0
 31 64  2  0  0  0  0
 31 70  1  0  0  0  0
 32 65  1  0  0  0  0
 32 68  1  0  0  0  0
 33 69  1  0  0  0  0
 33 75  2  0  0  0  0
 34 48  1  0  0  0  0
 34 72  1  0  0  0  0
 34 76  2  0  0  0  0
 35 58  1  0  0  0  0
 35 66  1  0  0  0  0
 35 77  2  0  0  0  0
 36 59  1  0  0  0  0
 36 73  1  0  0  0  0
 36 78  2  0  0  0  0
 37 67  1  0  0  0  0
 37 70  1  0  0  0  0
 37 79  2  0  0  0  0
 38 41  1  0  0  0  0
 39 48  1  0  0  0  0
 40 66  1  0  0  0  0
 41 43  1  0  0  0  0
 42 44  1  0  0  0  0
 42 45  1  0  0  0  0
 43 47  1  0  0  0  0
 44 49  1  0  0  0  0
 45 67  1  0  0  0  0
 46 49  1  0  0  0  0
 46 67  1  0  0  0  0
 47 72  1  0  0  0  0
 48 66  1  0  0  0  0
 49 65  1  0  0  0  0
 51 59  1  0  0  0  0
 52 60  1  0  0  0  0
 53 62  1  0  0  0  0
 54 62  1  0  0  0  0
 55 62  1  0  0  0  0
 56 74  1  0  0  0  0
 57 61  1  0  0  0  0
 57 82  1  0  0  0  0
 58 62  1  0  0  0  0
 58 73  1  0  0  0  0
 59 74  1  0  0  0  0
 60 61  1  0  0  0  0
 60 71  1  0  0  0  0
 61 80  1  0  0  0  0
 63 65  1  0  0  0  0
M  CHG  1  74   1
M  ISO  4  37 100  57 101  70 100  82 101
M  END
> <Batch ID>
0187

> <Smiles>
CNC(C)C(=O)NC(C(=O)N1Cc2cc([101O:1][101CH2:1]C(O)C(C)Nc3nc([100NH:0][100C:0](=O)N4CCCC(n5nc(-c6ccc(Oc7ccc(F)cc7F)cc6)c(C(N)=O)c5N)C4)c(F)cc3C)ccc2CC1C(=O)NC1CCCc2ccccc21)C(C)(C)C

> <Shape>
0.282

> <Color>
0.086

> <Negative vol penalty>
0.000

$$$$

  -OEChem-04052305123D

 86 94  0     1  0  0  0  0  0999 V2000
  -16.9571  -29.9603   24.3316 C   0  0  0  0  0  0  0  0  0  0  0  0
  -18.1833  -30.3997   24.8204 C   0  0  0  0  0  0  0  0  0  0  0  0
  -27.3069  -15.1153   17.1112 C   0  0  0  0  0  0  0  0  0  0  0  0
  -29.0547  -15.8667   15.6221 C   0  0  0  0  0  0  0  0  0  0  0  0
  -16.9109  -28.9328   23.3903 C   0  0  0  0  0  0  0  0  0  0  0  0
  -19.3640  -29.8109   24.3690 C   0  0  0  0  0  0  0  0  0  0  0  0
  -24.7637  -32.5724   23.5187 C   0  0  0  0  0  0  0  0  0  0  0  0
  -26.7566  -14.3531   16.0808 C   0  0  0  0  0  0  0  0  0  0  0  0
  -28.5045  -15.1044   14.5916 C   0  0  0  0  0  0  0  0  0  0  0  0
  -25.9129  -32.6474   24.3045 C   0  0  0  0  0  0  0  0  0  0  0  0
  -28.4704  -11.8622   13.6389 C   0  0  0  0  0  0  0  0  0  0  0  0
  -29.3426  -11.1004   12.8615 C   0  0  0  0  0  0  0  0  0  0  0  0
  -26.8670  -30.8047   23.0744 C   0  0  0  0  0  0  0  0  0  0  0  0
  -30.1606  -26.8640   24.0388 C   0  0  0  0  0  0  0  0  0  0  0  0
  -28.6420  -12.3094   10.8905 C   0  0  0  0  0  0  0  0  0  0  0  0
  -28.4559  -15.8722   16.8818 C   0  0  0  0  0  0  0  0  0  0  0  0
  -29.9957  -16.2529   18.8798 C   0  0  0  0  0  0  0  0  0  0  0  0
  -18.0921  -28.3378   22.9199 C   0  0  0  0  0  0  0  0  0  0  0  0
  -24.6529  -31.6043   22.5103 C   0  0  0  0  0  0  0  0  0  0  0  0
  -19.3335  -28.7736   23.4215 C   0  0  0  0  0  0  0  0  0  0  0  0
  -25.7164  -30.7211   22.2755 C   0  0  0  0  0  0  0  0  0  0  0  0
  -30.6300  -25.6432   23.4734 C   0  0  0  0  0  0  0  0  0  0  0  0
  -27.3554  -14.3476   14.8210 C   0  0  0  0  0  0  0  0  0  0  0  0
  -26.9636  -31.7616   24.0843 C   0  0  0  0  0  0  0  0  0  0  0  0
  -27.6839  -12.8476   13.0421 C   0  0  0  0  0  0  0  0  0  0  0  0
  -29.4285  -11.3240   11.4873 C   0  0  0  0  0  0  0  0  0  0  0  0
  -27.7697  -13.0712   11.6680 C   0  0  0  0  0  0  0  0  0  0  0  0
  -29.0244  -16.6603   17.9457 C   0  0  0  0  0  0  0  0  0  0  0  0
  -31.1911  -25.8311   22.2295 C   0  0  0  0  0  0  0  0  0  0  0  0
  -30.1959  -17.3576   19.6709 C   0  0  0  0  0  0  0  0  0  0  0  0
  -30.3812  -27.9386   23.2054 C   0  0  0  0  0  0  0  0  0  0  0  0
  -30.6577  -14.9888   19.0198 C   0  0  0  0  0  0  0  0  0  0  0  0
  -22.7043  -29.1547   21.9569 C   0  0  0  0  0  0  0  0  0  0  0  0
  -24.3311  -28.9975   19.1549 C   0  0  0  0  0  0  0  0  0  0  0  0
  -27.1851  -29.6954   17.4187 C   0  0  0  0  0  0  0  0  0  0  0  0
  -29.4621  -29.9232   24.4505 C   0  0  0  0  0  0  0  0  0  0  0  0
  -31.0705  -22.7337   20.2003 C   0  0  0  0  0  0  0  0  0  0  0  0
  -17.9895  -27.1982   21.9374 C   0  0  0  0  0  0  0  0  0  0  0  0
  -23.4175  -31.5538   21.6538 C   0  0  0  0  0  0  0  0  0  0  0  0
  -25.6554  -29.6766   21.1921 C   0  0  0  0  0  0  0  0  0  0  0  0
  -19.3056  -26.8822   21.2314 C   0  0  0  0  0  0  0  0  0  0  0  0
  -27.6104  -21.6941   19.9894 C   0  0  0  0  0  0  0  0  0  0  0  0
  -20.4508  -26.8255   22.2374 C   0  0  0  0  0  0  0  0  0  0  0  0
  -27.7558  -20.2479   19.5126 C   0  0  0  0  0  0  0  0  0  0  0  0
  -28.6548  -22.5977   19.3407 C   0  0  0  0  0  0  0  0  0  0  0  0
  -30.2107  -20.7069   19.0622 C   0  0  0  0  0  0  0  0  0  0  0  0
  -20.6373  -28.1768   22.9378 C   0  0  1  0  0  0  0  0  0  0  0  0
  -23.2029  -30.1950   20.9941 C   0  0  1  0  0  0  0  0  0  0  0  0
  -29.1974  -19.7386   19.6992 C   0  0  2  0  0  0  0  0  0  0  0  0
  -30.5214  -24.3308   24.1539 C   0  0  0  0  0  0  0  0  0  0  0  0
  -31.5897  -33.0155   27.0348 C   0  0  0  0  0  0  0  0  0  0  0  0
  -28.2344  -29.4105   15.1570 C   0  0  0  0  0  0  0  0  0  0  0  0
  -31.8094  -31.9494   24.2002 C   0  0  0  0  0  0  0  0  0  0  0  0
  -24.8762  -26.0613   19.7804 C   0  0  0  0  0  0  0  0  0  0  0  0
  -26.6692  -26.0941   18.0333 C   0  0  0  0  0  0  0  0  0  0  0  0
  -24.2979  -26.5293   17.3928 C   0  0  0  0  0  0  0  0  0  0  0  0
  -27.4017  -32.6203   17.0224 C   0  0  0  0  0  0  0  0  0  0  0  0
  -31.7893  -24.8288   21.3188 C   0  0  0  0  0  0  0  0  0  0  0  0
  -30.5252  -32.1343   26.3939 C   0  0  0  0  0  0  0  0  0  0  0  0
  -25.5770  -28.2894   18.6803 C   0  0  1  0  0  0  0  0  0  0  0  0
  -27.4058  -30.3187   16.0522 C   0  0  2  0  0  0  0  0  0  0  0  0
  -29.3135  -31.4315   24.2425 C   0  0  2  0  0  0  0  0  0  1  0  0
  -30.4622  -32.2652   24.8557 C   0  0  2  0  0  0  0  0  0  0  0  0
  -25.3558  -26.7618   18.4935 C   0  0  0  0  0  0  0  0  0  0  0  0
  -28.6346  -17.9251   18.1255 N   0  0  0  0  0  0  0  0  0  0  0  0
  -29.3646  -18.3219   19.1818 N   0  0  0  0  0  0  0  0  0  0  0  0
  -24.4239  -29.6631   20.3854 N   0  0  0  0  0  0  0  0  0  0  0  0
  -30.0060  -22.0671   19.5711 N   0  0  0  0  0  0  0  0  0  0  0  0
  -31.0002  -17.5886   20.7303 N   0  0  0  0  0  0  0  0  0  0  0  0
  -30.3337  -13.9619   18.1227 N   0  0  0  0  0  0  0  0  0  0  0  0
  -30.0792  -29.3118   23.3658 N   0  0  0  0  0  0  0  0  0  0  0  0
  -21.3279  -29.1055   22.0688 N   0  0  0  0  0  0  0  0  0  0  0  0
  -26.0053  -28.9835   17.4707 N   0  0  0  0  0  0  0  0  0  0  0  0
  -30.7961  -24.0204   20.6471 N   0  0  0  0  0  0  0  0  0  0  0  0
  -28.1162  -31.6219   16.1860 N   0  3  0  0  0  0  0  0  0  0  0  0
  -31.4992  -14.7711   19.9242 O   0  0  0  0  0  0  0  0  0  0  0  0
  -23.5086  -28.4480   22.5529 O   0  0  0  0  0  0  0  0  0  0  0  0
  -23.3151  -28.9674   18.4560 O   0  0  0  0  0  0  0  0  0  0  0  0
  -27.9814  -29.8239   18.3459 O   0  0  0  0  0  0  0  0  0  0  0  0
  -29.0465  -29.3798   25.4706 O   0  0  0  0  0  0  0  0  0  0  0  0
  -32.1825  -22.2180   20.3572 O   0  0  0  0  0  0  0  0  0  0  0  0
  -26.8189  -13.6037   13.8154 O   0  0  0  0  0  0  0  0  0  0  0  0
  -28.0862  -31.8322   24.8503 O   0  0  0  0  0  0  0  0  0  1  0  0
  -30.2673  -10.5934   10.7412 F   0  0  0  0  0  0  0  0  0  0  0  0
  -27.0175  -14.0173   11.0892 F   0  0  0  0  0  0  0  0  0  0  0  0
  -31.1508  -27.4740   21.7480 S   0  0  0  0  0  0  0  0  0  0  0  0
  1  2  1  0  0  0  0
  1  5  2  0  0  0  0
  2  6  2  0  0  0  0
  3  8  2  0  0  0  0
  3 16  1  0  0  0  0
  4  9  1  0  0  0  0
  4 16  2  0  0  0  0
  5 18  1  0  0  0  0
  6 20  1  0  0  0  0
  7 10  2  0  0  0  0
  7 19  1  0  0  0  0
  8 23  1  0  0  0  0
  9 23  2  0  0  0  0
 10 24  1  0  0  0  0
 11 12  2  0  0  0  0
 11 25  1  0  0  0  0
 12 26  1  0  0  0  0
 13 21  1  0  0  0  0
 13 24  2  0  0  0  0
 14 22  1  0  0  0  0
 14 31  2  0  0  0  0
 15 26  2  0  0  0  0
 15 27  1  0  0  0  0
 16 28  1  0  0  0  0
 17 28  1  0  0  0  0
 17 30  2  0  0  0  0
 17 32  1  0  0  0  0
 18 20  2  0  0  0  0
 18 38  1  0  0  0  0
 19 21  2  0  0  0  0
 19 39  1  0  0  0  0
 20 47  1  0  0  0  0
 21 40  1  0  0  0  0
 22 29  2  0  0  0  0
 22 50  1  0  0  0  0
 23 82  1  0  0  0  0
 24 83  1  0  0  0  0
 25 27  2  0  0  0  0
 25 82  1  0  0  0  0
 26 84  1  0  0  0  0
 27 85  1  0  0  0  0
 28 65  2  0  0  0  0
 29 58  1  0  0  0  0
 29 86  1  0  0  0  0
 30 66  1  0  0  0  0
 30 69  1  0  0  0  0
 31 71  1  0  0  0  0
 31 86  1  0  0  0  0
 32 70  1  0  0  0  0
 32 76  2  0  0  0  0
 33 48  1  0  0  0  0
 33 72  1  0  0  0  0
 33 77  2  0  0  0  0
 34 60  1  0  0  0  0
 34 67  1  0  0  0  0
 34 78  2  0  0  0  0
 35 61  1  0  0  0  0
 35 73  1  0  0  0  0
 35 79  2  0  0  0  0
 36 62  1  0  0  0  0
 36 71  1  0  0  0  0
 36 80  2  0  0  0  0
 37 68  1  0  0  0  0
 37 74  1  0  0  0  0
 37 81  2  0  0  0  0
 38 41  1  0  0  0  0
 39 48  1  0  0  0  0
 40 67  1  0  0  0  0
 41 43  1  0  0  0  0
 42 44  1  0  0  0  0
 42 45  1  0  0  0  0
 43 47  1  0  0  0  0
 44 49  1  0  0  0  0
 45 68  1  0  0  0  0
 46 49  1  0  0  0  0
 46 68  1  0  0  0  0
 47 72  1  0  0  0  0
 48 67  1  0  0  0  0
 49 66  1  0  0  0  0
 51 59  1  0  0  0  0
 52 61  1  0  0  0  0
 53 63  1  0  0  0  0
 54 64  1  0  0  0  0
 55 64  1  0  0  0  0
 56 64  1  0  0  0  0
 57 75  1  0  0  0  0
 58 74  1  0  0  0  0
 59 63  1  0  0  0  0
 60 64  1  0  0  0  0
 60 73  1  0  0  0  0
 61 75  1  0  0  0  0
 62 63  1  0  0  0  0
 62 83  1  0  0  0  0
 65 66  1  0  0  0  0
M  CHG  1  75   1
M  ISO  4  37 100  62 101  74 100  83 101
M  END
> <Batch ID>
0187

> <Smiles>
CCC(C)[101CH:1](C(=O)Nc1cc(C)c(C[100NH:0][100C:0](=O)N2CCCC(n3nc(-c4ccc(Oc5ccc(F)cc5F)cc4)c(C(N)=O)c3N)C2)s1)[101O:1]c1ccc2c(c1)CN(C(=O)C(NC(=O)C(C)NC)C(C)(C)C)C(C(=O)NC1CCCc3ccccc31)C2

> <Shape>
0.244

> <Color>
0.093

> <Negative vol penalty>
0.000

$$$$

  -OEChem-04052305123D

 82 90  0     1  0  0  0  0  0999 V2000
  -28.2858  -29.1852   27.7901 C   0  0  0  0  0  0  0  0  0  0  0  0
  -28.0634  -28.3795   26.6781 C   0  0  0  0  0  0  0  0  0  0  0  0
  -22.7790  -11.3172   19.1430 C   0  0  0  0  0  0  0  0  0  0  0  0
  -23.4135   -9.8240   20.9332 C   0  0  0  0  0  0  0  0  0  0  0  0
  -27.3007  -30.0775   28.2113 C   0  0  0  0  0  0  0  0  0  0  0  0
  -26.8551  -28.4647   25.9871 C   0  0  0  0  0  0  0  0  0  0  0  0
  -27.4929  -28.5739   20.9646 C   0  0  0  0  0  0  0  0  0  0  0  0
  -21.8120  -10.4036   18.7237 C   0  0  0  0  0  0  0  0  0  0  0  0
  -22.4465   -8.9104   20.5139 C   0  0  0  0  0  0  0  0  0  0  0  0
  -27.7618  -27.3618   20.3304 C   0  0  0  0  0  0  0  0  0  0  0  0
  -19.0992   -8.5301   20.7816 C   0  0  0  0  0  0  0  0  0  0  0  0
  -18.2934   -7.9470   21.7595 C   0  0  0  0  0  0  0  0  0  0  0  0
  -25.4492  -27.2056   19.6618 C   0  0  0  0  0  0  0  0  0  0  0  0
  -19.0932   -5.7603   21.1148 C   0  0  0  0  0  0  0  0  0  0  0  0
  -27.5913  -19.1731   19.9636 C   0  0  0  0  0  0  0  0  0  0  0  0
  -23.5798  -11.0274   20.2478 C   0  0  0  0  0  0  0  0  0  0  0  0
  -24.4161  -13.0151   21.6106 C   0  0  0  0  0  0  0  0  0  0  0  0
  -26.0836  -30.1806   27.5194 C   0  0  0  0  0  0  0  0  0  0  0  0
  -26.1957  -29.1065   20.9615 C   0  0  0  0  0  0  0  0  0  0  0  0
  -25.8523  -29.3582   26.4003 C   0  0  0  0  0  0  0  0  0  0  0  0
  -25.1671  -28.4259   20.2945 C   0  0  0  0  0  0  0  0  0  0  0  0
  -21.6457   -9.2002   19.4091 C   0  0  0  0  0  0  0  0  0  0  0  0
  -26.7392  -26.6760   19.6813 C   0  0  0  0  0  0  0  0  0  0  0  0
  -19.9020   -7.7282   19.9702 C   0  0  0  0  0  0  0  0  0  0  0  0
  -18.2903   -6.5622   21.9261 C   0  0  0  0  0  0  0  0  0  0  0  0
  -19.8990   -6.3433   20.1368 C   0  0  0  0  0  0  0  0  0  0  0  0
  -24.5793  -11.9705   20.6811 C   0  0  0  0  0  0  0  0  0  0  0  0
  -28.7041  -19.0568   19.1572 C   0  0  0  0  0  0  0  0  0  0  0  0
  -25.6504  -13.6142   21.6740 C   0  0  0  0  0  0  0  0  0  0  0  0
  -27.7139  -21.2498   19.2692 C   0  0  0  0  0  0  0  0  0  0  0  0
  -29.5451  -17.8831   18.8626 C   0  0  0  0  0  0  0  0  0  0  0  0
  -23.2528  -13.4087   22.3506 C   0  0  0  0  0  0  0  0  0  0  0  0
  -24.0573  -29.8171   23.2034 C   0  0  0  0  0  0  0  0  0  0  0  0
  -22.4127  -31.0494   20.6935 C   0  0  0  0  0  0  0  0  0  0  0  0
  -21.8396  -31.0591   17.3293 C   0  0  0  0  0  0  0  0  0  0  0  0
  -30.1358  -15.6691   19.0643 C   0  0  0  0  0  0  0  0  0  0  0  0
  -25.0302  -31.1259   28.0405 C   0  0  0  0  0  0  0  0  0  0  0  0
  -25.9277  -30.4283   21.6273 C   0  0  0  0  0  0  0  0  0  0  0  0
  -23.7616  -28.9650   20.2448 C   0  0  0  0  0  0  0  0  0  0  0  0
  -23.9251  -31.4231   27.0302 C   0  0  0  0  0  0  0  0  0  0  0  0
  -30.1315  -12.1515   19.8588 C   0  0  0  0  0  0  0  0  0  0  0  0
  -23.4346  -30.1330   26.3806 C   0  0  0  0  0  0  0  0  0  0  0  0
  -28.6647  -11.8713   20.1856 C   0  0  0  0  0  0  0  0  0  0  0  0
  -30.2697  -13.1971   18.7564 C   0  0  0  0  0  0  0  0  0  0  0  0
  -28.0893  -14.2023   19.3761 C   0  0  0  0  0  0  0  0  0  0  0  0
  -24.5644  -29.4394   25.6098 C   0  0  1  0  0  0  0  0  0  0  0  0
  -24.4615  -30.6227   22.0011 C   0  0  1  0  0  0  0  0  0  0  0  0
  -27.9112  -13.1744   20.5066 C   0  0  1  0  0  0  0  0  0  0  0  0
  -20.4094  -32.1472   15.5777 C   0  0  0  0  0  0  0  0  0  0  0  0
  -26.6784  -23.5258   21.2062 C   0  0  0  0  0  0  0  0  0  0  0  0
  -25.5630  -24.3083   17.5413 C   0  0  0  0  0  0  0  0  0  0  0  0
  -20.0461  -29.3298   21.5612 C   0  0  0  0  0  0  0  0  0  0  0  0
  -19.0291  -29.7149   19.3060 C   0  0  0  0  0  0  0  0  0  0  0  0
  -19.4420  -31.6445   20.8320 C   0  0  0  0  0  0  0  0  0  0  0  0
  -24.1971  -32.1814   15.9359 C   0  0  0  0  0  0  0  0  0  0  0  0
  -21.4030  -30.5107   19.7090 C   0  0  1  0  0  0  0  0  0  0  0  0
  -21.7306  -32.1960   16.3293 C   0  0  2  0  0  0  0  0  0  0  0  0
  -26.3068  -23.2534   19.7503 C   0  0  1  0  0  0  0  0  0  0  0  0
  -25.9342  -24.5440   19.0013 C   0  0  1  0  0  0  0  0  0  1  0  0
  -20.0060  -30.2886   20.3545 C   0  0  0  0  0  0  0  0  0  0  0  0
  -27.0224  -20.4300   20.0294 N   0  0  0  0  0  0  0  0  0  0  0  0
  -25.8194  -11.9070   20.1892 N   0  0  0  0  0  0  0  0  0  0  0  0
  -29.3042  -16.7251   19.3845 N   0  0  0  0  0  0  0  0  0  0  0  0
  -26.4467  -12.9193   20.8119 N   0  0  0  0  0  0  0  0  0  0  0  0
  -23.5484  -30.2579   20.9160 N   0  0  0  0  0  0  0  0  0  0  0  0
  -29.5136  -14.4073   19.0815 N   0  0  0  0  0  0  0  0  0  0  0  0
  -26.1214  -14.6624   22.3824 N   0  0  0  0  0  0  0  0  0  0  0  0
  -22.0670  -12.6847   22.1660 N   0  0  0  0  0  0  0  0  0  0  0  0
  -27.4211  -22.5907   19.1021 N   0  0  0  0  0  0  0  0  0  0  0  0
  -24.7894  -30.0983   24.3411 N   0  0  0  0  0  0  0  0  0  0  0  0
  -21.3996  -31.4355   18.5806 N   0  0  0  0  0  0  0  0  0  0  0  0
  -22.8393  -32.1206   15.3363 N   0  3  0  0  0  0  0  0  0  0  0  0
  -23.2603  -14.3839   23.1395 O   0  0  0  0  0  0  0  0  0  0  0  0
  -23.1475  -29.0019   23.1063 O   0  0  0  0  0  0  0  0  0  0  0  0
  -22.2049  -32.1358   21.2395 O   0  0  0  0  0  0  0  0  0  0  0  0
  -22.2685  -29.9470   17.0293 O   0  0  0  0  0  0  0  0  0  0  0  0
  -31.3286  -15.7959   18.7773 O   0  0  0  0  0  0  0  0  0  0  0  0
  -20.7021   -8.3086   19.0003 O   0  0  0  0  0  0  0  0  0  0  0  0
  -26.9988  -25.4923   19.0621 O   0  0  0  0  0  0  0  0  0  1  0  0
  -17.5176   -6.0026   22.8662 F   0  0  0  0  0  0  0  0  0  0  0  0
  -20.6690   -5.5679   19.3612 F   0  0  0  0  0  0  0  0  0  0  0  0
  -29.0604  -20.5761   18.4459 S   0  0  0  0  0  0  0  0  0  0  0  0
  1  2  1  0  0  0  0
  1  5  2  0  0  0  0
  2  6  2  0  0  0  0
  3  8  2  0  0  0  0
  3 16  1  0  0  0  0
  4  9  1  0  0  0  0
  4 16  2  0  0  0  0
  5 18  1  0  0  0  0
  6 20  1  0  0  0  0
  7 10  2  0  0  0  0
  7 19  1  0  0  0  0
  8 22  1  0  0  0  0
  9 22  2  0  0  0  0
 10 23  1  0  0  0  0
 11 12  2  0  0  0  0
 11 24  1  0  0  0  0
 12 25  1  0  0  0  0
 13 21  1  0  0  0  0
 13 23  2  0  0  0  0
 14 25  2  0  0  0  0
 14 26  1  0  0  0  0
 15 28  2  0  0  0  0
 15 61  1  0  0  0  0
 16 27  1  0  0  0  0
 17 27  1  0  0  0  0
 17 29  2  0  0  0  0
 17 32  1  0  0  0  0
 18 20  2  0  0  0  0
 18 37  1  0  0  0  0
 19 21  2  0  0  0  0
 19 38  1  0  0  0  0
 20 46  1  0  0  0  0
 21 39  1  0  0  0  0
 22 78  1  0  0  0  0
 23 79  1  0  0  0  0
 24 26  2  0  0  0  0
 24 78  1  0  0  0  0
 25 80  1  0  0  0  0
 26 81  1  0  0  0  0
 27 62  2  0  0  0  0
 28 31  1  0  0  0  0
 28 82  1  0  0  0  0
 29 64  1  0  0  0  0
 29 67  1  0  0  0  0
 30 61  2  0  0  0  0
 30 69  1  0  0  0  0
 30 82  1  0  0  0  0
 31 63  2  0  0  0  0
 32 68  1  0  0  0  0
 32 73  2  0  0  0  0
 33 47  1  0  0  0  0
 33 70  1  0  0  0  0
 33 74  2  0  0  0  0
 34 56  1  0  0  0  0
 34 65  1  0  0  0  0
 34 75  2  0  0  0  0
 35 57  1  0  0  0  0
 35 71  1  0  0  0  0
 35 76  2  0  0  0  0
 36 63  1  0  0  0  0
 36 66  1  0  0  0  0
 36 77  2  0  0  0  0
 37 40  1  0  0  0  0
 38 47  1  0  0  0  0
 39 65  1  0  0  0  0
 40 42  1  0  0  0  0
 41 43  1  0  0  0  0
 41 44  1  0  0  0  0
 42 46  1  0  0  0  0
 43 48  1  0  0  0  0
 44 66  1  0  0  0  0
 45 48  1  0  0  0  0
 45 66  1  0  0  0  0
 46 70  1  0  0  0  0
 47 65  1  0  0  0  0
 48 64  1  0  0  0  0
 49 57  1  0  0  0  0
 50 58  1  0  0  0  0
 51 59  1  0  0  0  0
 52 60  1  0  0  0  0
 53 60  1  0  0  0  0
 54 60  1  0  0  0  0
 55 72  1  0  0  0  0
 56 60  1  0  0  0  0
 56 71  1  0  0  0  0
 57 72  1  0  0  0  0
 58 59  1  0  0  0  0
 58 69  1  0  0  0  0
 59 79  1  0  0  0  0
 62 64  1  0  0  0  0
M  CHG  1  72   1
M  ISO  4  36 100  59 101  63 100  79 101
M  END
> <Batch ID>
0187

> <Smiles>
CNC(C)C(=O)NC(C(=O)N1Cc2cc([101O:1][101CH:1](C)C(C)Nc3ncc(C=[100N:0][100C:0](=O)N4CCCC(n5nc(-c6ccc(Oc7ccc(F)cc7F)cc6)c(C(N)=O)c5N)C4)s3)ccc2CC1C(=O)NC1CCCc2ccccc21)C(C)(C)C

> <Shape>
0.245

> <Color>
0.120

> <Negative vol penalty>
0.000

$$$$

  -OEChem-04052305123D

 81 89  0     1  0  0  0  0  0999 V2000
  -21.4701  -19.6193   27.0403 C   0  0  0  0  0  0  0  0  0  0  0  0
  -22.7808  -19.9512   26.7125 C   0  0  0  0  0  0  0  0  0  0  0  0
  -26.7784  -12.8323   21.0821 C   0  0  0  0  0  0  0  0  0  0  0  0
  -26.7847  -13.1184   18.6831 C   0  0  0  0  0  0  0  0  0  0  0  0
  -20.4191  -20.0590   26.2366 C   0  0  0  0  0  0  0  0  0  0  0  0
  -23.0413  -20.7220   25.5801 C   0  0  0  0  0  0  0  0  0  0  0  0
  -27.5945  -25.6787   23.1272 C   0  0  0  0  0  0  0  0  0  0  0  0
  -26.2288  -11.5595   20.9288 C   0  0  0  0  0  0  0  0  0  0  0  0
  -26.2352  -11.8455   18.5298 C   0  0  0  0  0  0  0  0  0  0  0  0
  -28.4284  -25.9306   22.0386 C   0  0  0  0  0  0  0  0  0  0  0  0
  -24.4899   -8.3760   21.1842 C   0  0  0  0  0  0  0  0  0  0  0  0
  -23.4302   -8.0207   22.0187 C   0  0  0  0  0  0  0  0  0  0  0  0
  -26.5277  -26.7007   20.7685 C   0  0  0  0  0  0  0  0  0  0  0  0
  -22.1275   -9.8594   21.1471 C   0  0  0  0  0  0  0  0  0  0  0  0
  -31.1718  -23.6443   17.0195 C   0  0  0  0  0  0  0  0  0  0  0  0
  -27.0563  -13.6118   19.9592 C   0  0  0  0  0  0  0  0  0  0  0  0
  -28.9896  -15.2640   20.1604 C   0  0  0  0  0  0  0  0  0  0  0  0
  -20.6662  -20.8438   25.0991 C   0  0  0  0  0  0  0  0  0  0  0  0
  -26.2169  -25.9261   23.0407 C   0  0  0  0  0  0  0  0  0  0  0  0
  -21.9927  -21.1715   24.7597 C   0  0  0  0  0  0  0  0  0  0  0  0
  -25.6788  -26.4536   21.8582 C   0  0  0  0  0  0  0  0  0  0  0  0
  -25.9573  -11.0661   19.6527 C   0  0  0  0  0  0  0  0  0  0  0  0
  -27.8946  -26.4389   20.8581 C   0  0  0  0  0  0  0  0  0  0  0  0
  -24.3685   -9.4730   20.3312 C   0  0  0  0  0  0  0  0  0  0  0  0
  -22.2490   -8.7624   22.0001 C   0  0  0  0  0  0  0  0  0  0  0  0
  -23.1873  -10.2147   20.3127 C   0  0  0  0  0  0  0  0  0  0  0  0
  -27.6234  -14.9270   20.1168 C   0  0  0  0  0  0  0  0  0  0  0  0
  -30.1735  -24.4774   17.4792 C   0  0  0  0  0  0  0  0  0  0  0  0
  -29.0018  -16.6278   20.3222 C   0  0  0  0  0  0  0  0  0  0  0  0
  -29.2494  -22.5509   17.9741 C   0  0  0  0  0  0  0  0  0  0  0  0
  -30.1443  -14.4197   20.0632 C   0  0  0  0  0  0  0  0  0  0  0  0
  -23.5989  -24.1351   23.2463 C   0  0  0  0  0  0  0  0  0  0  0  0
  -22.0943  -27.0036   23.0735 C   0  0  0  0  0  0  0  0  0  0  0  0
  -22.1918  -30.2721   22.0967 C   0  0  0  0  0  0  0  0  0  0  0  0
  -27.1202  -21.7042   19.0211 C   0  0  0  0  0  0  0  0  0  0  0  0
  -19.5011  -21.2560   24.2346 C   0  0  0  0  0  0  0  0  0  0  0  0
  -25.3350  -25.6742   24.2328 C   0  0  0  0  0  0  0  0  0  0  0  0
  -24.2097  -26.7556   21.7210 C   0  0  0  0  0  0  0  0  0  0  0  0
  -19.8342  -22.3835   23.2608 C   0  0  0  0  0  0  0  0  0  0  0  0
  -25.2539  -19.8485   21.4190 C   0  0  0  0  0  0  0  0  0  0  0  0
  -21.1553  -22.1034   22.5515 C   0  0  0  0  0  0  0  0  0  0  0  0
  -25.8164  -18.4303   21.2976 C   0  0  0  0  0  0  0  0  0  0  0  0
  -25.1829  -20.5484   20.0630 C   0  0  0  0  0  0  0  0  0  0  0  0
  -27.0016  -19.1399   19.1813 C   0  0  0  0  0  0  0  0  0  0  0  0
  -22.3138  -22.0267   23.5532 C   0  0  1  0  0  0  0  0  0  0  0  0
  -23.8684  -25.4796   23.8606 C   0  0  1  0  0  0  0  0  0  0  0  0
  -27.1530  -18.4180   20.5302 C   0  0  2  0  0  0  0  0  0  0  0  0
  -20.7977  -32.3583   22.0559 C   0  0  0  0  0  0  0  0  0  0  0  0
  -32.3423  -26.4004   18.7966 C   0  0  0  0  0  0  0  0  0  0  0  0
  -20.4755  -25.8734   20.7471 C   0  0  0  0  0  0  0  0  0  0  0  0
  -19.8220  -28.2165   20.1546 C   0  0  0  0  0  0  0  0  0  0  0  0
  -19.1576  -27.2580   22.3597 C   0  0  0  0  0  0  0  0  0  0  0  0
  -24.1330  -31.7414   23.7796 C   0  0  0  0  0  0  0  0  0  0  0  0
  -30.0948  -26.3993   19.9563 C   0  0  0  0  0  0  0  0  0  1  0  0
  -30.1924  -25.9909   17.4310 C   0  0  1  0  0  0  0  0  0  0  0  0
  -21.5760  -27.8732   21.9536 C   0  0  1  0  0  0  0  0  0  0  0  0
  -21.8315  -31.5530   22.8275 C   0  0  2  0  0  0  0  0  0  0  0  0
  -30.8426  -26.6932   18.6493 C   0  0  2  0  0  0  0  0  0  0  0  0
  -20.2852  -27.2979   21.3054 C   0  0  0  0  0  0  0  0  0  0  0  0
  -26.8257  -15.9910   20.2411 N   0  0  0  0  0  0  0  0  0  0  0  0
  -29.0701  -23.8522   18.0266 N   0  0  0  0  0  0  0  0  0  0  0  0
  -27.6932  -17.0099   20.3644 N   0  0  0  0  0  0  0  0  0  0  0  0
  -23.3875  -26.4864   22.9123 N   0  0  0  0  0  0  0  0  0  0  0  0
  -26.4858  -20.5010   19.3960 N   0  0  0  0  0  0  0  0  0  0  0  0
  -30.0041  -17.5255   20.4312 N   0  0  0  0  0  0  0  0  0  0  0  0
  -29.9521  -13.0411   19.8991 N   0  0  0  0  0  0  0  0  0  0  0  0
  -28.3692  -21.5358   18.4242 N   0  0  0  0  0  0  0  0  0  0  0  0
  -22.7139  -23.3549   23.9657 N   0  0  0  0  0  0  0  0  0  0  0  0
  -21.4178  -29.2105   22.5150 N   0  0  0  0  0  0  0  0  0  0  0  0
  -23.0429  -32.4005   23.0153 N   0  3  0  0  0  0  0  0  0  0  0  0
  -31.3119  -14.8723   20.1367 O   0  0  0  0  0  0  0  0  0  0  0  0
  -24.1519  -23.8287   22.1965 O   0  0  0  0  0  0  0  0  0  0  0  0
  -21.3809  -26.7969   24.0583 O   0  0  0  0  0  0  0  0  0  0  0  0
  -23.0694  -30.2195   21.2379 O   0  0  0  0  0  0  0  0  0  0  0  0
  -26.6064  -22.8043   19.2398 O   0  0  0  0  0  0  0  0  0  0  0  0
  -30.8366  -26.4147   16.2263 O   0  0  0  0  0  0  0  0  0  0  0  0
  -25.4213   -9.8240   19.5028 O   0  0  0  0  0  0  0  0  0  0  0  0
  -28.7062  -26.6851   19.7938 O   0  0  0  0  0  0  0  0  0  1  0  0
  -21.2308   -8.4202   22.8004 F   0  0  0  0  0  0  0  0  0  0  0  0
  -23.0644  -11.2689   19.4945 F   0  0  0  0  0  0  0  0  0  0  0  0
  -30.7225  -22.0098   17.2797 S   0  0  0  0  0  0  0  0  0  0  0  0
  1  2  1  0  0  0  0
  1  5  2  0  0  0  0
  2  6  2  0  0  0  0
  3  8  2  0  0  0  0
  3 16  1  0  0  0  0
  4  9  1  0  0  0  0
  4 16  2  0  0  0  0
  5 18  1  0  0  0  0
  6 20  1  0  0  0  0
  7 10  2  0  0  0  0
  7 19  1  0  0  0  0
  8 22  1  0  0  0  0
  9 22  2  0  0  0  0
 10 23  1  0  0  0  0
 11 12  2  0  0  0  0
 11 24  1  0  0  0  0
 12 25  1  0  0  0  0
 13 21  1  0  0  0  0
 13 23  2  0  0  0  0
 14 25  2  0  0  0  0
 14 26  1  0  0  0  0
 15 28  2  0  0  0  0
 15 81  1  0  0  0  0
 16 27  1  0  0  0  0
 17 27  1  0  0  0  0
 17 29  2  0  0  0  0
 17 31  1  0  0  0  0
 18 20  2  0  0  0  0
 18 36  1  0  0  0  0
 19 21  2  0  0  0  0
 19 37  1  0  0  0  0
 20 45  1  0  0  0  0
 21 38  1  0  0  0  0
 22 77  1  0  0  0  0
 23 78  1  0  0  0  0
 24 26  2  0  0  0  0
 24 77  1  0  0  0  0
 25 79  1  0  0  0  0
 26 80  1  0  0  0  0
 27 60  2  0  0  0  0
 28 55  1  0  0  0  0
 28 61  1  0  0  0  0
 29 62  1  0  0  0  0
 29 65  1  0  0  0  0
 30 61  2  0  0  0  0
 30 67  1  0  0  0  0
 30 81  1  0  0  0  0
 31 66  1  0  0  0  0
 31 71  2  0  0  0  0
 32 46  1  0  0  0  0
 32 68  1  0  0  0  0
 32 72  2  0  0  0  0
 33 56  1  0  0  0  0
 33 63  1  0  0  0  0
 33 73  2  0  0  0  0
 34 57  1  0  0  0  0
 34 69  1  0  0  0  0
 34 74  2  0  0  0  0
 35 64  1  0  0  0  0
 35 67  1  0  0  0  0
 35 75  2  0  0  0  0
 36 39  1  0  0  0  0
 37 46  1  0  0  0  0
 38 63  1  0  0  0  0
 39 41  1  0  0  0  0
 40 42  1  0  0  0  0
 40 43  1  0  0  0  0
 41 45  1  0  0  0  0
 42 47  1  0  0  0  0
 43 64  1  0  0  0  0
 44 47  1  0  0  0  0
 44 64  1  0  0  0  0
 45 68  1  0  0  0  0
 46 63  1  0  0  0  0
 47 62  1  0  0  0  0
 48 57  1  0  0  0  0
 49 58  1  0  0  0  0
 50 59  1  0  0  0  0
 51 59  1  0  0  0  0
 52 59  1  0  0  0  0
 53 70  1  0  0  0  0
 54 58  1  0  0  0  0
 54 78  1  0  0  0  0
 55 58  1  0  0  0  0
 55 76  1  0  0  0  0
 56 59  1  0  0  0  0
 56 69  1  0  0  0  0
 57 70  1  0  0  0  0
 60 62  1  0  0  0  0
M  CHG  1  70   1
M  ISO  4  35 100  54 101  67 100  78 101
M  END
> <Batch ID>
0187

> <Smiles>
CNC(C)C(=O)NC(C(=O)N1Cc2cc([101O:1][101CH2:1]C(C)C(O)c3csc([100NH:0][100C:0](=O)N4CCCC(n5nc(-c6ccc(Oc7ccc(F)cc7F)cc6)c(C(N)=O)c5N)C4)n3)ccc2CC1C(=O)NC1CCCc2ccccc21)C(C)(C)C

> <Shape>
0.232

> <Color>
0.087

> <Negative vol penalty>
0.000

$$$$

  -OEChem-04052305123D

 86 94  0     1  0  0  0  0  0999 V2000
  -16.4967  -29.2600   22.9630 C   0  0  0  0  0  0  0  0  0  0  0  0
  -17.4741  -29.5746   22.0243 C   0  0  0  0  0  0  0  0  0  0  0  0
  -26.5133  -12.6558   20.7820 C   0  0  0  0  0  0  0  0  0  0  0  0
  -25.1231  -14.1027   19.4363 C   0  0  0  0  0  0  0  0  0  0  0  0
  -16.8660  -28.9004   24.2585 C   0  0  0  0  0  0  0  0  0  0  0  0
  -18.8215  -29.5309   22.3809 C   0  0  0  0  0  0  0  0  0  0  0  0
  -25.2761  -28.0618   19.6431 C   0  0  0  0  0  0  0  0  0  0  0  0
  -25.3734  -12.0312   21.2880 C   0  0  0  0  0  0  0  0  0  0  0  0
  -23.9832  -13.4780   19.9423 C   0  0  0  0  0  0  0  0  0  0  0  0
  -26.5470  -28.6219   19.5206 C   0  0  0  0  0  0  0  0  0  0  0  0
  -22.8414   -9.8137   22.6617 C   0  0  0  0  0  0  0  0  0  0  0  0
  -22.8426   -8.4206   22.7324 C   0  0  0  0  0  0  0  0  0  0  0  0
  -27.0705  -27.9102   21.7653 C   0  0  0  0  0  0  0  0  0  0  0  0
  -23.1540   -8.2995   20.3396 C   0  0  0  0  0  0  0  0  0  0  0  0
  -26.3881  -13.6916   19.8562 C   0  0  0  0  0  0  0  0  0  0  0  0
  -28.2963  -13.9739   18.1868 C   0  0  0  0  0  0  0  0  0  0  0  0
  -18.2190  -28.8428   24.6284 C   0  0  0  0  0  0  0  0  0  0  0  0
  -24.8884  -27.4302   20.8336 C   0  0  0  0  0  0  0  0  0  0  0  0
  -19.2092  -29.1714   23.6829 C   0  0  0  0  0  0  0  0  0  0  0  0
  -25.7950  -27.3406   21.8995 C   0  0  0  0  0  0  0  0  0  0  0  0
  -24.1083  -12.4422   20.8682 C   0  0  0  0  0  0  0  0  0  0  0  0
  -27.4434  -28.5487   20.5828 C   0  0  0  0  0  0  0  0  0  0  0  0
  -22.9964  -10.4496   21.4300 C   0  0  0  0  0  0  0  0  0  0  0  0
  -22.9990   -7.6635   21.5714 C   0  0  0  0  0  0  0  0  0  0  0  0
  -23.1528   -9.6925   20.2689 C   0  0  0  0  0  0  0  0  0  0  0  0
  -27.5652  -14.3377   19.3336 C   0  0  0  0  0  0  0  0  0  0  0  0
  -27.3151  -23.4825   17.2602 C   0  0  0  0  0  0  0  0  0  0  0  0
  -28.3948  -23.9766   17.9618 C   0  0  0  0  0  0  0  0  0  0  0  0
  -29.3143  -14.8937   18.1226 C   0  0  0  0  0  0  0  0  0  0  0  0
  -28.4857  -21.8932   18.6409 C   0  0  0  0  0  0  0  0  0  0  0  0
  -28.0749  -12.9006   17.2623 C   0  0  0  0  0  0  0  0  0  0  0  0
  -22.6258  -27.9369   23.0078 C   0  0  0  0  0  0  0  0  0  0  0  0
  -23.7089  -25.1305   24.2215 C   0  0  0  0  0  0  0  0  0  0  0  0
  -29.9013  -25.8998   18.5734 C   0  0  0  0  0  0  0  0  0  0  0  0
  -26.2706  -22.8937   24.5064 C   0  0  0  0  0  0  0  0  0  0  0  0
  -29.9058  -20.4776   20.1659 C   0  0  0  0  0  0  0  0  0  0  0  0
  -18.5676  -28.4946   26.0538 C   0  0  0  0  0  0  0  0  0  0  0  0
  -23.5234  -26.8076   20.9403 C   0  0  0  0  0  0  0  0  0  0  0  0
  -25.4348  -26.6555   23.1915 C   0  0  0  0  0  0  0  0  0  0  0  0
  -20.0321  -28.1091   26.2459 C   0  0  0  0  0  0  0  0  0  0  0  0
  -32.0058  -17.7019   20.9161 C   0  0  0  0  0  0  0  0  0  0  0  0
  -20.9438  -29.1046   25.5356 C   0  0  0  0  0  0  0  0  0  0  0  0
  -31.1744  -16.4914   20.4854 C   0  0  0  0  0  0  0  0  0  0  0  0
  -31.1357  -18.7999   21.5252 C   0  0  0  0  0  0  0  0  0  0  0  0
  -29.1701  -18.0149   20.2644 C   0  0  0  0  0  0  0  0  0  0  0  0
  -20.6822  -29.1114   24.0246 C   0  0  1  0  0  0  0  0  0  0  0  0
  -23.0542  -26.6398   22.3822 C   0  0  1  0  0  0  0  0  0  0  0  0
  -29.9949  -16.9093   19.5855 C   0  0  2  0  0  0  0  0  0  0  0  0
  -27.0895  -24.7258   15.0792 C   0  0  0  0  0  0  0  0  0  0  0  0
  -25.5743  -25.2889   17.0136 C   0  0  0  0  0  0  0  0  0  0  0  0
  -27.4513  -20.7755   25.1520 C   0  0  0  0  0  0  0  0  0  0  0  0
  -30.6283  -28.6686   21.8061 C   0  0  0  0  0  0  0  0  0  0  0  0
  -24.0431  -26.5602   26.8962 C   0  0  0  0  0  0  0  0  0  0  0  0
  -25.4944  -24.6641   27.6492 C   0  0  0  0  0  0  0  0  0  0  0  0
  -23.1067  -24.2470   27.0596 C   0  0  0  0  0  0  0  0  0  0  0  0
  -25.4354  -21.5319   22.0151 C   0  0  0  0  0  0  0  0  0  0  0  0
  -30.0339  -27.3728   18.2063 C   0  0  0  0  0  0  0  0  0  0  0  0
  -30.6276  -28.2362   19.3227 C   0  0  0  0  0  0  0  0  0  0  0  0
  -26.3855  -24.1616   16.3346 C   0  0  0  0  0  0  0  0  0  0  0  0
  -24.7704  -24.7362   25.2198 C   0  0  1  0  0  0  0  0  0  0  0  0
  -26.3121  -21.3844   24.3492 C   0  0  2  0  0  0  0  0  0  0  0  0
  -29.7979  -28.2149   20.6123 C   0  0  2  0  0  0  0  0  0  1  0  0
  -24.3601  -25.0666   26.6827 C   0  0  0  0  0  0  0  0  0  0  0  0
  -28.0755  -15.4052   19.9533 N   0  0  0  0  0  0  0  0  0  0  0  0
  -29.0670  -23.0667   18.7544 N   0  0  0  0  0  0  0  0  0  0  0  0
  -29.1382  -15.7200   19.1932 N   0  0  0  0  0  0  0  0  0  0  0  0
  -24.0862  -26.0678   23.2494 N   0  0  0  0  0  0  0  0  0  0  0  0
  -30.0419  -19.1471   20.6153 N   0  0  0  0  0  0  0  0  0  0  0  0
  -30.3341  -15.0680   17.2553 N   0  0  0  0  0  0  0  0  0  0  0  0
  -26.9826  -12.0489   17.4765 N   0  0  0  0  0  0  0  0  0  0  0  0
  -28.8251  -25.3236   17.9043 N   0  0  0  0  0  0  0  0  0  0  0  0
  -28.8493  -20.6813   19.2789 N   0  0  0  0  0  0  0  0  0  0  0  0
  -21.3008  -27.9621   23.3994 N   0  0  0  0  0  0  0  0  0  0  0  0
  -25.0501  -23.3242   24.9821 N   0  0  0  0  0  0  0  0  0  0  0  0
  -26.4982  -21.0177   22.9168 N   0  3  0  0  0  0  0  0  0  0  0  0
  -28.8331  -12.6927   16.2849 O   0  0  0  0  0  0  0  0  0  0  0  0
  -23.4376  -28.8470   23.1278 O   0  0  0  0  0  0  0  0  0  0  0  0
  -22.5884  -24.6201   24.2968 O   0  0  0  0  0  0  0  0  0  0  0  0
  -30.6817  -25.3468   19.3412 O   0  0  0  0  0  0  0  0  0  0  0  0
  -27.2266  -23.6179   24.2380 O   0  0  0  0  0  0  0  0  0  0  0  0
  -30.6867  -21.3649   20.5191 O   0  0  0  0  0  0  0  0  0  0  0  0
  -22.9958  -11.8328   21.3615 O   0  0  0  0  0  0  0  0  0  0  0  0
  -28.6842  -29.0951   20.4661 O   0  0  0  0  0  0  0  0  0  1  0  0
  -23.0016   -6.3258   21.6396 F   0  0  0  0  0  0  0  0  0  0  0  0
  -23.3033  -10.2979   19.0829 F   0  0  0  0  0  0  0  0  0  0  0  0
  -27.1257  -21.8117   17.5975 S   0  0  0  0  0  0  0  0  0  0  0  0
  1  2  1  0  0  0  0
  1  5  2  0  0  0  0
  2  6  2  0  0  0  0
  3  8  2  0  0  0  0
  3 15  1  0  0  0  0
  4  9  1  0  0  0  0
  4 15  2  0  0  0  0
  5 17  1  0  0  0  0
  6 19  1  0  0  0  0
  7 10  2  0  0  0  0
  7 18  1  0  0  0  0
  8 21  1  0  0  0  0
  9 21  2  0  0  0  0
 10 22  1  0  0  0  0
 11 12  2  0  0  0  0
 11 23  1  0  0  0  0
 12 24  1  0  0  0  0
 13 20  1  0  0  0  0
 13 22  2  0  0  0  0
 14 24  2  0  0  0  0
 14 25  1  0  0  0  0
 15 26  1  0  0  0  0
 16 26  1  0  0  0  0
 16 29  2  0  0  0  0
 16 31  1  0  0  0  0
 17 19  2  0  0  0  0
 17 37  1  0  0  0  0
 18 20  2  0  0  0  0
 18 38  1  0  0  0  0
 19 46  1  0  0  0  0
 20 39  1  0  0  0  0
 21 82  1  0  0  0  0
 22 83  1  0  0  0  0
 23 25  2  0  0  0  0
 23 82  1  0  0  0  0
 24 84  1  0  0  0  0
 25 85  1  0  0  0  0
 26 64  2  0  0  0  0
 27 28  2  0  0  0  0
 27 59  1  0  0  0  0
 27 86  1  0  0  0  0
 28 65  1  0  0  0  0
 28 71  1  0  0  0  0
 29 66  1  0  0  0  0
 29 69  1  0  0  0  0
 30 65  2  0  0  0  0
 30 72  1  0  0  0  0
 30 86  1  0  0  0  0
 31 70  1  0  0  0  0
 31 76  2  0  0  0  0
 32 47  1  0  0  0  0
 32 73  1  0  0  0  0
 32 77  2  0  0  0  0
 33 60  1  0  0  0  0
 33 67  1  0  0  0  0
 33 78  2  0  0  0  0
 34 57  1  0  0  0  0
 34 71  1  0  0  0  0
 34 79  2  0  0  0  0
 35 61  1  0  0  0  0
 35 74  1  0  0  0  0
 35 80  2  0  0  0  0
 36 68  1  0  0  0  0
 36 72  1  0  0  0  0
 36 81  2  0  0  0  0
 37 40  1  0  0  0  0
 38 47  1  0  0  0  0
 39 67  1  0  0  0  0
 40 42  1  0  0  0  0
 41 43  1  0  0  0  0
 41 44  1  0  0  0  0
 42 46  1  0  0  0  0
 43 48  1  0  0  0  0
 44 68  1  0  0  0  0
 45 48  1  0  0  0  0
 45 68  1  0  0  0  0
 46 73  1  0  0  0  0
 47 67  1  0  0  0  0
 48 66  1  0  0  0  0
 49 59  1  0  0  0  0
 50 59  1  0  0  0  0
 51 61  1  0  0  0  0
 52 62  1  0  0  0  0
 53 63  1  0  0  0  0
 54 63  1  0  0  0  0
 55 63  1  0  0  0  0
 56 75  1  0  0  0  0
 57 58  1  0  0  0  0
 58 62  1  0  0  0  0
 60 63  1  0  0  0  0
 60 74  1  0  0  0  0
 61 75  1  0  0  0  0
 62 83  1  0  0  0  0
 64 66  1  0  0  0  0
M  CHG  1  75   1
M  ISO  4  36 100  62 101  72 100  83 101
M  END
> <Batch ID>
0187

> <Smiles>
CNC(C)C(=O)NC(C(=O)N1Cc2cc([101O:1][101CH:1](C)CCC(=O)Nc3nc([100NH:0][100C:0](=O)N4CCCC(n5nc(-c6ccc(Oc7ccc(F)cc7F)cc6)c(C(N)=O)c5N)C4)sc3C(C)C)ccc2CC1C(=O)NC1CCCc2ccccc21)C(C)(C)C

> <Shape>
0.249

> <Color>
0.121

> <Negative vol penalty>
0.000

$$$$

  -OEChem-04052305123D

 84 92  0     1  0  0  0  0  0999 V2000
  -28.0785  -13.2640   17.9289 C   0  0  0  0  0  0  0  0  0  0  0  0
  -27.4942  -14.5259   17.8871 C   0  0  0  0  0  0  0  0  0  0  0  0
  -29.0896  -25.9861   21.2205 C   0  0  0  0  0  0  0  0  0  0  0  0
  -27.0994  -24.6178   21.1594 C   0  0  0  0  0  0  0  0  0  0  0  0
  -27.5498  -12.2795   18.7626 C   0  0  0  0  0  0  0  0  0  0  0  0
  -26.3800  -14.8035   18.6783 C   0  0  0  0  0  0  0  0  0  0  0  0
  -25.0057  -20.1351   21.3601 C   0  0  0  0  0  0  0  0  0  0  0  0
  -29.7825  -24.9503   21.8471 C   0  0  0  0  0  0  0  0  0  0  0  0
  -27.7923  -23.5820   21.7859 C   0  0  0  0  0  0  0  0  0  0  0  0
  -24.1480  -21.1732   20.9988 C   0  0  0  0  0  0  0  0  0  0  0  0
  -30.0084  -21.1845   20.9132 C   0  0  0  0  0  0  0  0  0  0  0  0
  -29.8491  -19.8972   20.4005 C   0  0  0  0  0  0  0  0  0  0  0  0
  -22.4268  -20.2315   22.4024 C   0  0  0  0  0  0  0  0  0  0  0  0
  -28.9764  -19.1576   22.5285 C   0  0  0  0  0  0  0  0  0  0  0  0
  -27.7480  -25.8199   20.8767 C   0  0  0  0  0  0  0  0  0  0  0  0
  -26.9154  -27.1202   18.8460 C   0  0  0  0  0  0  0  0  0  0  0  0
  -26.4345  -12.5482   19.5717 C   0  0  0  0  0  0  0  0  0  0  0  0
  -24.5760  -19.1297   22.2382 C   0  0  0  0  0  0  0  0  0  0  0  0
  -25.8351  -13.8213   19.5227 C   0  0  0  0  0  0  0  0  0  0  0  0
  -23.2818  -19.1832   22.7753 C   0  0  0  0  0  0  0  0  0  0  0  0
  -29.1339  -23.7482   22.1298 C   0  0  0  0  0  0  0  0  0  0  0  0
  -22.8574  -21.2199   21.5177 C   0  0  0  0  0  0  0  0  0  0  0  0
  -29.6517  -21.4584   22.2337 C   0  0  0  0  0  0  0  0  0  0  0  0
  -29.3331  -18.8837   21.2081 C   0  0  0  0  0  0  0  0  0  0  0  0
  -29.1357  -20.4449   23.0413 C   0  0  0  0  0  0  0  0  0  0  0  0
  -27.0316  -26.8897   20.2299 C   0  0  0  0  0  0  0  0  0  0  0  0
  -19.5282  -28.0554   22.6373 C   0  0  0  0  0  0  0  0  0  0  0  0
  -26.1405  -28.2501   18.7500 C   0  0  0  0  0  0  0  0  0  0  0  0
  -18.8346  -27.6759   23.7674 C   0  0  0  0  0  0  0  0  0  0  0  0
  -19.3590  -25.9099   22.2154 C   0  0  0  0  0  0  0  0  0  0  0  0
  -27.4593  -26.3791   17.7457 C   0  0  0  0  0  0  0  0  0  0  0  0
  -24.1876  -15.9820   22.0266 C   0  0  0  0  0  0  0  0  0  0  0  0
  -23.5621  -16.2380   25.1992 C   0  0  0  0  0  0  0  0  0  0  0  0
  -22.5387  -18.1939   27.8019 C   0  0  0  0  0  0  0  0  0  0  0  0
  -20.0458  -24.2905   20.4174 C   0  0  0  0  0  0  0  0  0  0  0  0
  -22.0784  -30.7294   22.3837 C   0  0  0  0  0  0  0  0  0  0  0  0
  -25.8697  -11.4376   20.4215 C   0  0  0  0  0  0  0  0  0  0  0  0
  -25.5222  -18.0314   22.6390 C   0  0  0  0  0  0  0  0  0  0  0  0
  -22.7788  -18.1394   23.7376 C   0  0  0  0  0  0  0  0  0  0  0  0
  -24.9155  -11.9271   21.5079 C   0  0  0  0  0  0  0  0  0  0  0  0
  -25.0436  -32.2518   21.1321 C   0  0  0  0  0  0  0  0  0  0  0  0
  -23.9209  -12.9302   20.9324 C   0  0  0  0  0  0  0  0  0  0  0  0
  -25.8789  -31.0710   20.6341 C   0  0  0  0  0  0  0  0  0  0  0  0
  -24.2628  -31.8977   22.3958 C   0  0  0  0  0  0  0  0  0  0  0  0
  -24.2587  -29.5090   21.7890 C   0  0  0  0  0  0  0  0  0  0  0  0
  -24.6406  -14.1684   20.3845 C   0  0  1  0  0  0  0  0  0  0  0  0
  -24.8074  -16.7797   23.1389 C   0  0  1  0  0  0  0  0  0  0  0  0
  -25.0206  -29.8005   20.4848 C   0  0  2  0  0  0  0  0  0  0  0  0
  -22.0923  -18.1133   30.2700 C   0  0  0  0  0  0  0  0  0  0  0  0
  -20.9454  -14.7586   24.6752 C   0  0  0  0  0  0  0  0  0  0  0  0
  -20.1385  -15.5360   26.9142 C   0  0  0  0  0  0  0  0  0  0  0  0
  -22.1415  -14.0575   26.7566 C   0  0  0  0  0  0  0  0  0  0  0  0
  -24.6005  -20.2426   28.3592 C   0  0  0  0  0  0  0  0  0  0  0  0
  -19.9669  -29.4273   22.3130 C   0  0  0  0  0  0  0  0  0  0  0  0
  -20.6213  -21.9396   21.1459 C   0  0  0  0  0  0  0  0  0  1  0  0
  -22.3229  -16.4720   26.0291 C   0  0  1  0  0  0  0  0  0  0  0  0
  -23.1187  -18.4106   29.1879 C   0  0  2  0  0  0  0  0  0  0  0  0
  -19.9149  -22.8077   20.1152 C   0  0  2  0  0  0  0  0  0  0  0  0
  -21.3956  -15.2248   26.0742 C   0  0  0  0  0  0  0  0  0  0  0  0
  -26.3826  -27.8002   20.9606 N   0  0  0  0  0  0  0  0  0  0  0  0
  -19.8302  -27.0440   21.7465 N   0  0  0  0  0  0  0  0  0  0  0  0
  -25.8512  -28.6138   20.0323 N   0  0  0  0  0  0  0  0  0  0  0  0
  -23.7394  -17.0822   24.0939 N   0  0  0  0  0  0  0  0  0  0  0  0
  -23.4685  -30.6846   22.1871 N   0  0  0  0  0  0  0  0  0  0  0  0
  -25.6853  -28.9582   17.6947 N   0  0  0  0  0  0  0  0  0  0  0  0
  -28.2325  -25.2433   18.0222 N   0  0  0  0  0  0  0  0  0  0  0  0
  -19.4446  -24.6275   21.6235 N   0  0  0  0  0  0  0  0  0  0  0  0
  -25.0345  -15.0444   21.4671 N   0  0  0  0  0  0  0  0  0  0  0  0
  -22.7867  -16.9193   27.3380 N   0  0  0  0  0  0  0  0  0  0  0  0
  -21.4003  -29.5378   22.1583 N   0  0  0  0  0  0  0  0  0  0  0  0
  -23.5719  -19.8216   29.3450 N   0  3  0  0  0  0  0  0  0  0  0  0
  -27.2790  -26.7236   16.5531 O   0  0  0  0  0  0  0  0  0  0  0  0
  -23.0264  -16.2000   21.7012 O   0  0  0  0  0  0  0  0  0  0  0  0
  -24.3475  -15.3439   25.5240 O   0  0  0  0  0  0  0  0  0  0  0  0
  -21.9237  -19.0668   27.1932 O   0  0  0  0  0  0  0  0  0  0  0  0
  -20.6197  -25.0375   19.6302 O   0  0  0  0  0  0  0  0  0  0  0  0
  -21.4849  -31.7568   22.7289 O   0  0  0  0  0  0  0  0  0  0  0  0
  -29.8097  -22.7372   22.7410 O   0  0  0  0  0  0  0  0  0  0  0  0
  -22.0180  -22.2317   21.1662 O   0  0  0  0  0  0  0  0  0  1  0  0
  -29.1788  -17.6478   20.7151 F   0  0  0  0  0  0  0  0  0  0  0  0
  -28.7902  -20.7023   24.3102 F   0  0  0  0  0  0  0  0  0  0  0  0
  -18.4461  -28.4952   24.7479 F   0  0  0  0  0  0  0  0  0  0  0  0
  -20.4421  -22.5231   18.8896 F   0  0  0  0  0  0  0  0  0  0  0  0
  -18.5415  -25.9867   23.7223 S   0  0  0  0  0  0  0  0  0  0  0  0
  1  2  1  0  0  0  0
  1  5  2  0  0  0  0
  2  6  2  0  0  0  0
  3  8  2  0  0  0  0
  3 15  1  0  0  0  0
  4  9  1  0  0  0  0
  4 15  2  0  0  0  0
  5 17  1  0  0  0  0
  6 19  1  0  0  0  0
  7 10  2  0  0  0  0
  7 18  1  0  0  0  0
  8 21  1  0  0  0  0
  9 21  2  0  0  0  0
 10 22  1  0  0  0  0
 11 12  2  0  0  0  0
 11 23  1  0  0  0  0
 12 24  1  0  0  0  0
 13 20  1  0  0  0  0
 13 22  2  0  0  0  0
 14 24  2  0  0  0  0
 14 25  1  0  0  0  0
 15 26  1  0  0  0  0
 16 26  1  0  0  0  0
 16 28  2  0  0  0  0
 16 31  1  0  0  0  0
 17 19  2  0  0  0  0
 17 37  1  0  0  0  0
 18 20  2  0  0  0  0
 18 38  1  0  0  0  0
 19 46  1  0  0  0  0
 20 39  1  0  0  0  0
 21 78  1  0  0  0  0
 22 79  1  0  0  0  0
 23 25  2  0  0  0  0
 23 78  1  0  0  0  0
 24 80  1  0  0  0  0
 25 81  1  0  0  0  0
 26 60  2  0  0  0  0
 27 29  2  0  0  0  0
 27 54  1  0  0  0  0
 27 61  1  0  0  0  0
 28 62  1  0  0  0  0
 28 65  1  0  0  0  0
 29 82  1  0  0  0  0
 29 84  1  0  0  0  0
 30 61  2  0  0  0  0
 30 67  1  0  0  0  0
 30 84  1  0  0  0  0
 31 66  1  0  0  0  0
 31 72  2  0  0  0  0
 32 47  1  0  0  0  0
 32 68  1  0  0  0  0
 32 73  2  0  0  0  0
 33 56  1  0  0  0  0
 33 63  1  0  0  0  0
 33 74  2  0  0  0  0
 34 57  1  0  0  0  0
 34 69  1  0  0  0  0
 34 75  2  0  0  0  0
 35 58  1  0  0  0  0
 35 67  1  0  0  0  0
 35 76  2  0  0  0  0
 36 64  1  0  0  0  0
 36 70  1  0  0  0  0
 36 77  2  0  0  0  0
 37 40  1  0  0  0  0
 38 47  1  0  0  0  0
 39 63  1  0  0  0  0
 40 42  1  0  0  0  0
 41 43  1  0  0  0  0
 41 44  1  0  0  0  0
 42 46  1  0  0  0  0
 43 48  1  0  0  0  0
 44 64  1  0  0  0  0
 45 48  1  0  0  0  0
 45 64  1  0  0  0  0
 46 68  1  0  0  0  0
 47 63  1  0  0  0  0
 48 62  1  0  0  0  0
 49 57  1  0  0  0  0
 50 59  1  0  0  0  0
 51 59  1  0  0  0  0
 52 59  1  0  0  0  0
 53 71  1  0  0  0  0
 54 70  1  0  0  0  0
 55 58  1  0  0  0  0
 55 79  1  0  0  0  0
 56 59  1  0  0  0  0
 56 69  1  0  0  0  0
 57 71  1  0  0  0  0
 58 83  1  0  0  0  0
 60 62  1  0  0  0  0
M  CHG  1  71   1
M  ISO  4  36 100  55 101  70 100  79 101
M  END
> <Batch ID>
0187

> <Smiles>
CNC(C)C(=O)NC(C(=O)N1Cc2cc([101O:1][101CH2:1]C(F)C(=O)Nc3nc(C[100NH:0][100C:0](=O)N4CCCC(n5nc(-c6ccc(Oc7ccc(F)cc7F)cc6)c(C(N)=O)c5N)C4)c(F)s3)ccc2CC1C(=O)NC1CCCc2ccccc21)C(C)(C)C

> <Shape>
0.193

> <Color>
0.070

> <Negative vol penalty>
0.000

$$$$

  -OEChem-04052305123D

 81 88  0     1  0  0  0  0  0999 V2000
  -29.0340  -33.9901   25.8487 C   0  0  0  0  0  0  0  0  0  0  0  0
  -29.2343  -33.1822   24.7340 C   0  0  0  0  0  0  0  0  0  0  0  0
  -24.5903  -13.3421   21.5634 C   0  0  0  0  0  0  0  0  0  0  0  0
  -26.0034  -13.1991   19.6090 C   0  0  0  0  0  0  0  0  0  0  0  0
  -28.0548  -33.6561   26.7834 C   0  0  0  0  0  0  0  0  0  0  0  0
  -28.4561  -32.0392   24.5538 C   0  0  0  0  0  0  0  0  0  0  0  0
  -26.7836  -31.5573   19.7982 C   0  0  0  0  0  0  0  0  0  0  0  0
  -23.9133  -12.1919   21.1580 C   0  0  0  0  0  0  0  0  0  0  0  0
  -25.3265  -12.0489   19.2036 C   0  0  0  0  0  0  0  0  0  0  0  0
  -27.6885  -31.0820   18.8501 C   0  0  0  0  0  0  0  0  0  0  0  0
  -24.4236   -8.8499   21.2176 C   0  0  0  0  0  0  0  0  0  0  0  0
  -24.1676   -7.8748   22.1816 C   0  0  0  0  0  0  0  0  0  0  0  0
  -26.7083  -28.8847   19.0252 C   0  0  0  0  0  0  0  0  0  0  0  0
  -21.7952   -8.1104   21.7899 C   0  0  0  0  0  0  0  0  0  0  0  0
  -25.6353  -13.8458   20.7888 C   0  0  0  0  0  0  0  0  0  0  0  0
  -27.4766  -15.1045   22.0269 C   0  0  0  0  0  0  0  0  0  0  0  0
  -27.2577  -32.5137   26.6096 C   0  0  0  0  0  0  0  0  0  0  0  0
  -25.8398  -30.6960   20.3759 C   0  0  0  0  0  0  0  0  0  0  0  0
  -27.4662  -31.6889   25.4877 C   0  0  0  0  0  0  0  0  0  0  0  0
  -25.7909  -29.3522   19.9785 C   0  0  0  0  0  0  0  0  0  0  0  0
  -24.2814  -11.5453   19.9782 C   0  0  0  0  0  0  0  0  0  0  0  0
  -27.6529  -29.7448   18.4656 C   0  0  0  0  0  0  0  0  0  0  0  0
  -23.3654   -9.4553   20.5398 C   0  0  0  0  0  0  0  0  0  0  0  0
  -22.8534   -7.5050   22.4677 C   0  0  0  0  0  0  0  0  0  0  0  0
  -22.0512   -9.0856   20.8259 C   0  0  0  0  0  0  0  0  0  0  0  0
  -26.3346  -15.0343   21.2067 C   0  0  0  0  0  0  0  0  0  0  0  0
  -27.7477  -16.4475   22.1237 C   0  0  0  0  0  0  0  0  0  0  0  0
  -28.2253  -14.0501   22.6460 C   0  0  0  0  0  0  0  0  0  0  0  0
  -25.2406  -29.6805   23.3278 C   0  0  0  0  0  0  0  0  0  0  0  0
  -22.6612  -28.3116   21.9151 C   0  0  0  0  0  0  0  0  0  0  0  0
  -21.2182  -27.1026   19.0686 C   0  0  0  0  0  0  0  0  0  0  0  0
  -28.4743  -25.0517   19.3281 C   0  0  0  0  0  0  0  0  0  0  0  0
  -28.3870  -21.3519   19.7816 C   0  0  0  0  0  0  0  0  0  0  0  0
  -26.2438  -32.1677   27.6711 C   0  0  0  0  0  0  0  0  0  0  0  0
  -24.8531  -31.2305   21.3776 C   0  0  0  0  0  0  0  0  0  0  0  0
  -24.7838  -28.3913   20.5536 C   0  0  0  0  0  0  0  0  0  0  0  0
  -25.2081  -31.1439   27.2135 C   0  0  0  0  0  0  0  0  0  0  0  0
  -25.0100  -20.4695   20.7378 C   0  0  0  0  0  0  0  0  0  0  0  0
  -25.8878  -29.9784   26.5018 C   0  0  0  0  0  0  0  0  0  0  0  0
  -25.1536  -18.9717   21.0139 C   0  0  0  0  0  0  0  0  0  0  0  0
  -25.8702  -20.8981   19.5527 C   0  0  0  0  0  0  0  0  0  0  0  0
  -27.4606  -19.0601   19.9604 C   0  0  0  0  0  0  0  0  0  0  0  0
  -26.6255  -30.4544   25.2445 C   0  0  1  0  0  0  0  0  0  0  0  0
  -24.2705  -30.1466   22.2793 C   0  0  1  0  0  0  0  0  0  0  0  0
  -26.6327  -18.5684   21.1616 C   0  0  2  0  0  0  0  0  0  0  0  0
  -19.1172  -26.0127   18.2349 C   0  0  0  0  0  0  0  0  0  0  0  0
  -29.8670  -23.6865   20.9396 C   0  0  0  0  0  0  0  0  0  0  0  0
  -30.1578  -23.3828   18.4535 C   0  0  0  0  0  0  0  0  0  0  0  0
  -23.5500  -25.6640   23.1440 C   0  0  0  0  0  0  0  0  0  0  0  0
  -22.0216  -24.4894   21.5464 C   0  0  0  0  0  0  0  0  0  0  0  0
  -21.0848  -26.0772   23.2269 C   0  0  0  0  0  0  0  0  0  0  0  0
  -30.3466  -27.8054   17.0975 C   0  0  0  0  0  0  0  0  0  0  0  0
  -27.9731  -27.0664   16.7869 C   0  0  0  0  0  0  0  0  0  0  0  0
  -20.6447  -29.3490   17.2292 C   0  0  0  0  0  0  0  0  0  0  0  0
  -28.9044  -27.4939   19.1229 C   0  0  0  0  0  0  0  0  0  0  0  0
  -22.3833  -26.9825   21.2555 C   0  0  1  0  0  0  0  0  0  0  0  0
  -19.8456  -27.3284   18.4609 C   0  0  2  0  0  0  0  0  0  0  0  0
  -29.1675  -23.6985   19.5782 C   0  0  0  0  0  0  0  0  0  0  0  0
  -22.2803  -25.8207   22.2836 C   0  0  0  0  0  0  0  0  0  0  0  0
  -28.9209  -27.9080   17.6445 C   0  0  0  0  0  0  0  0  0  1  0  0
  -25.9094  -16.2369   20.8106 N   0  0  0  0  0  0  0  0  0  0  0  0
  -26.7888  -17.0756   21.3846 N   0  0  0  0  0  0  0  0  0  0  0  0
  -23.8444  -28.9602   21.5342 N   0  0  0  0  0  0  0  0  0  0  0  0
  -27.2694  -20.5011   19.7646 N   0  0  0  0  0  0  0  0  0  0  0  0
  -28.7103  -17.1407   22.7681 N   0  0  0  0  0  0  0  0  0  0  0  0
  -27.8095  -12.7272   22.4431 N   0  0  0  0  0  0  0  0  0  0  0  0
  -25.6888  -30.6839   24.1654 N   0  0  0  0  0  0  0  0  0  0  0  0
  -29.3418  -26.1393   19.3335 N   0  0  0  0  0  0  0  0  0  0  0  0
  -21.1849  -27.1715   20.4453 N   0  0  0  0  0  0  0  0  0  0  0  0
  -28.1208  -22.7009   19.5816 N   0  0  0  0  0  0  0  0  0  0  0  0
  -19.9678  -28.0289   17.1512 N   0  3  0  0  0  0  0  0  0  0  0  0
  -29.2235  -14.2755   23.3715 O   0  0  0  0  0  0  0  0  0  0  0  0
  -25.5577  -28.4977   23.3743 O   0  0  0  0  0  0  0  0  0  0  0  0
  -21.8545  -28.7613   22.7329 O   0  0  0  0  0  0  0  0  0  0  0  0
  -22.2192  -26.8831   18.3900 O   0  0  0  0  0  0  0  0  0  0  0  0
  -27.2609  -25.1502   19.1434 O   0  0  0  0  0  0  0  0  0  0  0  0
  -29.5375  -20.9404   19.9669 O   0  0  0  0  0  0  0  0  0  0  0  0
  -23.6212  -10.4227   19.5825 O   0  0  0  0  0  0  0  0  0  0  0  0
  -28.5354  -29.2780   17.5408 O   0  0  0  0  0  0  0  0  0  1  0  0
  -22.6078   -6.5675   23.3923 F   0  0  0  0  0  0  0  0  0  0  0  0
  -21.0306   -9.6628   20.1772 F   0  0  0  0  0  0  0  0  0  0  0  0
  1  2  1  0  0  0  0
  1  5  2  0  0  0  0
  2  6  2  0  0  0  0
  3  8  2  0  0  0  0
  3 15  1  0  0  0  0
  4  9  1  0  0  0  0
  4 15  2  0  0  0  0
  5 17  1  0  0  0  0
  6 19  1  0  0  0  0
  7 10  2  0  0  0  0
  7 18  1  0  0  0  0
  8 21  1  0  0  0  0
  9 21  2  0  0  0  0
 10 22  1  0  0  0  0
 11 12  2  0  0  0  0
 11 23  1  0  0  0  0
 12 24  1  0  0  0  0
 13 20  1  0  0  0  0
 13 22  2  0  0  0  0
 14 24  2  0  0  0  0
 14 25  1  0  0  0  0
 15 26  1  0  0  0  0
 16 26  1  0  0  0  0
 16 27  2  0  0  0  0
 16 28  1  0  0  0  0
 17 19  2  0  0  0  0
 17 34  1  0  0  0  0
 18 20  2  0  0  0  0
 18 35  1  0  0  0  0
 19 43  1  0  0  0  0
 20 36  1  0  0  0  0
 21 78  1  0  0  0  0
 22 79  1  0  0  0  0
 23 25  2  0  0  0  0
 23 78  1  0  0  0  0
 24 80  1  0  0  0  0
 25 81  1  0  0  0  0
 26 61  2  0  0  0  0
 27 62  1  0  0  0  0
 27 65  1  0  0  0  0
 28 66  1  0  0  0  0
 28 72  2  0  0  0  0
 29 44  1  0  0  0  0
 29 67  1  0  0  0  0
 29 73  2  0  0  0  0
 30 56  1  0  0  0  0
 30 63  1  0  0  0  0
 30 74  2  0  0  0  0
 31 57  1  0  0  0  0
 31 69  1  0  0  0  0
 31 75  2  0  0  0  0
 32 58  1  0  0  0  0
 32 68  1  0  0  0  0
 32 76  2  0  0  0  0
 33 64  1  0  0  0  0
 33 70  1  0  0  0  0
 33 77  2  0  0  0  0
 34 37  1  0  0  0  0
 35 44  1  0  0  0  0
 36 63  1  0  0  0  0
 37 39  1  0  0  0  0
 38 40  1  0  0  0  0
 38 41  1  0  0  0  0
 39 43  1  0  0  0  0
 40 45  1  0  0  0  0
 41 64  1  0  0  0  0
 42 45  1  0  0  0  0
 42 64  1  0  0  0  0
 43 67  1  0  0  0  0
 44 63  1  0  0  0  0
 45 62  1  0  0  0  0
 46 57  1  0  0  0  0
 47 58  1  0  0  0  0
 48 58  1  0  0  0  0
 49 59  1  0  0  0  0
 50 59  1  0  0  0  0
 51 59  1  0  0  0  0
 52 60  1  0  0  0  0
 53 60  1  0  0  0  0
 54 71  1  0  0  0  0
 55 60  1  0  0  0  0
 55 68  1  0  0  0  0
 56 59  1  0  0  0  0
 56 69  1  0  0  0  0
 57 71  1  0  0  0  0
 58 70  1  0  0  0  0
 60 79  1  0  0  0  0
 61 62  1  0  0  0  0
M  CHG  1  71   1
M  ISO  4  33 100  60 101  70 100  79 101
M  END
> <Batch ID>
0187

> <Smiles>
CNC(C)C(=O)NC(C(=O)N1Cc2cc([101O:1][101C:1](C)(C)CNC(=O)C(C)(C)[100NH:0][100C:0](=O)N3CCCC(n4nc(-c5ccc(Oc6ccc(F)cc6F)cc5)c(C(N)=O)c4N)C3)ccc2CC1C(=O)NC1CCCc2ccccc21)C(C)(C)C

> <Shape>
0.272

> <Color>
0.062

> <Negative vol penalty>
0.000

$$$$

  -OEChem-04052305122D

  0  0  0     0  0  0  0  0  0999 V2000
M  END
$$$$

  -OEChem-04052305123D

 84 92  0     1  0  0  0  0  0999 V2000
  -16.3765  -28.9532   23.4577 C   0  0  0  0  0  0  0  0  0  0  0  0
  -17.1570  -28.4436   22.4250 C   0  0  0  0  0  0  0  0  0  0  0  0
  -25.2891  -13.4231   22.2144 C   0  0  0  0  0  0  0  0  0  0  0  0
  -26.2205  -13.8111   20.0192 C   0  0  0  0  0  0  0  0  0  0  0  0
  -16.9252  -29.8624   24.3612 C   0  0  0  0  0  0  0  0  0  0  0  0
  -18.4864  -28.8438   22.2944 C   0  0  0  0  0  0  0  0  0  0  0  0
  -23.1835  -25.4320   20.3443 C   0  0  0  0  0  0  0  0  0  0  0  0
  -24.3760  -12.5214   21.6677 C   0  0  0  0  0  0  0  0  0  0  0  0
  -25.3075  -12.9094   19.4724 C   0  0  0  0  0  0  0  0  0  0  0  0
  -23.8146  -25.3252   19.1058 C   0  0  0  0  0  0  0  0  0  0  0  0
  -24.3762   -9.3108   20.6072 C   0  0  0  0  0  0  0  0  0  0  0  0
  -24.1847   -8.0992   21.2713 C   0  0  0  0  0  0  0  0  0  0  0  0
  -25.4941  -26.8967   19.8328 C   0  0  0  0  0  0  0  0  0  0  0  0
  -21.8465   -8.6310   21.5670 C   0  0  0  0  0  0  0  0  0  0  0  0
  -26.2114  -14.0679   21.3902 C   0  0  0  0  0  0  0  0  0  0  0  0
  -28.4407  -14.7130   22.4492 C   0  0  0  0  0  0  0  0  0  0  0  0
  -18.2648  -30.2666   24.2474 C   0  0  0  0  0  0  0  0  0  0  0  0
  -23.6977  -26.2818   21.3342 C   0  0  0  0  0  0  0  0  0  0  0  0
  -19.0531  -29.7603   23.1964 C   0  0  0  0  0  0  0  0  0  0  0  0
  -24.8691  -27.0106   21.0840 C   0  0  0  0  0  0  0  0  0  0  0  0
  -24.3852  -12.2646   20.2967 C   0  0  0  0  0  0  0  0  0  0  0  0
  -24.9685  -26.0598   18.8488 C   0  0  0  0  0  0  0  0  0  0  0  0
  -23.3029  -10.1825   20.4231 C   0  0  0  0  0  0  0  0  0  0  0  0
  -22.9199   -7.7593   21.7511 C   0  0  0  0  0  0  0  0  0  0  0  0
  -22.0381   -9.8426   20.9029 C   0  0  0  0  0  0  0  0  0  0  0  0
  -27.1544  -14.9999   21.9543 C   0  0  0  0  0  0  0  0  0  0  0  0
  -29.6078  -23.5124   17.8314 C   0  0  0  0  0  0  0  0  0  0  0  0
  -28.9260  -15.9274   22.8688 C   0  0  0  0  0  0  0  0  0  0  0  0
  -29.8598  -22.4690   16.9655 C   0  0  0  0  0  0  0  0  0  0  0  0
  -28.8089  -21.8728   19.0494 C   0  0  0  0  0  0  0  0  0  0  0  0
  -29.1349  -13.4606   22.5229 C   0  0  0  0  0  0  0  0  0  0  0  0
  -22.6185  -28.8467   22.8706 C   0  0  0  0  0  0  0  0  0  0  0  0
  -27.6314  -25.3483   16.4933 C   0  0  0  0  0  0  0  0  0  0  0  0
  -25.3569  -28.4974   24.5740 C   0  0  0  0  0  0  0  0  0  0  0  0
  -28.5478  -27.2954   24.7149 C   0  0  0  0  0  0  0  0  0  0  0  0
  -27.7221  -21.5665   21.3014 C   0  0  0  0  0  0  0  0  0  0  0  0
  -18.8000  -31.2877   25.2197 C   0  0  0  0  0  0  0  0  0  0  0  0
  -23.0201  -26.3655   22.6745 C   0  0  0  0  0  0  0  0  0  0  0  0
  -25.4729  -27.9216   22.1203 C   0  0  0  0  0  0  0  0  0  0  0  0
  -20.3240  -31.3741   25.2348 C   0  0  0  0  0  0  0  0  0  0  0  0
  -27.4638  -20.1614   24.5627 C   0  0  0  0  0  0  0  0  0  0  0  0
  -20.8700  -31.4235   23.8113 C   0  0  0  0  0  0  0  0  0  0  0  0
  -27.4784  -18.6522   24.3094 C   0  0  0  0  0  0  0  0  0  0  0  0
  -26.7031  -20.9124   23.4713 C   0  0  0  0  0  0  0  0  0  0  0  0
  -27.1567  -19.1172   21.8462 C   0  0  0  0  0  0  0  0  0  0  0  0
  -20.5063  -30.1512   23.0364 C   0  0  1  0  0  0  0  0  0  0  0  0
  -23.3416  -27.6529   23.4272 C   0  0  1  0  0  0  0  0  0  0  0  0
  -27.9670  -18.3245   22.8848 C   0  0  2  0  0  0  0  0  0  0  0  0
  -32.2686  -24.7745   18.6075 C   0  0  0  0  0  0  0  0  0  0  0  0
  -30.5514  -27.1981   26.2228 C   0  0  0  0  0  0  0  0  0  0  0  0
  -25.9879  -31.4100   23.9194 C   0  0  0  0  0  0  0  0  0  0  0  0
  -28.3565  -30.9785   24.6064 C   0  0  0  0  0  0  0  0  0  0  0  0
  -26.5128  -30.7313   26.2685 C   0  0  0  0  0  0  0  0  0  0  0  0
  -28.4789  -24.3381   24.8081 C   0  0  0  0  0  0  0  0  0  0  0  0
  -29.1418  -25.4867   16.3542 C   0  0  0  0  0  0  0  0  0  0  0  0
  -27.0001  -26.1490   17.6157 C   0  0  0  0  0  0  0  0  0  1  0  0
  -31.4492  -25.2161   17.4003 C   0  0  0  0  0  0  0  0  0  0  0  0
  -29.9316  -24.9783   17.5781 C   0  0  2  0  0  0  0  0  0  0  0  0
  -26.7720  -29.0056   24.4391 C   0  0  1  0  0  0  0  0  0  0  0  0
  -29.2771  -26.4962   25.7798 C   0  0  2  0  0  0  0  0  0  0  0  0
  -26.8951  -30.5157   24.7879 C   0  0  0  0  0  0  0  0  0  0  0  0
  -26.8421  -16.2950   22.0501 N   0  0  0  0  0  0  0  0  0  0  0  0
  -29.0048  -23.1725   19.0267 N   0  0  0  0  0  0  0  0  0  0  0  0
  -27.9391  -16.8326   22.6101 N   0  0  0  0  0  0  0  0  0  0  0  0
  -24.7702  -27.9743   23.4130 N   0  0  0  0  0  0  0  0  0  0  0  0
  -27.2233  -20.5554   22.1496 N   0  0  0  0  0  0  0  0  0  0  0  0
  -30.0962  -16.2987   23.4301 N   0  0  0  0  0  0  0  0  0  0  0  0
  -28.4906  -12.3105   22.0470 N   0  0  0  0  0  0  0  0  0  0  0  0
  -28.2201  -21.1039   20.0838 N   0  0  0  0  0  0  0  0  0  0  0  0
  -21.3708  -29.0578   23.4257 N   0  0  0  0  0  0  0  0  0  0  0  0
  -27.5997  -28.1323   25.2642 N   0  0  0  0  0  0  0  0  0  0  0  0
  -29.6400  -25.1482   25.2581 N   0  3  0  0  0  0  0  0  0  0  0  0
  -30.2859  -13.3617   23.0117 O   0  0  0  0  0  0  0  0  0  0  0  0
  -23.1536  -29.5267   22.0029 O   0  0  0  0  0  0  0  0  0  0  0  0
  -26.9549  -24.6588   15.7320 O   0  0  0  0  0  0  0  0  0  0  0  0
  -24.7954  -28.5556   25.6708 O   0  0  0  0  0  0  0  0  0  0  0  0
  -28.7971  -27.1906   23.5160 O   0  0  0  0  0  0  0  0  0  0  0  0
  -27.7335  -22.7522   21.6420 O   0  0  0  0  0  0  0  0  0  0  0  0
  -23.4946  -11.3846   19.7629 O   0  0  0  0  0  0  0  0  0  0  0  0
  -25.5862  -25.9578   17.6405 O   0  0  0  0  0  0  0  0  0  1  0  0
  -22.7357   -6.5951   22.3875 F   0  0  0  0  0  0  0  0  0  0  0  0
  -21.0029  -10.6754   20.7280 F   0  0  0  0  0  0  0  0  0  0  0  0
  -30.4337  -22.5817   15.7649 F   0  0  0  0  0  0  0  0  0  0  0  0
  -29.3260  -20.9977   17.6667 S   0  0  0  0  0  0  0  0  0  0  0  0
  1  2  1  0  0  0  0
  1  5  2  0  0  0  0
  2  6  2  0  0  0  0
  3  8  2  0  0  0  0
  3 15  1  0  0  0  0
  4  9  1  0  0  0  0
  4 15  2  0  0  0  0
  5 17  1  0  0  0  0
  6 19  1  0  0  0  0
  7 10  2  0  0  0  0
  7 18  1  0  0  0  0
  8 21  1  0  0  0  0
  9 21  2  0  0  0  0
 10 22  1  0  0  0  0
 11 12  2  0  0  0  0
 11 23  1  0  0  0  0
 12 24  1  0  0  0  0
 13 20  1  0  0  0  0
 13 22  2  0  0  0  0
 14 24  2  0  0  0  0
 14 25  1  0  0  0  0
 15 26  1  0  0  0  0
 16 26  1  0  0  0  0
 16 28  2  0  0  0  0
 16 31  1  0  0  0  0
 17 19  2  0  0  0  0
 17 37  1  0  0  0  0
 18 20  2  0  0  0  0
 18 38  1  0  0  0  0
 19 46  1  0  0  0  0
 20 39  1  0  0  0  0
 21 79  1  0  0  0  0
 22 80  1  0  0  0  0
 23 25  2  0  0  0  0
 23 79  1  0  0  0  0
 24 81  1  0  0  0  0
 25 82  1  0  0  0  0
 26 62  2  0  0  0  0
 27 29  2  0  0  0  0
 27 58  1  0  0  0  0
 27 63  1  0  0  0  0
 28 64  1  0  0  0  0
 28 67  1  0  0  0  0
 29 83  1  0  0  0  0
 29 84  1  0  0  0  0
 30 63  2  0  0  0  0
 30 69  1  0  0  0  0
 30 84  1  0  0  0  0
 31 68  1  0  0  0  0
 31 73  2  0  0  0  0
 32 47  1  0  0  0  0
 32 70  1  0  0  0  0
 32 74  2  0  0  0  0
 33 55  1  0  0  0  0
 33 56  1  0  0  0  0
 33 75  2  0  0  0  0
 34 59  1  0  0  0  0
 34 65  1  0  0  0  0
 34 76  2  0  0  0  0
 35 60  1  0  0  0  0
 35 71  1  0  0  0  0
 35 77  2  0  0  0  0
 36 66  1  0  0  0  0
 36 69  1  0  0  0  0
 36 78  2  0  0  0  0
 37 40  1  0  0  0  0
 38 47  1  0  0  0  0
 39 65  1  0  0  0  0
 40 42  1  0  0  0  0
 41 43  1  0  0  0  0
 41 44  1  0  0  0  0
 42 46  1  0  0  0  0
 43 48  1  0  0  0  0
 44 66  1  0  0  0  0
 45 48  1  0  0  0  0
 45 66  1  0  0  0  0
 46 70  1  0  0  0  0
 47 65  1  0  0  0  0
 48 64  1  0  0  0  0
 49 57  1  0  0  0  0
 50 60  1  0  0  0  0
 51 61  1  0  0  0  0
 52 61  1  0  0  0  0
 53 61  1  0  0  0  0
 54 72  1  0  0  0  0
 55 58  1  0  0  0  0
 56 80  1  0  0  0  0
 57 58  1  0  0  0  0
 59 61  1  0  0  0  0
 59 71  1  0  0  0  0
 60 72  1  0  0  0  0
 62 64  1  0  0  0  0
M  CHG  1  72   1
M  ISO  4  36 100  56 101  69 100  80 101
M  END
> <Batch ID>
0187

> <Smiles>
CCC(CC(=O)[101CH2:1][101O:1]c1ccc2c(c1)CN(C(=O)C(NC(=O)C(C)NC)C(C)(C)C)C(C(=O)NC1CCCc3ccccc31)C2)c1nc([100NH:0][100C:0](=O)N2CCCC(n3nc(-c4ccc(Oc5ccc(F)cc5F)cc4)c(C(N)=O)c3N)C2)sc1F

> <Shape>
0.251

> <Color>
0.086

> <Negative vol penalty>
0.000

$$$$

  -OEChem-04052305123D

 83 91  0     1  0  0  0  0  0999 V2000
  -27.6108  -23.4137   18.0134 C   0  0  0  0  0  0  0  0  0  0  0  0
  -26.4108  -23.8740   18.5461 C   0  0  0  0  0  0  0  0  0  0  0  0
  -27.2460  -16.9088   22.5229 C   0  0  0  0  0  0  0  0  0  0  0  0
  -25.4004  -17.5926   21.1217 C   0  0  0  0  0  0  0  0  0  0  0  0
  -28.8215  -23.8160   18.5757 C   0  0  0  0  0  0  0  0  0  0  0  0
  -26.4210  -24.7360   19.6421 C   0  0  0  0  0  0  0  0  0  0  0  0
  -23.2015  -28.6071   19.0989 C   0  0  0  0  0  0  0  0  0  0  0  0
  -27.2634  -15.6645   21.8928 C   0  0  0  0  0  0  0  0  0  0  0  0
  -25.4178  -16.3484   20.4915 C   0  0  0  0  0  0  0  0  0  0  0  0
  -21.8503  -28.3479   19.3244 C   0  0  0  0  0  0  0  0  0  0  0  0
  -28.0289  -12.4367   20.4062 C   0  0  0  0  0  0  0  0  0  0  0  0
  -29.2675  -11.9179   20.0291 C   0  0  0  0  0  0  0  0  0  0  0  0
  -22.0425  -29.2996   21.5327 C   0  0  0  0  0  0  0  0  0  0  0  0
  -29.6403  -13.8385   18.6115 C   0  0  0  0  0  0  0  0  0  0  0  0
  -26.3145  -17.8729   22.1374 C   0  0  0  0  0  0  0  0  0  0  0  0
  -27.0087  -20.3122   22.4120 C   0  0  0  0  0  0  0  0  0  0  0  0
  -28.8468  -24.6910   19.6731 C   0  0  0  0  0  0  0  0  0  0  0  0
  -23.9873  -29.2055   20.0944 C   0  0  0  0  0  0  0  0  0  0  0  0
  -27.6332  -25.1493   20.2204 C   0  0  0  0  0  0  0  0  0  0  0  0
  -23.4028  -29.5676   21.3165 C   0  0  0  0  0  0  0  0  0  0  0  0
  -26.3493  -15.3843   20.8771 C   0  0  0  0  0  0  0  0  0  0  0  0
  -21.2713  -28.6915   20.5425 C   0  0  0  0  0  0  0  0  0  0  0  0
  -27.5958  -13.6563   19.8859 C   0  0  0  0  0  0  0  0  0  0  0  0
  -30.0733  -12.6189   19.1318 C   0  0  0  0  0  0  0  0  0  0  0  0
  -28.4015  -14.3572   18.9886 C   0  0  0  0  0  0  0  0  0  0  0  0
  -26.2956  -19.1582   22.7883 C   0  0  0  0  0  0  0  0  0  0  0  0
  -18.8686  -24.8901   24.2133 C   0  0  0  0  0  0  0  0  0  0  0  0
  -18.5249  -24.5432   25.5031 C   0  0  0  0  0  0  0  0  0  0  0  0
  -26.6504  -21.2561   23.3432 C   0  0  0  0  0  0  0  0  0  0  0  0
  -20.4168  -23.4433   25.3588 C   0  0  0  0  0  0  0  0  0  0  0  0
  -27.9139  -20.5130   21.3185 C   0  0  0  0  0  0  0  0  0  0  0  0
  -18.1708  -25.7486   23.2218 C   0  0  0  0  0  0  0  0  0  0  0  0
  -26.5486  -28.3284   21.7599 C   0  0  0  0  0  0  0  0  0  0  0  0
  -26.4006  -31.3789   22.8531 C   0  0  0  0  0  0  0  0  0  0  0  0
  -24.5086  -34.1584   23.4377 C   0  0  0  0  0  0  0  0  0  0  0  0
  -21.8325  -21.9474   26.8095 C   0  0  0  0  0  0  0  0  0  0  0  0
  -30.1787  -25.0605   20.2765 C   0  0  0  0  0  0  0  0  0  0  0  0
  -25.4370  -29.5028   19.8257 C   0  0  0  0  0  0  0  0  0  0  0  0
  -24.1981  -30.2307   22.4102 C   0  0  0  0  0  0  0  0  0  0  0  0
  -30.1130  -26.2727   21.2019 C   0  0  0  0  0  0  0  0  0  0  0  0
  -25.2131  -21.6716   27.8924 C   0  0  0  0  0  0  0  0  0  0  0  0
  -28.9315  -26.1502   22.1590 C   0  0  0  0  0  0  0  0  0  0  0  0
  -25.9403  -21.1065   26.6702 C   0  0  0  0  0  0  0  0  0  0  0  0
  -23.8109  -21.0835   28.0402 C   0  0  0  0  0  0  0  0  0  0  0  0
  -23.6915  -20.6241   25.6228 C   0  0  0  0  0  0  0  0  0  0  0  0
  -27.6037  -26.1050   21.3934 C   0  0  1  0  0  0  0  0  0  0  0  0
  -26.2634  -29.6477   21.0998 C   0  0  1  0  0  0  0  0  0  0  0  0
  -25.0837  -21.2353   25.3953 C   0  0  2  0  0  0  0  0  0  0  0  0
  -24.6579  -36.4816   24.3745 C   0  0  0  0  0  0  0  0  0  0  0  0
  -17.3092  -25.8915   20.0774 C   0  0  0  0  0  0  0  0  0  0  0  0
  -26.4276  -30.2341   25.6813 C   0  0  0  0  0  0  0  0  0  0  0  0
  -25.6295  -32.4564   26.5135 C   0  0  0  0  0  0  0  0  0  0  0  0
  -27.8383  -32.2753   25.3685 C   0  0  0  0  0  0  0  0  0  0  0  0
  -23.7282  -35.3748   20.8551 C   0  0  0  0  0  0  0  0  0  0  0  0
  -19.3845  -27.3144   20.0958 C   0  0  0  0  0  0  0  0  0  1  0  0
  -25.7168  -32.0683   24.0090 C   0  0  1  0  0  0  0  0  0  0  0  0
  -24.7471  -35.6239   23.1219 C   0  0  2  0  0  0  0  0  0  0  0  0
  -18.2605  -26.7131   20.9375 C   0  0  2  0  0  0  0  0  0  0  0  0
  -26.3883  -31.7443   25.3734 C   0  0  0  0  0  0  0  0  0  0  0  0
  -25.5414  -19.3492   23.8740 N   0  0  0  0  0  0  0  0  0  0  0  0
  -19.4113  -23.7132   26.1614 N   0  0  0  0  0  0  0  0  0  0  0  0
  -25.7787  -20.6342   24.1880 N   0  0  0  0  0  0  0  0  0  0  0  0
  -25.6132  -30.4948   22.1018 N   0  0  0  0  0  0  0  0  0  0  0  0
  -23.0564  -21.2457   26.7955 N   0  0  0  0  0  0  0  0  0  0  0  0
  -17.3987  -24.9681   26.1246 N   0  0  0  0  0  0  0  0  0  0  0  0
  -26.9991  -22.5490   23.5137 N   0  0  0  0  0  0  0  0  0  0  0  0
  -28.1703  -19.4374   20.4572 N   0  0  0  0  0  0  0  0  0  0  0  0
  -21.5472  -22.6328   25.6291 N   0  0  0  0  0  0  0  0  0  0  0  0
  -18.8015  -25.8912   21.9961 N   0  0  0  0  0  0  0  0  0  0  0  0
  -27.2270  -27.4322   20.9561 N   0  0  0  0  0  0  0  0  0  0  0  0
  -25.6898  -33.4891   23.6787 N   0  0  0  0  0  0  0  0  0  0  0  0
  -23.7355  -36.1142   22.1436 N   0  3  0  0  0  0  0  0  0  0  0  0
  -28.4914  -21.6089   21.1208 O   0  0  0  0  0  0  0  0  0  0  0  0
  -17.1132  -26.2891   23.5350 O   0  0  0  0  0  0  0  0  0  0  0  0
  -26.1817  -28.1382   22.9135 O   0  0  0  0  0  0  0  0  0  0  0  0
  -27.5875  -31.6214   22.6207 O   0  0  0  0  0  0  0  0  0  0  0  0
  -23.3865  -33.6582   23.4712 O   0  0  0  0  0  0  0  0  0  0  0  0
  -21.1049  -21.9632   27.8057 O   0  0  0  0  0  0  0  0  0  0  0  0
  -26.3662  -14.1703   20.2618 O   0  0  0  0  0  0  0  0  0  0  0  0
  -19.9528  -28.4391   20.7654 O   0  0  0  0  0  0  0  0  0  1  0  0
  -31.2634  -12.1214   18.7710 F   0  0  0  0  0  0  0  0  0  0  0  0
  -27.9914  -15.5300   18.4863 F   0  0  0  0  0  0  0  0  0  0  0  0
  -20.3612  -24.1546   23.7981 S   0  0  0  0  0  0  0  0  0  0  0  0
  1  2  1  0  0  0  0
  1  5  2  0  0  0  0
  2  6  2  0  0  0  0
  3  8  2  0  0  0  0
  3 15  1  0  0  0  0
  4  9  1  0  0  0  0
  4 15  2  0  0  0  0
  5 17  1  0  0  0  0
  6 19  1  0  0  0  0
  7 10  2  0  0  0  0
  7 18  1  0  0  0  0
  8 21  1  0  0  0  0
  9 21  2  0  0  0  0
 10 22  1  0  0  0  0
 11 12  2  0  0  0  0
 11 23  1  0  0  0  0
 12 24  1  0  0  0  0
 13 20  1  0  0  0  0
 13 22  2  0  0  0  0
 14 24  2  0  0  0  0
 14 25  1  0  0  0  0
 15 26  1  0  0  0  0
 16 26  1  0  0  0  0
 16 29  2  0  0  0  0
 16 31  1  0  0  0  0
 17 19  2  0  0  0  0
 17 37  1  0  0  0  0
 18 20  2  0  0  0  0
 18 38  1  0  0  0  0
 19 46  1  0  0  0  0
 20 39  1  0  0  0  0
 21 79  1  0  0  0  0
 22 80  1  0  0  0  0
 23 25  2  0  0  0  0
 23 79  1  0  0  0  0
 24 81  1  0  0  0  0
 25 82  1  0  0  0  0
 26 60  2  0  0  0  0
 27 28  2  0  0  0  0
 27 32  1  0  0  0  0
 27 83  1  0  0  0  0
 28 61  1  0  0  0  0
 28 65  1  0  0  0  0
 29 62  1  0  0  0  0
 29 66  1  0  0  0  0
 30 61  2  0  0  0  0
 30 68  1  0  0  0  0
 30 83  1  0  0  0  0
 31 67  1  0  0  0  0
 31 73  2  0  0  0  0
 32 69  1  0  0  0  0
 32 74  2  0  0  0  0
 33 47  1  0  0  0  0
 33 70  1  0  0  0  0
 33 75  2  0  0  0  0
 34 56  1  0  0  0  0
 34 63  1  0  0  0  0
 34 76  2  0  0  0  0
 35 57  1  0  0  0  0
 35 71  1  0  0  0  0
 35 77  2  0  0  0  0
 36 64  1  0  0  0  0
 36 68  1  0  0  0  0
 36 78  2  0  0  0  0
 37 40  1  0  0  0  0
 38 47  1  0  0  0  0
 39 63  1  0  0  0  0
 40 42  1  0  0  0  0
 41 43  1  0  0  0  0
 41 44  1  0  0  0  0
 42 46  1  0  0  0  0
 43 48  1  0  0  0  0
 44 64  1  0  0  0  0
 45 48  1  0  0  0  0
 45 64  1  0  0  0  0
 46 70  1  0  0  0  0
 47 63  1  0  0  0  0
 48 62  1  0  0  0  0
 49 57  1  0  0  0  0
 50 58  1  0  0  0  0
 51 59  1  0  0  0  0
 52 59  1  0  0  0  0
 53 59  1  0  0  0  0
 54 72  1  0  0  0  0
 55 58  1  0  0  0  0
 55 80  1  0  0  0  0
 56 59  1  0  0  0  0
 56 71  1  0  0  0  0
 57 72  1  0  0  0  0
 58 69  1  0  0  0  0
 60 62  1  0  0  0  0
M  CHG  1  72   1
M  ISO  4  36 100  55 101  68 100  80 101
M  END
> <Batch ID>
0187

> <Smiles>
CNC(C)C(=O)NC(C(=O)N1Cc2cc([101O:1][101CH2:1]C(C)NC(=O)c3sc([100NH:0][100C:0](=O)N4CCCC(n5nc(-c6ccc(Oc7ccc(F)cc7F)cc6)c(C(N)=O)c5N)C4)nc3N)ccc2CC1C(=O)NC1CCCc2ccccc21)C(C)(C)C

> <Shape>
0.262

> <Color>
0.061

> <Negative vol penalty>
0.000

$$$$

  -OEChem-04052305123D

 83 91  0     1  0  0  0  0  0999 V2000
  -16.7943  -30.8345   23.8263 C   0  0  0  0  0  0  0  0  0  0  0  0
  -17.9934  -31.4966   24.0697 C   0  0  0  0  0  0  0  0  0  0  0  0
  -26.1779  -11.8295   20.9396 C   0  0  0  0  0  0  0  0  0  0  0  0
  -24.0516  -12.2513   19.8728 C   0  0  0  0  0  0  0  0  0  0  0  0
  -16.8045  -29.4919   23.4504 C   0  0  0  0  0  0  0  0  0  0  0  0
  -19.2034  -30.8161   23.9385 C   0  0  0  0  0  0  0  0  0  0  0  0
  -26.0255  -31.8754   22.0274 C   0  0  0  0  0  0  0  0  0  0  0  0
  -25.6555  -10.6762   21.5248 C   0  0  0  0  0  0  0  0  0  0  0  0
  -23.5292  -11.0979   20.4580 C   0  0  0  0  0  0  0  0  0  0  0  0
  -27.3209  -31.6713   22.5010 C   0  0  0  0  0  0  0  0  0  0  0  0
  -22.3355  -10.1584   23.4785 C   0  0  0  0  0  0  0  0  0  0  0  0
  -21.0700  -10.2424   24.0589 C   0  0  0  0  0  0  0  0  0  0  0  0
  -27.2201  -29.3749   21.7691 C   0  0  0  0  0  0  0  0  0  0  0  0
  -20.2614   -8.5450   22.5416 C   0  0  0  0  0  0  0  0  0  0  0  0
  -25.3760  -12.6171   20.1136 C   0  0  0  0  0  0  0  0  0  0  0  0
  -26.5606  -13.9124   18.2625 C   0  0  0  0  0  0  0  0  0  0  0  0
  -18.0156  -28.7972   23.3051 C   0  0  0  0  0  0  0  0  0  0  0  0
  -25.3126  -30.8261   21.4299 C   0  0  0  0  0  0  0  0  0  0  0  0
  -19.2297  -29.4626   23.5616 C   0  0  0  0  0  0  0  0  0  0  0  0
  -25.9169  -29.5690   21.2864 C   0  0  0  0  0  0  0  0  0  0  0  0
  -24.3312  -10.3104   21.2841 C   0  0  0  0  0  0  0  0  0  0  0  0
  -27.9173  -30.4201   22.3745 C   0  0  0  0  0  0  0  0  0  0  0  0
  -22.5640   -9.2677   22.4295 C   0  0  0  0  0  0  0  0  0  0  0  0
  -20.0329   -9.4357   23.5906 C   0  0  0  0  0  0  0  0  0  0  0  0
  -21.5269   -8.4610   21.9612 C   0  0  0  0  0  0  0  0  0  0  0  0
  -25.9149  -13.8089   19.5091 C   0  0  0  0  0  0  0  0  0  0  0  0
  -29.9431  -23.4819   20.3515 C   0  0  0  0  0  0  0  0  0  0  0  0
  -30.5716  -24.4771   19.6326 C   0  0  0  0  0  0  0  0  0  0  0  0
  -26.8798  -15.2436   18.1507 C   0  0  0  0  0  0  0  0  0  0  0  0
  -29.8918  -25.6799   21.3359 C   0  0  0  0  0  0  0  0  0  0  0  0
  -29.7900  -22.1098   20.0673 C   0  0  0  0  0  0  0  0  0  0  0  0
  -29.1261  -21.1752   20.8294 C   0  0  0  0  0  0  0  0  0  0  0  0
  -26.8463  -12.8962   17.2923 C   0  0  0  0  0  0  0  0  0  0  0  0
  -29.0443  -19.7681   20.3889 C   0  0  0  0  0  0  0  0  0  0  0  0
  -22.6178  -29.2787   22.0987 C   0  0  0  0  0  0  0  0  0  0  0  0
  -23.1768  -27.8643   19.2335 C   0  0  0  0  0  0  0  0  0  0  0  0
  -25.4335  -26.9747   16.8329 C   0  0  0  0  0  0  0  0  0  0  0  0
  -30.0010  -28.0726   22.1119 C   0  0  0  0  0  0  0  0  0  0  0  0
  -17.9742  -27.3338   22.9427 C   0  0  0  0  0  0  0  0  0  0  0  0
  -23.9261  -31.0697   20.9001 C   0  0  0  0  0  0  0  0  0  0  0  0
  -25.2016  -28.4150   20.6343 C   0  0  0  0  0  0  0  0  0  0  0  0
  -19.3159  -26.7872   22.4618 C   0  0  0  0  0  0  0  0  0  0  0  0
  -25.4552  -19.2266   20.8961 C   0  0  0  0  0  0  0  0  0  0  0  0
  -20.4394  -27.2370   23.3903 C   0  0  0  0  0  0  0  0  0  0  0  0
  -25.3244  -17.7533   20.5191 C   0  0  0  0  0  0  0  0  0  0  0  0
  -26.7935  -19.5279   21.5690 C   0  0  0  0  0  0  0  0  0  0  0  0
  -27.8434  -17.6162   20.3928 C   0  0  0  0  0  0  0  0  0  0  0  0
  -20.5637  -28.7653   23.4057 C   0  0  1  0  0  0  0  0  0  0  0  0
  -23.1022  -29.7920   20.7723 C   0  0  1  0  0  0  0  0  0  0  0  0
  -26.5238  -17.2997   19.6719 C   0  0  1  0  0  0  0  0  0  0  0  0
  -31.2611  -24.3168   18.3345 C   0  0  0  0  0  0  0  0  0  0  0  0
  -25.5978  -25.7954   14.6239 C   0  0  0  0  0  0  0  0  0  0  0  0
  -30.5494  -28.9967   24.3933 C   0  0  0  0  0  0  0  0  0  0  0  0
  -22.9271  -25.1751   20.6533 C   0  0  0  0  0  0  0  0  0  0  0  0
  -24.0166  -24.1052   18.6692 C   0  0  0  0  0  0  0  0  0  0  0  0
  -21.8292  -25.2756   18.4085 C   0  0  0  0  0  0  0  0  0  0  0  0
  -26.4338  -29.4078   15.4770 C   0  0  0  0  0  0  0  0  0  0  0  0
  -23.9275  -26.6374   18.7752 C   0  0  1  0  0  0  0  0  0  0  0  0
  -25.4134  -27.1332   15.3233 C   0  0  2  0  0  0  0  0  0  0  0  0
  -29.5042  -28.9046   23.2914 C   0  0  1  0  0  0  0  0  0  1  0  0
  -23.1881  -25.3193   19.1406 C   0  0  0  0  0  0  0  0  0  0  0  0
  -25.8283  -14.9809   20.1439 N   0  0  0  0  0  0  0  0  0  0  0  0
  -30.5428  -25.7381   20.1953 N   0  0  0  0  0  0  0  0  0  0  0  0
  -26.4239  -15.8335   19.2928 N   0  0  0  0  0  0  0  0  0  0  0  0
  -27.9226  -19.0325   20.7674 N   0  0  0  0  0  0  0  0  0  0  0  0
  -23.8455  -28.7014   20.1379 N   0  0  0  0  0  0  0  0  0  0  0  0
  -27.5033  -15.9554   17.1879 N   0  0  0  0  0  0  0  0  0  0  0  0
  -26.4488  -11.5804   17.5661 N   0  0  0  0  0  0  0  0  0  0  0  0
  -29.6279  -26.7384   22.2375 N   0  0  0  0  0  0  0  0  0  0  0  0
  -21.2416  -29.2293   22.2142 N   0  0  0  0  0  0  0  0  0  0  0  0
  -24.1640  -26.8134   17.3464 N   0  0  0  0  0  0  0  0  0  0  0  0
  -26.5051  -28.0476   14.8839 N   0  3  0  0  0  0  0  0  0  0  0  0
  -27.4512  -13.1446   16.2218 O   0  0  0  0  0  0  0  0  0  0  0  0
  -29.9779  -19.3279   19.7157 O   0  0  0  0  0  0  0  0  0  0  0  0
  -23.4321  -28.9502   22.9534 O   0  0  0  0  0  0  0  0  0  0  0  0
  -22.0418  -28.0761   18.7992 O   0  0  0  0  0  0  0  0  0  0  0  0
  -26.4718  -26.9885   17.4904 O   0  0  0  0  0  0  0  0  0  0  0  0
  -30.6318  -28.5855   21.1921 O   0  0  0  0  0  0  0  0  0  0  0  0
  -23.8212   -9.1849   21.8548 O   0  0  0  0  0  0  0  0  0  0  0  0
  -29.1812  -30.2180   22.8365 O   0  0  0  0  0  0  0  0  0  1  0  0
  -18.8181   -9.5154   24.1491 F   0  0  0  0  0  0  0  0  0  0  0  0
  -21.7407   -7.6026   20.9545 F   0  0  0  0  0  0  0  0  0  0  0  0
  -29.2876  -24.1402   21.7932 S   0  0  0  0  0  0  0  0  0  0  0  0
  1  2  1  0  0  0  0
  1  5  2  0  0  0  0
  2  6  2  0  0  0  0
  3  8  2  0  0  0  0
  3 15  1  0  0  0  0
  4  9  1  0  0  0  0
  4 15  2  0  0  0  0
  5 17  1  0  0  0  0
  6 19  1  0  0  0  0
  7 10  2  0  0  0  0
  7 18  1  0  0  0  0
  8 21  1  0  0  0  0
  9 21  2  0  0  0  0
 10 22  1  0  0  0  0
 11 12  2  0  0  0  0
 11 23  1  0  0  0  0
 12 24  1  0  0  0  0
 13 20  1  0  0  0  0
 13 22  2  0  0  0  0
 14 24  2  0  0  0  0
 14 25  1  0  0  0  0
 15 26  1  0  0  0  0
 16 26  1  0  0  0  0
 16 29  2  0  0  0  0
 16 33  1  0  0  0  0
 17 19  2  0  0  0  0
 17 39  1  0  0  0  0
 18 20  2  0  0  0  0
 18 40  1  0  0  0  0
 19 48  1  0  0  0  0
 20 41  1  0  0  0  0
 21 79  1  0  0  0  0
 22 80  1  0  0  0  0
 23 25  2  0  0  0  0
 23 79  1  0  0  0  0
 24 81  1  0  0  0  0
 25 82  1  0  0  0  0
 26 62  2  0  0  0  0
 27 28  2  0  0  0  0
 27 31  1  0  0  0  0
 27 83  1  0  0  0  0
 28 51  1  0  0  0  0
 28 63  1  0  0  0  0
 29 64  1  0  0  0  0
 29 67  1  0  0  0  0
 30 63  2  0  0  0  0
 30 69  1  0  0  0  0
 30 83  1  0  0  0  0
 31 32  2  0  0  0  0
 32 34  1  0  0  0  0
 33 68  1  0  0  0  0
 33 73  2  0  0  0  0
 34 65  1  0  0  0  0
 34 74  2  0  0  0  0
 35 49  1  0  0  0  0
 35 70  1  0  0  0  0
 35 75  2  0  0  0  0
 36 58  1  0  0  0  0
 36 66  1  0  0  0  0
 36 76  2  0  0  0  0
 37 59  1  0  0  0  0
 37 71  1  0  0  0  0
 37 77  2  0  0  0  0
 38 60  1  0  0  0  0
 38 69  1  0  0  0  0
 38 78  2  0  0  0  0
 39 42  1  0  0  0  0
 40 49  1  0  0  0  0
 41 66  1  0  0  0  0
 42 44  1  0  0  0  0
 43 45  1  0  0  0  0
 43 46  1  0  0  0  0
 44 48  1  0  0  0  0
 45 50  1  0  0  0  0
 46 65  1  0  0  0  0
 47 50  1  0  0  0  0
 47 65  1  0  0  0  0
 48 70  1  0  0  0  0
 49 66  1  0  0  0  0
 50 64  1  0  0  0  0
 52 59  1  0  0  0  0
 53 60  1  0  0  0  0
 54 61  1  0  0  0  0
 55 61  1  0  0  0  0
 56 61  1  0  0  0  0
 57 72  1  0  0  0  0
 58 61  1  0  0  0  0
 58 71  1  0  0  0  0
 59 72  1  0  0  0  0
 60 80  1  0  0  0  0
 62 64  1  0  0  0  0
M  CHG  1  72   1
M  ISO  4  32 100  34 100  60 101  80 101
M  END
> <Batch ID>
0187

> <Smiles>
CNC(C)C(=O)NC(C(=O)N1Cc2cc([101O:1][101CH:1](C)C(=O)Nc3nc(C)c(C=[100CH:0][100C:0](=O)N4CCCC(n5nc(-c6ccc(Oc7ccc(F)cc7F)cc6)c(C(N)=O)c5N)C4)s3)ccc2CC1C(=O)NC1CCCc2ccccc21)C(C)(C)C

> <Shape>
0.291

> <Color>
0.107

> <Negative vol penalty>
0.000

$$$$

  -OEChem-04052305123D

 87 95  0     1  0  0  0  0  0999 V2000
  -22.1462  -25.2710   13.5635 C   0  0  0  0  0  0  0  0  0  0  0  0
  -22.2656  -25.9158   14.7904 C   0  0  0  0  0  0  0  0  0  0  0  0
  -25.6398  -15.9829   21.5026 C   0  0  0  0  0  0  0  0  0  0  0  0
  -26.4282  -17.8994   20.2605 C   0  0  0  0  0  0  0  0  0  0  0  0
  -22.6989  -24.0032   13.3869 C   0  0  0  0  0  0  0  0  0  0  0  0
  -22.9369  -25.2928   15.8418 C   0  0  0  0  0  0  0  0  0  0  0  0
  -26.1030  -28.4247   18.2527 C   0  0  0  0  0  0  0  0  0  0  0  0
  -26.2083  -15.1338   20.5533 C   0  0  0  0  0  0  0  0  0  0  0  0
  -26.9968  -17.0502   19.3112 C   0  0  0  0  0  0  0  0  0  0  0  0
  -25.5416  -29.3269   19.1553 C   0  0  0  0  0  0  0  0  0  0  0  0
  -27.7628  -12.4568   18.6473 C   0  0  0  0  0  0  0  0  0  0  0  0
  -28.4856  -11.3575   19.1106 C   0  0  0  0  0  0  0  0  0  0  0  0
  -26.1700  -27.8816   20.9816 C   0  0  0  0  0  0  0  0  0  0  0  0
  -18.6528  -26.7634   22.6706 C   0  0  0  0  0  0  0  0  0  0  0  0
  -30.0047  -12.8418   20.2622 C   0  0  0  0  0  0  0  0  0  0  0  0
  -25.7497  -17.3658   21.3562 C   0  0  0  0  0  0  0  0  0  0  0  0
  -25.7722  -18.7474   23.5005 C   0  0  0  0  0  0  0  0  0  0  0  0
  -23.3857  -23.3684   14.4338 C   0  0  0  0  0  0  0  0  0  0  0  0
  -26.6934  -27.2369   18.7078 C   0  0  0  0  0  0  0  0  0  0  0  0
  -23.4982  -24.0148   15.6795 C   0  0  0  0  0  0  0  0  0  0  0  0
  -26.7404  -26.9672   20.0830 C   0  0  0  0  0  0  0  0  0  0  0  0
  -19.1309  -27.9379   22.0210 C   0  0  0  0  0  0  0  0  0  0  0  0
  -26.8868  -15.6673   19.4576 C   0  0  0  0  0  0  0  0  0  0  0  0
  -25.5725  -29.0541   20.5197 C   0  0  0  0  0  0  0  0  0  0  0  0
  -28.1610  -13.7487   18.9913 C   0  0  0  0  0  0  0  0  0  0  0  0
  -29.6065  -11.5500   19.9181 C   0  0  0  0  0  0  0  0  0  0  0  0
  -29.2820  -13.9411   19.7988 C   0  0  0  0  0  0  0  0  0  0  0  0
  -25.1621  -18.2435   22.3362 C   0  0  0  0  0  0  0  0  0  0  0  0
  -19.5229  -26.3185   23.6415 C   0  0  0  0  0  0  0  0  0  0  0  0
  -24.8041  -19.5262   24.0859 C   0  0  0  0  0  0  0  0  0  0  0  0
  -20.3483  -28.3462   22.5203 C   0  0  0  0  0  0  0  0  0  0  0  0
  -27.0958  -18.5310   24.0075 C   0  0  0  0  0  0  0  0  0  0  0  0
  -26.1198  -24.1398   18.2804 C   0  0  0  0  0  0  0  0  0  0  0  0
  -28.8758  -23.7966   19.9564 C   0  0  0  0  0  0  0  0  0  0  0  0
  -31.0887  -25.1153   22.1948 C   0  0  0  0  0  0  0  0  0  0  0  0
  -22.4006  -29.7842   22.7371 C   0  0  0  0  0  0  0  0  0  0  0  0
  -20.9327  -23.3767   23.7213 C   0  0  0  0  0  0  0  0  0  0  0  0
  -23.9254  -21.9779   14.2100 C   0  0  0  0  0  0  0  0  0  0  0  0
  -27.3182  -26.2867   17.7233 C   0  0  0  0  0  0  0  0  0  0  0  0
  -27.3804  -25.7158   20.6242 C   0  0  0  0  0  0  0  0  0  0  0  0
  -24.9455  -21.5442   15.2595 C   0  0  0  0  0  0  0  0  0  0  0  0
  -19.8725  -19.9812   23.0546 C   0  0  0  0  0  0  0  0  0  0  0  0
  -24.4413  -21.8718   16.6614 C   0  0  0  0  0  0  0  0  0  0  0  0
  -21.2168  -19.2668   22.9043 C   0  0  0  0  0  0  0  0  0  0  0  0
  -19.9219  -21.3840   22.4563 C   0  0  0  0  0  0  0  0  0  0  0  0
  -22.3493  -21.5373   22.8540 C   0  0  0  0  0  0  0  0  0  0  0  0
  -24.2405  -23.3820   16.8365 C   0  0  1  0  0  0  0  0  0  0  0  0
  -27.4365  -24.8633   18.2593 C   0  0  1  0  0  0  0  0  0  0  0  0
  -22.3710  -20.1221   23.4596 C   0  0  2  0  0  0  0  0  0  0  0  0
  -33.2258  -24.5841   23.3983 C   0  0  0  0  0  0  0  0  0  0  0  0
  -27.3496  -21.9509   21.8469 C   0  0  0  0  0  0  0  0  0  0  0  0
  -29.2105  -22.2200   23.5000 C   0  0  0  0  0  0  0  0  0  0  0  0
  -29.6598  -21.1813   21.2769 C   0  0  0  0  0  0  0  0  0  0  0  0
  -32.4930  -27.4054   20.9529 C   0  0  0  0  0  0  0  0  0  0  0  0
  -19.3890  -25.1434   24.5294 C   0  0  0  0  0  0  0  0  0  0  0  0
  -23.9210  -30.7120   20.9437 C   0  0  0  0  0  0  0  0  0  1  0  0
  -29.2290  -23.6685   21.4185 C   0  0  1  0  0  0  0  0  0  0  0  0
  -32.6025  -25.2262   22.1687 C   0  0  2  0  0  0  0  0  0  0  0  0
  -22.9841  -31.0329   22.0988 C   0  0  2  0  0  0  0  0  0  0  0  0
  -18.3945  -28.6320   20.9372 C   0  0  0  0  0  0  0  0  0  0  0  0
  -28.8484  -22.2779   22.0006 C   0  0  0  0  0  0  0  0  0  0  0  0
  -23.9038  -18.6665   22.1891 N   0  0  0  0  0  0  0  0  0  0  0  0
  -23.7152  -19.4443   23.2687 N   0  0  0  0  0  0  0  0  0  0  0  0
  -27.9721  -24.8149   19.6213 N   0  0  0  0  0  0  0  0  0  0  0  0
  -21.0306  -22.1518   23.0405 N   0  0  0  0  0  0  0  0  0  0  0  0
  -24.7864  -20.2661   25.2149 N   0  0  0  0  0  0  0  0  0  0  0  0
  -27.9623  -17.7028   23.2812 N   0  0  0  0  0  0  0  0  0  0  0  0
  -21.1759  -29.4417   22.1780 N   0  0  0  0  0  0  0  0  0  0  0  0
  -25.5126  -24.0404   17.0431 N   0  0  0  0  0  0  0  0  0  0  0  0
  -30.6472  -23.9933   21.5258 N   0  0  0  0  0  0  0  0  0  0  0  0
  -19.6495  -23.8943   23.8490 N   0  0  0  0  0  0  0  0  0  0  0  0
  -33.0163  -26.6572   22.1249 N   0  3  0  0  0  0  0  0  0  0  0  0
  -27.4926  -19.0432   25.0816 O   0  0  0  0  0  0  0  0  0  0  0  0
  -25.6874  -23.7027   19.3405 O   0  0  0  0  0  0  0  0  0  0  0  0
  -29.3884  -23.0262   19.1407 O   0  0  0  0  0  0  0  0  0  0  0  0
  -30.3701  -25.9393   22.7561 O   0  0  0  0  0  0  0  0  0  0  0  0
  -22.9984  -29.2116   23.6436 O   0  0  0  0  0  0  0  0  0  0  0  0
  -21.9159  -23.9635   24.1861 O   0  0  0  0  0  0  0  0  0  0  0  0
  -27.4419  -14.8390   18.5311 O   0  0  0  0  0  0  0  0  0  0  0  0
  -25.0247  -29.9327   21.4028 O   0  0  0  0  0  0  0  0  0  1  0  0
  -30.2996  -10.4942   20.3643 F   0  0  0  0  0  0  0  0  0  0  0  0
  -29.6687  -15.1797   20.1337 F   0  0  0  0  0  0  0  0  0  0  0  0
  -23.6815  -31.7576   23.0205 F   0  0  0  0  0  0  0  0  0  0  0  0
  -17.2025  -28.0429   20.6090 F   0  0  0  0  0  0  0  0  0  0  0  0
  -18.0724  -29.9308   21.2279 F   0  0  0  0  0  0  0  0  0  0  0  0
  -19.0993  -28.6911   19.7659 F   0  0  0  0  0  0  0  0  0  0  0  0
  -20.9097  -27.3152   23.7669 S   0  0  0  0  0  0  0  0  0  0  0  0
  1  2  1  0  0  0  0
  1  5  2  0  0  0  0
  2  6  2  0  0  0  0
  3  8  2  0  0  0  0
  3 16  1  0  0  0  0
  4  9  1  0  0  0  0
  4 16  2  0  0  0  0
  5 18  1  0  0  0  0
  6 20  1  0  0  0  0
  7 10  2  0  0  0  0
  7 19  1  0  0  0  0
  8 23  1  0  0  0  0
  9 23  2  0  0  0  0
 10 24  1  0  0  0  0
 11 12  2  0  0  0  0
 11 25  1  0  0  0  0
 12 26  1  0  0  0  0
 13 21  1  0  0  0  0
 13 24  2  0  0  0  0
 14 22  1  0  0  0  0
 14 29  2  0  0  0  0
 15 26  2  0  0  0  0
 15 27  1  0  0  0  0
 16 28  1  0  0  0  0
 17 28  1  0  0  0  0
 17 30  2  0  0  0  0
 17 32  1  0  0  0  0
 18 20  2  0  0  0  0
 18 38  1  0  0  0  0
 19 21  2  0  0  0  0
 19 39  1  0  0  0  0
 20 47  1  0  0  0  0
 21 40  1  0  0  0  0
 22 31  2  0  0  0  0
 22 60  1  0  0  0  0
 23 79  1  0  0  0  0
 24 80  1  0  0  0  0
 25 27  2  0  0  0  0
 25 79  1  0  0  0  0
 26 81  1  0  0  0  0
 27 82  1  0  0  0  0
 28 62  2  0  0  0  0
 29 55  1  0  0  0  0
 29 87  1  0  0  0  0
 30 63  1  0  0  0  0
 30 66  1  0  0  0  0
 31 68  1  0  0  0  0
 31 87  1  0  0  0  0
 32 67  1  0  0  0  0
 32 73  2  0  0  0  0
 33 48  1  0  0  0  0
 33 69  1  0  0  0  0
 33 74  2  0  0  0  0
 34 57  1  0  0  0  0
 34 64  1  0  0  0  0
 34 75  2  0  0  0  0
 35 58  1  0  0  0  0
 35 70  1  0  0  0  0
 35 76  2  0  0  0  0
 36 59  1  0  0  0  0
 36 68  1  0  0  0  0
 36 77  2  0  0  0  0
 37 65  1  0  0  0  0
 37 71  1  0  0  0  0
 37 78  2  0  0  0  0
 38 41  1  0  0  0  0
 39 48  1  0  0  0  0
 40 64  1  0  0  0  0
 41 43  1  0  0  0  0
 42 44  1  0  0  0  0
 42 45  1  0  0  0  0
 43 47  1  0  0  0  0
 44 49  1  0  0  0  0
 45 65  1  0  0  0  0
 46 49  1  0  0  0  0
 46 65  1  0  0  0  0
 47 69  1  0  0  0  0
 48 64  1  0  0  0  0
 49 63  1  0  0  0  0
 50 58  1  0  0  0  0
 51 61  1  0  0  0  0
 52 61  1  0  0  0  0
 53 61  1  0  0  0  0
 54 72  1  0  0  0  0
 55 71  1  0  0  0  0
 56 59  1  0  0  0  0
 56 80  1  0  0  0  0
 57 61  1  0  0  0  0
 57 70  1  0  0  0  0
 58 72  1  0  0  0  0
 59 83  1  0  0  0  0
 60 84  1  0  0  0  0
 60 85  1  0  0  0  0
 60 86  1  0  0  0  0
 62 63  1  0  0  0  0
M  CHG  1  72   1
M  ISO  4  37 100  56 101  71 100  80 101
M  END
> <Batch ID>
0187

> <Smiles>
CNC(C)C(=O)NC(C(=O)N1Cc2cc([101O:1][101CH2:1]C(F)C(=O)Nc3sc(C[100NH:0][100C:0](=O)N4CCCC(n5nc(-c6ccc(Oc7ccc(F)cc7F)cc6)c(C(N)=O)c5N)C4)cc3C(F)(F)F)ccc2CC1C(=O)NC1CCCc2ccccc21)C(C)(C)C

> <Shape>
0.185

> <Color>
0.092

> <Negative vol penalty>
0.000

$$$$

  -OEChem-04052305123D

 81 89  0     1  0  0  0  0  0999 V2000
  -16.5582  -30.2983   22.5819 C   0  0  0  0  0  0  0  0  0  0  0  0
  -17.2891  -29.8856   21.4724 C   0  0  0  0  0  0  0  0  0  0  0  0
  -26.3623  -12.6448   21.6386 C   0  0  0  0  0  0  0  0  0  0  0  0
  -25.9238  -13.5561   19.4445 C   0  0  0  0  0  0  0  0  0  0  0  0
  -17.2177  -30.8094   23.6989 C   0  0  0  0  0  0  0  0  0  0  0  0
  -18.6799  -29.9848   21.4790 C   0  0  0  0  0  0  0  0  0  0  0  0
  -22.6567  -26.1475   18.8395 C   0  0  0  0  0  0  0  0  0  0  0  0
  -25.1449  -11.9652   21.5997 C   0  0  0  0  0  0  0  0  0  0  0  0
  -24.7064  -12.8764   19.4055 C   0  0  0  0  0  0  0  0  0  0  0  0
  -23.3475  -26.1986   17.6296 C   0  0  0  0  0  0  0  0  0  0  0  0
  -23.9053   -9.1545   20.1868 C   0  0  0  0  0  0  0  0  0  0  0  0
  -23.8941   -7.8208   20.5951 C   0  0  0  0  0  0  0  0  0  0  0  0
  -25.2661  -27.1132   18.7705 C   0  0  0  0  0  0  0  0  0  0  0  0
  -22.3070   -8.3662   22.3332 C   0  0  0  0  0  0  0  0  0  0  0  0
  -26.7518  -13.4404   20.5610 C   0  0  0  0  0  0  0  0  0  0  0  0
  -29.2595  -13.6741   20.1560 C   0  0  0  0  0  0  0  0  0  0  0  0
  -18.6180  -30.9059   23.7229 C   0  0  0  0  0  0  0  0  0  0  0  0
  -23.2627  -26.5898   20.0243 C   0  0  0  0  0  0  0  0  0  0  0  0
  -19.3587  -30.4989   22.5968 C   0  0  0  0  0  0  0  0  0  0  0  0
  -24.5818  -27.0642   19.9946 C   0  0  0  0  0  0  0  0  0  0  0  0
  -24.3169  -12.0809   20.4832 C   0  0  0  0  0  0  0  0  0  0  0  0
  -24.6513  -26.6842   17.5944 C   0  0  0  0  0  0  0  0  0  0  0  0
  -23.1174  -10.0941   20.8518 C   0  0  0  0  0  0  0  0  0  0  0  0
  -23.0950   -7.4266   21.6683 C   0  0  0  0  0  0  0  0  0  0  0  0
  -22.3183   -9.6999   21.9249 C   0  0  0  0  0  0  0  0  0  0  0  0
  -28.0090  -14.1431   20.6009 C   0  0  0  0  0  0  0  0  0  0  0  0
  -30.1253  -14.7092   20.4119 C   0  0  0  0  0  0  0  0  0  0  0  0
  -28.3405  -21.7508   18.9663 C   0  0  0  0  0  0  0  0  0  0  0  0
  -27.6340  -23.0846   17.1528 C   0  0  0  0  0  0  0  0  0  0  0  0
  -29.6074  -12.4154   19.5641 C   0  0  0  0  0  0  0  0  0  0  0  0
  -22.6513  -28.8870   22.1344 C   0  0  0  0  0  0  0  0  0  0  0  0
  -25.0988  -27.5098   23.7579 C   0  0  0  0  0  0  0  0  0  0  0  0
  -27.9261  -25.6008   23.6650 C   0  0  0  0  0  0  0  0  0  0  0  0
  -29.3815  -20.6129   20.9583 C   0  0  0  0  0  0  0  0  0  0  0  0
  -19.2835  -31.5090   24.9345 C   0  0  0  0  0  0  0  0  0  0  0  0
  -22.5135  -26.5031   21.3257 C   0  0  0  0  0  0  0  0  0  0  0  0
  -25.2845  -27.5321   21.2419 C   0  0  0  0  0  0  0  0  0  0  0  0
  -20.7829  -31.2321   25.0070 C   0  0  0  0  0  0  0  0  0  0  0  0
  -30.7656  -18.4073   23.3866 C   0  0  0  0  0  0  0  0  0  0  0  0
  -21.4402  -31.4948   23.6558 C   0  0  0  0  0  0  0  0  0  0  0  0
  -30.3347  -17.0203   22.9040 C   0  0  0  0  0  0  0  0  0  0  0  0
  -29.6834  -19.4562   23.1368 C   0  0  0  0  0  0  0  0  0  0  0  0
  -28.7605  -18.1368   21.2722 C   0  0  0  0  0  0  0  0  0  0  0  0
  -20.8703  -30.5676   22.5755 C   0  0  1  0  0  0  0  0  0  0  0  0
  -23.0473  -27.4598   22.3873 C   0  0  1  0  0  0  0  0  0  0  0  0
  -29.8437  -17.0592   21.4435 C   0  0  2  0  0  0  0  0  0  0  0  0
  -29.7303  -24.6793   25.1458 C   0  0  0  0  0  0  0  0  0  0  0  0
  -28.6340  -24.6595   14.5899 C   0  0  0  0  0  0  0  0  0  0  0  0
  -26.4044  -30.2650   23.8777 C   0  0  0  0  0  0  0  0  0  0  0  0
  -28.5568  -29.1416   24.4887 C   0  0  0  0  0  0  0  0  0  0  0  0
  -26.5751  -28.9370   25.9899 C   0  0  0  0  0  0  0  0  0  0  0  0
  -27.2028  -22.8081   23.0043 C   0  0  0  0  0  0  0  0  0  0  0  0
  -26.2420  -25.4488   14.6062 C   0  0  0  0  0  0  0  0  0  0  0  0
  -24.9971  -25.7542   15.4331 C   0  0  0  0  0  0  0  0  0  1  0  0
  -26.5971  -27.6919   23.7896 C   0  0  1  0  0  0  0  0  0  0  0  0
  -28.3734  -24.4214   24.5096 C   0  0  2  0  0  0  0  0  0  0  0  0
  -27.3938  -24.8902   15.4476 C   0  0  1  0  0  0  0  0  0  0  0  0
  -27.0197  -29.0020   24.5125 C   0  0  0  0  0  0  0  0  0  0  0  0
  -28.0705  -15.3798   21.1017 N   0  0  0  0  0  0  0  0  0  0  0  0
  -29.0713  -22.8387   18.8472 N   0  0  0  0  0  0  0  0  0  0  0  0
  -28.6562  -23.6216   17.7840 N   0  0  0  0  0  0  0  0  0  0  0  0
  -29.3702  -15.6967   20.9730 N   0  0  0  0  0  0  0  0  0  0  0  0
  -24.5079  -27.4335   22.4887 N   0  0  0  0  0  0  0  0  0  0  0  0
  -29.2707  -19.4381   21.7317 N   0  0  0  0  0  0  0  0  0  0  0  0
  -31.4513  -14.8619   20.2095 N   0  0  0  0  0  0  0  0  0  0  0  0
  -28.5955  -11.4648   19.3724 N   0  0  0  0  0  0  0  0  0  0  0  0
  -28.4544  -20.7101   19.9212 N   0  0  0  0  0  0  0  0  0  0  0  0
  -27.0022  -23.6336   16.0514 N   0  0  0  0  0  0  0  0  0  0  0  0
  -21.4394  -29.2424   22.6953 N   0  0  0  0  0  0  0  0  0  0  0  0
  -27.1433  -26.4775   24.3859 N   0  0  0  0  0  0  0  0  0  0  0  0
  -28.4729  -23.1927   23.6721 N   0  3  0  0  0  0  0  0  0  0  0  0
  -30.7839  -12.1355   19.2307 O   0  0  0  0  0  0  0  0  0  0  0  0
  -23.3912  -29.6124   21.4802 O   0  0  0  0  0  0  0  0  0  0  0  0
  -24.4766  -27.4309   24.8201 O   0  0  0  0  0  0  0  0  0  0  0  0
  -28.2429  -25.7332   22.4849 O   0  0  0  0  0  0  0  0  0  0  0  0
  -30.2534  -21.4568   21.1812 O   0  0  0  0  0  0  0  0  0  0  0  0
  -23.1290  -11.4177   20.4447 O   0  0  0  0  0  0  0  0  0  0  0  0
  -25.3276  -26.7358   16.4147 O   0  0  0  0  0  0  0  0  0  1  0  0
  -23.0831   -6.1456   22.0592 F   0  0  0  0  0  0  0  0  0  0  0  0
  -21.5583  -10.5978   22.5669 F   0  0  0  0  0  0  0  0  0  0  0  0
  -27.0949  -21.5898   17.7982 S   0  0  0  0  0  0  0  0  0  0  0  0
  1  2  1  0  0  0  0
  1  5  2  0  0  0  0
  2  6  2  0  0  0  0
  3  8  2  0  0  0  0
  3 15  1  0  0  0  0
  4  9  1  0  0  0  0
  4 15  2  0  0  0  0
  5 17  1  0  0  0  0
  6 19  1  0  0  0  0
  7 10  2  0  0  0  0
  7 18  1  0  0  0  0
  8 21  1  0  0  0  0
  9 21  2  0  0  0  0
 10 22  1  0  0  0  0
 11 12  2  0  0  0  0
 11 23  1  0  0  0  0
 12 24  1  0  0  0  0
 13 20  1  0  0  0  0
 13 22  2  0  0  0  0
 14 24  2  0  0  0  0
 14 25  1  0  0  0  0
 15 26  1  0  0  0  0
 16 26  1  0  0  0  0
 16 27  2  0  0  0  0
 16 30  1  0  0  0  0
 17 19  2  0  0  0  0
 17 35  1  0  0  0  0
 18 20  2  0  0  0  0
 18 36  1  0  0  0  0
 19 44  1  0  0  0  0
 20 37  1  0  0  0  0
 21 77  1  0  0  0  0
 22 78  1  0  0  0  0
 23 25  2  0  0  0  0
 23 77  1  0  0  0  0
 24 79  1  0  0  0  0
 25 80  1  0  0  0  0
 26 59  2  0  0  0  0
 27 62  1  0  0  0  0
 27 65  1  0  0  0  0
 28 60  2  0  0  0  0
 28 67  1  0  0  0  0
 28 81  1  0  0  0  0
 29 61  2  0  0  0  0
 29 68  1  0  0  0  0
 29 81  1  0  0  0  0
 30 66  1  0  0  0  0
 30 72  2  0  0  0  0
 31 45  1  0  0  0  0
 31 69  1  0  0  0  0
 31 73  2  0  0  0  0
 32 55  1  0  0  0  0
 32 63  1  0  0  0  0
 32 74  2  0  0  0  0
 33 56  1  0  0  0  0
 33 70  1  0  0  0  0
 33 75  2  0  0  0  0
 34 64  1  0  0  0  0
 34 67  1  0  0  0  0
 34 76  2  0  0  0  0
 35 38  1  0  0  0  0
 36 45  1  0  0  0  0
 37 63  1  0  0  0  0
 38 40  1  0  0  0  0
 39 41  1  0  0  0  0
 39 42  1  0  0  0  0
 40 44  1  0  0  0  0
 41 46  1  0  0  0  0
 42 64  1  0  0  0  0
 43 46  1  0  0  0  0
 43 64  1  0  0  0  0
 44 69  1  0  0  0  0
 45 63  1  0  0  0  0
 46 62  1  0  0  0  0
 47 56  1  0  0  0  0
 48 57  1  0  0  0  0
 49 58  1  0  0  0  0
 50 58  1  0  0  0  0
 51 58  1  0  0  0  0
 52 71  1  0  0  0  0
 53 54  1  0  0  0  0
 53 57  1  0  0  0  0
 54 78  1  0  0  0  0
 55 58  1  0  0  0  0
 55 70  1  0  0  0  0
 56 71  1  0  0  0  0
 57 68  1  0  0  0  0
 59 62  1  0  0  0  0
 60 61  1  0  0  0  0
M  CHG  1  71   1
M  ISO  4  34 100  54 101  67 100  78 101
M  END
> <Batch ID>
0187

> <Smiles>
CNC(C)C(=O)NC(C(=O)N1Cc2cc([101O:1][101CH2:1]CC(C)Nc3nnc([100NH:0][100C:0](=O)N4CCCC(n5nc(-c6ccc(Oc7ccc(F)cc7F)cc6)c(C(N)=O)c5N)C4)s3)ccc2CC1C(=O)NC1CCCc2ccccc21)C(C)(C)C

> <Shape>
0.249

> <Color>
0.092

> <Negative vol penalty>
0.000

$$$$

  -OEChem-04052305123D

 85 93  0     1  0  0  0  0  0999 V2000
  -28.1936  -38.1995   23.9969 C   0  0  0  0  0  0  0  0  0  0  0  0
  -28.7457  -36.9771   23.6275 C   0  0  0  0  0  0  0  0  0  0  0  0
  -24.7273   -8.6415   21.4224 C   0  0  0  0  0  0  0  0  0  0  0  0
  -23.0733  -10.3927   21.2359 C   0  0  0  0  0  0  0  0  0  0  0  0
  -27.0439  -38.2342   24.7848 C   0  0  0  0  0  0  0  0  0  0  0  0
  -28.1487  -35.7886   24.0467 C   0  0  0  0  0  0  0  0  0  0  0  0
  -27.0292  -29.0451   21.9049 C   0  0  0  0  0  0  0  0  0  0  0  0
  -23.9286   -7.9870   22.3601 C   0  0  0  0  0  0  0  0  0  0  0  0
  -22.2746   -9.7382   22.1736 C   0  0  0  0  0  0  0  0  0  0  0  0
  -27.1967  -27.7331   22.3458 C   0  0  0  0  0  0  0  0  0  0  0  0
  -21.1842   -6.0119   22.3492 C   0  0  0  0  0  0  0  0  0  0  0  0
  -21.0152   -4.6346   22.2081 C   0  0  0  0  0  0  0  0  0  0  0  0
  -25.1678  -27.9147   23.6380 C   0  0  0  0  0  0  0  0  0  0  0  0
  -21.9901   -4.2913   24.3919 C   0  0  0  0  0  0  0  0  0  0  0  0
  -24.2997   -9.8444   20.8603 C   0  0  0  0  0  0  0  0  0  0  0  0
  -25.1054  -10.3547   18.4943 C   0  0  0  0  0  0  0  0  0  0  0  0
  -26.4271  -37.0455   25.2058 C   0  0  0  0  0  0  0  0  0  0  0  0
  -25.9337  -29.8066   22.3366 C   0  0  0  0  0  0  0  0  0  0  0  0
  -26.9904  -35.8075   24.8421 C   0  0  0  0  0  0  0  0  0  0  0  0
  -24.9873  -29.2353   23.1991 C   0  0  0  0  0  0  0  0  0  0  0  0
  -22.7023   -8.5353   22.7357 C   0  0  0  0  0  0  0  0  0  0  0  0
  -26.2675  -27.1687   23.2147 C   0  0  0  0  0  0  0  0  0  0  0  0
  -21.7562   -6.5290   23.5116 C   0  0  0  0  0  0  0  0  0  0  0  0
  -21.4181   -3.7743   23.2295 C   0  0  0  0  0  0  0  0  0  0  0  0
  -22.1591   -5.6687   24.5330 C   0  0  0  0  0  0  0  0  0  0  0  0
  -25.1245  -10.5213   19.8920 C   0  0  0  0  0  0  0  0  0  0  0  0
  -26.5309  -20.1879   19.6715 C   0  0  0  0  0  0  0  0  0  0  0  0
  -26.0694  -11.2172   18.0325 C   0  0  0  0  0  0  0  0  0  0  0  0
  -25.1859  -19.8948   19.5867 C   0  0  0  0  0  0  0  0  0  0  0  0
  -26.6533  -18.0097   19.8954 C   0  0  0  0  0  0  0  0  0  0  0  0
  -24.2892   -9.4971   17.6857 C   0  0  0  0  0  0  0  0  0  0  0  0
  -25.5855  -32.4972   23.9928 C   0  0  0  0  0  0  0  0  0  0  0  0
  -22.4574  -32.1036   23.2295 C   0  0  0  0  0  0  0  0  0  0  0  0
  -19.9379  -29.9820   22.3366 C   0  0  0  0  0  0  0  0  0  0  0  0
  -28.4288  -16.2523   20.2205 C   0  0  0  0  0  0  0  0  0  0  0  0
  -25.2126  -37.1336   26.0957 C   0  0  0  0  0  0  0  0  0  0  0  0
  -25.7530  -31.2116   21.8307 C   0  0  0  0  0  0  0  0  0  0  0  0
  -23.7830  -30.0038   23.6760 C   0  0  0  0  0  0  0  0  0  0  0  0
  -24.4275  -35.8276   26.1859 C   0  0  0  0  0  0  0  0  0  0  0  0
  -30.1862  -13.2820   19.3451 C   0  0  0  0  0  0  0  0  0  0  0  0
  -25.3713  -34.6524   26.4201 C   0  0  0  0  0  0  0  0  0  0  0  0
  -29.0851  -12.2231   19.2528 C   0  0  0  0  0  0  0  0  0  0  0  0
  -29.9201  -14.2804   20.4704 C   0  0  0  0  0  0  0  0  0  0  0  0
  -27.4963  -13.8583   20.3432 C   0  0  0  0  0  0  0  0  0  0  0  0
  -26.3578  -34.4967   25.2564 C   0  0  1  0  0  0  0  0  0  0  0  0
  -24.8759  -32.0661   22.7405 C   0  0  1  0  0  0  0  0  0  0  0  0
  -27.6872  -12.8684   19.1825 C   0  0  2  0  0  0  0  0  0  0  0  0
  -17.4824  -29.9467   21.8203 C   0  0  0  0  0  0  0  0  0  0  0  0
  -26.9617  -21.1253   22.7788 C   0  0  0  0  0  0  0  0  0  0  0  0
  -26.7798  -22.1694   18.1998 C   0  0  0  0  0  0  0  0  0  0  0  0
  -28.7103  -21.5840   19.6436 C   0  0  0  0  0  0  0  0  0  0  0  0
  -21.8306  -32.3396   26.2063 C   0  0  0  0  0  0  0  0  0  0  0  0
  -19.5718  -31.3674   25.7366 C   0  0  0  0  0  0  0  0  0  0  0  0
  -20.2313  -33.5408   24.7050 C   0  0  0  0  0  0  0  0  0  0  0  0
  -20.4122  -28.9984   19.5859 C   0  0  0  0  0  0  0  0  0  0  0  0
  -26.5754  -23.5752   23.0312 C   0  0  0  0  0  0  0  0  0  0  0  0
  -26.6237  -22.5784   20.6790 C   0  0  0  0  0  0  0  0  0  0  0  0
  -27.0937  -24.9842   22.7658 C   0  0  0  0  0  0  0  0  0  1  0  0
  -21.2823  -31.4004   23.8647 C   0  0  1  0  0  0  0  0  0  0  0  0
  -18.8852  -30.0706   21.2464 C   0  0  2  0  0  0  0  0  0  0  0  0
  -27.1910  -22.4875   22.1200 C   0  0  2  0  0  0  0  0  0  0  0  0
  -27.1641  -21.5889   19.5881 C   0  0  0  0  0  0  0  0  0  0  0  0
  -20.7526  -32.1479   25.1209 C   0  0  0  0  0  0  0  0  0  0  0  0
  -26.0291  -11.4189   20.2920 N   0  0  0  0  0  0  0  0  0  0  0  0
  -27.3738  -19.1082   19.8490 N   0  0  0  0  0  0  0  0  0  0  0  0
  -26.5874  -11.8241   19.1387 N   0  0  0  0  0  0  0  0  0  0  0  0
  -23.6538  -31.3760   23.1583 N   0  0  0  0  0  0  0  0  0  0  0  0
  -28.5794  -14.8542   20.3363 N   0  0  0  0  0  0  0  0  0  0  0  0
  -26.5161  -11.5081   16.7922 N   0  0  0  0  0  0  0  0  0  0  0  0
  -24.1522  -20.7544   19.4157 N   0  0  0  0  0  0  0  0  0  0  0  0
  -23.3486   -8.6755   18.3218 N   0  0  0  0  0  0  0  0  0  0  0  0
  -27.1103  -16.6793   20.0655 N   0  0  0  0  0  0  0  0  0  0  0  0
  -25.7102  -33.8670   24.1257 N   0  0  0  0  0  0  0  0  0  0  0  0
  -20.2901  -31.2286   22.8090 N   0  0  0  0  0  0  0  0  0  0  0  0
  -19.0819  -28.9829   20.2468 N   0  3  0  0  0  0  0  0  0  0  0  0
  -24.4022   -9.4485   16.4373 O   0  0  0  0  0  0  0  0  0  0  0  0
  -25.9887  -31.6499   24.7810 O   0  0  0  0  0  0  0  0  0  0  0  0
  -22.3170  -33.2535   22.8056 O   0  0  0  0  0  0  0  0  0  0  0  0
  -20.3987  -28.9135   22.7323 O   0  0  0  0  0  0  0  0  0  0  0  0
  -29.4003  -17.0125   20.2289 O   0  0  0  0  0  0  0  0  0  0  0  0
  -21.9226   -7.8967   23.6505 O   0  0  0  0  0  0  0  0  0  0  0  0
  -26.4289  -25.8885   23.6472 O   0  0  0  0  0  0  0  0  0  1  0  0
  -21.2544   -2.4517   23.0945 F   0  0  0  0  0  0  0  0  0  0  0  0
  -22.7082   -6.1597   25.6525 F   0  0  0  0  0  0  0  0  0  0  0  0
  -24.9559  -18.2015   19.7318 S   0  0  0  0  0  0  0  0  0  0  0  0
  1  2  1  0  0  0  0
  1  5  2  0  0  0  0
  2  6  2  0  0  0  0
  3  8  2  0  0  0  0
  3 15  1  0  0  0  0
  4  9  1  0  0  0  0
  4 15  2  0  0  0  0
  5 17  1  0  0  0  0
  6 19  1  0  0  0  0
  7 10  2  0  0  0  0
  7 18  1  0  0  0  0
  8 21  1  0  0  0  0
  9 21  2  0  0  0  0
 10 22  1  0  0  0  0
 11 12  2  0  0  0  0
 11 23  1  0  0  0  0
 12 24  1  0  0  0  0
 13 20  1  0  0  0  0
 13 22  2  0  0  0  0
 14 24  2  0  0  0  0
 14 25  1  0  0  0  0
 15 26  1  0  0  0  0
 16 26  1  0  0  0  0
 16 28  2  0  0  0  0
 16 31  1  0  0  0  0
 17 19  2  0  0  0  0
 17 36  1  0  0  0  0
 18 20  2  0  0  0  0
 18 37  1  0  0  0  0
 19 45  1  0  0  0  0
 20 38  1  0  0  0  0
 21 81  1  0  0  0  0
 22 82  1  0  0  0  0
 23 25  2  0  0  0  0
 23 81  1  0  0  0  0
 24 83  1  0  0  0  0
 25 84  1  0  0  0  0
 26 64  2  0  0  0  0
 27 29  2  0  0  0  0
 27 62  1  0  0  0  0
 27 65  1  0  0  0  0
 28 66  1  0  0  0  0
 28 69  1  0  0  0  0
 29 70  1  0  0  0  0
 29 85  1  0  0  0  0
 30 65  2  0  0  0  0
 30 72  1  0  0  0  0
 30 85  1  0  0  0  0
 31 71  1  0  0  0  0
 31 76  2  0  0  0  0
 32 46  1  0  0  0  0
 32 73  1  0  0  0  0
 32 77  2  0  0  0  0
 33 59  1  0  0  0  0
 33 67  1  0  0  0  0
 33 78  2  0  0  0  0
 34 60  1  0  0  0  0
 34 74  1  0  0  0  0
 34 79  2  0  0  0  0
 35 68  1  0  0  0  0
 35 72  1  0  0  0  0
 35 80  2  0  0  0  0
 36 39  1  0  0  0  0
 37 46  1  0  0  0  0
 38 67  1  0  0  0  0
 39 41  1  0  0  0  0
 40 42  1  0  0  0  0
 40 43  1  0  0  0  0
 41 45  1  0  0  0  0
 42 47  1  0  0  0  0
 43 68  1  0  0  0  0
 44 47  1  0  0  0  0
 44 68  1  0  0  0  0
 45 73  1  0  0  0  0
 46 67  1  0  0  0  0
 47 66  1  0  0  0  0
 48 60  1  0  0  0  0
 49 61  1  0  0  0  0
 50 62  1  0  0  0  0
 51 62  1  0  0  0  0
 52 63  1  0  0  0  0
 53 63  1  0  0  0  0
 54 63  1  0  0  0  0
 55 75  1  0  0  0  0
 56 58  1  0  0  0  0
 56 61  1  0  0  0  0
 57 61  1  0  0  0  0
 57 62  1  0  0  0  0
 58 82  1  0  0  0  0
 59 63  1  0  0  0  0
 59 74  1  0  0  0  0
 60 75  1  0  0  0  0
 64 66  1  0  0  0  0
M  CHG  1  75   1
M  ISO  4  35 100  58 101  72 100  82 101
M  END
> <Batch ID>
0187

> <Smiles>
CNC(C)C(=O)NC(C(=O)N1Cc2cc([101O:1][101CH2:1]CC(C)CC(C)(C)c3nc([100NH:0][100C:0](=O)N4CCCC(n5nc(-c6ccc(Oc7ccc(F)cc7F)cc6)c(C(N)=O)c5N)C4)sc3N)ccc2CC1C(=O)NC1CCCc2ccccc21)C(C)(C)C

> <Shape>
0.262

> <Color>
0.075

> <Negative vol penalty>
0.000

$$$$

  -OEChem-04052305123D

 83 91  0     1  0  0  0  0  0999 V2000
  -28.0740  -13.2588   17.9375 C   0  0  0  0  0  0  0  0  0  0  0  0
  -27.4901  -14.5208   17.8950 C   0  0  0  0  0  0  0  0  0  0  0  0
  -29.0942  -26.0094   21.2280 C   0  0  0  0  0  0  0  0  0  0  0  0
  -27.1073  -24.6364   21.1643 C   0  0  0  0  0  0  0  0  0  0  0  0
  -27.5448  -12.2748   18.7716 C   0  0  0  0  0  0  0  0  0  0  0  0
  -26.3758  -14.7992   18.6857 C   0  0  0  0  0  0  0  0  0  0  0  0
  -25.0024  -20.1325   21.3645 C   0  0  0  0  0  0  0  0  0  0  0  0
  -29.7890  -24.9749   21.8544 C   0  0  0  0  0  0  0  0  0  0  0  0
  -27.8021  -23.6018   21.7907 C   0  0  0  0  0  0  0  0  0  0  0  0
  -24.1452  -21.1707   21.0025 C   0  0  0  0  0  0  0  0  0  0  0  0
  -29.1526  -20.4691   23.0479 C   0  0  0  0  0  0  0  0  0  0  0  0
  -28.9971  -19.1803   22.5376 C   0  0  0  0  0  0  0  0  0  0  0  0
  -22.4233  -20.2303   22.4060 C   0  0  0  0  0  0  0  0  0  0  0  0
  -29.8691  -19.9181   20.4086 C   0  0  0  0  0  0  0  0  0  0  0  0
  -18.8331  -27.6748   23.7683 C   0  0  0  0  0  0  0  0  0  0  0  0
  -27.7533  -25.8402   20.8829 C   0  0  0  0  0  0  0  0  0  0  0  0
  -26.9192  -27.1399   18.8525 C   0  0  0  0  0  0  0  0  0  0  0  0
  -26.4293  -12.5443   19.5802 C   0  0  0  0  0  0  0  0  0  0  0  0
  -24.5721  -19.1277   22.2430 C   0  0  0  0  0  0  0  0  0  0  0  0
  -25.8303  -13.8175   19.5304 C   0  0  0  0  0  0  0  0  0  0  0  0
  -23.2778  -19.1818   22.7796 C   0  0  0  0  0  0  0  0  0  0  0  0
  -29.1430  -23.7711   22.1358 C   0  0  0  0  0  0  0  0  0  0  0  0
  -22.8544  -21.2181   21.5209 C   0  0  0  0  0  0  0  0  0  0  0  0
  -29.6663  -21.4824   22.2385 C   0  0  0  0  0  0  0  0  0  0  0  0
  -29.3554  -18.9048   21.2180 C   0  0  0  0  0  0  0  0  0  0  0  0
  -30.0246  -21.2069   20.9189 C   0  0  0  0  0  0  0  0  0  0  0  0
  -27.0348  -26.9088   20.2363 C   0  0  0  0  0  0  0  0  0  0  0  0
  -19.5267  -28.0548   22.6385 C   0  0  0  0  0  0  0  0  0  0  0  0
  -26.1416  -28.2680   18.7566 C   0  0  0  0  0  0  0  0  0  0  0  0
  -19.3574  -25.9095   22.2154 C   0  0  0  0  0  0  0  0  0  0  0  0
  -27.4657  -26.4009   17.7521 C   0  0  0  0  0  0  0  0  0  0  0  0
  -24.1828  -15.9800   22.0328 C   0  0  0  0  0  0  0  0  0  0  0  0
  -23.5565  -16.2377   25.2051 C   0  0  0  0  0  0  0  0  0  0  0  0
  -22.5329  -18.1953   27.8065 C   0  0  0  0  0  0  0  0  0  0  0  0
  -20.0442  -24.2891   20.4184 C   0  0  0  0  0  0  0  0  0  0  0  0
  -22.0706  -30.7352   22.3886 C   0  0  0  0  0  0  0  0  0  0  0  0
  -25.8640  -11.4343   20.4304 C   0  0  0  0  0  0  0  0  0  0  0  0
  -25.5179  -18.0292   22.6446 C   0  0  0  0  0  0  0  0  0  0  0  0
  -22.7742  -18.1387   23.7423 C   0  0  0  0  0  0  0  0  0  0  0  0
  -24.9096  -11.9246   21.5163 C   0  0  0  0  0  0  0  0  0  0  0  0
  -25.0332  -32.2655   21.1404 C   0  0  0  0  0  0  0  0  0  0  0  0
  -23.9154  -12.9278   20.9400 C   0  0  0  0  0  0  0  0  0  0  0  0
  -25.8717  -31.0870   20.6423 C   0  0  0  0  0  0  0  0  0  0  0  0
  -24.2522  -31.9086   22.4032 C   0  0  0  0  0  0  0  0  0  0  0  0
  -24.2543  -29.5204   21.7948 C   0  0  0  0  0  0  0  0  0  0  0  0
  -24.6357  -14.1655   20.3917 C   0  0  1  0  0  0  0  0  0  0  0  0
  -24.8026  -16.7781   23.1449 C   0  0  1  0  0  0  0  0  0  0  0  0
  -25.0166  -29.8145   20.4915 C   0  0  2  0  0  0  0  0  0  0  0  0
  -22.0859  -18.1160   30.2746 C   0  0  0  0  0  0  0  0  0  0  0  0
  -20.9395  -14.7590   24.6811 C   0  0  0  0  0  0  0  0  0  0  0  0
  -20.1322  -15.5376   26.9194 C   0  0  0  0  0  0  0  0  0  0  0  0
  -22.1347  -14.0584   26.7632 C   0  0  0  0  0  0  0  0  0  0  0  0
  -24.5952  -20.2436   28.3635 C   0  0  0  0  0  0  0  0  0  0  0  0
  -19.9623  -29.4280   22.3154 C   0  0  0  0  0  0  0  0  0  0  0  0
  -20.6187  -21.9383   21.1482 C   0  0  0  0  0  0  0  0  0  1  0  0
  -22.3171  -16.4725   26.0345 C   0  0  1  0  0  0  0  0  0  0  0  0
  -23.1126  -18.4125   29.1926 C   0  0  2  0  0  0  0  0  0  0  0  0
  -19.9129  -22.8062   20.1169 C   0  0  2  0  0  0  0  0  0  0  0  0
  -21.3894  -15.2256   26.0799 C   0  0  0  0  0  0  0  0  0  0  0  0
  -26.3830  -27.8172   20.9670 N   0  0  0  0  0  0  0  0  0  0  0  0
  -19.8286  -27.0439   21.7470 N   0  0  0  0  0  0  0  0  0  0  0  0
  -25.8504  -28.6302   20.0388 N   0  0  0  0  0  0  0  0  0  0  0  0
  -23.7344  -17.0814   24.0995 N   0  0  0  0  0  0  0  0  0  0  0  0
  -23.4610  -30.6938   22.1931 N   0  0  0  0  0  0  0  0  0  0  0  0
  -25.6855  -28.9758   17.7013 N   0  0  0  0  0  0  0  0  0  0  0  0
  -28.2414  -25.2668   18.0285 N   0  0  0  0  0  0  0  0  0  0  0  0
  -19.4427  -24.6268   21.6241 N   0  0  0  0  0  0  0  0  0  0  0  0
  -25.0296  -15.0419   21.4740 N   0  0  0  0  0  0  0  0  0  0  0  0
  -22.7807  -16.9204   27.3433 N   0  0  0  0  0  0  0  0  0  0  0  0
  -21.3956  -29.5420   22.1619 N   0  0  0  0  0  0  0  0  0  0  0  0
  -23.5662  -19.8234   29.3491 N   0  3  0  0  0  0  0  0  0  0  0  0
  -27.2855  -26.7457   16.5596 O   0  0  0  0  0  0  0  0  0  0  0  0
  -23.0218  -16.1982   21.7069 O   0  0  0  0  0  0  0  0  0  0  0  0
  -24.3415  -15.3436   25.5305 O   0  0  0  0  0  0  0  0  0  0  0  0
  -21.9184  -19.0680   27.1973 O   0  0  0  0  0  0  0  0  0  0  0  0
  -20.6185  -25.0355   19.6310 O   0  0  0  0  0  0  0  0  0  0  0  0
  -21.4744  -31.7609   22.7340 O   0  0  0  0  0  0  0  0  0  0  0  0
  -29.8208  -22.7613   22.7469 O   0  0  0  0  0  0  0  0  0  0  0  0
  -22.0154  -22.2300   21.1687 O   0  0  0  0  0  0  0  0  0  1  0  0
  -29.2074  -17.6667   20.7286 F   0  0  0  0  0  0  0  0  0  0  0  0
  -30.5198  -22.1760   20.1370 F   0  0  0  0  0  0  0  0  0  0  0  0
  -20.4403  -22.5208   18.8915 F   0  0  0  0  0  0  0  0  0  0  0  0
  -18.5399  -25.9856   23.7224 S   0  0  0  0  0  0  0  0  0  0  0  0
  1  2  1  0  0  0  0
  1  5  2  0  0  0  0
  2  6  2  0  0  0  0
  3  8  2  0  0  0  0
  3 16  1  0  0  0  0
  4  9  1  0  0  0  0
  4 16  2  0  0  0  0
  5 18  1  0  0  0  0
  6 20  1  0  0  0  0
  7 10  2  0  0  0  0
  7 19  1  0  0  0  0
  8 22  1  0  0  0  0
  9 22  2  0  0  0  0
 10 23  1  0  0  0  0
 11 12  2  0  0  0  0
 11 24  1  0  0  0  0
 12 25  1  0  0  0  0
 13 21  1  0  0  0  0
 13 23  2  0  0  0  0
 14 25  2  0  0  0  0
 14 26  1  0  0  0  0
 15 28  2  0  0  0  0
 15 83  1  0  0  0  0
 16 27  1  0  0  0  0
 17 27  1  0  0  0  0
 17 29  2  0  0  0  0
 17 31  1  0  0  0  0
 18 20  2  0  0  0  0
 18 37  1  0  0  0  0
 19 21  2  0  0  0  0
 19 38  1  0  0  0  0
 20 46  1  0  0  0  0
 21 39  1  0  0  0  0
 22 78  1  0  0  0  0
 23 79  1  0  0  0  0
 24 26  2  0  0  0  0
 24 78  1  0  0  0  0
 25 80  1  0  0  0  0
 26 81  1  0  0  0  0
 27 60  2  0  0  0  0
 28 54  1  0  0  0  0
 28 61  1  0  0  0  0
 29 62  1  0  0  0  0
 29 65  1  0  0  0  0
 30 61  2  0  0  0  0
 30 67  1  0  0  0  0
 30 83  1  0  0  0  0
 31 66  1  0  0  0  0
 31 72  2  0  0  0  0
 32 47  1  0  0  0  0
 32 68  1  0  0  0  0
 32 73  2  0  0  0  0
 33 56  1  0  0  0  0
 33 63  1  0  0  0  0
 33 74  2  0  0  0  0
 34 57  1  0  0  0  0
 34 69  1  0  0  0  0
 34 75  2  0  0  0  0
 35 58  1  0  0  0  0
 35 67  1  0  0  0  0
 35 76  2  0  0  0  0
 36 64  1  0  0  0  0
 36 70  1  0  0  0  0
 36 77  2  0  0  0  0
 37 40  1  0  0  0  0
 38 47  1  0  0  0  0
 39 63  1  0  0  0  0
 40 42  1  0  0  0  0
 41 43  1  0  0  0  0
 41 44  1  0  0  0  0
 42 46  1  0  0  0  0
 43 48  1  0  0  0  0
 44 64  1  0  0  0  0
 45 48  1  0  0  0  0
 45 64  1  0  0  0  0
 46 68  1  0  0  0  0
 47 63  1  0  0  0  0
 48 62  1  0  0  0  0
 49 57  1  0  0  0  0
 50 59  1  0  0  0  0
 51 59  1  0  0  0  0
 52 59  1  0  0  0  0
 53 71  1  0  0  0  0
 54 70  1  0  0  0  0
 55 58  1  0  0  0  0
 55 79  1  0  0  0  0
 56 59  1  0  0  0  0
 56 69  1  0  0  0  0
 57 71  1  0  0  0  0
 58 82  1  0  0  0  0
 60 62  1  0  0  0  0
M  CHG  1  71   1
M  ISO  4  36 100  55 101  70 100  79 101
M  END
> <Batch ID>
0187

> <Smiles>
CNC(C)C(=O)NC(C(=O)N1Cc2cc([101O:1][101CH2:1]C(F)C(=O)Nc3nc(C[100NH:0][100C:0](=O)N4CCCC(n5nc(-c6ccc(Oc7ccc(F)cc7F)cc6)c(C(N)=O)c5N)C4)cs3)ccc2CC1C(=O)NC1CCCc2ccccc21)C(C)(C)C

> <Shape>
0.195

> <Color>
0.070

> <Negative vol penalty>
0.000

$$$$

  -OEChem-04052305123D

 84 92  0     1  0  0  0  0  0999 V2000
  -31.9446  -25.7868   19.6700 C   0  0  0  0  0  0  0  0  0  0  0  0
  -30.6636  -25.5704   19.1726 C   0  0  0  0  0  0  0  0  0  0  0  0
  -26.2495  -14.7502   18.9564 C   0  0  0  0  0  0  0  0  0  0  0  0
  -24.2758  -14.9189   20.3397 C   0  0  0  0  0  0  0  0  0  0  0  0
  -32.1146  -26.3088   20.9516 C   0  0  0  0  0  0  0  0  0  0  0  0
  -29.5516  -25.8749   19.9570 C   0  0  0  0  0  0  0  0  0  0  0  0
  -22.8013  -28.2086   19.4065 C   0  0  0  0  0  0  0  0  0  0  0  0
  -26.4522  -13.4451   19.4048 C   0  0  0  0  0  0  0  0  0  0  0  0
  -24.4786  -13.6137   20.7881 C   0  0  0  0  0  0  0  0  0  0  0  0
  -21.5084  -27.8682   19.8018 C   0  0  0  0  0  0  0  0  0  0  0  0
  -23.9531  -10.4782   19.6423 C   0  0  0  0  0  0  0  0  0  0  0  0
  -22.8455   -9.6317   19.6905 C   0  0  0  0  0  0  0  0  0  0  0  0
  -21.9223  -28.8396   21.9708 C   0  0  0  0  0  0  0  0  0  0  0  0
  -23.4119  -24.0875   23.9965 C   0  0  0  0  0  0  0  0  0  0  0  0
  -23.1622   -9.3529   22.0694 C   0  0  0  0  0  0  0  0  0  0  0  0
  -22.0668  -22.1964   23.8678 C   0  0  0  0  0  0  0  0  0  0  0  0
  -25.1613  -15.4872   19.4239 C   0  0  0  0  0  0  0  0  0  0  0  0
  -24.2017  -17.2435   17.8421 C   0  0  0  0  0  0  0  0  0  0  0  0
  -31.0041  -26.6289   21.7484 C   0  0  0  0  0  0  0  0  0  0  0  0
  -23.6695  -28.8584   20.2955 C   0  0  0  0  0  0  0  0  0  0  0  0
  -29.7069  -26.4004   21.2510 C   0  0  0  0  0  0  0  0  0  0  0  0
  -23.2248  -29.1894   21.5835 C   0  0  0  0  0  0  0  0  0  0  0  0
  -23.2435  -22.7809   23.4539 C   0  0  0  0  0  0  0  0  0  0  0  0
  -25.5668  -12.8768   20.3206 C   0  0  0  0  0  0  0  0  0  0  0  0
  -21.0696  -28.1811   21.0851 C   0  0  0  0  0  0  0  0  0  0  0  0
  -24.6653  -10.7620   20.8076 C   0  0  0  0  0  0  0  0  0  0  0  0
  -22.4500   -9.0691   20.9040 C   0  0  0  0  0  0  0  0  0  0  0  0
  -24.2698  -10.1994   22.0211 C   0  0  0  0  0  0  0  0  0  0  0  0
  -24.9516  -16.8356   18.9615 C   0  0  0  0  0  0  0  0  0  0  0  0
  -24.3126  -18.6125   17.8349 C   0  0  0  0  0  0  0  0  0  0  0  0
  -22.3572  -24.4520   24.8045 C   0  0  0  0  0  0  0  0  0  0  0  0
  -23.4702  -16.4554   16.8937 C   0  0  0  0  0  0  0  0  0  0  0  0
  -26.4715  -28.1471   21.6172 C   0  0  0  0  0  0  0  0  0  0  0  0
  -26.2776  -31.1876   22.7309 C   0  0  0  0  0  0  0  0  0  0  0  0
  -24.3091  -33.8486   23.5620 C   0  0  0  0  0  0  0  0  0  0  0  0
  -25.3731  -22.6449   22.1150 C   0  0  0  0  0  0  0  0  0  0  0  0
  -31.2382  -27.1467   23.1455 C   0  0  0  0  0  0  0  0  0  0  0  0
  -25.0522  -29.2427   19.8449 C   0  0  0  0  0  0  0  0  0  0  0  0
  -24.1111  -29.9047   22.5690 C   0  0  0  0  0  0  0  0  0  0  0  0
  -30.0045  -27.7935   23.7700 C   0  0  0  0  0  0  0  0  0  0  0  0
  -27.2771  -22.1364   19.1497 C   0  0  0  0  0  0  0  0  0  0  0  0
  -28.7754  -26.9159   23.5558 C   0  0  0  0  0  0  0  0  0  0  0  0
  -26.8241  -20.7591   18.6597 C   0  0  0  0  0  0  0  0  0  0  0  0
  -27.3485  -22.2007   20.6743 C   0  0  0  0  0  0  0  0  0  0  0  0
  -25.6715  -20.4079   20.8812 C   0  0  0  0  0  0  0  0  0  0  0  0
  -28.4756  -26.7413   22.0621 C   0  0  1  0  0  0  0  0  0  0  0  0
  -26.0240  -29.4436   21.0035 C   0  0  1  0  0  0  0  0  0  0  0  0
  -25.5219  -20.3142   19.3540 C   0  0  2  0  0  0  0  0  0  0  0  0
  -24.4341  -36.1807   24.4801 C   0  0  0  0  0  0  0  0  0  0  0  0
  -26.7357  -30.0591   25.5285 C   0  0  0  0  0  0  0  0  0  0  0  0
  -25.9157  -32.2320   26.4636 C   0  0  0  0  0  0  0  0  0  0  0  0
  -27.9671  -32.1814   25.0452 C   0  0  0  0  0  0  0  0  0  0  0  0
  -18.4639  -26.5562   22.9416 C   0  0  0  0  0  0  0  0  0  0  0  0
  -19.2027  -28.8647   23.5697 C   0  0  0  0  0  0  0  0  0  0  0  0
  -23.1321  -35.0036   21.1044 C   0  0  0  0  0  0  0  0  0  0  0  0
  -20.8852  -26.9498   23.4406 C   0  0  0  0  0  0  0  0  0  0  0  0
  -25.7061  -31.8389   23.9671 C   0  0  1  0  0  0  0  0  0  0  0  0
  -24.4150  -35.3246   23.2234 C   0  0  2  0  0  0  0  0  0  0  0  0
  -26.5649  -31.5626   25.2334 C   0  0  0  0  0  0  0  0  0  0  0  0
  -19.6076  -27.5709   22.8588 C   0  0  0  0  0  0  0  0  0  1  0  0
  -25.4986  -17.8624   19.6176 N   0  0  0  0  0  0  0  0  0  0  0  0
  -25.0921  -18.9290   18.9083 N   0  0  0  0  0  0  0  0  0  0  0  0
  -25.4565  -30.2536   22.0833 N   0  0  0  0  0  0  0  0  0  0  0  0
  -26.0785  -21.7694   21.2626 N   0  0  0  0  0  0  0  0  0  0  0  0
  -23.8184  -19.5644   17.0150 N   0  0  0  0  0  0  0  0  0  0  0  0
  -23.4606  -15.0625   17.0486 N   0  0  0  0  0  0  0  0  0  0  0  0
  -24.1631  -22.1384   22.5883 N   0  0  0  0  0  0  0  0  0  0  0  0
  -27.8329  -27.9255   21.5338 N   0  0  0  0  0  0  0  0  0  0  0  0
  -25.5501  -33.2539   23.6479 N   0  0  0  0  0  0  0  0  0  0  0  0
  -20.6991  -26.5722   24.8621 N   0  0  0  0  0  0  0  0  0  0  0  0
  -23.2586  -35.7477   22.3840 N   0  3  0  0  0  0  0  0  0  0  0  0
  -22.8571  -16.9700   15.9278 O   0  0  0  0  0  0  0  0  0  0  0  0
  -25.6431  -27.4036   22.1297 O   0  0  0  0  0  0  0  0  0  0  0  0
  -27.4080  -31.5013   22.3497 O   0  0  0  0  0  0  0  0  0  0  0  0
  -23.2331  -33.2808   23.7369 O   0  0  0  0  0  0  0  0  0  0  0  0
  -25.7970  -23.7723   22.3821 O   0  0  0  0  0  0  0  0  0  0  0  0
  -21.5313  -25.4975   27.0484 O   0  0  0  0  0  0  0  0  0  0  0  0
  -23.1420  -26.7879   25.6114 O   0  0  0  0  0  0  0  0  0  0  0  0
  -25.7642  -11.6032   20.7582 O   0  0  0  0  0  0  0  0  0  0  0  0
  -19.8084  -27.8494   21.4737 O   0  0  0  0  0  0  0  0  0  1  0  0
  -21.3855   -8.2575   20.9504 F   0  0  0  0  0  0  0  0  0  0  0  0
  -24.9493  -10.4693   23.1442 F   0  0  0  0  0  0  0  0  0  0  0  0
  -21.1708  -23.2215   24.9064 S   0  0  0  0  0  0  0  0  0  0  0  0
  -21.9949  -25.9093   25.7371 S   0  0  0  0  0  0  0  0  0  0  0  0
  1  2  1  0  0  0  0
  1  5  2  0  0  0  0
  2  6  2  0  0  0  0
  3  8  2  0  0  0  0
  3 17  1  0  0  0  0
  4  9  1  0  0  0  0
  4 17  2  0  0  0  0
  5 19  1  0  0  0  0
  6 21  1  0  0  0  0
  7 10  2  0  0  0  0
  7 20  1  0  0  0  0
  8 24  1  0  0  0  0
  9 24  2  0  0  0  0
 10 25  1  0  0  0  0
 11 12  2  0  0  0  0
 11 26  1  0  0  0  0
 12 27  1  0  0  0  0
 13 22  1  0  0  0  0
 13 25  2  0  0  0  0
 14 23  1  0  0  0  0
 14 31  2  0  0  0  0
 15 27  2  0  0  0  0
 15 28  1  0  0  0  0
 16 23  2  0  0  0  0
 16 83  1  0  0  0  0
 17 29  1  0  0  0  0
 18 29  1  0  0  0  0
 18 30  2  0  0  0  0
 18 32  1  0  0  0  0
 19 21  2  0  0  0  0
 19 37  1  0  0  0  0
 20 22  2  0  0  0  0
 20 38  1  0  0  0  0
 21 46  1  0  0  0  0
 22 39  1  0  0  0  0
 23 67  1  0  0  0  0
 24 79  1  0  0  0  0
 25 80  1  0  0  0  0
 26 28  2  0  0  0  0
 26 79  1  0  0  0  0
 27 81  1  0  0  0  0
 28 82  1  0  0  0  0
 29 61  2  0  0  0  0
 30 62  1  0  0  0  0
 30 65  1  0  0  0  0
 31 83  1  0  0  0  0
 31 84  1  0  0  0  0
 32 66  1  0  0  0  0
 32 72  2  0  0  0  0
 33 47  1  0  0  0  0
 33 68  1  0  0  0  0
 33 73  2  0  0  0  0
 34 57  1  0  0  0  0
 34 63  1  0  0  0  0
 34 74  2  0  0  0  0
 35 58  1  0  0  0  0
 35 69  1  0  0  0  0
 35 75  2  0  0  0  0
 36 64  1  0  0  0  0
 36 67  1  0  0  0  0
 36 76  2  0  0  0  0
 37 40  1  0  0  0  0
 38 47  1  0  0  0  0
 39 63  1  0  0  0  0
 40 42  1  0  0  0  0
 41 43  1  0  0  0  0
 41 44  1  0  0  0  0
 42 46  1  0  0  0  0
 43 48  1  0  0  0  0
 44 64  1  0  0  0  0
 45 48  1  0  0  0  0
 45 64  1  0  0  0  0
 46 68  1  0  0  0  0
 47 63  1  0  0  0  0
 48 62  1  0  0  0  0
 49 58  1  0  0  0  0
 50 59  1  0  0  0  0
 51 59  1  0  0  0  0
 52 59  1  0  0  0  0
 53 60  1  0  0  0  0
 54 60  1  0  0  0  0
 55 71  1  0  0  0  0
 56 60  1  0  0  0  0
 56 70  1  0  0  0  0
 57 59  1  0  0  0  0
 57 69  1  0  0  0  0
 58 71  1  0  0  0  0
 60 80  1  0  0  0  0
 61 62  1  0  0  0  0
 70 84  1  0  0  0  0
 77 84  2  0  0  0  0
 78 84  2  0  0  0  0
M  CHG  1  71   1
M  ISO  4  36 100  60 101  67 100  80 101
M  END
> <Batch ID>
0187

> <Smiles>
CNC(C)C(=O)NC(C(=O)N1Cc2cc([101O:1][101C:1](C)(C)CNS(=O)(=O)c3cc([100NH:0][100C:0](=O)N4CCCC(n5nc(-c6ccc(Oc7ccc(F)cc7F)cc6)c(C(N)=O)c5N)C4)cs3)ccc2CC1C(=O)NC1CCCc2ccccc21)C(C)(C)C

> <Shape>
0.269

> <Color>
0.069

> <Negative vol penalty>
0.000

$$$$

  -OEChem-04052305123D

 85 93  0     1  0  0  0  0  0999 V2000
  -25.4751  -35.5648   18.2800 C   0  0  0  0  0  0  0  0  0  0  0  0
  -25.0829  -34.4571   17.5352 C   0  0  0  0  0  0  0  0  0  0  0  0
  -25.6064  -14.3465   21.3868 C   0  0  0  0  0  0  0  0  0  0  0  0
  -25.2574  -14.9478   19.0730 C   0  0  0  0  0  0  0  0  0  0  0  0
  -26.0745  -35.3886   19.5264 C   0  0  0  0  0  0  0  0  0  0  0  0
  -25.2910  -33.1725   18.0360 C   0  0  0  0  0  0  0  0  0  0  0  0
  -21.6887  -28.2837   17.2428 C   0  0  0  0  0  0  0  0  0  0  0  0
  -24.6660  -13.3238   21.2629 C   0  0  0  0  0  0  0  0  0  0  0  0
  -24.3170  -13.9251   18.9491 C   0  0  0  0  0  0  0  0  0  0  0  0
  -21.7521  -27.2049   16.3619 C   0  0  0  0  0  0  0  0  0  0  0  0
  -22.6214  -10.3243   21.4562 C   0  0  0  0  0  0  0  0  0  0  0  0
  -22.9421   -9.0793   21.9972 C   0  0  0  0  0  0  0  0  0  0  0  0
  -22.8531  -25.8913   18.0594 C   0  0  0  0  0  0  0  0  0  0  0  0
  -24.8665   -8.9430   20.5427 C   0  0  0  0  0  0  0  0  0  0  0  0
  -27.4572  -26.6503   15.6769 C   0  0  0  0  0  0  0  0  0  0  0  0
  -25.9020  -15.1586   20.2918 C   0  0  0  0  0  0  0  0  0  0  0  0
  -28.2588  -16.1293   20.1877 C   0  0  0  0  0  0  0  0  0  0  0  0
  -26.2813  -34.1014   20.0470 C   0  0  0  0  0  0  0  0  0  0  0  0
  -22.2178  -28.1777   18.5372 C   0  0  0  0  0  0  0  0  0  0  0  0
  -25.8950  -32.9788   19.2900 C   0  0  0  0  0  0  0  0  0  0  0  0
  -22.7929  -26.9694   18.9557 C   0  0  0  0  0  0  0  0  0  0  0  0
  -24.0213  -13.1131   20.0441 C   0  0  0  0  0  0  0  0  0  0  0  0
  -22.3370  -26.0094   16.7692 C   0  0  0  0  0  0  0  0  0  0  0  0
  -23.4231  -10.8786   20.4583 C   0  0  0  0  0  0  0  0  0  0  0  0
  -24.0647   -8.3887   21.5405 C   0  0  0  0  0  0  0  0  0  0  0  0
  -24.5457  -10.1880   20.0016 C   0  0  0  0  0  0  0  0  0  0  0  0
  -26.8730  -16.2155   20.4194 C   0  0  0  0  0  0  0  0  0  0  0  0
  -26.6837  -25.6324   16.1943 C   0  0  0  0  0  0  0  0  0  0  0  0
  -28.7292  -17.3939   20.4445 C   0  0  0  0  0  0  0  0  0  0  0  0
  -28.1515  -25.7883   17.8164 C   0  0  0  0  0  0  0  0  0  0  0  0
  -29.0502  -15.0064   19.7770 C   0  0  0  0  0  0  0  0  0  0  0  0
  -24.5313  -29.6522   20.1424 C   0  0  0  0  0  0  0  0  0  0  0  0
  -23.4072  -27.8834   22.6184 C   0  0  0  0  0  0  0  0  0  0  0  0
  -25.0194  -25.4871   14.3093 C   0  0  0  0  0  0  0  0  0  0  0  0
  -21.7238  -25.1056   23.6653 C   0  0  0  0  0  0  0  0  0  0  0  0
  -28.2423  -22.8456   19.6926 C   0  0  0  0  0  0  0  0  0  0  0  0
  -26.9761  -33.9596   21.3781 C   0  0  0  0  0  0  0  0  0  0  0  0
  -22.1175  -29.3419   19.4843 C   0  0  0  0  0  0  0  0  0  0  0  0
  -23.3572  -26.7977   20.3415 C   0  0  0  0  0  0  0  0  0  0  0  0
  -26.8204  -32.5752   22.0021 C   0  0  0  0  0  0  0  0  0  0  0  0
  -26.5008  -21.3770   22.5864 C   0  0  0  0  0  0  0  0  0  0  0  0
  -27.0871  -31.4890   20.9648 C   0  0  0  0  0  0  0  0  0  0  0  0
  -26.5165  -19.8944   22.2246 C   0  0  0  0  0  0  0  0  0  0  0  0
  -26.3842  -22.2645   21.3487 C   0  0  0  0  0  0  0  0  0  0  0  0
  -27.4501  -20.5114   19.9592 C   0  0  0  0  0  0  0  0  0  0  0  0
  -26.0813  -31.5700   19.8101 C   0  0  1  0  0  0  0  0  0  0  0  0
  -23.1492  -29.2894   20.6069 C   0  0  1  0  0  0  0  0  0  0  0  0
  -27.6098  -19.5996   21.1859 C   0  0  2  0  0  0  0  0  0  0  0  0
  -20.9982  -23.9106   25.7493 C   0  0  0  0  0  0  0  0  0  0  0  0
  -21.2738  -24.6677   13.8165 C   0  0  0  0  0  0  0  0  0  0  0  0
  -26.2588  -26.8802   23.0330 C   0  0  0  0  0  0  0  0  0  0  0  0
  -25.3295  -25.0332   24.4448 C   0  0  0  0  0  0  0  0  0  0  0  0
  -25.0219  -27.4086   25.1414 C   0  0  0  0  0  0  0  0  0  0  0  0
  -18.8618  -25.3686   22.9590 C   0  0  0  0  0  0  0  0  0  0  0  0
  -23.7861  -24.6541   13.9735 C   0  0  0  0  0  0  0  0  0  0  0  0
  -23.7072  -26.5131   23.1763 C   0  0  1  0  0  0  0  0  0  0  0  0
  -20.6129  -24.9252   24.6841 C   0  0  2  0  0  0  0  0  0  0  0  0
  -22.4907  -25.2552   14.5190 C   0  0  2  0  0  0  0  0  0  1  0  0
  -25.0706  -26.4623   23.9220 C   0  0  0  0  0  0  0  0  0  0  0  0
  -26.4880  -17.4382   20.7946 N   0  0  0  0  0  0  0  0  0  0  0  0
  -27.0805  -25.1366   17.4209 N   0  0  0  0  0  0  0  0  0  0  0  0
  -27.6390  -18.1319   20.8008 N   0  0  0  0  0  0  0  0  0  0  0  0
  -23.2411  -27.9669   21.2287 N   0  0  0  0  0  0  0  0  0  0  0  0
  -27.4025  -21.9265   20.3458 N   0  0  0  0  0  0  0  0  0  0  0  0
  -29.9649  -17.9355   20.3981 N   0  0  0  0  0  0  0  0  0  0  0  0
  -28.4072  -13.7808   19.5563 N   0  0  0  0  0  0  0  0  0  0  0  0
  -25.5472  -25.1019   15.5389 N   0  0  0  0  0  0  0  0  0  0  0  0
  -24.8098  -31.0042   20.2068 N   0  0  0  0  0  0  0  0  0  0  0  0
  -22.5608  -26.1485   24.0016 N   0  0  0  0  0  0  0  0  0  0  0  0
  -28.0956  -24.2392   20.0156 N   0  0  0  0  0  0  0  0  0  0  0  0
  -19.3677  -24.4539   24.0146 N   0  3  0  0  0  0  0  0  0  0  0  0
  -30.2932  -15.0835   19.6266 O   0  0  0  0  0  0  0  0  0  0  0  0
  -25.2896  -28.7706   19.7558 O   0  0  0  0  0  0  0  0  0  0  0  0
  -23.3164  -28.8431   23.3880 O   0  0  0  0  0  0  0  0  0  0  0  0
  -25.4412  -26.3616   13.5600 O   0  0  0  0  0  0  0  0  0  0  0  0
  -21.8398  -24.3902   22.6727 O   0  0  0  0  0  0  0  0  0  0  0  0
  -29.0777  -22.4930   18.8590 O   0  0  0  0  0  0  0  0  0  0  0  0
  -30.3469  -25.0107   19.0018 O   0  0  0  0  0  0  0  0  0  0  0  0
  -28.8637  -26.7053   20.1295 O   0  0  0  0  0  0  0  0  0  0  0  0
  -23.1038  -12.1151   19.9228 O   0  0  0  0  0  0  0  0  0  0  0  0
  -22.4007  -24.9551   15.9112 O   0  0  0  0  0  0  0  0  0  1  0  0
  -24.3735   -7.1938   22.0613 F   0  0  0  0  0  0  0  0  0  0  0  0
  -25.3203  -10.7160   19.0441 F   0  0  0  0  0  0  0  0  0  0  0  0
  -28.7350  -27.0106   16.7626 S   0  0  0  0  0  0  0  0  0  0  0  0
  -29.0241  -25.5079   19.3274 S   0  0  0  0  0  0  0  0  0  0  0  0
  1  2  1  0  0  0  0
  1  5  2  0  0  0  0
  2  6  2  0  0  0  0
  3  8  2  0  0  0  0
  3 16  1  0  0  0  0
  4  9  1  0  0  0  0
  4 16  2  0  0  0  0
  5 18  1  0  0  0  0
  6 20  1  0  0  0  0
  7 10  2  0  0  0  0
  7 19  1  0  0  0  0
  8 22  1  0  0  0  0
  9 22  2  0  0  0  0
 10 23  1  0  0  0  0
 11 12  2  0  0  0  0
 11 24  1  0  0  0  0
 12 25  1  0  0  0  0
 13 21  1  0  0  0  0
 13 23  2  0  0  0  0
 14 25  2  0  0  0  0
 14 26  1  0  0  0  0
 15 28  2  0  0  0  0
 15 84  1  0  0  0  0
 16 27  1  0  0  0  0
 17 27  1  0  0  0  0
 17 29  2  0  0  0  0
 17 31  1  0  0  0  0
 18 20  2  0  0  0  0
 18 37  1  0  0  0  0
 19 21  2  0  0  0  0
 19 38  1  0  0  0  0
 20 46  1  0  0  0  0
 21 39  1  0  0  0  0
 22 80  1  0  0  0  0
 23 81  1  0  0  0  0
 24 26  2  0  0  0  0
 24 80  1  0  0  0  0
 25 82  1  0  0  0  0
 26 83  1  0  0  0  0
 27 60  2  0  0  0  0
 28 61  1  0  0  0  0
 28 67  1  0  0  0  0
 29 62  1  0  0  0  0
 29 65  1  0  0  0  0
 30 61  2  0  0  0  0
 30 84  1  0  0  0  0
 30 85  1  0  0  0  0
 31 66  1  0  0  0  0
 31 72  2  0  0  0  0
 32 47  1  0  0  0  0
 32 68  1  0  0  0  0
 32 73  2  0  0  0  0
 33 56  1  0  0  0  0
 33 63  1  0  0  0  0
 33 74  2  0  0  0  0
 34 55  1  0  0  0  0
 34 67  1  0  0  0  0
 34 75  2  0  0  0  0
 35 57  1  0  0  0  0
 35 69  1  0  0  0  0
 35 76  2  0  0  0  0
 36 64  1  0  0  0  0
 36 70  1  0  0  0  0
 36 77  2  0  0  0  0
 37 40  1  0  0  0  0
 38 47  1  0  0  0  0
 39 63  1  0  0  0  0
 40 42  1  0  0  0  0
 41 43  1  0  0  0  0
 41 44  1  0  0  0  0
 42 46  1  0  0  0  0
 43 48  1  0  0  0  0
 44 64  1  0  0  0  0
 45 48  1  0  0  0  0
 45 64  1  0  0  0  0
 46 68  1  0  0  0  0
 47 63  1  0  0  0  0
 48 62  1  0  0  0  0
 49 57  1  0  0  0  0
 50 58  1  0  0  0  0
 51 59  1  0  0  0  0
 52 59  1  0  0  0  0
 53 59  1  0  0  0  0
 54 71  1  0  0  0  0
 55 58  1  0  0  0  0
 56 59  1  0  0  0  0
 56 69  1  0  0  0  0
 57 71  1  0  0  0  0
 58 81  1  0  0  0  0
 60 62  1  0  0  0  0
 70 85  1  0  0  0  0
 78 85  2  0  0  0  0
 79 85  2  0  0  0  0
M  CHG  1  71   1
M  ISO  4  36 100  58 101  70 100  81 101
M  END
> <Batch ID>
0187

> <Smiles>
CNC(C)C(=O)NC(C(=O)N1Cc2cc([101O:1][101CH:1](C)CC(=O)Nc3csc(S(=O)(=O)[100NH:0][100C:0](=O)N4CCCC(n5nc(-c6ccc(Oc7ccc(F)cc7F)cc6)c(C(N)=O)c5N)C4)n3)ccc2CC1C(=O)NC1CCCc2ccccc21)C(C)(C)C

> <Shape>
0.190

> <Color>
0.084

> <Negative vol penalty>
0.000

$$$$

  -OEChem-04052305123D

 83 91  0     1  0  0  0  0  0999 V2000
  -20.4020  -22.3670   21.1104 C   0  0  0  0  0  0  0  0  0  0  0  0
  -21.7615  -22.6085   20.9406 C   0  0  0  0  0  0  0  0  0  0  0  0
  -19.8620  -28.3987   23.0010 C   0  0  0  0  0  0  0  0  0  0  0  0
  -20.2850  -26.1637   22.1867 C   0  0  0  0  0  0  0  0  0  0  0  0
  -19.9768  -21.2130   21.7672 C   0  0  0  0  0  0  0  0  0  0  0  0
  -22.6967  -21.6964   21.4285 C   0  0  0  0  0  0  0  0  0  0  0  0
  -28.0949  -20.2602   18.9180 C   0  0  0  0  0  0  0  0  0  0  0  0
  -18.4893  -28.1841   22.8769 C   0  0  0  0  0  0  0  0  0  0  0  0
  -18.9124  -25.9491   22.0627 C   0  0  0  0  0  0  0  0  0  0  0  0
  -29.3958  -20.6857   19.1835 C   0  0  0  0  0  0  0  0  0  0  0  0
  -16.3166  -25.1999   24.0928 C   0  0  0  0  0  0  0  0  0  0  0  0
  -15.8067  -23.9888   24.5607 C   0  0  0  0  0  0  0  0  0  0  0  0
  -29.7369  -18.7504   20.5825 C   0  0  0  0  0  0  0  0  0  0  0  0
  -14.9989  -23.4722   22.3431 C   0  0  0  0  0  0  0  0  0  0  0  0
  -20.7599  -27.3885   22.6558 C   0  0  0  0  0  0  0  0  0  0  0  0
  -22.9808  -27.3509   23.9102 C   0  0  0  0  0  0  0  0  0  0  0  0
  -20.9071  -20.2816   22.2549 C   0  0  0  0  0  0  0  0  0  0  0  0
  -27.6009  -19.0802   19.4925 C   0  0  0  0  0  0  0  0  0  0  0  0
  -22.2836  -20.5295   22.0936 C   0  0  0  0  0  0  0  0  0  0  0  0
  -28.4303  -18.3107   20.3207 C   0  0  0  0  0  0  0  0  0  0  0  0
  -18.0145  -26.9593   22.4078 C   0  0  0  0  0  0  0  0  0  0  0  0
  -30.2160  -19.9324   20.0182 C   0  0  0  0  0  0  0  0  0  0  0  0
  -16.1676  -25.5471   22.7500 C   0  0  0  0  0  0  0  0  0  0  0  0
  -15.1479  -23.1250   23.6859 C   0  0  0  0  0  0  0  0  0  0  0  0
  -15.5088  -24.6833   21.8752 C   0  0  0  0  0  0  0  0  0  0  0  0
  -22.1779  -27.6098   22.7832 C   0  0  0  0  0  0  0  0  0  0  0  0
  -30.9637  -26.7237   18.2318 C   0  0  0  0  0  0  0  0  0  0  0  0
  -24.2441  -27.7291   23.5260 C   0  0  0  0  0  0  0  0  0  0  0  0
  -31.0533  -26.6880   16.8561 C   0  0  0  0  0  0  0  0  0  0  0  0
  -31.4558  -24.6003   17.9884 C   0  0  0  0  0  0  0  0  0  0  0  0
  -22.6173  -26.8163   25.1899 C   0  0  0  0  0  0  0  0  0  0  0  0
  -25.2263  -18.3791   21.4859 C   0  0  0  0  0  0  0  0  0  0  0  0
  -26.0956  -15.3240   20.8278 C   0  0  0  0  0  0  0  0  0  0  0  0
  -28.5262  -13.1615   19.7971 C   0  0  0  0  0  0  0  0  0  0  0  0
  -31.8251  -22.5783   19.4423 C   0  0  0  0  0  0  0  0  0  0  0  0
  -28.3137  -27.6938   19.8675 C   0  0  0  0  0  0  0  0  0  0  0  0
  -20.4008  -19.0719   22.9999 C   0  0  0  0  0  0  0  0  0  0  0  0
  -26.2043  -18.6209   19.1748 C   0  0  0  0  0  0  0  0  0  0  0  0
  -27.9545  -17.0257   20.9459 C   0  0  0  0  0  0  0  0  0  0  0  0
  -21.4469  -17.9713   23.1566 C   0  0  0  0  0  0  0  0  0  0  0  0
  -25.8228  -30.2869   19.4569 C   0  0  0  0  0  0  0  0  0  0  0  0
  -22.7762  -18.5600   23.6181 C   0  0  0  0  0  0  0  0  0  0  0  0
  -24.7132  -29.7928   20.3869 C   0  0  0  0  0  0  0  0  0  0  0  0
  -26.5028  -29.1237   18.7410 C   0  0  0  0  0  0  0  0  0  0  0  0
  -25.9424  -27.5811   20.5795 C   0  0  0  0  0  0  0  0  0  0  0  0
  -23.3280  -19.5518   22.5869 C   0  0  1  0  0  0  0  0  0  0  0  0
  -25.6341  -17.6719   20.2244 C   0  0  1  0  0  0  0  0  0  0  0  0
  -25.2309  -28.7081   21.3500 C   0  0  2  0  0  0  0  0  0  0  0  0
  -28.9508  -10.7208   19.3968 C   0  0  0  0  0  0  0  0  0  0  0  0
  -33.6437  -20.8345   19.3349 C   0  0  0  0  0  0  0  0  0  0  0  0
  -26.3195  -14.8719   23.8370 C   0  0  0  0  0  0  0  0  0  0  0  0
  -27.6283  -12.7923   23.3568 C   0  0  0  0  0  0  0  0  0  0  0  0
  -25.2677  -12.9868   22.5743 C   0  0  0  0  0  0  0  0  0  0  0  0
  -29.0859  -13.6109   16.9259 C   0  0  0  0  0  0  0  0  0  0  0  0
  -30.6449  -27.9131   19.0462 C   0  0  0  0  0  0  0  0  0  0  0  0
  -27.0697  -14.3374   21.4250 C   0  0  1  0  0  0  0  0  0  0  0  0
  -28.5077  -12.0371   18.7773 C   0  0  2  0  0  0  0  0  0  0  0  0
  -32.1468  -21.0970   19.2620 C   0  0  1  0  0  0  0  0  0  1  0  0
  -26.5799  -13.7723   22.7882 C   0  0  0  0  0  0  0  0  0  0  0  0
  -22.8727  -28.1136   21.7598 N   0  0  0  0  0  0  0  0  0  0  0  0
  -31.1938  -25.5274   18.8828 N   0  0  0  0  0  0  0  0  0  0  0  0
  -24.1256  -28.1745   22.2423 N   0  0  0  0  0  0  0  0  0  0  0  0
  -26.5791  -16.6219   20.6100 N   0  0  0  0  0  0  0  0  0  0  0  0
  -26.9891  -28.1361   19.7148 N   0  0  0  0  0  0  0  0  0  0  0  0
  -25.4336  -27.7209   24.1643 N   0  0  0  0  0  0  0  0  0  0  0  0
  -21.2757  -26.4804   25.4170 N   0  0  0  0  0  0  0  0  0  0  0  0
  -31.7498  -23.2352   18.2185 N   0  0  0  0  0  0  0  0  0  0  0  0
  -23.9252  -18.8444   21.4745 N   0  0  0  0  0  0  0  0  0  0  0  0
  -27.2984  -13.3206   20.4041 N   0  0  0  0  0  0  0  0  0  0  0  0
  -29.2425  -28.2635   19.0054 N   0  0  0  0  0  0  0  0  0  0  0  0
  -29.4198  -12.3527   17.6418 N   0  3  0  0  0  0  0  0  0  0  0  0
  -23.4544  -26.6570   26.1105 O   0  0  0  0  0  0  0  0  0  0  0  0
  -26.0319  -18.4929   22.4022 O   0  0  0  0  0  0  0  0  0  0  0  0
  -24.9500  -14.9548   20.5576 O   0  0  0  0  0  0  0  0  0  0  0  0
  -29.5304  -13.8291   20.0344 O   0  0  0  0  0  0  0  0  0  0  0  0
  -31.6502  -23.0603   20.5578 O   0  0  0  0  0  0  0  0  0  0  0  0
  -28.6454  -26.8566   20.7138 O   0  0  0  0  0  0  0  0  0  0  0  0
  -16.6752  -26.7494   22.2869 O   0  0  0  0  0  0  0  0  0  0  0  0
  -31.4859  -20.3458   20.2795 O   0  0  0  0  0  0  0  0  0  1  0  0
  -14.6596  -21.9613   24.1350 F   0  0  0  0  0  0  0  0  0  0  0  0
  -15.3637  -25.0109   20.5839 F   0  0  0  0  0  0  0  0  0  0  0  0
  -30.8684  -27.7302   16.0417 F   0  0  0  0  0  0  0  0  0  0  0  0
  -31.4429  -25.0976   16.3460 S   0  0  0  0  0  0  0  0  0  0  0  0
  1  2  1  0  0  0  0
  1  5  2  0  0  0  0
  2  6  2  0  0  0  0
  3  8  2  0  0  0  0
  3 15  1  0  0  0  0
  4  9  1  0  0  0  0
  4 15  2  0  0  0  0
  5 17  1  0  0  0  0
  6 19  1  0  0  0  0
  7 10  2  0  0  0  0
  7 18  1  0  0  0  0
  8 21  1  0  0  0  0
  9 21  2  0  0  0  0
 10 22  1  0  0  0  0
 11 12  2  0  0  0  0
 11 23  1  0  0  0  0
 12 24  1  0  0  0  0
 13 20  1  0  0  0  0
 13 22  2  0  0  0  0
 14 24  2  0  0  0  0
 14 25  1  0  0  0  0
 15 26  1  0  0  0  0
 16 26  1  0  0  0  0
 16 28  2  0  0  0  0
 16 31  1  0  0  0  0
 17 19  2  0  0  0  0
 17 37  1  0  0  0  0
 18 20  2  0  0  0  0
 18 38  1  0  0  0  0
 19 46  1  0  0  0  0
 20 39  1  0  0  0  0
 21 78  1  0  0  0  0
 22 79  1  0  0  0  0
 23 25  2  0  0  0  0
 23 78  1  0  0  0  0
 24 80  1  0  0  0  0
 25 81  1  0  0  0  0
 26 60  2  0  0  0  0
 27 29  2  0  0  0  0
 27 55  1  0  0  0  0
 27 61  1  0  0  0  0
 28 62  1  0  0  0  0
 28 65  1  0  0  0  0
 29 82  1  0  0  0  0
 29 83  1  0  0  0  0
 30 61  2  0  0  0  0
 30 67  1  0  0  0  0
 30 83  1  0  0  0  0
 31 66  1  0  0  0  0
 31 72  2  0  0  0  0
 32 47  1  0  0  0  0
 32 68  1  0  0  0  0
 32 73  2  0  0  0  0
 33 56  1  0  0  0  0
 33 63  1  0  0  0  0
 33 74  2  0  0  0  0
 34 57  1  0  0  0  0
 34 69  1  0  0  0  0
 34 75  2  0  0  0  0
 35 58  1  0  0  0  0
 35 67  1  0  0  0  0
 35 76  2  0  0  0  0
 36 64  1  0  0  0  0
 36 70  1  0  0  0  0
 36 77  2  0  0  0  0
 37 40  1  0  0  0  0
 38 47  1  0  0  0  0
 39 63  1  0  0  0  0
 40 42  1  0  0  0  0
 41 43  1  0  0  0  0
 41 44  1  0  0  0  0
 42 46  1  0  0  0  0
 43 48  1  0  0  0  0
 44 64  1  0  0  0  0
 45 48  1  0  0  0  0
 45 64  1  0  0  0  0
 46 68  1  0  0  0  0
 47 63  1  0  0  0  0
 48 62  1  0  0  0  0
 49 57  1  0  0  0  0
 50 58  1  0  0  0  0
 51 59  1  0  0  0  0
 52 59  1  0  0  0  0
 53 59  1  0  0  0  0
 54 71  1  0  0  0  0
 55 70  1  0  0  0  0
 56 59  1  0  0  0  0
 56 69  1  0  0  0  0
 57 71  1  0  0  0  0
 58 79  1  0  0  0  0
 60 62  1  0  0  0  0
M  CHG  1  71   1
M  ISO  4  36 100  58 101  70 100  79 101
M  END
> <Batch ID>
0187

> <Smiles>
CNC(C)C(=O)NC(C(=O)N1Cc2cc([101O:1][101CH:1](C)C(=O)Nc3nc(C[100NH:0][100C:0](=O)N4CCCC(n5nc(-c6ccc(Oc7ccc(F)cc7F)cc6)c(C(N)=O)c5N)C4)c(F)s3)ccc2CC1C(=O)NC1CCCc2ccccc21)C(C)(C)C

> <Shape>
0.214

> <Color>
0.063

> <Negative vol penalty>
0.000

$$$$

  -OEChem-04052305123D

 86 94  0     1  0  0  0  0  0999 V2000
  -36.9934  -27.5443   22.9949 C   0  0  0  0  0  0  0  0  0  0  0  0
  -36.0807  -26.8570   23.7886 C   0  0  0  0  0  0  0  0  0  0  0  0
  -23.1738   -9.7840   19.9940 C   0  0  0  0  0  0  0  0  0  0  0  0
  -23.8584   -9.9283   22.3065 C   0  0  0  0  0  0  0  0  0  0  0  0
  -36.5829  -28.0991   21.7835 C   0  0  0  0  0  0  0  0  0  0  0  0
  -34.7565  -26.7252   23.3719 C   0  0  0  0  0  0  0  0  0  0  0  0
  -32.9789  -22.0260   24.0065 C   0  0  0  0  0  0  0  0  0  0  0  0
  -22.4878   -8.6015   20.2709 C   0  0  0  0  0  0  0  0  0  0  0  0
  -23.1723   -8.7459   22.5834 C   0  0  0  0  0  0  0  0  0  0  0  0
  -32.6020  -21.6567   25.2969 C   0  0  0  0  0  0  0  0  0  0  0  0
  -23.6657   -5.4258   22.1774 C   0  0  0  0  0  0  0  0  0  0  0  0
  -24.3141   -4.4676   22.9565 C   0  0  0  0  0  0  0  0  0  0  0  0
  -30.2916  -22.0571   24.7302 C   0  0  0  0  0  0  0  0  0  0  0  0
  -22.5519   -4.6137   24.6029 C   0  0  0  0  0  0  0  0  0  0  0  0
  -23.8592  -10.4474   21.0118 C   0  0  0  0  0  0  0  0  0  0  0  0
  -24.0634  -12.9809   20.7941 C   0  0  0  0  0  0  0  0  0  0  0  0
  -35.2553  -27.9657   21.3471 C   0  0  0  0  0  0  0  0  0  0  0  0
  -32.0144  -22.4248   23.0699 C   0  0  0  0  0  0  0  0  0  0  0  0
  -34.3275  -27.2799   22.1541 C   0  0  0  0  0  0  0  0  0  0  0  0
  -30.6587  -22.4285   23.4277 C   0  0  0  0  0  0  0  0  0  0  0  0
  -22.4870   -8.0824   21.5656 C   0  0  0  0  0  0  0  0  0  0  0  0
  -31.2584  -21.6750   25.6599 C   0  0  0  0  0  0  0  0  0  0  0  0
  -22.4604   -5.9781   22.6111 C   0  0  0  0  0  0  0  0  0  0  0  0
  -23.7572   -4.0615   24.1692 C   0  0  0  0  0  0  0  0  0  0  0  0
  -21.9035   -5.5720   23.8238 C   0  0  0  0  0  0  0  0  0  0  0  0
  -24.5685  -11.6686   20.7263 C   0  0  0  0  0  0  0  0  0  0  0  0
  -32.4943  -16.8839   23.9756 C   0  0  0  0  0  0  0  0  0  0  0  0
  -25.1231  -13.7759   20.4317 C   0  0  0  0  0  0  0  0  0  0  0  0
  -31.4903  -16.9782   24.9164 C   0  0  0  0  0  0  0  0  0  0  0  0
  -31.0398  -15.5339   23.0420 C   0  0  0  0  0  0  0  0  0  0  0  0
  -22.7534  -13.4401   21.1528 C   0  0  0  0  0  0  0  0  0  0  0  0
  -31.4312  -25.0964   21.4494 C   0  0  0  0  0  0  0  0  0  0  0  0
  -29.1800  -23.2645   20.0009 C   0  0  0  0  0  0  0  0  0  0  0  0
  -27.1261  -20.5429   20.1470 C   0  0  0  0  0  0  0  0  0  0  0  0
  -30.3052  -17.7245   27.0054 C   0  0  0  0  0  0  0  0  0  0  0  0
  -30.8639  -14.1035   20.9757 C   0  0  0  0  0  0  0  0  0  0  0  0
  -34.8471  -28.6232   20.0526 C   0  0  0  0  0  0  0  0  0  0  0  0
  -32.4348  -22.7945   21.6738 C   0  0  0  0  0  0  0  0  0  0  0  0
  -29.5824  -22.8291   22.4532 C   0  0  0  0  0  0  0  0  0  0  0  0
  -33.5151  -28.1165   19.5056 C   0  0  0  0  0  0  0  0  0  0  0  0
  -29.3348  -13.0462   17.9391 C   0  0  0  0  0  0  0  0  0  0  0  0
  -32.4681  -28.0643   20.6137 C   0  0  0  0  0  0  0  0  0  0  0  0
  -27.9000  -12.7111   18.3532 C   0  0  0  0  0  0  0  0  0  0  0  0
  -30.3420  -12.6607   19.0210 C   0  0  0  0  0  0  0  0  0  0  0  0
  -28.6199  -12.8633   20.7710 C   0  0  0  0  0  0  0  0  0  0  0  0
  -32.8884  -27.0944   21.7246 C   0  0  1  0  0  0  0  0  0  0  0  0
  -31.4171  -23.6768   20.9573 C   0  0  1  0  0  0  0  0  0  0  0  0
  -27.5633  -13.2930   19.7401 C   0  0  2  0  0  0  0  0  0  0  0  0
  -34.0000  -18.5542   22.8369 C   0  0  0  0  0  0  0  0  0  0  0  0
  -34.9974  -16.6113   24.0961 C   0  0  0  0  0  0  0  0  0  0  0  0
  -25.3738  -19.3242   18.8272 C   0  0  0  0  0  0  0  0  0  0  0  0
  -27.1435  -25.4202   20.7188 C   0  0  0  0  0  0  0  0  0  0  0  0
  -25.3270  -23.7626   20.2486 C   0  0  0  0  0  0  0  0  0  0  0  0
  -26.8803  -24.4589   18.4251 C   0  0  0  0  0  0  0  0  0  0  0  0
  -28.7574  -18.0759   20.0392 C   0  0  0  0  0  0  0  0  0  0  0  0
  -29.5789  -19.7993   28.2867 C   0  0  0  0  0  0  0  0  0  0  0  0
  -29.5977  -20.7254   27.0728 C   0  0  0  0  0  0  0  0  0  1  0  0
  -33.7960  -17.5812   24.0207 C   0  0  0  0  0  0  0  0  0  0  0  0
  -27.7281  -22.9466   20.2653 C   0  0  1  0  0  0  0  0  0  0  0  0
  -26.8561  -19.4300   19.1504 C   0  0  2  0  0  0  0  0  0  0  0  0
  -30.5640  -18.6309   28.1968 C   0  0  2  0  0  0  0  0  0  0  0  0
  -26.7899  -24.1414   19.9336 C   0  0  0  0  0  0  0  0  0  0  0  0
  -25.8495  -11.6280   20.3502 N   0  0  0  0  0  0  0  0  0  0  0  0
  -32.2379  -16.0558   22.9002 N   0  0  0  0  0  0  0  0  0  0  0  0
  -26.1582  -12.9247   20.1783 N   0  0  0  0  0  0  0  0  0  0  0  0
  -30.0443  -23.1883   21.1023 N   0  0  0  0  0  0  0  0  0  0  0  0
  -29.9609  -13.2510   20.3060 N   0  0  0  0  0  0  0  0  0  0  0  0
  -25.2612  -15.1131   20.3081 N   0  0  0  0  0  0  0  0  0  0  0  0
  -21.7834  -12.4893   21.4985 N   0  0  0  0  0  0  0  0  0  0  0  0
  -31.3793  -17.7055   26.1251 N   0  0  0  0  0  0  0  0  0  0  0  0
  -30.3793  -14.6312   22.1721 N   0  0  0  0  0  0  0  0  0  0  0  0
  -32.6541  -25.7259   21.3160 N   0  0  0  0  0  0  0  0  0  0  0  0
  -27.4336  -21.7298   19.5163 N   0  0  0  0  0  0  0  0  0  0  0  0
  -27.3120  -18.1216   19.6990 N   0  3  0  0  0  0  0  0  0  0  0  0
  -22.4471  -14.6566   21.1504 O   0  0  0  0  0  0  0  0  0  0  0  0
  -30.4080  -25.5849   21.9142 O   0  0  0  0  0  0  0  0  0  0  0  0
  -29.5354  -23.5621   18.8578 O   0  0  0  0  0  0  0  0  0  0  0  0
  -27.0663  -20.3768   21.3633 O   0  0  0  0  0  0  0  0  0  0  0  0
  -29.2391  -17.1247   26.9015 O   0  0  0  0  0  0  0  0  0  0  0  0
  -31.9742  -14.3689   20.5080 O   0  0  0  0  0  0  0  0  0  0  0  0
  -21.8175   -6.9287   21.8362 O   0  0  0  0  0  0  0  0  0  0  0  0
  -30.8879  -21.3156   26.9190 O   0  0  0  0  0  0  0  0  0  1  0  0
  -24.3792   -3.1402   24.9165 F   0  0  0  0  0  0  0  0  0  0  0  0
  -20.7453   -6.0981   24.2451 F   0  0  0  0  0  0  0  0  0  0  0  0
  -31.8329  -19.1269   28.1533 F   0  0  0  0  0  0  0  0  0  0  0  0
  -30.1659  -15.9958   24.4448 S   0  0  0  0  0  0  0  0  0  0  0  0
  1  2  1  0  0  0  0
  1  5  2  0  0  0  0
  2  6  2  0  0  0  0
  3  8  2  0  0  0  0
  3 15  1  0  0  0  0
  4  9  1  0  0  0  0
  4 15  2  0  0  0  0
  5 17  1  0  0  0  0
  6 19  1  0  0  0  0
  7 10  2  0  0  0  0
  7 18  1  0  0  0  0
  8 21  1  0  0  0  0
  9 21  2  0  0  0  0
 10 22  1  0  0  0  0
 11 12  2  0  0  0  0
 11 23  1  0  0  0  0
 12 24  1  0  0  0  0
 13 20  1  0  0  0  0
 13 22  2  0  0  0  0
 14 24  2  0  0  0  0
 14 25  1  0  0  0  0
 15 26  1  0  0  0  0
 16 26  1  0  0  0  0
 16 28  2  0  0  0  0
 16 31  1  0  0  0  0
 17 19  2  0  0  0  0
 17 37  1  0  0  0  0
 18 20  2  0  0  0  0
 18 38  1  0  0  0  0
 19 46  1  0  0  0  0
 20 39  1  0  0  0  0
 21 81  1  0  0  0  0
 22 82  1  0  0  0  0
 23 25  2  0  0  0  0
 23 81  1  0  0  0  0
 24 83  1  0  0  0  0
 25 84  1  0  0  0  0
 26 63  2  0  0  0  0
 27 29  2  0  0  0  0
 27 58  1  0  0  0  0
 27 64  1  0  0  0  0
 28 65  1  0  0  0  0
 28 68  1  0  0  0  0
 29 70  1  0  0  0  0
 29 86  1  0  0  0  0
 30 64  2  0  0  0  0
 30 71  1  0  0  0  0
 30 86  1  0  0  0  0
 31 69  1  0  0  0  0
 31 75  2  0  0  0  0
 32 47  1  0  0  0  0
 32 72  1  0  0  0  0
 32 76  2  0  0  0  0
 33 59  1  0  0  0  0
 33 66  1  0  0  0  0
 33 77  2  0  0  0  0
 34 60  1  0  0  0  0
 34 73  1  0  0  0  0
 34 78  2  0  0  0  0
 35 61  1  0  0  0  0
 35 70  1  0  0  0  0
 35 79  2  0  0  0  0
 36 67  1  0  0  0  0
 36 71  1  0  0  0  0
 36 80  2  0  0  0  0
 37 40  1  0  0  0  0
 38 47  1  0  0  0  0
 39 66  1  0  0  0  0
 40 42  1  0  0  0  0
 41 43  1  0  0  0  0
 41 44  1  0  0  0  0
 42 46  1  0  0  0  0
 43 48  1  0  0  0  0
 44 67  1  0  0  0  0
 45 48  1  0  0  0  0
 45 67  1  0  0  0  0
 46 72  1  0  0  0  0
 47 66  1  0  0  0  0
 48 65  1  0  0  0  0
 49 58  1  0  0  0  0
 50 58  1  0  0  0  0
 51 60  1  0  0  0  0
 52 62  1  0  0  0  0
 53 62  1  0  0  0  0
 54 62  1  0  0  0  0
 55 74  1  0  0  0  0
 56 57  1  0  0  0  0
 56 61  1  0  0  0  0
 57 82  1  0  0  0  0
 59 62  1  0  0  0  0
 59 73  1  0  0  0  0
 60 74  1  0  0  0  0
 61 85  1  0  0  0  0
 63 65  1  0  0  0  0
M  CHG  1  74   1
M  ISO  4  36 100  57 101  71 100  82 101
M  END
> <Batch ID>
0187

> <Smiles>
CNC(C)C(=O)NC(C(=O)N1Cc2cc([101O:1][101CH2:1]CC(F)C(=O)Nc3sc([100NH:0][100C:0](=O)N4CCCC(n5nc(-c6ccc(Oc7ccc(F)cc7F)cc6)c(C(N)=O)c5N)C4)nc3C(C)C)ccc2CC1C(=O)NC1CCCc2ccccc21)C(C)(C)C

> <Shape>
0.218

> <Color>
0.192

> <Negative vol penalty>
0.000

$$$$

  -OEChem-04052305123D

 86 94  0     1  0  0  0  0  0999 V2000
  -19.7722  -30.9747   19.9111 C   0  0  0  0  0  0  0  0  0  0  0  0
  -20.9607  -30.4229   19.4437 C   0  0  0  0  0  0  0  0  0  0  0  0
  -24.5134   -9.7181   21.4670 C   0  0  0  0  0  0  0  0  0  0  0  0
  -24.8667  -10.8196   23.5881 C   0  0  0  0  0  0  0  0  0  0  0  0
  -19.7200  -31.5372   21.1858 C   0  0  0  0  0  0  0  0  0  0  0  0
  -22.0981  -30.4343   20.2504 C   0  0  0  0  0  0  0  0  0  0  0  0
  -24.5368  -25.9961   20.2327 C   0  0  0  0  0  0  0  0  0  0  0  0
  -24.2094   -8.5314   22.1339 C   0  0  0  0  0  0  0  0  0  0  0  0
  -24.5628   -9.6328   24.2550 C   0  0  0  0  0  0  0  0  0  0  0  0
  -25.3342  -25.7122   19.1249 C   0  0  0  0  0  0  0  0  0  0  0  0
  -22.9888   -5.3071   23.2868 C   0  0  0  0  0  0  0  0  0  0  0  0
  -21.8781   -4.5846   22.8512 C   0  0  0  0  0  0  0  0  0  0  0  0
  -27.2921  -26.3627   20.3750 C   0  0  0  0  0  0  0  0  0  0  0  0
  -20.4567   -6.4769   23.3367 C   0  0  0  0  0  0  0  0  0  0  0  0
  -24.8421  -10.8623   22.1941 C   0  0  0  0  0  0  0  0  0  0  0  0
  -24.2596  -13.1052   21.1274 C   0  0  0  0  0  0  0  0  0  0  0  0
  -20.8547  -31.5468   22.0122 C   0  0  0  0  0  0  0  0  0  0  0  0
  -25.1108  -26.4766   21.4185 C   0  0  0  0  0  0  0  0  0  0  0  0
  -22.0613  -30.9986   21.5368 C   0  0  0  0  0  0  0  0  0  0  0  0
  -26.5001  -26.6495   21.4973 C   0  0  0  0  0  0  0  0  0  0  0  0
  -24.2341   -8.4887   23.5279 C   0  0  0  0  0  0  0  0  0  0  0  0
  -26.7117  -25.8982   19.1950 C   0  0  0  0  0  0  0  0  0  0  0  0
  -22.8335   -6.6146   23.7475 C   0  0  0  0  0  0  0  0  0  0  0  0
  -20.6120   -5.1695   22.8761 C   0  0  0  0  0  0  0  0  0  0  0  0
  -21.5674   -7.1995   23.7724 C   0  0  0  0  0  0  0  0  0  0  0  0
  -25.1567  -12.0884   21.5057 C   0  0  0  0  0  0  0  0  0  0  0  0
  -28.9943  -21.4906   20.2643 C   0  0  0  0  0  0  0  0  0  0  0  0
  -25.0472  -14.0453   20.5090 C   0  0  0  0  0  0  0  0  0  0  0  0
  -27.7366  -21.6295   20.8128 C   0  0  0  0  0  0  0  0  0  0  0  0
  -28.5515  -19.3714   20.6148 C   0  0  0  0  0  0  0  0  0  0  0  0
  -22.8413  -13.1922   21.3180 C   0  0  0  0  0  0  0  0  0  0  0  0
  -24.8408  -29.1484   23.1192 C   0  0  0  0  0  0  0  0  0  0  0  0
  -26.7403  -27.5495   25.2068 C   0  0  0  0  0  0  0  0  0  0  0  0
  -28.8642  -22.8620   17.5246 C   0  0  0  0  0  0  0  0  0  0  0  0
  -29.0514  -25.0922   25.7238 C   0  0  0  0  0  0  0  0  0  0  0  0
  -29.6710  -17.1392   20.2827 C   0  0  0  0  0  0  0  0  0  0  0  0
  -20.7624  -32.2085   23.3644 C   0  0  0  0  0  0  0  0  0  0  0  0
  -24.2399  -26.7528   22.6133 C   0  0  0  0  0  0  0  0  0  0  0  0
  -27.1677  -27.1438   22.7536 C   0  0  0  0  0  0  0  0  0  0  0  0
  -21.9122  -31.8447   24.3003 C   0  0  0  0  0  0  0  0  0  0  0  0
  -29.8746  -13.8229   19.0029 C   0  0  0  0  0  0  0  0  0  0  0  0
  -23.2477  -31.9485   23.5705 C   0  0  0  0  0  0  0  0  0  0  0  0
  -28.5915  -13.1596   19.5088 C   0  0  0  0  0  0  0  0  0  0  0  0
  -30.4538  -14.7943   20.0298 C   0  0  0  0  0  0  0  0  0  0  0  0
  -28.2304  -15.1442   21.0312 C   0  0  0  0  0  0  0  0  0  0  0  0
  -23.3097  -30.9697   22.3917 C   0  0  1  0  0  0  0  0  0  0  0  0
  -24.8736  -27.7260   23.6025 C   0  0  1  0  0  0  0  0  0  0  0  0
  -27.5744  -14.2058   20.0053 C   0  0  2  0  0  0  0  0  0  0  0  0
  -27.8520  -23.2500   15.2755 C   0  0  0  0  0  0  0  0  0  0  0  0
  -30.4457  -24.0477   27.5300 C   0  0  0  0  0  0  0  0  0  0  0  0
  -30.2207  -23.5868   20.9409 C   0  0  0  0  0  0  0  0  0  0  0  0
  -31.2171  -22.0552   19.2166 C   0  0  0  0  0  0  0  0  0  0  0  0
  -28.6238  -29.9490   25.1371 C   0  0  0  0  0  0  0  0  0  0  0  0
  -30.3930  -28.5017   26.1586 C   0  0  0  0  0  0  0  0  0  0  0  0
  -28.2819  -28.9568   27.4071 C   0  0  0  0  0  0  0  0  0  0  0  0
  -27.7755  -22.4494   25.3410 C   0  0  0  0  0  0  0  0  0  0  0  0
  -27.0421  -24.5943   17.2337 C   0  0  0  0  0  0  0  0  0  1  0  0
  -28.2303  -27.4116   25.4067 C   0  0  1  0  0  0  0  0  0  0  0  0
  -28.2528  -23.9119   16.5929 C   0  0  1  0  0  0  0  0  0  0  0  0
  -29.1334  -23.9892   26.7636 C   0  0  2  0  0  0  0  0  0  0  0  0
  -29.9028  -22.6279   19.7787 C   0  0  0  0  0  0  0  0  0  0  0  0
  -28.8697  -28.6973   26.0029 C   0  0  0  0  0  0  0  0  0  0  0  0
  -26.4177  -12.3571   21.1567 N   0  0  0  0  0  0  0  0  0  0  0  0
  -29.4634  -20.1964   20.1503 N   0  0  0  0  0  0  0  0  0  0  0  0
  -26.3186  -13.5534   20.5525 N   0  0  0  0  0  0  0  0  0  0  0  0
  -26.2727  -27.4059   23.8928 N   0  0  0  0  0  0  0  0  0  0  0  0
  -29.4349  -15.7583   20.4508 N   0  0  0  0  0  0  0  0  0  0  0  0
  -24.7693  -15.2363   19.9376 N   0  0  0  0  0  0  0  0  0  0  0  0
  -27.0443  -22.7726   21.0379 N   0  0  0  0  0  0  0  0  0  0  0  0
  -22.1893  -12.1385   21.9730 N   0  0  0  0  0  0  0  0  0  0  0  0
  -28.6179  -17.9579   20.6891 N   0  0  0  0  0  0  0  0  0  0  0  0
  -23.5698  -29.6264   22.8632 N   0  0  0  0  0  0  0  0  0  0  0  0
  -28.4241  -26.2157   26.2194 N   0  0  0  0  0  0  0  0  0  0  0  0
  -29.2845  -23.4065   18.7298 N   0  0  0  0  0  0  0  0  0  0  0  0
  -29.0295  -22.6534   26.1110 N   0  3  0  0  0  0  0  0  0  0  0  0
  -22.1695  -14.1676   20.9048 O   0  0  0  0  0  0  0  0  0  0  0  0
  -25.8908  -29.7668   22.9897 O   0  0  0  0  0  0  0  0  0  0  0  0
  -26.0172  -27.7693   26.1817 O   0  0  0  0  0  0  0  0  0  0  0  0
  -28.9672  -21.6768   17.2158 O   0  0  0  0  0  0  0  0  0  0  0  0
  -29.5022  -24.9708   24.5869 O   0  0  0  0  0  0  0  0  0  0  0  0
  -30.7186  -17.5628   19.7876 O   0  0  0  0  0  0  0  0  0  0  0  0
  -23.9373   -7.3309   24.1789 O   0  0  0  0  0  0  0  0  0  0  0  0
  -27.4923  -25.6225   18.1149 O   0  0  0  0  0  0  0  0  0  1  0  0
  -19.5457   -4.4761   22.4563 F   0  0  0  0  0  0  0  0  0  0  0  0
  -21.4121   -8.4556   24.2127 F   0  0  0  0  0  0  0  0  0  0  0  0
  -27.1054  -20.0835   21.2037 S   0  0  0  0  0  0  0  0  0  0  0  0
  1  2  1  0  0  0  0
  1  5  2  0  0  0  0
  2  6  2  0  0  0  0
  3  8  2  0  0  0  0
  3 15  1  0  0  0  0
  4  9  1  0  0  0  0
  4 15  2  0  0  0  0
  5 17  1  0  0  0  0
  6 19  1  0  0  0  0
  7 10  2  0  0  0  0
  7 18  1  0  0  0  0
  8 21  1  0  0  0  0
  9 21  2  0  0  0  0
 10 22  1  0  0  0  0
 11 12  2  0  0  0  0
 11 23  1  0  0  0  0
 12 24  1  0  0  0  0
 13 20  1  0  0  0  0
 13 22  2  0  0  0  0
 14 24  2  0  0  0  0
 14 25  1  0  0  0  0
 15 26  1  0  0  0  0
 16 26  1  0  0  0  0
 16 28  2  0  0  0  0
 16 31  1  0  0  0  0
 17 19  2  0  0  0  0
 17 37  1  0  0  0  0
 18 20  2  0  0  0  0
 18 38  1  0  0  0  0
 19 46  1  0  0  0  0
 20 39  1  0  0  0  0
 21 82  1  0  0  0  0
 22 83  1  0  0  0  0
 23 25  2  0  0  0  0
 23 82  1  0  0  0  0
 24 84  1  0  0  0  0
 25 85  1  0  0  0  0
 26 63  2  0  0  0  0
 27 29  2  0  0  0  0
 27 61  1  0  0  0  0
 27 64  1  0  0  0  0
 28 65  1  0  0  0  0
 28 68  1  0  0  0  0
 29 69  1  0  0  0  0
 29 86  1  0  0  0  0
 30 64  2  0  0  0  0
 30 71  1  0  0  0  0
 30 86  1  0  0  0  0
 31 70  1  0  0  0  0
 31 76  2  0  0  0  0
 32 47  1  0  0  0  0
 32 72  1  0  0  0  0
 32 77  2  0  0  0  0
 33 58  1  0  0  0  0
 33 66  1  0  0  0  0
 33 78  2  0  0  0  0
 34 59  1  0  0  0  0
 34 74  1  0  0  0  0
 34 79  2  0  0  0  0
 35 60  1  0  0  0  0
 35 73  1  0  0  0  0
 35 80  2  0  0  0  0
 36 67  1  0  0  0  0
 36 71  1  0  0  0  0
 36 81  2  0  0  0  0
 37 40  1  0  0  0  0
 38 47  1  0  0  0  0
 39 66  1  0  0  0  0
 40 42  1  0  0  0  0
 41 43  1  0  0  0  0
 41 44  1  0  0  0  0
 42 46  1  0  0  0  0
 43 48  1  0  0  0  0
 44 67  1  0  0  0  0
 45 48  1  0  0  0  0
 45 67  1  0  0  0  0
 46 72  1  0  0  0  0
 47 66  1  0  0  0  0
 48 65  1  0  0  0  0
 49 59  1  0  0  0  0
 50 60  1  0  0  0  0
 51 61  1  0  0  0  0
 52 61  1  0  0  0  0
 53 62  1  0  0  0  0
 54 62  1  0  0  0  0
 55 62  1  0  0  0  0
 56 75  1  0  0  0  0
 57 59  1  0  0  0  0
 57 83  1  0  0  0  0
 58 62  1  0  0  0  0
 58 73  1  0  0  0  0
 60 75  1  0  0  0  0
 61 74  1  0  0  0  0
 63 65  1  0  0  0  0
M  CHG  1  75   1
M  ISO  4  36 100  57 101  71 100  83 101
M  END
> <Batch ID>
0187

> <Smiles>
CNC(C)C(=O)NC(C(=O)N1Cc2cc([101O:1][101CH2:1]C(C)C(=O)NC(C)(C)c3nc([100NH:0][100C:0](=O)N4CCCC(n5nc(-c6ccc(Oc7ccc(F)cc7F)cc6)c(C(N)=O)c5N)C4)sc3N)ccc2CC1C(=O)NC1CCCc2ccccc21)C(C)(C)C

> <Shape>
0.249

> <Color>
0.108

> <Negative vol penalty>
0.000

$$$$

  -OEChem-04052305123D

 82 90  0     1  0  0  0  0  0999 V2000
  -30.0313  -24.5240   16.2852 C   0  0  0  0  0  0  0  0  0  0  0  0
  -29.5270  -24.0927   17.5079 C   0  0  0  0  0  0  0  0  0  0  0  0
  -24.0732  -12.4804   19.6051 C   0  0  0  0  0  0  0  0  0  0  0  0
  -25.2876  -12.4215   21.6929 C   0  0  0  0  0  0  0  0  0  0  0  0
  -29.9283  -25.8669   15.9245 C   0  0  0  0  0  0  0  0  0  0  0  0
  -28.9202  -25.0043   18.3712 C   0  0  0  0  0  0  0  0  0  0  0  0
  -24.6070  -23.2337   20.3476 C   0  0  0  0  0  0  0  0  0  0  0  0
  -24.1735  -11.0926   19.5076 C   0  0  0  0  0  0  0  0  0  0  0  0
  -25.3879  -11.0337   21.5954 C   0  0  0  0  0  0  0  0  0  0  0  0
  -24.7145  -22.3223   21.3971 C   0  0  0  0  0  0  0  0  0  0  0  0
  -25.6502   -7.4398   22.0781 C   0  0  0  0  0  0  0  0  0  0  0  0
  -25.3848   -6.6876   23.2224 C   0  0  0  0  0  0  0  0  0  0  0  0
  -24.2765  -24.0951   22.9734 C   0  0  0  0  0  0  0  0  0  0  0  0
  -23.1469   -7.5948   23.2996 C   0  0  0  0  0  0  0  0  0  0  0  0
  -24.6303  -13.1449   20.6977 C   0  0  0  0  0  0  0  0  0  0  0  0
  -23.5000  -15.3156   21.4174 C   0  0  0  0  0  0  0  0  0  0  0  0
  -29.3114  -26.7936   16.7796 C   0  0  0  0  0  0  0  0  0  0  0  0
  -24.3438  -24.5869   20.6041 C   0  0  0  0  0  0  0  0  0  0  0  0
  -28.8101  -26.3611   18.0222 C   0  0  0  0  0  0  0  0  0  0  0  0
  -24.1636  -25.0211   21.9251 C   0  0  0  0  0  0  0  0  0  0  0  0
  -24.8308  -10.3692   20.5027 C   0  0  0  0  0  0  0  0  0  0  0  0
  -24.5521  -22.7535   22.7104 C   0  0  0  0  0  0  0  0  0  0  0  0
  -24.6640   -8.2695   21.5446 C   0  0  0  0  0  0  0  0  0  0  0  0
  -24.1332   -6.7651   23.8332 C   0  0  0  0  0  0  0  0  0  0  0  0
  -23.4123   -8.3470   22.1553 C   0  0  0  0  0  0  0  0  0  0  0  0
  -24.5275  -14.5785   20.7988 C   0  0  0  0  0  0  0  0  0  0  0  0
  -29.9354  -20.4770   23.3184 C   0  0  0  0  0  0  0  0  0  0  0  0
  -29.1328  -20.5082   24.4449 C   0  0  0  0  0  0  0  0  0  0  0  0
  -23.8657  -16.6279   21.2427 C   0  0  0  0  0  0  0  0  0  0  0  0
  -22.3204  -14.8553   22.0901 C   0  0  0  0  0  0  0  0  0  0  0  0
  -25.8975  -27.3115   20.0877 C   0  0  0  0  0  0  0  0  0  0  0  0
  -26.0998  -20.2830   24.8689 C   0  0  0  0  0  0  0  0  0  0  0  0
  -23.1489  -28.6349   21.1906 C   0  0  0  0  0  0  0  0  0  0  0  0
  -20.3124  -28.2901   23.0566 C   0  0  0  0  0  0  0  0  0  0  0  0
  -29.1508  -19.3082   20.3850 C   0  0  0  0  0  0  0  0  0  0  0  0
  -29.2657  -28.2435   16.3670 C   0  0  0  0  0  0  0  0  0  0  0  0
  -24.2043  -25.5524   19.4592 C   0  0  0  0  0  0  0  0  0  0  0  0
  -23.8594  -26.4594   22.2526 C   0  0  0  0  0  0  0  0  0  0  0  0
  -28.2739  -29.0759   17.1755 C   0  0  0  0  0  0  0  0  0  0  0  0
  -26.2976  -19.4721   18.2614 C   0  0  0  0  0  0  0  0  0  0  0  0
  -28.4241  -28.7865   18.6656 C   0  0  0  0  0  0  0  0  0  0  0  0
  -25.4277  -18.3030   18.7268 C   0  0  0  0  0  0  0  0  0  0  0  0
  -27.7845  -19.1300   18.3263 C   0  0  0  0  0  0  0  0  0  0  0  0
  -27.3803  -17.4693   20.1018 C   0  0  0  0  0  0  0  0  0  0  0  0
  -28.1229  -27.3151   18.9750 C   0  0  1  0  0  0  0  0  0  0  0  0
  -24.4435  -27.0026   19.8680 C   0  0  1  0  0  0  0  0  0  0  0  0
  -25.8750  -17.7860   20.1073 C   0  0  2  0  0  0  0  0  0  0  0  0
  -18.2775  -29.5565   23.8001 C   0  0  0  0  0  0  0  0  0  0  0  0
  -24.8456  -30.1725   23.2073 C   0  0  0  0  0  0  0  0  0  0  0  0
  -22.7536  -30.6527   24.4962 C   0  0  0  0  0  0  0  0  0  0  0  0
  -23.0029  -31.5035   22.1645 C   0  0  0  0  0  0  0  0  0  0  0  0
  -18.4911  -26.3727   21.7279 C   0  0  0  0  0  0  0  0  0  0  0  0
  -30.4302  -19.3655   22.5108 C   0  0  0  0  0  0  0  0  0  0  0  0
  -27.0369  -19.0848   24.7952 C   0  0  0  0  0  0  0  0  0  0  0  0
  -25.5279  -20.7518   23.5455 C   0  0  0  0  0  0  0  0  0  1  0  0
  -28.4723  -19.4012   25.2402 C   0  0  2  0  0  0  0  0  0  0  0  0
  -22.6241  -29.0335   22.5488 C   0  0  1  0  0  0  0  0  0  0  0  0
  -18.8616  -28.6194   22.7544 C   0  0  2  0  0  0  0  0  0  0  0  0
  -23.3142  -30.3137   23.0985 C   0  0  0  0  0  0  0  0  0  0  0  0
  -25.4748  -15.3578   20.2703 N   0  0  0  0  0  0  0  0  0  0  0  0
  -25.0440  -16.5983   20.5563 N   0  0  0  0  0  0  0  0  0  0  0  0
  -23.7390  -27.3663   21.0991 N   0  0  0  0  0  0  0  0  0  0  0  0
  -28.1439  -18.6475   19.6620 N   0  0  0  0  0  0  0  0  0  0  0  0
  -23.2912  -17.7928   21.6106 N   0  0  0  0  0  0  0  0  0  0  0  0
  -22.0983  -13.4743   22.1795 N   0  0  0  0  0  0  0  0  0  0  0  0
  -26.6945  -27.0824   18.9825 N   0  0  0  0  0  0  0  0  0  0  0  0
  -21.1764  -29.1480   22.4095 N   0  0  0  0  0  0  0  0  0  0  0  0
  -29.4251  -18.7904   21.6449 N   0  0  0  0  0  0  0  0  0  0  0  0
  -28.4325  -19.7203   26.7043 N   0  3  0  0  0  0  0  0  0  0  0  0
  -18.0425  -27.3747   22.7287 N   0  3  0  0  0  0  0  0  0  0  0  0
  -21.4798  -15.6455   22.5825 O   0  0  0  0  0  0  0  0  0  0  0  0
  -26.2685  -27.7283   21.1788 O   0  0  0  0  0  0  0  0  0  0  0  0
  -25.8439  -20.8605   25.9243 O   0  0  0  0  0  0  0  0  0  0  0  0
  -23.0330  -29.4173   20.2440 O   0  0  0  0  0  0  0  0  0  0  0  0
  -20.6458  -27.3667   23.7960 O   0  0  0  0  0  0  0  0  0  0  0  0
  -29.7564  -20.2904   19.9428 O   0  0  0  0  0  0  0  0  0  0  0  0
  -24.9287   -9.0150   20.4080 O   0  0  0  0  0  0  0  0  0  0  0  0
  -24.6572  -21.8661   23.7368 O   0  0  0  0  0  0  0  0  0  1  0  0
  -23.8780   -6.0416   24.9311 F   0  0  0  0  0  0  0  0  0  0  0  0
  -22.4605   -9.1414   21.6467 F   0  0  0  0  0  0  0  0  0  0  0  0
  -30.2247  -22.2119   23.0941 S   0  0  0  0  0  0  0  0  0  0  0  0
  -29.0609  -22.2573   24.7276 S   0  0  0  0  0  0  0  0  0  0  0  0
  1  2  1  0  0  0  0
  1  5  2  0  0  0  0
  2  6  2  0  0  0  0
  3  8  2  0  0  0  0
  3 15  1  0  0  0  0
  4  9  1  0  0  0  0
  4 15  2  0  0  0  0
  5 17  1  0  0  0  0
  6 19  1  0  0  0  0
  7 10  2  0  0  0  0
  7 18  1  0  0  0  0
  8 21  1  0  0  0  0
  9 21  2  0  0  0  0
 10 22  1  0  0  0  0
 11 12  2  0  0  0  0
 11 23  1  0  0  0  0
 12 24  1  0  0  0  0
 13 20  1  0  0  0  0
 13 22  2  0  0  0  0
 14 24  2  0  0  0  0
 14 25  1  0  0  0  0
 15 26  1  0  0  0  0
 16 26  1  0  0  0  0
 16 29  2  0  0  0  0
 16 30  1  0  0  0  0
 17 19  2  0  0  0  0
 17 36  1  0  0  0  0
 18 20  2  0  0  0  0
 18 37  1  0  0  0  0
 19 45  1  0  0  0  0
 20 38  1  0  0  0  0
 21 77  1  0  0  0  0
 22 78  1  0  0  0  0
 23 25  2  0  0  0  0
 23 77  1  0  0  0  0
 24 79  1  0  0  0  0
 25 80  1  0  0  0  0
 26 60  2  0  0  0  0
 27 28  2  0  0  0  0
 27 53  1  0  0  0  0
 27 81  1  0  0  0  0
 28 56  1  0  0  0  0
 28 82  1  0  0  0  0
 29 61  1  0  0  0  0
 29 64  1  0  0  0  0
 30 65  1  0  0  0  0
 30 71  2  0  0  0  0
 31 46  1  0  0  0  0
 31 66  1  0  0  0  0
 31 72  2  0  0  0  0
 32 54  1  0  0  0  0
 32 55  1  0  0  0  0
 32 73  2  0  0  0  0
 33 57  1  0  0  0  0
 33 62  1  0  0  0  0
 33 74  2  0  0  0  0
 34 58  1  0  0  0  0
 34 67  1  0  0  0  0
 34 75  2  0  0  0  0
 35 63  1  0  0  0  0
 35 68  1  0  0  0  0
 35 76  2  0  0  0  0
 36 39  1  0  0  0  0
 37 46  1  0  0  0  0
 38 62  1  0  0  0  0
 39 41  1  0  0  0  0
 40 42  1  0  0  0  0
 40 43  1  0  0  0  0
 41 45  1  0  0  0  0
 42 47  1  0  0  0  0
 43 63  1  0  0  0  0
 44 47  1  0  0  0  0
 44 63  1  0  0  0  0
 45 66  1  0  0  0  0
 46 62  1  0  0  0  0
 47 61  1  0  0  0  0
 48 58  1  0  0  0  0
 49 59  1  0  0  0  0
 50 59  1  0  0  0  0
 51 59  1  0  0  0  0
 52 70  1  0  0  0  0
 53 68  1  0  0  0  0
 54 56  1  0  0  0  0
 55 78  1  0  0  0  0
 56 69  1  0  0  0  0
 57 59  1  0  0  0  0
 57 67  1  0  0  0  0
 58 70  1  0  0  0  0
 60 61  1  0  0  0  0
 81 82  1  0  0  0  0
M  CHG  2  69   1  70   1
M  ISO  4  35 100  55 101  68 100  78 101
M  END
> <Batch ID>
0187

> <Smiles>
CNC(C)C(=O)NC(C(=O)N1Cc2cc([101O:1][101CH2:1]C(=O)CC(N)c3ssc3C[100NH:0][100C:0](=O)N3CCCC(n4nc(-c5ccc(Oc6ccc(F)cc6F)cc5)c(C(N)=O)c4N)C3)ccc2CC1C(=O)NC1CCCc2ccccc21)C(C)(C)C

> <Shape>
0.224

> <Color>
0.069

> <Negative vol penalty>
0.000

$$$$

  -OEChem-04052305123D

 85 93  0     1  0  0  0  0  0999 V2000
  -17.9655  -33.4055   21.2924 C   0  0  0  0  0  0  0  0  0  0  0  0
  -19.3330  -33.5102   21.5255 C   0  0  0  0  0  0  0  0  0  0  0  0
  -23.3255  -11.6647   21.6418 C   0  0  0  0  0  0  0  0  0  0  0  0
  -23.6043  -11.4010   19.2565 C   0  0  0  0  0  0  0  0  0  0  0  0
  -17.2591  -32.3055   21.7770 C   0  0  0  0  0  0  0  0  0  0  0  0
  -19.9948  -32.5153   22.2443 C   0  0  0  0  0  0  0  0  0  0  0  0
  -25.4862  -28.8703   19.3374 C   0  0  0  0  0  0  0  0  0  0  0  0
  -22.2576  -10.7678   21.6161 C   0  0  0  0  0  0  0  0  0  0  0  0
  -22.5364  -10.5041   19.2308 C   0  0  0  0  0  0  0  0  0  0  0  0
  -26.6794  -28.2748   18.9280 C   0  0  0  0  0  0  0  0  0  0  0  0
  -19.6888   -8.2714   22.2362 C   0  0  0  0  0  0  0  0  0  0  0  0
  -19.6434   -7.2887   23.2251 C   0  0  0  0  0  0  0  0  0  0  0  0
  -26.7396  -26.9710   20.9638 C   0  0  0  0  0  0  0  0  0  0  0  0
  -21.7746   -6.4340   22.4737 C   0  0  0  0  0  0  0  0  0  0  0  0
  -31.8375  -19.3800   19.2910 C   0  0  0  0  0  0  0  0  0  0  0  0
  -23.9989  -11.9814   20.4619 C   0  0  0  0  0  0  0  0  0  0  0  0
  -26.4629  -12.6048   20.6801 C   0  0  0  0  0  0  0  0  0  0  0  0
  -17.9143  -31.2918   22.4938 C   0  0  0  0  0  0  0  0  0  0  0  0
  -24.9063  -28.5066   20.5560 C   0  0  0  0  0  0  0  0  0  0  0  0
  -19.2962  -31.4013   22.7401 C   0  0  0  0  0  0  0  0  0  0  0  0
  -25.5379  -27.5549   21.3734 C   0  0  0  0  0  0  0  0  0  0  0  0
  -21.8631  -10.1874   20.4106 C   0  0  0  0  0  0  0  0  0  0  0  0
  -27.3047  -27.3277   19.7393 C   0  0  0  0  0  0  0  0  0  0  0  0
  -20.7771   -8.3353   21.3660 C   0  0  0  0  0  0  0  0  0  0  0  0
  -20.6862   -6.3700   23.3438 C   0  0  0  0  0  0  0  0  0  0  0  0
  -21.8200   -7.4166   21.4848 C   0  0  0  0  0  0  0  0  0  0  0  0
  -25.1018  -12.9083   20.4877 C   0  0  0  0  0  0  0  0  0  0  0  0
  -30.4737  -19.2271   19.4287 C   0  0  0  0  0  0  0  0  0  0  0  0
  -27.0978  -13.8212   20.6190 C   0  0  0  0  0  0  0  0  0  0  0  0
  -30.6729  -21.2234   20.3148 C   0  0  0  0  0  0  0  0  0  0  0  0
  -27.0967  -11.3368   20.8948 C   0  0  0  0  0  0  0  0  0  0  0  0
  -22.0658  -28.9657   22.9636 C   0  0  0  0  0  0  0  0  0  0  0  0
  -22.6950  -25.9641   22.8896 C   0  0  0  0  0  0  0  0  0  0  0  0
  -24.8807  -23.4156   23.4933 C   0  0  0  0  0  0  0  0  0  0  0  0
  -29.4701  -24.7227   20.1498 C   0  0  0  0  0  0  0  0  0  0  0  0
  -27.5934  -18.7067   17.7548 C   0  0  0  0  0  0  0  0  0  0  0  0
  -17.0999  -30.1452   23.0385 C   0  0  0  0  0  0  0  0  0  0  0  0
  -23.6540  -29.1671   21.0653 C   0  0  0  0  0  0  0  0  0  0  0  0
  -24.8959  -27.2200   22.6919 C   0  0  0  0  0  0  0  0  0  0  0  0
  -17.9443  -28.9485   23.4685 C   0  0  0  0  0  0  0  0  0  0  0  0
  -25.2532  -18.5215   20.6168 C   0  0  0  0  0  0  0  0  0  0  0  0
  -19.1350  -29.4079   24.3040 C   0  0  0  0  0  0  0  0  0  0  0  0
  -25.0687  -17.0159   20.7993 C   0  0  0  0  0  0  0  0  0  0  0  0
  -25.5793  -18.8817   19.1706 C   0  0  0  0  0  0  0  0  0  0  0  0
  -26.5675  -16.6456   18.8001 C   0  0  0  0  0  0  0  0  0  0  0  0
  -20.0541  -30.3303   23.4942 C   0  0  1  0  0  0  0  0  0  0  0  0
  -22.7481  -28.2104   21.8611 C   0  0  1  0  0  0  0  0  0  0  0  0
  -26.2837  -16.2444   20.2554 C   0  0  2  0  0  0  0  0  0  0  0  0
  -29.6826  -22.3511   22.3494 C   0  0  0  0  0  0  0  0  0  0  0  0
  -25.6683  -21.0615   23.8611 C   0  0  0  0  0  0  0  0  0  0  0  0
  -28.7908  -24.9739   17.7369 C   0  0  0  0  0  0  0  0  0  0  0  0
  -21.8020  -26.5002   25.7565 C   0  0  0  0  0  0  0  0  0  0  0  0
  -22.7833  -24.2888   26.4005 C   0  0  0  0  0  0  0  0  0  0  0  0
  -20.9051  -24.3883   24.7618 C   0  0  0  0  0  0  0  0  0  0  0  0
  -29.7147  -18.3289   16.5561 C   0  0  0  0  0  0  0  0  0  0  0  0
  -25.2422  -22.9598   20.5914 C   0  0  0  0  0  0  0  0  0  0  0  0
  -29.6914  -18.0483   19.0069 C   0  0  0  0  0  0  0  0  0  0  0  0
  -30.3179  -22.5391   20.9732 C   0  0  2  0  0  0  0  0  0  0  0  0
  -23.2076  -25.1585   24.0564 C   0  0  1  0  0  0  0  0  0  0  0  0
  -24.9975  -22.0254   22.8949 C   0  0  2  0  0  0  0  0  0  0  0  0
  -28.4648  -25.3280   19.1799 C   0  0  2  0  0  0  0  0  0  1  0  0
  -22.1906  -25.1038   25.2312 C   0  0  0  0  0  0  0  0  0  0  0  0
  -24.8839  -14.2150   20.3173 N   0  0  0  0  0  0  0  0  0  0  0  0
  -29.8043  -20.2830   20.0159 N   0  0  0  0  0  0  0  0  0  0  0  0
  -26.1166  -14.7434   20.4025 N   0  0  0  0  0  0  0  0  0  0  0  0
  -23.4399  -27.0917   22.5235 N   0  0  0  0  0  0  0  0  0  0  0  0
  -26.7104  -18.1030   18.6651 N   0  0  0  0  0  0  0  0  0  0  0  0
  -28.3941  -14.1813   20.7300 N   0  0  0  0  0  0  0  0  0  0  0  0
  -26.2960  -10.1870   20.9291 N   0  0  0  0  0  0  0  0  0  0  0  0
  -20.8747  -29.5567   22.5873 N   0  0  0  0  0  0  0  0  0  0  0  0
  -29.4643  -23.3366   20.1242 N   0  0  0  0  0  0  0  0  0  0  0  0
  -23.5729  -23.8515   23.5210 N   0  0  0  0  0  0  0  0  0  0  0  0
  -28.9298  -18.2801   17.7815 N   0  0  0  0  0  0  0  0  0  0  0  0
  -25.8001  -22.0673   21.6399 N   0  3  0  0  0  0  0  0  0  0  0  0
  -28.3343  -11.2285   21.0680 O   0  0  0  0  0  0  0  0  0  0  0  0
  -22.5803  -29.0085   24.0749 O   0  0  0  0  0  0  0  0  0  0  0  0
  -21.6593  -25.6089   22.3200 O   0  0  0  0  0  0  0  0  0  0  0  0
  -25.8521  -24.0498   23.8992 O   0  0  0  0  0  0  0  0  0  0  0  0
  -30.1821  -25.4114   20.8775 O   0  0  0  0  0  0  0  0  0  0  0  0
  -27.2112  -19.5841   16.9699 O   0  0  0  0  0  0  0  0  0  0  0  0
  -20.8212   -9.3120   20.3853 O   0  0  0  0  0  0  0  0  0  0  0  0
  -28.4671  -26.7469   19.3315 O   0  0  0  0  0  0  0  0  0  1  0  0
  -20.6431   -5.4274   24.2945 F   0  0  0  0  0  0  0  0  0  0  0  0
  -22.8687   -7.4738   20.6524 F   0  0  0  0  0  0  0  0  0  0  0  0
  -32.3116  -20.9046   19.9170 S   0  0  0  0  0  0  0  0  0  0  0  0
  1  2  1  0  0  0  0
  1  5  2  0  0  0  0
  2  6  2  0  0  0  0
  3  8  2  0  0  0  0
  3 16  1  0  0  0  0
  4  9  1  0  0  0  0
  4 16  2  0  0  0  0
  5 18  1  0  0  0  0
  6 20  1  0  0  0  0
  7 10  2  0  0  0  0
  7 19  1  0  0  0  0
  8 22  1  0  0  0  0
  9 22  2  0  0  0  0
 10 23  1  0  0  0  0
 11 12  2  0  0  0  0
 11 24  1  0  0  0  0
 12 25  1  0  0  0  0
 13 21  1  0  0  0  0
 13 23  2  0  0  0  0
 14 25  2  0  0  0  0
 14 26  1  0  0  0  0
 15 28  2  0  0  0  0
 15 85  1  0  0  0  0
 16 27  1  0  0  0  0
 17 27  1  0  0  0  0
 17 29  2  0  0  0  0
 17 31  1  0  0  0  0
 18 20  2  0  0  0  0
 18 37  1  0  0  0  0
 19 21  2  0  0  0  0
 19 38  1  0  0  0  0
 20 46  1  0  0  0  0
 21 39  1  0  0  0  0
 22 81  1  0  0  0  0
 23 82  1  0  0  0  0
 24 26  2  0  0  0  0
 24 81  1  0  0  0  0
 25 83  1  0  0  0  0
 26 84  1  0  0  0  0
 27 63  2  0  0  0  0
 28 57  1  0  0  0  0
 28 64  1  0  0  0  0
 29 65  1  0  0  0  0
 29 68  1  0  0  0  0
 30 58  1  0  0  0  0
 30 64  2  0  0  0  0
 30 85  1  0  0  0  0
 31 69  1  0  0  0  0
 31 75  2  0  0  0  0
 32 47  1  0  0  0  0
 32 70  1  0  0  0  0
 32 76  2  0  0  0  0
 33 59  1  0  0  0  0
 33 66  1  0  0  0  0
 33 77  2  0  0  0  0
 34 60  1  0  0  0  0
 34 72  1  0  0  0  0
 34 78  2  0  0  0  0
 35 61  1  0  0  0  0
 35 71  1  0  0  0  0
 35 79  2  0  0  0  0
 36 67  1  0  0  0  0
 36 73  1  0  0  0  0
 36 80  2  0  0  0  0
 37 40  1  0  0  0  0
 38 47  1  0  0  0  0
 39 66  1  0  0  0  0
 40 42  1  0  0  0  0
 41 43  1  0  0  0  0
 41 44  1  0  0  0  0
 42 46  1  0  0  0  0
 43 48  1  0  0  0  0
 44 67  1  0  0  0  0
 45 48  1  0  0  0  0
 45 67  1  0  0  0  0
 46 70  1  0  0  0  0
 47 66  1  0  0  0  0
 48 65  1  0  0  0  0
 49 58  1  0  0  0  0
 50 60  1  0  0  0  0
 51 61  1  0  0  0  0
 52 62  1  0  0  0  0
 53 62  1  0  0  0  0
 54 62  1  0  0  0  0
 55 73  1  0  0  0  0
 56 74  1  0  0  0  0
 57 73  1  0  0  0  0
 58 71  1  0  0  0  0
 59 62  1  0  0  0  0
 59 72  1  0  0  0  0
 60 74  1  0  0  0  0
 61 82  1  0  0  0  0
 63 65  1  0  0  0  0
M  CHG  1  74   1
M  ISO  4  36 100  61 101  73 100  82 101
M  END
> <Batch ID>
0187

> <Smiles>
CNC(C)C(=O)NC(C(=O)N1Cc2cc([101O:1][101CH:1](C)C(=O)NC(C)c3nc(C[100N:0](C)[100C:0](=O)N4CCCC(n5nc(-c6ccc(Oc7ccc(F)cc7F)cc6)c(C(N)=O)c5N)C4)cs3)ccc2CC1C(=O)NC1CCCc2ccccc21)C(C)(C)C

> <Shape>
0.243

> <Color>
0.080

> <Negative vol penalty>
0.000

$$$$

  -OEChem-04052305123D

 94102  0     1  0  0  0  0  0999 V2000
  -32.4057  -28.2027   24.8847 C   0  0  0  0  0  0  0  0  0  0  0  0
  -31.7761  -27.7894   23.7150 C   0  0  0  0  0  0  0  0  0  0  0  0
  -26.6295  -12.6449   21.7242 C   0  0  0  0  0  0  0  0  0  0  0  0
  -26.0927  -13.9146   19.7401 C   0  0  0  0  0  0  0  0  0  0  0  0
  -31.9088  -27.7981   26.1230 C   0  0  0  0  0  0  0  0  0  0  0  0
  -30.6498  -26.9701   23.7829 C   0  0  0  0  0  0  0  0  0  0  0  0
  -26.9608  -28.4763   20.6576 C   0  0  0  0  0  0  0  0  0  0  0  0
  -25.3482  -12.0938   21.7182 C   0  0  0  0  0  0  0  0  0  0  0  0
  -24.8114  -13.3635   19.7341 C   0  0  0  0  0  0  0  0  0  0  0  0
  -27.1012  -28.1591   19.3073 C   0  0  0  0  0  0  0  0  0  0  0  0
  -23.6930   -9.6557   20.0602 C   0  0  0  0  0  0  0  0  0  0  0  0
  -23.5771   -8.2823   20.2742 C   0  0  0  0  0  0  0  0  0  0  0  0
  -25.5930  -26.2984   19.5938 C   0  0  0  0  0  0  0  0  0  0  0  0
  -22.2218   -8.7014   22.2299 C   0  0  0  0  0  0  0  0  0  0  0  0
  -28.2510  -23.6648   20.0407 C   0  0  0  0  0  0  0  0  0  0  0  0
  -27.0018  -13.5554   20.7352 C   0  0  0  0  0  0  0  0  0  0  0  0
  -29.4729  -13.6164   20.1046 C   0  0  0  0  0  0  0  0  0  0  0  0
  -30.7701  -26.9814   26.2064 C   0  0  0  0  0  0  0  0  0  0  0  0
  -26.1425  -27.6991   21.4900 C   0  0  0  0  0  0  0  0  0  0  0  0
  -30.1379  -26.5531   25.0234 C   0  0  0  0  0  0  0  0  0  0  0  0
  -25.4418  -26.6094   20.9538 C   0  0  0  0  0  0  0  0  0  0  0  0
  -29.3557  -21.5607   19.9449 C   0  0  0  0  0  0  0  0  0  0  0  0
  -24.4391  -12.4530   20.7232 C   0  0  0  0  0  0  0  0  0  0  0  0
  -26.4195  -27.0683   18.7758 C   0  0  0  0  0  0  0  0  0  0  0  0
  -23.0734  -10.5520   20.9311 C   0  0  0  0  0  0  0  0  0  0  0  0
  -22.8415   -7.8051   21.3590 C   0  0  0  0  0  0  0  0  0  0  0  0
  -22.3378  -10.0748   22.0159 C   0  0  0  0  0  0  0  0  0  0  0  0
  -28.7487  -22.5549   20.7042 C   0  0  0  0  0  0  0  0  0  0  0  0
  -29.4451  -21.7049   18.5648 C   0  0  0  0  0  0  0  0  0  0  0  0
  -28.3251  -14.1255   20.7412 C   0  0  0  0  0  0  0  0  0  0  0  0
  -28.9161  -22.8527   17.9971 C   0  0  0  0  0  0  0  0  0  0  0  0
  -30.4636  -14.5168   20.4118 C   0  0  0  0  0  0  0  0  0  0  0  0
  -29.6295  -12.4354   19.3070 C   0  0  0  0  0  0  0  0  0  0  0  0
  -26.6241  -25.9144   24.0759 C   0  0  0  0  0  0  0  0  0  0  0  0
  -26.0254  -27.0410   14.6538 C   0  0  0  0  0  0  0  0  0  0  0  0
  -23.3881  -25.6906   24.0468 C   0  0  0  0  0  0  0  0  0  0  0  0
  -20.4894  -25.8438   22.2521 C   0  0  0  0  0  0  0  0  0  0  0  0
  -30.4055  -20.3125   21.8648 C   0  0  0  0  0  0  0  0  0  0  0  0
  -29.9335  -24.5693   16.2551 C   0  0  0  0  0  0  0  0  0  0  0  0
  -30.2978  -26.5309   27.5660 C   0  0  0  0  0  0  0  0  0  0  0  0
  -25.9807  -28.0705   22.9386 C   0  0  0  0  0  0  0  0  0  0  0  0
  -24.5351  -25.7553   21.8005 C   0  0  0  0  0  0  0  0  0  0  0  0
  -28.8783  -25.9696   27.5626 C   0  0  0  0  0  0  0  0  0  0  0  0
  -31.7618  -17.6465   23.7961 C   0  0  0  0  0  0  0  0  0  0  0  0
  -28.6945  -24.9895   26.4083 C   0  0  0  0  0  0  0  0  0  0  0  0
  -31.1436  -16.3943   23.1701 C   0  0  0  0  0  0  0  0  0  0  0  0
  -30.7793  -18.8162   23.8132 C   0  0  0  0  0  0  0  0  0  0  0  0
  -29.5555  -17.8850   21.8885 C   0  0  0  0  0  0  0  0  0  0  0  0
  -28.8992  -25.6845   25.0567 C   0  0  1  0  0  0  0  0  0  0  0  0
  -25.5244  -26.9025   23.8075 C   0  0  1  0  0  0  0  0  0  0  0  0
  -30.5288  -16.6991   21.7899 C   0  0  2  0  0  0  0  0  0  0  0  0
  -24.1172  -28.2312   13.4963 C   0  0  0  0  0  0  0  0  0  0  0  0
  -18.0059  -25.5788   22.4949 C   0  0  0  0  0  0  0  0  0  0  0  0
  -23.7220  -22.6588   24.1288 C   0  0  0  0  0  0  0  0  0  0  0  0
  -21.3305  -22.4461   23.4191 C   0  0  0  0  0  0  0  0  0  0  0  0
  -21.8935  -23.5468   25.5857 C   0  0  0  0  0  0  0  0  0  0  0  0
  -19.9934  -28.6423   21.4268 C   0  0  0  0  0  0  0  0  0  0  0  0
  -25.5388  -28.3350   14.0192 C   0  0  0  0  0  0  0  0  0  0  0  0
  -27.4124  -27.5889   16.6784 C   0  0  0  0  0  0  0  0  0  1  0  0
  -27.4443  -27.0659   15.2381 C   0  0  1  0  0  0  0  0  0  0  0  0
  -22.3871  -24.7515   23.4184 C   0  0  1  0  0  0  0  0  0  0  0  0
  -19.1741  -26.5521   22.5215 C   0  0  2  0  0  0  0  0  0  0  0  0
  -28.0707  -25.6705   15.0728 C   0  0  1  0  0  0  0  0  0  0  0  0
  -22.3518  -23.3655   24.1222 C   0  0  0  0  0  0  0  0  0  0  0  0
  -28.2149  -25.2143   13.6335 C   0  0  0  0  0  0  0  0  0  0  0  0
  -28.3193  -23.8400   18.7020 N   0  0  0  0  0  0  0  0  0  0  0  0
  -28.5632  -15.2610   21.4029 N   0  0  0  0  0  0  0  0  0  0  0  0
  -29.8721  -15.4729   21.1838 N   0  0  0  0  0  0  0  0  0  0  0  0
  -24.4147  -26.1551   23.2123 N   0  0  0  0  0  0  0  0  0  0  0  0
  -30.2409  -19.0492   22.4713 N   0  0  0  0  0  0  0  0  0  0  0  0
  -31.7743  -14.5759   20.0941 N   0  0  0  0  0  0  0  0  0  0  0  0
  -28.5089  -11.6219   19.0905 N   0  0  0  0  0  0  0  0  0  0  0  0
  -31.1332  -24.5231   16.8248 N   0  0  0  0  0  0  0  0  0  0  0  0
  -29.8811  -20.4061   20.5760 N   0  0  0  0  0  0  0  0  0  0  0  0
  -27.7282  -26.4584   24.7039 N   0  0  0  0  0  0  0  0  0  0  0  0
  -21.1093  -25.4556   23.4210 N   0  0  0  0  0  0  0  0  0  0  0  0
  -29.4021  -25.6530   15.6953 N   0  3  0  0  0  0  0  0  0  0  0  0
  -18.9326  -27.6045   21.4944 N   0  3  0  0  0  0  0  0  0  0  0  0
  -30.7342  -12.1023   18.8148 O   0  0  0  0  0  0  0  0  0  0  0  0
  -26.4808  -24.7448   23.7395 O   0  0  0  0  0  0  0  0  0  0  0  0
  -25.3330  -26.0235   14.6778 O   0  0  0  0  0  0  0  0  0  0  0  0
  -23.2598  -26.0063   25.2323 O   0  0  0  0  0  0  0  0  0  0  0  0
  -20.9218  -25.6506   21.1179 O   0  0  0  0  0  0  0  0  0  0  0  0
  -30.9940  -21.2345   22.4353 O   0  0  0  0  0  0  0  0  0  0  0  0
  -23.1888  -11.9153   20.7169 O   0  0  0  0  0  0  0  0  0  0  0  0
  -26.5553  -26.7560   17.4583 O   0  0  0  0  0  0  0  0  0  1  0  0
  -22.7289   -6.4861   21.5635 F   0  0  0  0  0  0  0  0  0  0  0  0
  -21.7393  -10.9310   22.8553 F   0  0  0  0  0  0  0  0  0  0  0  0
  -28.6439  -22.4534   22.0352 F   0  0  0  0  0  0  0  0  0  0  0  0
  -30.0273  -20.7569   17.8166 F   0  0  0  0  0  0  0  0  0  0  0  0
  -27.0009  -25.1110   13.0452 F   0  0  0  0  0  0  0  0  0  0  0  0
  -28.8178  -24.0129   13.5301 F   0  0  0  0  0  0  0  0  0  0  0  0
  -28.9352  -26.1033   12.9146 F   0  0  0  0  0  0  0  0  0  0  0  0
  -29.0036  -23.0899   16.2284 S   0  0  0  0  0  0  0  0  0  0  0  0
  1  2  1  0  0  0  0
  1  5  2  0  0  0  0
  2  6  2  0  0  0  0
  3  8  2  0  0  0  0
  3 16  1  0  0  0  0
  4  9  1  0  0  0  0
  4 16  2  0  0  0  0
  5 18  1  0  0  0  0
  6 20  1  0  0  0  0
  7 10  2  0  0  0  0
  7 19  1  0  0  0  0
  8 23  1  0  0  0  0
  9 23  2  0  0  0  0
 10 24  1  0  0  0  0
 11 12  2  0  0  0  0
 11 25  1  0  0  0  0
 12 26  1  0  0  0  0
 13 21  1  0  0  0  0
 13 24  2  0  0  0  0
 14 26  2  0  0  0  0
 14 27  1  0  0  0  0
 15 28  1  0  0  0  0
 15 66  2  0  0  0  0
 16 30  1  0  0  0  0
 17 30  1  0  0  0  0
 17 32  2  0  0  0  0
 17 33  1  0  0  0  0
 18 20  2  0  0  0  0
 18 40  1  0  0  0  0
 19 21  2  0  0  0  0
 19 41  1  0  0  0  0
 20 49  1  0  0  0  0
 21 42  1  0  0  0  0
 22 28  2  0  0  0  0
 22 29  1  0  0  0  0
 22 74  1  0  0  0  0
 23 85  1  0  0  0  0
 24 86  1  0  0  0  0
 25 27  2  0  0  0  0
 25 85  1  0  0  0  0
 26 87  1  0  0  0  0
 27 88  1  0  0  0  0
 28 89  1  0  0  0  0
 29 31  2  0  0  0  0
 29 90  1  0  0  0  0
 30 67  2  0  0  0  0
 31 66  1  0  0  0  0
 31 94  1  0  0  0  0
 32 68  1  0  0  0  0
 32 71  1  0  0  0  0
 33 72  1  0  0  0  0
 33 79  2  0  0  0  0
 34 50  1  0  0  0  0
 34 75  1  0  0  0  0
 34 80  2  0  0  0  0
 35 58  1  0  0  0  0
 35 60  1  0  0  0  0
 35 81  2  0  0  0  0
 36 61  1  0  0  0  0
 36 69  1  0  0  0  0
 36 82  2  0  0  0  0
 37 62  1  0  0  0  0
 37 76  1  0  0  0  0
 37 83  2  0  0  0  0
 38 70  1  0  0  0  0
 38 74  1  0  0  0  0
 38 84  2  0  0  0  0
 39 73  1  0  0  0  0
 39 77  2  0  0  0  0
 39 94  1  0  0  0  0
 40 43  1  0  0  0  0
 41 50  1  0  0  0  0
 42 69  1  0  0  0  0
 43 45  1  0  0  0  0
 44 46  1  0  0  0  0
 44 47  1  0  0  0  0
 45 49  1  0  0  0  0
 46 51  1  0  0  0  0
 47 70  1  0  0  0  0
 48 51  1  0  0  0  0
 48 70  1  0  0  0  0
 49 75  1  0  0  0  0
 50 69  1  0  0  0  0
 51 68  1  0  0  0  0
 52 58  1  0  0  0  0
 53 62  1  0  0  0  0
 54 64  1  0  0  0  0
 55 64  1  0  0  0  0
 56 64  1  0  0  0  0
 57 78  1  0  0  0  0
 59 60  1  0  0  0  0
 59 86  1  0  0  0  0
 60 63  1  0  0  0  0
 61 64  1  0  0  0  0
 61 76  1  0  0  0  0
 62 78  1  0  0  0  0
 63 65  1  0  0  0  0
 63 77  1  0  0  0  0
 65 91  1  0  0  0  0
 65 92  1  0  0  0  0
 65 93  1  0  0  0  0
 67 68  1  0  0  0  0
M  CHG  2  77   1  78   1
M  ISO  4  38 100  59 101  74 100  86 101
M  END
> <Batch ID>
0187

> <Smiles>
CCC(=O)C(C(NC(=N)Sc1ncc(F)c([100NH:0][100C:0](=O)N2CCCC(n3nc(-c4ccc(Oc5ccc(F)cc5F)cc4)c(C(N)=O)c3N)C2)c1F)C(F)(F)F)[101CH2:1][101O:1]c1ccc2c(c1)CN(C(=O)C(NC(=O)C(C)NC)C(C)(C)C)C(C(=O)NC1CCCc3ccccc31)C2

> <Shape>
0.228

> <Color>
0.060

> <Negative vol penalty>
0.000

$$$$

  -OEChem-04052305123D

 81 89  0     1  0  0  0  0  0999 V2000
  -18.7242  -24.3939   24.8496 C   0  0  0  0  0  0  0  0  0  0  0  0
  -20.0666  -24.0971   24.6369 C   0  0  0  0  0  0  0  0  0  0  0  0
  -26.6782  -13.1102   21.3468 C   0  0  0  0  0  0  0  0  0  0  0  0
  -26.4109  -13.8164   19.0519 C   0  0  0  0  0  0  0  0  0  0  0  0
  -18.1688  -25.5443   24.2909 C   0  0  0  0  0  0  0  0  0  0  0  0
  -20.8542  -24.9501   23.8645 C   0  0  0  0  0  0  0  0  0  0  0  0
  -26.7899  -26.2217   24.6745 C   0  0  0  0  0  0  0  0  0  0  0  0
  -26.0448  -11.9036   21.0493 C   0  0  0  0  0  0  0  0  0  0  0  0
  -25.7776  -12.6097   18.7543 C   0  0  0  0  0  0  0  0  0  0  0  0
  -27.9456  -25.7298   24.0695 C   0  0  0  0  0  0  0  0  0  0  0  0
  -22.8833  -10.7935   20.6058 C   0  0  0  0  0  0  0  0  0  0  0  0
  -21.9129  -10.3349   21.4966 C   0  0  0  0  0  0  0  0  0  0  0  0
  -27.9390  -27.6020   22.5484 C   0  0  0  0  0  0  0  0  0  0  0  0
  -23.2038   -8.3269   21.8689 C   0  0  0  0  0  0  0  0  0  0  0  0
  -33.6491  -24.3317   22.2941 C   0  0  0  0  0  0  0  0  0  0  0  0
  -34.3626  -25.1789   21.4724 C   0  0  0  0  0  0  0  0  0  0  0  0
  -26.8611  -14.0667   20.3481 C   0  0  0  0  0  0  0  0  0  0  0  0
  -28.8927  -15.5921   20.5800 C   0  0  0  0  0  0  0  0  0  0  0  0
  -18.9523  -26.4167   23.5192 C   0  0  0  0  0  0  0  0  0  0  0  0
  -26.1928  -27.4037   24.2131 C   0  0  0  0  0  0  0  0  0  0  0  0
  -20.3084  -26.1125   23.2938 C   0  0  0  0  0  0  0  0  0  0  0  0
  -26.7771  -28.1082   23.1509 C   0  0  0  0  0  0  0  0  0  0  0  0
  -25.5946  -11.6533   19.7531 C   0  0  0  0  0  0  0  0  0  0  0  0
  -28.5187  -26.4184   23.0044 C   0  0  0  0  0  0  0  0  0  0  0  0
  -24.0139  -10.0188   20.3464 C   0  0  0  0  0  0  0  0  0  0  0  0
  -22.0732   -9.1016   22.1282 C   0  0  0  0  0  0  0  0  0  0  0  0
  -24.1742   -8.7855   20.9780 C   0  0  0  0  0  0  0  0  0  0  0  0
  -27.5148  -15.3136   20.6549 C   0  0  0  0  0  0  0  0  0  0  0  0
  -28.9994  -16.9045   20.9705 C   0  0  0  0  0  0  0  0  0  0  0  0
  -32.0137  -24.9716   20.9805 C   0  0  0  0  0  0  0  0  0  0  0  0
  -29.9790  -14.7406   20.1920 C   0  0  0  0  0  0  0  0  0  0  0  0
  -23.3734  -28.1467   22.9472 C   0  0  0  0  0  0  0  0  0  0  0  0
  -27.1623  -22.1809   20.6973 C   0  0  0  0  0  0  0  0  0  0  0  0
  -24.4977  -31.1791   23.1979 C   0  0  0  0  0  0  0  0  0  0  0  0
  -28.9712  -23.4886   19.5053 C   0  0  0  0  0  0  0  0  0  0  0  0
  -27.1934  -33.2620   23.4011 C   0  0  0  0  0  0  0  0  0  0  0  0
  -18.2959  -27.6235   22.8967 C   0  0  0  0  0  0  0  0  0  0  0  0
  -24.9614  -27.9354   24.8939 C   0  0  0  0  0  0  0  0  0  0  0  0
  -26.1867  -29.3926   22.6311 C   0  0  0  0  0  0  0  0  0  0  0  0
  -19.2905  -28.6704   22.4017 C   0  0  0  0  0  0  0  0  0  0  0  0
  -25.6208  -20.0034   23.0895 C   0  0  0  0  0  0  0  0  0  0  0  0
  -20.4121  -28.0080   21.6080 C   0  0  0  0  0  0  0  0  0  0  0  0
  -26.0646  -18.6103   22.6451 C   0  0  0  0  0  0  0  0  0  0  0  0
  -25.3999  -20.9265   21.8952 C   0  0  0  0  0  0  0  0  0  0  0  0
  -27.0267  -19.6454   20.5408 C   0  0  0  0  0  0  0  0  0  0  0  0
  -21.2012  -27.0259   22.4823 C   0  0  1  0  0  0  0  0  0  0  0  0
  -24.1480  -28.8749   24.0090 C   0  0  1  0  0  0  0  0  0  0  0  0
  -27.2906  -18.6902   21.7182 C   0  0  2  0  0  0  0  0  0  0  0  0
  -27.7973  -35.6927   23.5579 C   0  0  0  0  0  0  0  0  0  0  0  0
  -23.8689  -31.5241   20.2321 C   0  0  0  0  0  0  0  0  0  0  0  0
  -25.3302  -33.5570   20.2301 C   0  0  0  0  0  0  0  0  0  0  0  0
  -23.2859  -33.4941   21.6582 C   0  0  0  0  0  0  0  0  0  0  0  0
  -28.5335  -32.8801   26.0121 C   0  0  0  0  0  0  0  0  0  0  0  0
  -28.3751  -22.1322   19.8025 C   0  0  0  0  0  0  0  0  0  0  0  0
  -29.8251  -26.2306   21.0260 C   0  0  0  0  0  0  0  0  0  1  0  0
  -30.6338  -25.1053   20.3748 C   0  0  2  0  0  0  0  0  0  0  0  0
  -25.2938  -32.1012   22.3063 C   0  0  1  0  0  0  0  0  0  0  0  0
  -27.5049  -34.4182   24.3343 C   0  0  2  0  0  0  0  0  0  0  0  0
  -24.4550  -32.6439   21.1150 C   0  0  0  0  0  0  0  0  0  0  0  0
  -32.3020  -24.2118   22.0138 N   0  0  0  0  0  0  0  0  0  0  0  0
  -26.7976  -16.3646   21.0613 N   0  0  0  0  0  0  0  0  0  0  0  0
  -27.7285  -17.3163   21.2453 N   0  0  0  0  0  0  0  0  0  0  0  0
  -24.9789  -29.8684   23.3257 N   0  0  0  0  0  0  0  0  0  0  0  0
  -26.5786  -20.9576   21.0274 N   0  0  0  0  0  0  0  0  0  0  0  0
  -30.0555  -17.7350   21.1023 N   0  0  0  0  0  0  0  0  0  0  0  0
  -29.6927  -13.4200   19.8198 N   0  0  0  0  0  0  0  0  0  0  0  0
  -22.1146  -27.7410   23.3476 N   0  0  0  0  0  0  0  0  0  0  0  0
  -29.9215  -23.8478   20.4463 N   0  0  0  0  0  0  0  0  0  0  0  0
  -25.8388  -33.1389   23.1751 N   0  0  0  0  0  0  0  0  0  0  0  0
  -28.6918  -34.0984   25.1769 N   0  3  0  0  0  0  0  0  0  0  0  0
  -31.1700  -15.1341   20.1915 O   0  0  0  0  0  0  0  0  0  0  0  0
  -23.8797  -27.9675   21.8457 O   0  0  0  0  0  0  0  0  0  0  0  0
  -26.7492  -23.2743   21.0924 O   0  0  0  0  0  0  0  0  0  0  0  0
  -23.4901  -31.6080   23.7658 O   0  0  0  0  0  0  0  0  0  0  0  0
  -28.6367  -24.1696   18.5394 O   0  0  0  0  0  0  0  0  0  0  0  0
  -28.0649  -32.5426   22.9179 O   0  0  0  0  0  0  0  0  0  0  0  0
  -24.9768  -10.4759   19.4624 O   0  0  0  0  0  0  0  0  0  0  0  0
  -29.6464  -25.9401   22.4116 O   0  0  0  0  0  0  0  0  0  1  0  0
  -21.1420   -8.6620   22.9848 F   0  0  0  0  0  0  0  0  0  0  0  0
  -25.2588   -8.0373   20.7338 F   0  0  0  0  0  0  0  0  0  0  0  0
  -33.3147  -25.8571   20.2963 S   0  0  0  0  0  0  0  0  0  0  0  0
  1  2  1  0  0  0  0
  1  5  2  0  0  0  0
  2  6  2  0  0  0  0
  3  8  2  0  0  0  0
  3 17  1  0  0  0  0
  4  9  1  0  0  0  0
  4 17  2  0  0  0  0
  5 19  1  0  0  0  0
  6 21  1  0  0  0  0
  7 10  2  0  0  0  0
  7 20  1  0  0  0  0
  8 23  1  0  0  0  0
  9 23  2  0  0  0  0
 10 24  1  0  0  0  0
 11 12  2  0  0  0  0
 11 25  1  0  0  0  0
 12 26  1  0  0  0  0
 13 22  1  0  0  0  0
 13 24  2  0  0  0  0
 14 26  2  0  0  0  0
 14 27  1  0  0  0  0
 15 16  2  0  0  0  0
 15 60  1  0  0  0  0
 16 81  1  0  0  0  0
 17 28  1  0  0  0  0
 18 28  1  0  0  0  0
 18 29  2  0  0  0  0
 18 31  1  0  0  0  0
 19 21  2  0  0  0  0
 19 37  1  0  0  0  0
 20 22  2  0  0  0  0
 20 38  1  0  0  0  0
 21 46  1  0  0  0  0
 22 39  1  0  0  0  0
 23 77  1  0  0  0  0
 24 78  1  0  0  0  0
 25 27  2  0  0  0  0
 25 77  1  0  0  0  0
 26 79  1  0  0  0  0
 27 80  1  0  0  0  0
 28 61  2  0  0  0  0
 29 62  1  0  0  0  0
 29 65  1  0  0  0  0
 30 56  1  0  0  0  0
 30 60  2  0  0  0  0
 30 81  1  0  0  0  0
 31 66  1  0  0  0  0
 31 71  2  0  0  0  0
 32 47  1  0  0  0  0
 32 67  1  0  0  0  0
 32 72  2  0  0  0  0
 33 54  1  0  0  0  0
 33 64  1  0  0  0  0
 33 73  2  0  0  0  0
 34 57  1  0  0  0  0
 34 63  1  0  0  0  0
 34 74  2  0  0  0  0
 35 54  1  0  0  0  0
 35 68  1  0  0  0  0
 35 75  2  0  0  0  0
 36 58  1  0  0  0  0
 36 69  1  0  0  0  0
 36 76  2  0  0  0  0
 37 40  1  0  0  0  0
 38 47  1  0  0  0  0
 39 63  1  0  0  0  0
 40 42  1  0  0  0  0
 41 43  1  0  0  0  0
 41 44  1  0  0  0  0
 42 46  1  0  0  0  0
 43 48  1  0  0  0  0
 44 64  1  0  0  0  0
 45 48  1  0  0  0  0
 45 64  1  0  0  0  0
 46 67  1  0  0  0  0
 47 63  1  0  0  0  0
 48 62  1  0  0  0  0
 49 58  1  0  0  0  0
 50 59  1  0  0  0  0
 51 59  1  0  0  0  0
 52 59  1  0  0  0  0
 53 70  1  0  0  0  0
 55 56  1  0  0  0  0
 55 78  1  0  0  0  0
 56 68  1  0  0  0  0
 57 59  1  0  0  0  0
 57 69  1  0  0  0  0
 58 70  1  0  0  0  0
 61 62  1  0  0  0  0
M  CHG  1  70   1
M  ISO  4  33 100  54 100  55 101  78 101
M  END
> <Batch ID>
0187

> <Smiles>
CNC(C)C(=O)NC(C(=O)N1Cc2cc([101O:1][101CH2:1]C(NC(=O)[100CH2:0][100C:0](=O)N3CCCC(n4nc(-c5ccc(Oc6ccc(F)cc6F)cc5)c(C(N)=O)c4N)C3)c3nccs3)ccc2CC1C(=O)NC1CCCc2ccccc21)C(C)(C)C

> <Shape>
0.248

> <Color>
0.074

> <Negative vol penalty>
0.000

$$$$

  -OEChem-04052305123D

 91 99  0     1  0  0  0  0  0999 V2000
  -28.1851  -31.8225   27.7390 C   0  0  0  0  0  0  0  0  0  0  0  0
  -28.1881  -30.8374   26.7567 C   0  0  0  0  0  0  0  0  0  0  0  0
  -24.4113   -8.4595   21.2712 C   0  0  0  0  0  0  0  0  0  0  0  0
  -23.4319  -10.2305   22.5909 C   0  0  0  0  0  0  0  0  0  0  0  0
  -27.0033  -32.4956   28.0460 C   0  0  0  0  0  0  0  0  0  0  0  0
  -27.0090  -30.5240   26.0815 C   0  0  0  0  0  0  0  0  0  0  0  0
  -27.6927  -30.0728   21.0841 C   0  0  0  0  0  0  0  0  0  0  0  0
  -24.0370   -7.5297   22.2412 C   0  0  0  0  0  0  0  0  0  0  0  0
  -23.0577   -9.3006   23.5609 C   0  0  0  0  0  0  0  0  0  0  0  0
  -28.2629  -28.8867   20.6240 C   0  0  0  0  0  0  0  0  0  0  0  0
  -23.0211   -4.6405   24.1996 C   0  0  0  0  0  0  0  0  0  0  0  0
  -22.4394   -3.4493   23.7659 C   0  0  0  0  0  0  0  0  0  0  0  0
  -26.0725  -28.0734   20.0244 C   0  0  0  0  0  0  0  0  0  0  0  0
  -20.6465   -4.6996   22.7367 C   0  0  0  0  0  0  0  0  0  0  0  0
  -28.0317  -18.7009   21.5086 C   0  0  0  0  0  0  0  0  0  0  0  0
  -24.1088   -9.8099   21.4460 C   0  0  0  0  0  0  0  0  0  0  0  0
  -23.7434  -11.1863   19.3295 C   0  0  0  0  0  0  0  0  0  0  0  0
  -25.8112  -32.1970   27.3676 C   0  0  0  0  0  0  0  0  0  0  0  0
  -26.3047  -30.2641   21.0278 C   0  0  0  0  0  0  0  0  0  0  0  0
  -25.8098  -31.1928   26.3807 C   0  0  0  0  0  0  0  0  0  0  0  0
  -25.4874  -29.2639   20.4821 C   0  0  0  0  0  0  0  0  0  0  0  0
  -23.3602   -7.9502   23.3861 C   0  0  0  0  0  0  0  0  0  0  0  0
  -27.4525  -27.8856   20.0967 C   0  0  0  0  0  0  0  0  0  0  0  0
  -22.4155   -5.8613   23.9020 C   0  0  0  0  0  0  0  0  0  0  0  0
  -21.2521   -3.4788   23.0344 C   0  0  0  0  0  0  0  0  0  0  0  0
  -21.2282   -5.8908   23.1705 C   0  0  0  0  0  0  0  0  0  0  0  0
  -24.4956  -10.7710   20.4446 C   0  0  0  0  0  0  0  0  0  0  0  0
  -29.1388  -18.7379   20.6869 C   0  0  0  0  0  0  0  0  0  0  0  0
  -24.5461  -12.1034   18.6961 C   0  0  0  0  0  0  0  0  0  0  0  0
  -29.1670  -20.8210   21.3721 C   0  0  0  0  0  0  0  0  0  0  0  0
  -22.4359  -10.7796   18.9043 C   0  0  0  0  0  0  0  0  0  0  0  0
  -24.0163  -30.7377   23.1824 C   0  0  0  0  0  0  0  0  0  0  0  0
  -31.9606  -22.2695   21.5860 C   0  0  0  0  0  0  0  0  0  0  0  0
  -22.1658  -31.1587   20.5517 C   0  0  0  0  0  0  0  0  0  0  0  0
  -21.6700  -30.5497   17.2306 C   0  0  0  0  0  0  0  0  0  0  0  0
  -27.8388  -16.3599   18.6800 C   0  0  0  0  0  0  0  0  0  0  0  0
  -24.5484  -32.9183   27.7672 C   0  0  0  0  0  0  0  0  0  0  0  0
  -25.7078  -31.5601   21.5036 C   0  0  0  0  0  0  0  0  0  0  0  0
  -23.9937  -29.4282   20.3805 C   0  0  0  0  0  0  0  0  0  0  0  0
  -23.4229  -32.7882   26.7441 C   0  0  0  0  0  0  0  0  0  0  0  0
  -29.4074  -13.2766   19.3903 C   0  0  0  0  0  0  0  0  0  0  0  0
  -23.2767  -31.3384   26.2928 C   0  0  0  0  0  0  0  0  0  0  0  0
  -28.2007  -12.3755   19.6484 C   0  0  0  0  0  0  0  0  0  0  0  0
  -29.2182  -14.6742   19.9828 C   0  0  0  0  0  0  0  0  0  0  0  0
  -26.7608  -14.4398   19.8129 C   0  0  0  0  0  0  0  0  0  0  0  0
  -24.5563  -30.8418   25.6090 C   0  0  1  0  0  0  0  0  0  0  0  0
  -24.2321  -31.4390   21.8712 C   0  0  1  0  0  0  0  0  0  0  0  0
  -26.9004  -13.0487   19.1759 C   0  0  2  0  0  0  0  0  0  0  0  0
  -34.4136  -21.6554   21.5226 C   0  0  0  0  0  0  0  0  0  0  0  0
  -31.3672  -17.4731   17.1188 C   0  0  0  0  0  0  0  0  0  0  0  0
  -20.0488  -30.9928   15.3671 C   0  0  0  0  0  0  0  0  0  0  0  0
  -28.1353  -19.4852   17.9049 C   0  0  0  0  0  0  0  0  0  0  0  0
  -20.2789  -29.0511   21.6954 C   0  0  0  0  0  0  0  0  0  0  0  0
  -19.2402  -28.8502   19.4263 C   0  0  0  0  0  0  0  0  0  0  0  0
  -19.1379  -31.0186   20.6553 C   0  0  0  0  0  0  0  0  0  0  0  0
  -23.7046  -32.0078   15.6515 C   0  0  0  0  0  0  0  0  0  0  0  0
  -29.6708  -17.6039   19.9053 C   0  0  0  0  0  0  0  0  0  0  0  0
  -33.1984  -22.0862   20.7208 C   0  0  0  0  0  0  0  0  0  0  0  0
  -30.4636  -18.6660   17.4035 C   0  0  0  0  0  0  0  0  0  0  0  0
  -29.3231  -24.7718   20.2107 C   0  0  0  0  0  0  0  0  0  0  0  0
  -29.2075  -26.2915   20.2835 C   0  0  0  0  0  0  0  0  0  1  0  0
  -30.6978  -22.7245   20.8632 C   0  0  2  0  0  0  0  0  0  0  0  0
  -21.3378  -30.2543   19.6712 C   0  0  1  0  0  0  0  0  0  0  0  0
  -21.3033  -31.4711   16.0813 C   0  0  2  0  0  0  0  0  0  0  0  0
  -29.0004  -18.2609   17.6238 C   0  0  1  0  0  0  0  0  0  0  0  0
  -30.6070  -24.2512   20.8658 C   0  0  2  0  0  0  0  0  0  0  0  0
  -20.0266  -29.7894   20.3656 C   0  0  0  0  0  0  0  0  0  0  0  0
  -25.6848  -11.3746   20.5181 N   0  0  0  0  0  0  0  0  0  0  0  0
  -29.7908  -19.9529   20.6070 N   0  0  0  0  0  0  0  0  0  0  0  0
  -25.6860  -12.1784   19.4411 N   0  0  0  0  0  0  0  0  0  0  0  0
  -23.4569  -30.7107   20.8648 N   0  0  0  0  0  0  0  0  0  0  0  0
  -27.9442  -15.2606   19.5448 N   0  0  0  0  0  0  0  0  0  0  0  0
  -24.3810  -12.8447   17.5801 N   0  0  0  0  0  0  0  0  0  0  0  0
  -21.7499   -9.8278   19.6710 N   0  0  0  0  0  0  0  0  0  0  0  0
  -29.5526  -22.1409   21.5281 N   0  0  0  0  0  0  0  0  0  0  0  0
  -24.6357  -31.3488   24.2559 N   0  0  0  0  0  0  0  0  0  0  0  0
  -21.1280  -30.9800   18.4231 N   0  0  0  0  0  0  0  0  0  0  0  0
  -28.8725  -17.3078   18.7173 N   0  0  0  0  0  0  0  0  0  0  0  0
  -22.4146  -31.5305   15.0901 N   0  3  0  0  0  0  0  0  0  0  0  0
  -21.8988  -11.2342   17.8658 O   0  0  0  0  0  0  0  0  0  0  0  0
  -23.3368  -29.7186   23.2179 O   0  0  0  0  0  0  0  0  0  0  0  0
  -31.9807  -22.0811   22.8026 O   0  0  0  0  0  0  0  0  0  0  0  0
  -21.6873  -32.2268   20.9413 O   0  0  0  0  0  0  0  0  0  0  0  0
  -22.3646  -29.5463   17.0843 O   0  0  0  0  0  0  0  0  0  0  0  0
  -26.8702  -16.4929   17.9209 O   0  0  0  0  0  0  0  0  0  0  0  0
  -22.9947   -7.0431   24.3327 O   0  0  0  0  0  0  0  0  0  0  0  0
  -28.0064  -26.7266   19.6475 O   0  0  0  0  0  0  0  0  0  1  0  0
  -20.6944   -2.3349   22.6166 F   0  0  0  0  0  0  0  0  0  0  0  0
  -20.6424   -7.0607   22.8805 F   0  0  0  0  0  0  0  0  0  0  0  0
  -30.6477  -24.6872   22.1575 F   0  0  0  0  0  0  0  0  0  0  0  0
  -27.7891  -20.2439   22.2167 S   0  0  0  0  0  0  0  0  0  0  0  0
  1  2  1  0  0  0  0
  1  5  2  0  0  0  0
  2  6  2  0  0  0  0
  3  8  2  0  0  0  0
  3 16  1  0  0  0  0
  4  9  1  0  0  0  0
  4 16  2  0  0  0  0
  5 18  1  0  0  0  0
  6 20  1  0  0  0  0
  7 10  2  0  0  0  0
  7 19  1  0  0  0  0
  8 22  1  0  0  0  0
  9 22  2  0  0  0  0
 10 23  1  0  0  0  0
 11 12  2  0  0  0  0
 11 24  1  0  0  0  0
 12 25  1  0  0  0  0
 13 21  1  0  0  0  0
 13 23  2  0  0  0  0
 14 25  2  0  0  0  0
 14 26  1  0  0  0  0
 15 28  2  0  0  0  0
 15 91  1  0  0  0  0
 16 27  1  0  0  0  0
 17 27  1  0  0  0  0
 17 29  2  0  0  0  0
 17 31  1  0  0  0  0
 18 20  2  0  0  0  0
 18 37  1  0  0  0  0
 19 21  2  0  0  0  0
 19 38  1  0  0  0  0
 20 46  1  0  0  0  0
 21 39  1  0  0  0  0
 22 86  1  0  0  0  0
 23 87  1  0  0  0  0
 24 26  2  0  0  0  0
 24 86  1  0  0  0  0
 25 88  1  0  0  0  0
 26 89  1  0  0  0  0
 27 68  2  0  0  0  0
 28 57  1  0  0  0  0
 28 69  1  0  0  0  0
 29 70  1  0  0  0  0
 29 73  1  0  0  0  0
 30 69  2  0  0  0  0
 30 75  1  0  0  0  0
 30 91  1  0  0  0  0
 31 74  1  0  0  0  0
 31 80  2  0  0  0  0
 32 47  1  0  0  0  0
 32 76  1  0  0  0  0
 32 81  2  0  0  0  0
 33 58  1  0  0  0  0
 33 62  1  0  0  0  0
 33 82  2  0  0  0  0
 34 63  1  0  0  0  0
 34 71  1  0  0  0  0
 34 83  2  0  0  0  0
 35 64  1  0  0  0  0
 35 77  1  0  0  0  0
 35 84  2  0  0  0  0
 36 72  1  0  0  0  0
 36 78  1  0  0  0  0
 36 85  2  0  0  0  0
 37 40  1  0  0  0  0
 38 47  1  0  0  0  0
 39 71  1  0  0  0  0
 40 42  1  0  0  0  0
 41 43  1  0  0  0  0
 41 44  1  0  0  0  0
 42 46  1  0  0  0  0
 43 48  1  0  0  0  0
 44 72  1  0  0  0  0
 45 48  1  0  0  0  0
 45 72  1  0  0  0  0
 46 76  1  0  0  0  0
 47 71  1  0  0  0  0
 48 70  1  0  0  0  0
 49 58  1  0  0  0  0
 50 59  1  0  0  0  0
 51 64  1  0  0  0  0
 52 65  1  0  0  0  0
 53 67  1  0  0  0  0
 54 67  1  0  0  0  0
 55 67  1  0  0  0  0
 56 79  1  0  0  0  0
 57 78  1  0  0  0  0
 59 65  1  0  0  0  0
 60 61  1  0  0  0  0
 60 66  1  0  0  0  0
 61 87  1  0  0  0  0
 62 66  1  0  0  0  0
 62 75  1  0  0  0  0
 63 67  1  0  0  0  0
 63 77  1  0  0  0  0
 64 79  1  0  0  0  0
 65 78  1  0  0  0  0
 66 90  1  0  0  0  0
 68 70  1  0  0  0  0
M  CHG  1  79   1
M  ISO  4  36 100  61 101  78 100  87 101
M  END
> <Batch ID>
0187

> <Smiles>
CCC(=O)C(Nc1nc(C[100N:0](C(C)CC)[100C:0](=O)N2CCCC(n3nc(-c4ccc(Oc5ccc(F)cc5F)cc4)c(C(N)=O)c3N)C2)cs1)C(F)C[101CH2:1][101O:1]c1ccc2c(c1)CN(C(=O)C(NC(=O)C(C)NC)C(C)(C)C)C(C(=O)NC1CCCc3ccccc31)C2

> <Shape>
0.303

> <Color>
0.087

> <Negative vol penalty>
0.000

$$$$

  -OEChem-04052305123D

 88 96  0     1  0  0  0  0  0999 V2000
  -22.1159  -25.0564   19.1206 C   0  0  0  0  0  0  0  0  0  0  0  0
  -23.3216  -24.4096   18.8690 C   0  0  0  0  0  0  0  0  0  0  0  0
  -26.4479  -28.3448   19.0423 C   0  0  0  0  0  0  0  0  0  0  0  0
  -26.1394  -27.1147   21.0986 C   0  0  0  0  0  0  0  0  0  0  0  0
  -21.4412  -24.8292   20.3194 C   0  0  0  0  0  0  0  0  0  0  0  0
  -23.8539  -23.5360   19.8165 C   0  0  0  0  0  0  0  0  0  0  0  0
  -25.9150  -16.0347   19.1031 C   0  0  0  0  0  0  0  0  0  0  0  0
  -25.3826  -29.1789   19.3813 C   0  0  0  0  0  0  0  0  0  0  0  0
  -25.0741  -27.9488   21.4378 C   0  0  0  0  0  0  0  0  0  0  0  0
  -26.1674  -14.6632   19.1422 C   0  0  0  0  0  0  0  0  0  0  0  0
  -22.5037  -29.9796   23.0148 C   0  0  0  0  0  0  0  0  0  0  0  0
  -22.4481  -30.4628   24.3221 C   0  0  0  0  0  0  0  0  0  0  0  0
  -25.6907  -14.6322   21.5128 C   0  0  0  0  0  0  0  0  0  0  0  0
  -24.5909  -31.5363   24.0164 C   0  0  0  0  0  0  0  0  0  0  0  0
  -26.8263  -27.3126   19.9009 C   0  0  0  0  0  0  0  0  0  0  0  0
  -29.2857  -26.6360   19.8661 C   0  0  0  0  0  0  0  0  0  0  0  0
  -21.9607  -23.9450   21.2780 C   0  0  0  0  0  0  0  0  0  0  0  0
  -25.5341  -16.7081   20.2671 C   0  0  0  0  0  0  0  0  0  0  0  0
  -23.1863  -23.2978   21.0299 C   0  0  0  0  0  0  0  0  0  0  0  0
  -25.4245  -16.0036   21.4772 C   0  0  0  0  0  0  0  0  0  0  0  0
  -24.6957  -28.9809   20.5791 C   0  0  0  0  0  0  0  0  0  0  0  0
  -26.0558  -13.9638   20.3441 C   0  0  0  0  0  0  0  0  0  0  0  0
  -23.6030  -30.2746   22.2083 C   0  0  0  0  0  0  0  0  0  0  0  0
  -23.4917  -31.2412   24.8229 C   0  0  0  0  0  0  0  0  0  0  0  0
  -24.6465  -31.0530   22.7091 C   0  0  0  0  0  0  0  0  0  0  0  0
  -27.9263  -26.4503   19.5509 C   0  0  0  0  0  0  0  0  0  0  0  0
  -30.4073  -16.7653   21.1658 C   0  0  0  0  0  0  0  0  0  0  0  0
  -29.9181  -25.5498   19.3123 C   0  0  0  0  0  0  0  0  0  0  0  0
  -29.9027  -17.1810   22.3801 C   0  0  0  0  0  0  0  0  0  0  0  0
  -29.4401  -18.6191   20.5039 C   0  0  0  0  0  0  0  0  0  0  0  0
  -29.9201  -27.6955   20.5946 C   0  0  0  0  0  0  0  0  0  0  0  0
  -24.5405  -19.9599   21.8528 C   0  0  0  0  0  0  0  0  0  0  0  0
  -22.7424  -17.7907   23.0661 C   0  0  0  0  0  0  0  0  0  0  0  0
  -30.1410  -13.3242   20.5106 C   0  0  0  0  0  0  0  0  0  0  0  0
  -20.6870  -15.1811   23.8422 C   0  0  0  0  0  0  0  0  0  0  0  0
  -29.1186  -19.9087   18.3638 C   0  0  0  0  0  0  0  0  0  0  0  0
  -21.2192  -23.7676   22.5793 C   0  0  0  0  0  0  0  0  0  0  0  0
  -25.3122  -18.1961   20.2842 C   0  0  0  0  0  0  0  0  0  0  0  0
  -25.0456  -16.7758   22.7114 C   0  0  0  0  0  0  0  0  0  0  0  0
  -21.6629  -22.5400   23.3708 C   0  0  0  0  0  0  0  0  0  0  0  0
  -28.7936  -22.3047   15.7502 C   0  0  0  0  0  0  0  0  0  0  0  0
  -23.1853  -22.4630   23.4275 C   0  0  0  0  0  0  0  0  0  0  0  0
  -28.6696  -23.6370   16.4931 C   0  0  0  0  0  0  0  0  0  0  0  0
  -28.0835  -21.1736   16.4920 C   0  0  0  0  0  0  0  0  0  0  0  0
  -28.3476  -22.3467   18.6422 C   0  0  0  0  0  0  0  0  0  0  0  0
  -23.7834  -22.3240   22.0224 C   0  0  1  0  0  0  0  0  0  0  0  0
  -24.1962  -18.6287   21.2521 C   0  0  1  0  0  0  0  0  0  0  0  0
  -29.1023  -23.5031   17.9664 C   0  0  2  0  0  0  0  0  0  0  0  0
  -32.6042  -15.8049   20.3637 C   0  0  0  0  0  0  0  0  0  0  0  0
  -30.2843  -11.6153   18.7106 C   0  0  0  0  0  0  0  0  0  0  0  0
  -18.6920  -14.5953   25.2472 C   0  0  0  0  0  0  0  0  0  0  0  0
  -26.7684  -11.2437   22.2795 C   0  0  0  0  0  0  0  0  0  0  0  0
  -24.5105  -17.7454   25.5512 C   0  0  0  0  0  0  0  0  0  0  0  0
  -22.7968  -16.2935   26.6573 C   0  0  0  0  0  0  0  0  0  0  0  0
  -22.1930  -18.6035   25.9349 C   0  0  0  0  0  0  0  0  0  0  0  0
  -30.1286  -15.1448   18.7333 C   0  0  0  0  0  0  0  0  0  0  0  0
  -19.0802  -14.4561   21.4649 C   0  0  0  0  0  0  0  0  0  0  0  0
  -28.4126  -11.4560   20.3793 C   0  0  0  0  0  0  0  0  0  0  0  0
  -31.2109  -15.5077   20.9141 C   0  0  2  0  0  0  0  0  0  0  0  0
  -22.5288  -16.8066   24.1883 C   0  0  1  0  0  0  0  0  0  0  0  0
  -29.3179  -12.4221   19.5822 C   0  0  1  0  0  0  0  0  0  0  0  0
  -19.1738  -15.0685   23.8846 C   0  0  2  0  0  0  0  0  0  0  0  0
  -27.3529  -12.1756   21.2256 C   0  0  1  0  0  0  0  0  0  1  0  0
  -23.0192  -17.3544   25.5583 C   0  0  0  0  0  0  0  0  0  0  0  0
  -27.7072  -25.3341   18.8509 N   0  0  0  0  0  0  0  0  0  0  0  0
  -30.1427  -17.5885   20.0886 N   0  0  0  0  0  0  0  0  0  0  0  0
  -28.9373  -24.8086   18.7216 N   0  0  0  0  0  0  0  0  0  0  0  0
  -23.9707  -17.7298   22.3967 N   0  0  0  0  0  0  0  0  0  0  0  0
  -28.5468  -21.1043   17.8796 N   0  0  0  0  0  0  0  0  0  0  0  0
  -31.2119  -25.1660   19.2776 N   0  0  0  0  0  0  0  0  0  0  0  0
  -30.0127  -16.5695   23.5846 N   0  0  0  0  0  0  0  0  0  0  0  0
  -29.1221  -28.7335   21.0949 N   0  0  0  0  0  0  0  0  0  0  0  0
  -28.9536  -19.7041   19.7333 N   0  0  0  0  0  0  0  0  0  0  0  0
  -23.6431  -20.9648   21.5456 N   0  0  0  0  0  0  0  0  0  0  0  0
  -21.1135  -16.4537   24.1579 N   0  0  0  0  0  0  0  0  0  0  0  0
  -30.4964  -14.5903   20.0339 N   0  0  0  0  0  0  0  0  0  0  0  0
  -18.6972  -14.1014   22.8557 N   0  3  0  0  0  0  0  0  0  0  0  0
  -31.1600  -27.7296   20.7818 O   0  0  0  0  0  0  0  0  0  0  0  0
  -25.5454  -20.0683   22.5457 O   0  0  0  0  0  0  0  0  0  0  0  0
  -21.8485  -18.5964   22.7922 O   0  0  0  0  0  0  0  0  0  0  0  0
  -30.4815  -12.9067   21.6227 O   0  0  0  0  0  0  0  0  0  0  0  0
  -21.4178  -14.2337   23.5610 O   0  0  0  0  0  0  0  0  0  0  0  0
  -29.7344  -19.1375   17.6236 O   0  0  0  0  0  0  0  0  0  0  0  0
  -23.6563  -29.7948   20.9104 O   0  0  0  0  0  0  0  0  0  0  0  0
  -26.2992  -12.6242   20.3743 O   0  0  0  0  0  0  0  0  0  1  0  0
  -23.4374  -31.7064   26.0778 F   0  0  0  0  0  0  0  0  0  0  0  0
  -25.7046  -31.3407   21.9388 F   0  0  0  0  0  0  0  0  0  0  0  0
  -29.0626  -18.6624   22.1773 S   0  0  0  0  0  0  0  0  0  0  0  0
  1  2  1  0  0  0  0
  1  5  2  0  0  0  0
  2  6  2  0  0  0  0
  3  8  2  0  0  0  0
  3 15  1  0  0  0  0
  4  9  1  0  0  0  0
  4 15  2  0  0  0  0
  5 17  1  0  0  0  0
  6 19  1  0  0  0  0
  7 10  2  0  0  0  0
  7 18  1  0  0  0  0
  8 21  1  0  0  0  0
  9 21  2  0  0  0  0
 10 22  1  0  0  0  0
 11 12  2  0  0  0  0
 11 23  1  0  0  0  0
 12 24  1  0  0  0  0
 13 20  1  0  0  0  0
 13 22  2  0  0  0  0
 14 24  2  0  0  0  0
 14 25  1  0  0  0  0
 15 26  1  0  0  0  0
 16 26  1  0  0  0  0
 16 28  2  0  0  0  0
 16 31  1  0  0  0  0
 17 19  2  0  0  0  0
 17 37  1  0  0  0  0
 18 20  2  0  0  0  0
 18 38  1  0  0  0  0
 19 46  1  0  0  0  0
 20 39  1  0  0  0  0
 21 84  1  0  0  0  0
 22 85  1  0  0  0  0
 23 25  2  0  0  0  0
 23 84  1  0  0  0  0
 24 86  1  0  0  0  0
 25 87  1  0  0  0  0
 26 65  2  0  0  0  0
 27 29  2  0  0  0  0
 27 59  1  0  0  0  0
 27 66  1  0  0  0  0
 28 67  1  0  0  0  0
 28 70  1  0  0  0  0
 29 71  1  0  0  0  0
 29 88  1  0  0  0  0
 30 66  2  0  0  0  0
 30 73  1  0  0  0  0
 30 88  1  0  0  0  0
 31 72  1  0  0  0  0
 31 78  2  0  0  0  0
 32 47  1  0  0  0  0
 32 74  1  0  0  0  0
 32 79  2  0  0  0  0
 33 60  1  0  0  0  0
 33 68  1  0  0  0  0
 33 80  2  0  0  0  0
 34 61  1  0  0  0  0
 34 76  1  0  0  0  0
 34 81  2  0  0  0  0
 35 62  1  0  0  0  0
 35 75  1  0  0  0  0
 35 82  2  0  0  0  0
 36 69  1  0  0  0  0
 36 73  1  0  0  0  0
 36 83  2  0  0  0  0
 37 40  1  0  0  0  0
 38 47  1  0  0  0  0
 39 68  1  0  0  0  0
 40 42  1  0  0  0  0
 41 43  1  0  0  0  0
 41 44  1  0  0  0  0
 42 46  1  0  0  0  0
 43 48  1  0  0  0  0
 44 69  1  0  0  0  0
 45 48  1  0  0  0  0
 45 69  1  0  0  0  0
 46 74  1  0  0  0  0
 47 68  1  0  0  0  0
 48 67  1  0  0  0  0
 49 59  1  0  0  0  0
 50 61  1  0  0  0  0
 51 62  1  0  0  0  0
 52 63  1  0  0  0  0
 53 64  1  0  0  0  0
 54 64  1  0  0  0  0
 55 64  1  0  0  0  0
 56 76  1  0  0  0  0
 57 77  1  0  0  0  0
 58 61  1  0  0  0  0
 58 63  1  0  0  0  0
 59 76  1  0  0  0  0
 60 64  1  0  0  0  0
 60 75  1  0  0  0  0
 62 77  1  0  0  0  0
 63 85  1  0  0  0  0
 65 67  1  0  0  0  0
M  CHG  1  77   1
M  ISO  4  36 100  63 101  73 100  85 101
M  END
> <Batch ID>
0187

> <Smiles>
CNC(C)C(=O)NC(C(=O)N1Cc2cc([101O:1][101CH:1](C)CC(C)C(=O)N(C)C(C)c3nc([100NH:0][100C:0](=O)N4CCCC(n5nc(-c6ccc(Oc7ccc(F)cc7F)cc6)c(C(N)=O)c5N)C4)sc3N)ccc2CC1C(=O)NC1CCCc2ccccc21)C(C)(C)C

> <Shape>
0.240

> <Color>
0.053

> <Negative vol penalty>
0.000

$$$$

  -OEChem-04052305123D

 87 95  0     1  0  0  0  0  0999 V2000
  -22.2817  -35.8103   23.3308 C   0  0  0  0  0  0  0  0  0  0  0  0
  -23.3761  -35.0612   22.9105 C   0  0  0  0  0  0  0  0  0  0  0  0
  -25.4463  -13.0115   21.6279 C   0  0  0  0  0  0  0  0  0  0  0  0
  -26.2116  -12.9212   19.3381 C   0  0  0  0  0  0  0  0  0  0  0  0
  -21.2183  -35.1848   23.9803 C   0  0  0  0  0  0  0  0  0  0  0  0
  -23.4082  -33.6862   23.1405 C   0  0  0  0  0  0  0  0  0  0  0  0
  -25.8639  -29.4037   19.5162 C   0  0  0  0  0  0  0  0  0  0  0  0
  -25.2028  -11.6384   21.6007 C   0  0  0  0  0  0  0  0  0  0  0  0
  -25.9681  -11.5480   19.3109 C   0  0  0  0  0  0  0  0  0  0  0  0
  -27.0899  -28.7405   19.5456 C   0  0  0  0  0  0  0  0  0  0  0  0
  -22.8200   -9.5547   20.4153 C   0  0  0  0  0  0  0  0  0  0  0  0
  -21.6153   -9.1002   20.9517 C   0  0  0  0  0  0  0  0  0  0  0  0
  -26.0594  -26.9001   20.7161 C   0  0  0  0  0  0  0  0  0  0  0  0
  -22.8330   -7.7640   22.5544 C   0  0  0  0  0  0  0  0  0  0  0  0
  -26.7305  -23.7369   16.9700 C   0  0  0  0  0  0  0  0  0  0  0  0
  -25.9507  -13.6530   20.4966 C   0  0  0  0  0  0  0  0  0  0  0  0
  -27.3963  -15.7163   20.8974 C   0  0  0  0  0  0  0  0  0  0  0  0
  -21.2330  -33.7999   24.2097 C   0  0  0  0  0  0  0  0  0  0  0  0
  -24.7269  -28.8239   20.0972 C   0  0  0  0  0  0  0  0  0  0  0  0
  -22.3446  -33.0418   23.7949 C   0  0  0  0  0  0  0  0  0  0  0  0
  -24.8196  -27.5568   20.6905 C   0  0  0  0  0  0  0  0  0  0  0  0
  -27.1448  -22.4375   17.3188 C   0  0  0  0  0  0  0  0  0  0  0  0
  -25.4637  -10.9066   20.4422 C   0  0  0  0  0  0  0  0  0  0  0  0
  -27.1885  -27.4898   20.1481 C   0  0  0  0  0  0  0  0  0  0  0  0
  -24.0312   -9.1138   20.9485 C   0  0  0  0  0  0  0  0  0  0  0  0
  -21.6218   -8.2049   22.0212 C   0  0  0  0  0  0  0  0  0  0  0  0
  -24.0378   -8.2185   22.0180 C   0  0  0  0  0  0  0  0  0  0  0  0
  -26.2019  -15.0715   20.5239 C   0  0  0  0  0  0  0  0  0  0  0  0
  -28.5109  -22.4635   17.1792 C   0  0  0  0  0  0  0  0  0  0  0  0
  -27.1237  -17.0546   20.7526 C   0  0  0  0  0  0  0  0  0  0  0  0
  -28.6408  -15.1555   21.3359 C   0  0  0  0  0  0  0  0  0  0  0  0
  -22.7685  -29.6181   22.4715 C   0  0  0  0  0  0  0  0  0  0  0  0
  -32.0037  -26.0161   16.8635 C   0  0  0  0  0  0  0  0  0  0  0  0
  -21.1092  -27.0244   21.4507 C   0  0  0  0  0  0  0  0  0  0  0  0
  -21.1334  -24.0294   19.8149 C   0  0  0  0  0  0  0  0  0  0  0  0
  -24.9649  -21.3022   17.8716 C   0  0  0  0  0  0  0  0  0  0  0  0
  -20.0817  -33.1758   24.9579 C   0  0  0  0  0  0  0  0  0  0  0  0
  -23.4059  -29.5404   20.0335 C   0  0  0  0  0  0  0  0  0  0  0  0
  -23.6243  -26.8821   21.3104 C   0  0  0  0  0  0  0  0  0  0  0  0
  -20.0244  -31.6558   24.8294 C   0  0  0  0  0  0  0  0  0  0  0  0
  -22.7405  -19.4556   19.9499 C   0  0  0  0  0  0  0  0  0  0  0  0
  -21.4052  -31.0484   25.0557 C   0  0  0  0  0  0  0  0  0  0  0  0
  -23.5410  -18.2035   20.3152 C   0  0  0  0  0  0  0  0  0  0  0  0
  -23.0135  -19.9049   18.5156 C   0  0  0  0  0  0  0  0  0  0  0  0
  -25.2323  -18.8347   18.5466 C   0  0  0  0  0  0  0  0  0  0  0  0
  -22.4051  -31.5443   24.0040 C   0  0  1  0  0  0  0  0  0  0  0  0
  -22.4259  -29.0834   21.1097 C   0  0  1  0  0  0  0  0  0  0  0  0
  -25.0398  -18.3818   20.0031 C   0  0  2  0  0  0  0  0  0  0  0  0
  -29.5342  -21.4214   17.3914 C   0  0  0  0  0  0  0  0  0  0  0  0
  -33.4657  -27.3871   15.3213 C   0  0  0  0  0  0  0  0  0  0  0  0
  -19.6334  -22.1218   19.1756 C   0  0  0  0  0  0  0  0  0  0  0  0
  -31.1238  -26.3289   21.1049 C   0  0  0  0  0  0  0  0  0  0  0  0
  -21.2114  -25.9864   24.3181 C   0  0  0  0  0  0  0  0  0  0  0  0
  -20.5728  -23.7270   23.4491 C   0  0  0  0  0  0  0  0  0  0  0  0
  -19.0162  -25.6556   23.1665 C   0  0  0  0  0  0  0  0  0  0  0  0
  -21.5814  -24.4929   16.9264 C   0  0  0  0  0  0  0  0  0  0  0  0
  -32.0501  -26.9705   15.6790 C   0  0  0  0  0  0  0  0  0  0  0  0
  -30.5540  -25.3487   18.8172 C   0  0  0  0  0  0  0  0  0  0  0  0
  -30.1963  -24.2762   16.4738 C   0  0  0  0  0  0  0  0  0  0  0  0
  -29.4966  -27.4981   19.5750 C   0  0  0  0  0  0  0  0  0  1  0  0
  -30.6137  -25.5201   17.2843 C   0  0  2  0  0  0  0  0  0  0  0  0
  -21.1244  -25.5501   21.7749 C   0  0  1  0  0  0  0  0  0  0  0  0
  -20.2191  -23.4579   18.7462 C   0  0  2  0  0  0  0  0  0  0  0  0
  -30.7646  -26.6323   19.6465 C   0  0  1  0  0  0  0  0  0  0  0  0
  -20.5043  -25.2431   23.1673 C   0  0  0  0  0  0  0  0  0  0  0  0
  -27.7509  -24.5307   16.6342 N   0  0  0  0  0  0  0  0  0  0  0  0
  -25.2420  -15.9296   20.1687 N   0  0  0  0  0  0  0  0  0  0  0  0
  -28.8199  -23.7278   16.7715 N   0  0  0  0  0  0  0  0  0  0  0  0
  -25.8329  -17.1274   20.3185 N   0  0  0  0  0  0  0  0  0  0  0  0
  -22.3562  -27.6256   21.2285 N   0  0  0  0  0  0  0  0  0  0  0  0
  -24.4532  -20.0571   18.2944 N   0  0  0  0  0  0  0  0  0  0  0  0
  -27.8647  -18.1646   20.9558 N   0  0  0  0  0  0  0  0  0  0  0  0
  -28.7499  -13.7613   21.4281 N   0  0  0  0  0  0  0  0  0  0  0  0
  -26.3513  -21.3364   17.7260 N   0  0  0  0  0  0  0  0  0  0  0  0
  -22.2063  -30.8492   22.7503 N   0  0  0  0  0  0  0  0  0  0  0  0
  -20.4576  -24.8808   20.6632 N   0  0  0  0  0  0  0  0  0  0  0  0
  -20.9711  -23.2549   17.4757 N   0  3  0  0  0  0  0  0  0  0  0  0
  -29.6217  -15.8703   21.6528 O   0  0  0  0  0  0  0  0  0  0  0  0
  -23.4883  -28.9616   23.2148 O   0  0  0  0  0  0  0  0  0  0  0  0
  -33.0252  -25.6533   17.4474 O   0  0  0  0  0  0  0  0  0  0  0  0
  -20.0302  -27.6191   21.3896 O   0  0  0  0  0  0  0  0  0  0  0  0
  -22.3268  -23.7457   19.8918 O   0  0  0  0  0  0  0  0  0  0  0  0
  -24.2302  -22.2747   17.6808 O   0  0  0  0  0  0  0  0  0  0  0  0
  -25.2264   -9.5666   20.4154 O   0  0  0  0  0  0  0  0  0  0  0  0
  -28.3924  -26.8361   20.1790 O   0  0  0  0  0  0  0  0  0  1  0  0
  -20.4648   -7.7696   22.5372 F   0  0  0  0  0  0  0  0  0  0  0  0
  -25.1982   -7.7923   22.5352 F   0  0  0  0  0  0  0  0  0  0  0  0
  1  2  1  0  0  0  0
  1  5  2  0  0  0  0
  2  6  2  0  0  0  0
  3  8  2  0  0  0  0
  3 16  1  0  0  0  0
  4  9  1  0  0  0  0
  4 16  2  0  0  0  0
  5 18  1  0  0  0  0
  6 20  1  0  0  0  0
  7 10  2  0  0  0  0
  7 19  1  0  0  0  0
  8 23  1  0  0  0  0
  9 23  2  0  0  0  0
 10 24  1  0  0  0  0
 11 12  2  0  0  0  0
 11 25  1  0  0  0  0
 12 26  1  0  0  0  0
 13 21  1  0  0  0  0
 13 24  2  0  0  0  0
 14 26  2  0  0  0  0
 14 27  1  0  0  0  0
 15 22  1  0  0  0  0
 15 66  2  0  0  0  0
 16 28  1  0  0  0  0
 17 28  1  0  0  0  0
 17 30  2  0  0  0  0
 17 31  1  0  0  0  0
 18 20  2  0  0  0  0
 18 37  1  0  0  0  0
 19 21  2  0  0  0  0
 19 38  1  0  0  0  0
 20 46  1  0  0  0  0
 21 39  1  0  0  0  0
 22 29  2  0  0  0  0
 22 74  1  0  0  0  0
 23 84  1  0  0  0  0
 24 85  1  0  0  0  0
 25 27  2  0  0  0  0
 25 84  1  0  0  0  0
 26 86  1  0  0  0  0
 27 87  1  0  0  0  0
 28 67  2  0  0  0  0
 29 49  1  0  0  0  0
 29 68  1  0  0  0  0
 30 69  1  0  0  0  0
 30 72  1  0  0  0  0
 31 73  1  0  0  0  0
 31 78  2  0  0  0  0
 32 47  1  0  0  0  0
 32 75  1  0  0  0  0
 32 79  2  0  0  0  0
 33 57  1  0  0  0  0
 33 61  1  0  0  0  0
 33 80  2  0  0  0  0
 34 62  1  0  0  0  0
 34 70  1  0  0  0  0
 34 81  2  0  0  0  0
 35 63  1  0  0  0  0
 35 76  1  0  0  0  0
 35 82  2  0  0  0  0
 36 71  1  0  0  0  0
 36 74  1  0  0  0  0
 36 83  2  0  0  0  0
 37 40  1  0  0  0  0
 38 47  1  0  0  0  0
 39 70  1  0  0  0  0
 40 42  1  0  0  0  0
 41 43  1  0  0  0  0
 41 44  1  0  0  0  0
 42 46  1  0  0  0  0
 43 48  1  0  0  0  0
 44 71  1  0  0  0  0
 45 48  1  0  0  0  0
 45 71  1  0  0  0  0
 46 75  1  0  0  0  0
 47 70  1  0  0  0  0
 48 69  1  0  0  0  0
 50 57  1  0  0  0  0
 51 63  1  0  0  0  0
 52 64  1  0  0  0  0
 53 65  1  0  0  0  0
 54 65  1  0  0  0  0
 55 65  1  0  0  0  0
 56 77  1  0  0  0  0
 58 61  1  0  0  0  0
 58 64  1  0  0  0  0
 59 61  1  0  0  0  0
 59 68  1  0  0  0  0
 60 64  1  0  0  0  0
 60 85  1  0  0  0  0
 62 65  1  0  0  0  0
 62 76  1  0  0  0  0
 63 77  1  0  0  0  0
 66 68  1  0  0  0  0
 67 69  1  0  0  0  0
M  CHG  1  77   1
M  ISO  4  36 100  60 101  74 100  85 101
M  END
> <Batch ID>
0187

> <Smiles>
CCC(=O)C(CC(C)[101CH2:1][101O:1]c1ccc2c(c1)CN(C(=O)C(NC(=O)C(C)NC)C(C)(C)C)C(C(=O)NC1CCCc3ccccc31)C2)Cn1ncc([100NH:0][100C:0](=O)N2CCCC(n3nc(-c4ccc(Oc5ccc(F)cc5F)cc4)c(C(N)=O)c3N)C2)c1C

> <Shape>
0.231

> <Color>
0.090

> <Negative vol penalty>
0.000

$$$$

  -OEChem-04052305123D

 81 89  0     1  0  0  0  0  0999 V2000
  -20.6233  -19.1452   17.3228 C   0  0  0  0  0  0  0  0  0  0  0  0
  -21.8203  -19.5019   17.9355 C   0  0  0  0  0  0  0  0  0  0  0  0
  -20.9365  -24.1485   20.9018 C   0  0  0  0  0  0  0  0  0  0  0  0
  -22.4152  -23.2145   22.5685 C   0  0  0  0  0  0  0  0  0  0  0  0
  -20.1571  -17.8345   17.4164 C   0  0  0  0  0  0  0  0  0  0  0  0
  -22.5513  -18.5482   18.6432 C   0  0  0  0  0  0  0  0  0  0  0  0
  -27.5038  -18.7312   17.6021 C   0  0  0  0  0  0  0  0  0  0  0  0
  -20.3635  -22.8919   20.7059 C   0  0  0  0  0  0  0  0  0  0  0  0
  -21.8422  -21.9579   22.3727 C   0  0  0  0  0  0  0  0  0  0  0  0
  -28.2457  -19.7419   18.2120 C   0  0  0  0  0  0  0  0  0  0  0  0
  -19.0319  -20.3305   23.3079 C   0  0  0  0  0  0  0  0  0  0  0  0
  -18.7098  -19.5832   24.4407 C   0  0  0  0  0  0  0  0  0  0  0  0
  -29.0274  -18.1646   19.8613 C   0  0  0  0  0  0  0  0  0  0  0  0
  -20.1997  -17.8285   23.7068 C   0  0  0  0  0  0  0  0  0  0  0  0
  -32.2253  -26.0141   21.1345 C   0  0  0  0  0  0  0  0  0  0  0  0
  -21.9624  -24.3097   21.8330 C   0  0  0  0  0  0  0  0  0  0  0  0
  -22.1465  -26.5950   22.9516 C   0  0  0  0  0  0  0  0  0  0  0  0
  -20.8875  -16.8621   18.1174 C   0  0  0  0  0  0  0  0  0  0  0  0
  -27.5095  -17.4299   18.1246 C   0  0  0  0  0  0  0  0  0  0  0  0
  -22.0937  -17.2237   18.7473 C   0  0  0  0  0  0  0  0  0  0  0  0
  -28.2867  -17.1386   19.2548 C   0  0  0  0  0  0  0  0  0  0  0  0
  -20.8163  -21.7966   21.4414 C   0  0  0  0  0  0  0  0  0  0  0  0
  -29.0054  -19.4593   19.3434 C   0  0  0  0  0  0  0  0  0  0  0  0
  -19.9379  -19.8269   22.3745 C   0  0  0  0  0  0  0  0  0  0  0  0
  -19.2937  -18.3322   24.6402 C   0  0  0  0  0  0  0  0  0  0  0  0
  -20.5218  -18.5759   22.5739 C   0  0  0  0  0  0  0  0  0  0  0  0
  -22.5551  -25.6074   22.0354 C   0  0  0  0  0  0  0  0  0  0  0  0
  -31.0139  -25.9011   21.7841 C   0  0  0  0  0  0  0  0  0  0  0  0
  -23.0256  -27.6316   22.7538 C   0  0  0  0  0  0  0  0  0  0  0  0
  -31.3889  -23.7723   21.4129 C   0  0  0  0  0  0  0  0  0  0  0  0
  -21.0688  -26.5770   23.8970 C   0  0  0  0  0  0  0  0  0  0  0  0
  -25.3029  -15.4900   19.3376 C   0  0  0  0  0  0  0  0  0  0  0  0
  -27.7439  -13.3537   19.3442 C   0  0  0  0  0  0  0  0  0  0  0  0
  -31.1115  -12.8026   19.3873 C   0  0  0  0  0  0  0  0  0  0  0  0
  -28.6145  -27.8873   20.6206 C   0  0  0  0  0  0  0  0  0  0  0  0
  -20.3196  -15.4695   18.2311 C   0  0  0  0  0  0  0  0  0  0  0  0
  -26.7250  -16.3448   17.4394 C   0  0  0  0  0  0  0  0  0  0  0  0
  -28.3429  -15.7532   19.8430 C   0  0  0  0  0  0  0  0  0  0  0  0
  -21.3419  -14.4298   18.6832 C   0  0  0  0  0  0  0  0  0  0  0  0
  -25.7664  -29.6240   19.3760 C   0  0  0  0  0  0  0  0  0  0  0  0
  -22.1404  -14.9492   19.8746 C   0  0  0  0  0  0  0  0  0  0  0  0
  -24.5836  -28.8806   19.9991 C   0  0  0  0  0  0  0  0  0  0  0  0
  -26.9026  -28.6713   19.0108 C   0  0  0  0  0  0  0  0  0  0  0  0
  -26.1838  -27.0659   20.7370 C   0  0  0  0  0  0  0  0  0  0  0  0
  -22.9275  -16.2117   19.5030 C   0  0  1  0  0  0  0  0  0  0  0  0
  -26.3979  -15.1723   18.3590 C   0  0  1  0  0  0  0  0  0  0  0  0
  -25.0356  -27.9918   21.1734 C   0  0  2  0  0  0  0  0  0  0  0  0
  -32.8042  -10.9504   19.4260 C   0  0  0  0  0  0  0  0  0  0  0  0
  -30.2516  -21.6444   23.4774 C   0  0  0  0  0  0  0  0  0  0  0  0
  -27.1604  -12.8855   22.3023 C   0  0  0  0  0  0  0  0  0  0  0  0
  -29.4070  -11.7987   22.5019 C   0  0  0  0  0  0  0  0  0  0  0  0
  -27.6759  -10.8136   21.0000 C   0  0  0  0  0  0  0  0  0  0  0  0
  -32.2787  -13.6587   16.8059 C   0  0  0  0  0  0  0  0  0  0  0  0
  -30.2109  -27.0218   22.3122 C   0  0  0  0  0  0  0  0  0  0  0  0
  -29.9335  -20.3372   21.3493 C   0  0  0  0  0  0  0  0  0  1  0  0
  -28.8215  -12.9647   20.3273 C   0  0  1  0  0  0  0  0  0  0  0  0
  -31.9944  -11.8942   18.5507 C   0  0  2  0  0  0  0  0  0  0  0  0
  -30.0718  -21.7270   21.9673 C   0  0  2  0  0  0  0  0  0  0  0  0
  -28.2638  -12.1423   21.5232 C   0  0  0  0  0  0  0  0  0  0  0  0
  -23.6114  -25.9829   21.3094 N   0  0  0  0  0  0  0  0  0  0  0  0
  -30.5325  -24.6164   21.9443 N   0  0  0  0  0  0  0  0  0  0  0  0
  -23.8741  -27.2181   21.7692 N   0  0  0  0  0  0  0  0  0  0  0  0
  -27.5535  -14.7278   19.1409 N   0  0  0  0  0  0  0  0  0  0  0  0
  -27.2851  -27.8586   20.1681 N   0  0  0  0  0  0  0  0  0  0  0  0
  -23.1479  -28.8474   23.3276 N   0  0  0  0  0  0  0  0  0  0  0  0
  -20.2628  -25.4327   23.9697 N   0  0  0  0  0  0  0  0  0  0  0  0
  -31.2208  -22.4000   21.3954 N   0  0  0  0  0  0  0  0  0  0  0  0
  -24.1114  -15.8648   18.7464 N   0  0  0  0  0  0  0  0  0  0  0  0
  -29.8489  -12.2746   19.5549 N   0  0  0  0  0  0  0  0  0  0  0  0
  -28.8907  -27.0929   21.7267 N   0  0  0  0  0  0  0  0  0  0  0  0
  -32.9404  -12.7030   17.7310 N   0  3  0  0  0  0  0  0  0  0  0  0
  -20.8175  -27.5534   24.6434 O   0  0  0  0  0  0  0  0  0  0  0  0
  -25.5222  -15.4002   20.5399 O   0  0  0  0  0  0  0  0  0  0  0  0
  -27.0997  -12.4707   18.7723 O   0  0  0  0  0  0  0  0  0  0  0  0
  -31.5040  -13.8718   19.8493 O   0  0  0  0  0  0  0  0  0  0  0  0
  -29.4892  -28.5744   20.0823 O   0  0  0  0  0  0  0  0  0  0  0  0
  -20.2573  -20.5704   21.2507 O   0  0  0  0  0  0  0  0  0  0  0  0
  -29.7299  -20.4441   19.9410 O   0  0  0  0  0  0  0  0  0  1  0  0
  -18.9854  -17.6153   25.7289 F   0  0  0  0  0  0  0  0  0  0  0  0
  -21.3938  -18.0873   21.6813 F   0  0  0  0  0  0  0  0  0  0  0  0
  -32.7949  -24.4547   20.7040 S   0  0  0  0  0  0  0  0  0  0  0  0
  1  2  1  0  0  0  0
  1  5  2  0  0  0  0
  2  6  2  0  0  0  0
  3  8  2  0  0  0  0
  3 16  1  0  0  0  0
  4  9  1  0  0  0  0
  4 16  2  0  0  0  0
  5 18  1  0  0  0  0
  6 20  1  0  0  0  0
  7 10  2  0  0  0  0
  7 19  1  0  0  0  0
  8 22  1  0  0  0  0
  9 22  2  0  0  0  0
 10 23  1  0  0  0  0
 11 12  2  0  0  0  0
 11 24  1  0  0  0  0
 12 25  1  0  0  0  0
 13 21  1  0  0  0  0
 13 23  2  0  0  0  0
 14 25  2  0  0  0  0
 14 26  1  0  0  0  0
 15 28  2  0  0  0  0
 15 81  1  0  0  0  0
 16 27  1  0  0  0  0
 17 27  1  0  0  0  0
 17 29  2  0  0  0  0
 17 31  1  0  0  0  0
 18 20  2  0  0  0  0
 18 36  1  0  0  0  0
 19 21  2  0  0  0  0
 19 37  1  0  0  0  0
 20 45  1  0  0  0  0
 21 38  1  0  0  0  0
 22 77  1  0  0  0  0
 23 78  1  0  0  0  0
 24 26  2  0  0  0  0
 24 77  1  0  0  0  0
 25 79  1  0  0  0  0
 26 80  1  0  0  0  0
 27 60  2  0  0  0  0
 28 54  1  0  0  0  0
 28 61  1  0  0  0  0
 29 62  1  0  0  0  0
 29 65  1  0  0  0  0
 30 61  2  0  0  0  0
 30 67  1  0  0  0  0
 30 81  1  0  0  0  0
 31 66  1  0  0  0  0
 31 72  2  0  0  0  0
 32 46  1  0  0  0  0
 32 68  1  0  0  0  0
 32 73  2  0  0  0  0
 33 56  1  0  0  0  0
 33 63  1  0  0  0  0
 33 74  2  0  0  0  0
 34 57  1  0  0  0  0
 34 69  1  0  0  0  0
 34 75  2  0  0  0  0
 35 64  1  0  0  0  0
 35 70  1  0  0  0  0
 35 76  2  0  0  0  0
 36 39  1  0  0  0  0
 37 46  1  0  0  0  0
 38 63  1  0  0  0  0
 39 41  1  0  0  0  0
 40 42  1  0  0  0  0
 40 43  1  0  0  0  0
 41 45  1  0  0  0  0
 42 47  1  0  0  0  0
 43 64  1  0  0  0  0
 44 47  1  0  0  0  0
 44 64  1  0  0  0  0
 45 68  1  0  0  0  0
 46 63  1  0  0  0  0
 47 62  1  0  0  0  0
 48 57  1  0  0  0  0
 49 58  1  0  0  0  0
 50 59  1  0  0  0  0
 51 59  1  0  0  0  0
 52 59  1  0  0  0  0
 53 71  1  0  0  0  0
 54 70  1  0  0  0  0
 55 58  1  0  0  0  0
 55 78  1  0  0  0  0
 56 59  1  0  0  0  0
 56 69  1  0  0  0  0
 57 71  1  0  0  0  0
 58 67  1  0  0  0  0
 60 62  1  0  0  0  0
M  CHG  1  71   1
M  ISO  4  35 100  55 101  70 100  78 101
M  END
> <Batch ID>
0187

> <Smiles>
CNC(C)C(=O)NC(C(=O)N1Cc2cc([101O:1][101CH2:1]C(C)Nc3nc(C[100NH:0][100C:0](=O)N4CCCC(n5nc(-c6ccc(Oc7ccc(F)cc7F)cc6)c(C(N)=O)c5N)C4)cs3)ccc2CC1C(=O)NC1CCCc2ccccc21)C(C)(C)C

> <Shape>
0.171

> <Color>
0.081

> <Negative vol penalty>
0.000

$$$$

  -OEChem-04052305123D

 86 94  0     1  0  0  0  0  0999 V2000
  -20.1307  -11.9284   23.0220 C   0  0  0  0  0  0  0  0  0  0  0  0
  -21.1483  -12.6276   23.6632 C   0  0  0  0  0  0  0  0  0  0  0  0
  -22.2810  -30.4577   20.2271 C   0  0  0  0  0  0  0  0  0  0  0  0
  -22.3502  -28.9234   22.0921 C   0  0  0  0  0  0  0  0  0  0  0  0
  -20.4182  -11.1573   21.8966 C   0  0  0  0  0  0  0  0  0  0  0  0
  -22.4543  -12.5551   23.1799 C   0  0  0  0  0  0  0  0  0  0  0  0
  -24.7154  -17.0831   23.0065 C   0  0  0  0  0  0  0  0  0  0  0  0
  -20.8932  -30.3293   20.1730 C   0  0  0  0  0  0  0  0  0  0  0  0
  -20.9623  -28.7950   22.0380 C   0  0  0  0  0  0  0  0  0  0  0  0
  -25.1966  -17.6009   24.2082 C   0  0  0  0  0  0  0  0  0  0  0  0
  -18.2583  -30.5684   23.0199 C   0  0  0  0  0  0  0  0  0  0  0  0
  -17.5563  -30.6251   24.2239 C   0  0  0  0  0  0  0  0  0  0  0  0
  -27.4222  -16.8790   23.6212 C   0  0  0  0  0  0  0  0  0  0  0  0
  -16.7005  -28.4004   23.8296 C   0  0  0  0  0  0  0  0  0  0  0  0
  -23.0096  -29.7547   21.1867 C   0  0  0  0  0  0  0  0  0  0  0  0
  -25.1823  -30.8250   21.9877 C   0  0  0  0  0  0  0  0  0  0  0  0
  -21.7266  -11.0831   21.3934 C   0  0  0  0  0  0  0  0  0  0  0  0
  -25.5837  -16.4486   22.1065 C   0  0  0  0  0  0  0  0  0  0  0  0
  -22.7598  -11.7813   22.0474 C   0  0  0  0  0  0  0  0  0  0  0  0
  -26.9501  -16.3563   22.4076 C   0  0  0  0  0  0  0  0  0  0  0  0
  -20.2338  -29.4980   21.0784 C   0  0  0  0  0  0  0  0  0  0  0  0
  -26.5497  -17.4964   24.5171 C   0  0  0  0  0  0  0  0  0  0  0  0
  -18.1814  -29.4277   22.2207 C   0  0  0  0  0  0  0  0  0  0  0  0
  -16.7774  -29.5411   24.6287 C   0  0  0  0  0  0  0  0  0  0  0  0
  -17.4025  -28.3438   22.6256 C   0  0  0  0  0  0  0  0  0  0  0  0
  -24.4433  -29.8864   21.2428 C   0  0  0  0  0  0  0  0  0  0  0  0
  -30.5927  -22.4419   22.7399 C   0  0  0  0  0  0  0  0  0  0  0  0
  -26.4938  -30.5347   21.7013 C   0  0  0  0  0  0  0  0  0  0  0  0
  -29.6897  -22.5357   23.7781 C   0  0  0  0  0  0  0  0  0  0  0  0
  -29.3615  -24.0804   21.9591 C   0  0  0  0  0  0  0  0  0  0  0  0
  -24.7241  -31.8660   22.8606 C   0  0  0  0  0  0  0  0  0  0  0  0
  -25.8131  -13.5169   20.8996 C   0  0  0  0  0  0  0  0  0  0  0  0
  -28.1505  -14.8628   19.0975 C   0  0  0  0  0  0  0  0  0  0  0  0
  -30.4659  -17.3441   18.7387 C   0  0  0  0  0  0  0  0  0  0  0  0
  -30.3537  -20.7903   25.4723 C   0  0  0  0  0  0  0  0  0  0  0  0
  -29.2778  -25.5567   19.9196 C   0  0  0  0  0  0  0  0  0  0  0  0
  -21.9972  -10.1988   20.2020 C   0  0  0  0  0  0  0  0  0  0  0  0
  -25.0536  -15.9189   20.8024 C   0  0  0  0  0  0  0  0  0  0  0  0
  -27.9271  -15.7025   21.4661 C   0  0  0  0  0  0  0  0  0  0  0  0
  -23.3406  -10.4745   19.5315 C   0  0  0  0  0  0  0  0  0  0  0  0
  -29.2545  -28.6990   18.2455 C   0  0  0  0  0  0  0  0  0  0  0  0
  -24.4466  -10.5826   20.5765 C   0  0  0  0  0  0  0  0  0  0  0  0
  -28.0892  -29.4478   18.8961 C   0  0  0  0  0  0  0  0  0  0  0  0
  -28.9558  -27.2088   18.0915 C   0  0  0  0  0  0  0  0  0  0  0  0
  -27.3679  -27.2786   19.9737 C   0  0  0  0  0  0  0  0  0  0  0  0
  -24.1846  -11.7476   21.5385 C   0  0  1  0  0  0  0  0  0  0  0  0
  -25.9393  -14.8368   20.1927 C   0  0  1  0  0  0  0  0  0  0  0  0
  -27.6478  -28.7719   20.2091 C   0  0  2  0  0  0  0  0  0  0  0  0
  -32.2544  -18.1589   17.1784 C   0  0  0  0  0  0  0  0  0  0  0  0
  -29.8706  -21.3599   27.9109 C   0  0  0  0  0  0  0  0  0  0  0  0
  -30.8842  -19.1464   27.2882 C   0  0  0  0  0  0  0  0  0  0  0  0
  -30.0023  -12.6377   20.0620 C   0  0  0  0  0  0  0  0  0  0  0  0
  -31.9439  -14.0053   19.2695 C   0  0  0  0  0  0  0  0  0  0  0  0
  -30.2327  -13.2094   17.6382 C   0  0  0  0  0  0  0  0  0  0  0  0
  -29.0805  -19.9243   18.3122 C   0  0  0  0  0  0  0  0  0  0  0  0
  -32.4834  -21.5042   21.6436 C   0  0  0  0  0  0  0  0  0  0  0  0
  -28.4881  -19.5885   26.7322 C   0  0  0  0  0  0  0  0  0  0  0  0
  -28.3700  -18.4680   25.6995 C   0  0  0  0  0  0  0  0  0  1  0  0
  -29.6388  -15.0624   19.2526 C   0  0  1  0  0  0  0  0  0  0  0  0
  -30.7888  -18.2594   17.5715 C   0  0  2  0  0  0  0  0  0  0  0  0
  -29.8930  -20.2441   26.8514 C   0  0  0  0  0  0  0  0  0  0  0  0
  -30.4359  -13.7394   19.0744 C   0  0  0  0  0  0  0  0  0  0  0  0
  -25.2208  -29.0618   20.5361 N   0  0  0  0  0  0  0  0  0  0  0  0
  -30.4058  -23.3265   21.6957 N   0  0  0  0  0  0  0  0  0  0  0  0
  -26.4620  -29.4812   20.8357 N   0  0  0  0  0  0  0  0  0  0  0  0
  -27.3592  -15.1945   20.2064 N   0  0  0  0  0  0  0  0  0  0  0  0
  -28.5484  -26.6352   19.3760 N   0  0  0  0  0  0  0  0  0  0  0  0
  -27.6597  -31.0804   22.1080 N   0  0  0  0  0  0  0  0  0  0  0  0
  -23.3436  -32.0261   23.0425 N   0  0  0  0  0  0  0  0  0  0  0  0
  -29.5504  -21.8215   24.9933 N   0  0  0  0  0  0  0  0  0  0  0  0
  -28.8175  -25.1164   21.1601 N   0  0  0  0  0  0  0  0  0  0  0  0
  -24.5291  -13.0066   20.9134 N   0  0  0  0  0  0  0  0  0  0  0  0
  -30.0097  -16.1146   18.3126 N   0  0  0  0  0  0  0  0  0  0  0  0
  -30.4938  -19.6762   17.9273 N   0  3  0  0  0  0  0  0  0  0  0  0
  -25.5149  -32.6422   23.4486 O   0  0  0  0  0  0  0  0  0  0  0  0
  -26.8074  -12.9992   21.3946 O   0  0  0  0  0  0  0  0  0  0  0  0
  -27.7058  -14.4353   18.0293 O   0  0  0  0  0  0  0  0  0  0  0  0
  -30.6080  -17.6843   19.9111 O   0  0  0  0  0  0  0  0  0  0  0  0
  -31.3560  -20.3455   24.9160 O   0  0  0  0  0  0  0  0  0  0  0  0
  -30.2566  -25.0781   19.3410 O   0  0  0  0  0  0  0  0  0  0  0  0
  -18.8795  -29.3727   21.0260 O   0  0  0  0  0  0  0  0  0  0  0  0
  -27.0218  -18.0004   25.6896 O   0  0  0  0  0  0  0  0  0  1  0  0
  -31.5889  -21.5348   22.7628 O   0  0  0  0  0  0  0  0  0  0  0  0
  -16.1046  -29.5951   25.7857 F   0  0  0  0  0  0  0  0  0  0  0  0
  -17.3256  -27.2448   21.8626 F   0  0  0  0  0  0  0  0  0  0  0  0
  -28.5574  -23.7800   23.4451 S   0  0  0  0  0  0  0  0  0  0  0  0
  1  2  1  0  0  0  0
  1  5  2  0  0  0  0
  2  6  2  0  0  0  0
  3  8  2  0  0  0  0
  3 15  1  0  0  0  0
  4  9  1  0  0  0  0
  4 15  2  0  0  0  0
  5 17  1  0  0  0  0
  6 19  1  0  0  0  0
  7 10  2  0  0  0  0
  7 18  1  0  0  0  0
  8 21  1  0  0  0  0
  9 21  2  0  0  0  0
 10 22  1  0  0  0  0
 11 12  2  0  0  0  0
 11 23  1  0  0  0  0
 12 24  1  0  0  0  0
 13 20  1  0  0  0  0
 13 22  2  0  0  0  0
 14 24  2  0  0  0  0
 14 25  1  0  0  0  0
 15 26  1  0  0  0  0
 16 26  1  0  0  0  0
 16 28  2  0  0  0  0
 16 31  1  0  0  0  0
 17 19  2  0  0  0  0
 17 37  1  0  0  0  0
 18 20  2  0  0  0  0
 18 38  1  0  0  0  0
 19 46  1  0  0  0  0
 20 39  1  0  0  0  0
 21 81  1  0  0  0  0
 22 82  1  0  0  0  0
 23 25  2  0  0  0  0
 23 81  1  0  0  0  0
 24 84  1  0  0  0  0
 25 85  1  0  0  0  0
 26 63  2  0  0  0  0
 27 29  2  0  0  0  0
 27 64  1  0  0  0  0
 27 83  1  0  0  0  0
 28 65  1  0  0  0  0
 28 68  1  0  0  0  0
 29 70  1  0  0  0  0
 29 86  1  0  0  0  0
 30 64  2  0  0  0  0
 30 71  1  0  0  0  0
 30 86  1  0  0  0  0
 31 69  1  0  0  0  0
 31 75  2  0  0  0  0
 32 47  1  0  0  0  0
 32 72  1  0  0  0  0
 32 76  2  0  0  0  0
 33 59  1  0  0  0  0
 33 66  1  0  0  0  0
 33 77  2  0  0  0  0
 34 60  1  0  0  0  0
 34 73  1  0  0  0  0
 34 78  2  0  0  0  0
 35 61  1  0  0  0  0
 35 70  1  0  0  0  0
 35 79  2  0  0  0  0
 36 67  1  0  0  0  0
 36 71  1  0  0  0  0
 36 80  2  0  0  0  0
 37 40  1  0  0  0  0
 38 47  1  0  0  0  0
 39 66  1  0  0  0  0
 40 42  1  0  0  0  0
 41 43  1  0  0  0  0
 41 44  1  0  0  0  0
 42 46  1  0  0  0  0
 43 48  1  0  0  0  0
 44 67  1  0  0  0  0
 45 48  1  0  0  0  0
 45 67  1  0  0  0  0
 46 72  1  0  0  0  0
 47 66  1  0  0  0  0
 48 65  1  0  0  0  0
 49 60  1  0  0  0  0
 50 61  1  0  0  0  0
 51 61  1  0  0  0  0
 52 62  1  0  0  0  0
 53 62  1  0  0  0  0
 54 62  1  0  0  0  0
 55 74  1  0  0  0  0
 56 83  1  0  0  0  0
 57 58  1  0  0  0  0
 57 61  1  0  0  0  0
 58 82  1  0  0  0  0
 59 62  1  0  0  0  0
 59 73  1  0  0  0  0
 60 74  1  0  0  0  0
 63 65  1  0  0  0  0
M  CHG  1  74   1
M  ISO  4  36 100  58 101  71 100  82 101
M  END
> <Batch ID>
0187

> <Smiles>
CNC(C)C(=O)NC(C(=O)N1Cc2cc([101O:1][101CH2:1]CC(C)(C)C(=O)Nc3sc([100NH:0][100C:0](=O)N4CCCC(n5nc(-c6ccc(Oc7ccc(F)cc7F)cc6)c(C(N)=O)c5N)C4)nc3OC)ccc2CC1C(=O)NC1CCCc2ccccc21)C(C)(C)C

> <Shape>
0.263

> <Color>
0.055

> <Negative vol penalty>
0.000

$$$$

  -OEChem-04052305123D

 83 91  0     1  0  0  0  0  0999 V2000
  -24.8417  -35.3113   23.3909 C   0  0  0  0  0  0  0  0  0  0  0  0
  -25.6037  -34.1690   23.1676 C   0  0  0  0  0  0  0  0  0  0  0  0
  -22.5232  -10.2886   21.9167 C   0  0  0  0  0  0  0  0  0  0  0  0
  -24.5684   -9.0306   21.6488 C   0  0  0  0  0  0  0  0  0  0  0  0
  -23.5170  -35.1933   23.8097 C   0  0  0  0  0  0  0  0  0  0  0  0
  -25.0418  -32.9080   23.3639 C   0  0  0  0  0  0  0  0  0  0  0  0
  -26.1414  -29.6862   19.6148 C   0  0  0  0  0  0  0  0  0  0  0  0
  -21.7809   -9.1415   21.6363 C   0  0  0  0  0  0  0  0  0  0  0  0
  -23.8260   -7.8835   21.3685 C   0  0  0  0  0  0  0  0  0  0  0  0
  -27.4122  -29.1128   19.6202 C   0  0  0  0  0  0  0  0  0  0  0  0
  -22.4649   -4.5400   20.9368 C   0  0  0  0  0  0  0  0  0  0  0  0
  -22.8472   -3.3512   21.5583 C   0  0  0  0  0  0  0  0  0  0  0  0
  -26.4936  -27.1005   20.5824 C   0  0  0  0  0  0  0  0  0  0  0  0
  -22.4764   -4.3625   23.7209 C   0  0  0  0  0  0  0  0  0  0  0  0
  -27.7748  -21.4617   18.4104 C   0  0  0  0  0  0  0  0  0  0  0  0
  -23.9170  -10.2332   21.9229 C   0  0  0  0  0  0  0  0  0  0  0  0
  -25.1222  -11.8604   23.4745 C   0  0  0  0  0  0  0  0  0  0  0  0
  -22.9357  -33.9301   24.0019 C   0  0  0  0  0  0  0  0  0  0  0  0
  -25.0371  -28.9738   20.1041 C   0  0  0  0  0  0  0  0  0  0  0  0
  -23.7086  -32.7730   23.7869 C   0  0  0  0  0  0  0  0  0  0  0  0
  -25.2094  -27.6661   20.5797 C   0  0  0  0  0  0  0  0  0  0  0  0
  -22.4323   -7.9389   21.3623 C   0  0  0  0  0  0  0  0  0  0  0  0
  -27.5890  -27.8209   20.1067 C   0  0  0  0  0  0  0  0  0  0  0  0
  -22.0883   -5.6401   21.7074 C   0  0  0  0  0  0  0  0  0  0  0  0
  -22.8530   -3.2624   22.9503 C   0  0  0  0  0  0  0  0  0  0  0  0
  -22.0941   -5.5513   23.0994 C   0  0  0  0  0  0  0  0  0  0  0  0
  -24.6844  -11.4180   22.2118 C   0  0  0  0  0  0  0  0  0  0  0  0
  -27.7322  -21.1749   19.7588 C   0  0  0  0  0  0  0  0  0  0  0  0
  -25.8044  -13.0235   23.2134 C   0  0  0  0  0  0  0  0  0  0  0  0
  -28.8418  -23.2265   19.1567 C   0  0  0  0  0  0  0  0  0  0  0  0
  -27.1669  -20.0732   20.4305 C   0  0  0  0  0  0  0  0  0  0  0  0
  -26.5285  -18.9938   19.8614 C   0  0  0  0  0  0  0  0  0  0  0  0
  -24.9294  -11.2724   24.7679 C   0  0  0  0  0  0  0  0  0  0  0  0
  -25.9945  -17.9060   20.7053 C   0  0  0  0  0  0  0  0  0  0  0  0
  -22.9688  -29.3968   22.4804 C   0  0  0  0  0  0  0  0  0  0  0  0
  -21.5317  -26.7994   21.1726 C   0  0  0  0  0  0  0  0  0  0  0  0
  -29.9329  -25.2993   18.2291 C   0  0  0  0  0  0  0  0  0  0  0  0
  -21.8173  -23.9825   19.2673 C   0  0  0  0  0  0  0  0  0  0  0  0
  -21.5145  -33.8534   24.5007 C   0  0  0  0  0  0  0  0  0  0  0  0
  -23.6684  -29.5966   20.0666 C   0  0  0  0  0  0  0  0  0  0  0  0
  -24.0530  -26.8517   21.0973 C   0  0  0  0  0  0  0  0  0  0  0  0
  -20.8806  -32.4759   24.3244 C   0  0  0  0  0  0  0  0  0  0  0  0
  -27.3474  -15.0442   18.8583 C   0  0  0  0  0  0  0  0  0  0  0  0
  -21.8370  -31.3842   24.7938 C   0  0  0  0  0  0  0  0  0  0  0  0
  -26.7637  -13.8792   19.6532 C   0  0  0  0  0  0  0  0  0  0  0  0
  -26.3966  -16.2394   18.8140 C   0  0  0  0  0  0  0  0  0  0  0  0
  -25.3718  -15.5350   20.9574 C   0  0  0  0  0  0  0  0  0  0  0  0
  -23.1272  -31.3873   23.9650 C   0  0  1  0  0  0  0  0  0  0  0  0
  -22.6996  -28.9705   21.0650 C   0  0  1  0  0  0  0  0  0  0  0  0
  -26.3314  -14.3388   21.0546 C   0  0  1  0  0  0  0  0  0  0  0  0
  -31.7233  -26.9719   17.7333 C   0  0  0  0  0  0  0  0  0  0  0  0
  -20.4789  -22.0415   18.4078 C   0  0  0  0  0  0  0  0  0  0  0  0
  -21.6420  -25.5041   23.9331 C   0  0  0  0  0  0  0  0  0  0  0  0
  -21.1940  -23.2973   22.8388 C   0  0  0  0  0  0  0  0  0  0  0  0
  -19.5057  -25.1275   22.6887 C   0  0  0  0  0  0  0  0  0  0  0  0
  -22.2987  -24.7488   16.4495 C   0  0  0  0  0  0  0  0  0  0  0  0
  -29.7358  -27.6750   19.0940 C   0  0  0  0  0  0  0  0  0  1  0  0
  -21.6485  -25.3058   21.3588 C   0  0  1  0  0  0  0  0  0  0  0  0
  -30.6887  -26.5233   18.7648 C   0  0  1  0  0  0  0  0  0  0  0  0
  -20.9739  -23.4509   18.1225 C   0  0  2  0  0  0  0  0  0  0  0  0
  -21.0199  -24.8245   22.6969 C   0  0  0  0  0  0  0  0  0  0  0  0
  -28.4103  -22.6379   18.0633 N   0  0  0  0  0  0  0  0  0  0  0  0
  -25.0571  -12.2337   21.2220 N   0  0  0  0  0  0  0  0  0  0  0  0
  -25.7362  -13.2004   21.8627 N   0  0  0  0  0  0  0  0  0  0  0  0
  -25.9513  -16.6232   20.1620 N   0  0  0  0  0  0  0  0  0  0  0  0
  -22.7356  -27.5068   21.0457 N   0  0  0  0  0  0  0  0  0  0  0  0
  -26.4499  -13.9020   24.0096 N   0  0  0  0  0  0  0  0  0  0  0  0
  -24.2044  -10.0763   24.8568 N   0  0  0  0  0  0  0  0  0  0  0  0
  -29.5446  -24.4504   19.2622 N   0  0  0  0  0  0  0  0  0  0  0  0
  -22.9031  -30.7628   22.6788 N   0  0  0  0  0  0  0  0  0  0  0  0
  -21.0601  -24.6990   20.1698 N   0  0  0  0  0  0  0  0  0  0  0  0
  -21.7690  -23.4237   16.8624 N   0  3  0  0  0  0  0  0  0  0  0  0
  -25.3725  -11.8010   25.8157 O   0  0  0  0  0  0  0  0  0  0  0  0
  -25.6142  -18.2009   21.8398 O   0  0  0  0  0  0  0  0  0  0  0  0
  -23.2163  -28.5491   23.3300 O   0  0  0  0  0  0  0  0  0  0  0  0
  -20.4133  -27.3183   21.1338 O   0  0  0  0  0  0  0  0  0  0  0  0
  -29.7344  -25.1390   17.0283 O   0  0  0  0  0  0  0  0  0  0  0  0
  -23.0263  -23.7791   19.3543 O   0  0  0  0  0  0  0  0  0  0  0  0
  -21.7082   -6.8193   21.0889 O   0  0  0  0  0  0  0  0  0  0  0  0
  -28.8284  -27.2591   20.1138 O   0  0  0  0  0  0  0  0  0  1  0  0
  -23.2187   -2.1203   23.5469 F   0  0  0  0  0  0  0  0  0  0  0  0
  -21.7322   -6.6044   23.8450 F   0  0  0  0  0  0  0  0  0  0  0  0
  -28.5184  -22.4207   20.6370 S   0  0  0  0  0  0  0  0  0  0  0  0
  1  2  1  0  0  0  0
  1  5  2  0  0  0  0
  2  6  2  0  0  0  0
  3  8  2  0  0  0  0
  3 16  1  0  0  0  0
  4  9  1  0  0  0  0
  4 16  2  0  0  0  0
  5 18  1  0  0  0  0
  6 20  1  0  0  0  0
  7 10  2  0  0  0  0
  7 19  1  0  0  0  0
  8 22  1  0  0  0  0
  9 22  2  0  0  0  0
 10 23  1  0  0  0  0
 11 12  2  0  0  0  0
 11 24  1  0  0  0  0
 12 25  1  0  0  0  0
 13 21  1  0  0  0  0
 13 23  2  0  0  0  0
 14 25  2  0  0  0  0
 14 26  1  0  0  0  0
 15 28  2  0  0  0  0
 15 62  1  0  0  0  0
 16 27  1  0  0  0  0
 17 27  1  0  0  0  0
 17 29  2  0  0  0  0
 17 33  1  0  0  0  0
 18 20  2  0  0  0  0
 18 39  1  0  0  0  0
 19 21  2  0  0  0  0
 19 40  1  0  0  0  0
 20 48  1  0  0  0  0
 21 41  1  0  0  0  0
 22 79  1  0  0  0  0
 23 80  1  0  0  0  0
 24 26  2  0  0  0  0
 24 79  1  0  0  0  0
 25 81  1  0  0  0  0
 26 82  1  0  0  0  0
 27 63  2  0  0  0  0
 28 31  1  0  0  0  0
 28 83  1  0  0  0  0
 29 64  1  0  0  0  0
 29 67  1  0  0  0  0
 30 62  2  0  0  0  0
 30 69  1  0  0  0  0
 30 83  1  0  0  0  0
 31 32  2  0  0  0  0
 32 34  1  0  0  0  0
 33 68  1  0  0  0  0
 33 73  2  0  0  0  0
 34 65  1  0  0  0  0
 34 74  2  0  0  0  0
 35 49  1  0  0  0  0
 35 70  1  0  0  0  0
 35 75  2  0  0  0  0
 36 58  1  0  0  0  0
 36 66  1  0  0  0  0
 36 76  2  0  0  0  0
 37 59  1  0  0  0  0
 37 69  1  0  0  0  0
 37 77  2  0  0  0  0
 38 60  1  0  0  0  0
 38 71  1  0  0  0  0
 38 78  2  0  0  0  0
 39 42  1  0  0  0  0
 40 49  1  0  0  0  0
 41 66  1  0  0  0  0
 42 44  1  0  0  0  0
 43 45  1  0  0  0  0
 43 46  1  0  0  0  0
 44 48  1  0  0  0  0
 45 50  1  0  0  0  0
 46 65  1  0  0  0  0
 47 50  1  0  0  0  0
 47 65  1  0  0  0  0
 48 70  1  0  0  0  0
 49 66  1  0  0  0  0
 50 64  1  0  0  0  0
 51 59  1  0  0  0  0
 52 60  1  0  0  0  0
 53 61  1  0  0  0  0
 54 61  1  0  0  0  0
 55 61  1  0  0  0  0
 56 72  1  0  0  0  0
 57 59  1  0  0  0  0
 57 80  1  0  0  0  0
 58 61  1  0  0  0  0
 58 71  1  0  0  0  0
 60 72  1  0  0  0  0
 63 64  1  0  0  0  0
M  CHG  1  72   1
M  ISO  4  32 100  34 100  57 101  80 101
M  END
> <Batch ID>
0187

> <Smiles>
CNC(C)C(=O)NC(C(=O)N1Cc2cc([101O:1][101CH2:1]C(C)C(=O)Nc3ncc(C=[100CH:0][100C:0](=O)N4CCCC(n5nc(-c6ccc(Oc7ccc(F)cc7F)cc6)c(C(N)=O)c5N)C4)s3)ccc2CC1C(=O)NC1CCCc2ccccc21)C(C)(C)C

> <Shape>
0.269

> <Color>
0.092

> <Negative vol penalty>
0.000

$$$$

  -OEChem-04052305123D

 86 94  0     1  0  0  0  0  0999 V2000
  -25.9026  -35.9316   16.0529 C   0  0  0  0  0  0  0  0  0  0  0  0
  -25.9778  -34.5468   15.9428 C   0  0  0  0  0  0  0  0  0  0  0  0
  -24.7035   -9.5768   21.4957 C   0  0  0  0  0  0  0  0  0  0  0  0
  -23.0902  -11.0675   20.4897 C   0  0  0  0  0  0  0  0  0  0  0  0
  -26.1748  -36.5485   17.2733 C   0  0  0  0  0  0  0  0  0  0  0  0
  -26.3263  -33.7781   17.0529 C   0  0  0  0  0  0  0  0  0  0  0  0
  -24.2422  -28.1955   18.4660 C   0  0  0  0  0  0  0  0  0  0  0  0
  -23.7000   -8.6303   21.7026 C   0  0  0  0  0  0  0  0  0  0  0  0
  -22.0867  -10.1210   20.6965 C   0  0  0  0  0  0  0  0  0  0  0  0
  -24.7744  -26.9205   18.2791 C   0  0  0  0  0  0  0  0  0  0  0  0
  -21.1819   -8.1093   23.8962 C   0  0  0  0  0  0  0  0  0  0  0  0
  -21.1320   -7.4799   25.1400 C   0  0  0  0  0  0  0  0  0  0  0  0
  -25.6508  -26.9635   20.5262 C   0  0  0  0  0  0  0  0  0  0  0  0
  -21.4428   -5.3371   24.0682 C   0  0  0  0  0  0  0  0  0  0  0  0
  -24.3986  -10.7954   20.8894 C   0  0  0  0  0  0  0  0  0  0  0  0
  -26.2607  -11.9039   19.5436 C   0  0  0  0  0  0  0  0  0  0  0  0
  -26.5174  -35.7863   18.4013 C   0  0  0  0  0  0  0  0  0  0  0  0
  -24.4199  -28.8696   19.6827 C   0  0  0  0  0  0  0  0  0  0  0  0
  -26.6046  -34.3855   18.2891 C   0  0  0  0  0  0  0  0  0  0  0  0
  -25.1177  -28.2459   20.7269 C   0  0  0  0  0  0  0  0  0  0  0  0
  -22.3916   -8.9024   21.3029 C   0  0  0  0  0  0  0  0  0  0  0  0
  -25.4813  -26.3055   19.3082 C   0  0  0  0  0  0  0  0  0  0  0  0
  -21.3621   -7.3525   22.7383 C   0  0  0  0  0  0  0  0  0  0  0  0
  -21.2625   -6.0939   25.2260 C   0  0  0  0  0  0  0  0  0  0  0  0
  -21.4926   -5.9665   22.8243 C   0  0  0  0  0  0  0  0  0  0  0  0
  -25.4346  -11.7738   20.6760 C   0  0  0  0  0  0  0  0  0  0  0  0
  -29.4649  -21.0002   18.8595 C   0  0  0  0  0  0  0  0  0  0  0  0
  -27.0705  -12.9755   19.8307 C   0  0  0  0  0  0  0  0  0  0  0  0
  -29.1645  -20.4355   17.6376 C   0  0  0  0  0  0  0  0  0  0  0  0
  -28.4382  -19.1981   19.5726 C   0  0  0  0  0  0  0  0  0  0  0  0
  -26.2931  -11.1258   18.3397 C   0  0  0  0  0  0  0  0  0  0  0  0
  -25.8389  -31.5747   20.5620 C   0  0  0  0  0  0  0  0  0  0  0  0
  -24.5225  -30.8727   23.4424 C   0  0  0  0  0  0  0  0  0  0  0  0
  -23.2834  -28.5014   25.5609 C   0  0  0  0  0  0  0  0  0  0  0  0
  -27.8070  -18.1423   21.7710 C   0  0  0  0  0  0  0  0  0  0  0  0
  -26.8490  -36.5014   19.6872 C   0  0  0  0  0  0  0  0  0  0  0  0
  -23.8167  -30.2336   19.8778 C   0  0  0  0  0  0  0  0  0  0  0  0
  -25.3189  -28.9187   22.0593 C   0  0  0  0  0  0  0  0  0  0  0  0
  -26.8455  -35.5881   20.9103 C   0  0  0  0  0  0  0  0  0  0  0  0
  -27.7800  -15.5017   24.1592 C   0  0  0  0  0  0  0  0  0  0  0  0
  -27.6116  -34.3017   20.6182 C   0  0  0  0  0  0  0  0  0  0  0  0
  -27.2354  -14.3071   23.3728 C   0  0  0  0  0  0  0  0  0  0  0  0
  -27.1045  -16.8082   23.7462 C   0  0  0  0  0  0  0  0  0  0  0  0
  -26.5814  -15.8952   21.5187 C   0  0  0  0  0  0  0  0  0  0  0  0
  -26.9550  -33.5157   19.4769 C   0  0  1  0  0  0  0  0  0  0  0  0
  -24.4997  -31.0370   20.9803 C   0  0  1  0  0  0  0  0  0  0  0  0
  -27.2774  -14.5659   21.8539 C   0  0  2  0  0  0  0  0  0  0  0  0
  -22.3171  -28.2257   27.8604 C   0  0  0  0  0  0  0  0  0  0  0  0
  -32.9865  -21.6150   17.8390 C   0  0  0  0  0  0  0  0  0  0  0  0
  -33.7663  -21.0106   20.1371 C   0  0  0  0  0  0  0  0  0  0  0  0
  -27.3119  -31.1565   24.6460 C   0  0  0  0  0  0  0  0  0  0  0  0
  -26.4771  -29.9677   26.6851 C   0  0  0  0  0  0  0  0  0  0  0  0
  -25.4762  -32.1539   26.0206 C   0  0  0  0  0  0  0  0  0  0  0  0
  -20.7259  -27.4680   24.4885 C   0  0  0  0  0  0  0  0  0  0  0  0
  -31.5216  -22.1105   19.8730 C   0  0  0  0  0  0  0  0  0  0  0  0
  -29.3130  -23.3491   19.8256 C   0  0  0  0  0  0  0  0  0  0  0  0
  -27.1921  -24.7448   19.8498 C   0  0  0  0  0  0  0  0  0  1  0  0
  -30.2004  -22.3114   19.0873 C   0  0  2  0  0  0  0  0  0  0  0  0
  -24.9611  -30.0890   24.6558 C   0  0  1  0  0  0  0  0  0  0  0  0
  -22.0116  -28.4557   26.3885 C   0  0  2  0  0  0  0  0  0  0  0  0
  -32.5425  -21.1488   19.2263 C   0  0  0  0  0  0  0  0  0  0  0  0
  -28.0193  -23.7190   19.0782 C   0  0  1  0  0  0  0  0  0  0  0  0
  -26.0546  -30.8296   25.4762 C   0  0  0  0  0  0  0  0  0  0  0  0
  -25.6957  -12.6894   21.6127 N   0  0  0  0  0  0  0  0  0  0  0  0
  -29.0488  -20.2923   19.9702 N   0  0  0  0  0  0  0  0  0  0  0  0
  -26.6951  -13.4051   21.0695 N   0  0  0  0  0  0  0  0  0  0  0  0
  -24.7155  -30.2543   22.1989 N   0  0  0  0  0  0  0  0  0  0  0  0
  -27.1872  -16.9882   22.2952 N   0  0  0  0  0  0  0  0  0  0  0  0
  -28.0601  -13.5827   19.1418 N   0  0  0  0  0  0  0  0  0  0  0  0
  -29.4517  -20.9136   16.4025 N   0  0  0  0  0  0  0  0  0  0  0  0
  -25.3919  -10.0605   18.2083 N   0  0  0  0  0  0  0  0  0  0  0  0
  -27.8557  -18.1885   20.3781 N   0  0  0  0  0  0  0  0  0  0  0  0
  -25.7826  -32.8148   19.9549 N   0  0  0  0  0  0  0  0  0  0  0  0
  -23.7481  -29.7908   25.4095 N   0  0  0  0  0  0  0  0  0  0  0  0
  -21.1248  -27.3555   25.9151 N   0  3  0  0  0  0  0  0  0  0  0  0
  -27.1085  -11.3578   17.4151 O   0  0  0  0  0  0  0  0  0  0  0  0
  -26.8487  -30.9141   20.7756 O   0  0  0  0  0  0  0  0  0  0  0  0
  -24.0205  -31.9894   23.5928 O   0  0  0  0  0  0  0  0  0  0  0  0
  -23.8137  -27.4938   25.0985 O   0  0  0  0  0  0  0  0  0  0  0  0
  -28.2854  -19.0117   22.5040 O   0  0  0  0  0  0  0  0  0  0  0  0
  -28.3548  -24.2649   17.8063 O   0  0  0  0  0  0  0  0  0  0  0  0
  -21.4122   -7.9789   21.5043 O   0  0  0  0  0  0  0  0  0  0  0  0
  -26.0024  -25.0613   19.1282 O   0  0  0  0  0  0  0  0  0  1  0  0
  -21.2162   -5.4898   26.4206 F   0  0  0  0  0  0  0  0  0  0  0  0
  -21.6672   -5.2343   21.7156 F   0  0  0  0  0  0  0  0  0  0  0  0
  -28.3290  -18.9570   17.8770 S   0  0  0  0  0  0  0  0  0  0  0  0
  1  2  1  0  0  0  0
  1  5  2  0  0  0  0
  2  6  2  0  0  0  0
  3  8  2  0  0  0  0
  3 15  1  0  0  0  0
  4  9  1  0  0  0  0
  4 15  2  0  0  0  0
  5 17  1  0  0  0  0
  6 19  1  0  0  0  0
  7 10  2  0  0  0  0
  7 18  1  0  0  0  0
  8 21  1  0  0  0  0
  9 21  2  0  0  0  0
 10 22  1  0  0  0  0
 11 12  2  0  0  0  0
 11 23  1  0  0  0  0
 12 24  1  0  0  0  0
 13 20  1  0  0  0  0
 13 22  2  0  0  0  0
 14 24  2  0  0  0  0
 14 25  1  0  0  0  0
 15 26  1  0  0  0  0
 16 26  1  0  0  0  0
 16 28  2  0  0  0  0
 16 31  1  0  0  0  0
 17 19  2  0  0  0  0
 17 36  1  0  0  0  0
 18 20  2  0  0  0  0
 18 37  1  0  0  0  0
 19 45  1  0  0  0  0
 20 38  1  0  0  0  0
 21 82  1  0  0  0  0
 22 83  1  0  0  0  0
 23 25  2  0  0  0  0
 23 82  1  0  0  0  0
 24 84  1  0  0  0  0
 25 85  1  0  0  0  0
 26 64  2  0  0  0  0
 27 29  2  0  0  0  0
 27 58  1  0  0  0  0
 27 65  1  0  0  0  0
 28 66  1  0  0  0  0
 28 69  1  0  0  0  0
 29 70  1  0  0  0  0
 29 86  1  0  0  0  0
 30 65  2  0  0  0  0
 30 72  1  0  0  0  0
 30 86  1  0  0  0  0
 31 71  1  0  0  0  0
 31 76  2  0  0  0  0
 32 46  1  0  0  0  0
 32 73  1  0  0  0  0
 32 77  2  0  0  0  0
 33 59  1  0  0  0  0
 33 67  1  0  0  0  0
 33 78  2  0  0  0  0
 34 60  1  0  0  0  0
 34 74  1  0  0  0  0
 34 79  2  0  0  0  0
 35 68  1  0  0  0  0
 35 72  1  0  0  0  0
 35 80  2  0  0  0  0
 36 39  1  0  0  0  0
 37 46  1  0  0  0  0
 38 67  1  0  0  0  0
 39 41  1  0  0  0  0
 40 42  1  0  0  0  0
 40 43  1  0  0  0  0
 41 45  1  0  0  0  0
 42 47  1  0  0  0  0
 43 68  1  0  0  0  0
 44 47  1  0  0  0  0
 44 68  1  0  0  0  0
 45 73  1  0  0  0  0
 46 67  1  0  0  0  0
 47 66  1  0  0  0  0
 48 60  1  0  0  0  0
 49 61  1  0  0  0  0
 50 61  1  0  0  0  0
 51 63  1  0  0  0  0
 52 63  1  0  0  0  0
 53 63  1  0  0  0  0
 54 75  1  0  0  0  0
 55 58  1  0  0  0  0
 55 61  1  0  0  0  0
 56 58  1  0  0  0  0
 56 62  1  0  0  0  0
 57 62  1  0  0  0  0
 57 83  1  0  0  0  0
 59 63  1  0  0  0  0
 59 74  1  0  0  0  0
 60 75  1  0  0  0  0
 62 81  1  0  0  0  0
 64 66  1  0  0  0  0
M  CHG  1  75   1
M  ISO  4  35 100  57 101  72 100  83 101
M  END
> <Batch ID>
0187

> <Smiles>
CNC(C)C(=O)NC(C(=O)N1Cc2cc([101O:1][101CH2:1]C(O)CC(CC(C)C)c3nc([100NH:0][100C:0](=O)N4CCCC(n5nc(-c6ccc(Oc7ccc(F)cc7F)cc6)c(C(N)=O)c5N)C4)sc3N)ccc2CC1C(=O)NC1CCCc2ccccc21)C(C)(C)C

> <Shape>
0.275

> <Color>
0.085

> <Negative vol penalty>
0.000

$$$$

  -OEChem-04052305123D

 84 92  0     1  0  0  0  0  0999 V2000
  -24.7567   -5.8456   22.6519 C   0  0  0  0  0  0  0  0  0  0  0  0
  -25.8851   -6.6573   22.7098 C   0  0  0  0  0  0  0  0  0  0  0  0
  -25.2604  -31.4110   21.4145 C   0  0  0  0  0  0  0  0  0  0  0  0
  -27.6466  -31.2787   21.0602 C   0  0  0  0  0  0  0  0  0  0  0  0
  -23.5965   -6.3098   22.0336 C   0  0  0  0  0  0  0  0  0  0  0  0
  -25.8542   -7.9334   22.1484 C   0  0  0  0  0  0  0  0  0  0  0  0
  -28.7260  -12.9335   24.2117 C   0  0  0  0  0  0  0  0  0  0  0  0
  -25.3874  -32.7542   21.7684 C   0  0  0  0  0  0  0  0  0  0  0  0
  -27.7736  -32.6219   21.4140 C   0  0  0  0  0  0  0  0  0  0  0  0
  -29.9202  -13.5498   23.8402 C   0  0  0  0  0  0  0  0  0  0  0  0
  -25.1308  -36.1233   23.1125 C   0  0  0  0  0  0  0  0  0  0  0  0
  -24.4383  -36.5670   24.2391 C   0  0  0  0  0  0  0  0  0  0  0  0
  -28.6904  -15.0637   22.4207 C   0  0  0  0  0  0  0  0  0  0  0  0
  -25.6466  -34.9828   25.6057 C   0  0  0  0  0  0  0  0  0  0  0  0
  -26.3900  -30.6732   21.0605 C   0  0  0  0  0  0  0  0  0  0  0  0
  -26.0395  -28.7624   19.4070 C   0  0  0  0  0  0  0  0  0  0  0  0
  -23.5483   -7.5959   21.4729 C   0  0  0  0  0  0  0  0  0  0  0  0
  -27.5040  -13.3714   23.6811 C   0  0  0  0  0  0  0  0  0  0  0  0
  -24.6926   -8.4147   21.5209 C   0  0  0  0  0  0  0  0  0  0  0  0
  -27.4819  -14.4530   22.7890 C   0  0  0  0  0  0  0  0  0  0  0  0
  -26.6440  -33.3597   21.7681 C   0  0  0  0  0  0  0  0  0  0  0  0
  -29.9028  -14.6131   22.9424 C   0  0  0  0  0  0  0  0  0  0  0  0
  -26.0811  -35.1093   23.2324 C   0  0  0  0  0  0  0  0  0  0  0  0
  -24.6963  -35.9968   25.4857 C   0  0  0  0  0  0  0  0  0  0  0  0
  -26.3390  -34.5391   24.4790 C   0  0  0  0  0  0  0  0  0  0  0  0
  -26.2596  -29.2854   20.6954 C   0  0  0  0  0  0  0  0  0  0  0  0
  -29.2752  -19.6619   18.9739 C   0  0  0  0  0  0  0  0  0  0  0  0
  -25.9924  -27.4023   19.5921 C   0  0  0  0  0  0  0  0  0  0  0  0
  -29.5088  -20.3783   17.8188 C   0  0  0  0  0  0  0  0  0  0  0  0
  -28.7641  -21.6612   19.7168 C   0  0  0  0  0  0  0  0  0  0  0  0
  -25.8909  -29.4451   18.1550 C   0  0  0  0  0  0  0  0  0  0  0  0
  -25.2347  -12.0511   21.8892 C   0  0  0  0  0  0  0  0  0  0  0  0
  -23.6897  -14.8418   22.4783 C   0  0  0  0  0  0  0  0  0  0  0  0
  -23.8915  -18.1455   23.3100 C   0  0  0  0  0  0  0  0  0  0  0  0
  -30.6791  -16.7343   20.7564 C   0  0  0  0  0  0  0  0  0  0  0  0
  -27.9819  -22.7237   21.8628 C   0  0  0  0  0  0  0  0  0  0  0  0
  -22.2867   -8.0360   20.7733 C   0  0  0  0  0  0  0  0  0  0  0  0
  -26.2221  -12.7134   24.1124 C   0  0  0  0  0  0  0  0  0  0  0  0
  -26.1945  -14.9742   22.2064 C   0  0  0  0  0  0  0  0  0  0  0  0
  -22.2170   -9.5419   20.5332 C   0  0  0  0  0  0  0  0  0  0  0  0
  -25.7449  -24.6626   23.8412 C   0  0  0  0  0  0  0  0  0  0  0  0
  -23.5365  -10.0533   19.9639 C   0  0  0  0  0  0  0  0  0  0  0  0
  -25.6613  -25.9951   23.0931 C   0  0  0  0  0  0  0  0  0  0  0  0
  -27.1500  -24.0660   23.7815 C   0  0  0  0  0  0  0  0  0  0  0  0
  -27.6273  -25.2649   21.6830 C   0  0  0  0  0  0  0  0  0  0  0  0
  -24.6903   -9.8143   20.9453 C   0  0  1  0  0  0  0  0  0  0  0  0
  -25.0851  -12.9084   23.1141 C   0  0  1  0  0  0  0  0  0  0  0  0
  -26.2153  -25.8727   21.6601 C   0  0  2  0  0  0  0  0  0  0  0  0
  -28.1714  -17.3932   18.8109 C   0  0  0  0  0  0  0  0  0  0  0  0
  -22.4622  -20.1752   23.6777 C   0  0  0  0  0  0  0  0  0  0  0  0
  -32.3240  -17.2681   22.5883 C   0  0  0  0  0  0  0  0  0  0  0  0
  -23.3472  -15.1441   19.4615 C   0  0  0  0  0  0  0  0  0  0  0  0
  -22.7963  -17.5575   19.8361 C   0  0  0  0  0  0  0  0  0  0  0  0
  -21.3389  -15.7818   20.8085 C   0  0  0  0  0  0  0  0  0  0  0  0
  -24.7690  -18.3965   26.1253 C   0  0  0  0  0  0  0  0  0  0  0  0
  -29.4432  -18.1681   19.1496 C   0  0  2  0  0  0  0  0  0  0  0  0
  -23.6261  -16.1914   21.8049 C   0  0  1  0  0  0  0  0  0  0  0  0
  -23.1326  -18.9758   24.3294 C   0  0  2  0  0  0  0  0  0  0  0  0
  -31.0029  -16.6004   22.2380 C   0  0  2  0  0  0  0  0  0  1  0  0
  -22.8017  -16.1579   20.4870 C   0  0  0  0  0  0  0  0  0  0  0  0
  -26.3461  -28.3350   21.6298 N   0  0  0  0  0  0  0  0  0  0  0  0
  -28.8484  -20.3959   20.0634 N   0  0  0  0  0  0  0  0  0  0  0  0
  -26.1795  -27.2011   20.9280 N   0  0  0  0  0  0  0  0  0  0  0  0
  -24.9682  -14.2936   22.6541 N   0  0  0  0  0  0  0  0  0  0  0  0
  -27.6072  -23.9764   22.3931 N   0  0  0  0  0  0  0  0  0  0  0  0
  -25.8095  -26.3707   18.7408 N   0  0  0  0  0  0  0  0  0  0  0  0
  -29.9299  -19.9134   16.6175 N   0  0  0  0  0  0  0  0  0  0  0  0
  -25.9661  -30.8445   18.1440 N   0  0  0  0  0  0  0  0  0  0  0  0
  -28.3680  -22.7568   20.5233 N   0  0  0  0  0  0  0  0  0  0  0  0
  -24.6635  -10.7983   22.0062 N   0  0  0  0  0  0  0  0  0  0  0  0
  -29.8955  -17.8447   20.4824 N   0  0  0  0  0  0  0  0  0  0  0  0
  -23.1163  -17.1231   22.8051 N   0  0  0  0  0  0  0  0  0  0  0  0
  -24.0588  -19.4719   25.3863 N   0  3  0  0  0  0  0  0  0  0  0  0
  -25.6809  -28.8330   17.0803 O   0  0  0  0  0  0  0  0  0  0  0  0
  -25.8235  -12.4940   20.9100 O   0  0  0  0  0  0  0  0  0  0  0  0
  -22.6441  -14.2974   22.8417 O   0  0  0  0  0  0  0  0  0  0  0  0
  -25.0543  -18.3827   22.9906 O   0  0  0  0  0  0  0  0  0  0  0  0
  -31.0671  -15.9215   19.9200 O   0  0  0  0  0  0  0  0  0  0  0  0
  -27.9358  -21.6928   22.5389 O   0  0  0  0  0  0  0  0  0  0  0  0
  -26.7683  -34.6704   22.1131 O   0  0  0  0  0  0  0  0  0  0  0  0
  -31.0670  -15.2160   22.5777 O   0  0  0  0  0  0  0  0  0  1  0  0
  -24.0323  -36.4241   26.5677 F   0  0  0  0  0  0  0  0  0  0  0  0
  -27.2517  -33.5654   24.6007 F   0  0  0  0  0  0  0  0  0  0  0  0
  -29.1824  -22.0391   18.0959 S   0  0  0  0  0  0  0  0  0  0  0  0
  1  2  1  0  0  0  0
  1  5  2  0  0  0  0
  2  6  2  0  0  0  0
  3  8  2  0  0  0  0
  3 15  1  0  0  0  0
  4  9  1  0  0  0  0
  4 15  2  0  0  0  0
  5 17  1  0  0  0  0
  6 19  1  0  0  0  0
  7 10  2  0  0  0  0
  7 18  1  0  0  0  0
  8 21  1  0  0  0  0
  9 21  2  0  0  0  0
 10 22  1  0  0  0  0
 11 12  2  0  0  0  0
 11 23  1  0  0  0  0
 12 24  1  0  0  0  0
 13 20  1  0  0  0  0
 13 22  2  0  0  0  0
 14 24  2  0  0  0  0
 14 25  1  0  0  0  0
 15 26  1  0  0  0  0
 16 26  1  0  0  0  0
 16 28  2  0  0  0  0
 16 31  1  0  0  0  0
 17 19  2  0  0  0  0
 17 37  1  0  0  0  0
 18 20  2  0  0  0  0
 18 38  1  0  0  0  0
 19 46  1  0  0  0  0
 20 39  1  0  0  0  0
 21 80  1  0  0  0  0
 22 81  1  0  0  0  0
 23 25  2  0  0  0  0
 23 80  1  0  0  0  0
 24 82  1  0  0  0  0
 25 83  1  0  0  0  0
 26 61  2  0  0  0  0
 27 29  2  0  0  0  0
 27 56  1  0  0  0  0
 27 62  1  0  0  0  0
 28 63  1  0  0  0  0
 28 66  1  0  0  0  0
 29 67  1  0  0  0  0
 29 84  1  0  0  0  0
 30 62  2  0  0  0  0
 30 69  1  0  0  0  0
 30 84  1  0  0  0  0
 31 68  1  0  0  0  0
 31 74  2  0  0  0  0
 32 47  1  0  0  0  0
 32 70  1  0  0  0  0
 32 75  2  0  0  0  0
 33 57  1  0  0  0  0
 33 64  1  0  0  0  0
 33 76  2  0  0  0  0
 34 58  1  0  0  0  0
 34 72  1  0  0  0  0
 34 77  2  0  0  0  0
 35 59  1  0  0  0  0
 35 71  1  0  0  0  0
 35 78  2  0  0  0  0
 36 65  1  0  0  0  0
 36 69  1  0  0  0  0
 36 79  2  0  0  0  0
 37 40  1  0  0  0  0
 38 47  1  0  0  0  0
 39 64  1  0  0  0  0
 40 42  1  0  0  0  0
 41 43  1  0  0  0  0
 41 44  1  0  0  0  0
 42 46  1  0  0  0  0
 43 48  1  0  0  0  0
 44 65  1  0  0  0  0
 45 48  1  0  0  0  0
 45 65  1  0  0  0  0
 46 70  1  0  0  0  0
 47 64  1  0  0  0  0
 48 63  1  0  0  0  0
 49 56  1  0  0  0  0
 50 58  1  0  0  0  0
 51 59  1  0  0  0  0
 52 60  1  0  0  0  0
 53 60  1  0  0  0  0
 54 60  1  0  0  0  0
 55 73  1  0  0  0  0
 56 71  1  0  0  0  0
 57 60  1  0  0  0  0
 57 72  1  0  0  0  0
 58 73  1  0  0  0  0
 59 81  1  0  0  0  0
 61 63  1  0  0  0  0
M  CHG  1  73   1
M  ISO  4  36 100  59 101  69 100  81 101
M  END
> <Batch ID>
0187

> <Smiles>
CNC(C)C(=O)NC(C(=O)N1Cc2cc([101O:1][101CH:1](C)C(=O)NC(C)c3nc([100NH:0][100C:0](=O)N4CCCC(n5nc(-c6ccc(Oc7ccc(F)cc7F)cc6)c(C(N)=O)c5N)C4)sc3N)ccc2CC1C(=O)NC1CCCc2ccccc21)C(C)(C)C

> <Shape>
0.227

> <Color>
0.069

> <Negative vol penalty>
0.000

$$$$

  -OEChem-04052305123D

 85 93  0     1  0  0  0  0  0999 V2000
  -16.5689  -28.5858   23.4474 C   0  0  0  0  0  0  0  0  0  0  0  0
  -17.1803  -28.8410   22.2240 C   0  0  0  0  0  0  0  0  0  0  0  0
  -22.1936  -15.1477   19.9308 C   0  0  0  0  0  0  0  0  0  0  0  0
  -23.4852  -15.3211   17.8964 C   0  0  0  0  0  0  0  0  0  0  0  0
  -17.1744  -29.0092   24.6297 C   0  0  0  0  0  0  0  0  0  0  0  0
  -18.3971  -29.5207   22.1823 C   0  0  0  0  0  0  0  0  0  0  0  0
  -25.2066  -27.3956   18.9978 C   0  0  0  0  0  0  0  0  0  0  0  0
  -21.0150  -15.1908   19.1862 C   0  0  0  0  0  0  0  0  0  0  0  0
  -22.3066  -15.3641   17.1517 C   0  0  0  0  0  0  0  0  0  0  0  0
  -26.5050  -27.0624   18.6113 C   0  0  0  0  0  0  0  0  0  0  0  0
  -19.1773  -13.0644   17.3062 C   0  0  0  0  0  0  0  0  0  0  0  0
  -18.1743  -12.1497   17.6268 C   0  0  0  0  0  0  0  0  0  0  0  0
  -27.3994  -28.5365   20.3069 C   0  0  0  0  0  0  0  0  0  0  0  0
  -16.6663  -13.9736   18.1130 C   0  0  0  0  0  0  0  0  0  0  0  0
  -30.1685  -21.2738   16.9942 C   0  0  0  0  0  0  0  0  0  0  0  0
  -23.4288  -15.2130   19.2859 C   0  0  0  0  0  0  0  0  0  0  0  0
  -25.3794  -14.0246   20.4220 C   0  0  0  0  0  0  0  0  0  0  0  0
  -18.4040  -29.6860   24.6031 C   0  0  0  0  0  0  0  0  0  0  0  0
  -24.9995  -28.2899   20.0518 C   0  0  0  0  0  0  0  0  0  0  0  0
  -19.0190  -29.9548   23.3653 C   0  0  0  0  0  0  0  0  0  0  0  0
  -26.1012  -28.8645   20.7067 C   0  0  0  0  0  0  0  0  0  0  0  0
  -21.0714  -15.2989   17.7966 C   0  0  0  0  0  0  0  0  0  0  0  0
  -27.5986  -27.6317   19.2641 C   0  0  0  0  0  0  0  0  0  0  0  0
  -18.9249  -14.4338   17.3891 C   0  0  0  0  0  0  0  0  0  0  0  0
  -16.9188  -12.6043   18.0301 C   0  0  0  0  0  0  0  0  0  0  0  0
  -17.6694  -14.8884   17.7924 C   0  0  0  0  0  0  0  0  0  0  0  0
  -24.6467  -15.1692   20.0546 C   0  0  0  0  0  0  0  0  0  0  0  0
  -30.3190  -21.2247   18.3643 C   0  0  0  0  0  0  0  0  0  0  0  0
  -26.4440  -14.5139   21.1387 C   0  0  0  0  0  0  0  0  0  0  0  0
  -29.8119  -23.3491   18.1641 C   0  0  0  0  0  0  0  0  0  0  0  0
  -25.1207  -12.6427   20.1406 C   0  0  0  0  0  0  0  0  0  0  0  0
  -22.5287  -30.0991   22.2192 C   0  0  0  0  0  0  0  0  0  0  0  0
  -28.2922  -24.7159   20.5564 C   0  0  0  0  0  0  0  0  0  0  0  0
  -24.8169  -29.1863   24.0472 C   0  0  0  0  0  0  0  0  0  0  0  0
  -26.8379  -27.3278   25.5848 C   0  0  0  0  0  0  0  0  0  0  0  0
  -29.2500  -19.8032   21.1736 C   0  0  0  0  0  0  0  0  0  0  0  0
  -18.9969  -30.1659   25.9042 C   0  0  0  0  0  0  0  0  0  0  0  0
  -23.6186  -28.7247   20.4614 C   0  0  0  0  0  0  0  0  0  0  0  0
  -25.8305  -29.8481   21.8122 C   0  0  0  0  0  0  0  0  0  0  0  0
  -20.4704  -30.5500   25.7971 C   0  0  0  0  0  0  0  0  0  0  0  0
  -27.7029  -18.1821   23.9405 C   0  0  0  0  0  0  0  0  0  0  0  0
  -20.7070  -31.4213   24.5676 C   0  0  0  0  0  0  0  0  0  0  0  0
  -26.8104  -17.1228   23.2915 C   0  0  0  0  0  0  0  0  0  0  0  0
  -27.7478  -19.4656   23.1142 C   0  0  0  0  0  0  0  0  0  0  0  0
  -27.2314  -18.2198   21.0514 C   0  0  0  0  0  0  0  0  0  0  0  0
  -20.3513  -30.6675   23.2805 C   0  0  1  0  0  0  0  0  0  0  0  0
  -23.4877  -28.9712   21.9751 C   0  0  1  0  0  0  0  0  0  0  0  0
  -27.1990  -16.8874   21.8195 C   0  0  2  0  0  0  0  0  0  0  0  0
  -27.1122  -23.9470   22.6575 C   0  0  0  0  0  0  0  0  0  0  0  0
  -28.2866  -26.6990   27.5350 C   0  0  0  0  0  0  0  0  0  0  0  0
  -31.1305  -27.1590   19.6144 C   0  0  0  0  0  0  0  0  0  0  0  0
  -25.9810  -32.0044   23.9613 C   0  0  0  0  0  0  0  0  0  0  0  0
  -27.5772  -31.3235   25.7660 C   0  0  0  0  0  0  0  0  0  0  0  0
  -25.1211  -31.2983   26.2011 C   0  0  0  0  0  0  0  0  0  0  0  0
  -25.3902  -24.7780   25.9868 C   0  0  0  0  0  0  0  0  0  0  0  0
  -30.6705  -20.0257   19.1508 C   0  0  0  0  0  0  0  0  0  0  0  0
  -28.4172  -24.4228   22.0440 C   0  0  0  0  0  0  0  0  0  0  0  0
  -29.5665  -25.1711   19.8510 C   0  0  2  0  0  0  0  0  0  0  0  0
  -26.1317  -29.5344   24.6979 C   0  0  1  0  0  0  0  0  0  0  0  0
  -26.9253  -26.5358   26.8769 C   0  0  2  0  0  0  0  0  0  0  0  0
  -29.7004  -26.6993   19.8730 C   0  0  2  0  0  0  0  0  0  1  0  0
  -26.2016  -31.0258   25.1320 C   0  0  0  0  0  0  0  0  0  0  0  0
  -25.1991  -16.3003   20.5011 N   0  0  0  0  0  0  0  0  0  0  0  0
  -30.1153  -22.4139   19.0368 N   0  0  0  0  0  0  0  0  0  0  0  0
  -26.2902  -15.8689   21.1565 N   0  0  0  0  0  0  0  0  0  0  0  0
  -24.7317  -29.3605   22.6605 N   0  0  0  0  0  0  0  0  0  0  0  0
  -28.1240  -19.1732   21.7290 N   0  0  0  0  0  0  0  0  0  0  0  0
  -27.4874  -13.9129   21.7490 N   0  0  0  0  0  0  0  0  0  0  0  0
  -23.9827  -12.3152   19.3910 N   0  0  0  0  0  0  0  0  0  0  0  0
  -29.5447  -24.6656   18.4941 N   0  0  0  0  0  0  0  0  0  0  0  0
  -21.4029  -29.7358   22.9334 N   0  0  0  0  0  0  0  0  0  0  0  0
  -26.3102  -28.5849   25.7910 N   0  0  0  0  0  0  0  0  0  0  0  0
  -29.5403  -19.4653   19.8575 N   0  0  0  0  0  0  0  0  0  0  0  0
  -26.7021  -25.0863   26.6121 N   0  3  0  0  0  0  0  0  0  0  0  0
  -25.8676  -11.7244   20.5559 O   0  0  0  0  0  0  0  0  0  0  0  0
  -22.7905  -31.2178   21.7928 O   0  0  0  0  0  0  0  0  0  0  0  0
  -27.2205  -24.6111   19.9593 O   0  0  0  0  0  0  0  0  0  0  0  0
  -23.8871  -28.7763   24.7476 O   0  0  0  0  0  0  0  0  0  0  0  0
  -27.2047  -26.8778   24.5016 O   0  0  0  0  0  0  0  0  0  0  0  0
  -29.9481  -20.6032   21.8057 O   0  0  0  0  0  0  0  0  0  0  0  0
  -19.9215  -15.3406   17.0697 O   0  0  0  0  0  0  0  0  0  0  0  0
  -28.8635  -27.2985   18.8847 O   0  0  0  0  0  0  0  0  0  1  0  0
  -15.9552  -11.7257   18.3364 F   0  0  0  0  0  0  0  0  0  0  0  0
  -17.4206  -16.2027   17.8728 F   0  0  0  0  0  0  0  0  0  0  0  0
  -29.7532  -22.8681   16.5178 S   0  0  0  0  0  0  0  0  0  0  0  0
  1  2  1  0  0  0  0
  1  5  2  0  0  0  0
  2  6  2  0  0  0  0
  3  8  2  0  0  0  0
  3 16  1  0  0  0  0
  4  9  1  0  0  0  0
  4 16  2  0  0  0  0
  5 18  1  0  0  0  0
  6 20  1  0  0  0  0
  7 10  2  0  0  0  0
  7 19  1  0  0  0  0
  8 22  1  0  0  0  0
  9 22  2  0  0  0  0
 10 23  1  0  0  0  0
 11 12  2  0  0  0  0
 11 24  1  0  0  0  0
 12 25  1  0  0  0  0
 13 21  1  0  0  0  0
 13 23  2  0  0  0  0
 14 25  2  0  0  0  0
 14 26  1  0  0  0  0
 15 28  2  0  0  0  0
 15 85  1  0  0  0  0
 16 27  1  0  0  0  0
 17 27  1  0  0  0  0
 17 29  2  0  0  0  0
 17 31  1  0  0  0  0
 18 20  2  0  0  0  0
 18 37  1  0  0  0  0
 19 21  2  0  0  0  0
 19 38  1  0  0  0  0
 20 46  1  0  0  0  0
 21 39  1  0  0  0  0
 22 81  1  0  0  0  0
 23 82  1  0  0  0  0
 24 26  2  0  0  0  0
 24 81  1  0  0  0  0
 25 83  1  0  0  0  0
 26 84  1  0  0  0  0
 27 63  2  0  0  0  0
 28 56  1  0  0  0  0
 28 64  1  0  0  0  0
 29 65  1  0  0  0  0
 29 68  1  0  0  0  0
 30 64  2  0  0  0  0
 30 70  1  0  0  0  0
 30 85  1  0  0  0  0
 31 69  1  0  0  0  0
 31 75  2  0  0  0  0
 32 47  1  0  0  0  0
 32 71  1  0  0  0  0
 32 76  2  0  0  0  0
 33 57  1  0  0  0  0
 33 58  1  0  0  0  0
 33 77  2  0  0  0  0
 34 59  1  0  0  0  0
 34 66  1  0  0  0  0
 34 78  2  0  0  0  0
 35 60  1  0  0  0  0
 35 72  1  0  0  0  0
 35 79  2  0  0  0  0
 36 67  1  0  0  0  0
 36 73  1  0  0  0  0
 36 80  2  0  0  0  0
 37 40  1  0  0  0  0
 38 47  1  0  0  0  0
 39 66  1  0  0  0  0
 40 42  1  0  0  0  0
 41 43  1  0  0  0  0
 41 44  1  0  0  0  0
 42 46  1  0  0  0  0
 43 48  1  0  0  0  0
 44 67  1  0  0  0  0
 45 48  1  0  0  0  0
 45 67  1  0  0  0  0
 46 71  1  0  0  0  0
 47 66  1  0  0  0  0
 48 65  1  0  0  0  0
 49 57  1  0  0  0  0
 50 60  1  0  0  0  0
 51 61  1  0  0  0  0
 52 62  1  0  0  0  0
 53 62  1  0  0  0  0
 54 62  1  0  0  0  0
 55 74  1  0  0  0  0
 56 73  1  0  0  0  0
 58 61  1  0  0  0  0
 58 70  1  0  0  0  0
 59 62  1  0  0  0  0
 59 72  1  0  0  0  0
 60 74  1  0  0  0  0
 61 82  1  0  0  0  0
 63 65  1  0  0  0  0
M  CHG  1  74   1
M  ISO  4  36 100  61 101  73 100  82 101
M  END
> <Batch ID>
0187

> <Smiles>
CCC(=O)C(Nc1nc(C[100NH:0][100C:0](=O)N2CCCC(n3nc(-c4ccc(Oc5ccc(F)cc5F)cc4)c(C(N)=O)c3N)C2)cs1)[101CH:1](C)[101O:1]c1ccc2c(c1)CN(C(=O)C(NC(=O)C(C)NC)C(C)(C)C)C(C(=O)NC1CCCc3ccccc31)C2

> <Shape>
0.253

> <Color>
0.099

> <Negative vol penalty>
0.000

$$$$

  -OEChem-04052305123D

 89 97  0     1  0  0  0  0  0999 V2000
  -20.5283  -26.5356   22.2485 C   0  0  0  0  0  0  0  0  0  0  0  0
  -20.7741  -25.2457   21.7890 C   0  0  0  0  0  0  0  0  0  0  0  0
  -27.3324  -23.4777   21.1215 C   0  0  0  0  0  0  0  0  0  0  0  0
  -28.9078  -23.2391   19.3053 C   0  0  0  0  0  0  0  0  0  0  0  0
  -21.2916  -27.0604   23.2905 C   0  0  0  0  0  0  0  0  0  0  0  0
  -21.7842  -24.4802   22.3705 C   0  0  0  0  0  0  0  0  0  0  0  0
  -20.3253  -19.7202   23.2972 C   0  0  0  0  0  0  0  0  0  0  0  0
  -27.4208  -24.8658   21.0159 C   0  0  0  0  0  0  0  0  0  0  0  0
  -28.9962  -24.6272   19.1997 C   0  0  0  0  0  0  0  0  0  0  0  0
  -20.2930  -18.8420   22.2148 C   0  0  0  0  0  0  0  0  0  0  0  0
  -26.1768  -27.2964   19.0215 C   0  0  0  0  0  0  0  0  0  0  0  0
  -24.9885  -28.0260   19.0546 C   0  0  0  0  0  0  0  0  0  0  0  0
  -22.4197  -17.9312   22.8979 C   0  0  0  0  0  0  0  0  0  0  0  0
  -25.7653  -29.2021   21.0169 C   0  0  0  0  0  0  0  0  0  0  0  0
  -28.0760  -22.6644   20.2663 C   0  0  0  0  0  0  0  0  0  0  0  0
  -26.8320  -20.4376   20.2250 C   0  0  0  0  0  0  0  0  0  0  0  0
  -22.3051  -26.2975   23.8916 C   0  0  0  0  0  0  0  0  0  0  0  0
  -21.4122  -19.7179   24.1833 C   0  0  0  0  0  0  0  0  0  0  0  0
  -22.5626  -24.9958   23.4207 C   0  0  0  0  0  0  0  0  0  0  0  0
  -22.4623  -18.8086   23.9922 C   0  0  0  0  0  0  0  0  0  0  0  0
  -28.2527  -25.4405   20.0549 C   0  0  0  0  0  0  0  0  0  0  0  0
  -21.3416  -17.9493   22.0134 C   0  0  0  0  0  0  0  0  0  0  0  0
  -27.1594  -27.5195   19.9861 C   0  0  0  0  0  0  0  0  0  0  0  0
  -24.7827  -28.9788   20.0523 C   0  0  0  0  0  0  0  0  0  0  0  0
  -26.9537  -28.4724   20.9838 C   0  0  0  0  0  0  0  0  0  0  0  0
  -27.9855  -21.2305   20.3753 C   0  0  0  0  0  0  0  0  0  0  0  0
  -26.3989  -13.0862   18.9448 C   0  0  0  0  0  0  0  0  0  0  0  0
  -27.1728  -13.8045   18.0576 C   0  0  0  0  0  0  0  0  0  0  0  0
  -27.2715  -19.1513   20.4220 C   0  0  0  0  0  0  0  0  0  0  0  0
  -25.2415  -14.9490   18.9307 C   0  0  0  0  0  0  0  0  0  0  0  0
  -25.4839  -20.8288   19.9333 C   0  0  0  0  0  0  0  0  0  0  0  0
  -23.6176  -21.8433   25.0335 C   0  0  0  0  0  0  0  0  0  0  0  0
  -24.4340  -19.5554   27.1833 C   0  0  0  0  0  0  0  0  0  0  0  0
  -24.4231  -16.2532   28.0448 C   0  0  0  0  0  0  0  0  0  0  0  0
  -23.1647  -15.8790   20.0071 C   0  0  0  0  0  0  0  0  0  0  0  0
  -31.0035  -15.0955   19.5457 C   0  0  0  0  0  0  0  0  0  0  0  0
  -23.1353  -26.9248   24.9833 C   0  0  0  0  0  0  0  0  0  0  0  0
  -21.4193  -20.6532   25.3613 C   0  0  0  0  0  0  0  0  0  0  0  0
  -23.6424  -18.7523   24.9264 C   0  0  0  0  0  0  0  0  0  0  0  0
  -23.9380  -25.9123   25.7962 C   0  0  0  0  0  0  0  0  0  0  0  0
  -31.6921  -17.4124   22.1600 C   0  0  0  0  0  0  0  0  0  0  0  0
  -24.6446  -24.9257   24.8720 C   0  0  0  0  0  0  0  0  0  0  0  0
  -30.6987  -18.5490   21.9126 C   0  0  0  0  0  0  0  0  0  0  0  0
  -32.2103  -16.8208   20.8510 C   0  0  0  0  0  0  0  0  0  0  0  0
  -30.1679  -17.5213   19.6629 C   0  0  0  0  0  0  0  0  0  0  0  0
  -23.6331  -24.1255   24.0425 C   0  0  1  0  0  0  0  0  0  0  0  0
  -22.8196  -20.9166   25.9066 C   0  0  1  0  0  0  0  0  0  0  0  0
  -29.5750  -18.1127   20.9533 C   0  0  2  0  0  0  0  0  0  0  0  0
  -25.1994  -14.6838   29.8424 C   0  0  0  0  0  0  0  0  0  0  0  0
  -20.5411  -16.7507   18.2861 C   0  0  0  0  0  0  0  0  0  0  0  0
  -21.5255  -19.0374   18.5124 C   0  0  0  0  0  0  0  0  0  0  0  0
  -27.2856  -19.7454   26.1143 C   0  0  0  0  0  0  0  0  0  0  0  0
  -27.7768  -17.5608   27.2345 C   0  0  0  0  0  0  0  0  0  0  0  0
  -27.1151  -19.5402   28.6010 C   0  0  0  0  0  0  0  0  0  0  0  0
  -21.6548  -15.4107   28.6660 C   0  0  0  0  0  0  0  0  0  0  0  0
  -28.4065  -13.4198   17.3434 C   0  0  0  0  0  0  0  0  0  0  0  0
  -29.6785  -13.4784   18.2085 C   0  0  0  0  0  0  0  0  0  0  0  0
  -25.3758  -18.3755   27.1831 C   0  0  1  0  0  0  0  0  0  0  0  0
  -24.0559  -15.5512   29.3397 C   0  0  2  0  0  0  0  0  0  0  0  0
  -22.3766  -17.1902   20.0113 C   0  0  1  0  0  0  0  0  0  1  0  0
  -21.8150  -17.5364   18.6165 C   0  0  0  0  0  0  0  0  0  0  0  0
  -26.6502  -11.7021   19.3953 C   0  0  0  0  0  0  0  0  0  0  0  0
  -26.8671  -18.8076   27.2643 C   0  0  0  0  0  0  0  0  0  0  0  0
  -29.0758  -20.5084   20.6470 N   0  0  0  0  0  0  0  0  0  0  0  0
  -25.2912  -13.7410   19.4469 N   0  0  0  0  0  0  0  0  0  0  0  0
  -28.6093  -19.2482   20.6690 N   0  0  0  0  0  0  0  0  0  0  0  0
  -23.6062  -19.6911   26.0598 N   0  0  0  0  0  0  0  0  0  0  0  0
  -31.0949  -16.4258   19.9875 N   0  0  0  0  0  0  0  0  0  0  0  0
  -26.6402  -17.9582   20.4063 N   0  0  0  0  0  0  0  0  0  0  0  0
  -24.6255  -21.1173   21.0030 N   0  0  0  0  0  0  0  0  0  0  0  0
  -24.2738  -15.9531   19.1714 N   0  0  0  0  0  0  0  0  0  0  0  0
  -23.0338  -23.0816   24.8460 N   0  0  0  0  0  0  0  0  0  0  0  0
  -24.9445  -17.5088   28.2745 N   0  0  0  0  0  0  0  0  0  0  0  0
  -29.9125  -14.8041   18.7361 N   0  0  0  0  0  0  0  0  0  0  0  0
  -22.8613  -14.6834   29.1378 N   0  3  0  0  0  0  0  0  0  0  0  0
  -25.0484  -20.9040   18.7593 O   0  0  0  0  0  0  0  0  0  0  0  0
  -24.6847  -21.4634   24.5660 O   0  0  0  0  0  0  0  0  0  0  0  0
  -24.4279  -20.3241   28.1480 O   0  0  0  0  0  0  0  0  0  0  0  0
  -24.2667  -15.7376   26.9401 O   0  0  0  0  0  0  0  0  0  0  0  0
  -22.8150  -14.9248   20.6960 O   0  0  0  0  0  0  0  0  0  0  0  0
  -31.8300  -14.2304   19.8546 O   0  0  0  0  0  0  0  0  0  0  0  0
  -28.3390  -26.7949   19.9514 O   0  0  0  0  0  0  0  0  0  0  0  0
  -21.3128  -17.0915   20.9573 O   0  0  0  0  0  0  0  0  0  1  0  0
  -23.6422  -29.6805   20.0830 F   0  0  0  0  0  0  0  0  0  0  0  0
  -27.8944  -28.6920   21.9125 F   0  0  0  0  0  0  0  0  0  0  0  0
  -27.7697  -11.1279   18.8486 F   0  0  0  0  0  0  0  0  0  0  0  0
  -26.8270  -11.5763   20.7497 F   0  0  0  0  0  0  0  0  0  0  0  0
  -25.6278  -10.8418   19.0911 F   0  0  0  0  0  0  0  0  0  0  0  0
  -26.4945  -15.3637   17.8339 S   0  0  0  0  0  0  0  0  0  0  0  0
  1  2  1  0  0  0  0
  1  5  2  0  0  0  0
  2  6  2  0  0  0  0
  3  8  2  0  0  0  0
  3 15  1  0  0  0  0
  4  9  1  0  0  0  0
  4 15  2  0  0  0  0
  5 17  1  0  0  0  0
  6 19  1  0  0  0  0
  7 10  2  0  0  0  0
  7 18  1  0  0  0  0
  8 21  1  0  0  0  0
  9 21  2  0  0  0  0
 10 22  1  0  0  0  0
 11 12  2  0  0  0  0
 11 23  1  0  0  0  0
 12 24  1  0  0  0  0
 13 20  1  0  0  0  0
 13 22  2  0  0  0  0
 14 24  2  0  0  0  0
 14 25  1  0  0  0  0
 15 26  1  0  0  0  0
 16 26  1  0  0  0  0
 16 29  2  0  0  0  0
 16 31  1  0  0  0  0
 17 19  2  0  0  0  0
 17 37  1  0  0  0  0
 18 20  2  0  0  0  0
 18 38  1  0  0  0  0
 19 46  1  0  0  0  0
 20 39  1  0  0  0  0
 21 82  1  0  0  0  0
 22 83  1  0  0  0  0
 23 25  2  0  0  0  0
 23 82  1  0  0  0  0
 24 84  1  0  0  0  0
 25 85  1  0  0  0  0
 26 64  2  0  0  0  0
 27 28  2  0  0  0  0
 27 62  1  0  0  0  0
 27 65  1  0  0  0  0
 28 56  1  0  0  0  0
 28 89  1  0  0  0  0
 29 66  1  0  0  0  0
 29 69  1  0  0  0  0
 30 65  2  0  0  0  0
 30 71  1  0  0  0  0
 30 89  1  0  0  0  0
 31 70  1  0  0  0  0
 31 76  2  0  0  0  0
 32 47  1  0  0  0  0
 32 72  1  0  0  0  0
 32 77  2  0  0  0  0
 33 58  1  0  0  0  0
 33 67  1  0  0  0  0
 33 78  2  0  0  0  0
 34 59  1  0  0  0  0
 34 73  1  0  0  0  0
 34 79  2  0  0  0  0
 35 60  1  0  0  0  0
 35 71  1  0  0  0  0
 35 80  2  0  0  0  0
 36 68  1  0  0  0  0
 36 74  1  0  0  0  0
 36 81  2  0  0  0  0
 37 40  1  0  0  0  0
 38 47  1  0  0  0  0
 39 67  1  0  0  0  0
 40 42  1  0  0  0  0
 41 43  1  0  0  0  0
 41 44  1  0  0  0  0
 42 46  1  0  0  0  0
 43 48  1  0  0  0  0
 44 68  1  0  0  0  0
 45 48  1  0  0  0  0
 45 68  1  0  0  0  0
 46 72  1  0  0  0  0
 47 67  1  0  0  0  0
 48 66  1  0  0  0  0
 49 59  1  0  0  0  0
 50 61  1  0  0  0  0
 51 61  1  0  0  0  0
 52 63  1  0  0  0  0
 53 63  1  0  0  0  0
 54 63  1  0  0  0  0
 55 75  1  0  0  0  0
 56 57  1  0  0  0  0
 57 74  1  0  0  0  0
 58 63  1  0  0  0  0
 58 73  1  0  0  0  0
 59 75  1  0  0  0  0
 60 61  1  0  0  0  0
 60 83  1  0  0  0  0
 62 86  1  0  0  0  0
 62 87  1  0  0  0  0
 62 88  1  0  0  0  0
 64 66  1  0  0  0  0
M  CHG  1  75   1
M  ISO  4  36 100  60 101  74 100  83 101
M  END
> <Batch ID>
0187

> <Smiles>
CNC(C)C(=O)NC(C(=O)N1Cc2cc([101O:1][101CH:1](C(=O)Nc3nc(C(F)(F)F)c(CC[100NH:0][100C:0](=O)N4CCCC(n5nc(-c6ccc(Oc7ccc(F)cc7F)cc6)c(C(N)=O)c5N)C4)s3)C(C)C)ccc2CC1C(=O)NC1CCCc2ccccc21)C(C)(C)C

> <Shape>
0.180

> <Color>
0.077

> <Negative vol penalty>
0.000

$$$$

  -OEChem-04052305123D

 79 86  0     1  0  0  0  0  0999 V2000
  -25.9063  -35.3854   22.6477 C   0  0  0  0  0  0  0  0  0  0  0  0
  -26.4793  -34.1272   22.4929 C   0  0  0  0  0  0  0  0  0  0  0  0
  -25.9427  -14.3166   21.7708 C   0  0  0  0  0  0  0  0  0  0  0  0
  -24.4470  -13.9591   19.9074 C   0  0  0  0  0  0  0  0  0  0  0  0
  -24.6205  -35.5047   23.1733 C   0  0  0  0  0  0  0  0  0  0  0  0
  -25.7671  -32.9875   22.8646 C   0  0  0  0  0  0  0  0  0  0  0  0
  -26.0717  -29.2945   19.4128 C   0  0  0  0  0  0  0  0  0  0  0  0
  -25.3600  -13.2432   22.4444 C   0  0  0  0  0  0  0  0  0  0  0  0
  -23.8643  -12.8856   20.5811 C   0  0  0  0  0  0  0  0  0  0  0  0
  -27.2459  -28.5433   19.3861 C   0  0  0  0  0  0  0  0  0  0  0  0
  -22.2249   -9.8248   21.6589 C   0  0  0  0  0  0  0  0  0  0  0  0
  -21.9927   -8.6541   20.9370 C   0  0  0  0  0  0  0  0  0  0  0  0
  -26.1451  -26.7899   20.6243 C   0  0  0  0  0  0  0  0  0  0  0  0
  -24.3570   -8.4699   20.4752 C   0  0  0  0  0  0  0  0  0  0  0  0
  -25.4862  -14.6746   20.5022 C   0  0  0  0  0  0  0  0  0  0  0  0
  -27.1885  -15.7414   18.9300 C   0  0  0  0  0  0  0  0  0  0  0  0
  -23.8884  -34.3653   23.5426 C   0  0  0  0  0  0  0  0  0  0  0  0
  -24.9267  -28.8030   20.0561 C   0  0  0  0  0  0  0  0  0  0  0  0
  -24.4707  -33.0917   23.3968 C   0  0  0  0  0  0  0  0  0  0  0  0
  -24.9569  -27.5358   20.6556 C   0  0  0  0  0  0  0  0  0  0  0  0
  -24.3209  -12.5277   21.8496 C   0  0  0  0  0  0  0  0  0  0  0  0
  -27.2836  -27.2920   19.9944 C   0  0  0  0  0  0  0  0  0  0  0  0
  -23.5232  -10.3181   21.7889 C   0  0  0  0  0  0  0  0  0  0  0  0
  -23.0587   -7.9767   20.3451 C   0  0  0  0  0  0  0  0  0  0  0  0
  -24.5892   -9.6406   21.1971 C   0  0  0  0  0  0  0  0  0  0  0  0
  -26.0873  -15.7837   19.8061 C   0  0  0  0  0  0  0  0  0  0  0  0
  -27.3649  -17.0456   18.5371 C   0  0  0  0  0  0  0  0  0  0  0  0
  -27.9809  -14.6231   18.5090 C   0  0  0  0  0  0  0  0  0  0  0  0
  -23.1559  -29.7519   22.5192 C   0  0  0  0  0  0  0  0  0  0  0  0
  -21.2614  -27.2815   21.6080 C   0  0  0  0  0  0  0  0  0  0  0  0
  -20.9827  -24.2838   20.0008 C   0  0  0  0  0  0  0  0  0  0  0  0
  -27.6679  -22.5110   19.9680 C   0  0  0  0  0  0  0  0  0  0  0  0
  -30.1944  -22.8032   19.8825 C   0  0  0  0  0  0  0  0  0  0  0  0
  -22.5201  -34.5470   24.1503 C   0  0  0  0  0  0  0  0  0  0  0  0
  -23.6601  -29.6142   20.0529 C   0  0  0  0  0  0  0  0  0  0  0  0
  -23.7488  -26.9541   21.3416 C   0  0  0  0  0  0  0  0  0  0  0  0
  -21.6877  -33.2676   24.1705 C   0  0  0  0  0  0  0  0  0  0  0  0
  -24.4408  -21.1047   19.1354 C   0  0  0  0  0  0  0  0  0  0  0  0
  -22.5207  -32.0968   24.6826 C   0  0  0  0  0  0  0  0  0  0  0  0
  -24.6578  -19.5969   19.2203 C   0  0  0  0  0  0  0  0  0  0  0  0
  -25.2916  -21.8413   20.1624 C   0  0  0  0  0  0  0  0  0  0  0  0
  -26.9984  -20.0384   20.1088 C   0  0  0  0  0  0  0  0  0  0  0  0
  -23.7203  -31.8303   23.7653 C   0  0  1  0  0  0  0  0  0  0  0  0
  -22.7058  -29.2364   21.1816 C   0  0  1  0  0  0  0  0  0  0  0  0
  -26.1500  -19.2571   19.0872 C   0  0  1  0  0  0  0  0  0  0  0  0
  -19.3166  -22.4881   19.4562 C   0  0  0  0  0  0  0  0  0  0  0  0
  -30.3877  -26.1337   22.0688 C   0  0  0  0  0  0  0  0  0  0  0  0
  -31.5356  -25.4177   18.3981 C   0  0  0  0  0  0  0  0  0  0  0  0
  -21.4344  -26.2546   24.4760 C   0  0  0  0  0  0  0  0  0  0  0  0
  -20.5887  -24.0434   23.6615 C   0  0  0  0  0  0  0  0  0  0  0  0
  -19.1647  -26.0796   23.4404 C   0  0  0  0  0  0  0  0  0  0  0  0
  -21.3147  -24.6973   17.0891 C   0  0  0  0  0  0  0  0  0  0  0  0
  -29.6610  -27.2754   19.9364 C   0  0  0  0  0  0  0  0  0  1  0  0
  -21.1854  -25.8118   21.9446 C   0  0  1  0  0  0  0  0  0  0  0  0
  -19.9756  -23.7752   18.9852 C   0  0  2  0  0  0  0  0  0  0  0  0
  -30.7651  -26.4485   20.6129 C   0  0  2  0  0  0  0  0  0  0  0  0
  -31.1221  -25.1533   19.8444 C   0  0  1  0  0  0  0  0  0  0  0  0
  -20.6168  -25.5589   23.3695 C   0  0  0  0  0  0  0  0  0  0  0  0
  -25.5987  -17.0171   19.9609 N   0  0  0  0  0  0  0  0  0  0  0  0
  -26.3967  -17.7619   19.1770 N   0  0  0  0  0  0  0  0  0  0  0  0
  -22.5360  -27.7883   21.3173 N   0  0  0  0  0  0  0  0  0  0  0  0
  -26.7084  -21.4819   20.0572 N   0  0  0  0  0  0  0  0  0  0  0  0
  -28.2524  -17.6380   17.7101 N   0  0  0  0  0  0  0  0  0  0  0  0
  -27.6629  -13.3529   19.0089 N   0  0  0  0  0  0  0  0  0  0  0  0
  -23.2986  -31.1253   22.5739 N   0  0  0  0  0  0  0  0  0  0  0  0
  -20.4154  -25.1872   20.8744 N   0  0  0  0  0  0  0  0  0  0  0  0
  -29.0045  -22.0664   19.9246 N   0  0  0  0  0  0  0  0  0  0  0  0
  -30.0485  -24.1781   19.8833 N   0  0  0  0  0  0  0  0  0  0  0  0
  -20.6446  -23.5104   17.6801 N   0  3  0  0  0  0  0  0  0  0  0  0
  -28.9527  -14.7491   17.7260 O   0  0  0  0  0  0  0  0  0  0  0  0
  -23.3572  -28.9623   23.4345 O   0  0  0  0  0  0  0  0  0  0  0  0
  -20.2270  -27.9535   21.5962 O   0  0  0  0  0  0  0  0  0  0  0  0
  -22.1546  -23.9137   20.0197 O   0  0  0  0  0  0  0  0  0  0  0  0
  -27.3698  -23.7087   19.9744 O   0  0  0  0  0  0  0  0  0  0  0  0
  -23.7522  -11.4801   22.5066 O   0  0  0  0  0  0  0  0  0  0  0  0
  -28.4285  -26.5569   19.9703 O   0  0  0  0  0  0  0  0  0  1  0  0
  -22.8357   -6.8516   19.6532 F   0  0  0  0  0  0  0  0  0  0  0  0
  -25.8388  -10.1090   21.3195 F   0  0  0  0  0  0  0  0  0  0  0  0
  -31.6545  -21.9736   19.8208 S   0  0  0  0  0  0  0  0  0  0  0  0
  1  2  1  0  0  0  0
  1  5  2  0  0  0  0
  2  6  2  0  0  0  0
  3  8  2  0  0  0  0
  3 15  1  0  0  0  0
  4  9  1  0  0  0  0
  4 15  2  0  0  0  0
  5 17  1  0  0  0  0
  6 19  1  0  0  0  0
  7 10  2  0  0  0  0
  7 18  1  0  0  0  0
  8 21  1  0  0  0  0
  9 21  2  0  0  0  0
 10 22  1  0  0  0  0
 11 12  2  0  0  0  0
 11 23  1  0  0  0  0
 12 24  1  0  0  0  0
 13 20  1  0  0  0  0
 13 22  2  0  0  0  0
 14 24  2  0  0  0  0
 14 25  1  0  0  0  0
 15 26  1  0  0  0  0
 16 26  1  0  0  0  0
 16 27  2  0  0  0  0
 16 28  1  0  0  0  0
 17 19  2  0  0  0  0
 17 34  1  0  0  0  0
 18 20  2  0  0  0  0
 18 35  1  0  0  0  0
 19 43  1  0  0  0  0
 20 36  1  0  0  0  0
 21 75  1  0  0  0  0
 22 76  1  0  0  0  0
 23 25  2  0  0  0  0
 23 75  1  0  0  0  0
 24 77  1  0  0  0  0
 25 78  1  0  0  0  0
 26 59  2  0  0  0  0
 27 60  1  0  0  0  0
 27 63  1  0  0  0  0
 28 64  1  0  0  0  0
 28 70  2  0  0  0  0
 29 44  1  0  0  0  0
 29 65  1  0  0  0  0
 29 71  2  0  0  0  0
 30 54  1  0  0  0  0
 30 61  1  0  0  0  0
 30 72  2  0  0  0  0
 31 55  1  0  0  0  0
 31 66  1  0  0  0  0
 31 73  2  0  0  0  0
 32 62  1  0  0  0  0
 32 67  1  0  0  0  0
 32 74  2  0  0  0  0
 33 67  1  0  0  0  0
 33 68  1  0  0  0  0
 33 79  2  0  0  0  0
 34 37  1  0  0  0  0
 35 44  1  0  0  0  0
 36 61  1  0  0  0  0
 37 39  1  0  0  0  0
 38 40  1  0  0  0  0
 38 41  1  0  0  0  0
 39 43  1  0  0  0  0
 40 45  1  0  0  0  0
 41 62  1  0  0  0  0
 42 45  1  0  0  0  0
 42 62  1  0  0  0  0
 43 65  1  0  0  0  0
 44 61  1  0  0  0  0
 45 60  1  0  0  0  0
 46 55  1  0  0  0  0
 47 56  1  0  0  0  0
 48 57  1  0  0  0  0
 49 58  1  0  0  0  0
 50 58  1  0  0  0  0
 51 58  1  0  0  0  0
 52 69  1  0  0  0  0
 53 56  1  0  0  0  0
 53 76  1  0  0  0  0
 54 58  1  0  0  0  0
 54 66  1  0  0  0  0
 55 69  1  0  0  0  0
 56 57  1  0  0  0  0
 57 68  1  0  0  0  0
 59 60  1  0  0  0  0
M  CHG  1  69   1
M  ISO  4  32 100  53 101  67 100  76 101
M  END
> <Batch ID>
0187

> <Smiles>
CNC(C)C(=O)NC(C(=O)N1Cc2cc([101O:1][101CH2:1]C(C)C(C)NC(=S)[100NH:0][100C:0](=O)N3CCCC(n4nc(-c5ccc(Oc6ccc(F)cc6F)cc5)c(C(N)=O)c4N)C3)ccc2CC1C(=O)NC1CCCc2ccccc21)C(C)(C)C

> <Shape>
0.268

> <Color>
0.080

> <Negative vol penalty>
0.000

$$$$

  -OEChem-04052305123D

 86 94  0     1  0  0  0  0  0999 V2000
  -33.1592  -25.8890   19.9843 C   0  0  0  0  0  0  0  0  0  0  0  0
  -32.7440  -27.1539   19.5836 C   0  0  0  0  0  0  0  0  0  0  0  0
  -24.4745  -10.2906   22.5966 C   0  0  0  0  0  0  0  0  0  0  0  0
  -24.5655  -11.8531   24.4371 C   0  0  0  0  0  0  0  0  0  0  0  0
  -32.4473  -24.7637   19.5745 C   0  0  0  0  0  0  0  0  0  0  0  0
  -31.6100  -27.2948   18.7830 C   0  0  0  0  0  0  0  0  0  0  0  0
  -23.9310  -27.1532   19.3015 C   0  0  0  0  0  0  0  0  0  0  0  0
  -24.0628   -9.2848   23.4708 C   0  0  0  0  0  0  0  0  0  0  0  0
  -24.1537  -10.8472   25.3113 C   0  0  0  0  0  0  0  0  0  0  0  0
  -23.1257  -26.3902   20.1460 C   0  0  0  0  0  0  0  0  0  0  0  0
  -21.2038   -8.3353   25.0062 C   0  0  0  0  0  0  0  0  0  0  0  0
  -20.1444   -7.5214   24.6051 C   0  0  0  0  0  0  0  0  0  0  0  0
  -24.6255  -26.8474   21.9793 C   0  0  0  0  0  0  0  0  0  0  0  0
  -21.5770   -5.5819   24.7569 C   0  0  0  0  0  0  0  0  0  0  0  0
  -24.7259  -11.5748   23.0797 C   0  0  0  0  0  0  0  0  0  0  0  0
  -24.3319  -13.5063   21.4606 C   0  0  0  0  0  0  0  0  0  0  0  0
  -31.3113  -24.8908   18.7582 C   0  0  0  0  0  0  0  0  0  0  0  0
  -25.0974  -27.7610   19.7878 C   0  0  0  0  0  0  0  0  0  0  0  0
  -30.8641  -26.1728   18.3788 C   0  0  0  0  0  0  0  0  0  0  0  0
  -25.4425  -27.6197   21.1395 C   0  0  0  0  0  0  0  0  0  0  0  0
  -23.9023   -9.5630   24.8282 C   0  0  0  0  0  0  0  0  0  0  0  0
  -23.4744  -26.2349   21.4844 C   0  0  0  0  0  0  0  0  0  0  0  0
  -22.4498   -7.7725   25.2826 C   0  0  0  0  0  0  0  0  0  0  0  0
  -20.3310   -6.1447   24.4804 C   0  0  0  0  0  0  0  0  0  0  0  0
  -22.6364   -6.3958   25.1580 C   0  0  0  0  0  0  0  0  0  0  0  0
  -25.1518  -12.6142   22.1772 C   0  0  0  0  0  0  0  0  0  0  0  0
  -28.4514  -21.5235   21.7761 C   0  0  0  0  0  0  0  0  0  0  0  0
  -28.1304  -20.5015   20.9075 C   0  0  0  0  0  0  0  0  0  0  0  0
  -25.2119  -14.2890   20.7538 C   0  0  0  0  0  0  0  0  0  0  0  0
  -26.2661  -21.6769   21.8797 C   0  0  0  0  0  0  0  0  0  0  0  0
  -22.9027  -13.6177   21.4361 C   0  0  0  0  0  0  0  0  0  0  0  0
  -28.1978  -27.5102   19.1333 C   0  0  0  0  0  0  0  0  0  0  0  0
  -28.4376  -29.9976   21.2016 C   0  0  0  0  0  0  0  0  0  0  0  0
  -24.5328  -23.0827   23.0483 C   0  0  0  0  0  0  0  0  0  0  0  0
  -27.0946  -31.7306   23.8170 C   0  0  0  0  0  0  0  0  0  0  0  0
  -29.9030  -17.2987   20.4696 C   0  0  0  0  0  0  0  0  0  0  0  0
  -30.5736  -23.6399   18.3504 C   0  0  0  0  0  0  0  0  0  0  0  0
  -25.9410  -28.6029   18.8702 C   0  0  0  0  0  0  0  0  0  0  0  0
  -26.6736  -28.2685   21.7156 C   0  0  0  0  0  0  0  0  0  0  0  0
  -29.6575  -23.8546   17.1500 C   0  0  0  0  0  0  0  0  0  0  0  0
  -30.1862  -13.7824   19.9880 C   0  0  0  0  0  0  0  0  0  0  0  0
  -28.7895  -25.0842   17.3720 C   0  0  0  0  0  0  0  0  0  0  0  0
  -28.8370  -13.2385   20.4612 C   0  0  0  0  0  0  0  0  0  0  0  0
  -30.6473  -14.9647   20.8373 C   0  0  0  0  0  0  0  0  0  0  0  0
  -28.3195  -15.5181   21.4280 C   0  0  0  0  0  0  0  0  0  0  0  0
  -29.6513  -26.3483   17.4829 C   0  0  1  0  0  0  0  0  0  0  0  0
  -27.3809  -28.7523   19.3517 C   0  0  1  0  0  0  0  0  0  0  0  0
  -27.7862  -14.3602   20.5670 C   0  0  2  0  0  0  0  0  0  0  0  0
  -29.8150  -21.9490   22.1522 C   0  0  0  0  0  0  0  0  0  0  0  0
  -28.8185  -19.6950   18.6189 C   0  0  0  0  0  0  0  0  0  0  0  0
  -22.5488  -23.6441   24.4912 C   0  0  0  0  0  0  0  0  0  0  0  0
  -27.5389  -33.6952   25.3137 C   0  0  0  0  0  0  0  0  0  0  0  0
  -21.0246  -23.9177   21.6583 C   0  0  0  0  0  0  0  0  0  0  0  0
  -30.4956  -28.3548   22.7430 C   0  0  0  0  0  0  0  0  0  0  0  0
  -30.1891  -29.9147   24.6772 C   0  0  0  0  0  0  0  0  0  0  0  0
  -31.0616  -30.7792   22.5061 C   0  0  0  0  0  0  0  0  0  0  0  0
  -24.6406  -33.1188   22.9170 C   0  0  0  0  0  0  0  0  0  0  0  0
  -29.0070  -19.5902   20.1452 C   0  0  2  0  0  0  0  0  0  0  0  0
  -28.6245  -30.1332   22.6935 C   0  0  1  0  0  0  0  0  0  0  0  0
  -23.0013  -23.1945   23.0995 C   0  0  1  0  0  0  0  0  0  0  0  0
  -26.8732  -33.2168   24.0328 C   0  0  2  0  0  0  0  0  0  0  0  0
  -22.5037  -24.1180   21.9664 C   0  0  2  0  0  0  0  0  0  1  0  0
  -30.0705  -29.7815   23.1440 C   0  0  0  0  0  0  0  0  0  0  0  0
  -26.4527  -12.8108   21.9467 N   0  0  0  0  0  0  0  0  0  0  0  0
  -27.3837  -22.1990   22.3342 N   0  0  0  0  0  0  0  0  0  0  0  0
  -26.4568  -13.8355   21.0772 N   0  0  0  0  0  0  0  0  0  0  0  0
  -27.4695  -29.0765   20.7769 N   0  0  0  0  0  0  0  0  0  0  0  0
  -29.6062  -15.9936   20.8959 N   0  0  0  0  0  0  0  0  0  0  0  0
  -25.0344  -15.3140   19.8933 N   0  0  0  0  0  0  0  0  0  0  0  0
  -22.1501  -12.7345   22.2221 N   0  0  0  0  0  0  0  0  0  0  0  0
  -24.9411  -22.0641   22.1916 N   0  0  0  0  0  0  0  0  0  0  0  0
  -28.8167  -27.4537   17.8991 N   0  0  0  0  0  0  0  0  0  0  0  0
  -28.2048  -31.4878   23.0360 N   0  0  0  0  0  0  0  0  0  0  0  0
  -28.8580  -18.2108   20.5523 N   0  0  0  0  0  0  0  0  0  0  0  0
  -25.4159  -33.5160   24.1205 N   0  3  0  0  0  0  0  0  0  0  0  0
  -22.3099  -14.4644   20.7252 O   0  0  0  0  0  0  0  0  0  0  0  0
  -28.2630  -26.6664   20.0195 O   0  0  0  0  0  0  0  0  0  0  0  0
  -29.1201  -30.6887   20.4413 O   0  0  0  0  0  0  0  0  0  0  0  0
  -25.2535  -23.8374   23.6950 O   0  0  0  0  0  0  0  0  0  0  0  0
  -26.3587  -30.8709   24.2965 O   0  0  0  0  0  0  0  0  0  0  0  0
  -31.0152  -17.6255   20.0417 O   0  0  0  0  0  0  0  0  0  0  0  0
  -23.5003   -8.5818   25.6815 O   0  0  0  0  0  0  0  0  0  0  0  0
  -22.6906  -25.4902   22.3107 O   0  0  0  0  0  0  0  0  0  1  0  0
  -19.3132   -5.3631   24.0967 F   0  0  0  0  0  0  0  0  0  0  0  0
  -23.8308   -5.8493   25.4233 F   0  0  0  0  0  0  0  0  0  0  0  0
  -26.4252  -20.3706   20.7782 S   0  0  0  0  0  0  0  0  0  0  0  0
  1  2  1  0  0  0  0
  1  5  2  0  0  0  0
  2  6  2  0  0  0  0
  3  8  2  0  0  0  0
  3 15  1  0  0  0  0
  4  9  1  0  0  0  0
  4 15  2  0  0  0  0
  5 17  1  0  0  0  0
  6 19  1  0  0  0  0
  7 10  2  0  0  0  0
  7 18  1  0  0  0  0
  8 21  1  0  0  0  0
  9 21  2  0  0  0  0
 10 22  1  0  0  0  0
 11 12  2  0  0  0  0
 11 23  1  0  0  0  0
 12 24  1  0  0  0  0
 13 20  1  0  0  0  0
 13 22  2  0  0  0  0
 14 24  2  0  0  0  0
 14 25  1  0  0  0  0
 15 26  1  0  0  0  0
 16 26  1  0  0  0  0
 16 29  2  0  0  0  0
 16 31  1  0  0  0  0
 17 19  2  0  0  0  0
 17 37  1  0  0  0  0
 18 20  2  0  0  0  0
 18 38  1  0  0  0  0
 19 46  1  0  0  0  0
 20 39  1  0  0  0  0
 21 82  1  0  0  0  0
 22 83  1  0  0  0  0
 23 25  2  0  0  0  0
 23 82  1  0  0  0  0
 24 84  1  0  0  0  0
 25 85  1  0  0  0  0
 26 64  2  0  0  0  0
 27 28  2  0  0  0  0
 27 49  1  0  0  0  0
 27 65  1  0  0  0  0
 28 58  1  0  0  0  0
 28 86  1  0  0  0  0
 29 66  1  0  0  0  0
 29 69  1  0  0  0  0
 30 65  2  0  0  0  0
 30 71  1  0  0  0  0
 30 86  1  0  0  0  0
 31 70  1  0  0  0  0
 31 76  2  0  0  0  0
 32 47  1  0  0  0  0
 32 72  1  0  0  0  0
 32 77  2  0  0  0  0
 33 59  1  0  0  0  0
 33 67  1  0  0  0  0
 33 78  2  0  0  0  0
 34 60  1  0  0  0  0
 34 71  1  0  0  0  0
 34 79  2  0  0  0  0
 35 61  1  0  0  0  0
 35 73  1  0  0  0  0
 35 80  2  0  0  0  0
 36 68  1  0  0  0  0
 36 74  1  0  0  0  0
 36 81  2  0  0  0  0
 37 40  1  0  0  0  0
 38 47  1  0  0  0  0
 39 67  1  0  0  0  0
 40 42  1  0  0  0  0
 41 43  1  0  0  0  0
 41 44  1  0  0  0  0
 42 46  1  0  0  0  0
 43 48  1  0  0  0  0
 44 68  1  0  0  0  0
 45 48  1  0  0  0  0
 45 68  1  0  0  0  0
 46 72  1  0  0  0  0
 47 67  1  0  0  0  0
 48 66  1  0  0  0  0
 50 58  1  0  0  0  0
 51 60  1  0  0  0  0
 52 61  1  0  0  0  0
 53 62  1  0  0  0  0
 54 63  1  0  0  0  0
 55 63  1  0  0  0  0
 56 63  1  0  0  0  0
 57 75  1  0  0  0  0
 58 74  1  0  0  0  0
 59 63  1  0  0  0  0
 59 73  1  0  0  0  0
 60 62  1  0  0  0  0
 61 75  1  0  0  0  0
 62 83  1  0  0  0  0
 64 66  1  0  0  0  0
M  CHG  1  75   1
M  ISO  4  36 100  62 101  74 100  83 101
M  END
> <Batch ID>
0187

> <Smiles>
CNC(C)C(=O)NC(C(=O)N1Cc2cc([101O:1][101CH:1](C)C(C)C(=O)Nc3nc(C)c(C(C)[100NH:0][100C:0](=O)N4CCCC(n5nc(-c6ccc(Oc7ccc(F)cc7F)cc6)c(C(N)=O)c5N)C4)s3)ccc2CC1C(=O)NC1CCCc2ccccc21)C(C)(C)C

> <Shape>
0.266

> <Color>
0.135

> <Negative vol penalty>
0.000

$$$$

  -OEChem-04052305123D

 85 93  0     1  0  0  0  0  0999 V2000
  -16.7358  -28.1991   23.5114 C   0  0  0  0  0  0  0  0  0  0  0  0
  -17.5600  -27.6021   22.5630 C   0  0  0  0  0  0  0  0  0  0  0  0
  -26.3475  -13.8115   19.3262 C   0  0  0  0  0  0  0  0  0  0  0  0
  -26.3729  -13.2154   21.6674 C   0  0  0  0  0  0  0  0  0  0  0  0
  -17.0527  -29.4606   24.0135 C   0  0  0  0  0  0  0  0  0  0  0  0
  -18.7012  -28.2667   22.1153 C   0  0  0  0  0  0  0  0  0  0  0  0
  -22.7536  -25.2375   21.8974 C   0  0  0  0  0  0  0  0  0  0  0  0
  -25.8380  -12.5519   19.0110 C   0  0  0  0  0  0  0  0  0  0  0  0
  -25.8634  -11.9558   21.3522 C   0  0  0  0  0  0  0  0  0  0  0  0
  -22.8417  -24.3691   20.8103 C   0  0  0  0  0  0  0  0  0  0  0  0
  -24.2303   -8.7110   21.2007 C   0  0  0  0  0  0  0  0  0  0  0  0
  -23.1906   -8.2157   21.9876 C   0  0  0  0  0  0  0  0  0  0  0  0
  -24.3772  -25.8849   19.7315 C   0  0  0  0  0  0  0  0  0  0  0  0
  -21.8214  -10.1079   21.3693 C   0  0  0  0  0  0  0  0  0  0  0  0
  -26.6150  -14.1433   20.6544 C   0  0  0  0  0  0  0  0  0  0  0  0
  -26.4082  -16.6065   21.2847 C   0  0  0  0  0  0  0  0  0  0  0  0
  -18.2036  -30.1369   23.5789 C   0  0  0  0  0  0  0  0  0  0  0  0
  -23.4694  -26.4433   21.9050 C   0  0  0  0  0  0  0  0  0  0  0  0
  -19.0332  -29.5389   22.6111 C   0  0  0  0  0  0  0  0  0  0  0  0
  -24.2985  -26.7657   20.8211 C   0  0  0  0  0  0  0  0  0  0  0  0
  -25.5959  -11.6240   20.0240 C   0  0  0  0  0  0  0  0  0  0  0  0
  -23.6513  -24.6941   19.7259 C   0  0  0  0  0  0  0  0  0  0  0  0
  -24.0656   -9.9048   20.4982 C   0  0  0  0  0  0  0  0  0  0  0  0
  -21.9861   -8.9141   22.0719 C   0  0  0  0  0  0  0  0  0  0  0  0
  -22.8612  -10.6032   20.5825 C   0  0  0  0  0  0  0  0  0  0  0  0
  -27.1418  -15.4441   20.9806 C   0  0  0  0  0  0  0  0  0  0  0  0
  -29.9020  -23.0583   19.2949 C   0  0  0  0  0  0  0  0  0  0  0  0
  -27.3643  -17.5644   21.5191 C   0  0  0  0  0  0  0  0  0  0  0  0
  -29.7978  -24.4182   19.0903 C   0  0  0  0  0  0  0  0  0  0  0  0
  -27.7937  -23.1412   18.6966 C   0  0  0  0  0  0  0  0  0  0  0  0
  -24.9894  -16.8029   21.3496 C   0  0  0  0  0  0  0  0  0  0  0  0
  -31.1425  -22.3667   19.7305 C   0  0  0  0  0  0  0  0  0  0  0  0
  -22.6792  -29.5203   22.0120 C   0  0  0  0  0  0  0  0  0  0  0  0
  -25.8871  -29.9345   22.2575 C   0  0  0  0  0  0  0  0  0  0  0  0
  -25.8676  -21.5529   18.3672 C   0  0  0  0  0  0  0  0  0  0  0  0
  -29.0192  -28.7082   21.6808 C   0  0  0  0  0  0  0  0  0  0  0  0
  -32.0988  -20.1414   20.2377 C   0  0  0  0  0  0  0  0  0  0  0  0
  -18.4795  -31.5191   24.1156 C   0  0  0  0  0  0  0  0  0  0  0  0
  -23.3844  -27.3567   23.0970 C   0  0  0  0  0  0  0  0  0  0  0  0
  -25.1031  -28.0385   20.7892 C   0  0  0  0  0  0  0  0  0  0  0  0
  -19.9083  -31.9953   23.8663 C   0  0  0  0  0  0  0  0  0  0  0  0
  -32.3791  -17.1461   22.0942 C   0  0  0  0  0  0  0  0  0  0  0  0
  -20.3184  -31.7203   22.4230 C   0  0  0  0  0  0  0  0  0  0  0  0
  -30.9791  -16.5328   22.0035 C   0  0  0  0  0  0  0  0  0  0  0  0
  -32.7872  -17.8241   20.7870 C   0  0  0  0  0  0  0  0  0  0  0  0
  -30.4312  -18.1888   20.1756 C   0  0  0  0  0  0  0  0  0  0  0  0
  -20.2931  -30.2175   22.1191 C   0  0  1  0  0  0  0  0  0  0  0  0
  -23.7569  -28.7999   22.7717 C   0  0  1  0  0  0  0  0  0  0  0  0
  -29.9458  -17.5552   21.4894 C   0  0  1  0  0  0  0  0  0  0  0  0
  -31.4445  -29.2905   21.9572 C   0  0  0  0  0  0  0  0  0  0  0  0
  -25.6954  -31.8474   19.8881 C   0  0  0  0  0  0  0  0  0  0  0  0
  -28.1760  -31.6466   19.6147 C   0  0  0  0  0  0  0  0  0  0  0  0
  -27.2276  -32.6005   21.7155 C   0  0  0  0  0  0  0  0  0  0  0  0
  -29.4985  -26.3758   23.4383 C   0  0  0  0  0  0  0  0  0  0  0  0
  -23.5707  -22.4560   18.9257 C   0  0  0  0  0  0  0  0  0  1  0  0
  -27.0194  -30.1194   21.2763 C   0  0  1  0  0  0  0  0  0  0  0  0
  -24.4032  -21.6289   17.9515 C   0  0  2  0  0  0  0  0  0  0  0  0
  -30.2395  -28.6002   22.5772 C   0  0  2  0  0  0  0  0  0  0  0  0
  -27.0131  -31.5303   20.6231 C   0  0  0  0  0  0  0  0  0  0  0  0
  -28.4620  -15.6431   21.0175 N   0  0  0  0  0  0  0  0  0  0  0  0
  -28.7536  -22.3244   19.0700 N   0  0  0  0  0  0  0  0  0  0  0  0
  -28.5656  -16.9418   21.3474 N   0  0  0  0  0  0  0  0  0  0  0  0
  -24.9816  -28.9018   21.9756 N   0  0  0  0  0  0  0  0  0  0  0  0
  -31.7616  -18.7834   20.3736 N   0  0  0  0  0  0  0  0  0  0  0  0
  -27.2862  -18.8700   21.8531 N   0  0  0  0  0  0  0  0  0  0  0  0
  -30.7567  -25.3654   19.2359 N   0  0  0  0  0  0  0  0  0  0  0  0
  -24.1510  -15.7125   21.0803 N   0  0  0  0  0  0  0  0  0  0  0  0
  -26.4570  -22.8135   18.3672 N   0  0  0  0  0  0  0  0  0  0  0  0
  -31.0398  -20.9834   19.8804 N   0  0  0  0  0  0  0  0  0  0  0  0
  -21.4649  -29.5707   22.6696 N   0  0  0  0  0  0  0  0  0  0  0  0
  -28.2445  -29.8026   22.0024 N   0  0  0  0  0  0  0  0  0  0  0  0
  -23.8169  -20.2606   17.8580 N   0  3  0  0  0  0  0  0  0  0  0  0
  -30.5860  -27.1697   22.8105 N   0  3  0  0  0  0  0  0  0  0  0  0
  -24.4801  -17.9165   21.6218 O   0  0  0  0  0  0  0  0  0  0  0  0
  -32.1680  -23.0227   19.8911 O   0  0  0  0  0  0  0  0  0  0  0  0
  -22.9311  -29.9966   20.9114 O   0  0  0  0  0  0  0  0  0  0  0  0
  -25.8129  -30.6744   23.2418 O   0  0  0  0  0  0  0  0  0  0  0  0
  -26.3989  -20.4841   18.6542 O   0  0  0  0  0  0  0  0  0  0  0  0
  -28.7794  -27.9045   20.7824 O   0  0  0  0  0  0  0  0  0  0  0  0
  -33.2357  -20.5732   20.4530 O   0  0  0  0  0  0  0  0  0  0  0  0
  -25.0986  -10.3948   19.7168 O   0  0  0  0  0  0  0  0  0  0  0  0
  -23.7386  -23.8485   18.6632 O   0  0  0  0  0  0  0  0  0  1  0  0
  -20.9871   -8.4375   22.8263 F   0  0  0  0  0  0  0  0  0  0  0  0
  -22.6966  -11.7500   19.9090 F   0  0  0  0  0  0  0  0  0  0  0  0
  -28.2023  -24.8047   18.5941 S   0  0  0  0  0  0  0  0  0  0  0  0
  1  2  1  0  0  0  0
  1  5  2  0  0  0  0
  2  6  2  0  0  0  0
  3  8  2  0  0  0  0
  3 15  1  0  0  0  0
  4  9  1  0  0  0  0
  4 15  2  0  0  0  0
  5 17  1  0  0  0  0
  6 19  1  0  0  0  0
  7 10  2  0  0  0  0
  7 18  1  0  0  0  0
  8 21  1  0  0  0  0
  9 21  2  0  0  0  0
 10 22  1  0  0  0  0
 11 12  2  0  0  0  0
 11 23  1  0  0  0  0
 12 24  1  0  0  0  0
 13 20  1  0  0  0  0
 13 22  2  0  0  0  0
 14 24  2  0  0  0  0
 14 25  1  0  0  0  0
 15 26  1  0  0  0  0
 16 26  1  0  0  0  0
 16 28  2  0  0  0  0
 16 31  1  0  0  0  0
 17 19  2  0  0  0  0
 17 38  1  0  0  0  0
 18 20  2  0  0  0  0
 18 39  1  0  0  0  0
 19 47  1  0  0  0  0
 20 40  1  0  0  0  0
 21 81  1  0  0  0  0
 22 82  1  0  0  0  0
 23 25  2  0  0  0  0
 23 81  1  0  0  0  0
 24 83  1  0  0  0  0
 25 84  1  0  0  0  0
 26 60  2  0  0  0  0
 27 29  2  0  0  0  0
 27 32  1  0  0  0  0
 27 61  1  0  0  0  0
 28 62  1  0  0  0  0
 28 65  1  0  0  0  0
 29 66  1  0  0  0  0
 29 85  1  0  0  0  0
 30 61  2  0  0  0  0
 30 68  1  0  0  0  0
 30 85  1  0  0  0  0
 31 67  1  0  0  0  0
 31 74  2  0  0  0  0
 32 69  1  0  0  0  0
 32 75  2  0  0  0  0
 33 48  1  0  0  0  0
 33 70  1  0  0  0  0
 33 76  2  0  0  0  0
 34 56  1  0  0  0  0
 34 63  1  0  0  0  0
 34 77  2  0  0  0  0
 35 57  1  0  0  0  0
 35 68  1  0  0  0  0
 35 78  2  0  0  0  0
 36 58  1  0  0  0  0
 36 71  1  0  0  0  0
 36 79  2  0  0  0  0
 37 64  1  0  0  0  0
 37 69  1  0  0  0  0
 37 80  2  0  0  0  0
 38 41  1  0  0  0  0
 39 48  1  0  0  0  0
 40 63  1  0  0  0  0
 41 43  1  0  0  0  0
 42 44  1  0  0  0  0
 42 45  1  0  0  0  0
 43 47  1  0  0  0  0
 44 49  1  0  0  0  0
 45 64  1  0  0  0  0
 46 49  1  0  0  0  0
 46 64  1  0  0  0  0
 47 70  1  0  0  0  0
 48 63  1  0  0  0  0
 49 62  1  0  0  0  0
 50 58  1  0  0  0  0
 51 59  1  0  0  0  0
 52 59  1  0  0  0  0
 53 59  1  0  0  0  0
 54 73  1  0  0  0  0
 55 57  1  0  0  0  0
 55 82  1  0  0  0  0
 56 59  1  0  0  0  0
 56 71  1  0  0  0  0
 57 72  1  0  0  0  0
 58 73  1  0  0  0  0
 60 62  1  0  0  0  0
M  CHG  2  72   1  73   1
M  ISO  4  37 100  55 101  69 100  82 101
M  END
> <Batch ID>
0187

> <Smiles>
CNC(C)C(=O)NC(C(=O)N1Cc2cc([101O:1][101CH2:1]C(N)C(=O)Nc3nc(C(=O)[100NH:0][100C:0](=O)N4CCCC(n5nc(-c6ccc(Oc7ccc(F)cc7F)cc6)c(C(N)=O)c5N)C4)c(N)s3)ccc2CC1C(=O)NC1CCCc2ccccc21)C(C)(C)C

> <Shape>
0.264

> <Color>
0.082

> <Negative vol penalty>
0.000

$$$$

  -OEChem-04052305123D

 84 92  0     1  0  0  0  0  0999 V2000
  -25.2539  -35.5314   21.3878 C   0  0  0  0  0  0  0  0  0  0  0  0
  -25.9376  -34.3211   21.4445 C   0  0  0  0  0  0  0  0  0  0  0  0
  -22.3021  -14.7684   19.8223 C   0  0  0  0  0  0  0  0  0  0  0  0
  -22.8818  -14.6488   22.1646 C   0  0  0  0  0  0  0  0  0  0  0  0
  -23.9662  -35.6285   21.9133 C   0  0  0  0  0  0  0  0  0  0  0  0
  -25.3343  -33.2074   22.0277 C   0  0  0  0  0  0  0  0  0  0  0  0
  -25.9492  -29.0009   19.2759 C   0  0  0  0  0  0  0  0  0  0  0  0
  -21.1712  -13.9882   20.0623 C   0  0  0  0  0  0  0  0  0  0  0  0
  -21.7508  -13.8686   22.4047 C   0  0  0  0  0  0  0  0  0  0  0  0
  -27.1865  -28.3633   19.3554 C   0  0  0  0  0  0  0  0  0  0  0  0
  -19.2115  -11.5451   23.5722 C   0  0  0  0  0  0  0  0  0  0  0  0
  -19.3611  -10.4177   24.3798 C   0  0  0  0  0  0  0  0  0  0  0  0
  -26.2578  -26.7680   20.9084 C   0  0  0  0  0  0  0  0  0  0  0  0
  -20.9695   -9.5138   22.8200 C   0  0  0  0  0  0  0  0  0  0  0  0
  -33.3398  -19.6205   20.2087 C   0  0  0  0  0  0  0  0  0  0  0  0
  -23.1575  -15.0987   20.8734 C   0  0  0  0  0  0  0  0  0  0  0  0
  -24.4172  -17.3082   20.6754 C   0  0  0  0  0  0  0  0  0  0  0  0
  -23.3430  -34.5129   22.4946 C   0  0  0  0  0  0  0  0  0  0  0  0
  -24.8580  -28.5327   20.0218 C   0  0  0  0  0  0  0  0  0  0  0  0
  -24.0375  -33.2900   22.5626 C   0  0  0  0  0  0  0  0  0  0  0  0
  -25.0071  -27.4000   20.8347 C   0  0  0  0  0  0  0  0  0  0  0  0
  -20.8954  -13.5383   21.3535 C   0  0  0  0  0  0  0  0  0  0  0  0
  -27.3417  -27.2484   20.1739 C   0  0  0  0  0  0  0  0  0  0  0  0
  -19.9408  -11.6568   22.3885 C   0  0  0  0  0  0  0  0  0  0  0  0
  -20.2401   -9.4021   24.0037 C   0  0  0  0  0  0  0  0  0  0  0  0
  -20.8198  -10.6412   22.0124 C   0  0  0  0  0  0  0  0  0  0  0  0
  -24.3263  -15.9042   20.6260 C   0  0  0  0  0  0  0  0  0  0  0  0
  -32.2496  -19.6032   21.0532 C   0  0  0  0  0  0  0  0  0  0  0  0
  -25.7277  -17.5786   20.3657 C   0  0  0  0  0  0  0  0  0  0  0  0
  -31.7826  -21.4400   19.9496 C   0  0  0  0  0  0  0  0  0  0  0  0
  -23.4073  -18.2810   20.9745 C   0  0  0  0  0  0  0  0  0  0  0  0
  -23.0252  -29.7448   22.3186 C   0  0  0  0  0  0  0  0  0  0  0  0
  -29.7497  -24.5525   19.8954 C   0  0  0  0  0  0  0  0  0  0  0  0
  -21.3565  -26.9946   21.9012 C   0  0  0  0  0  0  0  0  0  0  0  0
  -21.3401  -23.7462   20.8551 C   0  0  0  0  0  0  0  0  0  0  0  0
  -31.1789  -16.5241   20.9293 C   0  0  0  0  0  0  0  0  0  0  0  0
  -21.9680  -34.6786   23.0918 C   0  0  0  0  0  0  0  0  0  0  0  0
  -23.5230  -29.2156   19.9044 C   0  0  0  0  0  0  0  0  0  0  0  0
  -23.8615  -26.8454   21.6400 C   0  0  0  0  0  0  0  0  0  0  0  0
  -21.2554  -33.3548   23.3564 C   0  0  0  0  0  0  0  0  0  0  0  0
  -29.3729  -14.5701   18.5635 C   0  0  0  0  0  0  0  0  0  0  0  0
  -22.1946  -32.3718   24.0480 C   0  0  0  0  0  0  0  0  0  0  0  0
  -27.9073  -14.8540   18.8973 C   0  0  0  0  0  0  0  0  0  0  0  0
  -30.2383  -14.5184   19.8206 C   0  0  0  0  0  0  0  0  0  0  0  0
  -28.6692  -15.9871   21.0267 C   0  0  0  0  0  0  0  0  0  0  0  0
  -23.4072  -32.0531   23.1651 C   0  0  1  0  0  0  0  0  0  0  0  0
  -22.6146  -28.9620   21.1036 C   0  0  1  0  0  0  0  0  0  0  0  0
  -27.7668  -16.1041   19.7865 C   0  0  2  0  0  0  0  0  0  0  0  0
  -28.5135  -22.4001   18.0458 C   0  0  0  0  0  0  0  0  0  0  0  0
  -19.8401  -21.7425   20.6742 C   0  0  0  0  0  0  0  0  0  0  0  0
  -21.6416  -26.5134   24.9007 C   0  0  0  0  0  0  0  0  0  0  0  0
  -20.9945  -24.1268   24.5088 C   0  0  0  0  0  0  0  0  0  0  0  0
  -19.3902  -25.9578   23.9643 C   0  0  0  0  0  0  0  0  0  0  0  0
  -21.6132  -23.6628   17.9094 C   0  0  0  0  0  0  0  0  0  0  0  0
  -31.9685  -18.5777   22.0775 C   0  0  0  0  0  0  0  0  0  0  0  0
  -28.5385  -25.2223   20.5184 C   0  0  0  0  0  0  0  0  0  1  0  0
  -28.7047  -22.2558   19.5516 C   0  0  0  0  0  0  0  0  0  0  0  0
  -29.8840  -23.0501   20.1181 C   0  0  1  0  0  0  0  0  0  0  0  0
  -21.4165  -25.6073   22.4936 C   0  0  1  0  0  0  0  0  0  0  0  0
  -20.3763  -22.9783   19.9685 C   0  0  2  0  0  0  0  0  0  0  0  0
  -20.8830  -25.5627   23.9533 C   0  0  0  0  0  0  0  0  0  0  0  0
  -25.4866  -15.3232   20.3097 N   0  0  0  0  0  0  0  0  0  0  0  0
  -31.3558  -20.6460   20.9064 N   0  0  0  0  0  0  0  0  0  0  0  0
  -26.3190  -16.3673   20.1574 N   0  0  0  0  0  0  0  0  0  0  0  0
  -22.5778  -27.5518   21.4965 N   0  0  0  0  0  0  0  0  0  0  0  0
  -30.0600  -15.7338   20.6187 N   0  0  0  0  0  0  0  0  0  0  0  0
  -26.4204  -18.7319   20.2539 N   0  0  0  0  0  0  0  0  0  0  0  0
  -22.1133  -17.8313   21.2710 N   0  0  0  0  0  0  0  0  0  0  0  0
  -31.1275  -22.5872   19.5388 N   0  0  0  0  0  0  0  0  0  0  0  0
  -23.0431  -31.1131   22.1267 N   0  0  0  0  0  0  0  0  0  0  0  0
  -20.6991  -24.7370   21.5683 N   0  0  0  0  0  0  0  0  0  0  0  0
  -30.9210  -17.6619   21.6840 N   0  0  0  0  0  0  0  0  0  0  0  0
  -21.0576  -22.5457   18.7157 N   0  3  0  0  0  0  0  0  0  0  0  0
  -23.6412  -19.5133   20.9627 O   0  0  0  0  0  0  0  0  0  0  0  0
  -23.3036  -29.1514   23.3540 O   0  0  0  0  0  0  0  0  0  0  0  0
  -30.5774  -25.1971   19.2504 O   0  0  0  0  0  0  0  0  0  0  0  0
  -20.2654  -27.5600   21.7946 O   0  0  0  0  0  0  0  0  0  0  0  0
  -22.5408  -23.4900   20.9123 O   0  0  0  0  0  0  0  0  0  0  0  0
  -32.3223  -16.2397   20.5567 O   0  0  0  0  0  0  0  0  0  0  0  0
  -19.7918  -12.7771   21.5882 O   0  0  0  0  0  0  0  0  0  0  0  0
  -28.5485  -26.6245   20.2538 O   0  0  0  0  0  0  0  0  0  1  0  0
  -20.3848   -8.3202   24.7802 F   0  0  0  0  0  0  0  0  0  0  0  0
  -21.5241  -10.7434   20.8769 F   0  0  0  0  0  0  0  0  0  0  0  0
  -33.2516  -20.9926   19.1835 S   0  0  0  0  0  0  0  0  0  0  0  0
  1  2  1  0  0  0  0
  1  5  2  0  0  0  0
  2  6  2  0  0  0  0
  3  8  2  0  0  0  0
  3 16  1  0  0  0  0
  4  9  1  0  0  0  0
  4 16  2  0  0  0  0
  5 18  1  0  0  0  0
  6 20  1  0  0  0  0
  7 10  2  0  0  0  0
  7 19  1  0  0  0  0
  8 22  1  0  0  0  0
  9 22  2  0  0  0  0
 10 23  1  0  0  0  0
 11 12  2  0  0  0  0
 11 24  1  0  0  0  0
 12 25  1  0  0  0  0
 13 21  1  0  0  0  0
 13 23  2  0  0  0  0
 14 25  2  0  0  0  0
 14 26  1  0  0  0  0
 15 28  2  0  0  0  0
 15 84  1  0  0  0  0
 16 27  1  0  0  0  0
 17 27  1  0  0  0  0
 17 29  2  0  0  0  0
 17 31  1  0  0  0  0
 18 20  2  0  0  0  0
 18 37  1  0  0  0  0
 19 21  2  0  0  0  0
 19 38  1  0  0  0  0
 20 46  1  0  0  0  0
 21 39  1  0  0  0  0
 22 80  1  0  0  0  0
 23 81  1  0  0  0  0
 24 26  2  0  0  0  0
 24 80  1  0  0  0  0
 25 82  1  0  0  0  0
 26 83  1  0  0  0  0
 27 62  2  0  0  0  0
 28 55  1  0  0  0  0
 28 63  1  0  0  0  0
 29 64  1  0  0  0  0
 29 67  1  0  0  0  0
 30 63  2  0  0  0  0
 30 69  1  0  0  0  0
 30 84  1  0  0  0  0
 31 68  1  0  0  0  0
 31 74  2  0  0  0  0
 32 47  1  0  0  0  0
 32 70  1  0  0  0  0
 32 75  2  0  0  0  0
 33 56  1  0  0  0  0
 33 58  1  0  0  0  0
 33 76  2  0  0  0  0
 34 59  1  0  0  0  0
 34 65  1  0  0  0  0
 34 77  2  0  0  0  0
 35 60  1  0  0  0  0
 35 71  1  0  0  0  0
 35 78  2  0  0  0  0
 36 66  1  0  0  0  0
 36 72  1  0  0  0  0
 36 79  2  0  0  0  0
 37 40  1  0  0  0  0
 38 47  1  0  0  0  0
 39 65  1  0  0  0  0
 40 42  1  0  0  0  0
 41 43  1  0  0  0  0
 41 44  1  0  0  0  0
 42 46  1  0  0  0  0
 43 48  1  0  0  0  0
 44 66  1  0  0  0  0
 45 48  1  0  0  0  0
 45 66  1  0  0  0  0
 46 70  1  0  0  0  0
 47 65  1  0  0  0  0
 48 64  1  0  0  0  0
 49 57  1  0  0  0  0
 50 60  1  0  0  0  0
 51 61  1  0  0  0  0
 52 61  1  0  0  0  0
 53 61  1  0  0  0  0
 54 73  1  0  0  0  0
 55 72  1  0  0  0  0
 56 81  1  0  0  0  0
 57 58  1  0  0  0  0
 58 69  1  0  0  0  0
 59 61  1  0  0  0  0
 59 71  1  0  0  0  0
 60 73  1  0  0  0  0
 62 64  1  0  0  0  0
M  CHG  1  73   1
M  ISO  4  36 100  56 101  72 100  81 101
M  END
> <Batch ID>
0187

> <Smiles>
CCC(Nc1nc(C[100NH:0][100C:0](=O)N2CCCC(n3nc(-c4ccc(Oc5ccc(F)cc5F)cc4)c(C(N)=O)c3N)C2)cs1)C(=O)[101CH2:1][101O:1]c1ccc2c(c1)CN(C(=O)C(NC(=O)C(C)NC)C(C)(C)C)C(C(=O)NC1CCCc3ccccc31)C2

> <Shape>
0.204

> <Color>
0.086

> <Negative vol penalty>
0.000

$$$$

  -OEChem-04052305123D

 86 94  0     1  0  0  0  0  0999 V2000
  -29.1725  -17.8344   17.5264 C   0  0  0  0  0  0  0  0  0  0  0  0
  -28.7036  -18.1083   18.8072 C   0  0  0  0  0  0  0  0  0  0  0  0
  -22.7202  -12.2510   18.7461 C   0  0  0  0  0  0  0  0  0  0  0  0
  -22.7892  -10.3921   20.2878 C   0  0  0  0  0  0  0  0  0  0  0  0
  -29.7055  -18.8598   16.7464 C   0  0  0  0  0  0  0  0  0  0  0  0
  -28.7684  -19.4076   19.3092 C   0  0  0  0  0  0  0  0  0  0  0  0
  -24.4885  -20.8119   21.6233 C   0  0  0  0  0  0  0  0  0  0  0  0
  -21.6358  -11.6674   18.0910 C   0  0  0  0  0  0  0  0  0  0  0  0
  -21.7048   -9.8085   19.6327 C   0  0  0  0  0  0  0  0  0  0  0  0
  -24.2756  -20.3314   22.9147 C   0  0  0  0  0  0  0  0  0  0  0  0
  -18.3483  -10.1921   19.5471 C   0  0  0  0  0  0  0  0  0  0  0  0
  -17.3211   -9.6718   20.3343 C   0  0  0  0  0  0  0  0  0  0  0  0
  -25.0195  -22.4416   23.8161 C   0  0  0  0  0  0  0  0  0  0  0  0
  -30.0379  -18.6796   24.7238 C   0  0  0  0  0  0  0  0  0  0  0  0
  -17.6968   -7.4847   19.3790 C   0  0  0  0  0  0  0  0  0  0  0  0
  -23.2970  -11.6133   19.8445 C   0  0  0  0  0  0  0  0  0  0  0  0
  -24.3739  -13.1125   21.6053 C   0  0  0  0  0  0  0  0  0  0  0  0
  -29.7680  -20.1742   17.2354 C   0  0  0  0  0  0  0  0  0  0  0  0
  -24.9796  -22.1093   21.4186 C   0  0  0  0  0  0  0  0  0  0  0  0
  -29.3039  -20.4513   18.5355 C   0  0  0  0  0  0  0  0  0  0  0  0
  -25.2353  -22.9372   22.5211 C   0  0  0  0  0  0  0  0  0  0  0  0
  -31.0002  -18.2163   23.7808 C   0  0  0  0  0  0  0  0  0  0  0  0
  -21.1281  -10.4462   18.5343 C   0  0  0  0  0  0  0  0  0  0  0  0
  -24.5439  -21.1452   24.0114 C   0  0  0  0  0  0  0  0  0  0  0  0
  -19.0498   -9.3587   18.6758 C   0  0  0  0  0  0  0  0  0  0  0  0
  -16.9953   -8.3181   20.2503 C   0  0  0  0  0  0  0  0  0  0  0  0
  -18.7240   -8.0050   18.5918 C   0  0  0  0  0  0  0  0  0  0  0  0
  -24.4175  -12.2153   20.5213 C   0  0  0  0  0  0  0  0  0  0  0  0
  -30.5152  -17.1804   23.0131 C   0  0  0  0  0  0  0  0  0  0  0  0
  -25.6919  -13.3863   21.8776 C   0  0  0  0  0  0  0  0  0  0  0  0
  -28.8538  -17.9803   24.6408 C   0  0  0  0  0  0  0  0  0  0  0  0
  -23.2430  -13.6502   22.3036 C   0  0  0  0  0  0  0  0  0  0  0  0
  -31.1866  -16.4204   21.9275 C   0  0  0  0  0  0  0  0  0  0  0  0
  -27.5958  -23.3342   20.0924 C   0  0  0  0  0  0  0  0  0  0  0  0
  -26.0749  -26.1498   20.6231 C   0  0  0  0  0  0  0  0  0  0  0  0
  -27.3707  -19.0054   26.3998 C   0  0  0  0  0  0  0  0  0  0  0  0
  -23.7533  -27.8960   22.4142 C   0  0  0  0  0  0  0  0  0  0  0  0
  -30.8484  -14.6172   20.2668 C   0  0  0  0  0  0  0  0  0  0  0  0
  -30.3960  -21.2404   16.3732 C   0  0  0  0  0  0  0  0  0  0  0  0
  -25.1785  -22.6221   20.0187 C   0  0  0  0  0  0  0  0  0  0  0  0
  -25.7445  -24.3448   22.3546 C   0  0  0  0  0  0  0  0  0  0  0  0
  -30.0847  -22.6609   16.8376 C   0  0  0  0  0  0  0  0  0  0  0  0
  -29.9331  -11.2039   20.1736 C   0  0  0  0  0  0  0  0  0  0  0  0
  -30.2840  -22.7856   18.3447 C   0  0  0  0  0  0  0  0  0  0  0  0
  -28.4128  -11.2327   20.3529 C   0  0  0  0  0  0  0  0  0  0  0  0
  -30.4253  -12.3678   19.3145 C   0  0  0  0  0  0  0  0  0  0  0  0
  -28.4644  -13.7229   19.9282 C   0  0  0  0  0  0  0  0  0  0  0  0
  -29.3344  -21.8527   19.1059 C   0  0  1  0  0  0  0  0  0  0  0  0
  -26.1688  -23.7800   19.9415 C   0  0  1  0  0  0  0  0  0  0  0  0
  -27.9271  -12.6112   20.8440 C   0  0  1  0  0  0  0  0  0  0  0  0
  -32.3609  -18.7920   23.6520 C   0  0  0  0  0  0  0  0  0  0  0  0
  -25.9045  -17.7522   28.0351 C   0  0  0  0  0  0  0  0  0  0  0  0
  -22.7604  -30.1891   22.6449 C   0  0  0  0  0  0  0  0  0  0  0  0
  -28.5857  -27.0877   22.0812 C   0  0  0  0  0  0  0  0  0  0  0  0
  -27.2291  -28.9392   23.0810 C   0  0  0  0  0  0  0  0  0  0  0  0
  -27.5298  -28.8108   20.6080 C   0  0  0  0  0  0  0  0  0  0  0  0
  -21.0457  -26.9193   21.7260 C   0  0  0  0  0  0  0  0  0  0  0  0
  -25.3411  -20.1540   27.4042 C   0  0  0  0  0  0  0  0  0  0  0  0
  -25.1769  -21.1985   26.3032 C   0  0  0  0  0  0  0  0  0  1  0  0
  -26.0242  -27.1394   21.7619 C   0  0  1  0  0  0  0  0  0  0  0  0
  -25.9472  -18.8184   26.9406 C   0  0  1  0  0  0  0  0  0  0  0  0
  -22.6371  -28.8279   21.9781 C   0  0  2  0  0  0  0  0  0  0  0  0
  -27.3344  -27.9671   21.8866 C   0  0  0  0  0  0  0  0  0  0  0  0
  -25.6645  -11.9378   20.1315 N   0  0  0  0  0  0  0  0  0  0  0  0
  -26.4167  -12.6648   20.9752 N   0  0  0  0  0  0  0  0  0  0  0  0
  -25.9289  -24.7982   20.9661 N   0  0  0  0  0  0  0  0  0  0  0  0
  -29.9305  -13.6367   19.8514 N   0  0  0  0  0  0  0  0  0  0  0  0
  -26.2901  -14.1714   22.7986 N   0  0  0  0  0  0  0  0  0  0  0  0
  -21.9594  -13.2640   21.8942 N   0  0  0  0  0  0  0  0  0  0  0  0
  -27.6508  -18.1057   25.3756 N   0  0  0  0  0  0  0  0  0  0  0  0
  -30.4216  -15.4163   21.3333 N   0  0  0  0  0  0  0  0  0  0  0  0
  -28.0004  -22.4124   19.1458 N   0  0  0  0  0  0  0  0  0  0  0  0
  -24.8265  -27.9450   21.5497 N   0  0  0  0  0  0  0  0  0  0  0  0
  -21.3106  -28.2489   22.3334 N   0  3  0  0  0  0  0  0  0  0  0  0
  -23.3666  -14.4623   23.2516 O   0  0  0  0  0  0  0  0  0  0  0  0
  -32.3267  -16.7329   21.5954 O   0  0  0  0  0  0  0  0  0  0  0  0
  -28.2796  -23.7937   20.9996 O   0  0  0  0  0  0  0  0  0  0  0  0
  -26.2308  -26.5614   19.4707 O   0  0  0  0  0  0  0  0  0  0  0  0
  -28.1224  -19.8629   26.8551 O   0  0  0  0  0  0  0  0  0  0  0  0
  -23.6821  -27.1976   23.4229 O   0  0  0  0  0  0  0  0  0  0  0  0
  -31.9663  -14.7455   19.7579 O   0  0  0  0  0  0  0  0  0  0  0  0
  -20.0699   -9.8766   17.8954 O   0  0  0  0  0  0  0  0  0  0  0  0
  -24.3377  -20.6784   25.2729 O   0  0  0  0  0  0  0  0  0  1  0  0
  -16.0099   -7.8183   21.0074 F   0  0  0  0  0  0  0  0  0  0  0  0
  -19.3951   -7.1992   17.7574 F   0  0  0  0  0  0  0  0  0  0  0  0
  -28.9057  -16.7706   23.4300 S   0  0  0  0  0  0  0  0  0  0  0  0
  1  2  1  0  0  0  0
  1  5  2  0  0  0  0
  2  6  2  0  0  0  0
  3  8  2  0  0  0  0
  3 16  1  0  0  0  0
  4  9  1  0  0  0  0
  4 16  2  0  0  0  0
  5 18  1  0  0  0  0
  6 20  1  0  0  0  0
  7 10  2  0  0  0  0
  7 19  1  0  0  0  0
  8 23  1  0  0  0  0
  9 23  2  0  0  0  0
 10 24  1  0  0  0  0
 11 12  2  0  0  0  0
 11 25  1  0  0  0  0
 12 26  1  0  0  0  0
 13 21  1  0  0  0  0
 13 24  2  0  0  0  0
 14 22  1  0  0  0  0
 14 31  2  0  0  0  0
 15 26  2  0  0  0  0
 15 27  1  0  0  0  0
 16 28  1  0  0  0  0
 17 28  1  0  0  0  0
 17 30  2  0  0  0  0
 17 32  1  0  0  0  0
 18 20  2  0  0  0  0
 18 39  1  0  0  0  0
 19 21  2  0  0  0  0
 19 40  1  0  0  0  0
 20 48  1  0  0  0  0
 21 41  1  0  0  0  0
 22 29  2  0  0  0  0
 22 51  1  0  0  0  0
 23 82  1  0  0  0  0
 24 83  1  0  0  0  0
 25 27  2  0  0  0  0
 25 82  1  0  0  0  0
 26 84  1  0  0  0  0
 27 85  1  0  0  0  0
 28 64  2  0  0  0  0
 29 33  1  0  0  0  0
 29 86  1  0  0  0  0
 30 65  1  0  0  0  0
 30 68  1  0  0  0  0
 31 70  1  0  0  0  0
 31 86  1  0  0  0  0
 32 69  1  0  0  0  0
 32 75  2  0  0  0  0
 33 71  1  0  0  0  0
 33 76  2  0  0  0  0
 34 49  1  0  0  0  0
 34 72  1  0  0  0  0
 34 77  2  0  0  0  0
 35 60  1  0  0  0  0
 35 66  1  0  0  0  0
 35 78  2  0  0  0  0
 36 61  1  0  0  0  0
 36 70  1  0  0  0  0
 36 79  2  0  0  0  0
 37 62  1  0  0  0  0
 37 73  1  0  0  0  0
 37 80  2  0  0  0  0
 38 67  1  0  0  0  0
 38 71  1  0  0  0  0
 38 81  2  0  0  0  0
 39 42  1  0  0  0  0
 40 49  1  0  0  0  0
 41 66  1  0  0  0  0
 42 44  1  0  0  0  0
 43 45  1  0  0  0  0
 43 46  1  0  0  0  0
 44 48  1  0  0  0  0
 45 50  1  0  0  0  0
 46 67  1  0  0  0  0
 47 50  1  0  0  0  0
 47 67  1  0  0  0  0
 48 72  1  0  0  0  0
 49 66  1  0  0  0  0
 50 65  1  0  0  0  0
 52 61  1  0  0  0  0
 53 62  1  0  0  0  0
 54 63  1  0  0  0  0
 55 63  1  0  0  0  0
 56 63  1  0  0  0  0
 57 74  1  0  0  0  0
 58 59  1  0  0  0  0
 58 61  1  0  0  0  0
 59 83  1  0  0  0  0
 60 63  1  0  0  0  0
 60 73  1  0  0  0  0
 62 74  1  0  0  0  0
 64 65  1  0  0  0  0
M  CHG  1  74   1
M  ISO  4  38 100  59 101  71 100  83 101
M  END
> <Batch ID>
0187

> <Smiles>
CNC(C)C(=O)NC(C(=O)N1Cc2cc([101O:1][101CH2:1]CC(C)C(=O)Nc3cc(C)c(C(=O)[100NH:0][100C:0](=O)N4CCCC(n5nc(-c6ccc(Oc7ccc(F)cc7F)cc6)c(C(N)=O)c5N)C4)s3)ccc2CC1C(=O)NC1CCCc2ccccc21)C(C)(C)C

> <Shape>
0.206

> <Color>
0.081

> <Negative vol penalty>
0.000

$$$$

  -OEChem-04052305123D

 86 94  0     1  0  0  0  0  0999 V2000
  -30.5924  -22.3110   25.2699 C   0  0  0  0  0  0  0  0  0  0  0  0
  -30.5310  -22.2083   23.8839 C   0  0  0  0  0  0  0  0  0  0  0  0
  -23.0576   -9.8422   20.0217 C   0  0  0  0  0  0  0  0  0  0  0  0
  -23.7131  -10.0227   22.3400 C   0  0  0  0  0  0  0  0  0  0  0  0
  -30.0123  -23.4036   25.9132 C   0  0  0  0  0  0  0  0  0  0  0  0
  -29.8885  -23.1977   23.1404 C   0  0  0  0  0  0  0  0  0  0  0  0
  -32.5400  -24.5881   19.0560 C   0  0  0  0  0  0  0  0  0  0  0  0
  -22.3069   -8.7057   20.3224 C   0  0  0  0  0  0  0  0  0  0  0  0
  -22.9623   -8.8862   22.6408 C   0  0  0  0  0  0  0  0  0  0  0  0
  -32.4977  -23.7398   17.9504 C   0  0  0  0  0  0  0  0  0  0  0  0
  -23.2887   -5.5342   22.3435 C   0  0  0  0  0  0  0  0  0  0  0  0
  -23.8744   -4.5685   23.1619 C   0  0  0  0  0  0  0  0  0  0  0  0
  -30.8579  -25.1768   16.9182 C   0  0  0  0  0  0  0  0  0  0  0  0
  -22.0970   -4.8560   24.7731 C   0  0  0  0  0  0  0  0  0  0  0  0
  -23.7608  -10.5006   21.0305 C   0  0  0  0  0  0  0  0  0  0  0  0
  -24.0997  -13.0123   20.7400 C   0  0  0  0  0  0  0  0  0  0  0  0
  -29.3708  -24.4117   25.1765 C   0  0  0  0  0  0  0  0  0  0  0  0
  -31.7321  -25.7332   19.1059 C   0  0  0  0  0  0  0  0  0  0  0  0
  -29.2982  -24.3041   23.7745 C   0  0  0  0  0  0  0  0  0  0  0  0
  -30.8937  -26.0393   18.0245 C   0  0  0  0  0  0  0  0  0  0  0  0
  -22.2592   -8.2277   21.6319 C   0  0  0  0  0  0  0  0  0  0  0  0
  -31.6545  -24.0326   16.8825 C   0  0  0  0  0  0  0  0  0  0  0  0
  -22.1072   -6.1609   22.7398 C   0  0  0  0  0  0  0  0  0  0  0  0
  -23.2785   -4.2293   24.3767 C   0  0  0  0  0  0  0  0  0  0  0  0
  -21.5114   -5.8218   23.9546 C   0  0  0  0  0  0  0  0  0  0  0  0
  -24.5370  -11.6743   20.7204 C   0  0  0  0  0  0  0  0  0  0  0  0
  -29.4278  -18.8347   20.4144 C   0  0  0  0  0  0  0  0  0  0  0  0
  -30.5207  -18.0646   20.7529 C   0  0  0  0  0  0  0  0  0  0  0  0
  -25.2047  -13.7401   20.3718 C   0  0  0  0  0  0  0  0  0  0  0  0
  -30.8427  -19.5961   18.9217 C   0  0  0  0  0  0  0  0  0  0  0  0
  -22.8099  -13.5493   21.0624 C   0  0  0  0  0  0  0  0  0  0  0  0
  -29.3916  -26.7462   21.0032 C   0  0  0  0  0  0  0  0  0  0  0  0
  -29.6519  -29.4500   19.2301 C   0  0  0  0  0  0  0  0  0  0  0  0
  -30.5998  -30.9095   16.2944 C   0  0  0  0  0  0  0  0  0  0  0  0
  -30.8768  -21.2834   17.0533 C   0  0  0  0  0  0  0  0  0  0  0  0
  -30.6711  -14.8058   20.7301 C   0  0  0  0  0  0  0  0  0  0  0  0
  -28.7173  -25.5498   25.9196 C   0  0  0  0  0  0  0  0  0  0  0  0
  -31.8091  -26.6523   20.2941 C   0  0  0  0  0  0  0  0  0  0  0  0
  -30.0214  -27.2672   18.0202 C   0  0  0  0  0  0  0  0  0  0  0  0
  -28.3818  -26.7447   25.0308 C   0  0  0  0  0  0  0  0  0  0  0  0
  -29.6501  -12.2450   18.4770 C   0  0  0  0  0  0  0  0  0  0  0  0
  -27.7046  -26.2803   23.7453 C   0  0  0  0  0  0  0  0  0  0  0  0
  -28.1955  -11.9745   18.8656 C   0  0  0  0  0  0  0  0  0  0  0  0
  -30.5113  -12.5594   19.6982 C   0  0  0  0  0  0  0  0  0  0  0  0
  -28.5466  -13.3781   20.9405 C   0  0  0  0  0  0  0  0  0  0  0  0
  -28.6317  -25.3695   22.9314 C   0  0  1  0  0  0  0  0  0  0  0  0
  -30.5632  -27.5163   20.4629 C   0  0  1  0  0  0  0  0  0  0  0  0
  -27.6271  -13.1111   19.7365 C   0  0  2  0  0  0  0  0  0  0  0  0
  -30.6536  -33.1293   15.1253 C   0  0  0  0  0  0  0  0  0  0  0  0
  -31.7917  -21.0687   14.7131 C   0  0  0  0  0  0  0  0  0  0  0  0
  -26.6554  -29.2382   18.6951 C   0  0  0  0  0  0  0  0  0  0  0  0
  -26.9471  -30.8633   16.8131 C   0  0  0  0  0  0  0  0  0  0  0  0
  -27.4723  -31.5575   19.1508 C   0  0  0  0  0  0  0  0  0  0  0  0
  -33.5512  -30.8560   16.0805 C   0  0  0  0  0  0  0  0  0  0  0  0
  -30.6742  -17.0419   21.8067 C   0  0  0  0  0  0  0  0  0  0  0  0
  -29.0221  -29.9573   17.9553 C   0  0  1  0  0  0  0  0  0  0  0  0
  -31.4189  -32.1548   16.0070 C   0  0  2  0  0  0  0  0  0  0  0  0
  -31.8751  -21.8226   16.0321 C   0  0  1  0  0  0  0  0  0  1  0  0
  -28.1034  -18.7997   21.0677 C   0  0  0  0  0  0  0  0  0  0  0  0
  -27.5391  -30.3798   18.1542 C   0  0  0  0  0  0  0  0  0  0  0  0
  -25.8197  -11.5562   20.3674 N   0  0  0  0  0  0  0  0  0  0  0  0
  -29.6107  -19.7138   19.3649 N   0  0  0  0  0  0  0  0  0  0  0  0
  -26.1980  -12.8293   20.1618 N   0  0  0  0  0  0  0  0  0  0  0  0
  -30.1275  -28.1313   19.2074 N   0  0  0  0  0  0  0  0  0  0  0  0
  -29.9180  -13.6467   20.4804 N   0  0  0  0  0  0  0  0  0  0  0  0
  -25.4140  -15.0639   20.2103 N   0  0  0  0  0  0  0  0  0  0  0  0
  -21.7867  -12.6608   21.4201 N   0  0  0  0  0  0  0  0  0  0  0  0
  -31.4513  -20.3061   17.8594 N   0  0  0  0  0  0  0  0  0  0  0  0
  -29.6244  -26.1554   22.2304 N   0  0  0  0  0  0  0  0  0  0  0  0
  -29.8880  -31.0263   17.4695 N   0  0  0  0  0  0  0  0  0  0  0  0
  -30.0316  -15.7901   21.4736 N   0  0  0  0  0  0  0  0  0  0  0  0
  -32.6880  -31.7919   15.3151 N   0  3  0  0  0  0  0  0  0  0  0  0
  -22.5674  -14.7792   21.0182 O   0  0  0  0  0  0  0  0  0  0  0  0
  -28.3527  -26.6933   20.3553 O   0  0  0  0  0  0  0  0  0  0  0  0
  -29.7256  -30.1987   20.2076 O   0  0  0  0  0  0  0  0  0  0  0  0
  -30.5894  -29.9324   15.5489 O   0  0  0  0  0  0  0  0  0  0  0  0
  -29.7294  -21.7160   17.1114 O   0  0  0  0  0  0  0  0  0  0  0  0
  -31.8258  -14.9548   20.3161 O   0  0  0  0  0  0  0  0  0  0  0  0
  -21.5265   -7.1190   21.9258 O   0  0  0  0  0  0  0  0  0  0  0  0
  -31.6108  -23.2060   15.8024 O   0  0  0  0  0  0  0  0  0  1  0  0
  -23.8403   -3.3008   25.1619 F   0  0  0  0  0  0  0  0  0  0  0  0
  -20.3757   -6.4196   24.3401 F   0  0  0  0  0  0  0  0  0  0  0  0
  -28.0094  -17.9002   22.0992 F   0  0  0  0  0  0  0  0  0  0  0  0
  -27.7180  -19.9951   21.6190 F   0  0  0  0  0  0  0  0  0  0  0  0
  -27.0883  -18.4621   20.2112 F   0  0  0  0  0  0  0  0  0  0  0  0
  -31.8358  -18.4469   19.7205 S   0  0  0  0  0  0  0  0  0  0  0  0
  1  2  1  0  0  0  0
  1  5  2  0  0  0  0
  2  6  2  0  0  0  0
  3  8  2  0  0  0  0
  3 15  1  0  0  0  0
  4  9  1  0  0  0  0
  4 15  2  0  0  0  0
  5 17  1  0  0  0  0
  6 19  1  0  0  0  0
  7 10  2  0  0  0  0
  7 18  1  0  0  0  0
  8 21  1  0  0  0  0
  9 21  2  0  0  0  0
 10 22  1  0  0  0  0
 11 12  2  0  0  0  0
 11 23  1  0  0  0  0
 12 24  1  0  0  0  0
 13 20  1  0  0  0  0
 13 22  2  0  0  0  0
 14 24  2  0  0  0  0
 14 25  1  0  0  0  0
 15 26  1  0  0  0  0
 16 26  1  0  0  0  0
 16 29  2  0  0  0  0
 16 31  1  0  0  0  0
 17 19  2  0  0  0  0
 17 37  1  0  0  0  0
 18 20  2  0  0  0  0
 18 38  1  0  0  0  0
 19 46  1  0  0  0  0
 20 39  1  0  0  0  0
 21 79  1  0  0  0  0
 22 80  1  0  0  0  0
 23 25  2  0  0  0  0
 23 79  1  0  0  0  0
 24 81  1  0  0  0  0
 25 82  1  0  0  0  0
 26 61  2  0  0  0  0
 27 28  2  0  0  0  0
 27 59  1  0  0  0  0
 27 62  1  0  0  0  0
 28 55  1  0  0  0  0
 28 86  1  0  0  0  0
 29 63  1  0  0  0  0
 29 66  1  0  0  0  0
 30 62  2  0  0  0  0
 30 68  1  0  0  0  0
 30 86  1  0  0  0  0
 31 67  1  0  0  0  0
 31 73  2  0  0  0  0
 32 47  1  0  0  0  0
 32 69  1  0  0  0  0
 32 74  2  0  0  0  0
 33 56  1  0  0  0  0
 33 64  1  0  0  0  0
 33 75  2  0  0  0  0
 34 57  1  0  0  0  0
 34 70  1  0  0  0  0
 34 76  2  0  0  0  0
 35 58  1  0  0  0  0
 35 68  1  0  0  0  0
 35 77  2  0  0  0  0
 36 65  1  0  0  0  0
 36 71  1  0  0  0  0
 36 78  2  0  0  0  0
 37 40  1  0  0  0  0
 38 47  1  0  0  0  0
 39 64  1  0  0  0  0
 40 42  1  0  0  0  0
 41 43  1  0  0  0  0
 41 44  1  0  0  0  0
 42 46  1  0  0  0  0
 43 48  1  0  0  0  0
 44 65  1  0  0  0  0
 45 48  1  0  0  0  0
 45 65  1  0  0  0  0
 46 69  1  0  0  0  0
 47 64  1  0  0  0  0
 48 63  1  0  0  0  0
 49 57  1  0  0  0  0
 50 58  1  0  0  0  0
 51 60  1  0  0  0  0
 52 60  1  0  0  0  0
 53 60  1  0  0  0  0
 54 72  1  0  0  0  0
 55 71  1  0  0  0  0
 56 60  1  0  0  0  0
 56 70  1  0  0  0  0
 57 72  1  0  0  0  0
 58 80  1  0  0  0  0
 59 83  1  0  0  0  0
 59 84  1  0  0  0  0
 59 85  1  0  0  0  0
 61 63  1  0  0  0  0
M  CHG  1  72   1
M  ISO  4  36 100  58 101  71 100  80 101
M  END
> <Batch ID>
0187

> <Smiles>
CNC(C)C(=O)NC(C(=O)N1Cc2cc([101O:1][101CH:1](C)C(=O)Nc3nc(C(F)(F)F)c(C[100NH:0][100C:0](=O)N4CCCC(n5nc(-c6ccc(Oc7ccc(F)cc7F)cc6)c(C(N)=O)c5N)C4)s3)ccc2CC1C(=O)NC1CCCc2ccccc21)C(C)(C)C

> <Shape>
0.262

> <Color>
0.223

> <Negative vol penalty>
0.000

$$$$

  -OEChem-04052305123D

 83 91  0     1  0  0  0  0  0999 V2000
  -37.3206  -28.2503   15.4654 C   0  0  0  0  0  0  0  0  0  0  0  0
  -36.5061  -27.1253   15.3859 C   0  0  0  0  0  0  0  0  0  0  0  0
  -23.0955   -9.9257   19.9314 C   0  0  0  0  0  0  0  0  0  0  0  0
  -23.8877   -9.8933   22.2136 C   0  0  0  0  0  0  0  0  0  0  0  0
  -38.4406  -28.2414   16.2957 C   0  0  0  0  0  0  0  0  0  0  0  0
  -36.8117  -25.9902   16.1361 C   0  0  0  0  0  0  0  0  0  0  0  0
  -32.7439  -24.0140   18.4148 C   0  0  0  0  0  0  0  0  0  0  0  0
  -22.3525   -8.7702   20.1729 C   0  0  0  0  0  0  0  0  0  0  0  0
  -23.1446   -8.7378   22.4552 C   0  0  0  0  0  0  0  0  0  0  0  0
  -31.8805  -23.2528   17.6282 C   0  0  0  0  0  0  0  0  0  0  0  0
  -19.9234   -7.9372   23.0902 C   0  0  0  0  0  0  0  0  0  0  0  0
  -19.1830   -7.8797   24.2709 C   0  0  0  0  0  0  0  0  0  0  0  0
  -32.8843  -21.2354   18.4893 C   0  0  0  0  0  0  0  0  0  0  0  0
  -20.4300   -5.9277   24.9578 C   0  0  0  0  0  0  0  0  0  0  0  0
  -27.9289  -18.5177   20.4004 C   0  0  0  0  0  0  0  0  0  0  0  0
  -23.8632  -10.4872   20.9517 C   0  0  0  0  0  0  0  0  0  0  0  0
  -24.2093  -13.0132   20.8683 C   0  0  0  0  0  0  0  0  0  0  0  0
  -38.7547  -27.1091   17.0638 C   0  0  0  0  0  0  0  0  0  0  0  0
  -33.6930  -23.3907   19.2377 C   0  0  0  0  0  0  0  0  0  0  0  0
  -37.9377  -25.9657   16.9765 C   0  0  0  0  0  0  0  0  0  0  0  0
  -33.7569  -21.9909   19.2873 C   0  0  0  0  0  0  0  0  0  0  0  0
  -22.3770   -8.1763   21.4348 C   0  0  0  0  0  0  0  0  0  0  0  0
  -31.9525  -21.8633   17.6631 C   0  0  0  0  0  0  0  0  0  0  0  0
  -20.9171   -6.9899   22.8432 C   0  0  0  0  0  0  0  0  0  0  0  0
  -19.4363   -6.8750   25.2047 C   0  0  0  0  0  0  0  0  0  0  0  0
  -21.1704   -5.9852   23.7771 C   0  0  0  0  0  0  0  0  0  0  0  0
  -24.6314  -11.6805   20.7027 C   0  0  0  0  0  0  0  0  0  0  0  0
  -28.9505  -18.2862   19.5033 C   0  0  0  0  0  0  0  0  0  0  0  0
  -25.2980  -13.7662   20.5019 C   0  0  0  0  0  0  0  0  0  0  0  0
  -29.4801  -16.7760   21.0028 C   0  0  0  0  0  0  0  0  0  0  0  0
  -22.9461  -13.5249   21.3136 C   0  0  0  0  0  0  0  0  0  0  0  0
  -36.8678  -23.3835   19.3931 C   0  0  0  0  0  0  0  0  0  0  0  0
  -30.8084  -14.7021   20.7248 C   0  0  0  0  0  0  0  0  0  0  0  0
  -36.3434  -21.6496   22.0840 C   0  0  0  0  0  0  0  0  0  0  0  0
  -28.3054  -20.0312   17.8042 C   0  0  0  0  0  0  0  0  0  0  0  0
  -34.2648  -19.5980   23.8495 C   0  0  0  0  0  0  0  0  0  0  0  0
  -40.0023  -27.1299   17.9109 C   0  0  0  0  0  0  0  0  0  0  0  0
  -34.5992  -24.2257   20.1003 C   0  0  0  0  0  0  0  0  0  0  0  0
  -34.7443  -21.2729   20.1693 C   0  0  0  0  0  0  0  0  0  0  0  0
  -40.0460  -26.0201   18.9582 C   0  0  0  0  0  0  0  0  0  0  0  0
  -29.6030  -12.4492   18.2125 C   0  0  0  0  0  0  0  0  0  0  0  0
  -39.6562  -24.6831   18.3357 C   0  0  0  0  0  0  0  0  0  0  0  0
  -28.1782  -12.1344   18.6664 C   0  0  0  0  0  0  0  0  0  0  0  0
  -30.5408  -12.6302   19.4019 C   0  0  0  0  0  0  0  0  0  0  0  0
  -28.6592  -13.3459   20.8403 C   0  0  0  0  0  0  0  0  0  0  0  0
  -38.2224  -24.7242   17.7935 C   0  0  1  0  0  0  0  0  0  0  0  0
  -35.8724  -23.4936   20.5132 C   0  0  1  0  0  0  0  0  0  0  0  0
  -27.6727  -13.1859   19.6700 C   0  0  2  0  0  0  0  0  0  0  0  0
  -31.2945  -16.1707   22.6562 C   0  0  0  0  0  0  0  0  0  0  0  0
  -27.6260  -21.0105   15.6070 C   0  0  0  0  0  0  0  0  0  0  0  0
  -34.1266  -18.3115   25.9996 C   0  0  0  0  0  0  0  0  0  0  0  0
  -38.2166  -19.5328   20.9349 C   0  0  0  0  0  0  0  0  0  0  0  0
  -37.3092  -17.9164   22.6179 C   0  0  0  0  0  0  0  0  0  0  0  0
  -38.5080  -19.9668   23.3806 C   0  0  0  0  0  0  0  0  0  0  0  0
  -31.9035  -21.1364   24.7532 C   0  0  0  0  0  0  0  0  0  0  0  0
  -29.8274  -21.6727   16.6126 C   0  0  0  0  0  0  0  0  0  1  0  0
  -30.1962  -15.6818   21.6939 C   0  0  1  0  0  0  0  0  0  0  0  0
  -36.1891  -20.1807   22.3962 C   0  0  1  0  0  0  0  0  0  0  0  0
  -28.8123  -20.5391   16.4472 C   0  0  1  0  0  0  0  0  0  0  0  0
  -33.8157  -19.6251   25.2994 C   0  0  2  0  0  0  0  0  0  0  0  0
  -37.5383  -19.4125   22.3142 C   0  0  0  0  0  0  0  0  0  0  0  0
  -25.8900  -11.5888   20.2650 N   0  0  0  0  0  0  0  0  0  0  0  0
  -29.8412  -17.2881   19.8472 N   0  0  0  0  0  0  0  0  0  0  0  0
  -26.2681  -12.8735   20.1524 N   0  0  0  0  0  0  0  0  0  0  0  0
  -35.6131  -22.1333   20.9893 N   0  0  0  0  0  0  0  0  0  0  0  0
  -30.0145  -13.6205   20.3429 N   0  0  0  0  0  0  0  0  0  0  0  0
  -25.5106  -15.0982   20.4478 N   0  0  0  0  0  0  0  0  0  0  0  0
  -21.9369  -12.6125   21.6502 N   0  0  0  0  0  0  0  0  0  0  0  0
  -29.1084  -19.0046   18.2940 N   0  0  0  0  0  0  0  0  0  0  0  0
  -37.2692  -24.6002   18.8754 N   0  0  0  0  0  0  0  0  0  0  0  0
  -35.5376  -20.1067   23.6995 N   0  0  0  0  0  0  0  0  0  0  0  0
  -32.3473  -19.8659   25.3824 N   0  3  0  0  0  0  0  0  0  0  0  0
  -22.7137  -14.7549   21.3944 O   0  0  0  0  0  0  0  0  0  0  0  0
  -37.2450  -22.2766   19.0266 O   0  0  0  0  0  0  0  0  0  0  0  0
  -31.9571  -14.8955   20.3181 O   0  0  0  0  0  0  0  0  0  0  0  0
  -37.0791  -22.3439   22.7900 O   0  0  0  0  0  0  0  0  0  0  0  0
  -27.3056  -20.5040   18.3370 O   0  0  0  0  0  0  0  0  0  0  0  0
  -33.5586  -19.1652   22.9414 O   0  0  0  0  0  0  0  0  0  0  0  0
  -21.6519   -7.0489   21.6709 O   0  0  0  0  0  0  0  0  0  0  0  0
  -31.1113  -21.1179   16.8959 O   0  0  0  0  0  0  0  0  0  1  0  0
  -18.7263   -6.8208   26.3392 F   0  0  0  0  0  0  0  0  0  0  0  0
  -22.1246   -5.0731   23.5459 F   0  0  0  0  0  0  0  0  0  0  0  0
  -28.0786  -17.4467   21.7315 S   0  0  0  0  0  0  0  0  0  0  0  0
  1  2  1  0  0  0  0
  1  5  2  0  0  0  0
  2  6  2  0  0  0  0
  3  8  2  0  0  0  0
  3 16  1  0  0  0  0
  4  9  1  0  0  0  0
  4 16  2  0  0  0  0
  5 18  1  0  0  0  0
  6 20  1  0  0  0  0
  7 10  2  0  0  0  0
  7 19  1  0  0  0  0
  8 22  1  0  0  0  0
  9 22  2  0  0  0  0
 10 23  1  0  0  0  0
 11 12  2  0  0  0  0
 11 24  1  0  0  0  0
 12 25  1  0  0  0  0
 13 21  1  0  0  0  0
 13 23  2  0  0  0  0
 14 25  2  0  0  0  0
 14 26  1  0  0  0  0
 15 28  2  0  0  0  0
 15 83  1  0  0  0  0
 16 27  1  0  0  0  0
 17 27  1  0  0  0  0
 17 29  2  0  0  0  0
 17 31  1  0  0  0  0
 18 20  2  0  0  0  0
 18 37  1  0  0  0  0
 19 21  2  0  0  0  0
 19 38  1  0  0  0  0
 20 46  1  0  0  0  0
 21 39  1  0  0  0  0
 22 79  1  0  0  0  0
 23 80  1  0  0  0  0
 24 26  2  0  0  0  0
 24 79  1  0  0  0  0
 25 81  1  0  0  0  0
 26 82  1  0  0  0  0
 27 62  2  0  0  0  0
 28 63  1  0  0  0  0
 28 69  1  0  0  0  0
 29 64  1  0  0  0  0
 29 67  1  0  0  0  0
 30 57  1  0  0  0  0
 30 63  2  0  0  0  0
 30 83  1  0  0  0  0
 31 68  1  0  0  0  0
 31 73  2  0  0  0  0
 32 47  1  0  0  0  0
 32 70  1  0  0  0  0
 32 74  2  0  0  0  0
 33 57  1  0  0  0  0
 33 66  1  0  0  0  0
 33 75  2  0  0  0  0
 34 58  1  0  0  0  0
 34 65  1  0  0  0  0
 34 76  2  0  0  0  0
 35 59  1  0  0  0  0
 35 69  1  0  0  0  0
 35 77  2  0  0  0  0
 36 60  1  0  0  0  0
 36 71  1  0  0  0  0
 36 78  2  0  0  0  0
 37 40  1  0  0  0  0
 38 47  1  0  0  0  0
 39 65  1  0  0  0  0
 40 42  1  0  0  0  0
 41 43  1  0  0  0  0
 41 44  1  0  0  0  0
 42 46  1  0  0  0  0
 43 48  1  0  0  0  0
 44 66  1  0  0  0  0
 45 48  1  0  0  0  0
 45 66  1  0  0  0  0
 46 70  1  0  0  0  0
 47 65  1  0  0  0  0
 48 64  1  0  0  0  0
 49 57  1  0  0  0  0
 50 59  1  0  0  0  0
 51 60  1  0  0  0  0
 52 61  1  0  0  0  0
 53 61  1  0  0  0  0
 54 61  1  0  0  0  0
 55 72  1  0  0  0  0
 56 59  1  0  0  0  0
 56 80  1  0  0  0  0
 58 61  1  0  0  0  0
 58 71  1  0  0  0  0
 60 72  1  0  0  0  0
 62 64  1  0  0  0  0
M  CHG  1  72   1
M  ISO  4  33 100  56 101  57 100  80 101
M  END
> <Batch ID>
0187

> <Smiles>
CNC(C)C(=O)NC(C(=O)N1Cc2cc([101O:1][101CH2:1]C(C)C(=O)Nc3csc([100CH:0](C)[100C:0](=O)N4CCCC(n5nc(-c6ccc(Oc7ccc(F)cc7F)cc6)c(C(N)=O)c5N)C4)n3)ccc2CC1C(=O)NC1CCCc2ccccc21)C(C)(C)C

> <Shape>
0.204

> <Color>
0.198

> <Negative vol penalty>
0.000

$$$$

  -OEChem-04052305123D

 85 93  0     1  0  0  0  0  0999 V2000
  -29.5639  -16.9300   21.0623 C   0  0  0  0  0  0  0  0  0  0  0  0
  -30.0360  -16.7648   22.3605 C   0  0  0  0  0  0  0  0  0  0  0  0
  -23.1905   -9.8260   19.9366 C   0  0  0  0  0  0  0  0  0  0  0  0
  -23.6056   -9.9976   22.3105 C   0  0  0  0  0  0  0  0  0  0  0  0
  -28.5162  -17.8148   20.8101 C   0  0  0  0  0  0  0  0  0  0  0  0
  -29.4614  -17.4851   23.4071 C   0  0  0  0  0  0  0  0  0  0  0  0
  -28.5828  -14.6168   27.4870 C   0  0  0  0  0  0  0  0  0  0  0  0
  -22.4318   -8.6756   20.1524 C   0  0  0  0  0  0  0  0  0  0  0  0
  -22.8469   -8.8472   22.5263 C   0  0  0  0  0  0  0  0  0  0  0  0
  -29.6739  -14.3173   28.3017 C   0  0  0  0  0  0  0  0  0  0  0  0
  -21.3188   -5.7528   23.6663 C   0  0  0  0  0  0  0  0  0  0  0  0
  -21.8326   -4.7911   24.5362 C   0  0  0  0  0  0  0  0  0  0  0  0
  -28.9985  -16.0535   29.8342 C   0  0  0  0  0  0  0  0  0  0  0  0
  -23.7700   -4.5404   23.1147 C   0  0  0  0  0  0  0  0  0  0  0  0
  -23.7775  -10.4870   21.0156 C   0  0  0  0  0  0  0  0  0  0  0  0
  -24.1030  -13.0059   20.7775 C   0  0  0  0  0  0  0  0  0  0  0  0
  -27.9220  -18.5390   21.8556 C   0  0  0  0  0  0  0  0  0  0  0  0
  -27.6961  -15.6459   27.8349 C   0  0  0  0  0  0  0  0  0  0  0  0
  -28.4057  -18.3813   23.1685 C   0  0  0  0  0  0  0  0  0  0  0  0
  -27.8955  -16.3624   29.0236 C   0  0  0  0  0  0  0  0  0  0  0  0
  -22.2600   -8.1862   21.4473 C   0  0  0  0  0  0  0  0  0  0  0  0
  -29.8835  -15.0376   29.4740 C   0  0  0  0  0  0  0  0  0  0  0  0
  -22.0306   -6.1083   22.5205 C   0  0  0  0  0  0  0  0  0  0  0  0
  -23.0582   -4.1849   24.2604 C   0  0  0  0  0  0  0  0  0  0  0  0
  -23.2562   -5.5021   22.2447 C   0  0  0  0  0  0  0  0  0  0  0  0
  -24.5617  -11.6751   20.7933 C   0  0  0  0  0  0  0  0  0  0  0  0
  -33.2584  -12.9218   25.2843 C   0  0  0  0  0  0  0  0  0  0  0  0
  -25.2276  -13.7538   20.5276 C   0  0  0  0  0  0  0  0  0  0  0  0
  -32.5344  -12.0862   26.1087 C   0  0  0  0  0  0  0  0  0  0  0  0
  -31.6856  -12.3442   23.8692 C   0  0  0  0  0  0  0  0  0  0  0  0
  -22.7787  -13.5201   20.9714 C   0  0  0  0  0  0  0  0  0  0  0  0
  -26.8234  -18.3991   26.5075 C   0  0  0  0  0  0  0  0  0  0  0  0
  -24.6959  -18.4568   28.9555 C   0  0  0  0  0  0  0  0  0  0  0  0
  -23.8672  -17.4177   32.0988 C   0  0  0  0  0  0  0  0  0  0  0  0
  -31.0513  -12.8104   21.4761 C   0  0  0  0  0  0  0  0  0  0  0  0
  -26.8236  -19.5190   21.5272 C   0  0  0  0  0  0  0  0  0  0  0  0
  -26.5089  -15.9388   26.9590 C   0  0  0  0  0  0  0  0  0  0  0  0
  -26.9612  -17.4632   29.4522 C   0  0  0  0  0  0  0  0  0  0  0  0
  -26.0203  -19.9646   22.7464 C   0  0  0  0  0  0  0  0  0  0  0  0
  -29.4868  -13.5000   18.3530 C   0  0  0  0  0  0  0  0  0  0  0  0
  -26.9537  -20.3332   23.8951 C   0  0  0  0  0  0  0  0  0  0  0  0
  -28.0038  -13.2372   18.6246 C   0  0  0  0  0  0  0  0  0  0  0  0
  -30.3835  -12.5149   19.1009 C   0  0  0  0  0  0  0  0  0  0  0  0
  -28.6519  -12.1596   20.8168 C   0  0  0  0  0  0  0  0  0  0  0  0
  -27.7918  -19.1263   24.3339 C   0  0  1  0  0  0  0  0  0  0  0  0
  -25.9601  -17.3496   27.1484 C   0  0  1  0  0  0  0  0  0  0  0  0
  -27.7114  -13.1676   20.1363 C   0  0  2  0  0  0  0  0  0  0  0  0
  -22.0847  -17.6616   33.8482 C   0  0  0  0  0  0  0  0  0  0  0  0
  -35.1837  -11.5292   27.7312 C   0  0  0  0  0  0  0  0  0  0  0  0
  -33.2582  -15.2167   29.8572 C   0  0  0  0  0  0  0  0  0  0  0  0
  -25.7611  -21.2303   29.6507 C   0  0  0  0  0  0  0  0  0  0  0  0
  -24.6623  -21.0146   31.8900 C   0  0  0  0  0  0  0  0  0  0  0  0
  -23.2767  -20.9953   29.8157 C   0  0  0  0  0  0  0  0  0  0  0  0
  -23.2561  -14.5224   32.0456 C   0  0  0  0  0  0  0  0  0  0  0  0
  -32.3953  -12.8346   30.1865 C   0  0  0  0  0  0  0  0  0  0  0  0
  -24.7072  -18.9856   30.3694 C   0  0  1  0  0  0  0  0  0  0  0  0
  -22.5795  -16.8459   32.6639 C   0  0  2  0  0  0  0  0  0  0  0  0
  -33.9267  -12.2791   28.1702 C   0  0  2  0  0  0  0  0  0  0  0  0
  -32.1165  -14.2348   29.6321 C   0  0  1  0  0  0  0  0  0  1  0  0
  -33.6789  -12.1555   29.6848 C   0  0  2  0  0  0  0  0  0  0  0  0
  -24.6207  -20.5371   30.4227 C   0  0  0  0  0  0  0  0  0  0  0  0
  -25.8753  -11.5798   20.5710 N   0  0  0  0  0  0  0  0  0  0  0  0
  -32.7735  -13.0706   23.9996 N   0  0  0  0  0  0  0  0  0  0  0  0
  -26.2516  -12.8602   20.4130 N   0  0  0  0  0  0  0  0  0  0  0  0
  -25.8185  -17.7162   28.5590 N   0  0  0  0  0  0  0  0  0  0  0  0
  -30.0523  -12.5060   20.5274 N   0  0  0  0  0  0  0  0  0  0  0  0
  -25.4305  -15.0820   20.3968 N   0  0  0  0  0  0  0  0  0  0  0  0
  -21.7392  -12.6130   21.2180 N   0  0  0  0  0  0  0  0  0  0  0  0
  -32.7949  -11.7618   27.4272 N   0  0  0  0  0  0  0  0  0  0  0  0
  -30.8703  -12.2040   22.7188 N   0  0  0  0  0  0  0  0  0  0  0  0
  -26.9991  -18.2295   25.1474 N   0  0  0  0  0  0  0  0  0  0  0  0
  -23.6247  -18.3024   31.0694 N   0  0  0  0  0  0  0  0  0  0  0  0
  -22.7908  -15.4416   33.1159 N   0  3  0  0  0  0  0  0  0  0  0  0
  -22.5220  -14.7465   20.9110 O   0  0  0  0  0  0  0  0  0  0  0  0
  -27.2941  -19.2973   27.1956 O   0  0  0  0  0  0  0  0  0  0  0  0
  -23.7237  -18.6861   28.2318 O   0  0  0  0  0  0  0  0  0  0  0  0
  -24.9770  -17.1130   32.5301 O   0  0  0  0  0  0  0  0  0  0  0  0
  -31.9829  -13.5757   21.2147 O   0  0  0  0  0  0  0  0  0  0  0  0
  -33.6238  -10.7714   30.0424 O   0  0  0  0  0  0  0  0  0  0  0  0
  -21.5196   -7.0638   21.6583 O   0  0  0  0  0  0  0  0  0  0  0  0
  -30.9480  -14.7478   30.2707 O   0  0  0  0  0  0  0  0  0  1  0  0
  -23.5522   -3.2625   25.0966 F   0  0  0  0  0  0  0  0  0  0  0  0
  -23.9452   -5.8403   21.1462 F   0  0  0  0  0  0  0  0  0  0  0  0
  -34.3651  -13.5523   25.6938 F   0  0  0  0  0  0  0  0  0  0  0  0
  -31.1885  -11.4573   25.2517 S   0  0  0  0  0  0  0  0  0  0  0  0
  1  2  1  0  0  0  0
  1  5  2  0  0  0  0
  2  6  2  0  0  0  0
  3  8  2  0  0  0  0
  3 15  1  0  0  0  0
  4  9  1  0  0  0  0
  4 15  2  0  0  0  0
  5 17  1  0  0  0  0
  6 19  1  0  0  0  0
  7 10  2  0  0  0  0
  7 18  1  0  0  0  0
  8 21  1  0  0  0  0
  9 21  2  0  0  0  0
 10 22  1  0  0  0  0
 11 12  2  0  0  0  0
 11 23  1  0  0  0  0
 12 24  1  0  0  0  0
 13 20  1  0  0  0  0
 13 22  2  0  0  0  0
 14 24  2  0  0  0  0
 14 25  1  0  0  0  0
 15 26  1  0  0  0  0
 16 26  1  0  0  0  0
 16 28  2  0  0  0  0
 16 31  1  0  0  0  0
 17 19  2  0  0  0  0
 17 36  1  0  0  0  0
 18 20  2  0  0  0  0
 18 37  1  0  0  0  0
 19 45  1  0  0  0  0
 20 38  1  0  0  0  0
 21 80  1  0  0  0  0
 22 81  1  0  0  0  0
 23 25  2  0  0  0  0
 23 80  1  0  0  0  0
 24 82  1  0  0  0  0
 25 83  1  0  0  0  0
 26 62  2  0  0  0  0
 27 29  2  0  0  0  0
 27 63  1  0  0  0  0
 27 84  1  0  0  0  0
 28 64  1  0  0  0  0
 28 67  1  0  0  0  0
 29 69  1  0  0  0  0
 29 85  1  0  0  0  0
 30 63  2  0  0  0  0
 30 70  1  0  0  0  0
 30 85  1  0  0  0  0
 31 68  1  0  0  0  0
 31 74  2  0  0  0  0
 32 46  1  0  0  0  0
 32 71  1  0  0  0  0
 32 75  2  0  0  0  0
 33 56  1  0  0  0  0
 33 65  1  0  0  0  0
 33 76  2  0  0  0  0
 34 57  1  0  0  0  0
 34 72  1  0  0  0  0
 34 77  2  0  0  0  0
 35 66  1  0  0  0  0
 35 70  1  0  0  0  0
 35 78  2  0  0  0  0
 36 39  1  0  0  0  0
 37 46  1  0  0  0  0
 38 65  1  0  0  0  0
 39 41  1  0  0  0  0
 40 42  1  0  0  0  0
 40 43  1  0  0  0  0
 41 45  1  0  0  0  0
 42 47  1  0  0  0  0
 43 66  1  0  0  0  0
 44 47  1  0  0  0  0
 44 66  1  0  0  0  0
 45 71  1  0  0  0  0
 46 65  1  0  0  0  0
 47 64  1  0  0  0  0
 48 57  1  0  0  0  0
 49 58  1  0  0  0  0
 50 59  1  0  0  0  0
 51 61  1  0  0  0  0
 52 61  1  0  0  0  0
 53 61  1  0  0  0  0
 54 73  1  0  0  0  0
 55 59  1  0  0  0  0
 55 60  1  0  0  0  0
 56 61  1  0  0  0  0
 56 72  1  0  0  0  0
 57 73  1  0  0  0  0
 58 60  1  0  0  0  0
 58 69  1  0  0  0  0
 59 81  1  0  0  0  0
 60 79  1  0  0  0  0
 62 64  1  0  0  0  0
M  CHG  1  73   1
M  ISO  4  35 100  59 101  70 100  81 101
M  END
> <Batch ID>
0187

> <Smiles>
CNC(C)C(=O)NC(C(=O)N1Cc2cc([101O:1][101CH:1](C)CC(O)C(C)Nc3sc([100NH:0][100C:0](=O)N4CCCC(n5nc(-c6ccc(Oc7ccc(F)cc7F)cc6)c(C(N)=O)c5N)C4)nc3F)ccc2CC1C(=O)NC1CCCc2ccccc21)C(C)(C)C

> <Shape>
0.163

> <Color>
0.176

> <Negative vol penalty>
0.000

$$$$

  -OEChem-04052305123D

 87 95  0     1  0  0  0  0  0999 V2000
  -28.6022  -23.6292   20.8261 C   0  0  0  0  0  0  0  0  0  0  0  0
  -27.6884  -22.5803   20.8088 C   0  0  0  0  0  0  0  0  0  0  0  0
  -24.8360  -30.0041   20.2858 C   0  0  0  0  0  0  0  0  0  0  0  0
  -24.4480  -28.2488   21.8999 C   0  0  0  0  0  0  0  0  0  0  0  0
  -29.8459  -23.4788   20.2142 C   0  0  0  0  0  0  0  0  0  0  0  0
  -28.0175  -21.3807   20.1786 C   0  0  0  0  0  0  0  0  0  0  0  0
  -26.7580  -17.3265   22.9393 C   0  0  0  0  0  0  0  0  0  0  0  0
  -24.3783  -30.9494   21.2037 C   0  0  0  0  0  0  0  0  0  0  0  0
  -23.9904  -29.1941   22.8179 C   0  0  0  0  0  0  0  0  0  0  0  0
  -25.4159  -16.9491   22.9408 C   0  0  0  0  0  0  0  0  0  0  0  0
  -25.5763  -32.5666   23.9207 C   0  0  0  0  0  0  0  0  0  0  0  0
  -26.3180  -33.7386   24.0685 C   0  0  0  0  0  0  0  0  0  0  0  0
  -25.9031  -15.2323   21.3177 C   0  0  0  0  0  0  0  0  0  0  0  0
  -24.3958  -35.0396   23.3978 C   0  0  0  0  0  0  0  0  0  0  0  0
  -21.1892  -18.9470   18.2646 C   0  0  0  0  0  0  0  0  0  0  0  0
  -24.8708  -28.6538   20.6339 C   0  0  0  0  0  0  0  0  0  0  0  0
  -26.6662  -27.2275   19.5158 C   0  0  0  0  0  0  0  0  0  0  0  0
  -30.1942  -22.2735   19.5846 C   0  0  0  0  0  0  0  0  0  0  0  0
  -27.6823  -16.6656   22.1175 C   0  0  0  0  0  0  0  0  0  0  0  0
  -29.2666  -21.2146   19.5566 C   0  0  0  0  0  0  0  0  0  0  0  0
  -27.2568  -15.6015   21.3096 C   0  0  0  0  0  0  0  0  0  0  0  0
  -23.9556  -30.5444   22.4697 C   0  0  0  0  0  0  0  0  0  0  0  0
  -24.9877  -15.9038   22.1278 C   0  0  0  0  0  0  0  0  0  0  0  0
  -24.2444  -32.6310   23.5113 C   0  0  0  0  0  0  0  0  0  0  0  0
  -25.7278  -34.9751   23.8071 C   0  0  0  0  0  0  0  0  0  0  0  0
  -23.6542  -33.8675   23.2499 C   0  0  0  0  0  0  0  0  0  0  0  0
  -25.3429  -27.6767   19.6859 C   0  0  0  0  0  0  0  0  0  0  0  0
  -21.5533  -19.0963   19.5865 C   0  0  0  0  0  0  0  0  0  0  0  0
  -26.5886  -26.3080   18.4985 C   0  0  0  0  0  0  0  0  0  0  0  0
  -21.9185  -21.0133   18.1743 C   0  0  0  0  0  0  0  0  0  0  0  0
  -27.8589  -27.6075   20.2149 C   0  0  0  0  0  0  0  0  0  0  0  0
  -21.4709  -18.1359   20.7169 C   0  0  0  0  0  0  0  0  0  0  0  0
  -29.5648  -17.5348   19.7083 C   0  0  0  0  0  0  0  0  0  0  0  0
  -30.6747  -14.5001   19.9929 C   0  0  0  0  0  0  0  0  0  0  0  0
  -30.1113  -11.2930   21.0149 C   0  0  0  0  0  0  0  0  0  0  0  0
  -22.1703  -22.8406   16.4585 C   0  0  0  0  0  0  0  0  0  0  0  0
  -31.5322  -22.1744   18.8957 C   0  0  0  0  0  0  0  0  0  0  0  0
  -29.1315  -17.0672   22.1474 C   0  0  0  0  0  0  0  0  0  0  0  0
  -28.2131  -14.8465   20.4241 C   0  0  0  0  0  0  0  0  0  0  0  0
  -31.9473  -20.7410   18.5744 C   0  0  0  0  0  0  0  0  0  0  0  0
  -24.0210  -25.2468   14.5977 C   0  0  0  0  0  0  0  0  0  0  0  0
  -30.7872  -19.9782   17.9426 C   0  0  0  0  0  0  0  0  0  0  0  0
  -24.6953  -26.0983   15.6759 C   0  0  0  0  0  0  0  0  0  0  0  0
  -22.6167  -24.8126   15.0139 C   0  0  0  0  0  0  0  0  0  0  0  0
  -23.2086  -24.9981   17.3981 C   0  0  0  0  0  0  0  0  0  0  0  0
  -29.5963  -19.8893   18.9046 C   0  0  1  0  0  0  0  0  0  0  0  0
  -29.8900  -16.6620   20.8873 C   0  0  1  0  0  0  0  0  0  0  0  0
  -24.6502  -25.4050   17.0517 C   0  0  2  0  0  0  0  0  0  0  0  0
  -18.8683  -17.3224   23.3736 C   0  0  0  0  0  0  0  0  0  0  0  0
  -31.1898   -9.0281   21.0799 C   0  0  0  0  0  0  0  0  0  0  0  0
  -18.6460  -14.8848   20.3468 C   0  0  0  0  0  0  0  0  0  0  0  0
  -30.1024  -14.1448   17.0170 C   0  0  0  0  0  0  0  0  0  0  0  0
  -30.2845  -11.6699   17.3486 C   0  0  0  0  0  0  0  0  0  0  0  0
  -32.2543  -13.1343   17.7934 C   0  0  0  0  0  0  0  0  0  0  0  0
  -30.0217  -11.2072   23.9718 C   0  0  0  0  0  0  0  0  0  0  0  0
  -18.4144  -16.6968   22.0624 C   0  0  0  0  0  0  0  0  0  0  0  0
  -23.1583  -14.9880   20.9151 C   0  0  0  0  0  0  0  0  0  1  0  0
  -30.3001  -13.1644   19.3973 C   0  0  1  0  0  0  0  0  0  0  0  0
  -30.9587  -10.3315   21.8285 C   0  0  2  0  0  0  0  0  0  0  0  0
  -19.2778  -15.4974   21.6053 C   0  0  2  0  0  0  0  0  0  0  0  0
  -20.7811  -15.8556   21.4099 C   0  0  1  0  0  0  0  0  0  0  0  0
  -21.6746  -14.6386   21.0767 C   0  0  2  0  0  0  0  0  0  0  0  0
  -30.7167  -13.0437   17.9042 C   0  0  0  0  0  0  0  0  0  0  0  0
  -21.3974  -20.0453   17.4535 N   0  0  0  0  0  0  0  0  0  0  0  0
  -24.4873  -27.0909   18.8440 N   0  0  0  0  0  0  0  0  0  0  0  0
  -25.2747  -26.2643   18.1350 N   0  0  0  0  0  0  0  0  0  0  0  0
  -29.6186  -15.2807   20.4838 N   0  0  0  0  0  0  0  0  0  0  0  0
  -22.6524  -24.1598   16.3244 N   0  0  0  0  0  0  0  0  0  0  0  0
  -27.5166  -25.5408   17.8883 N   0  0  0  0  0  0  0  0  0  0  0  0
  -27.7603  -28.5661   21.2325 N   0  0  0  0  0  0  0  0  0  0  0  0
  -22.2853  -22.3126   17.7440 N   0  0  0  0  0  0  0  0  0  0  0  0
  -20.9484  -16.8899   20.4124 N   0  0  0  0  0  0  0  0  0  0  0  0
  -29.8330  -18.8753   19.9096 N   0  0  0  0  0  0  0  0  0  0  0  0
  -30.8888  -12.1507   20.2657 N   0  0  0  0  0  0  0  0  0  0  0  0
  -30.2888  -10.0181   23.1223 N   0  3  0  0  0  0  0  0  0  0  0  0
  -28.9816  -27.1236   19.9341 O   0  0  0  0  0  0  0  0  0  0  0  0
  -21.8391  -18.4907   21.8337 O   0  0  0  0  0  0  0  0  0  0  0  0
  -29.1059  -17.0292   18.6906 O   0  0  0  0  0  0  0  0  0  0  0  0
  -31.8613  -14.8351   20.0281 O   0  0  0  0  0  0  0  0  0  0  0  0
  -28.8826  -11.2818   21.0385 O   0  0  0  0  0  0  0  0  0  0  0  0
  -21.7158  -22.2150   15.4973 O   0  0  0  0  0  0  0  0  0  0  0  0
  -21.5509  -13.6745   22.1228 O   0  0  0  0  0  0  0  0  0  0  0  0
  -23.5092  -31.4666   23.3658 O   0  0  0  0  0  0  0  0  0  0  0  0
  -23.6781  -15.5339   22.1268 O   0  0  0  0  0  0  0  0  0  1  0  0
  -26.4397  -36.1006   23.9506 F   0  0  0  0  0  0  0  0  0  0  0  0
  -22.3746  -33.9358   22.8575 F   0  0  0  0  0  0  0  0  0  0  0  0
  -22.1851  -20.6713   19.8347 S   0  0  0  0  0  0  0  0  0  0  0  0
  1  2  1  0  0  0  0
  1  5  2  0  0  0  0
  2  6  2  0  0  0  0
  3  8  2  0  0  0  0
  3 16  1  0  0  0  0
  4  9  1  0  0  0  0
  4 16  2  0  0  0  0
  5 18  1  0  0  0  0
  6 20  1  0  0  0  0
  7 10  2  0  0  0  0
  7 19  1  0  0  0  0
  8 22  1  0  0  0  0
  9 22  2  0  0  0  0
 10 23  1  0  0  0  0
 11 12  2  0  0  0  0
 11 24  1  0  0  0  0
 12 25  1  0  0  0  0
 13 21  1  0  0  0  0
 13 23  2  0  0  0  0
 14 25  2  0  0  0  0
 14 26  1  0  0  0  0
 15 28  2  0  0  0  0
 15 64  1  0  0  0  0
 16 27  1  0  0  0  0
 17 27  1  0  0  0  0
 17 29  2  0  0  0  0
 17 31  1  0  0  0  0
 18 20  2  0  0  0  0
 18 37  1  0  0  0  0
 19 21  2  0  0  0  0
 19 38  1  0  0  0  0
 20 46  1  0  0  0  0
 21 39  1  0  0  0  0
 22 83  1  0  0  0  0
 23 84  1  0  0  0  0
 24 26  2  0  0  0  0
 24 83  1  0  0  0  0
 25 85  1  0  0  0  0
 26 86  1  0  0  0  0
 27 65  2  0  0  0  0
 28 32  1  0  0  0  0
 28 87  1  0  0  0  0
 29 66  1  0  0  0  0
 29 69  1  0  0  0  0
 30 64  2  0  0  0  0
 30 71  1  0  0  0  0
 30 87  1  0  0  0  0
 31 70  1  0  0  0  0
 31 76  2  0  0  0  0
 32 72  1  0  0  0  0
 32 77  2  0  0  0  0
 33 47  1  0  0  0  0
 33 73  1  0  0  0  0
 33 78  2  0  0  0  0
 34 58  1  0  0  0  0
 34 67  1  0  0  0  0
 34 79  2  0  0  0  0
 35 59  1  0  0  0  0
 35 74  1  0  0  0  0
 35 80  2  0  0  0  0
 36 68  1  0  0  0  0
 36 71  1  0  0  0  0
 36 81  2  0  0  0  0
 37 40  1  0  0  0  0
 38 47  1  0  0  0  0
 39 67  1  0  0  0  0
 40 42  1  0  0  0  0
 41 43  1  0  0  0  0
 41 44  1  0  0  0  0
 42 46  1  0  0  0  0
 43 48  1  0  0  0  0
 44 68  1  0  0  0  0
 45 48  1  0  0  0  0
 45 68  1  0  0  0  0
 46 73  1  0  0  0  0
 47 67  1  0  0  0  0
 48 66  1  0  0  0  0
 49 56  1  0  0  0  0
 50 59  1  0  0  0  0
 51 60  1  0  0  0  0
 52 63  1  0  0  0  0
 53 63  1  0  0  0  0
 54 63  1  0  0  0  0
 55 75  1  0  0  0  0
 56 60  1  0  0  0  0
 57 62  1  0  0  0  0
 57 84  1  0  0  0  0
 58 63  1  0  0  0  0
 58 74  1  0  0  0  0
 59 75  1  0  0  0  0
 60 61  1  0  0  0  0
 61 62  1  0  0  0  0
 61 72  1  0  0  0  0
 62 82  1  0  0  0  0
 65 66  1  0  0  0  0
M  CHG  1  75   1
M  ISO  4  36 100  57 101  71 100  84 101
M  END
> <Batch ID>
0187

> <Smiles>
CCC(C)C(NC(=O)c1cnc([100NH:0][100C:0](=O)N2CCCC(n3nc(-c4ccc(Oc5ccc(F)cc5F)cc4)c(C(N)=O)c3N)C2)s1)C(O)[101CH2:1][101O:1]c1ccc2c(c1)CN(C(=O)C(NC(=O)C(C)NC)C(C)(C)C)C(C(=O)NC1CCCc3ccccc31)C2

> <Shape>
0.241

> <Color>
0.053

> <Negative vol penalty>
0.000

$$$$

  -OEChem-04052305123D

 77 84  0     1  0  0  0  0  0999 V2000
  -26.4265  -30.8565   22.9609 C   0  0  0  0  0  0  0  0  0  0  0  0
  -27.1098  -29.7462   23.4466 C   0  0  0  0  0  0  0  0  0  0  0  0
  -23.0933   -9.8305   19.9008 C   0  0  0  0  0  0  0  0  0  0  0  0
  -23.8945   -9.7663   22.1791 C   0  0  0  0  0  0  0  0  0  0  0  0
  -25.9344  -30.8551   21.6564 C   0  0  0  0  0  0  0  0  0  0  0  0
  -27.3003  -28.6333   22.6284 C   0  0  0  0  0  0  0  0  0  0  0  0
  -32.0069  -23.3877   21.3450 C   0  0  0  0  0  0  0  0  0  0  0  0
  -22.3792   -8.6523   20.1187 C   0  0  0  0  0  0  0  0  0  0  0  0
  -23.1804   -8.5881   22.3971 C   0  0  0  0  0  0  0  0  0  0  0  0
  -32.0696  -21.9989   21.2392 C   0  0  0  0  0  0  0  0  0  0  0  0
  -20.0565   -5.8566   20.1820 C   0  0  0  0  0  0  0  0  0  0  0  0
  -18.7435   -5.7983   19.7150 C   0  0  0  0  0  0  0  0  0  0  0  0
  -31.2444  -22.1401   18.9769 C   0  0  0  0  0  0  0  0  0  0  0  0
  -18.1606   -7.6760   21.1192 C   0  0  0  0  0  0  0  0  0  0  0  0
  -23.8511  -10.3874   20.9310 C   0  0  0  0  0  0  0  0  0  0  0  0
  -24.1361  -12.9223   20.9031 C   0  0  0  0  0  0  0  0  0  0  0  0
  -26.1274  -29.7454   20.8186 C   0  0  0  0  0  0  0  0  0  0  0  0
  -31.5514  -24.1636   20.2694 C   0  0  0  0  0  0  0  0  0  0  0  0
  -26.8091  -28.6165   21.3119 C   0  0  0  0  0  0  0  0  0  0  0  0
  -31.1793  -23.5387   19.0706 C   0  0  0  0  0  0  0  0  0  0  0  0
  -22.4227   -8.0311   21.3668 C   0  0  0  0  0  0  0  0  0  0  0  0
  -31.6855  -21.3747   20.0560 C   0  0  0  0  0  0  0  0  0  0  0  0
  -20.4216   -6.8245   21.1178 C   0  0  0  0  0  0  0  0  0  0  0  0
  -17.7955   -6.7080   20.1835 C   0  0  0  0  0  0  0  0  0  0  0  0
  -19.4737   -7.7342   21.5863 C   0  0  0  0  0  0  0  0  0  0  0  0
  -24.5894  -11.6042   20.7063 C   0  0  0  0  0  0  0  0  0  0  0  0
  -25.2050  -13.7093   20.5503 C   0  0  0  0  0  0  0  0  0  0  0  0
  -22.8626  -13.3933   21.3637 C   0  0  0  0  0  0  0  0  0  0  0  0
  -29.1101  -26.1465   19.8093 C   0  0  0  0  0  0  0  0  0  0  0  0
  -30.5820  -26.6771   16.9678 C   0  0  0  0  0  0  0  0  0  0  0  0
  -32.6999  -25.5402   14.5452 C   0  0  0  0  0  0  0  0  0  0  0  0
  -30.6680  -14.8423   20.6828 C   0  0  0  0  0  0  0  0  0  0  0  0
  -25.5360  -29.7715   19.4314 C   0  0  0  0  0  0  0  0  0  0  0  0
  -31.5151  -25.6624   20.3903 C   0  0  0  0  0  0  0  0  0  0  0  0
  -30.7023  -24.3278   17.8797 C   0  0  0  0  0  0  0  0  0  0  0  0
  -26.1063  -28.7000   18.5058 C   0  0  0  0  0  0  0  0  0  0  0  0
  -29.5388  -12.5265   18.2254 C   0  0  0  0  0  0  0  0  0  0  0  0
  -26.1469  -27.3494   19.2138 C   0  0  0  0  0  0  0  0  0  0  0  0
  -28.1162  -12.1844   18.6715 C   0  0  0  0  0  0  0  0  0  0  0  0
  -30.4727  -12.7214   19.4179 C   0  0  0  0  0  0  0  0  0  0  0  0
  -28.5812  -13.3561   20.8646 C   0  0  0  0  0  0  0  0  0  0  0  0
  -27.0574  -27.4000   20.4467 C   0  0  1  0  0  0  0  0  0  0  0  0
  -30.5481  -26.3178   19.4090 C   0  0  1  0  0  0  0  0  0  0  0  0
  -27.5897  -13.2052   19.6982 C   0  0  2  0  0  0  0  0  0  0  0  0
  -33.6772  -26.1802   12.3243 C   0  0  0  0  0  0  0  0  0  0  0  0
  -27.9300  -26.0142   15.6125 C   0  0  0  0  0  0  0  0  0  0  0  0
  -29.1788  -25.7376   13.4603 C   0  0  0  0  0  0  0  0  0  0  0  0
  -29.1574  -27.9500   14.6123 C   0  0  0  0  0  0  0  0  0  0  0  0
  -32.0318  -16.5755   22.7034 C   0  0  0  0  0  0  0  0  0  0  0  0
  -29.8044  -17.6300   23.0392 C   0  0  0  0  0  0  0  0  0  0  0  0
  -35.4606  -25.4706   15.6094 C   0  0  0  0  0  0  0  0  0  0  0  0
  -31.5563  -19.2656   21.1473 C   0  0  0  0  0  0  0  0  0  1  0  0
  -30.5114  -26.0543   15.5945 C   0  0  1  0  0  0  0  0  0  0  0  0
  -33.8648  -26.2038   13.8332 C   0  0  2  0  0  0  0  0  0  0  0  0
  -30.9759  -17.8920   20.7937 C   0  0  1  0  0  0  0  0  0  0  0  0
  -29.2015  -26.4237   14.8428 C   0  0  0  0  0  0  0  0  0  0  0  0
  -30.7099  -16.9447   22.0009 C   0  0  0  0  0  0  0  0  0  0  0  0
  -25.8482  -11.5527   20.2628 N   0  0  0  0  0  0  0  0  0  0  0  0
  -26.1950  -12.8483   20.1778 N   0  0  0  0  0  0  0  0  0  0  0  0
  -30.6786  -25.7900   18.0493 N   0  0  0  0  0  0  0  0  0  0  0  0
  -29.9163  -13.7026   20.3525 N   0  0  0  0  0  0  0  0  0  0  0  0
  -25.3852  -15.0470   20.5254 N   0  0  0  0  0  0  0  0  0  0  0  0
  -21.8768  -12.4495   21.6830 N   0  0  0  0  0  0  0  0  0  0  0  0
  -28.4480  -27.3351   20.0510 N   0  0  0  0  0  0  0  0  0  0  0  0
  -31.7312  -26.4546   14.9015 N   0  0  0  0  0  0  0  0  0  0  0  0
  -30.0644  -15.7245   21.5705 N   0  0  0  0  0  0  0  0  0  0  0  0
  -29.6957  -18.1354   20.0495 N   0  3  0  0  0  0  0  0  0  0  0  0
  -35.1387  -25.5025   14.1595 N   0  3  0  0  0  0  0  0  0  0  0  0
  -22.6009  -14.6152   21.4729 O   0  0  0  0  0  0  0  0  0  0  0  0
  -28.6358  -25.0195   19.8914 O   0  0  0  0  0  0  0  0  0  0  0  0
  -30.5598  -27.9057   17.0766 O   0  0  0  0  0  0  0  0  0  0  0  0
  -32.6520  -24.3311   14.7602 O   0  0  0  0  0  0  0  0  0  0  0  0
  -31.7914  -15.0603   20.2167 O   0  0  0  0  0  0  0  0  0  0  0  0
  -21.7257   -6.8816   21.5799 O   0  0  0  0  0  0  0  0  0  0  0  0
  -31.7451  -20.0193   19.9503 O   0  0  0  0  0  0  0  0  0  1  0  0
  -16.5350   -6.6529   19.7338 F   0  0  0  0  0  0  0  0  0  0  0  0
  -19.8188   -8.6671   22.4843 F   0  0  0  0  0  0  0  0  0  0  0  0
  1  2  1  0  0  0  0
  1  5  2  0  0  0  0
  2  6  2  0  0  0  0
  3  8  2  0  0  0  0
  3 15  1  0  0  0  0
  4  9  1  0  0  0  0
  4 15  2  0  0  0  0
  5 17  1  0  0  0  0
  6 19  1  0  0  0  0
  7 10  2  0  0  0  0
  7 18  1  0  0  0  0
  8 21  1  0  0  0  0
  9 21  2  0  0  0  0
 10 22  1  0  0  0  0
 11 12  2  0  0  0  0
 11 23  1  0  0  0  0
 12 24  1  0  0  0  0
 13 20  1  0  0  0  0
 13 22  2  0  0  0  0
 14 24  2  0  0  0  0
 14 25  1  0  0  0  0
 15 26  1  0  0  0  0
 16 26  1  0  0  0  0
 16 27  2  0  0  0  0
 16 28  1  0  0  0  0
 17 19  2  0  0  0  0
 17 33  1  0  0  0  0
 18 20  2  0  0  0  0
 18 34  1  0  0  0  0
 19 42  1  0  0  0  0
 20 35  1  0  0  0  0
 21 74  1  0  0  0  0
 22 75  1  0  0  0  0
 23 25  2  0  0  0  0
 23 74  1  0  0  0  0
 24 76  1  0  0  0  0
 25 77  1  0  0  0  0
 26 58  2  0  0  0  0
 27 59  1  0  0  0  0
 27 62  1  0  0  0  0
 28 63  1  0  0  0  0
 28 69  2  0  0  0  0
 29 43  1  0  0  0  0
 29 64  1  0  0  0  0
 29 70  2  0  0  0  0
 30 53  1  0  0  0  0
 30 60  1  0  0  0  0
 30 71  2  0  0  0  0
 31 54  1  0  0  0  0
 31 65  1  0  0  0  0
 31 72  2  0  0  0  0
 32 61  1  0  0  0  0
 32 66  1  0  0  0  0
 32 73  2  0  0  0  0
 33 36  1  0  0  0  0
 34 43  1  0  0  0  0
 35 60  1  0  0  0  0
 36 38  1  0  0  0  0
 37 39  1  0  0  0  0
 37 40  1  0  0  0  0
 38 42  1  0  0  0  0
 39 44  1  0  0  0  0
 40 61  1  0  0  0  0
 41 44  1  0  0  0  0
 41 61  1  0  0  0  0
 42 64  1  0  0  0  0
 43 60  1  0  0  0  0
 44 59  1  0  0  0  0
 45 54  1  0  0  0  0
 46 56  1  0  0  0  0
 47 56  1  0  0  0  0
 48 56  1  0  0  0  0
 49 57  1  0  0  0  0
 50 57  1  0  0  0  0
 51 68  1  0  0  0  0
 52 55  1  0  0  0  0
 52 75  1  0  0  0  0
 53 56  1  0  0  0  0
 53 65  1  0  0  0  0
 54 68  1  0  0  0  0
 55 57  1  0  0  0  0
 55 67  1  0  0  0  0
 57 66  1  0  0  0  0
 58 59  1  0  0  0  0
M  CHG  2  67   1  68   1
M  ISO  4  32 100  52 101  66 100  75 101
M  END
> <Batch ID>
0187

> <Smiles>
CNC(C)C(=O)NC(C(=O)N1Cc2cc([101O:1][101CH2:1]C(N)C(C)(C)[100NH:0][100C:0](=O)N3CCCC(n4nc(-c5ccc(Oc6ccc(F)cc6F)cc5)c(C(N)=O)c4N)C3)ccc2CC1C(=O)NC1CCCc2ccccc21)C(C)(C)C

> <Shape>
0.285

> <Color>
0.210

> <Negative vol penalty>
0.000

$$$$

  -OEChem-04052305123D

 84 92  0     1  0  0  0  0  0999 V2000
  -18.2051  -28.3074   23.8647 C   0  0  0  0  0  0  0  0  0  0  0  0
  -18.3115  -27.0521   23.2766 C   0  0  0  0  0  0  0  0  0  0  0  0
  -26.5367  -12.5837   21.4767 C   0  0  0  0  0  0  0  0  0  0  0  0
  -25.6656  -13.7959   19.5770 C   0  0  0  0  0  0  0  0  0  0  0  0
  -18.6531  -29.4343   23.1787 C   0  0  0  0  0  0  0  0  0  0  0  0
  -18.8766  -26.9218   22.0076 C   0  0  0  0  0  0  0  0  0  0  0  0
  -25.7570  -26.8899   18.5558 C   0  0  0  0  0  0  0  0  0  0  0  0
  -25.3054  -11.9482   21.6359 C   0  0  0  0  0  0  0  0  0  0  0  0
  -24.4342  -13.1603   19.7362 C   0  0  0  0  0  0  0  0  0  0  0  0
  -26.9076  -27.6013   18.8930 C   0  0  0  0  0  0  0  0  0  0  0  0
  -22.5012   -9.7387   22.3213 C   0  0  0  0  0  0  0  0  0  0  0  0
  -22.5064   -8.3633   22.5532 C   0  0  0  0  0  0  0  0  0  0  0  0
  -26.5284  -27.0988   21.2217 C   0  0  0  0  0  0  0  0  0  0  0  0
  -23.6250   -8.0114   20.4408 C   0  0  0  0  0  0  0  0  0  0  0  0
  -26.7168  -13.5076   20.4473 C   0  0  0  0  0  0  0  0  0  0  0  0
  -29.0769  -13.7277   19.5043 C   0  0  0  0  0  0  0  0  0  0  0  0
  -19.2125  -29.3184   21.8955 C   0  0  0  0  0  0  0  0  0  0  0  0
  -24.9762  -26.2857   19.5516 C   0  0  0  0  0  0  0  0  0  0  0  0
  -19.3565  -28.0445   21.3091 C   0  0  0  0  0  0  0  0  0  0  0  0
  -25.3698  -26.3781   20.8943 C   0  0  0  0  0  0  0  0  0  0  0  0
  -24.2541  -12.2364   20.7657 C   0  0  0  0  0  0  0  0  0  0  0  0
  -27.2919  -27.7083   20.2264 C   0  0  0  0  0  0  0  0  0  0  0  0
  -23.0577  -10.2505   21.1491 C   0  0  0  0  0  0  0  0  0  0  0  0
  -23.0683   -7.4996   21.6130 C   0  0  0  0  0  0  0  0  0  0  0  0
  -23.6196   -9.3868   20.2089 C   0  0  0  0  0  0  0  0  0  0  0  0
  -27.9885  -14.1649   20.2827 C   0  0  0  0  0  0  0  0  0  0  0  0
  -29.0387  -23.6394   18.1379 C   0  0  0  0  0  0  0  0  0  0  0  0
  -30.0358  -14.6951   19.6807 C   0  0  0  0  0  0  0  0  0  0  0  0
  -28.2755  -23.0098   17.1772 C   0  0  0  0  0  0  0  0  0  0  0  0
  -28.9364  -21.6480   19.0510 C   0  0  0  0  0  0  0  0  0  0  0  0
  -29.4655  -25.0476   18.1028 C   0  0  0  0  0  0  0  0  0  0  0  0
  -30.1857  -25.6605   19.0558 C   0  0  0  0  0  0  0  0  0  0  0  0
  -29.2094  -12.5522   18.6941 C   0  0  0  0  0  0  0  0  0  0  0  0
  -21.9842  -26.6246   20.5698 C   0  0  0  0  0  0  0  0  0  0  0  0
  -22.7321  -24.0595   22.4092 C   0  0  0  0  0  0  0  0  0  0  0  0
  -25.1488  -22.1940   23.9344 C   0  0  0  0  0  0  0  0  0  0  0  0
  -29.7733  -20.4875   21.1244 C   0  0  0  0  0  0  0  0  0  0  0  0
  -19.6884  -30.5702   21.2014 C   0  0  0  0  0  0  0  0  0  0  0  0
  -23.7525  -25.4993   19.1689 C   0  0  0  0  0  0  0  0  0  0  0  0
  -24.5772  -25.7307   21.9993 C   0  0  0  0  0  0  0  0  0  0  0  0
  -19.8604  -30.3870   19.6970 C   0  0  0  0  0  0  0  0  0  0  0  0
  -31.5430  -17.9366   22.8675 C   0  0  0  0  0  0  0  0  0  0  0  0
  -20.6737  -29.1324   19.4159 C   0  0  0  0  0  0  0  0  0  0  0  0
  -30.9356  -16.6399   22.3271 C   0  0  0  0  0  0  0  0  0  0  0  0
  -30.4940  -19.0380   23.0098 C   0  0  0  0  0  0  0  0  0  0  0  0
  -29.0992  -18.0090   21.2592 C   0  0  0  0  0  0  0  0  0  0  0  0
  -19.9398  -27.8821   19.9171 C   0  0  1  0  0  0  0  0  0  0  0  0
  -22.7512  -25.3587   20.3113 C   0  0  1  0  0  0  0  0  0  0  0  0
  -30.1297  -16.8898   21.0373 C   0  0  2  0  0  0  0  0  0  0  0  0
  -31.9107  -27.2365   18.2215 C   0  0  0  0  0  0  0  0  0  0  0  0
  -26.1537  -20.2888   25.2219 C   0  0  0  0  0  0  0  0  0  0  0  0
  -29.6655  -28.3091   22.6043 C   0  0  0  0  0  0  0  0  0  0  0  0
  -21.8040  -25.6778   24.8236 C   0  0  0  0  0  0  0  0  0  0  0  0
  -22.9894  -24.0339   26.2935 C   0  0  0  0  0  0  0  0  0  0  0  0
  -21.1043  -23.2769   24.8456 C   0  0  0  0  0  0  0  0  0  0  0  0
  -25.5409  -20.5891   21.4788 C   0  0  0  0  0  0  0  0  0  0  0  0
  -30.7299  -27.7376   20.3903 C   0  0  0  0  0  0  0  0  0  0  0  0
  -30.5885  -27.1149   18.9844 C   0  0  2  0  0  0  0  0  0  0  0  0
  -23.3224  -23.8663   23.7851 C   0  0  1  0  0  0  0  0  0  0  0  0
  -25.3925  -20.6961   23.9699 C   0  0  2  0  0  0  0  0  0  0  0  0
  -29.4470  -27.6843   21.2319 C   0  0  2  0  0  0  0  0  0  1  0  0
  -22.3191  -24.2277   24.9165 C   0  0  0  0  0  0  0  0  0  0  0  0
  -28.2323  -15.3200   20.9073 N   0  0  0  0  0  0  0  0  0  0  0  0
  -29.4183  -22.8602   19.2134 N   0  0  0  0  0  0  0  0  0  0  0  0
  -29.4850  -15.6168   20.5216 N   0  0  0  0  0  0  0  0  0  0  0  0
  -23.3852  -24.9779   21.5751 N   0  0  0  0  0  0  0  0  0  0  0  0
  -29.7736  -19.2218   21.7481 N   0  0  0  0  0  0  0  0  0  0  0  0
  -31.2880  -14.8386   19.1972 N   0  0  0  0  0  0  0  0  0  0  0  0
  -27.7673  -23.5262   16.0305 N   0  0  0  0  0  0  0  0  0  0  0  0
  -28.1277  -11.6636   18.6241 N   0  0  0  0  0  0  0  0  0  0  0  0
  -29.0829  -20.5336   19.9137 N   0  0  0  0  0  0  0  0  0  0  0  0
  -20.8276  -26.7442   19.8232 N   0  0  0  0  0  0  0  0  0  0  0  0
  -23.8061  -22.4907   23.8322 N   0  0  0  0  0  0  0  0  0  0  0  0
  -26.1833  -20.2716   22.7802 N   0  3  0  0  0  0  0  0  0  0  0  0
  -30.2618  -12.2890   18.0643 O   0  0  0  0  0  0  0  0  0  0  0  0
  -22.4095  -27.4324   21.3874 O   0  0  0  0  0  0  0  0  0  0  0  0
  -21.7326  -23.4139   22.0838 O   0  0  0  0  0  0  0  0  0  0  0  0
  -26.0582  -23.0185   23.9951 O   0  0  0  0  0  0  0  0  0  0  0  0
  -30.3666  -21.4522   21.6137 O   0  0  0  0  0  0  0  0  0  0  0  0
  -23.0524  -11.6163   20.9206 O   0  0  0  0  0  0  0  0  0  0  0  0
  -28.4142  -28.4027   20.5584 O   0  0  0  0  0  0  0  0  0  1  0  0
  -23.0747   -6.1790   21.8366 F   0  0  0  0  0  0  0  0  0  0  0  0
  -24.1569   -9.8727   19.0814 F   0  0  0  0  0  0  0  0  0  0  0  0
  -28.0180  -21.3750   17.6272 S   0  0  0  0  0  0  0  0  0  0  0  0
  1  2  1  0  0  0  0
  1  5  2  0  0  0  0
  2  6  2  0  0  0  0
  3  8  2  0  0  0  0
  3 15  1  0  0  0  0
  4  9  1  0  0  0  0
  4 15  2  0  0  0  0
  5 17  1  0  0  0  0
  6 19  1  0  0  0  0
  7 10  2  0  0  0  0
  7 18  1  0  0  0  0
  8 21  1  0  0  0  0
  9 21  2  0  0  0  0
 10 22  1  0  0  0  0
 11 12  2  0  0  0  0
 11 23  1  0  0  0  0
 12 24  1  0  0  0  0
 13 20  1  0  0  0  0
 13 22  2  0  0  0  0
 14 24  2  0  0  0  0
 14 25  1  0  0  0  0
 15 26  1  0  0  0  0
 16 26  1  0  0  0  0
 16 28  2  0  0  0  0
 16 33  1  0  0  0  0
 17 19  2  0  0  0  0
 17 38  1  0  0  0  0
 18 20  2  0  0  0  0
 18 39  1  0  0  0  0
 19 47  1  0  0  0  0
 20 40  1  0  0  0  0
 21 80  1  0  0  0  0
 22 81  1  0  0  0  0
 23 25  2  0  0  0  0
 23 80  1  0  0  0  0
 24 82  1  0  0  0  0
 25 83  1  0  0  0  0
 26 63  2  0  0  0  0
 27 29  2  0  0  0  0
 27 31  1  0  0  0  0
 27 64  1  0  0  0  0
 28 65  1  0  0  0  0
 28 68  1  0  0  0  0
 29 69  1  0  0  0  0
 29 84  1  0  0  0  0
 30 64  2  0  0  0  0
 30 71  1  0  0  0  0
 30 84  1  0  0  0  0
 31 32  2  0  0  0  0
 32 58  1  0  0  0  0
 33 70  1  0  0  0  0
 33 75  2  0  0  0  0
 34 48  1  0  0  0  0
 34 72  1  0  0  0  0
 34 76  2  0  0  0  0
 35 59  1  0  0  0  0
 35 66  1  0  0  0  0
 35 77  2  0  0  0  0
 36 60  1  0  0  0  0
 36 73  1  0  0  0  0
 36 78  2  0  0  0  0
 37 67  1  0  0  0  0
 37 71  1  0  0  0  0
 37 79  2  0  0  0  0
 38 41  1  0  0  0  0
 39 48  1  0  0  0  0
 40 66  1  0  0  0  0
 41 43  1  0  0  0  0
 42 44  1  0  0  0  0
 42 45  1  0  0  0  0
 43 47  1  0  0  0  0
 44 49  1  0  0  0  0
 45 67  1  0  0  0  0
 46 49  1  0  0  0  0
 46 67  1  0  0  0  0
 47 72  1  0  0  0  0
 48 66  1  0  0  0  0
 49 65  1  0  0  0  0
 50 58  1  0  0  0  0
 51 60  1  0  0  0  0
 52 61  1  0  0  0  0
 53 62  1  0  0  0  0
 54 62  1  0  0  0  0
 55 62  1  0  0  0  0
 56 74  1  0  0  0  0
 57 58  1  0  0  0  0
 57 61  1  0  0  0  0
 59 62  1  0  0  0  0
 59 73  1  0  0  0  0
 60 74  1  0  0  0  0
 61 81  1  0  0  0  0
 63 65  1  0  0  0  0
M  CHG  1  74   1
M  ISO  4  37 100  61 101  71 100  81 101
M  END
> <Batch ID>
0187

> <Smiles>
CNC(C)C(=O)NC(C(=O)N1Cc2cc([101O:1][101CH:1](C)CC(C)C=Cc3nc([100NH:0][100C:0](=O)N4CCCC(n5nc(-c6ccc(Oc7ccc(F)cc7F)cc6)c(C(N)=O)c5N)C4)sc3N)ccc2CC1C(=O)NC1CCCc2ccccc21)C(C)(C)C

> <Shape>
0.276

> <Color>
0.067

> <Negative vol penalty>
0.000

$$$$

  -OEChem-04052305123D

 88 96  0     1  0  0  0  0  0999 V2000
  -32.1776  -27.5768   16.3461 C   0  0  0  0  0  0  0  0  0  0  0  0
  -30.8806  -27.2498   16.7287 C   0  0  0  0  0  0  0  0  0  0  0  0
  -26.7643  -20.5221   20.3066 C   0  0  0  0  0  0  0  0  0  0  0  0
  -27.4616  -19.9410   22.5456 C   0  0  0  0  0  0  0  0  0  0  0  0
  -33.0157  -28.2513   17.2329 C   0  0  0  0  0  0  0  0  0  0  0  0
  -30.4214  -27.5962   17.9990 C   0  0  0  0  0  0  0  0  0  0  0  0
  -25.7640  -29.5824   17.9063 C   0  0  0  0  0  0  0  0  0  0  0  0
  -26.6369  -19.1685   19.9949 C   0  0  0  0  0  0  0  0  0  0  0  0
  -27.3342  -18.5873   22.2339 C   0  0  0  0  0  0  0  0  0  0  0  0
  -24.6964  -28.6961   17.7699 C   0  0  0  0  0  0  0  0  0  0  0  0
  -24.4018  -16.6885   20.5307 C   0  0  0  0  0  0  0  0  0  0  0  0
  -23.2573  -16.2868   19.8422 C   0  0  0  0  0  0  0  0  0  0  0  0
  -24.3002  -28.8172   20.1464 C   0  0  0  0  0  0  0  0  0  0  0  0
  -24.6330  -15.4707   18.0315 C   0  0  0  0  0  0  0  0  0  0  0  0
  -27.1766  -20.9083   21.5819 C   0  0  0  0  0  0  0  0  0  0  0  0
  -28.1514  -23.2465   21.2811 C   0  0  0  0  0  0  0  0  0  0  0  0
  -32.5634  -28.6146   18.5112 C   0  0  0  0  0  0  0  0  0  0  0  0
  -26.1151  -30.0851   19.1674 C   0  0  0  0  0  0  0  0  0  0  0  0
  -31.2547  -28.2750   18.9043 C   0  0  0  0  0  0  0  0  0  0  0  0
  -25.3710  -29.7118   20.2957 C   0  0  0  0  0  0  0  0  0  0  0  0
  -26.9218  -18.2011   20.9585 C   0  0  0  0  0  0  0  0  0  0  0  0
  -23.9661  -28.3111   18.8905 C   0  0  0  0  0  0  0  0  0  0  0  0
  -25.6620  -16.4815   19.9697 C   0  0  0  0  0  0  0  0  0  0  0  0
  -23.3728  -15.6778   18.5926 C   0  0  0  0  0  0  0  0  0  0  0  0
  -25.7776  -15.8725   18.7201 C   0  0  0  0  0  0  0  0  0  0  0  0
  -27.3089  -22.3064   21.9043 C   0  0  0  0  0  0  0  0  0  0  0  0
  -19.7715  -28.4151   23.0625 C   0  0  0  0  0  0  0  0  0  0  0  0
  -27.9070  -24.4219   21.9483 C   0  0  0  0  0  0  0  0  0  0  0  0
  -19.7301  -27.8303   21.8142 C   0  0  0  0  0  0  0  0  0  0  0  0
  -21.4884  -27.0667   23.2729 C   0  0  0  0  0  0  0  0  0  0  0  0
  -29.0724  -23.0728   20.1961 C   0  0  0  0  0  0  0  0  0  0  0  0
  -28.6991  -29.9137   21.0105 C   0  0  0  0  0  0  0  0  0  0  0  0
  -20.0254  -28.0146   18.7000 C   0  0  0  0  0  0  0  0  0  0  0  0
  -27.0460  -32.0097   22.8535 C   0  0  0  0  0  0  0  0  0  0  0  0
  -24.0225  -33.2875   23.7876 C   0  0  0  0  0  0  0  0  0  0  0  0
  -23.2076  -26.4736   25.0161 C   0  0  0  0  0  0  0  0  0  0  0  0
  -33.5214  -29.3011   19.4523 C   0  0  0  0  0  0  0  0  0  0  0  0
  -27.2525  -31.0611   19.2939 C   0  0  0  0  0  0  0  0  0  0  0  0
  -25.6946  -30.2388   21.6690 C   0  0  0  0  0  0  0  0  0  0  0  0
  -32.8349  -29.9633   20.6442 C   0  0  0  0  0  0  0  0  0  0  0  0
  -26.5343  -26.0853   26.2242 C   0  0  0  0  0  0  0  0  0  0  0  0
  -31.8151  -29.0154   21.2672 C   0  0  0  0  0  0  0  0  0  0  0  0
  -27.1889  -25.1626   25.1935 C   0  0  0  0  0  0  0  0  0  0  0  0
  -25.0732  -25.7136   26.4711 C   0  0  0  0  0  0  0  0  0  0  0  0
  -24.8977  -24.7002   24.2325 C   0  0  0  0  0  0  0  0  0  0  0  0
  -30.7119  -28.6555   20.2647 C   0  0  1  0  0  0  0  0  0  0  0  0
  -27.8447  -31.1098   20.6990 C   0  0  1  0  0  0  0  0  0  0  0  0
  -26.3515  -25.0760   23.9024 C   0  0  2  0  0  0  0  0  0  0  0  0
  -18.8480  -29.4501   23.5737 C   0  0  0  0  0  0  0  0  0  0  0  0
  -22.3933  -34.8070   24.9427 C   0  0  0  0  0  0  0  0  0  0  0  0
  -15.1885  -26.7675   18.1974 C   0  0  0  0  0  0  0  0  0  0  0  0
  -16.9675  -25.1386   18.8403 C   0  0  0  0  0  0  0  0  0  0  0  0
  -16.0160  -26.6760   20.5617 C   0  0  0  0  0  0  0  0  0  0  0  0
  -27.4871  -30.1049   25.1960 C   0  0  0  0  0  0  0  0  0  0  0  0
  -25.6773  -31.3161   26.4313 C   0  0  0  0  0  0  0  0  0  0  0  0
  -27.7512  -32.5276   25.7574 C   0  0  0  0  0  0  0  0  0  0  0  0
  -24.1012  -35.2474   21.5715 C   0  0  0  0  0  0  0  0  0  0  0  0
  -20.7628  -27.0663   17.7615 C   0  0  0  0  0  0  0  0  0  0  0  0
  -17.5620  -27.5712   18.7437 C   0  0  0  0  0  0  0  0  0  0  0  0
  -22.2107  -27.4678   17.5254 C   0  0  0  0  0  0  0  0  0  1  0  0
  -18.8845  -27.4014   19.5062 C   0  0  2  0  0  0  0  0  0  0  0  0
  -26.0603  -31.8872   23.9903 C   0  0  1  0  0  0  0  0  0  0  0  0
  -23.5392  -34.7177   23.9468 C   0  0  2  0  0  0  0  0  0  0  0  0
  -16.4270  -26.5628   19.0830 C   0  0  0  0  0  0  0  0  0  0  0  0
  -26.7388  -31.4473   25.3183 C   0  0  0  0  0  0  0  0  0  0  0  0
  -26.5837  -22.8386   22.8916 N   0  0  0  0  0  0  0  0  0  0  0  0
  -20.7789  -27.9783   23.9005 N   0  0  0  0  0  0  0  0  0  0  0  0
  -26.9698  -24.1259   22.8940 N   0  0  0  0  0  0  0  0  0  0  0  0
  -26.8196  -31.1856   21.7420 N   0  0  0  0  0  0  0  0  0  0  0  0
  -24.3412  -25.6548   25.2040 N   0  0  0  0  0  0  0  0  0  0  0  0
  -28.4046  -25.6695   21.8126 N   0  0  0  0  0  0  0  0  0  0  0  0
  -30.3964  -22.7221   20.4933 N   0  0  0  0  0  0  0  0  0  0  0  0
  -18.8366  -28.0750   20.7861 N   0  0  0  0  0  0  0  0  0  0  0  0
  -22.6129  -26.3556   23.7603 N   0  0  0  0  0  0  0  0  0  0  0  0
  -29.7631  -29.7418   20.1458 N   0  0  0  0  0  0  0  0  0  0  0  0
  -25.3670  -33.1684   24.0693 N   0  0  0  0  0  0  0  0  0  0  0  0
  -23.0677  -35.2538   22.6387 N   0  3  0  0  0  0  0  0  0  0  0  0
  -28.7354  -23.2401   18.9995 O   0  0  0  0  0  0  0  0  0  0  0  0
  -28.4150  -29.2005   21.9657 O   0  0  0  0  0  0  0  0  0  0  0  0
  -20.3162  -29.2074   18.7902 O   0  0  0  0  0  0  0  0  0  0  0  0
  -27.9782  -32.8123   22.9453 O   0  0  0  0  0  0  0  0  0  0  0  0
  -23.2807  -32.3673   23.4509 O   0  0  0  0  0  0  0  0  0  0  0  0
  -22.8109  -27.2441   25.8942 O   0  0  0  0  0  0  0  0  0  0  0  0
  -26.7974  -16.8802   20.6548 O   0  0  0  0  0  0  0  0  0  0  0  0
  -22.9167  -27.4396   18.7593 O   0  0  0  0  0  0  0  0  0  1  0  0
  -22.2736  -15.2907   17.9322 F   0  0  0  0  0  0  0  0  0  0  0  0
  -26.9856  -15.6698   18.1765 F   0  0  0  0  0  0  0  0  0  0  0  0
  -21.0004  -26.6868   21.6722 S   0  0  0  0  0  0  0  0  0  0  0  0
  1  2  1  0  0  0  0
  1  5  2  0  0  0  0
  2  6  2  0  0  0  0
  3  8  2  0  0  0  0
  3 15  1  0  0  0  0
  4  9  1  0  0  0  0
  4 15  2  0  0  0  0
  5 17  1  0  0  0  0
  6 19  1  0  0  0  0
  7 10  2  0  0  0  0
  7 18  1  0  0  0  0
  8 21  1  0  0  0  0
  9 21  2  0  0  0  0
 10 22  1  0  0  0  0
 11 12  2  0  0  0  0
 11 23  1  0  0  0  0
 12 24  1  0  0  0  0
 13 20  1  0  0  0  0
 13 22  2  0  0  0  0
 14 24  2  0  0  0  0
 14 25  1  0  0  0  0
 15 26  1  0  0  0  0
 16 26  1  0  0  0  0
 16 28  2  0  0  0  0
 16 31  1  0  0  0  0
 17 19  2  0  0  0  0
 17 37  1  0  0  0  0
 18 20  2  0  0  0  0
 18 38  1  0  0  0  0
 19 46  1  0  0  0  0
 20 39  1  0  0  0  0
 21 84  1  0  0  0  0
 22 85  1  0  0  0  0
 23 25  2  0  0  0  0
 23 84  1  0  0  0  0
 24 86  1  0  0  0  0
 25 87  1  0  0  0  0
 26 66  2  0  0  0  0
 27 29  2  0  0  0  0
 27 49  1  0  0  0  0
 27 67  1  0  0  0  0
 28 68  1  0  0  0  0
 28 71  1  0  0  0  0
 29 73  1  0  0  0  0
 29 88  1  0  0  0  0
 30 67  2  0  0  0  0
 30 74  1  0  0  0  0
 30 88  1  0  0  0  0
 31 72  1  0  0  0  0
 31 78  2  0  0  0  0
 32 47  1  0  0  0  0
 32 75  1  0  0  0  0
 32 79  2  0  0  0  0
 33 58  1  0  0  0  0
 33 61  1  0  0  0  0
 33 80  2  0  0  0  0
 34 62  1  0  0  0  0
 34 69  1  0  0  0  0
 34 81  2  0  0  0  0
 35 63  1  0  0  0  0
 35 76  1  0  0  0  0
 35 82  2  0  0  0  0
 36 70  1  0  0  0  0
 36 74  1  0  0  0  0
 36 83  2  0  0  0  0
 37 40  1  0  0  0  0
 38 47  1  0  0  0  0
 39 69  1  0  0  0  0
 40 42  1  0  0  0  0
 41 43  1  0  0  0  0
 41 44  1  0  0  0  0
 42 46  1  0  0  0  0
 43 48  1  0  0  0  0
 44 70  1  0  0  0  0
 45 48  1  0  0  0  0
 45 70  1  0  0  0  0
 46 75  1  0  0  0  0
 47 69  1  0  0  0  0
 48 68  1  0  0  0  0
 50 63  1  0  0  0  0
 51 64  1  0  0  0  0
 52 64  1  0  0  0  0
 53 64  1  0  0  0  0
 54 65  1  0  0  0  0
 55 65  1  0  0  0  0
 56 65  1  0  0  0  0
 57 77  1  0  0  0  0
 58 60  1  0  0  0  0
 59 61  1  0  0  0  0
 59 64  1  0  0  0  0
 60 85  1  0  0  0  0
 61 73  1  0  0  0  0
 62 65  1  0  0  0  0
 62 76  1  0  0  0  0
 63 77  1  0  0  0  0
 66 68  1  0  0  0  0
M  CHG  1  77   1
M  ISO  4  36 100  60 101  74 100  85 101
M  END
> <Batch ID>
0187

> <Smiles>
CNC(C)C(=O)NC(C(=O)N1Cc2cc([101O:1][101CH2:1]CC(=O)C(CC(C)(C)C)Nc3sc([100NH:0][100C:0](=O)N4CCCC(n5nc(-c6ccc(Oc7ccc(F)cc7F)cc6)c(C(N)=O)c5N)C4)nc3C)ccc2CC1C(=O)NC1CCCc2ccccc21)C(C)(C)C

> <Shape>
0.195

> <Color>
0.062

> <Negative vol penalty>
0.000

$$$$

  -OEChem-04052305122D

  0  0  0     0  0  0  0  0  0999 V2000
M  END
$$$$

  -OEChem-04052305123D

 86 94  0     1  0  0  0  0  0999 V2000
  -21.3016  -31.7973   19.9960 C   0  0  0  0  0  0  0  0  0  0  0  0
  -21.9089  -31.6169   18.7574 C   0  0  0  0  0  0  0  0  0  0  0  0
  -24.1871   -9.6432   22.0951 C   0  0  0  0  0  0  0  0  0  0  0  0
  -23.0527  -10.1570   20.0248 C   0  0  0  0  0  0  0  0  0  0  0  0
  -21.9854  -31.4572   21.1625 C   0  0  0  0  0  0  0  0  0  0  0  0
  -23.2009  -31.0973   18.6847 C   0  0  0  0  0  0  0  0  0  0  0  0
  -24.5623  -25.0433   15.0258 C   0  0  0  0  0  0  0  0  0  0  0  0
  -23.3446   -8.5479   22.2849 C   0  0  0  0  0  0  0  0  0  0  0  0
  -22.2102   -9.0617   20.2146 C   0  0  0  0  0  0  0  0  0  0  0  0
  -24.9394  -24.0070   14.1715 C   0  0  0  0  0  0  0  0  0  0  0  0
  -23.0734   -5.3833   21.1253 C   0  0  0  0  0  0  0  0  0  0  0  0
  -23.6545   -4.1802   21.5256 C   0  0  0  0  0  0  0  0  0  0  0  0
  -27.2285  -24.2037   14.9258 C   0  0  0  0  0  0  0  0  0  0  0  0
  -22.3099   -4.1986   23.5328 C   0  0  0  0  0  0  0  0  0  0  0  0
  -24.0411  -10.4478   20.9650 C   0  0  0  0  0  0  0  0  0  0  0  0
  -26.1468  -11.5953   20.0949 C   0  0  0  0  0  0  0  0  0  0  0  0
  -23.2827  -30.9241   21.1036 C   0  0  0  0  0  0  0  0  0  0  0  0
  -25.5152  -25.6542   15.8457 C   0  0  0  0  0  0  0  0  0  0  0  0
  -23.9031  -30.7510   19.8516 C   0  0  0  0  0  0  0  0  0  0  0  0
  -26.8544  -25.2339   15.7927 C   0  0  0  0  0  0  0  0  0  0  0  0
  -22.3561   -8.2571   21.3447 C   0  0  0  0  0  0  0  0  0  0  0  0
  -26.2693  -23.5884   14.1215 C   0  0  0  0  0  0  0  0  0  0  0  0
  -22.1106   -5.9942   21.9288 C   0  0  0  0  0  0  0  0  0  0  0  0
  -23.2728   -3.5878   22.7294 C   0  0  0  0  0  0  0  0  0  0  0  0
  -21.7288   -5.4018   23.1325 C   0  0  0  0  0  0  0  0  0  0  0  0
  -24.9108  -11.5797   20.7686 C   0  0  0  0  0  0  0  0  0  0  0  0
  -24.0375  -20.5519   17.7050 C   0  0  0  0  0  0  0  0  0  0  0  0
  -23.5364  -19.2736   17.8354 C   0  0  0  0  0  0  0  0  0  0  0  0
  -26.5706  -12.8987   20.1852 C   0  0  0  0  0  0  0  0  0  0  0  0
  -25.1580  -19.5915   16.0827 C   0  0  0  0  0  0  0  0  0  0  0  0
  -26.8490  -10.5272   19.4456 C   0  0  0  0  0  0  0  0  0  0  0  0
  -26.2343  -28.2413   18.4659 C   0  0  0  0  0  0  0  0  0  0  0  0
  -27.8663  -25.7502   19.2018 C   0  0  0  0  0  0  0  0  0  0  0  0
  -29.1705  -22.6743   19.8911 C   0  0  0  0  0  0  0  0  0  0  0  0
  -23.6718  -18.0884   20.9026 C   0  0  0  0  0  0  0  0  0  0  0  0
  -24.0001  -30.6155   22.3939 C   0  0  0  0  0  0  0  0  0  0  0  0
  -25.1657  -26.8155   16.7362 C   0  0  0  0  0  0  0  0  0  0  0  0
  -27.8516  -25.9434   16.6674 C   0  0  0  0  0  0  0  0  0  0  0  0
  -25.2232  -29.7206   22.2117 C   0  0  0  0  0  0  0  0  0  0  0  0
  -26.2326  -16.7603   22.9895 C   0  0  0  0  0  0  0  0  0  0  0  0
  -26.0771  -30.2138   21.0479 C   0  0  0  0  0  0  0  0  0  0  0  0
  -26.2957  -15.2834   22.5962 C   0  0  0  0  0  0  0  0  0  0  0  0
  -24.8014  -17.2920   22.9584 C   0  0  0  0  0  0  0  0  0  0  0  0
  -24.1498  -15.5954   21.2937 C   0  0  0  0  0  0  0  0  0  0  0  0
  -25.2939  -30.1668   19.7304 C   0  0  1  0  0  0  0  0  0  0  0  0
  -25.9590  -26.8246   18.0552 C   0  0  1  0  0  0  0  0  0  0  0  0
  -25.5795  -15.0289   21.2562 C   0  0  2  0  0  0  0  0  0  0  0  0
  -23.6703  -21.7181   18.5341 C   0  0  0  0  0  0  0  0  0  0  0  0
  -30.6002  -21.4714   21.5663 C   0  0  0  0  0  0  0  0  0  0  0  0
  -25.8760  -20.6278   12.1413 C   0  0  0  0  0  0  0  0  0  0  0  0
  -30.3531  -27.0535   18.0096 C   0  0  0  0  0  0  0  0  0  0  0  0
  -31.7116  -25.1933   18.9907 C   0  0  0  0  0  0  0  0  0  0  0  0
  -30.4329  -26.7253   20.4876 C   0  0  0  0  0  0  0  0  0  0  0  0
  -26.9794  -20.8150   20.5992 C   0  0  0  0  0  0  0  0  0  0  0  0
  -26.8373  -20.4729   14.4614 C   0  0  0  0  0  0  0  0  0  0  0  0
  -22.5455  -18.7329   18.7871 C   0  0  1  0  0  0  0  0  0  0  0  0
  -29.1835  -25.0241   19.0959 C   0  0  1  0  0  0  0  0  0  0  0  0
  -29.1826  -21.8473   21.1641 C   0  0  2  0  0  0  0  0  0  0  0  0
  -26.0003  -21.3093   13.4962 C   0  0  1  0  0  0  0  0  0  1  0  0
  -30.3987  -25.9935   19.1282 C   0  0  0  0  0  0  0  0  0  0  0  0
  -21.2877  -18.1565   18.1188 C   0  0  0  0  0  0  0  0  0  0  0  0
  -24.5715  -12.7780   21.2513 N   0  0  0  0  0  0  0  0  0  0  0  0
  -24.9677  -20.7360   16.7008 N   0  0  0  0  0  0  0  0  0  0  0  0
  -25.6007  -13.5587   20.8806 N   0  0  0  0  0  0  0  0  0  0  0  0
  -27.2771  -26.1697   18.0029 N   0  0  0  0  0  0  0  0  0  0  0  0
  -24.1794  -17.0201   21.6602 N   0  0  0  0  0  0  0  0  0  0  0  0
  -27.6747  -13.5330   19.7368 N   0  0  0  0  0  0  0  0  0  0  0  0
  -26.2713   -9.2503   19.4461 N   0  0  0  0  0  0  0  0  0  0  0  0
  -26.0286  -19.4135   15.0205 N   0  0  0  0  0  0  0  0  0  0  0  0
  -25.2319  -28.8112   19.2273 N   0  0  0  0  0  0  0  0  0  0  0  0
  -29.1864  -24.0265   20.1604 N   0  0  0  0  0  0  0  0  0  0  0  0
  -23.1046  -17.7441   19.6817 N   0  0  0  0  0  0  0  0  0  0  0  0
  -28.3996  -20.5935   20.9748 N   0  3  0  0  0  0  0  0  0  0  0  0
  -27.9638  -10.6965   18.8958 O   0  0  0  0  0  0  0  0  0  0  0  0
  -27.2798  -28.7785   18.1194 O   0  0  0  0  0  0  0  0  0  0  0  0
  -27.3736  -25.9464   20.3162 O   0  0  0  0  0  0  0  0  0  0  0  0
  -29.1527  -22.1710   18.7700 O   0  0  0  0  0  0  0  0  0  0  0  0
  -23.7254  -19.2628   21.2833 O   0  0  0  0  0  0  0  0  0  0  0  0
  -21.5340   -7.1883   21.5295 O   0  0  0  0  0  0  0  0  0  0  0  0
  -26.6297  -22.5731   13.2885 O   0  0  0  0  0  0  0  0  0  1  0  0
  -23.8298   -2.4316   23.1129 F   0  0  0  0  0  0  0  0  0  0  0  0
  -20.8035   -5.9833   23.9080 F   0  0  0  0  0  0  0  0  0  0  0  0
  -20.6093  -19.0966   17.4280 F   0  0  0  0  0  0  0  0  0  0  0  0
  -21.5873  -17.1558   17.2582 F   0  0  0  0  0  0  0  0  0  0  0  0
  -20.4524  -17.6432   19.0499 F   0  0  0  0  0  0  0  0  0  0  0  0
  -24.2507  -18.2528   16.6568 S   0  0  0  0  0  0  0  0  0  0  0  0
  1  2  1  0  0  0  0
  1  5  2  0  0  0  0
  2  6  2  0  0  0  0
  3  8  2  0  0  0  0
  3 15  1  0  0  0  0
  4  9  1  0  0  0  0
  4 15  2  0  0  0  0
  5 17  1  0  0  0  0
  6 19  1  0  0  0  0
  7 10  2  0  0  0  0
  7 18  1  0  0  0  0
  8 21  1  0  0  0  0
  9 21  2  0  0  0  0
 10 22  1  0  0  0  0
 11 12  2  0  0  0  0
 11 23  1  0  0  0  0
 12 24  1  0  0  0  0
 13 20  1  0  0  0  0
 13 22  2  0  0  0  0
 14 24  2  0  0  0  0
 14 25  1  0  0  0  0
 15 26  1  0  0  0  0
 16 26  1  0  0  0  0
 16 29  2  0  0  0  0
 16 31  1  0  0  0  0
 17 19  2  0  0  0  0
 17 36  1  0  0  0  0
 18 20  2  0  0  0  0
 18 37  1  0  0  0  0
 19 45  1  0  0  0  0
 20 38  1  0  0  0  0
 21 79  1  0  0  0  0
 22 80  1  0  0  0  0
 23 25  2  0  0  0  0
 23 79  1  0  0  0  0
 24 81  1  0  0  0  0
 25 82  1  0  0  0  0
 26 62  2  0  0  0  0
 27 28  2  0  0  0  0
 27 48  1  0  0  0  0
 27 63  1  0  0  0  0
 28 56  1  0  0  0  0
 28 86  1  0  0  0  0
 29 64  1  0  0  0  0
 29 67  1  0  0  0  0
 30 63  2  0  0  0  0
 30 69  1  0  0  0  0
 30 86  1  0  0  0  0
 31 68  1  0  0  0  0
 31 74  2  0  0  0  0
 32 46  1  0  0  0  0
 32 70  1  0  0  0  0
 32 75  2  0  0  0  0
 33 57  1  0  0  0  0
 33 65  1  0  0  0  0
 33 76  2  0  0  0  0
 34 58  1  0  0  0  0
 34 71  1  0  0  0  0
 34 77  2  0  0  0  0
 35 66  1  0  0  0  0
 35 72  1  0  0  0  0
 35 78  2  0  0  0  0
 36 39  1  0  0  0  0
 37 46  1  0  0  0  0
 38 65  1  0  0  0  0
 39 41  1  0  0  0  0
 40 42  1  0  0  0  0
 40 43  1  0  0  0  0
 41 45  1  0  0  0  0
 42 47  1  0  0  0  0
 43 66  1  0  0  0  0
 44 47  1  0  0  0  0
 44 66  1  0  0  0  0
 45 70  1  0  0  0  0
 46 65  1  0  0  0  0
 47 64  1  0  0  0  0
 49 58  1  0  0  0  0
 50 59  1  0  0  0  0
 51 60  1  0  0  0  0
 52 60  1  0  0  0  0
 53 60  1  0  0  0  0
 54 73  1  0  0  0  0
 55 59  1  0  0  0  0
 55 69  1  0  0  0  0
 56 61  1  0  0  0  0
 56 72  1  0  0  0  0
 57 60  1  0  0  0  0
 57 71  1  0  0  0  0
 58 73  1  0  0  0  0
 59 80  1  0  0  0  0
 61 83  1  0  0  0  0
 61 84  1  0  0  0  0
 61 85  1  0  0  0  0
 62 64  1  0  0  0  0
M  CHG  1  73   1
M  ISO  4  35 100  59 101  72 100  80 101
M  END
> <Batch ID>
0187

> <Smiles>
CNC(C)C(=O)NC(C(=O)N1Cc2cc([101O:1][101CH:1](C)CNc3nc(C)c(C([100NH:0][100C:0](=O)N4CCCC(n5nc(-c6ccc(Oc7ccc(F)cc7F)cc6)c(C(N)=O)c5N)C4)C(F)(F)F)s3)ccc2CC1C(=O)NC1CCCc2ccccc21)C(C)(C)C

> <Shape>
0.227

> <Color>
0.086

> <Negative vol penalty>
0.000

$$$$

  -OEChem-04052305123D

 82 90  0     1  0  0  0  0  0999 V2000
  -28.7918  -37.9054   24.8237 C   0  0  0  0  0  0  0  0  0  0  0  0
  -29.2207  -36.6219   24.5013 C   0  0  0  0  0  0  0  0  0  0  0  0
  -24.2556   -9.3687   21.9711 C   0  0  0  0  0  0  0  0  0  0  0  0
  -24.2751   -8.6135   19.6762 C   0  0  0  0  0  0  0  0  0  0  0  0
  -27.5237  -38.0987   25.3701 C   0  0  0  0  0  0  0  0  0  0  0  0
  -28.3821  -35.5307   24.7261 C   0  0  0  0  0  0  0  0  0  0  0  0
  -27.9443  -30.4607   21.3189 C   0  0  0  0  0  0  0  0  0  0  0  0
  -23.1848   -8.5171   22.2423 C   0  0  0  0  0  0  0  0  0  0  0  0
  -23.2042   -7.7618   19.9474 C   0  0  0  0  0  0  0  0  0  0  0  0
  -28.4955  -29.1875   21.4566 C   0  0  0  0  0  0  0  0  0  0  0  0
  -22.7127   -5.2246   22.8501 C   0  0  0  0  0  0  0  0  0  0  0  0
  -22.7686   -4.4647   24.0185 C   0  0  0  0  0  0  0  0  0  0  0  0
  -26.4661  -28.4304   22.5185 C   0  0  0  0  0  0  0  0  0  0  0  0
  -20.7366   -5.5138   24.7980 C   0  0  0  0  0  0  0  0  0  0  0  0
  -28.6168  -21.0904   19.5688 C   0  0  0  0  0  0  0  0  0  0  0  0
  -24.8007   -9.4170   20.6880 C   0  0  0  0  0  0  0  0  0  0  0  0
  -27.2783  -10.0000   20.5163 C   0  0  0  0  0  0  0  0  0  0  0  0
  -26.6654  -37.0104   25.5928 C   0  0  0  0  0  0  0  0  0  0  0  0
  -26.6517  -30.7315   21.7905 C   0  0  0  0  0  0  0  0  0  0  0  0
  -27.1018  -35.7095   25.2772 C   0  0  0  0  0  0  0  0  0  0  0  0
  -25.8998  -29.7071   22.3832 C   0  0  0  0  0  0  0  0  0  0  0  0
  -22.6591   -7.7136   21.2305 C   0  0  0  0  0  0  0  0  0  0  0  0
  -27.7575  -28.1729   22.0591 C   0  0  0  0  0  0  0  0  0  0  0  0
  -21.6688   -6.1291   22.6557 C   0  0  0  0  0  0  0  0  0  0  0  0
  -21.7806   -4.6093   24.9924 C   0  0  0  0  0  0  0  0  0  0  0  0
  -20.6808   -6.2737   23.6296 C   0  0  0  0  0  0  0  0  0  0  0  0
  -25.9065  -10.2970   20.4071 C   0  0  0  0  0  0  0  0  0  0  0  0
  -28.5014  -20.4282   20.7731 C   0  0  0  0  0  0  0  0  0  0  0  0
  -27.9115  -11.1591   20.1393 C   0  0  0  0  0  0  0  0  0  0  0  0
  -28.5923  -22.8318   20.9018 C   0  0  0  0  0  0  0  0  0  0  0  0
  -28.4240  -19.0474   21.0399 C   0  0  0  0  0  0  0  0  0  0  0  0
  -28.4693  -18.0216   20.1219 C   0  0  0  0  0  0  0  0  0  0  0  0
  -27.9224   -8.7851   20.9220 C   0  0  0  0  0  0  0  0  0  0  0  0
  -28.3853  -16.6145   20.5623 C   0  0  0  0  0  0  0  0  0  0  0  0
  -25.4260  -32.6826   23.9802 C   0  0  0  0  0  0  0  0  0  0  0  0
  -22.6044  -31.6034   22.7986 C   0  0  0  0  0  0  0  0  0  0  0  0
  -20.9024  -29.1432   21.1562 C   0  0  0  0  0  0  0  0  0  0  0  0
  -25.3219  -37.2639   26.2294 C   0  0  0  0  0  0  0  0  0  0  0  0
  -26.0614  -32.1032   21.6103 C   0  0  0  0  0  0  0  0  0  0  0  0
  -24.5001  -29.9411   22.8879 C   0  0  0  0  0  0  0  0  0  0  0  0
  -24.3507  -36.0946   26.0883 C   0  0  0  0  0  0  0  0  0  0  0  0
  -26.1258  -15.3467   17.9702 C   0  0  0  0  0  0  0  0  0  0  0  0
  -25.0430  -34.7807   26.4365 C   0  0  0  0  0  0  0  0  0  0  0  0
  -25.9464  -13.8990   18.4194 C   0  0  0  0  0  0  0  0  0  0  0  0
  -26.2787  -16.2985   19.1557 C   0  0  0  0  0  0  0  0  0  0  0  0
  -27.1890  -14.4601   20.5458 C   0  0  0  0  0  0  0  0  0  0  0  0
  -26.2116  -34.5032   25.4832 C   0  0  1  0  0  0  0  0  0  0  0  0
  -24.9305  -32.4004   22.5900 C   0  0  1  0  0  0  0  0  0  0  0  0
  -27.0803  -13.4790   19.3681 C   0  0  1  0  0  0  0  0  0  0  0  0
  -18.5994  -28.5269   20.3727 C   0  0  0  0  0  0  0  0  0  0  0  0
  -27.3701  -25.5311   19.7955 C   0  0  0  0  0  0  0  0  0  0  0  0
  -30.5905  -26.2996   21.8754 C   0  0  0  0  0  0  0  0  0  0  0  0
  -21.8299  -30.8723   25.6579 C   0  0  0  0  0  0  0  0  0  0  0  0
  -20.0033  -29.4382   24.7225 C   0  0  0  0  0  0  0  0  0  0  0  0
  -19.9909  -31.8982   24.3090 C   0  0  0  0  0  0  0  0  0  0  0  0
  -21.7563  -29.0831   18.3232 C   0  0  0  0  0  0  0  0  0  0  0  0
  -21.6842  -30.4492   23.1152 C   0  0  1  0  0  0  0  0  0  0  0  0
  -19.9137  -29.1981   20.0056 C   0  0  2  0  0  0  0  0  0  0  0  0
  -28.7288  -25.2812   20.4463 C   0  0  1  0  0  0  0  0  0  0  0  0
  -29.2371  -26.5171   21.2076 C   0  0  1  0  0  0  0  0  0  1  0  0
  -20.9042  -30.6603   24.4435 C   0  0  0  0  0  0  0  0  0  0  0  0
  -28.6687  -22.4688   19.6406 N   0  0  0  0  0  0  0  0  0  0  0  0
  -25.6808  -11.5468   19.9933 N   0  0  0  0  0  0  0  0  0  0  0  0
  -26.9193  -12.0454   19.8393 N   0  0  0  0  0  0  0  0  0  0  0  0
  -27.3294  -15.8439   20.0788 N   0  0  0  0  0  0  0  0  0  0  0  0
  -23.9694  -31.3006   22.6944 N   0  0  0  0  0  0  0  0  0  0  0  0
  -29.2148  -11.4964   20.0386 N   0  0  0  0  0  0  0  0  0  0  0  0
  -27.1220   -7.6905   21.2762 N   0  0  0  0  0  0  0  0  0  0  0  0
  -28.6152  -24.1438   21.3375 N   0  0  0  0  0  0  0  0  0  0  0  0
  -25.7220  -34.0121   24.2129 N   0  0  0  0  0  0  0  0  0  0  0  0
  -20.8327  -30.2729   21.9437 N   0  0  0  0  0  0  0  0  0  0  0  0
  -20.4740  -28.5105   18.8080 N   0  3  0  0  0  0  0  0  0  0  0  0
  -29.1707   -8.6786   20.9848 O   0  0  0  0  0  0  0  0  0  0  0  0
  -29.2538  -16.2082   21.3364 O   0  0  0  0  0  0  0  0  0  0  0  0
  -25.5306  -31.7624   24.7827 O   0  0  0  0  0  0  0  0  0  0  0  0
  -22.1287  -32.7308   22.6424 O   0  0  0  0  0  0  0  0  0  0  0  0
  -21.6581  -28.1916   21.3403 O   0  0  0  0  0  0  0  0  0  0  0  0
  -21.6143   -6.8822   21.4948 O   0  0  0  0  0  0  0  0  0  0  0  0
  -28.2934  -26.9294   22.1954 O   0  0  0  0  0  0  0  0  0  1  0  0
  -21.8335   -3.8785   26.1137 F   0  0  0  0  0  0  0  0  0  0  0  0
  -19.6748   -7.1402   23.4479 F   0  0  0  0  0  0  0  0  0  0  0  0
  -28.4571  -21.5675   22.0542 S   0  0  0  0  0  0  0  0  0  0  0  0
  1  2  1  0  0  0  0
  1  5  2  0  0  0  0
  2  6  2  0  0  0  0
  3  8  2  0  0  0  0
  3 16  1  0  0  0  0
  4  9  1  0  0  0  0
  4 16  2  0  0  0  0
  5 18  1  0  0  0  0
  6 20  1  0  0  0  0
  7 10  2  0  0  0  0
  7 19  1  0  0  0  0
  8 22  1  0  0  0  0
  9 22  2  0  0  0  0
 10 23  1  0  0  0  0
 11 12  2  0  0  0  0
 11 24  1  0  0  0  0
 12 25  1  0  0  0  0
 13 21  1  0  0  0  0
 13 23  2  0  0  0  0
 14 25  2  0  0  0  0
 14 26  1  0  0  0  0
 15 28  2  0  0  0  0
 15 62  1  0  0  0  0
 16 27  1  0  0  0  0
 17 27  1  0  0  0  0
 17 29  2  0  0  0  0
 17 33  1  0  0  0  0
 18 20  2  0  0  0  0
 18 38  1  0  0  0  0
 19 21  2  0  0  0  0
 19 39  1  0  0  0  0
 20 47  1  0  0  0  0
 21 40  1  0  0  0  0
 22 78  1  0  0  0  0
 23 79  1  0  0  0  0
 24 26  2  0  0  0  0
 24 78  1  0  0  0  0
 25 80  1  0  0  0  0
 26 81  1  0  0  0  0
 27 63  2  0  0  0  0
 28 31  1  0  0  0  0
 28 82  1  0  0  0  0
 29 64  1  0  0  0  0
 29 67  1  0  0  0  0
 30 62  2  0  0  0  0
 30 69  1  0  0  0  0
 30 82  1  0  0  0  0
 31 32  2  0  0  0  0
 32 34  1  0  0  0  0
 33 68  1  0  0  0  0
 33 73  2  0  0  0  0
 34 65  1  0  0  0  0
 34 74  2  0  0  0  0
 35 48  1  0  0  0  0
 35 70  1  0  0  0  0
 35 75  2  0  0  0  0
 36 57  1  0  0  0  0
 36 66  1  0  0  0  0
 36 76  2  0  0  0  0
 37 58  1  0  0  0  0
 37 71  1  0  0  0  0
 37 77  2  0  0  0  0
 38 41  1  0  0  0  0
 39 48  1  0  0  0  0
 40 66  1  0  0  0  0
 41 43  1  0  0  0  0
 42 44  1  0  0  0  0
 42 45  1  0  0  0  0
 43 47  1  0  0  0  0
 44 49  1  0  0  0  0
 45 65  1  0  0  0  0
 46 49  1  0  0  0  0
 46 65  1  0  0  0  0
 47 70  1  0  0  0  0
 48 66  1  0  0  0  0
 49 64  1  0  0  0  0
 50 58  1  0  0  0  0
 51 59  1  0  0  0  0
 52 60  1  0  0  0  0
 53 61  1  0  0  0  0
 54 61  1  0  0  0  0
 55 61  1  0  0  0  0
 56 72  1  0  0  0  0
 57 61  1  0  0  0  0
 57 71  1  0  0  0  0
 58 72  1  0  0  0  0
 59 60  1  0  0  0  0
 59 69  1  0  0  0  0
 60 79  1  0  0  0  0
 63 64  1  0  0  0  0
M  CHG  1  72   1
M  ISO  4  32 100  34 100  60 101  79 101
M  END
> <Batch ID>
0187

> <Smiles>
CNC(C)C(=O)NC(C(=O)N1Cc2cc([101O:1][101CH:1](C)C(C)Nc3ncc(C=[100CH:0][100C:0](=O)N4CCCC(n5nc(-c6ccc(Oc7ccc(F)cc7F)cc6)c(C(N)=O)c5N)C4)s3)ccc2CC1C(=O)NC1CCCc2ccccc21)C(C)(C)C

> <Shape>
0.303

> <Color>
0.094

> <Negative vol penalty>
0.000

$$$$

  -OEChem-04052305123D

 86 94  0     1  0  0  0  0  0999 V2000
  -22.7163  -14.3702   27.3262 C   0  0  0  0  0  0  0  0  0  0  0  0
  -23.5447  -15.4066   26.9075 C   0  0  0  0  0  0  0  0  0  0  0  0
  -22.7427  -10.1822   20.2514 C   0  0  0  0  0  0  0  0  0  0  0  0
  -23.7493  -10.0559   22.4441 C   0  0  0  0  0  0  0  0  0  0  0  0
  -21.4157  -14.2763   26.8327 C   0  0  0  0  0  0  0  0  0  0  0  0
  -23.0732  -16.3490   25.9943 C   0  0  0  0  0  0  0  0  0  0  0  0
  -24.2675  -21.0922   27.3062 C   0  0  0  0  0  0  0  0  0  0  0  0
  -21.9154   -9.1051   20.5691 C   0  0  0  0  0  0  0  0  0  0  0  0
  -22.9219   -8.9788   22.7619 C   0  0  0  0  0  0  0  0  0  0  0  0
  -25.5729  -21.5127   27.0552 C   0  0  0  0  0  0  0  0  0  0  0  0
  -19.7153   -8.4997   23.7152 C   0  0  0  0  0  0  0  0  0  0  0  0
  -19.0931   -8.5087   24.9635 C   0  0  0  0  0  0  0  0  0  0  0  0
  -24.8184  -22.6467   25.0642 C   0  0  0  0  0  0  0  0  0  0  0  0
  -20.2004   -6.4374   25.5302 C   0  0  0  0  0  0  0  0  0  0  0  0
  -23.6598  -10.6576   21.1889 C   0  0  0  0  0  0  0  0  0  0  0  0
  -24.2469  -13.1369   21.0631 C   0  0  0  0  0  0  0  0  0  0  0  0
  -20.9248  -15.2236   25.9204 C   0  0  0  0  0  0  0  0  0  0  0  0
  -23.2278  -21.4372   26.4307 C   0  0  0  0  0  0  0  0  0  0  0  0
  -21.7652  -16.2669   25.4872 C   0  0  0  0  0  0  0  0  0  0  0  0
  -23.5003  -22.2314   25.3077 C   0  0  0  0  0  0  0  0  0  0  0  0
  -22.0049   -8.5035   21.8243 C   0  0  0  0  0  0  0  0  0  0  0  0
  -25.8490  -22.2876   25.9326 C   0  0  0  0  0  0  0  0  0  0  0  0
  -20.5800   -7.4596   23.3743 C   0  0  0  0  0  0  0  0  0  0  0  0
  -19.3357   -7.4776   25.8711 C   0  0  0  0  0  0  0  0  0  0  0  0
  -20.8226   -6.4285   24.2818 C   0  0  0  0  0  0  0  0  0  0  0  0
  -24.5151  -11.7698   20.8610 C   0  0  0  0  0  0  0  0  0  0  0  0
  -30.4513  -17.1692   23.7023 C   0  0  0  0  0  0  0  0  0  0  0  0
  -30.6764  -17.2711   22.3455 C   0  0  0  0  0  0  0  0  0  0  0  0
  -25.3639  -13.7798   20.5883 C   0  0  0  0  0  0  0  0  0  0  0  0
  -29.5373  -19.1337   23.3631 C   0  0  0  0  0  0  0  0  0  0  0  0
  -23.0914  -13.7692   21.6295 C   0  0  0  0  0  0  0  0  0  0  0  0
  -21.2097  -19.8086   24.5926 C   0  0  0  0  0  0  0  0  0  0  0  0
  -19.9073  -22.7381   24.0984 C   0  0  0  0  0  0  0  0  0  0  0  0
  -20.3194  -26.1258   24.0773 C   0  0  0  0  0  0  0  0  0  0  0  0
  -28.3716  -20.9201   24.6988 C   0  0  0  0  0  0  0  0  0  0  0  0
  -30.9107  -14.2298   20.1687 C   0  0  0  0  0  0  0  0  0  0  0  0
  -19.5276  -15.0536   25.3786 C   0  0  0  0  0  0  0  0  0  0  0  0
  -21.8207  -20.9981   26.7298 C   0  0  0  0  0  0  0  0  0  0  0  0
  -22.4163  -22.6460   24.3477 C   0  0  0  0  0  0  0  0  0  0  0  0
  -18.9806  -16.3070   24.7003 C   0  0  0  0  0  0  0  0  0  0  0  0
  -29.2732  -12.0324   17.8956 C   0  0  0  0  0  0  0  0  0  0  0  0
  -20.0206  -16.8990   23.7544 C   0  0  0  0  0  0  0  0  0  0  0  0
  -27.8700  -11.8763   18.4844 C   0  0  0  0  0  0  0  0  0  0  0  0
  -30.3360  -12.1293   18.9878 C   0  0  0  0  0  0  0  0  0  0  0  0
  -28.6865  -13.0164   20.5897 C   0  0  0  0  0  0  0  0  0  0  0  0
  -21.2819  -17.3227   24.5167 C   0  0  1  0  0  0  0  0  0  0  0  0
  -20.9260  -20.9766   25.4943 C   0  0  1  0  0  0  0  0  0  0  0  0
  -27.5747  -12.9708   19.5276 C   0  0  2  0  0  0  0  0  0  0  0  0
  -30.8424  -16.0365   24.5660 C   0  0  0  0  0  0  0  0  0  0  0  0
  -28.9054  -25.7784   23.1063 C   0  0  0  0  0  0  0  0  0  0  0  0
  -19.0860  -28.2573   23.5947 C   0  0  0  0  0  0  0  0  0  0  0  0
  -29.8507  -23.5713   24.9649 C   0  0  0  0  0  0  0  0  0  0  0  0
  -20.1868  -22.2192   21.1046 C   0  0  0  0  0  0  0  0  0  0  0  0
  -19.8518  -24.6703   20.7192 C   0  0  0  0  0  0  0  0  0  0  0  0
  -18.0429  -23.3171   21.7774 C   0  0  0  0  0  0  0  0  0  0  0  0
  -20.6631  -27.0895   26.8543 C   0  0  0  0  0  0  0  0  0  0  0  0
  -31.3369  -16.3317   21.4175 C   0  0  0  0  0  0  0  0  0  0  0  0
  -27.9770  -24.7066   23.6629 C   0  0  0  0  0  0  0  0  0  0  0  0
  -20.1278  -23.8521   23.1037 C   0  0  1  0  0  0  0  0  0  0  0  0
  -19.4783  -27.2465   24.6611 C   0  0  2  0  0  0  0  0  0  0  0  0
  -27.7129  -22.2792   24.4556 C   0  0  2  0  0  0  0  0  0  1  0  0
  -28.6943  -23.3756   23.9808 C   0  0  2  0  0  0  0  0  0  0  0  0
  -19.5733  -23.5054   21.6931 C   0  0  0  0  0  0  0  0  0  0  0  0
  -25.7088  -11.5558   20.3013 N   0  0  0  0  0  0  0  0  0  0  0  0
  -29.7985  -18.2365   24.2877 N   0  0  0  0  0  0  0  0  0  0  0  0
  -26.2005  -12.7970   20.1475 N   0  0  0  0  0  0  0  0  0  0  0  0
  -21.0576  -22.1865   24.6801 N   0  0  0  0  0  0  0  0  0  0  0  0
  -29.9973  -13.1867   19.9434 N   0  0  0  0  0  0  0  0  0  0  0  0
  -25.7022  -15.0843   20.5090 N   0  0  0  0  0  0  0  0  0  0  0  0
  -22.0342  -12.9599   22.0674 N   0  0  0  0  0  0  0  0  0  0  0  0
  -28.8817  -20.3773   23.5256 N   0  0  0  0  0  0  0  0  0  0  0  0
  -21.0604  -18.5777   25.2025 N   0  0  0  0  0  0  0  0  0  0  0  0
  -19.5446  -25.0505   23.6970 N   0  0  0  0  0  0  0  0  0  0  0  0
  -30.5087  -15.1940   21.0848 N   0  0  0  0  0  0  0  0  0  0  0  0
  -20.2347  -27.9596   25.7290 N   0  3  0  0  0  0  0  0  0  0  0  0
  -22.9923  -15.0157   21.7288 O   0  0  0  0  0  0  0  0  0  0  0  0
  -21.5382  -20.0093   23.4292 O   0  0  0  0  0  0  0  0  0  0  0  0
  -18.7565  -22.3757   24.3553 O   0  0  0  0  0  0  0  0  0  0  0  0
  -21.5413  -26.1986   23.9659 O   0  0  0  0  0  0  0  0  0  0  0  0
  -28.3951  -20.4183   25.8197 O   0  0  0  0  0  0  0  0  0  0  0  0
  -32.0013  -14.2995   19.5918 O   0  0  0  0  0  0  0  0  0  0  0  0
  -21.1975   -7.4526   22.1348 O   0  0  0  0  0  0  0  0  0  0  0  0
  -27.1223  -22.6989   25.6850 O   0  0  0  0  0  0  0  0  0  1  0  0
  -18.7393   -7.4871   27.0704 F   0  0  0  0  0  0  0  0  0  0  0  0
  -21.6532   -5.4272   23.9604 F   0  0  0  0  0  0  0  0  0  0  0  0
  -30.0478  -18.7587   21.7682 S   0  0  0  0  0  0  0  0  0  0  0  0
  1  2  1  0  0  0  0
  1  5  2  0  0  0  0
  2  6  2  0  0  0  0
  3  8  2  0  0  0  0
  3 15  1  0  0  0  0
  4  9  1  0  0  0  0
  4 15  2  0  0  0  0
  5 17  1  0  0  0  0
  6 19  1  0  0  0  0
  7 10  2  0  0  0  0
  7 18  1  0  0  0  0
  8 21  1  0  0  0  0
  9 21  2  0  0  0  0
 10 22  1  0  0  0  0
 11 12  2  0  0  0  0
 11 23  1  0  0  0  0
 12 24  1  0  0  0  0
 13 20  1  0  0  0  0
 13 22  2  0  0  0  0
 14 24  2  0  0  0  0
 14 25  1  0  0  0  0
 15 26  1  0  0  0  0
 16 26  1  0  0  0  0
 16 29  2  0  0  0  0
 16 31  1  0  0  0  0
 17 19  2  0  0  0  0
 17 37  1  0  0  0  0
 18 20  2  0  0  0  0
 18 38  1  0  0  0  0
 19 46  1  0  0  0  0
 20 39  1  0  0  0  0
 21 82  1  0  0  0  0
 22 83  1  0  0  0  0
 23 25  2  0  0  0  0
 23 82  1  0  0  0  0
 24 84  1  0  0  0  0
 25 85  1  0  0  0  0
 26 64  2  0  0  0  0
 27 28  2  0  0  0  0
 27 49  1  0  0  0  0
 27 65  1  0  0  0  0
 28 57  1  0  0  0  0
 28 86  1  0  0  0  0
 29 66  1  0  0  0  0
 29 69  1  0  0  0  0
 30 65  2  0  0  0  0
 30 71  1  0  0  0  0
 30 86  1  0  0  0  0
 31 70  1  0  0  0  0
 31 76  2  0  0  0  0
 32 47  1  0  0  0  0
 32 72  1  0  0  0  0
 32 77  2  0  0  0  0
 33 59  1  0  0  0  0
 33 67  1  0  0  0  0
 33 78  2  0  0  0  0
 34 60  1  0  0  0  0
 34 73  1  0  0  0  0
 34 79  2  0  0  0  0
 35 61  1  0  0  0  0
 35 71  1  0  0  0  0
 35 80  2  0  0  0  0
 36 68  1  0  0  0  0
 36 74  1  0  0  0  0
 36 81  2  0  0  0  0
 37 40  1  0  0  0  0
 38 47  1  0  0  0  0
 39 67  1  0  0  0  0
 40 42  1  0  0  0  0
 41 43  1  0  0  0  0
 41 44  1  0  0  0  0
 42 46  1  0  0  0  0
 43 48  1  0  0  0  0
 44 68  1  0  0  0  0
 45 48  1  0  0  0  0
 45 68  1  0  0  0  0
 46 72  1  0  0  0  0
 47 67  1  0  0  0  0
 48 66  1  0  0  0  0
 50 58  1  0  0  0  0
 51 60  1  0  0  0  0
 52 62  1  0  0  0  0
 53 63  1  0  0  0  0
 54 63  1  0  0  0  0
 55 63  1  0  0  0  0
 56 75  1  0  0  0  0
 57 74  1  0  0  0  0
 58 62  1  0  0  0  0
 59 63  1  0  0  0  0
 59 73  1  0  0  0  0
 60 75  1  0  0  0  0
 61 62  1  0  0  0  0
 61 83  1  0  0  0  0
 64 66  1  0  0  0  0
M  CHG  1  75   1
M  ISO  4  36 100  61 101  74 100  83 101
M  END
> <Batch ID>
0187

> <Smiles>
CCC(C)[101CH:1](C(=O)Nc1nc(C)c(C[100NH:0][100C:0](=O)N2CCCC(n3nc(-c4ccc(Oc5ccc(F)cc5F)cc4)c(C(N)=O)c3N)C2)s1)[101O:1]c1ccc2c(c1)CN(C(=O)C(NC(=O)C(C)NC)C(C)(C)C)C(C(=O)NC1CCCc3ccccc31)C2

> <Shape>
0.183

> <Color>
0.143

> <Negative vol penalty>
0.000

$$$$

  -OEChem-04052305123D

 85 93  0     1  0  0  0  0  0999 V2000
  -38.2207  -31.6917   25.5818 C   0  0  0  0  0  0  0  0  0  0  0  0
  -38.0831  -30.4223   25.0297 C   0  0  0  0  0  0  0  0  0  0  0  0
  -23.0002   -9.8916   19.9818 C   0  0  0  0  0  0  0  0  0  0  0  0
  -23.7256   -9.9451   22.2858 C   0  0  0  0  0  0  0  0  0  0  0  0
  -37.1763  -32.6102   25.4839 C   0  0  0  0  0  0  0  0  0  0  0  0
  -36.9005  -30.0701   24.3802 C   0  0  0  0  0  0  0  0  0  0  0  0
  -36.3279  -26.4093   19.5041 C   0  0  0  0  0  0  0  0  0  0  0  0
  -22.2343   -8.7569   20.2493 C   0  0  0  0  0  0  0  0  0  0  0  0
  -22.9596   -8.8104   22.5532 C   0  0  0  0  0  0  0  0  0  0  0  0
  -35.9887  -25.0630   19.3766 C   0  0  0  0  0  0  0  0  0  0  0  0
  -23.2057   -5.4712   22.0843 C   0  0  0  0  0  0  0  0  0  0  0  0
  -23.7939   -4.4550   22.8373 C   0  0  0  0  0  0  0  0  0  0  0  0
  -33.6979  -25.6867   18.9499 C   0  0  0  0  0  0  0  0  0  0  0  0
  -22.0701   -4.6985   24.5125 C   0  0  0  0  0  0  0  0  0  0  0  0
  -23.7459  -10.4857   21.0001 C   0  0  0  0  0  0  0  0  0  0  0  0
  -24.1298  -13.0013   20.8218 C   0  0  0  0  0  0  0  0  0  0  0  0
  -35.9840  -32.2724   24.8244 C   0  0  0  0  0  0  0  0  0  0  0  0
  -35.3508  -27.4056   19.3660 C   0  0  0  0  0  0  0  0  0  0  0  0
  -35.8387  -30.9845   24.2745 C   0  0  0  0  0  0  0  0  0  0  0  0
  -34.0277  -27.0450   19.0735 C   0  0  0  0  0  0  0  0  0  0  0  0
  -22.2140   -8.2163   21.5350 C   0  0  0  0  0  0  0  0  0  0  0  0
  -34.6730  -24.7014   19.1023 C   0  0  0  0  0  0  0  0  0  0  0  0
  -22.0498   -6.1011   22.5454 C   0  0  0  0  0  0  0  0  0  0  0  0
  -23.2261   -4.0686   24.0513 C   0  0  0  0  0  0  0  0  0  0  0  0
  -21.4819   -5.7147   23.7595 C   0  0  0  0  0  0  0  0  0  0  0  0
  -24.5377  -11.6575   20.7243 C   0  0  0  0  0  0  0  0  0  0  0  0
  -30.7343  -19.0727   22.9166 C   0  0  0  0  0  0  0  0  0  0  0  0
  -31.8411  -18.6685   22.2000 C   0  0  0  0  0  0  0  0  0  0  0  0
  -25.2391  -13.7242   20.4566 C   0  0  0  0  0  0  0  0  0  0  0  0
  -30.5797  -16.9026   21.8825 C   0  0  0  0  0  0  0  0  0  0  0  0
  -22.8616  -13.5474   21.2079 C   0  0  0  0  0  0  0  0  0  0  0  0
  -30.4841  -20.2739   23.6432 C   0  0  0  0  0  0  0  0  0  0  0  0
  -34.1513  -29.6503   21.2702 C   0  0  0  0  0  0  0  0  0  0  0  0
  -32.5911  -30.5543   18.5737 C   0  0  0  0  0  0  0  0  0  0  0  0
  -31.3678  -29.6911   15.5069 C   0  0  0  0  0  0  0  0  0  0  0  0
  -30.7181  -14.6884   20.6892 C   0  0  0  0  0  0  0  0  0  0  0  0
  -34.8649  -33.2827   24.7851 C   0  0  0  0  0  0  0  0  0  0  0  0
  -35.7380  -28.8545   19.4799 C   0  0  0  0  0  0  0  0  0  0  0  0
  -32.9452  -28.0771   18.8960 C   0  0  0  0  0  0  0  0  0  0  0  0
  -33.7872  -32.9581   23.7538 C   0  0  0  0  0  0  0  0  0  0  0  0
  -29.6009  -12.2329   18.3654 C   0  0  0  0  0  0  0  0  0  0  0  0
  -33.3880  -31.4886   23.8432 C   0  0  0  0  0  0  0  0  0  0  0  0
  -28.1504  -11.9749   18.7800 C   0  0  0  0  0  0  0  0  0  0  0  0
  -30.5014  -12.4778   19.5749 C   0  0  0  0  0  0  0  0  0  0  0  0
  -28.5858  -13.2668   20.9080 C   0  0  0  0  0  0  0  0  0  0  0  0
  -34.5807  -30.5735   23.5405 C   0  0  1  0  0  0  0  0  0  0  0  0
  -34.5621  -29.7616   19.8292 C   0  0  1  0  0  0  0  0  0  0  0  0
  -27.6281  -13.0789   19.7200 C   0  0  2  0  0  0  0  0  0  0  0  0
  -31.6577  -20.9932   24.2748 C   0  0  0  0  0  0  0  0  0  0  0  0
  -30.1079  -30.6338   13.5520 C   0  0  0  0  0  0  0  0  0  0  0  0
  -34.9362  -18.0069   22.1504 C   0  0  0  0  0  0  0  0  0  0  0  0
  -29.9960  -30.3899   20.1701 C   0  0  0  0  0  0  0  0  0  0  0  0
  -28.7435  -30.3981   18.0023 C   0  0  0  0  0  0  0  0  0  0  0  0
  -30.1529  -32.3571   18.6338 C   0  0  0  0  0  0  0  0  0  0  0  0
  -33.6229  -29.1814   13.6593 C   0  0  0  0  0  0  0  0  0  0  0  0
  -34.2429  -21.2416   20.0883 C   0  0  0  0  0  0  0  0  0  0  0  0
  -35.0123  -20.2071   20.9215 C   0  0  0  0  0  0  0  0  0  0  0  0
  -35.1032  -22.4493   19.7339 C   0  0  0  0  0  0  0  0  0  1  0  0
  -31.2708  -30.2004   17.9329 C   0  0  1  0  0  0  0  0  0  0  0  0
  -31.4796  -30.3657   14.1516 C   0  0  2  0  0  0  0  0  0  0  0  0
  -34.1458  -18.9986   21.3026 C   0  0  2  0  0  0  0  0  0  0  0  0
  -30.0606  -30.8166   18.6900 C   0  0  0  0  0  0  0  0  0  0  0  0
  -25.8070  -11.5313   20.3281 N   0  0  0  0  0  0  0  0  0  0  0  0
  -31.7545  -17.4242   21.6066 N   0  0  0  0  0  0  0  0  0  0  0  0
  -26.2062  -12.8052   20.1733 N   0  0  0  0  0  0  0  0  0  0  0  0
  -33.3724  -29.4803   19.0231 N   0  0  0  0  0  0  0  0  0  0  0  0
  -29.9459  -13.5392   20.4174 N   0  0  0  0  0  0  0  0  0  0  0  0
  -25.4718  -15.0499   20.3533 N   0  0  0  0  0  0  0  0  0  0  0  0
  -21.8303  -12.6630   21.5524 N   0  0  0  0  0  0  0  0  0  0  0  0
  -32.9872  -19.4298   22.0568 N   0  0  0  0  0  0  0  0  0  0  0  0
  -30.0734  -15.6439   21.4740 N   0  0  0  0  0  0  0  0  0  0  0  0
  -34.8227  -30.5135   22.1149 N   0  0  0  0  0  0  0  0  0  0  0  0
  -31.3726  -30.6088   16.5361 N   0  0  0  0  0  0  0  0  0  0  0  0
  -32.2456  -29.5052   13.2063 N   0  3  0  0  0  0  0  0  0  0  0  0
  -22.6442  -14.7826   21.2306 O   0  0  0  0  0  0  0  0  0  0  0  0
  -29.3680  -20.8060   23.8214 O   0  0  0  0  0  0  0  0  0  0  0  0
  -33.2879  -28.8422   21.5917 O   0  0  0  0  0  0  0  0  0  0  0  0
  -32.9203  -31.7395   18.6655 O   0  0  0  0  0  0  0  0  0  0  0  0
  -31.2809  -28.4723   15.6392 O   0  0  0  0  0  0  0  0  0  0  0  0
  -31.8566  -14.8275   20.2349 O   0  0  0  0  0  0  0  0  0  0  0  0
  -21.4666   -7.1093   21.7964 O   0  0  0  0  0  0  0  0  0  0  0  0
  -34.3392  -23.3880   18.9780 O   0  0  0  0  0  0  0  0  0  1  0  0
  -23.7902   -3.0917   24.7735 F   0  0  0  0  0  0  0  0  0  0  0  0
  -20.3708   -6.3154   24.2071 F   0  0  0  0  0  0  0  0  0  0  0  0
  -29.5293  -17.8541   22.8502 S   0  0  0  0  0  0  0  0  0  0  0  0
  1  2  1  0  0  0  0
  1  5  2  0  0  0  0
  2  6  2  0  0  0  0
  3  8  2  0  0  0  0
  3 15  1  0  0  0  0
  4  9  1  0  0  0  0
  4 15  2  0  0  0  0
  5 17  1  0  0  0  0
  6 19  1  0  0  0  0
  7 10  2  0  0  0  0
  7 18  1  0  0  0  0
  8 21  1  0  0  0  0
  9 21  2  0  0  0  0
 10 22  1  0  0  0  0
 11 12  2  0  0  0  0
 11 23  1  0  0  0  0
 12 24  1  0  0  0  0
 13 20  1  0  0  0  0
 13 22  2  0  0  0  0
 14 24  2  0  0  0  0
 14 25  1  0  0  0  0
 15 26  1  0  0  0  0
 16 26  1  0  0  0  0
 16 29  2  0  0  0  0
 16 31  1  0  0  0  0
 17 19  2  0  0  0  0
 17 37  1  0  0  0  0
 18 20  2  0  0  0  0
 18 38  1  0  0  0  0
 19 46  1  0  0  0  0
 20 39  1  0  0  0  0
 21 81  1  0  0  0  0
 22 82  1  0  0  0  0
 23 25  2  0  0  0  0
 23 81  1  0  0  0  0
 24 83  1  0  0  0  0
 25 84  1  0  0  0  0
 26 63  2  0  0  0  0
 27 28  2  0  0  0  0
 27 32  1  0  0  0  0
 27 85  1  0  0  0  0
 28 64  1  0  0  0  0
 28 70  1  0  0  0  0
 29 65  1  0  0  0  0
 29 68  1  0  0  0  0
 30 64  2  0  0  0  0
 30 71  1  0  0  0  0
 30 85  1  0  0  0  0
 31 69  1  0  0  0  0
 31 75  2  0  0  0  0
 32 49  1  0  0  0  0
 32 76  2  0  0  0  0
 33 47  1  0  0  0  0
 33 72  1  0  0  0  0
 33 77  2  0  0  0  0
 34 59  1  0  0  0  0
 34 66  1  0  0  0  0
 34 78  2  0  0  0  0
 35 60  1  0  0  0  0
 35 73  1  0  0  0  0
 35 79  2  0  0  0  0
 36 67  1  0  0  0  0
 36 71  1  0  0  0  0
 36 80  2  0  0  0  0
 37 40  1  0  0  0  0
 38 47  1  0  0  0  0
 39 66  1  0  0  0  0
 40 42  1  0  0  0  0
 41 43  1  0  0  0  0
 41 44  1  0  0  0  0
 42 46  1  0  0  0  0
 43 48  1  0  0  0  0
 44 67  1  0  0  0  0
 45 48  1  0  0  0  0
 45 67  1  0  0  0  0
 46 72  1  0  0  0  0
 47 66  1  0  0  0  0
 48 65  1  0  0  0  0
 50 60  1  0  0  0  0
 51 61  1  0  0  0  0
 52 62  1  0  0  0  0
 53 62  1  0  0  0  0
 54 62  1  0  0  0  0
 55 74  1  0  0  0  0
 56 57  1  0  0  0  0
 56 58  1  0  0  0  0
 57 61  1  0  0  0  0
 58 82  1  0  0  0  0
 59 62  1  0  0  0  0
 59 73  1  0  0  0  0
 60 74  1  0  0  0  0
 61 70  1  0  0  0  0
 63 65  1  0  0  0  0
M  CHG  1  74   1
M  ISO  4  36 100  58 101  71 100  82 101
M  END
> <Batch ID>
0187

> <Smiles>
CNC(C)C(=O)NC(C(=O)N1Cc2cc([101O:1][101CH2:1]CCC(C)Nc3nc([100NH:0][100C:0](=O)N4CCCC(n5nc(-c6ccc(Oc7ccc(F)cc7F)cc6)c(C(N)=O)c5N)C4)sc3C(C)=O)ccc2CC1C(=O)NC1CCCc2ccccc21)C(C)(C)C

> <Shape>
0.176

> <Color>
0.194

> <Negative vol penalty>
0.000

$$$$

  -OEChem-04052305123D

 85 93  0     1  0  0  0  0  0999 V2000
  -39.0818  -24.2650   29.6321 C   0  0  0  0  0  0  0  0  0  0  0  0
  -38.7540  -23.3928   28.5990 C   0  0  0  0  0  0  0  0  0  0  0  0
  -23.0752   -9.8660   19.9422 C   0  0  0  0  0  0  0  0  0  0  0  0
  -23.8350   -9.8755   22.2355 C   0  0  0  0  0  0  0  0  0  0  0  0
  -38.8087  -25.6265   29.5065 C   0  0  0  0  0  0  0  0  0  0  0  0
  -38.1517  -23.8815   27.4401 C   0  0  0  0  0  0  0  0  0  0  0  0
  -40.2022  -21.9606   23.2270 C   0  0  0  0  0  0  0  0  0  0  0  0
  -22.3316   -8.7129   20.1933 C   0  0  0  0  0  0  0  0  0  0  0  0
  -23.0914   -8.7224   22.4867 C   0  0  0  0  0  0  0  0  0  0  0  0
  -39.8259  -20.6670   22.8684 C   0  0  0  0  0  0  0  0  0  0  0  0
  -19.8635   -7.9243   23.0899 C   0  0  0  0  0  0  0  0  0  0  0  0
  -19.1065   -7.8853   24.2608 C   0  0  0  0  0  0  0  0  0  0  0  0
  -38.2740  -21.5712   21.2580 C   0  0  0  0  0  0  0  0  0  0  0  0
  -20.3485   -5.9489   24.9993 C   0  0  0  0  0  0  0  0  0  0  0  0
  -23.8269  -10.4473   20.9633 C   0  0  0  0  0  0  0  0  0  0  0  0
  -24.1680  -12.9725   20.8408 C   0  0  0  0  0  0  0  0  0  0  0  0
  -38.2116  -26.1335   28.3415 C   0  0  0  0  0  0  0  0  0  0  0  0
  -39.6083  -23.0713   22.6104 C   0  0  0  0  0  0  0  0  0  0  0  0
  -37.8691  -25.2508   27.2994 C   0  0  0  0  0  0  0  0  0  0  0  0
  -38.6464  -22.8779   21.6088 C   0  0  0  0  0  0  0  0  0  0  0  0
  -22.3397   -8.1411   21.4655 C   0  0  0  0  0  0  0  0  0  0  0  0
  -38.8596  -20.4721   21.8858 C   0  0  0  0  0  0  0  0  0  0  0  0
  -20.8629   -6.9755   22.8736 C   0  0  0  0  0  0  0  0  0  0  0  0
  -19.3490   -6.8976   25.2155 C   0  0  0  0  0  0  0  0  0  0  0  0
  -21.1054   -5.9879   23.8283 C   0  0  0  0  0  0  0  0  0  0  0  0
  -24.5956  -11.6382   20.7044 C   0  0  0  0  0  0  0  0  0  0  0  0
  -31.8077  -18.7293   22.2443 C   0  0  0  0  0  0  0  0  0  0  0  0
  -25.2599  -13.7219   20.4768 C   0  0  0  0  0  0  0  0  0  0  0  0
  -30.7058  -19.0960   22.9881 C   0  0  0  0  0  0  0  0  0  0  0  0
  -30.5707  -16.9514   21.8997 C   0  0  0  0  0  0  0  0  0  0  0  0
  -22.8973  -13.4883   21.2591 C   0  0  0  0  0  0  0  0  0  0  0  0
  -37.8421  -25.5161   23.6141 C   0  0  0  0  0  0  0  0  0  0  0  0
  -38.2000  -26.5267   20.5525 C   0  0  0  0  0  0  0  0  0  0  0  0
  -35.4986  -19.0790   22.3731 C   0  0  0  0  0  0  0  0  0  0  0  0
  -38.8170  -25.7299   17.2920 C   0  0  0  0  0  0  0  0  0  0  0  0
  -30.7258  -14.7692   20.6506 C   0  0  0  0  0  0  0  0  0  0  0  0
  -37.8925  -27.6059   28.2711 C   0  0  0  0  0  0  0  0  0  0  0  0
  -40.0445  -24.4600   22.9897 C   0  0  0  0  0  0  0  0  0  0  0  0
  -37.9933  -24.0366   20.9021 C   0  0  0  0  0  0  0  0  0  0  0  0
  -37.5943  -28.0975   26.8570 C   0  0  0  0  0  0  0  0  0  0  0  0
  -29.6121  -12.3528   18.2846 C   0  0  0  0  0  0  0  0  0  0  0  0
  -36.6298  -27.1476   26.1539 C   0  0  0  0  0  0  0  0  0  0  0  0
  -28.1726  -12.0613   18.7144 C   0  0  0  0  0  0  0  0  0  0  0  0
  -30.5272  -12.5830   19.4860 C   0  0  0  0  0  0  0  0  0  0  0  0
  -28.6200  -13.3082   20.8666 C   0  0  0  0  0  0  0  0  0  0  0  0
  -37.2375  -25.7464   26.0166 C   0  0  1  0  0  0  0  0  0  0  0  0
  -39.0027  -25.5245   22.6599 C   0  0  1  0  0  0  0  0  0  0  0  0
  -27.6472  -13.1336   19.6889 C   0  0  2  0  0  0  0  0  0  0  0  0
  -32.9892  -20.4789   20.8533 C   0  0  0  0  0  0  0  0  0  0  0  0
  -39.0077  -26.7642   15.0135 C   0  0  0  0  0  0  0  0  0  0  0  0
  -38.8325  -17.1668   22.7371 C   0  0  0  0  0  0  0  0  0  0  0  0
  -35.1610  -26.7573   20.4055 C   0  0  0  0  0  0  0  0  0  0  0  0
  -35.3590  -26.8576   17.9117 C   0  0  0  0  0  0  0  0  0  0  0  0
  -36.4036  -28.6347   19.3165 C   0  0  0  0  0  0  0  0  0  0  0  0
  -41.6340  -24.8676   17.0090 C   0  0  0  0  0  0  0  0  0  0  0  0
  -36.5236  -17.9773   22.1470 C   0  0  0  0  0  0  0  0  0  0  0  0
  -33.0709  -19.5415   22.0563 C   0  0  2  0  0  0  0  0  0  0  0  0
  -37.4372  -26.3279   19.2650 C   0  0  1  0  0  0  0  0  0  0  0  0
  -39.7567  -26.3385   16.2668 C   0  0  2  0  0  0  0  0  0  0  0  0
  -37.9373  -18.3862   22.5597 C   0  0  2  0  0  0  0  0  0  1  0  0
  -36.1009  -27.1223   19.2392 C   0  0  0  0  0  0  0  0  0  0  0  0
  -25.8605  -11.5423   20.2862 N   0  0  0  0  0  0  0  0  0  0  0  0
  -31.7322  -17.4996   21.6197 N   0  0  0  0  0  0  0  0  0  0  0  0
  -26.2371  -12.8259   20.1566 N   0  0  0  0  0  0  0  0  0  0  0  0
  -38.4489  -25.3750   21.3126 N   0  0  0  0  0  0  0  0  0  0  0  0
  -29.9679  -13.6145   20.3624 N   0  0  0  0  0  0  0  0  0  0  0  0
  -25.4699  -15.0534   20.4024 N   0  0  0  0  0  0  0  0  0  0  0  0
  -30.5170  -20.2359   23.6965 N   0  0  0  0  0  0  0  0  0  0  0  0
  -21.8857  -12.5792   21.5973 N   0  0  0  0  0  0  0  0  0  0  0  0
  -30.0782  -15.6948   21.4681 N   0  0  0  0  0  0  0  0  0  0  0  0
  -38.1978  -25.7157   24.9343 N   0  0  0  0  0  0  0  0  0  0  0  0
  -34.2332  -18.6885   21.9583 N   0  0  0  0  0  0  0  0  0  0  0  0
  -38.3583  -26.6727   18.1875 N   0  0  0  0  0  0  0  0  0  0  0  0
  -40.8050  -25.3540   15.8762 N   0  3  0  0  0  0  0  0  0  0  0  0
  -22.6607  -14.7189   21.3152 O   0  0  0  0  0  0  0  0  0  0  0  0
  -36.7077  -25.3429   23.1842 O   0  0  0  0  0  0  0  0  0  0  0  0
  -38.5678  -27.6609   20.8686 O   0  0  0  0  0  0  0  0  0  0  0  0
  -35.7781  -20.1701   22.8619 O   0  0  0  0  0  0  0  0  0  0  0  0
  -38.5168  -24.5381   17.2956 O   0  0  0  0  0  0  0  0  0  0  0  0
  -31.8549  -14.9378   20.1828 O   0  0  0  0  0  0  0  0  0  0  0  0
  -21.6141   -7.0161   21.7109 O   0  0  0  0  0  0  0  0  0  0  0  0
  -38.4900  -19.2105   21.5343 O   0  0  0  0  0  0  0  0  0  1  0  0
  -18.6231   -6.8613   26.3406 F   0  0  0  0  0  0  0  0  0  0  0  0
  -22.0650   -5.0745   23.6266 F   0  0  0  0  0  0  0  0  0  0  0  0
  -29.5201  -17.8595   22.9079 S   0  0  0  0  0  0  0  0  0  0  0  0
  1  2  1  0  0  0  0
  1  5  2  0  0  0  0
  2  6  2  0  0  0  0
  3  8  2  0  0  0  0
  3 15  1  0  0  0  0
  4  9  1  0  0  0  0
  4 15  2  0  0  0  0
  5 17  1  0  0  0  0
  6 19  1  0  0  0  0
  7 10  2  0  0  0  0
  7 18  1  0  0  0  0
  8 21  1  0  0  0  0
  9 21  2  0  0  0  0
 10 22  1  0  0  0  0
 11 12  2  0  0  0  0
 11 23  1  0  0  0  0
 12 24  1  0  0  0  0
 13 20  1  0  0  0  0
 13 22  2  0  0  0  0
 14 24  2  0  0  0  0
 14 25  1  0  0  0  0
 15 26  1  0  0  0  0
 16 26  1  0  0  0  0
 16 28  2  0  0  0  0
 16 31  1  0  0  0  0
 17 19  2  0  0  0  0
 17 37  1  0  0  0  0
 18 20  2  0  0  0  0
 18 38  1  0  0  0  0
 19 46  1  0  0  0  0
 20 39  1  0  0  0  0
 21 81  1  0  0  0  0
 22 82  1  0  0  0  0
 23 25  2  0  0  0  0
 23 81  1  0  0  0  0
 24 83  1  0  0  0  0
 25 84  1  0  0  0  0
 26 62  2  0  0  0  0
 27 29  2  0  0  0  0
 27 57  1  0  0  0  0
 27 63  1  0  0  0  0
 28 64  1  0  0  0  0
 28 67  1  0  0  0  0
 29 68  1  0  0  0  0
 29 85  1  0  0  0  0
 30 63  2  0  0  0  0
 30 70  1  0  0  0  0
 30 85  1  0  0  0  0
 31 69  1  0  0  0  0
 31 75  2  0  0  0  0
 32 47  1  0  0  0  0
 32 71  1  0  0  0  0
 32 76  2  0  0  0  0
 33 58  1  0  0  0  0
 33 65  1  0  0  0  0
 33 77  2  0  0  0  0
 34 56  1  0  0  0  0
 34 72  1  0  0  0  0
 34 78  2  0  0  0  0
 35 59  1  0  0  0  0
 35 73  1  0  0  0  0
 35 79  2  0  0  0  0
 36 66  1  0  0  0  0
 36 70  1  0  0  0  0
 36 80  2  0  0  0  0
 37 40  1  0  0  0  0
 38 47  1  0  0  0  0
 39 65  1  0  0  0  0
 40 42  1  0  0  0  0
 41 43  1  0  0  0  0
 41 44  1  0  0  0  0
 42 46  1  0  0  0  0
 43 48  1  0  0  0  0
 44 66  1  0  0  0  0
 45 48  1  0  0  0  0
 45 66  1  0  0  0  0
 46 71  1  0  0  0  0
 47 65  1  0  0  0  0
 48 64  1  0  0  0  0
 49 57  1  0  0  0  0
 50 59  1  0  0  0  0
 51 60  1  0  0  0  0
 52 61  1  0  0  0  0
 53 61  1  0  0  0  0
 54 61  1  0  0  0  0
 55 74  1  0  0  0  0
 56 60  1  0  0  0  0
 57 72  1  0  0  0  0
 58 61  1  0  0  0  0
 58 73  1  0  0  0  0
 59 74  1  0  0  0  0
 60 82  1  0  0  0  0
 62 64  1  0  0  0  0
M  CHG  1  74   1
M  ISO  4  36 100  60 101  70 100  82 101
M  END
> <Batch ID>
0187

> <Smiles>
CNC(C)C(=O)NC(C(=O)N1Cc2cc([101O:1][101CH:1](C)CC(=O)NC(C)c3nc([100NH:0][100C:0](=O)N4CCCC(n5nc(-c6ccc(Oc7ccc(F)cc7F)cc6)c(C(N)=O)c5N)C4)sc3N)ccc2CC1C(=O)NC1CCCc2ccccc21)C(C)(C)C

> <Shape>
0.167

> <Color>
0.180

> <Negative vol penalty>
0.000

$$$$

  -OEChem-04052305123D

 85 93  0     1  0  0  0  0  0999 V2000
  -23.5718   -7.8802   22.2466 C   0  0  0  0  0  0  0  0  0  0  0  0
  -24.3712   -8.9094   21.7594 C   0  0  0  0  0  0  0  0  0  0  0  0
  -24.5546  -31.2758   21.1678 C   0  0  0  0  0  0  0  0  0  0  0  0
  -24.3192  -29.7236   23.0042 C   0  0  0  0  0  0  0  0  0  0  0  0
  -22.1877   -8.0392   22.2988 C   0  0  0  0  0  0  0  0  0  0  0  0
  -23.7866  -10.0978   21.3232 C   0  0  0  0  0  0  0  0  0  0  0  0
  -26.2332  -14.1991   23.0081 C   0  0  0  0  0  0  0  0  0  0  0  0
  -23.7864  -32.2117   21.8603 C   0  0  0  0  0  0  0  0  0  0  0  0
  -23.5510  -30.6595   23.6968 C   0  0  0  0  0  0  0  0  0  0  0  0
  -27.4144  -14.5489   22.3553 C   0  0  0  0  0  0  0  0  0  0  0  0
  -24.2298  -34.4253   24.3776 C   0  0  0  0  0  0  0  0  0  0  0  0
  -24.6830  -35.7442   24.4035 C   0  0  0  0  0  0  0  0  0  0  0  0
  -26.2186  -16.2305   21.1057 C   0  0  0  0  0  0  0  0  0  0  0  0
  -22.6450  -36.4657   23.3250 C   0  0  0  0  0  0  0  0  0  0  0  0
  -24.8209  -30.0317   21.7397 C   0  0  0  0  0  0  0  0  0  0  0  0
  -27.0122  -28.9088   21.0726 C   0  0  0  0  0  0  0  0  0  0  0  0
  -21.5866   -9.2339   21.8720 C   0  0  0  0  0  0  0  0  0  0  0  0
  -25.0316  -14.8561   22.7062 C   0  0  0  0  0  0  0  0  0  0  0  0
  -22.3930  -10.2724   21.3685 C   0  0  0  0  0  0  0  0  0  0  0  0
  -25.0241  -15.8889   21.7579 C   0  0  0  0  0  0  0  0  0  0  0  0
  -23.2847  -31.9036   23.1248 C   0  0  0  0  0  0  0  0  0  0  0  0
  -27.4067  -15.5627   21.4018 C   0  0  0  0  0  0  0  0  0  0  0  0
  -22.9842  -34.1265   23.8253 C   0  0  0  0  0  0  0  0  0  0  0  0
  -23.8906  -36.7644   23.8772 C   0  0  0  0  0  0  0  0  0  0  0  0
  -22.1918  -35.1467   23.2990 C   0  0  0  0  0  0  0  0  0  0  0  0
  -25.6139  -29.0643   21.0245 C   0  0  0  0  0  0  0  0  0  0  0  0
  -29.3344  -21.4426   19.8685 C   0  0  0  0  0  0  0  0  0  0  0  0
  -27.2707  -27.8619   20.2219 C   0  0  0  0  0  0  0  0  0  0  0  0
  -28.1994  -21.6432   19.1112 C   0  0  0  0  0  0  0  0  0  0  0  0
  -29.4231  -19.6198   18.6522 C   0  0  0  0  0  0  0  0  0  0  0  0
  -27.9900  -29.6448   21.8195 C   0  0  0  0  0  0  0  0  0  0  0  0
  -22.2218  -13.9603   21.5203 C   0  0  0  0  0  0  0  0  0  0  0  0
  -29.8363  -17.2053   19.1668 C   0  0  0  0  0  0  0  0  0  0  0  0
  -21.3983  -17.0237   22.1985 C   0  0  0  0  0  0  0  0  0  0  0  0
  -22.3976  -20.2452   22.7184 C   0  0  0  0  0  0  0  0  0  0  0  0
  -26.1173  -22.7793   18.2622 C   0  0  0  0  0  0  0  0  0  0  0  0
  -20.0826   -9.3414   21.9034 C   0  0  0  0  0  0  0  0  0  0  0  0
  -23.7713  -14.4851   23.4386 C   0  0  0  0  0  0  0  0  0  0  0  0
  -23.7645  -16.6389   21.4123 C   0  0  0  0  0  0  0  0  0  0  0  0
  -19.5715  -10.7738   21.7716 C   0  0  0  0  0  0  0  0  0  0  0  0
  -24.2711  -25.5008   16.8978 C   0  0  0  0  0  0  0  0  0  0  0  0
  -20.2918  -11.4953   20.6369 C   0  0  0  0  0  0  0  0  0  0  0  0
  -24.5709  -26.6577   17.8537 C   0  0  0  0  0  0  0  0  0  0  0  0
  -24.1546  -24.1694   17.6377 C   0  0  0  0  0  0  0  0  0  0  0  0
  -25.5937  -24.9950   19.4588 C   0  0  0  0  0  0  0  0  0  0  0  0
  -21.7981  -11.5859   20.9091 C   0  0  1  0  0  0  0  0  0  0  0  0
  -22.5045  -14.8713   22.6813 C   0  0  1  0  0  0  0  0  0  0  0  0
  -25.7844  -26.3468   18.7517 C   0  0  2  0  0  0  0  0  0  0  0  0
  -29.8508  -22.3463   20.9168 C   0  0  0  0  0  0  0  0  0  0  0  0
  -21.4928  -22.5326   23.2146 C   0  0  0  0  0  0  0  0  0  0  0  0
  -30.5300  -18.8992   15.0896 C   0  0  0  0  0  0  0  0  0  0  0  0
  -32.8989  -19.3227   15.7698 C   0  0  0  0  0  0  0  0  0  0  0  0
  -20.4792  -17.2861   19.3008 C   0  0  0  0  0  0  0  0  0  0  0  0
  -20.4901  -19.7723   19.5956 C   0  0  0  0  0  0  0  0  0  0  0  0
  -18.9658  -18.3610   20.9767 C   0  0  0  0  0  0  0  0  0  0  0  0
  -23.8911  -20.4096   25.2682 C   0  0  0  0  0  0  0  0  0  0  0  0
  -28.4777  -16.9534   19.7972 C   0  0  0  0  0  0  0  0  0  1  0  0
  -31.3076  -18.3685   17.4652 C   0  0  0  0  0  0  0  0  0  0  0  0
  -29.8951  -18.2939   18.0883 C   0  0  2  0  0  0  0  0  0  0  0  0
  -21.4489  -18.3347   21.4517 C   0  0  1  0  0  0  0  0  0  0  0  0
  -22.0473  -21.2455   23.8051 C   0  0  2  0  0  0  0  0  0  0  0  0
  -31.4434  -19.3066   16.2466 C   0  0  0  0  0  0  0  0  0  0  0  0
  -20.3695  -18.4233   20.3361 C   0  0  0  0  0  0  0  0  0  0  0  0
  -25.0252  -28.1866   20.2078 N   0  0  0  0  0  0  0  0  0  0  0  0
  -30.0372  -20.2827   19.6070 N   0  0  0  0  0  0  0  0  0  0  0  0
  -26.0587  -27.4695   19.7348 N   0  0  0  0  0  0  0  0  0  0  0  0
  -22.5567  -16.2352   22.1510 N   0  0  0  0  0  0  0  0  0  0  0  0
  -25.3414  -23.9402   18.4646 N   0  0  0  0  0  0  0  0  0  0  0  0
  -28.4141  -27.2479   19.8506 N   0  0  0  0  0  0  0  0  0  0  0  0
  -27.5527  -30.6893   22.6453 N   0  0  0  0  0  0  0  0  0  0  0  0
  -27.2397  -22.6853   19.0845 N   0  0  0  0  0  0  0  0  0  0  0  0
  -22.0760  -12.6316   21.8704 N   0  0  0  0  0  0  0  0  0  0  0  0
  -21.3523  -19.3835   22.4612 N   0  0  0  0  0  0  0  0  0  0  0  0
  -23.2560  -21.5803   24.6101 N   0  3  0  0  0  0  0  0  0  0  0  0
  -29.2169  -29.3946   21.7438 O   0  0  0  0  0  0  0  0  0  0  0  0
  -22.1405  -14.4285   20.3908 O   0  0  0  0  0  0  0  0  0  0  0  0
  -30.8341  -16.5750   19.5176 O   0  0  0  0  0  0  0  0  0  0  0  0
  -20.3713  -16.7140   22.8077 O   0  0  0  0  0  0  0  0  0  0  0  0
  -23.4880  -20.2320   22.1515 O   0  0  0  0  0  0  0  0  0  0  0  0
  -25.8240  -21.9443   17.4027 O   0  0  0  0  0  0  0  0  0  0  0  0
  -22.5353  -32.8167   23.8010 O   0  0  0  0  0  0  0  0  0  0  0  0
  -28.5581  -15.9057   20.7627 O   0  0  0  0  0  0  0  0  0  1  0  0
  -24.3252  -38.0311   23.9036 F   0  0  0  0  0  0  0  0  0  0  0  0
  -20.9937  -34.8660   22.7682 F   0  0  0  0  0  0  0  0  0  0  0  0
  -27.9951  -20.3336   18.0229 S   0  0  0  0  0  0  0  0  0  0  0  0
  1  2  1  0  0  0  0
  1  5  2  0  0  0  0
  2  6  2  0  0  0  0
  3  8  2  0  0  0  0
  3 15  1  0  0  0  0
  4  9  1  0  0  0  0
  4 15  2  0  0  0  0
  5 17  1  0  0  0  0
  6 19  1  0  0  0  0
  7 10  2  0  0  0  0
  7 18  1  0  0  0  0
  8 21  1  0  0  0  0
  9 21  2  0  0  0  0
 10 22  1  0  0  0  0
 11 12  2  0  0  0  0
 11 23  1  0  0  0  0
 12 24  1  0  0  0  0
 13 20  1  0  0  0  0
 13 22  2  0  0  0  0
 14 24  2  0  0  0  0
 14 25  1  0  0  0  0
 15 26  1  0  0  0  0
 16 26  1  0  0  0  0
 16 28  2  0  0  0  0
 16 31  1  0  0  0  0
 17 19  2  0  0  0  0
 17 37  1  0  0  0  0
 18 20  2  0  0  0  0
 18 38  1  0  0  0  0
 19 46  1  0  0  0  0
 20 39  1  0  0  0  0
 21 81  1  0  0  0  0
 22 82  1  0  0  0  0
 23 25  2  0  0  0  0
 23 81  1  0  0  0  0
 24 83  1  0  0  0  0
 25 84  1  0  0  0  0
 26 64  2  0  0  0  0
 27 29  2  0  0  0  0
 27 49  1  0  0  0  0
 27 65  1  0  0  0  0
 28 66  1  0  0  0  0
 28 69  1  0  0  0  0
 29 71  1  0  0  0  0
 29 85  1  0  0  0  0
 30 59  1  0  0  0  0
 30 65  2  0  0  0  0
 30 85  1  0  0  0  0
 31 70  1  0  0  0  0
 31 75  2  0  0  0  0
 32 47  1  0  0  0  0
 32 72  1  0  0  0  0
 32 76  2  0  0  0  0
 33 57  1  0  0  0  0
 33 59  1  0  0  0  0
 33 77  2  0  0  0  0
 34 60  1  0  0  0  0
 34 67  1  0  0  0  0
 34 78  2  0  0  0  0
 35 61  1  0  0  0  0
 35 73  1  0  0  0  0
 35 79  2  0  0  0  0
 36 68  1  0  0  0  0
 36 71  1  0  0  0  0
 36 80  2  0  0  0  0
 37 40  1  0  0  0  0
 38 47  1  0  0  0  0
 39 67  1  0  0  0  0
 40 42  1  0  0  0  0
 41 43  1  0  0  0  0
 41 44  1  0  0  0  0
 42 46  1  0  0  0  0
 43 48  1  0  0  0  0
 44 68  1  0  0  0  0
 45 48  1  0  0  0  0
 45 68  1  0  0  0  0
 46 72  1  0  0  0  0
 47 67  1  0  0  0  0
 48 66  1  0  0  0  0
 50 61  1  0  0  0  0
 51 62  1  0  0  0  0
 52 62  1  0  0  0  0
 53 63  1  0  0  0  0
 54 63  1  0  0  0  0
 55 63  1  0  0  0  0
 56 74  1  0  0  0  0
 57 82  1  0  0  0  0
 58 59  1  0  0  0  0
 58 62  1  0  0  0  0
 60 63  1  0  0  0  0
 60 73  1  0  0  0  0
 61 74  1  0  0  0  0
 64 66  1  0  0  0  0
M  CHG  1  74   1
M  ISO  4  36 100  57 101  71 100  82 101
M  END
> <Batch ID>
0187

> <Smiles>
CNC(C)C(=O)NC(C(=O)N1Cc2cc([101O:1][101CH2:1]C(=O)C(CC(C)C)c3nc(C)c([100NH:0][100C:0](=O)N4CCCC(n5nc(-c6ccc(Oc7ccc(F)cc7F)cc6)c(C(N)=O)c5N)C4)s3)ccc2CC1C(=O)NC1CCCc2ccccc21)C(C)(C)C

> <Shape>
0.208

> <Color>
0.099

> <Negative vol penalty>
0.000

$$$$

  -OEChem-04052305123D

 86 94  0     1  0  0  0  0  0999 V2000
  -22.3020   -7.6874   20.4779 C   0  0  0  0  0  0  0  0  0  0  0  0
  -22.0264   -9.0503   20.5202 C   0  0  0  0  0  0  0  0  0  0  0  0
  -24.7251  -29.4736   22.5790 C   0  0  0  0  0  0  0  0  0  0  0  0
  -24.9344  -31.1195   20.8228 C   0  0  0  0  0  0  0  0  0  0  0  0
  -23.4855   -7.1992   21.0301 C   0  0  0  0  0  0  0  0  0  0  0  0
  -22.9337   -9.9259   21.1158 C   0  0  0  0  0  0  0  0  0  0  0  0
  -23.7083  -14.0977   18.3516 C   0  0  0  0  0  0  0  0  0  0  0  0
  -24.2752  -30.4632   23.4530 C   0  0  0  0  0  0  0  0  0  0  0  0
  -24.4845  -32.1092   21.6968 C   0  0  0  0  0  0  0  0  0  0  0  0
  -22.7285  -15.0880   18.4052 C   0  0  0  0  0  0  0  0  0  0  0  0
  -21.3972  -32.1319   24.0575 C   0  0  0  0  0  0  0  0  0  0  0  0
  -20.2880  -31.8403   24.8514 C   0  0  0  0  0  0  0  0  0  0  0  0
  -24.0752  -16.3268   19.9772 C   0  0  0  0  0  0  0  0  0  0  0  0
  -21.6155  -32.1989   26.8379 C   0  0  0  0  0  0  0  0  0  0  0  0
  -25.0547  -29.8017   21.2639 C   0  0  0  0  0  0  0  0  0  0  0  0
  -24.7370  -27.9746   19.5124 C   0  0  0  0  0  0  0  0  0  0  0  0
  -24.4122   -8.0703   21.6242 C   0  0  0  0  0  0  0  0  0  0  0  0
  -24.8760  -14.2093   19.1200 C   0  0  0  0  0  0  0  0  0  0  0  0
  -24.1300   -9.4487   21.6777 C   0  0  0  0  0  0  0  0  0  0  0  0
  -25.0694  -15.3377   19.9296 C   0  0  0  0  0  0  0  0  0  0  0  0
  -24.1549  -31.7810   23.0119 C   0  0  0  0  0  0  0  0  0  0  0  0
  -22.9105  -16.2014   19.2203 C   0  0  0  0  0  0  0  0  0  0  0  0
  -22.6156  -32.4569   24.6539 C   0  0  0  0  0  0  0  0  0  0  0  0
  -20.3971  -31.8738   26.2416 C   0  0  0  0  0  0  0  0  0  0  0  0
  -22.7248  -32.4904   26.0440 C   0  0  0  0  0  0  0  0  0  0  0  0
  -25.5200  -28.7800   20.3608 C   0  0  0  0  0  0  0  0  0  0  0  0
  -27.4704  -21.6111   17.8645 C   0  0  0  0  0  0  0  0  0  0  0  0
  -26.9457  -20.9213   16.7916 C   0  0  0  0  0  0  0  0  0  0  0  0
  -25.6452  -27.1715   18.8668 C   0  0  0  0  0  0  0  0  0  0  0  0
  -25.4766  -20.3351   18.3108 C   0  0  0  0  0  0  0  0  0  0  0  0
  -28.6594  -22.4770   17.9559 C   0  0  0  0  0  0  0  0  0  0  0  0
  -23.3157  -27.9542   19.3245 C   0  0  0  0  0  0  0  0  0  0  0  0
  -26.1966  -12.5036   21.4546 C   0  0  0  0  0  0  0  0  0  0  0  0
  -28.6439  -14.5981   21.0719 C   0  0  0  0  0  0  0  0  0  0  0  0
  -29.6877  -17.6744   20.0262 C   0  0  0  0  0  0  0  0  0  0  0  0
  -23.4004  -18.9199   18.4705 C   0  0  0  0  0  0  0  0  0  0  0  0
  -30.1263  -23.8506   19.0751 C   0  0  0  0  0  0  0  0  0  0  0  0
  -25.6559   -7.4904   22.2499 C   0  0  0  0  0  0  0  0  0  0  0  0
  -25.9354  -13.1454   19.0306 C   0  0  0  0  0  0  0  0  0  0  0  0
  -26.3144  -15.5150   20.7586 C   0  0  0  0  0  0  0  0  0  0  0  0
  -26.7386   -8.5296   22.5293 C   0  0  0  0  0  0  0  0  0  0  0  0
  -30.6874  -27.3885   18.6586 C   0  0  0  0  0  0  0  0  0  0  0  0
  -26.1370   -9.7599   23.2011 C   0  0  0  0  0  0  0  0  0  0  0  0
  -29.3365  -28.0002   19.0294 C   0  0  0  0  0  0  0  0  0  0  0  0
  -30.9917  -26.1518   19.4986 C   0  0  0  0  0  0  0  0  0  0  0  0
  -28.5710  -25.7150   19.8115 C   0  0  0  0  0  0  0  0  0  0  0  0
  -25.1009  -10.4331   22.2930 C   0  0  1  0  0  0  0  0  0  0  0  0
  -26.8537  -13.1126   20.2484 C   0  0  1  0  0  0  0  0  0  0  0  0
  -28.2158  -26.9474   18.9622 C   0  0  1  0  0  0  0  0  0  0  0  0
  -31.7384  -19.1130   19.8765 C   0  0  0  0  0  0  0  0  0  0  0  0
  -21.1905  -19.4305   19.5729 C   0  0  0  0  0  0  0  0  0  0  0  0
  -28.4628  -15.1634   24.0648 C   0  0  0  0  0  0  0  0  0  0  0  0
  -29.8258  -17.2292   23.6863 C   0  0  0  0  0  0  0  0  0  0  0  0
  -30.7936  -14.9875   23.1756 C   0  0  0  0  0  0  0  0  0  0  0  0
  -29.5123  -17.8191   17.0754 C   0  0  0  0  0  0  0  0  0  0  0  0
  -29.0054  -15.9394   21.6629 C   0  0  1  0  0  0  0  0  0  0  0  0
  -30.8595  -18.0998   19.1599 C   0  0  2  0  0  0  0  0  0  0  0  0
  -22.3946  -18.5009   19.5397 C   0  0  1  0  0  0  0  0  0  1  0  0
  -27.4923  -20.9005   15.4192 C   0  0  0  0  0  0  0  0  0  0  0  0
  -29.4974  -15.8259   23.1334 C   0  0  0  0  0  0  0  0  0  0  0  0
  -26.8252  -28.5129   20.2654 N   0  0  0  0  0  0  0  0  0  0  0  0
  -25.8027  -20.1888   17.0457 N   0  0  0  0  0  0  0  0  0  0  0  0
  -28.9995  -23.0509   19.0633 N   0  0  0  0  0  0  0  0  0  0  0  0
  -26.8693  -27.5305   19.3493 N   0  0  0  0  0  0  0  0  0  0  0  0
  -27.3182  -14.4444   20.6419 N   0  0  0  0  0  0  0  0  0  0  0  0
  -29.8905  -25.1898   19.4366 N   0  0  0  0  0  0  0  0  0  0  0  0
  -25.5081  -26.2003   17.9392 N   0  0  0  0  0  0  0  0  0  0  0  0
  -22.5306  -28.8460   20.0678 N   0  0  0  0  0  0  0  0  0  0  0  0
  -24.3764  -19.7625   18.9924 N   0  0  0  0  0  0  0  0  0  0  0  0
  -25.7590  -11.2071   21.2624 N   0  0  0  0  0  0  0  0  0  0  0  0
  -29.9756  -16.5383   20.7527 N   0  0  0  0  0  0  0  0  0  0  0  0
  -30.3709  -18.7142   17.8931 N   0  3  0  0  0  0  0  0  0  0  0  0
  -22.7570  -27.1570   18.5333 O   0  0  0  0  0  0  0  0  0  0  0  0
  -26.0955  -13.1608   22.4839 O   0  0  0  0  0  0  0  0  0  0  0  0
  -29.5077  -13.7215   20.9882 O   0  0  0  0  0  0  0  0  0  0  0  0
  -28.6248  -18.2906   20.0584 O   0  0  0  0  0  0  0  0  0  0  0  0
  -23.3090  -18.5123   17.3161 O   0  0  0  0  0  0  0  0  0  0  0  0
  -31.2589  -23.4467   18.8010 O   0  0  0  0  0  0  0  0  0  0  0  0
  -23.7157  -32.7469   23.8643 O   0  0  0  0  0  0  0  0  0  0  0  0
  -21.9554  -17.1692   19.2750 O   0  0  0  0  0  0  0  0  0  1  0  0
  -19.3315  -31.5952   27.0038 F   0  0  0  0  0  0  0  0  0  0  0  0
  -23.8923  -32.8032   26.6227 F   0  0  0  0  0  0  0  0  0  0  0  0
  -28.6266  -21.6542   15.2550 F   0  0  0  0  0  0  0  0  0  0  0  0
  -27.8429  -19.6514   14.9741 F   0  0  0  0  0  0  0  0  0  0  0  0
  -26.6134  -21.3761   14.4815 F   0  0  0  0  0  0  0  0  0  0  0  0
  -26.5003  -21.3402   19.2526 S   0  0  0  0  0  0  0  0  0  0  0  0
  1  2  1  0  0  0  0
  1  5  2  0  0  0  0
  2  6  2  0  0  0  0
  3  8  2  0  0  0  0
  3 15  1  0  0  0  0
  4  9  1  0  0  0  0
  4 15  2  0  0  0  0
  5 17  1  0  0  0  0
  6 19  1  0  0  0  0
  7 10  2  0  0  0  0
  7 18  1  0  0  0  0
  8 21  1  0  0  0  0
  9 21  2  0  0  0  0
 10 22  1  0  0  0  0
 11 12  2  0  0  0  0
 11 23  1  0  0  0  0
 12 24  1  0  0  0  0
 13 20  1  0  0  0  0
 13 22  2  0  0  0  0
 14 24  2  0  0  0  0
 14 25  1  0  0  0  0
 15 26  1  0  0  0  0
 16 26  1  0  0  0  0
 16 29  2  0  0  0  0
 16 32  1  0  0  0  0
 17 19  2  0  0  0  0
 17 38  1  0  0  0  0
 18 20  2  0  0  0  0
 18 39  1  0  0  0  0
 19 47  1  0  0  0  0
 20 40  1  0  0  0  0
 21 79  1  0  0  0  0
 22 80  1  0  0  0  0
 23 25  2  0  0  0  0
 23 79  1  0  0  0  0
 24 81  1  0  0  0  0
 25 82  1  0  0  0  0
 26 61  2  0  0  0  0
 27 28  2  0  0  0  0
 27 31  1  0  0  0  0
 27 86  1  0  0  0  0
 28 59  1  0  0  0  0
 28 62  1  0  0  0  0
 29 64  1  0  0  0  0
 29 67  1  0  0  0  0
 30 62  2  0  0  0  0
 30 69  1  0  0  0  0
 30 86  1  0  0  0  0
 31 63  2  0  0  0  0
 32 68  1  0  0  0  0
 32 73  2  0  0  0  0
 33 48  1  0  0  0  0
 33 70  1  0  0  0  0
 33 74  2  0  0  0  0
 34 56  1  0  0  0  0
 34 65  1  0  0  0  0
 34 75  2  0  0  0  0
 35 57  1  0  0  0  0
 35 71  1  0  0  0  0
 35 76  2  0  0  0  0
 36 58  1  0  0  0  0
 36 69  1  0  0  0  0
 36 77  2  0  0  0  0
 37 63  1  0  0  0  0
 37 66  1  0  0  0  0
 37 78  2  0  0  0  0
 38 41  1  0  0  0  0
 39 48  1  0  0  0  0
 40 65  1  0  0  0  0
 41 43  1  0  0  0  0
 42 44  1  0  0  0  0
 42 45  1  0  0  0  0
 43 47  1  0  0  0  0
 44 49  1  0  0  0  0
 45 66  1  0  0  0  0
 46 49  1  0  0  0  0
 46 66  1  0  0  0  0
 47 70  1  0  0  0  0
 48 65  1  0  0  0  0
 49 64  1  0  0  0  0
 50 57  1  0  0  0  0
 51 58  1  0  0  0  0
 52 60  1  0  0  0  0
 53 60  1  0  0  0  0
 54 60  1  0  0  0  0
 55 72  1  0  0  0  0
 56 60  1  0  0  0  0
 56 71  1  0  0  0  0
 57 72  1  0  0  0  0
 58 80  1  0  0  0  0
 59 83  1  0  0  0  0
 59 84  1  0  0  0  0
 59 85  1  0  0  0  0
 61 64  1  0  0  0  0
M  CHG  1  72   1
M  ISO  4  37 100  58 101  63 100  80 101
M  END
> <Batch ID>
0187

> <Smiles>
CNC(C)C(=O)NC(C(=O)N1Cc2cc([101O:1][101CH:1](C)C(=O)Nc3nc(C(F)(F)F)c(C=[100N:0][100C:0](=O)N4CCCC(n5nc(-c6ccc(Oc7ccc(F)cc7F)cc6)c(C(N)=O)c5N)C4)s3)ccc2CC1C(=O)NC1CCCc2ccccc21)C(C)(C)C

> <Shape>
0.251

> <Color>
0.060

> <Negative vol penalty>
0.000

$$$$

  -OEChem-04052305123D

 84 92  0     1  0  0  0  0  0999 V2000
  -27.1982  -24.8907   16.0220 C   0  0  0  0  0  0  0  0  0  0  0  0
  -26.0476  -25.1647   16.7544 C   0  0  0  0  0  0  0  0  0  0  0  0
  -28.9888  -13.7190   20.9775 C   0  0  0  0  0  0  0  0  0  0  0  0
  -29.0558  -13.7305   18.5625 C   0  0  0  0  0  0  0  0  0  0  0  0
  -28.4504  -25.1998   16.5515 C   0  0  0  0  0  0  0  0  0  0  0  0
  -26.1486  -25.7470   18.0174 C   0  0  0  0  0  0  0  0  0  0  0  0
  -22.8209  -29.5033   18.6966 C   0  0  0  0  0  0  0  0  0  0  0  0
  -28.8468  -12.3315   20.9670 C   0  0  0  0  0  0  0  0  0  0  0  0
  -28.9138  -12.3429   18.5519 C   0  0  0  0  0  0  0  0  0  0  0  0
  -21.5031  -29.1438   18.9757 C   0  0  0  0  0  0  0  0  0  0  0  0
  -28.1052   -8.8221   21.5651 C   0  0  0  0  0  0  0  0  0  0  0  0
  -27.1478   -8.2603   22.4097 C   0  0  0  0  0  0  0  0  0  0  0  0
  -21.8920  -29.5613   21.3196 C   0  0  0  0  0  0  0  0  0  0  0  0
  -20.4949  -24.2349   23.3044 C   0  0  0  0  0  0  0  0  0  0  0  0
  -25.4185   -9.5203   21.2876 C   0  0  0  0  0  0  0  0  0  0  0  0
  -29.0933  -14.4186   19.7752 C   0  0  0  0  0  0  0  0  0  0  0  0
  -30.4416  -16.5836   19.8220 C   0  0  0  0  0  0  0  0  0  0  0  0
  -28.5663  -25.7951   17.8175 C   0  0  0  0  0  0  0  0  0  0  0  0
  -23.6887  -29.8847   19.7299 C   0  0  0  0  0  0  0  0  0  0  0  0
  -27.4036  -26.0632   18.5649 C   0  0  0  0  0  0  0  0  0  0  0  0
  -23.2196  -29.9276   21.0506 C   0  0  0  0  0  0  0  0  0  0  0  0
  -21.4243  -23.2167   23.6647 C   0  0  0  0  0  0  0  0  0  0  0  0
  -28.8092  -11.6434   19.7542 C   0  0  0  0  0  0  0  0  0  0  0  0
  -21.0393  -29.1699   20.2877 C   0  0  0  0  0  0  0  0  0  0  0  0
  -27.7193   -9.7331   20.5818 C   0  0  0  0  0  0  0  0  0  0  0  0
  -25.8044   -8.6093   22.2709 C   0  0  0  0  0  0  0  0  0  0  0  0
  -26.3759  -10.0822   20.4430 C   0  0  0  0  0  0  0  0  0  0  0  0
  -29.2395  -15.8520   19.7854 C   0  0  0  0  0  0  0  0  0  0  0  0
  -22.0482  -22.6726   22.5637 C   0  0  0  0  0  0  0  0  0  0  0  0
  -30.0438  -17.8982   19.8164 C   0  0  0  0  0  0  0  0  0  0  0  0
  -20.4442  -24.4304   21.9417 C   0  0  0  0  0  0  0  0  0  0  0  0
  -23.0231  -21.6510   22.4994 C   0  0  0  0  0  0  0  0  0  0  0  0
  -24.0218  -21.5225   21.5642 C   0  0  0  0  0  0  0  0  0  0  0  0
  -31.7968  -16.1167   19.8578 C   0  0  0  0  0  0  0  0  0  0  0  0
  -24.9755  -20.3974   21.6383 C   0  0  0  0  0  0  0  0  0  0  0  0
  -26.4159  -28.7486   20.9028 C   0  0  0  0  0  0  0  0  0  0  0  0
  -26.3190  -31.4514   22.6939 C   0  0  0  0  0  0  0  0  0  0  0  0
  -24.4423  -33.9383   24.0866 C   0  0  0  0  0  0  0  0  0  0  0  0
  -18.7455  -26.2564   21.6145 C   0  0  0  0  0  0  0  0  0  0  0  0
  -29.9437  -26.0677   18.3681 C   0  0  0  0  0  0  0  0  0  0  0  0
  -25.0997  -30.2953   19.4090 C   0  0  0  0  0  0  0  0  0  0  0  0
  -24.1054  -30.3492   22.1935 C   0  0  0  0  0  0  0  0  0  0  0  0
  -29.9462  -27.0270   19.5555 C   0  0  0  0  0  0  0  0  0  0  0  0
  -26.5176  -20.7475   18.3321 C   0  0  0  0  0  0  0  0  0  0  0  0
  -28.8661  -26.6366   20.5595 C   0  0  0  0  0  0  0  0  0  0  0  0
  -27.4721  -19.5564   18.3257 C   0  0  0  0  0  0  0  0  0  0  0  0
  -25.2311  -20.4451   19.0989 C   0  0  0  0  0  0  0  0  0  0  0  0
  -26.4210  -18.7696   20.4835 C   0  0  0  0  0  0  0  0  0  0  0  0
  -27.4710  -26.7170   19.9281 C   0  0  1  0  0  0  0  0  0  0  0  0
  -26.0435  -30.1728   20.6014 C   0  0  1  0  0  0  0  0  0  0  0  0
  -27.7422  -19.0676   19.7575 C   0  0  1  0  0  0  0  0  0  0  0  0
  -24.6394  -35.9832   25.5279 C   0  0  0  0  0  0  0  0  0  0  0  0
  -26.6427  -29.6808   25.1576 C   0  0  0  0  0  0  0  0  0  0  0  0
  -25.8887  -31.6132   26.5595 C   0  0  0  0  0  0  0  0  0  0  0  0
  -27.9784  -31.7944   25.2093 C   0  0  0  0  0  0  0  0  0  0  0  0
  -23.3915  -35.6906   21.9455 C   0  0  0  0  0  0  0  0  0  0  0  0
  -19.1437  -27.8591   19.7010 C   0  0  0  0  0  0  0  0  0  1  0  0
  -25.7386  -31.8238   24.0368 C   0  0  1  0  0  0  0  0  0  0  0  0
  -24.6218  -35.4456   24.1054 C   0  0  2  0  0  0  0  0  0  0  0  0
  -18.1214  -27.0339   20.4686 C   0  0  2  0  0  0  0  0  0  0  0  0
  -26.5457  -31.2182   25.2197 C   0  0  0  0  0  0  0  0  0  0  0  0
  -28.1589  -16.6366   19.7587 N   0  0  0  0  0  0  0  0  0  0  0  0
  -28.6806  -17.8750   19.7786 N   0  0  0  0  0  0  0  0  0  0  0  0
  -25.5162  -19.9239   20.4442 N   0  0  0  0  0  0  0  0  0  0  0  0
  -25.4786  -30.7355   21.8295 N   0  0  0  0  0  0  0  0  0  0  0  0
  -21.6555  -22.8396   24.9455 N   0  0  0  0  0  0  0  0  0  0  0  0
  -30.7305  -19.0602   19.8403 N   0  0  0  0  0  0  0  0  0  0  0  0
  -32.0273  -14.7343   19.8584 N   0  0  0  0  0  0  0  0  0  0  0  0
  -19.6725  -25.3254   21.1633 N   0  0  0  0  0  0  0  0  0  0  0  0
  -27.0291  -28.0930   19.8523 N   0  0  0  0  0  0  0  0  0  0  0  0
  -25.6534  -33.2801   24.0551 N   0  0  0  0  0  0  0  0  0  0  0  0
  -23.5108  -36.1089   23.3660 N   0  3  0  0  0  0  0  0  0  0  0  0
  -32.7738  -16.9021   19.9050 O   0  0  0  0  0  0  0  0  0  0  0  0
  -25.2317  -19.9417   22.7542 O   0  0  0  0  0  0  0  0  0  0  0  0
  -26.1668  -28.2798   22.0073 O   0  0  0  0  0  0  0  0  0  0  0  0
  -27.4730  -31.7897   22.4190 O   0  0  0  0  0  0  0  0  0  0  0  0
  -23.3381  -33.3988   24.1024 O   0  0  0  0  0  0  0  0  0  0  0  0
  -18.4062  -26.4769   22.7735 O   0  0  0  0  0  0  0  0  0  0  0  0
  -28.6709  -10.2894   19.7436 O   0  0  0  0  0  0  0  0  0  0  0  0
  -19.7537  -28.8189   20.5630 O   0  0  0  0  0  0  0  0  0  1  0  0
  -24.8849   -8.0685   23.0810 F   0  0  0  0  0  0  0  0  0  0  0  0
  -25.9990  -10.9559   19.4994 F   0  0  0  0  0  0  0  0  0  0  0  0
  -17.1591  -27.8805   20.9358 F   0  0  0  0  0  0  0  0  0  0  0  0
  -21.5136  -23.3887   21.1029 S   0  0  0  0  0  0  0  0  0  0  0  0
  1  2  1  0  0  0  0
  1  5  2  0  0  0  0
  2  6  2  0  0  0  0
  3  8  2  0  0  0  0
  3 16  1  0  0  0  0
  4  9  1  0  0  0  0
  4 16  2  0  0  0  0
  5 18  1  0  0  0  0
  6 20  1  0  0  0  0
  7 10  2  0  0  0  0
  7 19  1  0  0  0  0
  8 23  1  0  0  0  0
  9 23  2  0  0  0  0
 10 24  1  0  0  0  0
 11 12  2  0  0  0  0
 11 25  1  0  0  0  0
 12 26  1  0  0  0  0
 13 21  1  0  0  0  0
 13 24  2  0  0  0  0
 14 22  1  0  0  0  0
 14 31  2  0  0  0  0
 15 26  2  0  0  0  0
 15 27  1  0  0  0  0
 16 28  1  0  0  0  0
 17 28  1  0  0  0  0
 17 30  2  0  0  0  0
 17 34  1  0  0  0  0
 18 20  2  0  0  0  0
 18 40  1  0  0  0  0
 19 21  2  0  0  0  0
 19 41  1  0  0  0  0
 20 49  1  0  0  0  0
 21 42  1  0  0  0  0
 22 29  2  0  0  0  0
 22 66  1  0  0  0  0
 23 79  1  0  0  0  0
 24 80  1  0  0  0  0
 25 27  2  0  0  0  0
 25 79  1  0  0  0  0
 26 81  1  0  0  0  0
 27 82  1  0  0  0  0
 28 62  2  0  0  0  0
 29 32  1  0  0  0  0
 29 84  1  0  0  0  0
 30 63  1  0  0  0  0
 30 67  1  0  0  0  0
 31 69  1  0  0  0  0
 31 84  1  0  0  0  0
 32 33  2  0  0  0  0
 33 35  1  0  0  0  0
 34 68  1  0  0  0  0
 34 73  2  0  0  0  0
 35 64  1  0  0  0  0
 35 74  2  0  0  0  0
 36 50  1  0  0  0  0
 36 70  1  0  0  0  0
 36 75  2  0  0  0  0
 37 58  1  0  0  0  0
 37 65  1  0  0  0  0
 37 76  2  0  0  0  0
 38 59  1  0  0  0  0
 38 71  1  0  0  0  0
 38 77  2  0  0  0  0
 39 60  1  0  0  0  0
 39 69  1  0  0  0  0
 39 78  2  0  0  0  0
 40 43  1  0  0  0  0
 41 50  1  0  0  0  0
 42 65  1  0  0  0  0
 43 45  1  0  0  0  0
 44 46  1  0  0  0  0
 44 47  1  0  0  0  0
 45 49  1  0  0  0  0
 46 51  1  0  0  0  0
 47 64  1  0  0  0  0
 48 51  1  0  0  0  0
 48 64  1  0  0  0  0
 49 70  1  0  0  0  0
 50 65  1  0  0  0  0
 51 63  1  0  0  0  0
 52 59  1  0  0  0  0
 53 61  1  0  0  0  0
 54 61  1  0  0  0  0
 55 61  1  0  0  0  0
 56 72  1  0  0  0  0
 57 60  1  0  0  0  0
 57 80  1  0  0  0  0
 58 61  1  0  0  0  0
 58 71  1  0  0  0  0
 59 72  1  0  0  0  0
 60 83  1  0  0  0  0
 62 63  1  0  0  0  0
M  CHG  1  72   1
M  ISO  4  33 100  35 100  57 101  80 101
M  END
> <Batch ID>
0187

> <Smiles>
CNC(C)C(=O)NC(C(=O)N1Cc2cc([101O:1][101CH2:1]C(F)C(=O)Nc3cc(N)c(C=[100CH:0][100C:0](=O)N4CCCC(n5nc(-c6ccc(Oc7ccc(F)cc7F)cc6)c(C(N)=O)c5N)C4)s3)ccc2CC1C(=O)NC1CCCc2ccccc21)C(C)(C)C

> <Shape>
0.297

> <Color>
0.069

> <Negative vol penalty>
0.000

$$$$

  -OEChem-04052305123D

 87 95  0     1  0  0  0  0  0999 V2000
  -17.2655  -24.4977   21.8122 C   0  0  0  0  0  0  0  0  0  0  0  0
  -18.2196  -24.3089   20.8175 C   0  0  0  0  0  0  0  0  0  0  0  0
  -26.5023  -13.1623   21.5837 C   0  0  0  0  0  0  0  0  0  0  0  0
  -25.2860  -14.1091   19.7232 C   0  0  0  0  0  0  0  0  0  0  0  0
  -17.3927  -25.5604   22.7058 C   0  0  0  0  0  0  0  0  0  0  0  0
  -19.3010  -25.1833   20.7151 C   0  0  0  0  0  0  0  0  0  0  0  0
  -25.0126  -23.7901   19.0001 C   0  0  0  0  0  0  0  0  0  0  0  0
  -25.6844  -12.0331   21.5438 C   0  0  0  0  0  0  0  0  0  0  0  0
  -24.4681  -12.9799   19.6832 C   0  0  0  0  0  0  0  0  0  0  0  0
  -25.6834  -23.9137   17.7841 C   0  0  0  0  0  0  0  0  0  0  0  0
  -25.4211   -9.2121   19.6984 C   0  0  0  0  0  0  0  0  0  0  0  0
  -26.0351   -7.9633   19.7937 C   0  0  0  0  0  0  0  0  0  0  0  0
  -26.6105  -26.0169   18.5163 C   0  0  0  0  0  0  0  0  0  0  0  0
  -29.2205  -24.4590   19.7868 C   0  0  0  0  0  0  0  0  0  0  0  0
  -24.7636   -7.4906   21.7929 C   0  0  0  0  0  0  0  0  0  0  0  0
  -26.3031  -14.2003   20.6734 C   0  0  0  0  0  0  0  0  0  0  0  0
  -28.3578  -15.5655   20.0239 C   0  0  0  0  0  0  0  0  0  0  0  0
  -18.4813  -26.4426   22.6204 C   0  0  0  0  0  0  0  0  0  0  0  0
  -25.1273  -24.7859   19.9807 C   0  0  0  0  0  0  0  0  0  0  0  0
  -19.4421  -26.2596   21.6076 C   0  0  0  0  0  0  0  0  0  0  0  0
  -25.9423  -25.9023   19.7449 C   0  0  0  0  0  0  0  0  0  0  0  0
  -29.9710  -25.1480   18.7906 C   0  0  0  0  0  0  0  0  0  0  0  0
  -24.6673  -11.9419   20.5935 C   0  0  0  0  0  0  0  0  0  0  0  0
  -26.4802  -25.0287   17.5410 C   0  0  0  0  0  0  0  0  0  0  0  0
  -24.4784   -9.6002   20.6505 C   0  0  0  0  0  0  0  0  0  0  0  0
  -25.7063   -7.1025   20.8409 C   0  0  0  0  0  0  0  0  0  0  0  0
  -24.1496   -8.7395   21.6977 C   0  0  0  0  0  0  0  0  0  0  0  0
  -27.1472  -15.3673   20.7146 C   0  0  0  0  0  0  0  0  0  0  0  0
  -28.7641  -16.8233   20.3972 C   0  0  0  0  0  0  0  0  0  0  0  0
  -29.0255  -23.1342   19.4636 C   0  0  0  0  0  0  0  0  0  0  0  0
  -30.3212  -24.3234   17.7441 C   0  0  0  0  0  0  0  0  0  0  0  0
  -29.0528  -14.6910   19.1251 C   0  0  0  0  0  0  0  0  0  0  0  0
  -23.0967  -26.7683   21.4126 C   0  0  0  0  0  0  0  0  0  0  0  0
  -25.6957  -27.5132   23.2051 C   0  0  0  0  0  0  0  0  0  0  0  0
  -29.0962  -27.6194   23.4734 C   0  0  0  0  0  0  0  0  0  0  0  0
  -27.6892  -22.1970   21.3826 C   0  0  0  0  0  0  0  0  0  0  0  0
  -18.5510  -27.6046   23.5793 C   0  0  0  0  0  0  0  0  0  0  0  0
  -24.4186  -24.6246   21.2976 C   0  0  0  0  0  0  0  0  0  0  0  0
  -26.1147  -26.9895   20.7729 C   0  0  0  0  0  0  0  0  0  0  0  0
  -19.9260  -28.2652   23.6369 C   0  0  0  0  0  0  0  0  0  0  0  0
  -27.0364  -19.9016   24.0250 C   0  0  0  0  0  0  0  0  0  0  0  0
  -20.4657  -28.4982   22.2293 C   0  0  0  0  0  0  0  0  0  0  0  0
  -27.1066  -18.5336   23.3425 C   0  0  0  0  0  0  0  0  0  0  0  0
  -26.4104  -20.9576   23.1157 C   0  0  0  0  0  0  0  0  0  0  0  0
  -27.0965  -19.7096   21.1055 C   0  0  0  0  0  0  0  0  0  0  0  0
  -20.6425  -27.1722   21.4797 C   0  0  1  0  0  0  0  0  0  0  0  0
  -24.1978  -25.9482   22.0233 C   0  0  1  0  0  0  0  0  0  0  0  0
  -27.7790  -18.6280   21.9588 C   0  0  2  0  0  0  0  0  0  0  0  0
  -30.3299  -26.5829   18.8769 C   0  0  0  0  0  0  0  0  0  0  0  0
  -30.9277  -28.3145   25.0418 C   0  0  0  0  0  0  0  0  0  0  0  0
  -28.3997  -26.0848   12.3221 C   0  0  0  0  0  0  0  0  0  0  0  0
  -26.1407  -26.1577   13.3639 C   0  0  0  0  0  0  0  0  0  0  0  0
  -25.1964  -30.4367   22.4886 C   0  0  0  0  0  0  0  0  0  0  0  0
  -27.5233  -30.9500   23.2569 C   0  0  0  0  0  0  0  0  0  0  0  0
  -25.8505  -30.0434   24.8701 C   0  0  0  0  0  0  0  0  0  0  0  0
  -30.1532  -24.8605   23.6468 C   0  0  0  0  0  0  0  0  0  0  0  0
  -29.2867  -23.9864   14.3821 C   0  0  0  0  0  0  0  0  0  0  0  0
  -26.9618  -24.1019   15.4043 C   0  0  0  0  0  0  0  0  0  1  0  0
  -26.8154  -28.5201   23.0979 C   0  0  1  0  0  0  0  0  0  0  0  0
  -30.0336  -27.1738   24.5812 C   0  0  2  0  0  0  0  0  0  0  0  0
  -27.6181  -25.8257   13.6163 C   0  0  0  0  0  0  0  0  0  0  0  0
  -27.8100  -24.3702   14.1441 C   0  0  1  0  0  0  0  0  0  0  0  0
  -26.3418  -29.9682   23.4080 C   0  0  0  0  0  0  0  0  0  0  0  0
  -26.8068  -16.4151   21.4697 N   0  0  0  0  0  0  0  0  0  0  0  0
  -27.8096  -17.2839   21.2557 N   0  0  0  0  0  0  0  0  0  0  0  0
  -25.3963  -26.7893   22.0422 N   0  0  0  0  0  0  0  0  0  0  0  0
  -27.1014  -20.9930   21.8248 N   0  0  0  0  0  0  0  0  0  0  0  0
  -29.8412  -17.5691   20.0717 N   0  0  0  0  0  0  0  0  0  0  0  0
  -28.4956  -13.4345   18.8509 N   0  0  0  0  0  0  0  0  0  0  0  0
  -28.3464  -22.1014   20.1564 N   0  0  0  0  0  0  0  0  0  0  0  0
  -21.8424  -26.4963   21.9246 N   0  0  0  0  0  0  0  0  0  0  0  0
  -27.8810  -28.0400   23.9710 N   0  0  0  0  0  0  0  0  0  0  0  0
  -29.9955  -25.0237   15.1648 N   0  0  0  0  0  0  0  0  0  0  0  0
  -30.9012  -26.0583   24.1081 N   0  3  0  0  0  0  0  0  0  0  0  0
  -30.1442  -15.0076   18.5940 O   0  0  0  0  0  0  0  0  0  0  0  0
  -23.3655  -27.5883   20.5425 O   0  0  0  0  0  0  0  0  0  0  0  0
  -25.1131  -27.3690   24.2827 O   0  0  0  0  0  0  0  0  0  0  0  0
  -29.4118  -27.6002   22.2857 O   0  0  0  0  0  0  0  0  0  0  0  0
  -27.6385  -23.2296   22.0558 O   0  0  0  0  0  0  0  0  0  0  0  0
  -32.1224  -25.6981   16.4495 O   0  0  0  0  0  0  0  0  0  0  0  0
  -31.7536  -23.2840   15.8491 O   0  0  0  0  0  0  0  0  0  0  0  0
  -23.8692  -10.8401   20.5541 O   0  0  0  0  0  0  0  0  0  0  0  0
  -27.1355  -25.1522   16.3547 O   0  0  0  0  0  0  0  0  0  1  0  0
  -26.2948   -5.9027   20.9314 F   0  0  0  0  0  0  0  0  0  0  0  0
  -23.2439   -9.1064   22.6147 F   0  0  0  0  0  0  0  0  0  0  0  0
  -29.7457  -22.7258   17.9647 S   0  0  0  0  0  0  0  0  0  0  0  0
  -31.2267  -24.5753   16.2470 S   0  0  0  0  0  0  0  0  0  0  0  0
  1  2  1  0  0  0  0
  1  5  2  0  0  0  0
  2  6  2  0  0  0  0
  3  8  2  0  0  0  0
  3 16  1  0  0  0  0
  4  9  1  0  0  0  0
  4 16  2  0  0  0  0
  5 18  1  0  0  0  0
  6 20  1  0  0  0  0
  7 10  2  0  0  0  0
  7 19  1  0  0  0  0
  8 23  1  0  0  0  0
  9 23  2  0  0  0  0
 10 24  1  0  0  0  0
 11 12  2  0  0  0  0
 11 25  1  0  0  0  0
 12 26  1  0  0  0  0
 13 21  1  0  0  0  0
 13 24  2  0  0  0  0
 14 22  1  0  0  0  0
 14 30  2  0  0  0  0
 15 26  2  0  0  0  0
 15 27  1  0  0  0  0
 16 28  1  0  0  0  0
 17 28  1  0  0  0  0
 17 29  2  0  0  0  0
 17 32  1  0  0  0  0
 18 20  2  0  0  0  0
 18 37  1  0  0  0  0
 19 21  2  0  0  0  0
 19 38  1  0  0  0  0
 20 46  1  0  0  0  0
 21 39  1  0  0  0  0
 22 31  2  0  0  0  0
 22 49  1  0  0  0  0
 23 82  1  0  0  0  0
 24 83  1  0  0  0  0
 25 27  2  0  0  0  0
 25 82  1  0  0  0  0
 26 84  1  0  0  0  0
 27 85  1  0  0  0  0
 28 64  2  0  0  0  0
 29 65  1  0  0  0  0
 29 68  1  0  0  0  0
 30 70  1  0  0  0  0
 30 86  1  0  0  0  0
 31 86  1  0  0  0  0
 31 87  1  0  0  0  0
 32 69  1  0  0  0  0
 32 75  2  0  0  0  0
 33 47  1  0  0  0  0
 33 71  1  0  0  0  0
 33 76  2  0  0  0  0
 34 59  1  0  0  0  0
 34 66  1  0  0  0  0
 34 77  2  0  0  0  0
 35 60  1  0  0  0  0
 35 72  1  0  0  0  0
 35 78  2  0  0  0  0
 36 67  1  0  0  0  0
 36 70  1  0  0  0  0
 36 79  2  0  0  0  0
 37 40  1  0  0  0  0
 38 47  1  0  0  0  0
 39 66  1  0  0  0  0
 40 42  1  0  0  0  0
 41 43  1  0  0  0  0
 41 44  1  0  0  0  0
 42 46  1  0  0  0  0
 43 48  1  0  0  0  0
 44 67  1  0  0  0  0
 45 48  1  0  0  0  0
 45 67  1  0  0  0  0
 46 71  1  0  0  0  0
 47 66  1  0  0  0  0
 48 65  1  0  0  0  0
 50 60  1  0  0  0  0
 51 61  1  0  0  0  0
 52 61  1  0  0  0  0
 53 63  1  0  0  0  0
 54 63  1  0  0  0  0
 55 63  1  0  0  0  0
 56 74  1  0  0  0  0
 57 62  1  0  0  0  0
 57 73  1  0  0  0  0
 58 62  1  0  0  0  0
 58 83  1  0  0  0  0
 59 63  1  0  0  0  0
 59 72  1  0  0  0  0
 60 74  1  0  0  0  0
 61 62  1  0  0  0  0
 64 65  1  0  0  0  0
 73 87  1  0  0  0  0
 80 87  2  0  0  0  0
 81 87  2  0  0  0  0
M  CHG  1  74   1
M  ISO  4  36 100  58 101  70 100  83 101
M  END
> <Batch ID>
0187

> <Smiles>
CNC(C)C(=O)NC(C(=O)N1Cc2cc([101O:1][101CH2:1]C(CNS(=O)(=O)c3sc([100NH:0][100C:0](=O)N4CCCC(n5nc(-c6ccc(Oc7ccc(F)cc7F)cc6)c(C(N)=O)c5N)C4)cc3C)C(C)C)ccc2CC1C(=O)NC1CCCc2ccccc21)C(C)(C)C

> <Shape>
0.227

> <Color>
0.044

> <Negative vol penalty>
0.000

$$$$

  -OEChem-04052305123D

 85 93  0     1  0  0  0  0  0999 V2000
  -23.0602  -30.1290   23.7620 C   0  0  0  0  0  0  0  0  0  0  0  0
  -24.1958  -29.8917   22.9941 C   0  0  0  0  0  0  0  0  0  0  0  0
  -24.2854   -9.7686   20.6660 C   0  0  0  0  0  0  0  0  0  0  0  0
  -24.8100  -10.4906   22.9111 C   0  0  0  0  0  0  0  0  0  0  0  0
  -22.2259  -29.0696   24.1164 C   0  0  0  0  0  0  0  0  0  0  0  0
  -24.4984  -28.5947   22.5811 C   0  0  0  0  0  0  0  0  0  0  0  0
  -27.1114  -26.9282   17.2990 C   0  0  0  0  0  0  0  0  0  0  0  0
  -23.9569   -8.5024   21.1499 C   0  0  0  0  0  0  0  0  0  0  0  0
  -24.4815   -9.2244   23.3951 C   0  0  0  0  0  0  0  0  0  0  0  0
  -28.4250  -26.6027   16.9641 C   0  0  0  0  0  0  0  0  0  0  0  0
  -23.4359   -6.2891   25.2684 C   0  0  0  0  0  0  0  0  0  0  0  0
  -22.6465   -6.2174   26.4161 C   0  0  0  0  0  0  0  0  0  0  0  0
  -27.9083  -24.2622   17.2368 C   0  0  0  0  0  0  0  0  0  0  0  0
  -20.8846   -7.4176   25.2794 C   0  0  0  0  0  0  0  0  0  0  0  0
  -24.7121  -10.7628   21.5465 C   0  0  0  0  0  0  0  0  0  0  0  0
  -24.1898  -13.1731   20.8943 C   0  0  0  0  0  0  0  0  0  0  0  0
  -22.5132  -27.7603   23.6994 C   0  0  0  0  0  0  0  0  0  0  0  0
  -26.1877  -25.9221   17.6166 C   0  0  0  0  0  0  0  0  0  0  0  0
  -23.6678  -27.5166   22.9314 C   0  0  0  0  0  0  0  0  0  0  0  0
  -26.5828  -24.5774   17.5730 C   0  0  0  0  0  0  0  0  0  0  0  0
  -24.0549   -8.2302   22.5145 C   0  0  0  0  0  0  0  0  0  0  0  0
  -28.8244  -25.2697   16.9357 C   0  0  0  0  0  0  0  0  0  0  0  0
  -22.9496   -6.9251   24.1261 C   0  0  0  0  0  0  0  0  0  0  0  0
  -21.3709   -6.7816   26.4217 C   0  0  0  0  0  0  0  0  0  0  0  0
  -21.6739   -7.4893   24.1316 C   0  0  0  0  0  0  0  0  0  0  0  0
  -25.0521  -12.0708   21.0471 C   0  0  0  0  0  0  0  0  0  0  0  0
  -29.2996  -21.3781   21.1053 C   0  0  0  0  0  0  0  0  0  0  0  0
  -24.9904  -14.1678   20.3883 C   0  0  0  0  0  0  0  0  0  0  0  0
  -28.0824  -21.4782   21.7460 C   0  0  0  0  0  0  0  0  0  0  0  0
  -28.7670  -19.2508   21.1356 C   0  0  0  0  0  0  0  0  0  0  0  0
  -22.7903  -13.2876   21.1840 C   0  0  0  0  0  0  0  0  0  0  0  0
  -24.4835  -25.1735   20.1933 C   0  0  0  0  0  0  0  0  0  0  0  0
  -23.1693  -22.9724   18.2057 C   0  0  0  0  0  0  0  0  0  0  0  0
  -23.4763  -21.0514   15.4017 C   0  0  0  0  0  0  0  0  0  0  0  0
  -30.5804  -23.8821   18.7096 C   0  0  0  0  0  0  0  0  0  0  0  0
  -29.7495  -17.0581   20.3786 C   0  0  0  0  0  0  0  0  0  0  0  0
  -21.6073  -26.6407   24.1470 C   0  0  0  0  0  0  0  0  0  0  0  0
  -24.7673  -26.2882   17.9498 C   0  0  0  0  0  0  0  0  0  0  0  0
  -25.6243  -23.4586   17.8858 C   0  0  0  0  0  0  0  0  0  0  0  0
  -21.7962  -25.3502   23.3537 C   0  0  0  0  0  0  0  0  0  0  0  0
  -29.7110  -13.9915   18.5698 C   0  0  0  0  0  0  0  0  0  0  0  0
  -23.2793  -25.0233   23.2114 C   0  0  0  0  0  0  0  0  0  0  0  0
  -28.4246  -13.3091   19.0404 C   0  0  0  0  0  0  0  0  0  0  0  0
  -30.3947  -14.7556   19.7022 C   0  0  0  0  0  0  0  0  0  0  0  0
  -28.2500  -15.0301   20.8829 C   0  0  0  0  0  0  0  0  0  0  0  0
  -24.0163  -26.1271   22.4434 C   0  0  1  0  0  0  0  0  0  0  0  0
  -24.0465  -25.2123   18.7562 C   0  0  1  0  0  0  0  0  0  0  0  0
  -27.4915  -14.3016   19.7615 C   0  0  2  0  0  0  0  0  0  0  0  0
  -31.5006  -22.3341   22.9557 C   0  0  0  0  0  0  0  0  0  0  0  0
  -22.2534  -19.3235   14.0540 C   0  0  0  0  0  0  0  0  0  0  0  0
  -32.0760  -23.5703   16.7065 C   0  0  0  0  0  0  0  0  0  0  0  0
  -23.8612  -20.8577   20.2936 C   0  0  0  0  0  0  0  0  0  0  0  0
  -23.5054  -19.1083   18.5382 C   0  0  0  0  0  0  0  0  0  0  0  0
  -21.6141  -20.5794   19.2319 C   0  0  0  0  0  0  0  0  0  0  0  0
  -23.4170  -22.7919   13.0088 C   0  0  0  0  0  0  0  0  0  0  0  0
  -31.5993  -22.3711   21.4355 C   0  0  0  0  0  0  0  0  0  0  0  0
  -30.2265  -22.5257   20.7588 C   0  0  1  0  0  0  0  0  0  0  0  0
  -23.4861  -21.5442   17.8331 C   0  0  1  0  0  0  0  0  0  0  0  0
  -22.5308  -20.8072   14.2395 C   0  0  2  0  0  0  0  0  0  0  0  0
  -30.6481  -23.7651   17.1932 C   0  0  2  0  0  0  0  0  0  1  0  0
  -23.1355  -20.5434   18.9701 C   0  0  0  0  0  0  0  0  0  0  0  0
  -26.3045  -12.3396   20.6686 N   0  0  0  0  0  0  0  0  0  0  0  0
  -29.6940  -20.1016   20.7549 N   0  0  0  0  0  0  0  0  0  0  0  0
  -26.2350  -13.6220   20.2729 N   0  0  0  0  0  0  0  0  0  0  0  0
  -24.2482  -23.8679   18.2121 N   0  0  0  0  0  0  0  0  0  0  0  0
  -29.4515  -15.6796   20.3358 N   0  0  0  0  0  0  0  0  0  0  0  0
  -24.7442  -15.4472   20.0351 N   0  0  0  0  0  0  0  0  0  0  0  0
  -27.4637  -22.5971   22.1952 N   0  0  0  0  0  0  0  0  0  0  0  0
  -22.1210  -12.1692   21.6993 N   0  0  0  0  0  0  0  0  0  0  0  0
  -28.7639  -17.8428   20.9764 N   0  0  0  0  0  0  0  0  0  0  0  0
  -23.7626  -26.0106   21.0233 N   0  0  0  0  0  0  0  0  0  0  0  0
  -30.3513  -22.6620   19.3266 N   0  0  0  0  0  0  0  0  0  0  0  0
  -22.7925  -21.2869   16.5757 N   0  0  0  0  0  0  0  0  0  0  0  0
  -23.1158  -21.3375   12.9756 N   0  3  0  0  0  0  0  0  0  0  0  0
  -22.1487  -14.3452   20.9763 O   0  0  0  0  0  0  0  0  0  0  0  0
  -25.4055  -24.4375   20.5247 O   0  0  0  0  0  0  0  0  0  0  0  0
  -22.0063  -23.2836   18.4740 O   0  0  0  0  0  0  0  0  0  0  0  0
  -24.6993  -21.0312   15.2811 O   0  0  0  0  0  0  0  0  0  0  0  0
  -30.7002  -24.9566   19.2945 O   0  0  0  0  0  0  0  0  0  0  0  0
  -30.7893  -17.5126   19.8945 O   0  0  0  0  0  0  0  0  0  0  0  0
  -23.7342   -6.9948   22.9871 O   0  0  0  0  0  0  0  0  0  0  0  0
  -30.1062  -24.9493   16.6097 O   0  0  0  0  0  0  0  0  0  1  0  0
  -20.6124   -6.7114   27.5234 F   0  0  0  0  0  0  0  0  0  0  0  0
  -21.2009   -8.1006   23.0369 F   0  0  0  0  0  0  0  0  0  0  0  0
  -27.3940  -19.9171   21.9204 S   0  0  0  0  0  0  0  0  0  0  0  0
  1  2  1  0  0  0  0
  1  5  2  0  0  0  0
  2  6  2  0  0  0  0
  3  8  2  0  0  0  0
  3 15  1  0  0  0  0
  4  9  1  0  0  0  0
  4 15  2  0  0  0  0
  5 17  1  0  0  0  0
  6 19  1  0  0  0  0
  7 10  2  0  0  0  0
  7 18  1  0  0  0  0
  8 21  1  0  0  0  0
  9 21  2  0  0  0  0
 10 22  1  0  0  0  0
 11 12  2  0  0  0  0
 11 23  1  0  0  0  0
 12 24  1  0  0  0  0
 13 20  1  0  0  0  0
 13 22  2  0  0  0  0
 14 24  2  0  0  0  0
 14 25  1  0  0  0  0
 15 26  1  0  0  0  0
 16 26  1  0  0  0  0
 16 28  2  0  0  0  0
 16 31  1  0  0  0  0
 17 19  2  0  0  0  0
 17 37  1  0  0  0  0
 18 20  2  0  0  0  0
 18 38  1  0  0  0  0
 19 46  1  0  0  0  0
 20 39  1  0  0  0  0
 21 81  1  0  0  0  0
 22 82  1  0  0  0  0
 23 25  2  0  0  0  0
 23 81  1  0  0  0  0
 24 83  1  0  0  0  0
 25 84  1  0  0  0  0
 26 62  2  0  0  0  0
 27 29  2  0  0  0  0
 27 57  1  0  0  0  0
 27 63  1  0  0  0  0
 28 64  1  0  0  0  0
 28 67  1  0  0  0  0
 29 68  1  0  0  0  0
 29 85  1  0  0  0  0
 30 63  2  0  0  0  0
 30 70  1  0  0  0  0
 30 85  1  0  0  0  0
 31 69  1  0  0  0  0
 31 75  2  0  0  0  0
 32 47  1  0  0  0  0
 32 71  1  0  0  0  0
 32 76  2  0  0  0  0
 33 58  1  0  0  0  0
 33 65  1  0  0  0  0
 33 77  2  0  0  0  0
 34 59  1  0  0  0  0
 34 73  1  0  0  0  0
 34 78  2  0  0  0  0
 35 60  1  0  0  0  0
 35 72  1  0  0  0  0
 35 79  2  0  0  0  0
 36 66  1  0  0  0  0
 36 70  1  0  0  0  0
 36 80  2  0  0  0  0
 37 40  1  0  0  0  0
 38 47  1  0  0  0  0
 39 65  1  0  0  0  0
 40 42  1  0  0  0  0
 41 43  1  0  0  0  0
 41 44  1  0  0  0  0
 42 46  1  0  0  0  0
 43 48  1  0  0  0  0
 44 66  1  0  0  0  0
 45 48  1  0  0  0  0
 45 66  1  0  0  0  0
 46 71  1  0  0  0  0
 47 65  1  0  0  0  0
 48 64  1  0  0  0  0
 49 56  1  0  0  0  0
 50 59  1  0  0  0  0
 51 60  1  0  0  0  0
 52 61  1  0  0  0  0
 53 61  1  0  0  0  0
 54 61  1  0  0  0  0
 55 74  1  0  0  0  0
 56 57  1  0  0  0  0
 57 72  1  0  0  0  0
 58 61  1  0  0  0  0
 58 73  1  0  0  0  0
 59 74  1  0  0  0  0
 60 82  1  0  0  0  0
 62 64  1  0  0  0  0
M  CHG  1  74   1
M  ISO  4  36 100  60 101  70 100  82 101
M  END
> <Batch ID>
0187

> <Smiles>
CCC(NC(=O)[101CH:1](C)[101O:1]c1ccc2c(c1)CN(C(=O)C(NC(=O)C(C)NC)C(C)(C)C)C(C(=O)NC1CCCc3ccccc31)C2)c1nc([100NH:0][100C:0](=O)N2CCCC(n3nc(-c4ccc(Oc5ccc(F)cc5F)cc4)c(C(N)=O)c3N)C2)sc1N

> <Shape>
0.219

> <Color>
0.112

> <Negative vol penalty>
0.000

$$$$

  -OEChem-04052305123D

 84 92  0     1  0  0  0  0  0999 V2000
  -19.5311  -30.5442   23.8468 C   0  0  0  0  0  0  0  0  0  0  0  0
  -20.8949  -30.3364   23.6670 C   0  0  0  0  0  0  0  0  0  0  0  0
  -25.9305  -14.2966   21.8003 C   0  0  0  0  0  0  0  0  0  0  0  0
  -24.8525  -15.5648   20.0491 C   0  0  0  0  0  0  0  0  0  0  0  0
  -18.6319  -29.5048   23.6122 C   0  0  0  0  0  0  0  0  0  0  0  0
  -21.3604  -29.0887   23.2536 C   0  0  0  0  0  0  0  0  0  0  0  0
  -24.8590  -29.4308   19.6083 C   0  0  0  0  0  0  0  0  0  0  0  0
  -24.8525  -13.4118   21.8231 C   0  0  0  0  0  0  0  0  0  0  0  0
  -23.7745  -14.6800   20.0720 C   0  0  0  0  0  0  0  0  0  0  0  0
  -26.1524  -29.7763   19.9975 C   0  0  0  0  0  0  0  0  0  0  0  0
  -22.5489  -10.6124   22.0916 C   0  0  0  0  0  0  0  0  0  0  0  0
  -22.8313   -9.2472   22.1352 C   0  0  0  0  0  0  0  0  0  0  0  0
  -26.7989  -27.4548   19.8883 C   0  0  0  0  0  0  0  0  0  0  0  0
  -24.0219   -9.4264   20.0406 C   0  0  0  0  0  0  0  0  0  0  0  0
  -32.1658  -24.1741   17.7677 C   0  0  0  0  0  0  0  0  0  0  0  0
  -25.9305  -15.3732   20.9133 C   0  0  0  0  0  0  0  0  0  0  0  0
  -28.2070  -16.1908   20.1029 C   0  0  0  0  0  0  0  0  0  0  0  0
  -19.0858  -28.2465   23.1863 C   0  0  0  0  0  0  0  0  0  0  0  0
  -24.5224  -28.0911   19.3663 C   0  0  0  0  0  0  0  0  0  0  0  0
  -20.4665  -28.0311   23.0143 C   0  0  0  0  0  0  0  0  0  0  0  0
  -25.5012  -27.0952   19.4937 C   0  0  0  0  0  0  0  0  0  0  0  0
  -23.7745  -13.6035   20.9590 C   0  0  0  0  0  0  0  0  0  0  0  0
  -27.1218  -28.7879   20.1404 C   0  0  0  0  0  0  0  0  0  0  0  0
  -23.0029  -11.3847   21.0224 C   0  0  0  0  0  0  0  0  0  0  0  0
  -23.5678   -8.6541   21.1098 C   0  0  0  0  0  0  0  0  0  0  0  0
  -23.7394  -10.7917   19.9969 C   0  0  0  0  0  0  0  0  0  0  0  0
  -27.0436  -16.2878   20.8896 C   0  0  0  0  0  0  0  0  0  0  0  0
  -32.0789  -24.9670   18.8928 C   0  0  0  0  0  0  0  0  0  0  0  0
  -28.9469  -17.2958   20.4465 C   0  0  0  0  0  0  0  0  0  0  0  0
  -30.7502  -23.3429   19.5306 C   0  0  0  0  0  0  0  0  0  0  0  0
  -31.9412  -27.4259   18.6113 C   0  0  0  0  0  0  0  0  0  0  0  0
  -28.5850  -15.1914   19.1469 C   0  0  0  0  0  0  0  0  0  0  0  0
  -22.4779  -26.0245   20.6519 C   0  0  0  0  0  0  0  0  0  0  0  0
  -30.7676  -29.3596   18.9256 C   0  0  0  0  0  0  0  0  0  0  0  0
  -23.4538  -24.1333   18.2038 C   0  0  0  0  0  0  0  0  0  0  0  0
  -25.8673  -23.3742   15.9135 C   0  0  0  0  0  0  0  0  0  0  0  0
  -29.3504  -22.7411   21.5368 C   0  0  0  0  0  0  0  0  0  0  0  0
  -18.0799  -27.1399   22.9910 C   0  0  0  0  0  0  0  0  0  0  0  0
  -23.1297  -27.7380   18.9213 C   0  0  0  0  0  0  0  0  0  0  0  0
  -25.1962  -25.6447   19.2261 C   0  0  0  0  0  0  0  0  0  0  0  0
  -18.6230  -25.9568   22.1937 C   0  0  0  0  0  0  0  0  0  0  0  0
  -28.3456  -20.6211   24.2151 C   0  0  0  0  0  0  0  0  0  0  0  0
  -20.0014  -25.5541   22.7081 C   0  0  0  0  0  0  0  0  0  0  0  0
  -28.0130  -19.2968   23.5239 C   0  0  0  0  0  0  0  0  0  0  0  0
  -27.9387  -21.8228   23.3640 C   0  0  0  0  0  0  0  0  0  0  0  0
  -28.1265  -20.4914   21.2997 C   0  0  0  0  0  0  0  0  0  0  0  0
  -21.0081  -26.6990   22.5428 C   0  0  1  0  0  0  0  0  0  0  0  0
  -22.7643  -26.2832   19.1998 C   0  0  1  0  0  0  0  0  0  0  0  0
  -28.5770  -19.2521   22.0902 C   0  0  2  0  0  0  0  0  0  0  0  0
  -30.9230  -31.7592   19.6316 C   0  0  0  0  0  0  0  0  0  0  0  0
  -26.3962  -21.7522   14.0732 C   0  0  0  0  0  0  0  0  0  0  0  0
  -24.0955  -21.9911   20.2797 C   0  0  0  0  0  0  0  0  0  0  0  0
  -25.4651  -20.8176   18.5432 C   0  0  0  0  0  0  0  0  0  0  0  0
  -23.0153  -21.1323   18.1940 C   0  0  0  0  0  0  0  0  0  0  0  0
  -26.0189  -25.5340   13.8958 C   0  0  0  0  0  0  0  0  0  0  0  0
  -32.7835  -26.2803   19.0988 C   0  0  0  0  0  0  0  0  0  0  0  0
  -28.8572  -30.4141   20.1405 C   0  0  0  0  0  0  0  0  0  1  0  0
  -30.3785  -30.3804   19.9961 C   0  0  1  0  0  0  0  0  0  0  0  0
  -24.5600  -23.1250   18.0071 C   0  0  1  0  0  0  0  0  0  0  0  0
  -25.7907  -23.1030   14.4218 C   0  0  2  0  0  0  0  0  0  0  0  0
  -24.2895  -21.7935   18.7630 C   0  0  0  0  0  0  0  0  0  0  0  0
  -27.0402  -17.3689   21.6740 N   0  0  0  0  0  0  0  0  0  0  0  0
  -31.2673  -24.4922   19.9046 N   0  0  0  0  0  0  0  0  0  0  0  0
  -31.5540  -28.3453   19.4312 N   0  0  0  0  0  0  0  0  0  0  0  0
  -28.2106  -17.9613   21.3819 N   0  0  0  0  0  0  0  0  0  0  0  0
  -23.8185  -25.3490   18.7995 N   0  0  0  0  0  0  0  0  0  0  0  0
  -28.5129  -21.7141   22.0211 N   0  0  0  0  0  0  0  0  0  0  0  0
  -30.1491  -17.7533   20.0367 N   0  0  0  0  0  0  0  0  0  0  0  0
  -27.7077  -14.1234   18.9145 N   0  0  0  0  0  0  0  0  0  0  0  0
  -29.8639  -22.5127   20.2606 N   0  0  0  0  0  0  0  0  0  0  0  0
  -21.4491  -26.7896   21.1675 N   0  0  0  0  0  0  0  0  0  0  0  0
  -24.7208  -22.9716   16.5653 N   0  0  0  0  0  0  0  0  0  0  0  0
  -26.5250  -24.1564   13.6654 N   0  3  0  0  0  0  0  0  0  0  0  0
  -29.6760  -15.2351   18.5295 O   0  0  0  0  0  0  0  0  0  0  0  0
  -23.1402  -25.1913   21.2593 O   0  0  0  0  0  0  0  0  0  0  0  0
  -30.3856  -29.4697   17.7618 O   0  0  0  0  0  0  0  0  0  0  0  0
  -22.3097  -23.8553   17.8358 O   0  0  0  0  0  0  0  0  0  0  0  0
  -26.8476  -23.8881   16.4476 O   0  0  0  0  0  0  0  0  0  0  0  0
  -29.6161  -23.7363   22.2158 O   0  0  0  0  0  0  0  0  0  0  0  0
  -22.7224  -12.7401   20.9808 O   0  0  0  0  0  0  0  0  0  0  0  0
  -28.3849  -29.1224   20.5208 O   0  0  0  0  0  0  0  0  0  1  0  0
  -23.8402   -7.3434   21.1526 F   0  0  0  0  0  0  0  0  0  0  0  0
  -24.1793  -11.5287   18.9678 F   0  0  0  0  0  0  0  0  0  0  0  0
  -31.1976  -22.7737   17.9747 S   0  0  0  0  0  0  0  0  0  0  0  0
  1  2  1  0  0  0  0
  1  5  2  0  0  0  0
  2  6  2  0  0  0  0
  3  8  2  0  0  0  0
  3 16  1  0  0  0  0
  4  9  1  0  0  0  0
  4 16  2  0  0  0  0
  5 18  1  0  0  0  0
  6 20  1  0  0  0  0
  7 10  2  0  0  0  0
  7 19  1  0  0  0  0
  8 22  1  0  0  0  0
  9 22  2  0  0  0  0
 10 23  1  0  0  0  0
 11 12  2  0  0  0  0
 11 24  1  0  0  0  0
 12 25  1  0  0  0  0
 13 21  1  0  0  0  0
 13 23  2  0  0  0  0
 14 25  2  0  0  0  0
 14 26  1  0  0  0  0
 15 28  2  0  0  0  0
 15 84  1  0  0  0  0
 16 27  1  0  0  0  0
 17 27  1  0  0  0  0
 17 29  2  0  0  0  0
 17 32  1  0  0  0  0
 18 20  2  0  0  0  0
 18 38  1  0  0  0  0
 19 21  2  0  0  0  0
 19 39  1  0  0  0  0
 20 47  1  0  0  0  0
 21 40  1  0  0  0  0
 22 80  1  0  0  0  0
 23 81  1  0  0  0  0
 24 26  2  0  0  0  0
 24 80  1  0  0  0  0
 25 82  1  0  0  0  0
 26 83  1  0  0  0  0
 27 62  2  0  0  0  0
 28 56  1  0  0  0  0
 28 63  1  0  0  0  0
 29 65  1  0  0  0  0
 29 68  1  0  0  0  0
 30 63  2  0  0  0  0
 30 70  1  0  0  0  0
 30 84  1  0  0  0  0
 31 56  1  0  0  0  0
 31 64  2  0  0  0  0
 32 69  1  0  0  0  0
 32 74  2  0  0  0  0
 33 48  1  0  0  0  0
 33 71  1  0  0  0  0
 33 75  2  0  0  0  0
 34 58  1  0  0  0  0
 34 64  1  0  0  0  0
 34 76  2  0  0  0  0
 35 59  1  0  0  0  0
 35 66  1  0  0  0  0
 35 77  2  0  0  0  0
 36 60  1  0  0  0  0
 36 72  1  0  0  0  0
 36 78  2  0  0  0  0
 37 67  1  0  0  0  0
 37 70  1  0  0  0  0
 37 79  2  0  0  0  0
 38 41  1  0  0  0  0
 39 48  1  0  0  0  0
 40 66  1  0  0  0  0
 41 43  1  0  0  0  0
 42 44  1  0  0  0  0
 42 45  1  0  0  0  0
 43 47  1  0  0  0  0
 44 49  1  0  0  0  0
 45 67  1  0  0  0  0
 46 49  1  0  0  0  0
 46 67  1  0  0  0  0
 47 71  1  0  0  0  0
 48 66  1  0  0  0  0
 49 65  1  0  0  0  0
 50 58  1  0  0  0  0
 51 60  1  0  0  0  0
 52 61  1  0  0  0  0
 53 61  1  0  0  0  0
 54 61  1  0  0  0  0
 55 73  1  0  0  0  0
 57 58  1  0  0  0  0
 57 81  1  0  0  0  0
 59 61  1  0  0  0  0
 59 72  1  0  0  0  0
 60 73  1  0  0  0  0
 62 65  1  0  0  0  0
M  CHG  1  73   1
M  ISO  4  37 100  57 101  70 100  81 101
M  END
> <Batch ID>
0187

> <Smiles>
CNC(C)C(=O)NC(C(=O)N1Cc2cc([101O:1][101CH2:1]C(C)C(=O)NC=Cc3csc([100NH:0][100C:0](=O)N4CCCC(n5nc(-c6ccc(Oc7ccc(F)cc7F)cc6)c(C(N)=O)c5N)C4)n3)ccc2CC1C(=O)NC1CCCc2ccccc21)C(C)(C)C

> <Shape>
0.244

> <Color>
0.058

> <Negative vol penalty>
0.000

$$$$

  -OEChem-04052305123D

 84 92  0     1  0  0  0  0  0999 V2000
  -27.0533  -35.5429   22.8926 C   0  0  0  0  0  0  0  0  0  0  0  0
  -27.4176  -34.2064   22.7637 C   0  0  0  0  0  0  0  0  0  0  0  0
  -22.1214  -15.7132   19.7649 C   0  0  0  0  0  0  0  0  0  0  0  0
  -23.5443  -16.0698   17.8453 C   0  0  0  0  0  0  0  0  0  0  0  0
  -25.7631  -35.8762   23.3025 C   0  0  0  0  0  0  0  0  0  0  0  0
  -26.4919  -33.2024   23.0456 C   0  0  0  0  0  0  0  0  0  0  0  0
  -26.4866  -29.5300   19.5587 C   0  0  0  0  0  0  0  0  0  0  0  0
  -21.1500  -16.5382   19.1982 C   0  0  0  0  0  0  0  0  0  0  0  0
  -22.5728  -16.8948   17.2785 C   0  0  0  0  0  0  0  0  0  0  0  0
  -27.5145  -28.5902   19.6222 C   0  0  0  0  0  0  0  0  0  0  0  0
  -21.4934  -20.0792   17.6327 C   0  0  0  0  0  0  0  0  0  0  0  0
  -21.9142  -21.2845   17.0710 C   0  0  0  0  0  0  0  0  0  0  0  0
  -26.0239  -27.0429   20.7190 C   0  0  0  0  0  0  0  0  0  0  0  0
  -21.0398  -20.5912   14.9281 C   0  0  0  0  0  0  0  0  0  0  0  0
  -31.0459  -18.8108   20.5097 C   0  0  0  0  0  0  0  0  0  0  0  0
  -23.3186  -15.4790   19.0885 C   0  0  0  0  0  0  0  0  0  0  0  0
  -24.4554  -13.2351   19.5131 C   0  0  0  0  0  0  0  0  0  0  0  0
  -24.8182  -34.8758   23.5803 C   0  0  0  0  0  0  0  0  0  0  0  0
  -25.2206  -29.2368   20.0856 C   0  0  0  0  0  0  0  0  0  0  0  0
  -25.1882  -33.5226   23.4609 C   0  0  0  0  0  0  0  0  0  0  0  0
  -24.9809  -27.9797   20.6586 C   0  0  0  0  0  0  0  0  0  0  0  0
  -21.3756  -17.1290   17.9550 C   0  0  0  0  0  0  0  0  0  0  0  0
  -27.2840  -27.3475   20.2050 C   0  0  0  0  0  0  0  0  0  0  0  0
  -20.8458  -19.1298   16.8421 C   0  0  0  0  0  0  0  0  0  0  0  0
  -21.6874  -21.5406   15.7187 C   0  0  0  0  0  0  0  0  0  0  0  0
  -20.6189  -19.3858   15.4899 C   0  0  0  0  0  0  0  0  0  0  0  0
  -24.3228  -14.6273   19.6737 C   0  0  0  0  0  0  0  0  0  0  0  0
  -30.3788  -17.6652   20.1294 C   0  0  0  0  0  0  0  0  0  0  0  0
  -25.5556  -12.9057   20.2664 C   0  0  0  0  0  0  0  0  0  0  0  0
  -29.6703  -19.6992   19.0509 C   0  0  0  0  0  0  0  0  0  0  0  0
  -23.6555  -12.3212   18.7510 C   0  0  0  0  0  0  0  0  0  0  0  0
  -23.4153  -30.4597   22.3984 C   0  0  0  0  0  0  0  0  0  0  0  0
  -28.9844  -24.2145   19.5756 C   0  0  0  0  0  0  0  0  0  0  0  0
  -30.3006  -16.1273   22.0604 C   0  0  0  0  0  0  0  0  0  0  0  0
  -21.2235  -28.3523   21.2683 C   0  0  0  0  0  0  0  0  0  0  0  0
  -20.5927  -25.4543   19.5799 C   0  0  0  0  0  0  0  0  0  0  0  0
  -23.4499  -35.2843   24.0657 C   0  0  0  0  0  0  0  0  0  0  0  0
  -24.1148  -30.2516   19.9852 C   0  0  0  0  0  0  0  0  0  0  0  0
  -23.6338  -27.6082   21.2205 C   0  0  0  0  0  0  0  0  0  0  0  0
  -22.4153  -34.1649   23.9839 C   0  0  0  0  0  0  0  0  0  0  0  0
  -28.0155  -14.2899   24.1201 C   0  0  0  0  0  0  0  0  0  0  0  0
  -22.9878  -32.8668   24.5444 C   0  0  0  0  0  0  0  0  0  0  0  0
  -26.8100  -14.0664   23.2079 C   0  0  0  0  0  0  0  0  0  0  0  0
  -28.6721  -15.6414   23.8566 C   0  0  0  0  0  0  0  0  0  0  0  0
  -27.8647  -15.6338   21.5179 C   0  0  0  0  0  0  0  0  0  0  0  0
  -24.2048  -32.4051   23.7337 C   0  0  1  0  0  0  0  0  0  0  0  0
  -23.0103  -30.0354   21.0151 C   0  0  1  0  0  0  0  0  0  0  0  0
  -27.1904  -14.2668   21.7302 C   0  0  2  0  0  0  0  0  0  0  0  0
  -18.7049  -23.9709   18.8497 C   0  0  0  0  0  0  0  0  0  0  0  0
  -28.8881  -22.6736   16.9616 C   0  0  0  0  0  0  0  0  0  0  0  0
  -20.9548  -27.2955   24.1180 C   0  0  0  0  0  0  0  0  0  0  0  0
  -19.8270  -25.2647   23.1843 C   0  0  0  0  0  0  0  0  0  0  0  0
  -18.7938  -27.5145   22.8785 C   0  0  0  0  0  0  0  0  0  0  0  0
  -21.2574  -25.8210   16.7194 C   0  0  0  0  0  0  0  0  0  0  0  0
  -28.6867  -22.7244   19.4713 C   0  0  0  0  0  0  0  0  0  0  0  0
  -27.9081  -25.0529   20.2373 C   0  0  0  0  0  0  0  0  0  1  0  0
  -30.5598  -16.2724   20.5820 C   0  0  2  0  0  0  0  0  0  0  0  0
  -20.8697  -26.9151   21.5658 C   0  0  1  0  0  0  0  0  0  0  0  0
  -19.6124  -25.1298   18.4672 C   0  0  2  0  0  0  0  0  0  0  0  0
  -29.3571  -22.0488   18.2718 C   0  0  1  0  0  0  0  0  0  0  0  0
  -20.1373  -26.7549   22.9279 C   0  0  0  0  0  0  0  0  0  0  0  0
  -30.6413  -19.9781   19.8920 N   0  0  0  0  0  0  0  0  0  0  0  0
  -25.2635  -15.1468   20.4669 N   0  0  0  0  0  0  0  0  0  0  0  0
  -25.9977  -14.0752   20.8115 N   0  0  0  0  0  0  0  0  0  0  0  0
  -22.5866  -28.6366   21.1044 N   0  0  0  0  0  0  0  0  0  0  0  0
  -28.9977  -15.8022   22.4384 N   0  0  0  0  0  0  0  0  0  0  0  0
  -26.1783  -11.7328   20.5091 N   0  0  0  0  0  0  0  0  0  0  0  0
  -22.5618  -12.8270   18.0352 N   0  0  0  0  0  0  0  0  0  0  0  0
  -29.0301  -20.6369   18.2618 N   0  0  0  0  0  0  0  0  0  0  0  0
  -23.7822  -31.7885   22.4944 N   0  0  0  0  0  0  0  0  0  0  0  0
  -20.1076  -26.4363   20.4176 N   0  0  0  0  0  0  0  0  0  0  0  0
  -20.3448  -24.7622   17.2225 N   0  3  0  0  0  0  0  0  0  0  0  0
  -23.8936  -11.0900   18.7192 O   0  0  0  0  0  0  0  0  0  0  0  0
  -23.3950  -29.6425   23.3113 O   0  0  0  0  0  0  0  0  0  0  0  0
  -30.0203  -24.7168   19.1428 O   0  0  0  0  0  0  0  0  0  0  0  0
  -31.2302  -16.2955   22.8540 O   0  0  0  0  0  0  0  0  0  0  0  0
  -20.3230  -29.1904   21.1774 O   0  0  0  0  0  0  0  0  0  0  0  0
  -21.6784  -24.8903   19.6967 O   0  0  0  0  0  0  0  0  0  0  0  0
  -20.4278  -17.9339   17.4015 O   0  0  0  0  0  0  0  0  0  0  0  0
  -28.2858  -26.4286   20.2689 O   0  0  0  0  0  0  0  0  0  1  0  0
  -22.0902  -22.6988   15.1798 F   0  0  0  0  0  0  0  0  0  0  0  0
  -19.9962  -18.4781   14.7256 F   0  0  0  0  0  0  0  0  0  0  0  0
  -31.8058  -15.7557   20.3072 F   0  0  0  0  0  0  0  0  0  0  0  0
  -29.1934  -18.0536   18.9525 S   0  0  0  0  0  0  0  0  0  0  0  0
  1  2  1  0  0  0  0
  1  5  2  0  0  0  0
  2  6  2  0  0  0  0
  3  8  2  0  0  0  0
  3 16  1  0  0  0  0
  4  9  1  0  0  0  0
  4 16  2  0  0  0  0
  5 18  1  0  0  0  0
  6 20  1  0  0  0  0
  7 10  2  0  0  0  0
  7 19  1  0  0  0  0
  8 22  1  0  0  0  0
  9 22  2  0  0  0  0
 10 23  1  0  0  0  0
 11 12  2  0  0  0  0
 11 24  1  0  0  0  0
 12 25  1  0  0  0  0
 13 21  1  0  0  0  0
 13 23  2  0  0  0  0
 14 25  2  0  0  0  0
 14 26  1  0  0  0  0
 15 28  2  0  0  0  0
 15 62  1  0  0  0  0
 16 27  1  0  0  0  0
 17 27  1  0  0  0  0
 17 29  2  0  0  0  0
 17 31  1  0  0  0  0
 18 20  2  0  0  0  0
 18 37  1  0  0  0  0
 19 21  2  0  0  0  0
 19 38  1  0  0  0  0
 20 46  1  0  0  0  0
 21 39  1  0  0  0  0
 22 79  1  0  0  0  0
 23 80  1  0  0  0  0
 24 26  2  0  0  0  0
 24 79  1  0  0  0  0
 25 81  1  0  0  0  0
 26 82  1  0  0  0  0
 27 63  2  0  0  0  0
 28 57  1  0  0  0  0
 28 84  1  0  0  0  0
 29 64  1  0  0  0  0
 29 67  1  0  0  0  0
 30 62  2  0  0  0  0
 30 69  1  0  0  0  0
 30 84  1  0  0  0  0
 31 68  1  0  0  0  0
 31 73  2  0  0  0  0
 32 47  1  0  0  0  0
 32 70  1  0  0  0  0
 32 74  2  0  0  0  0
 33 55  1  0  0  0  0
 33 56  1  0  0  0  0
 33 75  2  0  0  0  0
 34 57  1  0  0  0  0
 34 66  1  0  0  0  0
 34 76  2  0  0  0  0
 35 58  1  0  0  0  0
 35 65  1  0  0  0  0
 35 77  2  0  0  0  0
 36 59  1  0  0  0  0
 36 71  1  0  0  0  0
 36 78  2  0  0  0  0
 37 40  1  0  0  0  0
 38 47  1  0  0  0  0
 39 65  1  0  0  0  0
 40 42  1  0  0  0  0
 41 43  1  0  0  0  0
 41 44  1  0  0  0  0
 42 46  1  0  0  0  0
 43 48  1  0  0  0  0
 44 66  1  0  0  0  0
 45 48  1  0  0  0  0
 45 66  1  0  0  0  0
 46 70  1  0  0  0  0
 47 65  1  0  0  0  0
 48 64  1  0  0  0  0
 49 59  1  0  0  0  0
 50 60  1  0  0  0  0
 51 61  1  0  0  0  0
 52 61  1  0  0  0  0
 53 61  1  0  0  0  0
 54 72  1  0  0  0  0
 55 60  1  0  0  0  0
 56 80  1  0  0  0  0
 57 83  1  0  0  0  0
 58 61  1  0  0  0  0
 58 71  1  0  0  0  0
 59 72  1  0  0  0  0
 60 69  1  0  0  0  0
 63 64  1  0  0  0  0
M  CHG  1  72   1
M  ISO  4  34 100  56 101  57 100  80 101
M  END
> <Batch ID>
0187

> <Smiles>
CNC(C)C(=O)NC(C(=O)N1Cc2cc([101O:1][101CH2:1]C(=O)CC(C)Nc3ncc([100CH:0](F)[100C:0](=O)N4CCCC(n5nc(-c6ccc(Oc7ccc(F)cc7F)cc6)c(C(N)=O)c5N)C4)s3)ccc2CC1C(=O)NC1CCCc2ccccc21)C(C)(C)C

> <Shape>
0.260

> <Color>
0.098

> <Negative vol penalty>
0.000

$$$$

  -OEChem-04052305123D

 88 96  0     1  0  0  0  0  0999 V2000
  -20.6369  -17.7911   21.1546 C   0  0  0  0  0  0  0  0  0  0  0  0
  -21.7625  -18.5849   21.3506 C   0  0  0  0  0  0  0  0  0  0  0  0
  -22.9878  -10.0304   21.5692 C   0  0  0  0  0  0  0  0  0  0  0  0
  -23.7509  -11.0582   23.6182 C   0  0  0  0  0  0  0  0  0  0  0  0
  -19.5030  -18.3291   20.5473 C   0  0  0  0  0  0  0  0  0  0  0  0
  -21.7552  -19.9169   20.9383 C   0  0  0  0  0  0  0  0  0  0  0  0
  -23.7069  -23.0378   24.4163 C   0  0  0  0  0  0  0  0  0  0  0  0
  -22.1974   -9.1484   22.3060 C   0  0  0  0  0  0  0  0  0  0  0  0
  -22.9605  -10.1761   24.3550 C   0  0  0  0  0  0  0  0  0  0  0  0
  -25.0963  -23.0853   24.5210 C   0  0  0  0  0  0  0  0  0  0  0  0
  -23.1133   -6.9593   25.3844 C   0  0  0  0  0  0  0  0  0  0  0  0
  -23.6872   -6.3543   26.5025 C   0  0  0  0  0  0  0  0  0  0  0  0
  -25.1187  -25.1175   23.2214 C   0  0  0  0  0  0  0  0  0  0  0  0
  -32.0207  -17.3401   19.7767 C   0  0  0  0  0  0  0  0  0  0  0  0
  -21.9971   -7.3533   27.9105 C   0  0  0  0  0  0  0  0  0  0  0  0
  -23.7646  -10.9853   22.2253 C   0  0  0  0  0  0  0  0  0  0  0  0
  -24.2101  -13.1606   20.9694 C   0  0  0  0  0  0  0  0  0  0  0  0
  -19.4784  -19.6710   20.1361 C   0  0  0  0  0  0  0  0  0  0  0  0
  -23.0126  -24.0255   23.7028 C   0  0  0  0  0  0  0  0  0  0  0  0
  -20.6204  -20.4730   20.3237 C   0  0  0  0  0  0  0  0  0  0  0  0
  -23.7202  -25.0816   23.1112 C   0  0  0  0  0  0  0  0  0  0  0  0
  -32.1611  -18.7580   19.7898 C   0  0  0  0  0  0  0  0  0  0  0  0
  -22.1837   -9.2212   23.6989 C   0  0  0  0  0  0  0  0  0  0  0  0
  -25.8027  -24.1237   23.9211 C   0  0  0  0  0  0  0  0  0  0  0  0
  -21.9814   -7.7615   25.5293 C   0  0  0  0  0  0  0  0  0  0  0  0
  -23.1290   -6.5512   27.7656 C   0  0  0  0  0  0  0  0  0  0  0  0
  -21.4232   -7.9584   26.7924 C   0  0  0  0  0  0  0  0  0  0  0  0
  -24.5817  -11.8964   21.4648 C   0  0  0  0  0  0  0  0  0  0  0  0
  -31.0277  -19.3859   20.2575 C   0  0  0  0  0  0  0  0  0  0  0  0
  -25.3316  -13.6192   20.3226 C   0  0  0  0  0  0  0  0  0  0  0  0
  -30.7853  -16.9383   20.2352 C   0  0  0  0  0  0  0  0  0  0  0  0
  -22.9626  -13.8580   21.0836 C   0  0  0  0  0  0  0  0  0  0  0  0
  -30.7600  -20.8370   20.4298 C   0  0  0  0  0  0  0  0  0  0  0  0
  -21.1493  -24.0404   21.1277 C   0  0  0  0  0  0  0  0  0  0  0  0
  -20.7349  -27.1573   21.9249 C   0  0  0  0  0  0  0  0  0  0  0  0
  -21.9361  -29.9237   23.5222 C   0  0  0  0  0  0  0  0  0  0  0  0
  -30.8366  -14.4236   20.0952 C   0  0  0  0  0  0  0  0  0  0  0  0
  -18.2466  -20.1949   19.4413 C   0  0  0  0  0  0  0  0  0  0  0  0
  -21.5116  -23.9744   23.6218 C   0  0  0  0  0  0  0  0  0  0  0  0
  -23.0204  -26.1777   22.3514 C   0  0  0  0  0  0  0  0  0  0  0  0
  -18.1876  -21.7188   19.3726 C   0  0  0  0  0  0  0  0  0  0  0  0
  -29.6198  -11.2370   19.0743 C   0  0  0  0  0  0  0  0  0  0  0  0
  -19.5295  -22.2850   18.9193 C   0  0  0  0  0  0  0  0  0  0  0  0
  -28.1700  -11.2284   19.5645 C   0  0  0  0  0  0  0  0  0  0  0  0
  -30.5455  -11.9561   20.0540 C   0  0  0  0  0  0  0  0  0  0  0  0
  -28.6722  -13.3032   20.9173 C   0  0  0  0  0  0  0  0  0  0  0  0
  -20.6423  -21.9292   19.9125 C   0  0  1  0  0  0  0  0  0  0  0  0
  -20.9504  -24.7527   22.4357 C   0  0  1  0  0  0  0  0  0  0  0  0
  -27.6912  -12.6465   19.9324 C   0  0  2  0  0  0  0  0  0  0  0  0
  -33.3900  -19.4614   19.3488 C   0  0  0  0  0  0  0  0  0  0  0  0
  -21.3937  -32.3333   23.9657 C   0  0  0  0  0  0  0  0  0  0  0  0
  -27.1216  -22.4199   18.6706 C   0  0  0  0  0  0  0  0  0  0  0  0
  -29.4289  -23.0642   17.9332 C   0  0  0  0  0  0  0  0  0  0  0  0
  -28.5954  -22.8875   25.4563 C   0  0  0  0  0  0  0  0  0  0  0  0
  -21.5714  -27.8671   19.0778 C   0  0  0  0  0  0  0  0  0  0  0  0
  -21.9296  -30.2233   19.8447 C   0  0  0  0  0  0  0  0  0  0  0  0
  -19.6552  -29.2060   19.9665 C   0  0  0  0  0  0  0  0  0  0  0  0
  -21.8436  -29.4849   26.4476 C   0  0  0  0  0  0  0  0  0  0  0  0
  -28.0664  -22.7901   21.5989 C   0  0  0  0  0  0  0  0  0  0  0  0
  -28.8047  -22.7666   22.9470 C   0  0  0  0  0  0  0  0  0  0  0  0
  -21.4399  -28.4495   21.5896 C   0  0  1  0  0  0  0  0  0  0  0  0
  -21.2743  -30.9047   24.4731 C   0  0  2  0  0  0  0  0  0  0  0  0
  -28.4135  -23.1340   19.0797 C   0  0  0  0  0  0  0  0  0  0  0  0
  -29.0220  -22.6075   20.4046 C   0  0  2  0  0  0  0  0  0  0  0  0
  -27.8455  -22.9243   24.1313 C   0  0  2  0  0  0  0  0  0  1  0  0
  -21.1627  -28.9149   20.1323 C   0  0  0  0  0  0  0  0  0  0  0  0
  -25.8409  -11.5725   21.1589 N   0  0  0  0  0  0  0  0  0  0  0  0
  -26.2702  -12.6398   20.4642 N   0  0  0  0  0  0  0  0  0  0  0  0
  -21.5525  -26.0801   22.2949 N   0  0  0  0  0  0  0  0  0  0  0  0
  -30.0309  -13.2943   20.3528 N   0  0  0  0  0  0  0  0  0  0  0  0
  -25.5966  -14.7606   19.6522 N   0  0  0  0  0  0  0  0  0  0  0  0
  -21.9146  -13.2427   21.7817 N   0  0  0  0  0  0  0  0  0  0  0  0
  -30.2292  -15.6441   20.3884 N   0  0  0  0  0  0  0  0  0  0  0  0
  -29.4382  -21.2271   20.2899 N   0  0  0  0  0  0  0  0  0  0  0  0
  -20.5731  -22.7855   21.0772 N   0  0  0  0  0  0  0  0  0  0  0  0
  -21.0376  -29.4108   22.6107 N   0  0  0  0  0  0  0  0  0  0  0  0
  -21.9090  -30.8295   25.8194 N   0  3  0  0  0  0  0  0  0  0  0  0
  -22.7773  -14.9862   20.5675 O   0  0  0  0  0  0  0  0  0  0  0  0
  -31.6971  -21.5969   20.6599 O   0  0  0  0  0  0  0  0  0  0  0  0
  -21.7776  -24.5894   20.2302 O   0  0  0  0  0  0  0  0  0  0  0  0
  -19.5037  -27.1078   21.8679 O   0  0  0  0  0  0  0  0  0  0  0  0
  -23.1314  -29.6434   23.5798 O   0  0  0  0  0  0  0  0  0  0  0  0
  -31.9709  -14.3172   19.6220 O   0  0  0  0  0  0  0  0  0  0  0  0
  -21.4124   -8.3608   24.4181 O   0  0  0  0  0  0  0  0  0  0  0  0
  -27.1672  -24.1724   24.0218 O   0  0  0  0  0  0  0  0  0  1  0  0
  -23.6793   -5.9689   28.8390 F   0  0  0  0  0  0  0  0  0  0  0  0
  -20.3351   -8.7270   26.9377 F   0  0  0  0  0  0  0  0  0  0  0  0
  -29.8011  -18.2676   20.6785 S   0  0  0  0  0  0  0  0  0  0  0  0
  1  2  1  0  0  0  0
  1  5  2  0  0  0  0
  2  6  2  0  0  0  0
  3  8  2  0  0  0  0
  3 16  1  0  0  0  0
  4  9  1  0  0  0  0
  4 16  2  0  0  0  0
  5 18  1  0  0  0  0
  6 20  1  0  0  0  0
  7 10  2  0  0  0  0
  7 19  1  0  0  0  0
  8 23  1  0  0  0  0
  9 23  2  0  0  0  0
 10 24  1  0  0  0  0
 11 12  2  0  0  0  0
 11 25  1  0  0  0  0
 12 26  1  0  0  0  0
 13 21  1  0  0  0  0
 13 24  2  0  0  0  0
 14 22  1  0  0  0  0
 14 31  2  0  0  0  0
 15 26  2  0  0  0  0
 15 27  1  0  0  0  0
 16 28  1  0  0  0  0
 17 28  1  0  0  0  0
 17 30  2  0  0  0  0
 17 32  1  0  0  0  0
 18 20  2  0  0  0  0
 18 38  1  0  0  0  0
 19 21  2  0  0  0  0
 19 39  1  0  0  0  0
 20 47  1  0  0  0  0
 21 40  1  0  0  0  0
 22 29  2  0  0  0  0
 22 50  1  0  0  0  0
 23 84  1  0  0  0  0
 24 85  1  0  0  0  0
 25 27  2  0  0  0  0
 25 84  1  0  0  0  0
 26 86  1  0  0  0  0
 27 87  1  0  0  0  0
 28 67  2  0  0  0  0
 29 33  1  0  0  0  0
 29 88  1  0  0  0  0
 30 68  1  0  0  0  0
 30 71  1  0  0  0  0
 31 73  1  0  0  0  0
 31 88  1  0  0  0  0
 32 72  1  0  0  0  0
 32 78  2  0  0  0  0
 33 74  1  0  0  0  0
 33 79  2  0  0  0  0
 34 48  1  0  0  0  0
 34 75  1  0  0  0  0
 34 80  2  0  0  0  0
 35 61  1  0  0  0  0
 35 69  1  0  0  0  0
 35 81  2  0  0  0  0
 36 62  1  0  0  0  0
 36 76  1  0  0  0  0
 36 82  2  0  0  0  0
 37 70  1  0  0  0  0
 37 73  1  0  0  0  0
 37 83  2  0  0  0  0
 38 41  1  0  0  0  0
 39 48  1  0  0  0  0
 40 69  1  0  0  0  0
 41 43  1  0  0  0  0
 42 44  1  0  0  0  0
 42 45  1  0  0  0  0
 43 47  1  0  0  0  0
 44 49  1  0  0  0  0
 45 70  1  0  0  0  0
 46 49  1  0  0  0  0
 46 70  1  0  0  0  0
 47 75  1  0  0  0  0
 48 69  1  0  0  0  0
 49 68  1  0  0  0  0
 51 62  1  0  0  0  0
 52 63  1  0  0  0  0
 53 63  1  0  0  0  0
 54 65  1  0  0  0  0
 55 66  1  0  0  0  0
 56 66  1  0  0  0  0
 57 66  1  0  0  0  0
 58 77  1  0  0  0  0
 59 60  1  0  0  0  0
 59 64  1  0  0  0  0
 60 65  1  0  0  0  0
 61 66  1  0  0  0  0
 61 76  1  0  0  0  0
 62 77  1  0  0  0  0
 63 64  1  0  0  0  0
 64 74  1  0  0  0  0
 65 85  1  0  0  0  0
 67 68  1  0  0  0  0
M  CHG  1  77   1
M  ISO  4  37 100  65 101  73 100  85 101
M  END
> <Batch ID>
0187

> <Smiles>
CNC(C)C(=O)NC(C(=O)N1Cc2cc([101O:1][101CH:1](C)CCC(NC(=O)c3sc([100NH:0][100C:0](=O)N4CCCC(n5nc(-c6ccc(Oc7ccc(F)cc7F)cc6)c(C(N)=O)c5N)C4)cc3C)C(C)C)ccc2CC1C(=O)NC1CCCc2ccccc21)C(C)(C)C

> <Shape>
0.201

> <Color>
0.133

> <Negative vol penalty>
0.000

$$$$

  -OEChem-04052305123D

 86 94  0     1  0  0  0  0  0999 V2000
  -19.1318  -29.1102   22.9983 C   0  0  0  0  0  0  0  0  0  0  0  0
  -20.4598  -28.7269   22.8402 C   0  0  0  0  0  0  0  0  0  0  0  0
  -25.8871  -14.0849   21.5185 C   0  0  0  0  0  0  0  0  0  0  0  0
  -25.3888  -14.8607   19.2853 C   0  0  0  0  0  0  0  0  0  0  0  0
  -18.1116  -28.1784   22.8116 C   0  0  0  0  0  0  0  0  0  0  0  0
  -20.7683  -27.4113   22.4963 C   0  0  0  0  0  0  0  0  0  0  0  0
  -24.2867  -27.1266   18.8652 C   0  0  0  0  0  0  0  0  0  0  0  0
  -24.8534  -13.1530   21.4254 C   0  0  0  0  0  0  0  0  0  0  0  0
  -24.3551  -13.9288   19.1922 C   0  0  0  0  0  0  0  0  0  0  0  0
  -25.6124  -27.3304   19.2458 C   0  0  0  0  0  0  0  0  0  0  0  0
  -24.3475  -10.1277   20.0025 C   0  0  0  0  0  0  0  0  0  0  0  0
  -24.6059   -8.8275   20.4363 C   0  0  0  0  0  0  0  0  0  0  0  0
  -25.9678  -24.9445   19.2634 C   0  0  0  0  0  0  0  0  0  0  0  0
  -22.8383   -9.0219   22.0718 C   0  0  0  0  0  0  0  0  0  0  0  0
  -31.9085  -22.0672   17.7962 C   0  0  0  0  0  0  0  0  0  0  0  0
  -26.1548  -14.9388   20.4485 C   0  0  0  0  0  0  0  0  0  0  0  0
  -28.5691  -15.7173   20.1793 C   0  0  0  0  0  0  0  0  0  0  0  0
  -18.4073  -26.8531   22.4558 C   0  0  0  0  0  0  0  0  0  0  0  0
  -23.7878  -25.8276   18.6912 C   0  0  0  0  0  0  0  0  0  0  0  0
  -19.7512  -26.4606   22.3060 C   0  0  0  0  0  0  0  0  0  0  0  0
  -24.6362  -24.7270   18.8781 C   0  0  0  0  0  0  0  0  0  0  0  0
  -24.0874  -13.0749   20.2623 C   0  0  0  0  0  0  0  0  0  0  0  0
  -26.4524  -26.2392   19.4477 C   0  0  0  0  0  0  0  0  0  0  0  0
  -23.3346  -10.8751   20.6034 C   0  0  0  0  0  0  0  0  0  0  0  0
  -23.8513   -8.2746   21.4710 C   0  0  0  0  0  0  0  0  0  0  0  0
  -22.5800  -10.3222   21.6380 C   0  0  0  0  0  0  0  0  0  0  0  0
  -32.9560  -22.7561   17.1950 C   0  0  0  0  0  0  0  0  0  0  0  0
  -33.2203  -24.0699   17.5659 C   0  0  0  0  0  0  0  0  0  0  0  0
  -27.2221  -15.9020   20.5442 C   0  0  0  0  0  0  0  0  0  0  0  0
  -31.1611  -22.7316   18.7552 C   0  0  0  0  0  0  0  0  0  0  0  0
  -32.4140  -24.6447   18.5351 C   0  0  0  0  0  0  0  0  0  0  0  0
  -29.1695  -16.9198   20.4622 C   0  0  0  0  0  0  0  0  0  0  0  0
  -29.2196  -14.5620   19.6333 C   0  0  0  0  0  0  0  0  0  0  0  0
  -21.5025  -24.0994   20.0676 C   0  0  0  0  0  0  0  0  0  0  0  0
  -22.2407  -21.9755   17.7295 C   0  0  0  0  0  0  0  0  0  0  0  0
  -24.5449  -20.8048   15.5008 C   0  0  0  0  0  0  0  0  0  0  0  0
  -29.2200  -22.4863   20.3421 C   0  0  0  0  0  0  0  0  0  0  0  0
  -17.2729  -25.8699   22.3109 C   0  0  0  0  0  0  0  0  0  0  0  0
  -22.3627  -25.6255   18.2545 C   0  0  0  0  0  0  0  0  0  0  0  0
  -24.1549  -23.3130   18.6846 C   0  0  0  0  0  0  0  0  0  0  0  0
  -17.6669  -24.5884   21.5809 C   0  0  0  0  0  0  0  0  0  0  0  0
  -27.4529  -20.9380   23.0174 C   0  0  0  0  0  0  0  0  0  0  0  0
  -18.9845  -24.0469   22.1264 C   0  0  0  0  0  0  0  0  0  0  0  0
  -27.3461  -19.4746   22.5824 C   0  0  0  0  0  0  0  0  0  0  0  0
  -27.3219  -21.8929   21.8322 C   0  0  0  0  0  0  0  0  0  0  0  0
  -28.1269  -20.1589   20.2783 C   0  0  0  0  0  0  0  0  0  0  0  0
  -20.1249  -25.0488   21.9091 C   0  0  1  0  0  0  0  0  0  0  0  0
  -21.8204  -24.2436   18.6061 C   0  0  1  0  0  0  0  0  0  0  0  0
  -28.3178  -19.1572   21.4289 C   0  0  2  0  0  0  0  0  0  0  0  0
  -24.8719  -19.0349   13.7522 C   0  0  0  0  0  0  0  0  0  0  0  0
  -30.8469  -28.1650   18.1504 C   0  0  0  0  0  0  0  0  0  0  0  0
  -32.8021  -27.7957   20.4651 C   0  0  0  0  0  0  0  0  0  0  0  0
  -22.6109  -19.8836   19.9197 C   0  0  0  0  0  0  0  0  0  0  0  0
  -23.8274  -18.4601   18.2578 C   0  0  0  0  0  0  0  0  0  0  0  0
  -21.4355  -19.0550   17.8737 C   0  0  0  0  0  0  0  0  0  0  0  0
  -24.9641  -22.8196   13.3739 C   0  0  0  0  0  0  0  0  0  0  0  0
  -29.6540  -27.8112   20.3725 C   0  0  0  0  0  0  0  0  0  0  0  0
  -28.1773  -27.7857   19.9854 C   0  0  0  0  0  0  0  0  0  1  0  0
  -23.2144  -20.8297   17.5945 C   0  0  1  0  0  0  0  0  0  0  0  0
  -24.4373  -20.4664   14.0249 C   0  0  2  0  0  0  0  0  0  0  0  0
  -30.5858  -27.1917   19.3094 C   0  0  2  0  0  0  0  0  0  0  0  0
  -31.9292  -26.6812   19.8927 C   0  0  1  0  0  0  0  0  0  0  0  0
  -22.7809  -19.5835   18.4170 C   0  0  0  0  0  0  0  0  0  0  0  0
  -26.9806  -17.1254   21.0226 N   0  0  0  0  0  0  0  0  0  0  0  0
  -31.3876  -24.0072   19.1415 N   0  0  0  0  0  0  0  0  0  0  0  0
  -28.1840  -17.7203   20.9603 N   0  0  0  0  0  0  0  0  0  0  0  0
  -22.7518  -23.1669   18.2635 N   0  0  0  0  0  0  0  0  0  0  0  0
  -28.2759  -21.5338   20.7805 N   0  0  0  0  0  0  0  0  0  0  0  0
  -30.4390  -17.3599   20.3311 N   0  0  0  0  0  0  0  0  0  0  0  0
  -28.4546  -13.4102   19.4046 N   0  0  0  0  0  0  0  0  0  0  0  0
  -30.0959  -22.0209   19.3619 N   0  0  0  0  0  0  0  0  0  0  0  0
  -32.6864  -25.9515   18.8956 N   0  0  0  0  0  0  0  0  0  0  0  0
  -20.5754  -25.0115   20.5343 N   0  0  0  0  0  0  0  0  0  0  0  0
  -23.3567  -20.5815   16.1639 N   0  0  0  0  0  0  0  0  0  0  0  0
  -25.2967  -21.3799   13.2200 N   0  3  0  0  0  0  0  0  0  0  0  0
  -30.4463  -14.5462   19.3718 O   0  0  0  0  0  0  0  0  0  0  0  0
  -22.0563  -23.2244   20.7228 O   0  0  0  0  0  0  0  0  0  0  0  0
  -21.0715  -21.8213   17.3678 O   0  0  0  0  0  0  0  0  0  0  0  0
  -25.5805  -21.2218   16.0148 O   0  0  0  0  0  0  0  0  0  0  0  0
  -29.2668  -23.6220   20.8217 O   0  0  0  0  0  0  0  0  0  0  0  0
  -23.0788  -12.1656   20.1710 O   0  0  0  0  0  0  0  0  0  0  0  0
  -27.7466  -26.4353   19.8198 O   0  0  0  0  0  0  0  0  0  1  0  0
  -24.0985   -7.0254   21.8864 F   0  0  0  0  0  0  0  0  0  0  0  0
  -21.6047  -11.0349   22.2183 F   0  0  0  0  0  0  0  0  0  0  0  0
  -33.7075  -22.1568   16.2625 F   0  0  0  0  0  0  0  0  0  0  0  0
  -34.2259  -24.7454   16.9954 F   0  0  0  0  0  0  0  0  0  0  0  0
  1  2  1  0  0  0  0
  1  5  2  0  0  0  0
  2  6  2  0  0  0  0
  3  8  2  0  0  0  0
  3 16  1  0  0  0  0
  4  9  1  0  0  0  0
  4 16  2  0  0  0  0
  5 18  1  0  0  0  0
  6 20  1  0  0  0  0
  7 10  2  0  0  0  0
  7 19  1  0  0  0  0
  8 22  1  0  0  0  0
  9 22  2  0  0  0  0
 10 23  1  0  0  0  0
 11 12  2  0  0  0  0
 11 24  1  0  0  0  0
 12 25  1  0  0  0  0
 13 21  1  0  0  0  0
 13 23  2  0  0  0  0
 14 25  2  0  0  0  0
 14 26  1  0  0  0  0
 15 27  2  0  0  0  0
 15 30  1  0  0  0  0
 16 29  1  0  0  0  0
 17 29  1  0  0  0  0
 17 32  2  0  0  0  0
 17 33  1  0  0  0  0
 18 20  2  0  0  0  0
 18 38  1  0  0  0  0
 19 21  2  0  0  0  0
 19 39  1  0  0  0  0
 20 47  1  0  0  0  0
 21 40  1  0  0  0  0
 22 81  1  0  0  0  0
 23 82  1  0  0  0  0
 24 26  2  0  0  0  0
 24 81  1  0  0  0  0
 25 83  1  0  0  0  0
 26 84  1  0  0  0  0
 27 28  1  0  0  0  0
 27 85  1  0  0  0  0
 28 31  2  0  0  0  0
 28 86  1  0  0  0  0
 29 64  2  0  0  0  0
 30 65  2  0  0  0  0
 30 71  1  0  0  0  0
 31 65  1  0  0  0  0
 31 72  1  0  0  0  0
 32 66  1  0  0  0  0
 32 69  1  0  0  0  0
 33 70  1  0  0  0  0
 33 76  2  0  0  0  0
 34 48  1  0  0  0  0
 34 73  1  0  0  0  0
 34 77  2  0  0  0  0
 35 59  1  0  0  0  0
 35 67  1  0  0  0  0
 35 78  2  0  0  0  0
 36 60  1  0  0  0  0
 36 74  1  0  0  0  0
 36 79  2  0  0  0  0
 37 68  1  0  0  0  0
 37 71  1  0  0  0  0
 37 80  2  0  0  0  0
 38 41  1  0  0  0  0
 39 48  1  0  0  0  0
 40 67  1  0  0  0  0
 41 43  1  0  0  0  0
 42 44  1  0  0  0  0
 42 45  1  0  0  0  0
 43 47  1  0  0  0  0
 44 49  1  0  0  0  0
 45 68  1  0  0  0  0
 46 49  1  0  0  0  0
 46 68  1  0  0  0  0
 47 73  1  0  0  0  0
 48 67  1  0  0  0  0
 49 66  1  0  0  0  0
 50 60  1  0  0  0  0
 51 61  1  0  0  0  0
 52 62  1  0  0  0  0
 53 63  1  0  0  0  0
 54 63  1  0  0  0  0
 55 63  1  0  0  0  0
 56 75  1  0  0  0  0
 57 58  1  0  0  0  0
 57 61  1  0  0  0  0
 58 82  1  0  0  0  0
 59 63  1  0  0  0  0
 59 74  1  0  0  0  0
 60 75  1  0  0  0  0
 61 62  1  0  0  0  0
 62 72  1  0  0  0  0
 64 66  1  0  0  0  0
M  CHG  1  75   1
M  ISO  4  37 100  58 101  71 100  82 101
M  END
> <Batch ID>
0187

> <Smiles>
CNC(C)C(=O)NC(C(=O)N1Cc2cc([101O:1][101CH2:1]CC(C)C(C)Nc3nc([100NH:0][100C:0](=O)N4CCCC(n5nc(-c6ccc(Oc7ccc(F)cc7F)cc6)c(C(N)=O)c5N)C4)cc(F)c3F)ccc2CC1C(=O)NC1CCCc2ccccc21)C(C)(C)C

> <Shape>
0.239

> <Color>
0.064

> <Negative vol penalty>
0.000

$$$$

  -OEChem-04052305123D

 84 92  0     1  0  0  0  0  0999 V2000
  -29.7803  -22.0805   27.5596 C   0  0  0  0  0  0  0  0  0  0  0  0
  -29.6926  -22.5051   26.2377 C   0  0  0  0  0  0  0  0  0  0  0  0
  -24.5777   -9.8445   21.8095 C   0  0  0  0  0  0  0  0  0  0  0  0
  -24.6395  -11.1326   23.8525 C   0  0  0  0  0  0  0  0  0  0  0  0
  -28.6225  -21.9380   28.3231 C   0  0  0  0  0  0  0  0  0  0  0  0
  -28.4468  -22.7865   25.6782 C   0  0  0  0  0  0  0  0  0  0  0  0
  -28.4430  -27.0905   23.0096 C   0  0  0  0  0  0  0  0  0  0  0  0
  -24.2344   -8.7056   22.5379 C   0  0  0  0  0  0  0  0  0  0  0  0
  -24.2961   -9.9937   24.5810 C   0  0  0  0  0  0  0  0  0  0  0  0
  -28.9992  -27.0479   21.7319 C   0  0  0  0  0  0  0  0  0  0  0  0
  -22.9884   -5.5399   23.8190 C   0  0  0  0  0  0  0  0  0  0  0  0
  -21.9615   -4.7375   23.3220 C   0  0  0  0  0  0  0  0  0  0  0  0
  -26.7878  -26.8900   20.7811 C   0  0  0  0  0  0  0  0  0  0  0  0
  -20.4324   -6.6021   23.4711 C   0  0  0  0  0  0  0  0  0  0  0  0
  -24.7804  -11.0580   22.4668 C   0  0  0  0  0  0  0  0  0  0  0  0
  -24.2582  -13.1778   21.1472 C   0  0  0  0  0  0  0  0  0  0  0  0
  -27.3626  -22.2271   27.7756 C   0  0  0  0  0  0  0  0  0  0  0  0
  -27.0533  -27.0220   23.1836 C   0  0  0  0  0  0  0  0  0  0  0  0
  -27.2708  -22.6465   26.4346 C   0  0  0  0  0  0  0  0  0  0  0  0
  -26.2164  -26.9345   22.0620 C   0  0  0  0  0  0  0  0  0  0  0  0
  -24.0935   -8.7802   23.9236 C   0  0  0  0  0  0  0  0  0  0  0  0
  -28.1717  -26.9447   20.6176 C   0  0  0  0  0  0  0  0  0  0  0  0
  -22.7374   -6.8735   24.1421 C   0  0  0  0  0  0  0  0  0  0  0  0
  -20.6835   -5.2685   23.1480 C   0  0  0  0  0  0  0  0  0  0  0  0
  -21.4594   -7.4045   23.9681 C   0  0  0  0  0  0  0  0  0  0  0  0
  -25.1357  -12.2347   21.7150 C   0  0  0  0  0  0  0  0  0  0  0  0
  -28.7920  -21.6539   20.1085 C   0  0  0  0  0  0  0  0  0  0  0  0
  -25.0835  -14.0955   20.5447 C   0  0  0  0  0  0  0  0  0  0  0  0
  -27.4737  -21.7854   20.4918 C   0  0  0  0  0  0  0  0  0  0  0  0
  -28.3777  -19.5549   20.5905 C   0  0  0  0  0  0  0  0  0  0  0  0
  -22.8251  -13.2205   21.1630 C   0  0  0  0  0  0  0  0  0  0  0  0
  -29.6245  -22.7884   19.6607 C   0  0  0  0  0  0  0  0  0  0  0  0
  -25.0700  -24.9987   24.6246 C   0  0  0  0  0  0  0  0  0  0  0  0
  -22.8504  -27.2350   23.8532 C   0  0  0  0  0  0  0  0  0  0  0  0
  -21.9231  -29.8170   21.8235 C   0  0  0  0  0  0  0  0  0  0  0  0
  -29.5998  -17.3520   20.5879 C   0  0  0  0  0  0  0  0  0  0  0  0
  -26.1352  -22.0128   28.6255 C   0  0  0  0  0  0  0  0  0  0  0  0
  -26.4676  -27.0961   24.5671 C   0  0  0  0  0  0  0  0  0  0  0  0
  -24.7170  -26.8783   22.1937 C   0  0  0  0  0  0  0  0  0  0  0  0
  -24.8848  -22.6911   28.0716 C   0  0  0  0  0  0  0  0  0  0  0  0
  -30.0611  -13.9522   19.6361 C   0  0  0  0  0  0  0  0  0  0  0  0
  -24.7464  -22.4173   26.5774 C   0  0  0  0  0  0  0  0  0  0  0  0
  -28.7486  -13.2799   20.0454 C   0  0  0  0  0  0  0  0  0  0  0  0
  -30.4819  -15.0293   20.6343 C   0  0  0  0  0  0  0  0  0  0  0  0
  -28.1446  -15.3673   21.3356 C   0  0  0  0  0  0  0  0  0  0  0  0
  -25.9396  -22.9853   25.7996 C   0  0  1  0  0  0  0  0  0  0  0  0
  -25.0657  -26.5009   24.6551 C   0  0  1  0  0  0  0  0  0  0  0  0
  -27.6464  -14.3199   20.3265 C   0  0  2  0  0  0  0  0  0  0  0  0
  -20.0369  -31.4205   21.4128 C   0  0  0  0  0  0  0  0  0  0  0  0
  -30.9899  -24.0840   17.0489 C   0  0  0  0  0  0  0  0  0  0  0  0
  -21.2461  -25.0042   22.5266 C   0  0  0  0  0  0  0  0  0  0  0  0
  -19.9099  -26.7620   21.3463 C   0  0  0  0  0  0  0  0  0  0  0  0
  -19.8773  -26.6359   23.8375 C   0  0  0  0  0  0  0  0  0  0  0  0
  -23.6435  -32.1620   22.3713 C   0  0  0  0  0  0  0  0  0  0  0  0
  -28.9890  -25.5846   17.3826 C   0  0  0  0  0  0  0  0  0  0  0  0
  -27.9930  -26.1741   18.3748 C   0  0  0  0  0  0  0  0  0  1  0  0
  -21.9513  -27.4840   22.6664 C   0  0  1  0  0  0  0  0  0  0  0  0
  -21.3549  -31.1897   22.1356 C   0  0  2  0  0  0  0  0  0  0  0  0
  -29.9728  -24.6217   18.0438 C   0  0  1  0  0  0  0  0  0  0  0  0
  -20.7745  -26.4706   22.5915 C   0  0  0  0  0  0  0  0  0  0  0  0
  -26.4200  -12.5263   21.4929 N   0  0  0  0  0  0  0  0  0  0  0  0
  -29.3122  -20.3756   20.1648 N   0  0  0  0  0  0  0  0  0  0  0  0
  -26.3557  -13.6630   20.7788 N   0  0  0  0  0  0  0  0  0  0  0  0
  -24.1927  -26.9477   23.5677 N   0  0  0  0  0  0  0  0  0  0  0  0
  -29.3896  -15.9812   20.8478 N   0  0  0  0  0  0  0  0  0  0  0  0
  -24.8380  -15.2221   19.8426 N   0  0  0  0  0  0  0  0  0  0  0  0
  -26.7200  -22.9112   20.5336 N   0  0  0  0  0  0  0  0  0  0  0  0
  -22.1335  -12.1984   21.8274 N   0  0  0  0  0  0  0  0  0  0  0  0
  -30.7287  -23.0688   20.3528 N   0  0  0  0  0  0  0  0  0  0  0  0
  -28.4800  -18.1566   20.7956 N   0  0  0  0  0  0  0  0  0  0  0  0
  -25.8039  -24.4174   25.6408 N   0  0  0  0  0  0  0  0  0  0  0  0
  -21.5338  -28.8790   22.7561 N   0  0  0  0  0  0  0  0  0  0  0  0
  -29.2290  -23.4787   18.5862 N   0  3  0  0  0  0  0  0  0  0  0  0
  -22.3119  -32.2534   21.7190 N   0  3  0  0  0  0  0  0  0  0  0  0
  -22.1767  -14.1290   20.5906 O   0  0  0  0  0  0  0  0  0  0  0  0
  -24.4518  -24.4105   23.7450 O   0  0  0  0  0  0  0  0  0  0  0  0
  -22.3807  -27.3002   24.9920 O   0  0  0  0  0  0  0  0  0  0  0  0
  -22.6375  -29.5980   20.8477 O   0  0  0  0  0  0  0  0  0  0  0  0
  -30.6850  -17.7767   20.1829 O   0  0  0  0  0  0  0  0  0  0  0  0
  -23.7582   -7.6691   24.6347 O   0  0  0  0  0  0  0  0  0  0  0  0
  -28.7120  -26.9023   19.3693 O   0  0  0  0  0  0  0  0  0  1  0  0
  -19.6977   -4.4983   22.6693 F   0  0  0  0  0  0  0  0  0  0  0  0
  -21.2124   -8.6853   24.2756 F   0  0  0  0  0  0  0  0  0  0  0  0
  -26.8496  -20.2525   20.9412 S   0  0  0  0  0  0  0  0  0  0  0  0
  1  2  1  0  0  0  0
  1  5  2  0  0  0  0
  2  6  2  0  0  0  0
  3  8  2  0  0  0  0
  3 15  1  0  0  0  0
  4  9  1  0  0  0  0
  4 15  2  0  0  0  0
  5 17  1  0  0  0  0
  6 19  1  0  0  0  0
  7 10  2  0  0  0  0
  7 18  1  0  0  0  0
  8 21  1  0  0  0  0
  9 21  2  0  0  0  0
 10 22  1  0  0  0  0
 11 12  2  0  0  0  0
 11 23  1  0  0  0  0
 12 24  1  0  0  0  0
 13 20  1  0  0  0  0
 13 22  2  0  0  0  0
 14 24  2  0  0  0  0
 14 25  1  0  0  0  0
 15 26  1  0  0  0  0
 16 26  1  0  0  0  0
 16 28  2  0  0  0  0
 16 31  1  0  0  0  0
 17 19  2  0  0  0  0
 17 37  1  0  0  0  0
 18 20  2  0  0  0  0
 18 38  1  0  0  0  0
 19 46  1  0  0  0  0
 20 39  1  0  0  0  0
 21 80  1  0  0  0  0
 22 81  1  0  0  0  0
 23 25  2  0  0  0  0
 23 80  1  0  0  0  0
 24 82  1  0  0  0  0
 25 83  1  0  0  0  0
 26 61  2  0  0  0  0
 27 29  2  0  0  0  0
 27 32  1  0  0  0  0
 27 62  1  0  0  0  0
 28 63  1  0  0  0  0
 28 66  1  0  0  0  0
 29 67  1  0  0  0  0
 29 84  1  0  0  0  0
 30 62  2  0  0  0  0
 30 70  1  0  0  0  0
 30 84  1  0  0  0  0
 31 68  1  0  0  0  0
 31 75  2  0  0  0  0
 32 69  1  0  0  0  0
 32 73  2  0  0  0  0
 33 47  1  0  0  0  0
 33 71  1  0  0  0  0
 33 76  2  0  0  0  0
 34 57  1  0  0  0  0
 34 64  1  0  0  0  0
 34 77  2  0  0  0  0
 35 58  1  0  0  0  0
 35 72  1  0  0  0  0
 35 78  2  0  0  0  0
 36 65  1  0  0  0  0
 36 70  1  0  0  0  0
 36 79  2  0  0  0  0
 37 40  1  0  0  0  0
 38 47  1  0  0  0  0
 39 64  1  0  0  0  0
 40 42  1  0  0  0  0
 41 43  1  0  0  0  0
 41 44  1  0  0  0  0
 42 46  1  0  0  0  0
 43 48  1  0  0  0  0
 44 65  1  0  0  0  0
 45 48  1  0  0  0  0
 45 65  1  0  0  0  0
 46 71  1  0  0  0  0
 47 64  1  0  0  0  0
 48 63  1  0  0  0  0
 49 58  1  0  0  0  0
 50 59  1  0  0  0  0
 51 60  1  0  0  0  0
 52 60  1  0  0  0  0
 53 60  1  0  0  0  0
 54 74  1  0  0  0  0
 55 56  1  0  0  0  0
 55 59  1  0  0  0  0
 56 81  1  0  0  0  0
 57 60  1  0  0  0  0
 57 72  1  0  0  0  0
 58 74  1  0  0  0  0
 59 73  1  0  0  0  0
 61 63  1  0  0  0  0
M  CHG  2  73   1  74   1
M  ISO  4  36 100  56 101  70 100  81 101
M  END
> <Batch ID>
0187

> <Smiles>
CNC(C)C(=O)NC(C(=O)N1Cc2cc([101O:1][101CH2:1]CC(C)NC(=N)c3nc([100NH:0][100C:0](=O)N4CCCC(n5nc(-c6ccc(Oc7ccc(F)cc7F)cc6)c(C(N)=O)c5N)C4)sc3N)ccc2CC1C(=O)NC1CCCc2ccccc21)C(C)(C)C

> <Shape>
0.276

> <Color>
0.128

> <Negative vol penalty>
0.000

$$$$

  -OEChem-04052305123D

 90 98  0     1  0  0  0  0  0999 V2000
  -26.8229  -25.6392   28.7356 C   0  0  0  0  0  0  0  0  0  0  0  0
  -26.7941  -24.2805   28.4377 C   0  0  0  0  0  0  0  0  0  0  0  0
  -27.6677  -26.1119   17.8888 C   0  0  0  0  0  0  0  0  0  0  0  0
  -27.1965  -25.7815   20.2353 C   0  0  0  0  0  0  0  0  0  0  0  0
  -25.7971  -26.4713   28.2894 C   0  0  0  0  0  0  0  0  0  0  0  0
  -25.7388  -23.7531   27.6944 C   0  0  0  0  0  0  0  0  0  0  0  0
  -27.3075  -20.5700   24.0817 C   0  0  0  0  0  0  0  0  0  0  0  0
  -26.6683  -27.0828   17.8248 C   0  0  0  0  0  0  0  0  0  0  0  0
  -26.1971  -26.7525   20.1713 C   0  0  0  0  0  0  0  0  0  0  0  0
  -27.6625  -19.2815   24.4786 C   0  0  0  0  0  0  0  0  0  0  0  0
  -23.7656  -29.4009   20.7114 C   0  0  0  0  0  0  0  0  0  0  0  0
  -23.7141  -30.3480   21.7341 C   0  0  0  0  0  0  0  0  0  0  0  0
  -25.5129  -18.4696   23.7441 C   0  0  0  0  0  0  0  0  0  0  0  0
  -25.9486  -31.0754   21.1730 C   0  0  0  0  0  0  0  0  0  0  0  0
  -28.0082  -12.4203   19.3731 C   0  0  0  0  0  0  0  0  0  0  0  0
  -27.9318  -25.4612   19.0940 C   0  0  0  0  0  0  0  0  0  0  0  0
  -30.3243  -24.6563   19.4620 C   0  0  0  0  0  0  0  0  0  0  0  0
  -24.7336  -25.9555   27.5320 C   0  0  0  0  0  0  0  0  0  0  0  0
  -26.0463  -20.8203   23.5221 C   0  0  0  0  0  0  0  0  0  0  0  0
  -24.6971  -24.5789   27.2388 C   0  0  0  0  0  0  0  0  0  0  0  0
  -25.1454  -19.7617   23.3385 C   0  0  0  0  0  0  0  0  0  0  0  0
  -25.9330  -27.4031   18.9661 C   0  0  0  0  0  0  0  0  0  0  0  0
  -26.7641  -18.2315   24.3125 C   0  0  0  0  0  0  0  0  0  0  0  0
  -24.9086  -29.2909   19.9195 C   0  0  0  0  0  0  0  0  0  0  0  0
  -24.8056  -31.1853   21.9649 C   0  0  0  0  0  0  0  0  0  0  0  0
  -26.0001  -30.1282   20.1503 C   0  0  0  0  0  0  0  0  0  0  0  0
  -28.9636  -24.4577   19.1606 C   0  0  0  0  0  0  0  0  0  0  0  0
  -27.8759  -14.4141   20.2769 C   0  0  0  0  0  0  0  0  0  0  0  0
  -30.8772  -23.4007   19.3971 C   0  0  0  0  0  0  0  0  0  0  0  0
  -26.5297  -14.1833   20.0858 C   0  0  0  0  0  0  0  0  0  0  0  0
  -31.0258  -25.8675   19.7730 C   0  0  0  0  0  0  0  0  0  0  0  0
  -23.5430  -22.6005   24.3393 C   0  0  0  0  0  0  0  0  0  0  0  0
  -22.4258  -21.6669   21.4406 C   0  0  0  0  0  0  0  0  0  0  0  0
  -22.4928  -19.3785   18.9097 C   0  0  0  0  0  0  0  0  0  0  0  0
  -27.6122  -13.9870   23.9130 C   0  0  0  0  0  0  0  0  0  0  0  0
  -28.5463  -18.0319   20.1704 C   0  0  0  0  0  0  0  0  0  0  0  0
  -23.6233  -26.8858   27.1120 C   0  0  0  0  0  0  0  0  0  0  0  0
  -25.6888  -22.2111   23.0745 C   0  0  0  0  0  0  0  0  0  0  0  0
  -23.7868  -19.9741   22.7241 C   0  0  0  0  0  0  0  0  0  0  0  0
  -22.7338  -26.3145   26.0108 C   0  0  0  0  0  0  0  0  0  0  0  0
  -30.3191  -19.1709   17.2281 C   0  0  0  0  0  0  0  0  0  0  0  0
  -22.3442  -24.8751   26.3322 C   0  0  0  0  0  0  0  0  0  0  0  0
  -30.2976  -20.6874   17.4280 C   0  0  0  0  0  0  0  0  0  0  0  0
  -29.0144  -18.5330   17.6960 C   0  0  0  0  0  0  0  0  0  0  0  0
  -28.6282  -20.3548   19.3102 C   0  0  0  0  0  0  0  0  0  0  0  0
  -23.5821  -23.9737   26.4139 C   0  0  1  0  0  0  0  0  0  0  0  0
  -24.1834  -22.4429   22.9892 C   0  0  1  0  0  0  0  0  0  0  0  0
  -29.9284  -21.0563   18.8771 C   0  0  2  0  0  0  0  0  0  0  0  0
  -21.9770  -18.3650   16.6727 C   0  0  0  0  0  0  0  0  0  0  0  0
  -19.8999  -20.7119   22.8612 C   0  0  0  0  0  0  0  0  0  0  0  0
  -19.3320  -19.3889   20.8130 C   0  0  0  0  0  0  0  0  0  0  0  0
  -19.4961  -21.8747   20.6843 C   0  0  0  0  0  0  0  0  0  0  0  0
  -32.2015  -13.5367   22.5004 C   0  0  0  0  0  0  0  0  0  0  0  0
  -30.9409  -13.0739   24.6121 C   0  0  0  0  0  0  0  0  0  0  0  0
  -31.6648  -15.3957   24.0876 C   0  0  0  0  0  0  0  0  0  0  0  0
  -24.7564  -20.7840   17.6213 C   0  0  0  0  0  0  0  0  0  0  0  0
  -29.8425  -15.3954   21.5949 C   0  0  0  0  0  0  0  0  0  0  0  0
  -26.1386  -15.9447   24.5001 C   0  0  0  0  0  0  0  0  0  1  0  0
  -28.4937  -15.6562   20.8847 C   0  0  1  0  0  0  0  0  0  0  0  0
  -21.6061  -20.5046   20.9346 C   0  0  1  0  0  0  0  0  0  0  0  0
  -22.5989  -19.5442   17.4044 C   0  0  2  0  0  0  0  0  0  0  0  0
  -26.6950  -14.6038   24.9638 C   0  0  1  0  0  0  0  0  0  0  0  0
  -29.7674  -14.3579   22.7396 C   0  0  1  0  0  0  0  0  0  0  0  0
  -20.1083  -20.6160   21.3367 C   0  0  0  0  0  0  0  0  0  0  0  0
  -31.1319  -14.0860   23.4628 C   0  0  0  0  0  0  0  0  0  0  0  0
  -28.7252  -13.4041   19.8692 N   0  0  0  0  0  0  0  0  0  0  0  0
  -28.6700  -23.1768   18.9218 N   0  0  0  0  0  0  0  0  0  0  0  0
  -29.8540  -22.5592   19.0730 N   0  0  0  0  0  0  0  0  0  0  0  0
  -23.4814  -21.3530   22.3083 N   0  0  0  0  0  0  0  0  0  0  0  0
  -28.7305  -18.9086   19.0883 N   0  0  0  0  0  0  0  0  0  0  0  0
  -32.1339  -22.9454   19.5861 N   0  0  0  0  0  0  0  0  0  0  0  0
  -25.4905  -14.9971   20.3918 N   0  0  0  0  0  0  0  0  0  0  0  0
  -30.3055  -27.0695   19.7968 N   0  0  0  0  0  0  0  0  0  0  0  0
  -24.0555  -23.6437   25.0867 N   0  0  0  0  0  0  0  0  0  0  0  0
  -21.8351  -20.4396   19.4952 N   0  0  0  0  0  0  0  0  0  0  0  0
  -28.7450  -14.7510   23.6804 N   0  0  0  0  0  0  0  0  0  0  0  0
  -28.6525  -16.6784   19.8744 N   0  0  0  0  0  0  0  0  0  0  0  0
  -24.0277  -19.6512   16.9945 N   0  3  0  0  0  0  0  0  0  0  0  0
  -32.2582  -25.8856   20.0062 O   0  0  0  0  0  0  0  0  0  0  0  0
  -22.6491  -21.8335   24.6773 O   0  0  0  0  0  0  0  0  0  0  0  0
  -22.1444  -22.8105   21.0737 O   0  0  0  0  0  0  0  0  0  0  0  0
  -22.9447  -18.4035   19.5059 O   0  0  0  0  0  0  0  0  0  0  0  0
  -27.3589  -12.9191   23.3593 O   0  0  0  0  0  0  0  0  0  0  0  0
  -28.3098  -18.4264   21.3174 O   0  0  0  0  0  0  0  0  0  0  0  0
  -25.6032  -13.7207   25.1704 O   0  0  0  0  0  0  0  0  0  0  0  0
  -24.9579  -28.3507   18.9041 O   0  0  0  0  0  0  0  0  0  0  0  0
  -27.1077  -16.9730   24.6996 O   0  0  0  0  0  0  0  0  0  1  0  0
  -24.7554  -32.0958   22.9460 F   0  0  0  0  0  0  0  0  0  0  0  0
  -27.1005  -30.0281   19.3920 F   0  0  0  0  0  0  0  0  0  0  0  0
  -26.3067  -12.6431   19.3653 S   0  0  0  0  0  0  0  0  0  0  0  0
  1  2  1  0  0  0  0
  1  5  2  0  0  0  0
  2  6  2  0  0  0  0
  3  8  2  0  0  0  0
  3 16  1  0  0  0  0
  4  9  1  0  0  0  0
  4 16  2  0  0  0  0
  5 18  1  0  0  0  0
  6 20  1  0  0  0  0
  7 10  2  0  0  0  0
  7 19  1  0  0  0  0
  8 22  1  0  0  0  0
  9 22  2  0  0  0  0
 10 23  1  0  0  0  0
 11 12  2  0  0  0  0
 11 24  1  0  0  0  0
 12 25  1  0  0  0  0
 13 21  1  0  0  0  0
 13 23  2  0  0  0  0
 14 25  2  0  0  0  0
 14 26  1  0  0  0  0
 15 66  2  0  0  0  0
 15 90  1  0  0  0  0
 16 27  1  0  0  0  0
 17 27  1  0  0  0  0
 17 29  2  0  0  0  0
 17 31  1  0  0  0  0
 18 20  2  0  0  0  0
 18 37  1  0  0  0  0
 19 21  2  0  0  0  0
 19 38  1  0  0  0  0
 20 46  1  0  0  0  0
 21 39  1  0  0  0  0
 22 86  1  0  0  0  0
 23 87  1  0  0  0  0
 24 26  2  0  0  0  0
 24 86  1  0  0  0  0
 25 88  1  0  0  0  0
 26 89  1  0  0  0  0
 27 67  2  0  0  0  0
 28 30  2  0  0  0  0
 28 59  1  0  0  0  0
 28 66  1  0  0  0  0
 29 68  1  0  0  0  0
 29 71  1  0  0  0  0
 30 72  1  0  0  0  0
 30 90  1  0  0  0  0
 31 73  1  0  0  0  0
 31 79  2  0  0  0  0
 32 47  1  0  0  0  0
 32 74  1  0  0  0  0
 32 80  2  0  0  0  0
 33 60  1  0  0  0  0
 33 69  1  0  0  0  0
 33 81  2  0  0  0  0
 34 61  1  0  0  0  0
 34 75  1  0  0  0  0
 34 82  2  0  0  0  0
 35 62  1  0  0  0  0
 35 76  1  0  0  0  0
 35 83  2  0  0  0  0
 36 70  1  0  0  0  0
 36 77  1  0  0  0  0
 36 84  2  0  0  0  0
 37 40  1  0  0  0  0
 38 47  1  0  0  0  0
 39 69  1  0  0  0  0
 40 42  1  0  0  0  0
 41 43  1  0  0  0  0
 41 44  1  0  0  0  0
 42 46  1  0  0  0  0
 43 48  1  0  0  0  0
 44 70  1  0  0  0  0
 45 48  1  0  0  0  0
 45 70  1  0  0  0  0
 46 74  1  0  0  0  0
 47 69  1  0  0  0  0
 48 68  1  0  0  0  0
 49 61  1  0  0  0  0
 50 64  1  0  0  0  0
 51 64  1  0  0  0  0
 52 64  1  0  0  0  0
 53 65  1  0  0  0  0
 54 65  1  0  0  0  0
 55 65  1  0  0  0  0
 56 78  1  0  0  0  0
 57 59  1  0  0  0  0
 57 63  1  0  0  0  0
 58 62  1  0  0  0  0
 58 87  1  0  0  0  0
 59 77  1  0  0  0  0
 60 64  1  0  0  0  0
 60 75  1  0  0  0  0
 61 78  1  0  0  0  0
 62 85  1  0  0  0  0
 63 65  1  0  0  0  0
 63 76  1  0  0  0  0
 67 68  1  0  0  0  0
M  CHG  1  78   1
M  ISO  4  36 100  58 101  77 100  87 101
M  END
> <Batch ID>
0187

> <Smiles>
CNC(C)C(=O)NC(C(=O)N1Cc2cc([101O:1][101CH2:1]C(O)C(=O)NC(CC([100NH:0][100C:0](=O)N3CCCC(n4nc(-c5ccc(Oc6ccc(F)cc6F)cc5)c(C(N)=O)c4N)C3)c3ncsc3N)C(C)(C)C)ccc2CC1C(=O)NC1CCCc2ccccc21)C(C)(C)C

> <Shape>
0.180

> <Color>
0.067

> <Negative vol penalty>
0.000

$$$$

  -OEChem-04052305123D

 87 95  0     1  0  0  0  0  0999 V2000
  -19.3424  -19.2707   18.5166 C   0  0  0  0  0  0  0  0  0  0  0  0
  -19.5589  -20.0385   19.6553 C   0  0  0  0  0  0  0  0  0  0  0  0
  -26.3543  -12.7758   21.6050 C   0  0  0  0  0  0  0  0  0  0  0  0
  -25.7856  -13.6882   19.4414 C   0  0  0  0  0  0  0  0  0  0  0  0
  -20.3250  -18.3839   18.0815 C   0  0  0  0  0  0  0  0  0  0  0  0
  -20.7625  -19.9286   20.3523 C   0  0  0  0  0  0  0  0  0  0  0  0
  -27.8019  -23.9552   21.8180 C   0  0  0  0  0  0  0  0  0  0  0  0
  -25.1127  -12.1430   21.6645 C   0  0  0  0  0  0  0  0  0  0  0  0
  -24.5440  -13.0554   19.5009 C   0  0  0  0  0  0  0  0  0  0  0  0
  -28.4861  -25.1552   21.6228 C   0  0  0  0  0  0  0  0  0  0  0  0
  -23.6646   -9.3723   20.3764 C   0  0  0  0  0  0  0  0  0  0  0  0
  -23.6341   -8.0429   20.7972 C   0  0  0  0  0  0  0  0  0  0  0  0
  -26.9790  -25.7339   19.8222 C   0  0  0  0  0  0  0  0  0  0  0  0
  -22.2048   -8.6605   22.6446 C   0  0  0  0  0  0  0  0  0  0  0  0
  -29.0814  -23.3081   16.3578 C   0  0  0  0  0  0  0  0  0  0  0  0
  -26.6908  -13.5484   20.4935 C   0  0  0  0  0  0  0  0  0  0  0  0
  -29.1677  -13.6832   19.8983 C   0  0  0  0  0  0  0  0  0  0  0  0
  -21.5360  -18.2545   18.7812 C   0  0  0  0  0  0  0  0  0  0  0  0
  -26.6930  -23.6467   21.0252 C   0  0  0  0  0  0  0  0  0  0  0  0
  -21.7762  -19.0567   19.9154 C   0  0  0  0  0  0  0  0  0  0  0  0
  -26.2822  -24.5391   20.0214 C   0  0  0  0  0  0  0  0  0  0  0  0
  -24.2075  -12.2828   20.6125 C   0  0  0  0  0  0  0  0  0  0  0  0
  -28.0758  -26.0422   20.6272 C   0  0  0  0  0  0  0  0  0  0  0  0
  -22.9653  -10.3459   21.0897 C   0  0  0  0  0  0  0  0  0  0  0  0
  -22.9042   -7.6869   21.9313 C   0  0  0  0  0  0  0  0  0  0  0  0
  -22.2354   -9.9900   22.2238 C   0  0  0  0  0  0  0  0  0  0  0  0
  -27.9730  -14.2028   20.4317 C   0  0  0  0  0  0  0  0  0  0  0  0
  -29.6029  -23.5622   17.6099 C   0  0  0  0  0  0  0  0  0  0  0  0
  -28.5723  -22.0395   16.1693 C   0  0  0  0  0  0  0  0  0  0  0  0
  -30.0888  -14.6861   20.0782 C   0  0  0  0  0  0  0  0  0  0  0  0
  -29.1035  -21.4550   18.3008 C   0  0  0  0  0  0  0  0  0  0  0  0
  -29.4221  -12.4081   19.2941 C   0  0  0  0  0  0  0  0  0  0  0  0
  -23.9500  -21.2095   20.2430 C   0  0  0  0  0  0  0  0  0  0  0  0
  -22.7272  -24.0168   20.0578 C   0  0  0  0  0  0  0  0  0  0  0  0
  -21.6705  -27.2454   20.3690 C   0  0  0  0  0  0  0  0  0  0  0  0
  -29.6116  -20.6175   20.6218 C   0  0  0  0  0  0  0  0  0  0  0  0
  -22.5681  -17.2850   18.2617 C   0  0  0  0  0  0  0  0  0  0  0  0
  -25.9635  -22.3376   21.1593 C   0  0  0  0  0  0  0  0  0  0  0  0
  -25.1051  -24.1496   19.1696 C   0  0  0  0  0  0  0  0  0  0  0  0
  -23.6158  -16.9154   19.3066 C   0  0  0  0  0  0  0  0  0  0  0  0
  -31.0912  -18.3771   22.9602 C   0  0  0  0  0  0  0  0  0  0  0  0
  -24.1686  -18.1751   19.9565 C   0  0  0  0  0  0  0  0  0  0  0  0
  -30.5730  -17.0044   22.5249 C   0  0  0  0  0  0  0  0  0  0  0  0
  -30.0335  -19.4650   22.7825 C   0  0  0  0  0  0  0  0  0  0  0  0
  -28.9232  -18.1692   21.0056 C   0  0  0  0  0  0  0  0  0  0  0  0
  -23.0653  -18.9316   20.7071 C   0  0  1  0  0  0  0  0  0  0  0  0
  -24.4508  -22.4606   20.9027 C   0  0  1  0  0  0  0  0  0  0  0  0
  -29.9748  -17.0521   21.1053 C   0  0  2  0  0  0  0  0  0  0  0  0
  -19.6195  -28.6758   20.1572 C   0  0  0  0  0  0  0  0  0  0  0  0
  -32.1076  -24.6497   19.2102 C   0  0  0  0  0  0  0  0  0  0  0  0
  -22.9602  -23.8944   17.0189 C   0  0  0  0  0  0  0  0  0  0  0  0
  -21.5938  -25.9890   16.9007 C   0  0  0  0  0  0  0  0  0  0  0  0
  -20.6144  -23.9170   17.8857 C   0  0  0  0  0  0  0  0  0  0  0  0
  -27.8968  -29.5052   18.8381 C   0  0  0  0  0  0  0  0  0  0  0  0
  -30.1742  -29.7256   19.8274 C   0  0  0  0  0  0  0  0  0  0  0  0
  -29.9283  -29.2041   17.4016 C   0  0  0  0  0  0  0  0  0  0  0  0
  -21.7961  -28.0497   23.2144 C   0  0  0  0  0  0  0  0  0  0  0  0
  -30.7390  -26.7713   19.1878 C   0  0  0  0  0  0  0  0  0  0  0  0
  -22.3781  -25.1887   19.1757 C   0  0  1  0  0  0  0  0  0  0  0  0
  -20.4848  -27.8516   21.0978 C   0  0  2  0  0  0  0  0  0  0  0  0
  -30.7014  -25.2336   19.1017 C   0  0  1  0  0  0  0  0  0  0  0  0
  -29.3406  -27.4225   19.1582 C   0  0  2  0  0  0  0  0  0  1  0  0
  -21.9108  -24.7466   17.7602 C   0  0  0  0  0  0  0  0  0  0  0  0
  -29.3303  -28.9430   18.7968 C   0  0  0  0  0  0  0  0  0  0  0  0
  -28.1188  -15.4396   20.9144 N   0  0  0  0  0  0  0  0  0  0  0  0
  -29.6303  -22.6555   18.6086 N   0  0  0  0  0  0  0  0  0  0  0  0
  -28.5672  -21.0845   17.1224 N   0  0  0  0  0  0  0  0  0  0  0  0
  -29.4160  -15.7056   20.6851 N   0  0  0  0  0  0  0  0  0  0  0  0
  -24.0502  -23.5609   20.0095 N   0  0  0  0  0  0  0  0  0  0  0  0
  -29.5153  -19.4531   21.4127 N   0  0  0  0  0  0  0  0  0  0  0  0
  -31.4004  -14.7865   19.7750 N   0  0  0  0  0  0  0  0  0  0  0  0
  -28.3635  -11.4957   19.1884 N   0  0  0  0  0  0  0  0  0  0  0  0
  -30.1235  -24.8232   17.8389 N   0  0  0  0  0  0  0  0  0  0  0  0
  -29.1151  -20.4772   19.3262 N   0  0  0  0  0  0  0  0  0  0  0  0
  -23.5773  -20.2168   21.1291 N   0  0  0  0  0  0  0  0  0  0  0  0
  -21.3934  -25.9744   19.9116 N   0  0  0  0  0  0  0  0  0  0  0  0
  -20.9527  -28.7361   22.2022 N   0  3  0  0  0  0  0  0  0  0  0  0
  -30.5586  -12.0811   18.8757 O   0  0  0  0  0  0  0  0  0  0  0  0
  -23.9030  -21.1486   19.0200 O   0  0  0  0  0  0  0  0  0  0  0  0
  -21.8514  -23.5137   20.7671 O   0  0  0  0  0  0  0  0  0  0  0  0
  -22.7346  -27.8412   20.2172 O   0  0  0  0  0  0  0  0  0  0  0  0
  -30.1233  -21.6542   21.0525 O   0  0  0  0  0  0  0  0  0  0  0  0
  -22.9959  -11.6653   20.6702 O   0  0  0  0  0  0  0  0  0  0  0  0
  -28.7482  -27.2190   20.4442 O   0  0  0  0  0  0  0  0  0  1  0  0
  -22.8737   -6.4099   22.3345 F   0  0  0  0  0  0  0  0  0  0  0  0
  -21.5606  -10.9207   22.9125 F   0  0  0  0  0  0  0  0  0  0  0  0
  -28.0498  -21.7262   14.9738 F   0  0  0  0  0  0  0  0  0  0  0  0
  1  2  1  0  0  0  0
  1  5  2  0  0  0  0
  2  6  2  0  0  0  0
  3  8  2  0  0  0  0
  3 16  1  0  0  0  0
  4  9  1  0  0  0  0
  4 16  2  0  0  0  0
  5 18  1  0  0  0  0
  6 20  1  0  0  0  0
  7 10  2  0  0  0  0
  7 19  1  0  0  0  0
  8 22  1  0  0  0  0
  9 22  2  0  0  0  0
 10 23  1  0  0  0  0
 11 12  2  0  0  0  0
 11 24  1  0  0  0  0
 12 25  1  0  0  0  0
 13 21  1  0  0  0  0
 13 23  2  0  0  0  0
 14 25  2  0  0  0  0
 14 26  1  0  0  0  0
 15 28  1  0  0  0  0
 15 29  2  0  0  0  0
 16 27  1  0  0  0  0
 17 27  1  0  0  0  0
 17 30  2  0  0  0  0
 17 32  1  0  0  0  0
 18 20  2  0  0  0  0
 18 37  1  0  0  0  0
 19 21  2  0  0  0  0
 19 38  1  0  0  0  0
 20 46  1  0  0  0  0
 21 39  1  0  0  0  0
 22 83  1  0  0  0  0
 23 84  1  0  0  0  0
 24 26  2  0  0  0  0
 24 83  1  0  0  0  0
 25 85  1  0  0  0  0
 26 86  1  0  0  0  0
 27 65  2  0  0  0  0
 28 66  2  0  0  0  0
 28 73  1  0  0  0  0
 29 67  1  0  0  0  0
 29 87  1  0  0  0  0
 30 68  1  0  0  0  0
 30 71  1  0  0  0  0
 31 66  1  0  0  0  0
 31 67  2  0  0  0  0
 31 74  1  0  0  0  0
 32 72  1  0  0  0  0
 32 78  2  0  0  0  0
 33 47  1  0  0  0  0
 33 75  1  0  0  0  0
 33 79  2  0  0  0  0
 34 59  1  0  0  0  0
 34 69  1  0  0  0  0
 34 80  2  0  0  0  0
 35 60  1  0  0  0  0
 35 76  1  0  0  0  0
 35 81  2  0  0  0  0
 36 70  1  0  0  0  0
 36 74  1  0  0  0  0
 36 82  2  0  0  0  0
 37 40  1  0  0  0  0
 38 47  1  0  0  0  0
 39 69  1  0  0  0  0
 40 42  1  0  0  0  0
 41 43  1  0  0  0  0
 41 44  1  0  0  0  0
 42 46  1  0  0  0  0
 43 48  1  0  0  0  0
 44 70  1  0  0  0  0
 45 48  1  0  0  0  0
 45 70  1  0  0  0  0
 46 75  1  0  0  0  0
 47 69  1  0  0  0  0
 48 68  1  0  0  0  0
 49 60  1  0  0  0  0
 50 61  1  0  0  0  0
 51 63  1  0  0  0  0
 52 63  1  0  0  0  0
 53 63  1  0  0  0  0
 54 64  1  0  0  0  0
 55 64  1  0  0  0  0
 56 64  1  0  0  0  0
 57 77  1  0  0  0  0
 58 61  1  0  0  0  0
 58 62  1  0  0  0  0
 59 63  1  0  0  0  0
 59 76  1  0  0  0  0
 60 77  1  0  0  0  0
 61 73  1  0  0  0  0
 62 64  1  0  0  0  0
 62 84  1  0  0  0  0
 65 68  1  0  0  0  0
M  CHG  1  77   1
M  ISO  4  36 100  62 101  74 100  84 101
M  END
> <Batch ID>
0187

> <Smiles>
CNC(C)C(=O)NC(C(=O)N1Cc2cc([101O:1][101CH:1](CC(C)Nc3cc(F)nc([100NH:0][100C:0](=O)N4CCCC(n5nc(-c6ccc(Oc7ccc(F)cc7F)cc6)c(C(N)=O)c5N)C4)n3)C(C)(C)C)ccc2CC1C(=O)NC1CCCc2ccccc21)C(C)(C)C

> <Shape>
0.233

> <Color>
0.078

> <Negative vol penalty>
0.000

$$$$

  -OEChem-04052305123D

 88 96  0     1  0  0  0  0  0999 V2000
  -31.4167  -32.2656   17.5488 C   0  0  0  0  0  0  0  0  0  0  0  0
  -31.2864  -31.0888   16.8183 C   0  0  0  0  0  0  0  0  0  0  0  0
  -23.0103   -9.9232   19.9604 C   0  0  0  0  0  0  0  0  0  0  0  0
  -23.7838   -9.9049   22.2491 C   0  0  0  0  0  0  0  0  0  0  0  0
  -31.5153  -32.2147   18.9386 C   0  0  0  0  0  0  0  0  0  0  0  0
  -31.2558  -29.8603   17.4773 C   0  0  0  0  0  0  0  0  0  0  0  0
  -28.0311  -24.9050   15.8795 C   0  0  0  0  0  0  0  0  0  0  0  0
  -22.2291   -8.7961   20.2154 C   0  0  0  0  0  0  0  0  0  0  0  0
  -23.0026   -8.7779   22.5042 C   0  0  0  0  0  0  0  0  0  0  0  0
  -28.3753  -23.7451   15.1868 C   0  0  0  0  0  0  0  0  0  0  0  0
  -19.7528   -8.0908   23.1265 C   0  0  0  0  0  0  0  0  0  0  0  0
  -19.0020   -8.0770   24.3020 C   0  0  0  0  0  0  0  0  0  0  0  0
  -28.7394  -22.6084   17.2831 C   0  0  0  0  0  0  0  0  0  0  0  0
  -20.1811   -6.0986   25.0319 C   0  0  0  0  0  0  0  0  0  0  0  0
  -26.9694  -18.6811   21.2112 C   0  0  0  0  0  0  0  0  0  0  0  0
  -23.7878  -10.4776   20.9773 C   0  0  0  0  0  0  0  0  0  0  0  0
  -24.2148  -12.9895   20.8539 C   0  0  0  0  0  0  0  0  0  0  0  0
  -31.4762  -30.9856   19.6156 C   0  0  0  0  0  0  0  0  0  0  0  0
  -28.0490  -24.9286   17.2815 C   0  0  0  0  0  0  0  0  0  0  0  0
  -31.3553  -29.7928   18.8773 C   0  0  0  0  0  0  0  0  0  0  0  0
  -28.3925  -23.7691   17.9913 C   0  0  0  0  0  0  0  0  0  0  0  0
  -22.2252   -8.2235   21.4873 C   0  0  0  0  0  0  0  0  0  0  0  0
  -28.7323  -22.5974   15.8885 C   0  0  0  0  0  0  0  0  0  0  0  0
  -20.7177   -7.1084   22.9037 C   0  0  0  0  0  0  0  0  0  0  0  0
  -19.2161   -7.0809   25.2547 C   0  0  0  0  0  0  0  0  0  0  0  0
  -20.9318   -6.1123   23.8564 C   0  0  0  0  0  0  0  0  0  0  0  0
  -24.5954  -11.6414   20.7143 C   0  0  0  0  0  0  0  0  0  0  0  0
  -29.2931  -18.2187   20.7765 C   0  0  0  0  0  0  0  0  0  0  0  0
  -28.5488  -18.6295   19.6905 C   0  0  0  0  0  0  0  0  0  0  0  0
  -25.3296  -13.7012   20.4837 C   0  0  0  0  0  0  0  0  0  0  0  0
  -22.9651  -13.5485   21.2802 C   0  0  0  0  0  0  0  0  0  0  0  0
  -29.6667  -26.5614   19.4770 C   0  0  0  0  0  0  0  0  0  0  0  0
  -27.6613  -25.0407   21.5235 C   0  0  0  0  0  0  0  0  0  0  0  0
  -28.3970  -19.1947   17.2406 C   0  0  0  0  0  0  0  0  0  0  0  0
  -25.6222  -22.3734   22.1356 C   0  0  0  0  0  0  0  0  0  0  0  0
  -30.8459  -14.5328   20.6385 C   0  0  0  0  0  0  0  0  0  0  0  0
  -31.6339  -30.9777   21.1155 C   0  0  0  0  0  0  0  0  0  0  0  0
  -27.6492  -26.1798   18.0142 C   0  0  0  0  0  0  0  0  0  0  0  0
  -28.4078  -23.7364   19.4970 C   0  0  0  0  0  0  0  0  0  0  0  0
  -31.2164  -29.6607   21.7649 C   0  0  0  0  0  0  0  0  0  0  0  0
  -29.6133  -12.1877   18.2598 C   0  0  0  0  0  0  0  0  0  0  0  0
  -31.8066  -28.4788   21.0023 C   0  0  0  0  0  0  0  0  0  0  0  0
  -28.1693  -11.9433   18.7016 C   0  0  0  0  0  0  0  0  0  0  0  0
  -30.5447  -12.3775   19.4551 C   0  0  0  0  0  0  0  0  0  0  0  0
  -28.6774  -13.1734   20.8527 C   0  0  0  0  0  0  0  0  0  0  0  0
  -31.2933  -28.4425   19.5578 C   0  0  1  0  0  0  0  0  0  0  0  0
  -28.1992  -26.2414   19.4358 C   0  0  1  0  0  0  0  0  0  0  0  0
  -27.6907  -13.0318   19.6811 C   0  0  2  0  0  0  0  0  0  0  0  0
  -24.1493  -21.3866   23.9116 C   0  0  0  0  0  0  0  0  0  0  0  0
  -31.2358  -20.4756   14.9507 C   0  0  0  0  0  0  0  0  0  0  0  0
  -31.6577  -20.1398   20.0028 C   0  0  0  0  0  0  0  0  0  0  0  0
  -33.1845  -18.5443   21.1762 C   0  0  0  0  0  0  0  0  0  0  0  0
  -31.4595  -19.7850   22.4620 C   0  0  0  0  0  0  0  0  0  0  0  0
  -30.1320  -24.0927   23.0425 C   0  0  0  0  0  0  0  0  0  0  0  0
  -28.6926  -22.3902   24.1817 C   0  0  0  0  0  0  0  0  0  0  0  0
  -28.2306  -24.8216   24.4944 C   0  0  0  0  0  0  0  0  0  0  0  0
  -23.2239  -22.5561   20.4113 C   0  0  0  0  0  0  0  0  0  0  0  0
  -29.3428  -19.2276   16.0440 C   0  0  0  0  0  0  0  0  0  0  0  0
  -30.9926  -16.6802   21.8740 C   0  0  0  0  0  0  0  0  0  0  0  0
  -30.7223  -17.8572   20.8740 C   0  0  2  0  0  0  0  0  0  0  0  0
  -27.6926  -23.7329   22.2769 C   0  0  1  0  0  0  0  0  0  0  0  0
  -24.2115  -22.2903   22.6900 C   0  0  2  0  0  0  0  0  0  0  0  0
  -30.0065  -20.5899   15.8424 C   0  0  2  0  0  0  0  0  0  1  0  0
  -31.7345  -19.0764   21.1143 C   0  0  0  0  0  0  0  0  0  0  0  0
  -28.6886  -23.7602   23.4705 C   0  0  0  0  0  0  0  0  0  0  0  0
  -27.2160  -18.8947   19.9378 N   0  0  0  0  0  0  0  0  0  0  0  0
  -25.8537  -11.5024   20.2885 N   0  0  0  0  0  0  0  0  0  0  0  0
  -26.2734  -12.7723   20.1572 N   0  0  0  0  0  0  0  0  0  0  0  0
  -28.0151  -24.9866   20.1679 N   0  0  0  0  0  0  0  0  0  0  0  0
  -30.0349  -13.4245   20.3438 N   0  0  0  0  0  0  0  0  0  0  0  0
  -25.5849  -15.0247   20.4088 N   0  0  0  0  0  0  0  0  0  0  0  0
  -21.9249  -12.6745   21.6241 N   0  0  0  0  0  0  0  0  0  0  0  0
  -29.0748  -18.7853   18.3860 N   0  0  0  0  0  0  0  0  0  0  0  0
  -29.9467  -27.9141   19.5131 N   0  0  0  0  0  0  0  0  0  0  0  0
  -26.3132  -23.4472   22.6562 N   0  0  0  0  0  0  0  0  0  0  0  0
  -30.2839  -15.4817   21.4837 N   0  0  0  0  0  0  0  0  0  0  0  0
  -23.2806  -21.7513   21.6587 N   0  3  0  0  0  0  0  0  0  0  0  0
  -22.7713  -14.7865   21.3384 O   0  0  0  0  0  0  0  0  0  0  0  0
  -30.4844  -25.6487   19.4777 O   0  0  0  0  0  0  0  0  0  0  0  0
  -27.3281  -26.0711   22.1143 O   0  0  0  0  0  0  0  0  0  0  0  0
  -27.2126  -19.4985   17.1460 O   0  0  0  0  0  0  0  0  0  0  0  0
  -26.0681  -21.5644   21.3249 O   0  0  0  0  0  0  0  0  0  0  0  0
  -31.9845  -14.6693   20.1780 O   0  0  0  0  0  0  0  0  0  0  0  0
  -21.4628   -7.1239   21.7365 O   0  0  0  0  0  0  0  0  0  0  0  0
  -29.0694  -21.4641   15.2148 O   0  0  0  0  0  0  0  0  0  1  0  0
  -18.4962   -7.0687   26.3841 F   0  0  0  0  0  0  0  0  0  0  0  0
  -21.8582   -5.1666   23.6484 F   0  0  0  0  0  0  0  0  0  0  0  0
  -28.2943  -18.1604   22.1695 S   0  0  0  0  0  0  0  0  0  0  0  0
  1  2  1  0  0  0  0
  1  5  2  0  0  0  0
  2  6  2  0  0  0  0
  3  8  2  0  0  0  0
  3 16  1  0  0  0  0
  4  9  1  0  0  0  0
  4 16  2  0  0  0  0
  5 18  1  0  0  0  0
  6 20  1  0  0  0  0
  7 10  2  0  0  0  0
  7 19  1  0  0  0  0
  8 22  1  0  0  0  0
  9 22  2  0  0  0  0
 10 23  1  0  0  0  0
 11 12  2  0  0  0  0
 11 24  1  0  0  0  0
 12 25  1  0  0  0  0
 13 21  1  0  0  0  0
 13 23  2  0  0  0  0
 14 25  2  0  0  0  0
 14 26  1  0  0  0  0
 15 66  2  0  0  0  0
 15 88  1  0  0  0  0
 16 27  1  0  0  0  0
 17 27  1  0  0  0  0
 17 30  2  0  0  0  0
 17 31  1  0  0  0  0
 18 20  2  0  0  0  0
 18 37  1  0  0  0  0
 19 21  2  0  0  0  0
 19 38  1  0  0  0  0
 20 46  1  0  0  0  0
 21 39  1  0  0  0  0
 22 84  1  0  0  0  0
 23 85  1  0  0  0  0
 24 26  2  0  0  0  0
 24 84  1  0  0  0  0
 25 86  1  0  0  0  0
 26 87  1  0  0  0  0
 27 67  2  0  0  0  0
 28 29  2  0  0  0  0
 28 60  1  0  0  0  0
 28 88  1  0  0  0  0
 29 66  1  0  0  0  0
 29 73  1  0  0  0  0
 30 68  1  0  0  0  0
 30 71  1  0  0  0  0
 31 72  1  0  0  0  0
 31 78  2  0  0  0  0
 32 47  1  0  0  0  0
 32 74  1  0  0  0  0
 32 79  2  0  0  0  0
 33 61  1  0  0  0  0
 33 69  1  0  0  0  0
 33 80  2  0  0  0  0
 34 58  1  0  0  0  0
 34 73  1  0  0  0  0
 34 81  2  0  0  0  0
 35 62  1  0  0  0  0
 35 75  1  0  0  0  0
 35 82  2  0  0  0  0
 36 70  1  0  0  0  0
 36 76  1  0  0  0  0
 36 83  2  0  0  0  0
 37 40  1  0  0  0  0
 38 47  1  0  0  0  0
 39 69  1  0  0  0  0
 40 42  1  0  0  0  0
 41 43  1  0  0  0  0
 41 44  1  0  0  0  0
 42 46  1  0  0  0  0
 43 48  1  0  0  0  0
 44 70  1  0  0  0  0
 45 48  1  0  0  0  0
 45 70  1  0  0  0  0
 46 74  1  0  0  0  0
 47 69  1  0  0  0  0
 48 68  1  0  0  0  0
 49 62  1  0  0  0  0
 50 63  1  0  0  0  0
 51 64  1  0  0  0  0
 52 64  1  0  0  0  0
 53 64  1  0  0  0  0
 54 65  1  0  0  0  0
 55 65  1  0  0  0  0
 56 65  1  0  0  0  0
 57 77  1  0  0  0  0
 58 63  1  0  0  0  0
 59 60  1  0  0  0  0
 59 76  1  0  0  0  0
 60 64  1  0  0  0  0
 61 65  1  0  0  0  0
 61 75  1  0  0  0  0
 62 77  1  0  0  0  0
 63 85  1  0  0  0  0
 67 68  1  0  0  0  0
M  CHG  1  77   1
M  ISO  4  36 100  63 101  76 100  85 101
M  END
> <Batch ID>
0187

> <Smiles>
CNC(C)C(=O)NC(C(=O)N1Cc2cc([101O:1][101CH:1](C)CC(=O)Nc3ncsc3C(C[100NH:0][100C:0](=O)N3CCCC(n4nc(-c5ccc(Oc6ccc(F)cc6F)cc5)c(C(N)=O)c4N)C3)C(C)(C)C)ccc2CC1C(=O)NC1CCCc2ccccc21)C(C)(C)C

> <Shape>
0.249

> <Color>
0.200

> <Negative vol penalty>
0.000

$$$$

  -OEChem-04052305123D

 83 91  0     1  0  0  0  0  0999 V2000
  -29.6016  -23.0606   16.4874 C   0  0  0  0  0  0  0  0  0  0  0  0
  -28.7067  -24.1206   16.5790 C   0  0  0  0  0  0  0  0  0  0  0  0
  -26.7428  -12.7770   20.6440 C   0  0  0  0  0  0  0  0  0  0  0  0
  -25.5243  -14.0155   18.9651 C   0  0  0  0  0  0  0  0  0  0  0  0
  -30.0704  -22.4469   17.6470 C   0  0  0  0  0  0  0  0  0  0  0  0
  -28.2894  -24.5750   17.8306 C   0  0  0  0  0  0  0  0  0  0  0  0
  -25.5440  -28.6563   17.9252 C   0  0  0  0  0  0  0  0  0  0  0  0
  -25.9624  -11.6515   20.3801 C   0  0  0  0  0  0  0  0  0  0  0  0
  -24.7439  -12.8899   18.7012 C   0  0  0  0  0  0  0  0  0  0  0  0
  -24.2178  -28.6826   17.4962 C   0  0  0  0  0  0  0  0  0  0  0  0
  -24.0508   -8.5581   20.3996 C   0  0  0  0  0  0  0  0  0  0  0  0
  -23.5541   -7.8416   21.4884 C   0  0  0  0  0  0  0  0  0  0  0  0
  -23.4813  -28.6955   19.7933 C   0  0  0  0  0  0  0  0  0  0  0  0
  -22.3721   -9.8088   22.2436 C   0  0  0  0  0  0  0  0  0  0  0  0
  -23.8242  -24.2276   20.7491 C   0  0  0  0  0  0  0  0  0  0  0  0
  -26.5237  -13.9591   19.9365 C   0  0  0  0  0  0  0  0  0  0  0  0
  -28.5428  -15.4796   19.5916 C   0  0  0  0  0  0  0  0  0  0  0  0
  -29.6485  -22.8865   18.9126 C   0  0  0  0  0  0  0  0  0  0  0  0
  -25.8492  -28.6383   19.2938 C   0  0  0  0  0  0  0  0  0  0  0  0
  -28.7697  -23.9842   19.0133 C   0  0  0  0  0  0  0  0  0  0  0  0
  -24.8123  -28.6716   20.2371 C   0  0  0  0  0  0  0  0  0  0  0  0
  -24.9630  -11.7079   19.4087 C   0  0  0  0  0  0  0  0  0  0  0  0
  -23.1861  -28.6993   18.4302 C   0  0  0  0  0  0  0  0  0  0  0  0
  -23.7081   -9.8999   20.2328 C   0  0  0  0  0  0  0  0  0  0  0  0
  -22.7147   -8.4669   22.4104 C   0  0  0  0  0  0  0  0  0  0  0  0
  -22.8688  -10.5252   21.1548 C   0  0  0  0  0  0  0  0  0  0  0  0
  -27.3292  -15.1223   20.2091 C   0  0  0  0  0  0  0  0  0  0  0  0
  -23.5225  -23.6684   19.5251 C   0  0  0  0  0  0  0  0  0  0  0  0
  -28.9028  -16.6581   20.1984 C   0  0  0  0  0  0  0  0  0  0  0  0
  -24.6347  -22.2193   21.0953 C   0  0  0  0  0  0  0  0  0  0  0  0
  -29.2788  -14.8066   18.5616 C   0  0  0  0  0  0  0  0  0  0  0  0
  -22.8518  -24.2624   18.3400 C   0  0  0  0  0  0  0  0  0  0  0  0
  -27.3362  -26.6065   21.2340 C   0  0  0  0  0  0  0  0  0  0  0  0
  -26.9433  -28.9918   23.3969 C   0  0  0  0  0  0  0  0  0  0  0  0
  -25.1974  -31.7555   24.3770 C   0  0  0  0  0  0  0  0  0  0  0  0
  -25.7868  -20.9541   22.9442 C   0  0  0  0  0  0  0  0  0  0  0  0
  -30.1935  -22.1912   20.1352 C   0  0  0  0  0  0  0  0  0  0  0  0
  -27.2855  -28.6370   19.7404 C   0  0  0  0  0  0  0  0  0  0  0  0
  -25.0871  -28.6739   21.7179 C   0  0  0  0  0  0  0  0  0  0  0  0
  -29.3596  -22.4478   21.3863 C   0  0  0  0  0  0  0  0  0  0  0  0
  -28.4457  -19.0346   24.3308 C   0  0  0  0  0  0  0  0  0  0  0  0
  -29.1004  -23.9388   21.5414 C   0  0  0  0  0  0  0  0  0  0  0  0
  -28.5756  -17.8492   23.3716 C   0  0  0  0  0  0  0  0  0  0  0  0
  -26.9890  -19.4546   24.5193 C   0  0  0  0  0  0  0  0  0  0  0  0
  -26.3827  -18.5319   22.3170 C   0  0  0  0  0  0  0  0  0  0  0  0
  -28.2783  -24.4757   20.3629 C   0  0  1  0  0  0  0  0  0  0  0  0
  -27.4703  -28.1011   21.1568 C   0  0  1  0  0  0  0  0  0  0  0  0
  -27.8371  -18.1142   22.0450 C   0  0  2  0  0  0  0  0  0  0  0  0
  -25.0861  -33.4687   26.2073 C   0  0  0  0  0  0  0  0  0  0  0  0
  -19.9358  -29.1644   19.3307 C   0  0  0  0  0  0  0  0  0  0  0  0
  -25.6311  -26.9397   25.2346 C   0  0  0  0  0  0  0  0  0  0  0  0
  -24.7122  -28.8384   26.5834 C   0  0  0  0  0  0  0  0  0  0  0  0
  -27.1798  -28.5310   26.3852 C   0  0  0  0  0  0  0  0  0  0  0  0
  -25.7328  -33.9735   22.4920 C   0  0  0  0  0  0  0  0  0  0  0  0
  -20.2148  -26.9702   18.1114 C   0  0  0  0  0  0  0  0  0  0  0  0
  -21.1710  -25.9134   17.5618 C   0  0  0  0  0  0  0  0  0  0  0  0
  -25.8709  -29.3680   24.3907 C   0  0  1  0  0  0  0  0  0  0  0  0
  -25.6577  -33.1259   24.8403 C   0  0  2  0  0  0  0  0  0  0  0  0
  -20.9242  -28.1047   18.8616 C   0  0  1  0  0  0  0  0  0  1  0  0
  -25.8429  -28.4173   25.6206 C   0  0  0  0  0  0  0  0  0  0  0  0
  -24.4616  -23.3980   21.6510 N   0  0  0  0  0  0  0  0  0  0  0  0
  -26.9441  -16.0024   21.1370 N   0  0  0  0  0  0  0  0  0  0  0  0
  -27.9214  -16.9244   21.1072 N   0  0  0  0  0  0  0  0  0  0  0  0
  -26.5076  -28.6657   22.1048 N   0  0  0  0  0  0  0  0  0  0  0  0
  -26.3551  -19.6926   23.2207 N   0  0  0  0  0  0  0  0  0  0  0  0
  -29.9600  -17.4820   20.0378 N   0  0  0  0  0  0  0  0  0  0  0  0
  -28.7664  -13.6068   18.0494 N   0  0  0  0  0  0  0  0  0  0  0  0
  -25.2420  -21.0734   21.6661 N   0  0  0  0  0  0  0  0  0  0  0  0
  -21.9192  -25.2604   18.6001 N   0  0  0  0  0  0  0  0  0  0  0  0
  -28.2326  -25.9194   20.4380 N   0  0  0  0  0  0  0  0  0  0  0  0
  -26.0971  -30.7701   24.7242 N   0  0  0  0  0  0  0  0  0  0  0  0
  -25.2229  -34.1729   23.8730 N   0  3  0  0  0  0  0  0  0  0  0  0
  -30.3672  -15.2473   18.1203 O   0  0  0  0  0  0  0  0  0  0  0  0
  -23.1293  -23.8419   17.2199 O   0  0  0  0  0  0  0  0  0  0  0  0
  -26.4835  -26.1133   21.9629 O   0  0  0  0  0  0  0  0  0  0  0  0
  -28.1246  -28.9944   23.7521 O   0  0  0  0  0  0  0  0  0  0  0  0
  -24.1431  -31.5767   23.7711 O   0  0  0  0  0  0  0  0  0  0  0  0
  -25.8078  -21.8704   23.7699 O   0  0  0  0  0  0  0  0  0  0  0  0
  -24.2014  -10.6097   19.1508 O   0  0  0  0  0  0  0  0  0  0  0  0
  -21.8907  -28.7244   18.0141 O   0  0  0  0  0  0  0  0  0  1  0  0
  -22.2366   -7.7784   23.4551 F   0  0  0  0  0  0  0  0  0  0  0  0
  -22.5351  -11.8138   20.9991 F   0  0  0  0  0  0  0  0  0  0  0  0
  -24.0557  -22.0387   19.4900 S   0  0  0  0  0  0  0  0  0  0  0  0
  1  2  1  0  0  0  0
  1  5  2  0  0  0  0
  2  6  2  0  0  0  0
  3  8  2  0  0  0  0
  3 16  1  0  0  0  0
  4  9  1  0  0  0  0
  4 16  2  0  0  0  0
  5 18  1  0  0  0  0
  6 20  1  0  0  0  0
  7 10  2  0  0  0  0
  7 19  1  0  0  0  0
  8 22  1  0  0  0  0
  9 22  2  0  0  0  0
 10 23  1  0  0  0  0
 11 12  2  0  0  0  0
 11 24  1  0  0  0  0
 12 25  1  0  0  0  0
 13 21  1  0  0  0  0
 13 23  2  0  0  0  0
 14 25  2  0  0  0  0
 14 26  1  0  0  0  0
 15 28  2  0  0  0  0
 15 61  1  0  0  0  0
 16 27  1  0  0  0  0
 17 27  1  0  0  0  0
 17 29  2  0  0  0  0
 17 31  1  0  0  0  0
 18 20  2  0  0  0  0
 18 37  1  0  0  0  0
 19 21  2  0  0  0  0
 19 38  1  0  0  0  0
 20 46  1  0  0  0  0
 21 39  1  0  0  0  0
 22 79  1  0  0  0  0
 23 80  1  0  0  0  0
 24 26  2  0  0  0  0
 24 79  1  0  0  0  0
 25 81  1  0  0  0  0
 26 82  1  0  0  0  0
 27 62  2  0  0  0  0
 28 32  1  0  0  0  0
 28 83  1  0  0  0  0
 29 63  1  0  0  0  0
 29 66  1  0  0  0  0
 30 61  2  0  0  0  0
 30 68  1  0  0  0  0
 30 83  1  0  0  0  0
 31 67  1  0  0  0  0
 31 73  2  0  0  0  0
 32 69  1  0  0  0  0
 32 74  2  0  0  0  0
 33 47  1  0  0  0  0
 33 70  1  0  0  0  0
 33 75  2  0  0  0  0
 34 57  1  0  0  0  0
 34 64  1  0  0  0  0
 34 76  2  0  0  0  0
 35 58  1  0  0  0  0
 35 71  1  0  0  0  0
 35 77  2  0  0  0  0
 36 65  1  0  0  0  0
 36 68  1  0  0  0  0
 36 78  2  0  0  0  0
 37 40  1  0  0  0  0
 38 47  1  0  0  0  0
 39 64  1  0  0  0  0
 40 42  1  0  0  0  0
 41 43  1  0  0  0  0
 41 44  1  0  0  0  0
 42 46  1  0  0  0  0
 43 48  1  0  0  0  0
 44 65  1  0  0  0  0
 45 48  1  0  0  0  0
 45 65  1  0  0  0  0
 46 70  1  0  0  0  0
 47 64  1  0  0  0  0
 48 63  1  0  0  0  0
 49 58  1  0  0  0  0
 50 59  1  0  0  0  0
 51 60  1  0  0  0  0
 52 60  1  0  0  0  0
 53 60  1  0  0  0  0
 54 72  1  0  0  0  0
 55 56  1  0  0  0  0
 55 59  1  0  0  0  0
 56 69  1  0  0  0  0
 57 60  1  0  0  0  0
 57 71  1  0  0  0  0
 58 72  1  0  0  0  0
 59 80  1  0  0  0  0
 62 63  1  0  0  0  0
M  CHG  1  72   1
M  ISO  4  36 100  59 101  68 100  80 101
M  END
> <Batch ID>
0187

> <Smiles>
CNC(C)C(=O)NC(C(=O)N1Cc2cc([101O:1][101CH:1](C)CCNC(=O)c3cnc([100NH:0][100C:0](=O)N4CCCC(n5nc(-c6ccc(Oc7ccc(F)cc7F)cc6)c(C(N)=O)c5N)C4)s3)ccc2CC1C(=O)NC1CCCc2ccccc21)C(C)(C)C

> <Shape>
0.222

> <Color>
0.076

> <Negative vol penalty>
0.000

$$$$

  -OEChem-04052305123D

 85 93  0     1  0  0  0  0  0999 V2000
  -32.1233  -27.5450   19.0330 C   0  0  0  0  0  0  0  0  0  0  0  0
  -31.8454  -26.7101   20.1105 C   0  0  0  0  0  0  0  0  0  0  0  0
  -23.1522   -9.8673   19.9582 C   0  0  0  0  0  0  0  0  0  0  0  0
  -23.8305   -9.9589   22.2752 C   0  0  0  0  0  0  0  0  0  0  0  0
  -31.0799  -28.1569   18.3395 C   0  0  0  0  0  0  0  0  0  0  0  0
  -30.5239  -26.4873   20.4958 C   0  0  0  0  0  0  0  0  0  0  0  0
  -29.5713  -21.6033   21.4357 C   0  0  0  0  0  0  0  0  0  0  0  0
  -22.4401   -8.6953   20.2130 C   0  0  0  0  0  0  0  0  0  0  0  0
  -23.1183   -8.7870   22.5301 C   0  0  0  0  0  0  0  0  0  0  0  0
  -30.0061  -21.0936   22.6584 C   0  0  0  0  0  0  0  0  0  0  0  0
  -23.5424   -5.4643   22.0711 C   0  0  0  0  0  0  0  0  0  0  0  0
  -24.1672   -4.4798   22.8365 C   0  0  0  0  0  0  0  0  0  0  0  0
  -27.7716  -21.3169   23.5393 C   0  0  0  0  0  0  0  0  0  0  0  0
  -22.4020   -4.6364   24.4787 C   0  0  0  0  0  0  0  0  0  0  0  0
  -32.6709  -16.6291   23.9219 C   0  0  0  0  0  0  0  0  0  0  0  0
  -23.8475  -10.4991   20.9893 C   0  0  0  0  0  0  0  0  0  0  0  0
  -24.1064  -13.0309   20.8143 C   0  0  0  0  0  0  0  0  0  0  0  0
  -29.7445  -27.9339   18.7104 C   0  0  0  0  0  0  0  0  0  0  0  0
  -28.2335  -21.9845   21.2588 C   0  0  0  0  0  0  0  0  0  0  0  0
  -29.4618  -27.0978   19.8074 C   0  0  0  0  0  0  0  0  0  0  0  0
  -27.3217  -21.8288   22.3127 C   0  0  0  0  0  0  0  0  0  0  0  0
  -22.4231   -8.1552   21.4989 C   0  0  0  0  0  0  0  0  0  0  0  0
  -29.1069  -20.9530   23.7113 C   0  0  0  0  0  0  0  0  0  0  0  0
  -22.3475   -6.0349   22.5094 C   0  0  0  0  0  0  0  0  0  0  0  0
  -23.5970   -4.0658   24.0403 C   0  0  0  0  0  0  0  0  0  0  0  0
  -21.7773   -5.6210   23.7132 C   0  0  0  0  0  0  0  0  0  0  0  0
  -24.5838  -11.7094   20.7266 C   0  0  0  0  0  0  0  0  0  0  0  0
  -31.1264  -15.3976   23.1291 C   0  0  0  0  0  0  0  0  0  0  0  0
  -25.1843  -13.8090   20.4689 C   0  0  0  0  0  0  0  0  0  0  0  0
  -30.6300  -15.8943   24.3112 C   0  0  0  0  0  0  0  0  0  0  0  0
  -22.8050  -13.5120   21.1757 C   0  0  0  0  0  0  0  0  0  0  0  0
  -26.7487  -24.7136   20.5870 C   0  0  0  0  0  0  0  0  0  0  0  0
  -30.4951  -18.5357   26.0211 C   0  0  0  0  0  0  0  0  0  0  0  0
  -24.1325  -22.8016   20.4390 C   0  0  0  0  0  0  0  0  0  0  0  0
  -22.6126  -19.8934   21.3766 C   0  0  0  0  0  0  0  0  0  0  0  0
  -30.9285  -14.0051   21.0391 C   0  0  0  0  0  0  0  0  0  0  0  0
  -28.6526  -28.6547   17.9602 C   0  0  0  0  0  0  0  0  0  0  0  0
  -27.7743  -22.5076   19.9254 C   0  0  0  0  0  0  0  0  0  0  0  0
  -25.8704  -22.2043   22.1676 C   0  0  0  0  0  0  0  0  0  0  0  0
  -27.2625  -28.0702   18.1973 C   0  0  0  0  0  0  0  0  0  0  0  0
  -29.3894  -13.0304   17.9800 C   0  0  0  0  0  0  0  0  0  0  0  0
  -27.0327  -27.8262   19.6854 C   0  0  0  0  0  0  0  0  0  0  0  0
  -27.9462  -12.7192   18.3832 C   0  0  0  0  0  0  0  0  0  0  0  0
  -30.3839  -12.6058   19.0591 C   0  0  0  0  0  0  0  0  0  0  0  0
  -28.6594  -12.8166   20.8058 C   0  0  0  0  0  0  0  0  0  0  0  0
  -28.0401  -26.8119   20.2402 C   0  0  1  0  0  0  0  0  0  0  0  0
  -26.5025  -23.3449   20.0178 C   0  0  1  0  0  0  0  0  0  0  0  0
  -27.6164  -13.2855   19.7783 C   0  0  2  0  0  0  0  0  0  0  0  0
  -20.8600  -18.0986   21.4439 C   0  0  0  0  0  0  0  0  0  0  0  0
  -32.1863  -14.5250   28.6343 C   0  0  0  0  0  0  0  0  0  0  0  0
  -33.9032  -15.8534   27.3969 C   0  0  0  0  0  0  0  0  0  0  0  0
  -22.7974  -24.6855   22.4335 C   0  0  0  0  0  0  0  0  0  0  0  0
  -21.0890  -22.9067   22.8639 C   0  0  0  0  0  0  0  0  0  0  0  0
  -21.3083  -23.8975   20.5852 C   0  0  0  0  0  0  0  0  0  0  0  0
  -23.8352  -18.4525   19.0988 C   0  0  0  0  0  0  0  0  0  0  0  0
  -30.6113  -19.5270   24.8771 C   0  0  0  0  0  0  0  0  0  1  0  0
  -31.4265  -16.5335   27.3265 C   0  0  0  0  0  0  0  0  0  0  0  0
  -31.5929  -17.4694   26.1070 C   0  0  1  0  0  0  0  0  0  0  0  0
  -23.0988  -22.3255   21.4308 C   0  0  1  0  0  0  0  0  0  0  0  0
  -21.8596  -18.8466   20.5755 C   0  0  2  0  0  0  0  0  0  0  0  0
  -32.4510  -15.3784   27.3898 C   0  0  0  0  0  0  0  0  0  0  0  0
  -22.1011  -23.4484   21.8320 C   0  0  0  0  0  0  0  0  0  0  0  0
  -32.3973  -15.8585   22.8926 N   0  0  0  0  0  0  0  0  0  0  0  0
  -25.8651  -11.6477   20.3545 N   0  0  0  0  0  0  0  0  0  0  0  0
  -31.6308  -16.6810   24.8079 N   0  0  0  0  0  0  0  0  0  0  0  0
  -26.2020  -12.9401   20.2052 N   0  0  0  0  0  0  0  0  0  0  0  0
  -25.4714  -22.7171   20.8465 N   0  0  0  0  0  0  0  0  0  0  0  0
  -30.0102  -13.1832   20.3521 N   0  0  0  0  0  0  0  0  0  0  0  0
  -25.3513  -15.1447   20.3679 N   0  0  0  0  0  0  0  0  0  0  0  0
  -21.8137  -12.5766   21.5021 N   0  0  0  0  0  0  0  0  0  0  0  0
  -30.4504  -14.5235   22.2421 N   0  0  0  0  0  0  0  0  0  0  0  0
  -27.6586  -25.4660   19.8691 N   0  0  0  0  0  0  0  0  0  0  0  0
  -22.4696  -21.1526   20.8334 N   0  0  0  0  0  0  0  0  0  0  0  0
  -22.8100  -17.8569   19.9939 N   0  3  0  0  0  0  0  0  0  0  0  0
  -22.5248  -14.7346   21.1924 O   0  0  0  0  0  0  0  0  0  0  0  0
  -26.1559  -25.0617   21.6014 O   0  0  0  0  0  0  0  0  0  0  0  0
  -29.5537  -18.5755   26.8134 O   0  0  0  0  0  0  0  0  0  0  0  0
  -23.7660  -23.2259   19.3402 O   0  0  0  0  0  0  0  0  0  0  0  0
  -23.2597  -19.6218   22.3856 O   0  0  0  0  0  0  0  0  0  0  0  0
  -32.0460  -14.2545   20.5798 O   0  0  0  0  0  0  0  0  0  0  0  0
  -21.7280   -7.0117   21.7480 O   0  0  0  0  0  0  0  0  0  0  0  0
  -29.5288  -20.4564   24.9060 O   0  0  0  0  0  0  0  0  0  1  0  0
  -24.1963   -3.1192   24.7745 F   0  0  0  0  0  0  0  0  0  0  0  0
  -20.6288   -6.1646   24.1390 F   0  0  0  0  0  0  0  0  0  0  0  0
  -29.4370  -15.6631   24.8578 F   0  0  0  0  0  0  0  0  0  0  0  0
  1  2  1  0  0  0  0
  1  5  2  0  0  0  0
  2  6  2  0  0  0  0
  3  8  2  0  0  0  0
  3 16  1  0  0  0  0
  4  9  1  0  0  0  0
  4 16  2  0  0  0  0
  5 18  1  0  0  0  0
  6 20  1  0  0  0  0
  7 10  2  0  0  0  0
  7 19  1  0  0  0  0
  8 22  1  0  0  0  0
  9 22  2  0  0  0  0
 10 23  1  0  0  0  0
 11 12  2  0  0  0  0
 11 24  1  0  0  0  0
 12 25  1  0  0  0  0
 13 21  1  0  0  0  0
 13 23  2  0  0  0  0
 14 25  2  0  0  0  0
 14 26  1  0  0  0  0
 15 63  2  0  0  0  0
 15 65  1  0  0  0  0
 16 27  1  0  0  0  0
 17 27  1  0  0  0  0
 17 29  2  0  0  0  0
 17 31  1  0  0  0  0
 18 20  2  0  0  0  0
 18 37  1  0  0  0  0
 19 21  2  0  0  0  0
 19 38  1  0  0  0  0
 20 46  1  0  0  0  0
 21 39  1  0  0  0  0
 22 81  1  0  0  0  0
 23 82  1  0  0  0  0
 24 26  2  0  0  0  0
 24 81  1  0  0  0  0
 25 83  1  0  0  0  0
 26 84  1  0  0  0  0
 27 64  2  0  0  0  0
 28 30  2  0  0  0  0
 28 63  1  0  0  0  0
 28 71  1  0  0  0  0
 29 66  1  0  0  0  0
 29 69  1  0  0  0  0
 30 65  1  0  0  0  0
 30 85  1  0  0  0  0
 31 70  1  0  0  0  0
 31 75  2  0  0  0  0
 32 47  1  0  0  0  0
 32 72  1  0  0  0  0
 32 76  2  0  0  0  0
 33 56  1  0  0  0  0
 33 58  1  0  0  0  0
 33 77  2  0  0  0  0
 34 59  1  0  0  0  0
 34 67  1  0  0  0  0
 34 78  2  0  0  0  0
 35 60  1  0  0  0  0
 35 73  1  0  0  0  0
 35 79  2  0  0  0  0
 36 68  1  0  0  0  0
 36 71  1  0  0  0  0
 36 80  2  0  0  0  0
 37 40  1  0  0  0  0
 38 47  1  0  0  0  0
 39 67  1  0  0  0  0
 40 42  1  0  0  0  0
 41 43  1  0  0  0  0
 41 44  1  0  0  0  0
 42 46  1  0  0  0  0
 43 48  1  0  0  0  0
 44 68  1  0  0  0  0
 45 48  1  0  0  0  0
 45 68  1  0  0  0  0
 46 72  1  0  0  0  0
 47 67  1  0  0  0  0
 48 66  1  0  0  0  0
 49 60  1  0  0  0  0
 50 61  1  0  0  0  0
 51 61  1  0  0  0  0
 52 62  1  0  0  0  0
 53 62  1  0  0  0  0
 54 62  1  0  0  0  0
 55 74  1  0  0  0  0
 56 82  1  0  0  0  0
 57 58  1  0  0  0  0
 57 61  1  0  0  0  0
 58 65  1  0  0  0  0
 59 62  1  0  0  0  0
 59 73  1  0  0  0  0
 60 74  1  0  0  0  0
 64 66  1  0  0  0  0
M  CHG  1  74   1
M  ISO  4  36 100  56 101  71 100  82 101
M  END
> <Batch ID>
0187

> <Smiles>
CNC(C)C(=O)NC(C(=O)N1Cc2cc([101O:1][101CH2:1]C(=O)C(CC(C)C)n3cnc([100NH:0][100C:0](=O)N4CCCC(n5nc(-c6ccc(Oc7ccc(F)cc7F)cc6)c(C(N)=O)c5N)C4)c3F)ccc2CC1C(=O)NC1CCCc2ccccc21)C(C)(C)C

> <Shape>
0.224

> <Color>
0.181

> <Negative vol penalty>
0.000

$$$$

  -OEChem-04052305123D

 84 92  0     1  0  0  0  0  0999 V2000
  -29.3430  -35.2097   23.9901 C   0  0  0  0  0  0  0  0  0  0  0  0
  -29.3956  -33.8621   23.6486 C   0  0  0  0  0  0  0  0  0  0  0  0
  -24.4854   -9.3615   19.9443 C   0  0  0  0  0  0  0  0  0  0  0  0
  -24.5635   -9.7762   22.3231 C   0  0  0  0  0  0  0  0  0  0  0  0
  -28.1682  -35.7502   24.5114 C   0  0  0  0  0  0  0  0  0  0  0  0
  -28.2737  -33.0540   23.8291 C   0  0  0  0  0  0  0  0  0  0  0  0
  -27.3797  -30.0537   19.8487 C   0  0  0  0  0  0  0  0  0  0  0  0
  -24.2363   -8.0109   20.1878 C   0  0  0  0  0  0  0  0  0  0  0  0
  -24.3143   -8.4255   22.5667 C   0  0  0  0  0  0  0  0  0  0  0  0
  -28.1715  -28.9134   19.7203 C   0  0  0  0  0  0  0  0  0  0  0  0
  -23.3405   -5.1529   23.8156 C   0  0  0  0  0  0  0  0  0  0  0  0
  -22.3952   -4.8325   24.7899 C   0  0  0  0  0  0  0  0  0  0  0  0
  -26.3924  -27.5799   20.6562 C   0  0  0  0  0  0  0  0  0  0  0  0
  -20.7043   -6.0231   23.5407 C   0  0  0  0  0  0  0  0  0  0  0  0
  -24.6491  -10.2442   21.0119 C   0  0  0  0  0  0  0  0  0  0  0  0
  -23.9558  -12.6666   20.6133 C   0  0  0  0  0  0  0  0  0  0  0  0
  -27.0283  -34.9504   24.6894 C   0  0  0  0  0  0  0  0  0  0  0  0
  -26.0902  -29.9672   20.3928 C   0  0  0  0  0  0  0  0  0  0  0  0
  -27.0830  -33.5840   24.3545 C   0  0  0  0  0  0  0  0  0  0  0  0
  -25.5853  -28.7202   20.7881 C   0  0  0  0  0  0  0  0  0  0  0  0
  -24.1507   -7.5429   21.4991 C   0  0  0  0  0  0  0  0  0  0  0  0
  -27.6790  -27.6767   20.1268 C   0  0  0  0  0  0  0  0  0  0  0  0
  -22.9678   -5.9085   22.7039 C   0  0  0  0  0  0  0  0  0  0  0  0
  -21.0770   -5.2676   24.6525 C   0  0  0  0  0  0  0  0  0  0  0  0
  -21.6497   -6.3435   22.5665 C   0  0  0  0  0  0  0  0  0  0  0  0
  -24.9070  -11.6394   20.7609 C   0  0  0  0  0  0  0  0  0  0  0  0
  -24.7033  -13.7975   20.3925 C   0  0  0  0  0  0  0  0  0  0  0  0
  -28.9317  -21.1675   23.6345 C   0  0  0  0  0  0  0  0  0  0  0  0
  -28.8036  -21.3116   22.3135 C   0  0  0  0  0  0  0  0  0  0  0  0
  -28.3973  -20.0449   21.6516 C   0  0  0  0  0  0  0  0  0  0  0  0
  -22.5246  -12.6041   20.6707 C   0  0  0  0  0  0  0  0  0  0  0  0
  -24.6487  -31.1846   22.9509 C   0  0  0  0  0  0  0  0  0  0  0  0
  -29.0753  -17.0233   21.7230 C   0  0  0  0  0  0  0  0  0  0  0  0
  -22.0193  -29.8079   21.6419 C   0  0  0  0  0  0  0  0  0  0  0  0
  -20.7230  -27.4137   19.5842 C   0  0  0  0  0  0  0  0  0  0  0  0
  -29.3928  -23.6595   22.1725 C   0  0  0  0  0  0  0  0  0  0  0  0
  -25.7959  -35.5688   25.3004 C   0  0  0  0  0  0  0  0  0  0  0  0
  -25.2386  -31.2024   20.4999 C   0  0  0  0  0  0  0  0  0  0  0  0
  -24.1999  -28.5706   21.3596 C   0  0  0  0  0  0  0  0  0  0  0  0
  -24.5351  -34.7293   25.1105 C   0  0  0  0  0  0  0  0  0  0  0  0
  -29.6209  -14.3603   19.3882 C   0  0  0  0  0  0  0  0  0  0  0  0
  -24.8121  -33.2670   25.4447 C   0  0  0  0  0  0  0  0  0  0  0  0
  -28.3794  -13.4836   19.5470 C   0  0  0  0  0  0  0  0  0  0  0  0
  -30.0401  -14.9807   20.7173 C   0  0  0  0  0  0  0  0  0  0  0  0
  -27.7141  -14.8808   21.5546 C   0  0  0  0  0  0  0  0  0  0  0  0
  -25.8792  -32.6806   24.5125 C   0  0  1  0  0  0  0  0  0  0  0  0
  -24.1331  -31.0774   21.5436 C   0  0  1  0  0  0  0  0  0  0  0  0
  -27.2387  -14.2592   20.2295 C   0  0  2  0  0  0  0  0  0  0  0  0
  -18.5373  -26.5101   18.7453 C   0  0  0  0  0  0  0  0  0  0  0  0
  -21.5734  -28.4097   24.3171 C   0  0  0  0  0  0  0  0  0  0  0  0
  -20.0016  -26.8436   23.1574 C   0  0  0  0  0  0  0  0  0  0  0  0
  -19.4939  -29.2846   23.2379 C   0  0  0  0  0  0  0  0  0  0  0  0
  -21.3997  -28.0620   16.7769 C   0  0  0  0  0  0  0  0  0  0  0  0
  -27.8797  -17.6866   22.3591 C   0  0  0  0  0  0  0  0  0  0  0  0
  -28.2424  -25.5199   20.9554 C   0  0  0  0  0  0  0  0  0  1  0  0
  -21.3577  -28.4548   21.7446 C   0  0  1  0  0  0  0  0  0  0  0  0
  -19.6744  -27.4870   18.4890 C   0  0  2  0  0  0  0  0  0  0  0  0
  -29.5463  -24.7657   21.1505 C   0  0  0  0  0  0  0  0  0  0  0  0
  -20.6335  -28.2510   23.1053 C   0  0  0  0  0  0  0  0  0  0  0  0
  -26.1629  -12.0788   20.6436 N   0  0  0  0  0  0  0  0  0  0  0  0
  -26.0060  -13.3946   20.4199 N   0  0  0  0  0  0  0  0  0  0  0  0
  -28.2645  -19.0556   22.6155 N   0  0  0  0  0  0  0  0  0  0  0  0
  -23.4082  -29.8086   21.4500 N   0  0  0  0  0  0  0  0  0  0  0  0
  -28.9230  -15.6893   21.3444 N   0  0  0  0  0  0  0  0  0  0  0  0
  -24.3667  -15.0874   20.1794 N   0  0  0  0  0  0  0  0  0  0  0  0
  -21.9189  -11.3623   20.9063 N   0  0  0  0  0  0  0  0  0  0  0  0
  -29.0074  -22.4566   21.6016 N   0  0  0  0  0  0  0  0  0  0  0  0
  -25.3060  -32.3698   23.2205 N   0  0  0  0  0  0  0  0  0  0  0  0
  -20.4864  -28.3371   20.5805 N   0  0  0  0  0  0  0  0  0  0  0  0
  -20.2824  -27.1641   17.1672 N   0  3  0  0  0  0  0  0  0  0  0  0
  -28.2211  -19.9448   20.4456 O   0  0  0  0  0  0  0  0  0  0  0  0
  -21.8036  -13.6165   20.5013 O   0  0  0  0  0  0  0  0  0  0  0  0
  -24.4625  -30.2610   23.7345 O   0  0  0  0  0  0  0  0  0  0  0  0
  -30.1117  -17.6738   21.5653 O   0  0  0  0  0  0  0  0  0  0  0  0
  -21.3282  -30.8265   21.7218 O   0  0  0  0  0  0  0  0  0  0  0  0
  -21.6565  -26.6146   19.5602 O   0  0  0  0  0  0  0  0  0  0  0  0
  -29.5792  -23.8621   23.3706 O   0  0  0  0  0  0  0  0  0  0  0  0
  -23.9073   -6.2251   21.7371 O   0  0  0  0  0  0  0  0  0  0  0  0
  -28.4501  -26.5622   20.0032 O   0  0  0  0  0  0  0  0  0  1  0  0
  -20.1690   -4.9585   25.5874 F   0  0  0  0  0  0  0  0  0  0  0  0
  -21.2854   -7.0687   21.5000 F   0  0  0  0  0  0  0  0  0  0  0  0
  -30.5077  -25.6456   21.5438 F   0  0  0  0  0  0  0  0  0  0  0  0
  -29.9549  -24.2693   19.9510 F   0  0  0  0  0  0  0  0  0  0  0  0
  -28.5944  -19.5703   24.2044 S   0  0  0  0  0  0  0  0  0  0  0  0
  1  2  1  0  0  0  0
  1  5  2  0  0  0  0
  2  6  2  0  0  0  0
  3  8  2  0  0  0  0
  3 15  1  0  0  0  0
  4  9  1  0  0  0  0
  4 15  2  0  0  0  0
  5 17  1  0  0  0  0
  6 19  1  0  0  0  0
  7 10  2  0  0  0  0
  7 18  1  0  0  0  0
  8 21  1  0  0  0  0
  9 21  2  0  0  0  0
 10 22  1  0  0  0  0
 11 12  2  0  0  0  0
 11 23  1  0  0  0  0
 12 24  1  0  0  0  0
 13 20  1  0  0  0  0
 13 22  2  0  0  0  0
 14 24  2  0  0  0  0
 14 25  1  0  0  0  0
 15 26  1  0  0  0  0
 16 26  1  0  0  0  0
 16 27  2  0  0  0  0
 16 31  1  0  0  0  0
 17 19  2  0  0  0  0
 17 37  1  0  0  0  0
 18 20  2  0  0  0  0
 18 38  1  0  0  0  0
 19 46  1  0  0  0  0
 20 39  1  0  0  0  0
 21 78  1  0  0  0  0
 22 79  1  0  0  0  0
 23 25  2  0  0  0  0
 23 78  1  0  0  0  0
 24 80  1  0  0  0  0
 25 81  1  0  0  0  0
 26 60  2  0  0  0  0
 27 61  1  0  0  0  0
 27 65  1  0  0  0  0
 28 29  2  0  0  0  0
 28 84  1  0  0  0  0
 29 30  1  0  0  0  0
 29 67  1  0  0  0  0
 30 62  1  0  0  0  0
 30 71  2  0  0  0  0
 31 66  1  0  0  0  0
 31 72  2  0  0  0  0
 32 47  1  0  0  0  0
 32 68  1  0  0  0  0
 32 73  2  0  0  0  0
 33 54  1  0  0  0  0
 33 64  1  0  0  0  0
 33 74  2  0  0  0  0
 34 56  1  0  0  0  0
 34 63  1  0  0  0  0
 34 75  2  0  0  0  0
 35 57  1  0  0  0  0
 35 69  1  0  0  0  0
 35 76  2  0  0  0  0
 36 58  1  0  0  0  0
 36 67  1  0  0  0  0
 36 77  2  0  0  0  0
 37 40  1  0  0  0  0
 38 47  1  0  0  0  0
 39 63  1  0  0  0  0
 40 42  1  0  0  0  0
 41 43  1  0  0  0  0
 41 44  1  0  0  0  0
 42 46  1  0  0  0  0
 43 48  1  0  0  0  0
 44 64  1  0  0  0  0
 45 48  1  0  0  0  0
 45 64  1  0  0  0  0
 46 68  1  0  0  0  0
 47 63  1  0  0  0  0
 48 61  1  0  0  0  0
 49 57  1  0  0  0  0
 50 59  1  0  0  0  0
 51 59  1  0  0  0  0
 52 59  1  0  0  0  0
 53 70  1  0  0  0  0
 54 62  1  0  0  0  0
 55 58  1  0  0  0  0
 55 79  1  0  0  0  0
 56 59  1  0  0  0  0
 56 69  1  0  0  0  0
 57 70  1  0  0  0  0
 58 82  1  0  0  0  0
 58 83  1  0  0  0  0
 60 61  1  0  0  0  0
 62 84  1  0  0  0  0
M  CHG  1  70   1
M  ISO  4  33 100  54 100  55 101  79 101
M  END
> <Batch ID>
0187

> <Smiles>
CNC(C)C(=O)NC(C(=O)N1Cc2cc([101O:1][101CH2:1]C(F)(F)C(=O)Nc3csn([100CH2:0][100C:0](=O)N4CCCC(n5nc(-c6ccc(Oc7ccc(F)cc7F)cc6)c(C(N)=O)c5N)C4)c3=O)ccc2CC1C(=O)NC1CCCc2ccccc21)C(C)(C)C

> <Shape>
0.350

> <Color>
0.126

> <Negative vol penalty>
0.000

$$$$

  -OEChem-04052305123D

 87 95  0     1  0  0  0  0  0999 V2000
  -31.4424  -21.3103   27.9040 C   0  0  0  0  0  0  0  0  0  0  0  0
  -30.8706  -22.4277   27.3040 C   0  0  0  0  0  0  0  0  0  0  0  0
  -25.5387  -14.0040   21.2606 C   0  0  0  0  0  0  0  0  0  0  0  0
  -25.2127  -14.3804   18.8965 C   0  0  0  0  0  0  0  0  0  0  0  0
  -30.8004  -20.0750   27.8290 C   0  0  0  0  0  0  0  0  0  0  0  0
  -29.6569  -22.3101   26.6277 C   0  0  0  0  0  0  0  0  0  0  0  0
  -26.4389  -26.0569   27.7461 C   0  0  0  0  0  0  0  0  0  0  0  0
  -24.5736  -12.9973   21.2334 C   0  0  0  0  0  0  0  0  0  0  0  0
  -24.2477  -13.3736   18.8693 C   0  0  0  0  0  0  0  0  0  0  0  0
  -26.6555  -27.2879   27.1284 C   0  0  0  0  0  0  0  0  0  0  0  0
  -24.3801   -9.7571   20.2864 C   0  0  0  0  0  0  0  0  0  0  0  0
  -24.6698   -8.5635   20.9473 C   0  0  0  0  0  0  0  0  0  0  0  0
  -24.9270  -26.7802   25.5240 C   0  0  0  0  0  0  0  0  0  0  0  0
  -22.7456   -8.8857   22.3724 C   0  0  0  0  0  0  0  0  0  0  0  0
  -25.8582  -14.6956   20.0922 C   0  0  0  0  0  0  0  0  0  0  0  0
  -28.2387  -15.5934   19.9060 C   0  0  0  0  0  0  0  0  0  0  0  0
  -29.5733  -19.9442   27.1598 C   0  0  0  0  0  0  0  0  0  0  0  0
  -25.4706  -25.1722   27.2499 C   0  0  0  0  0  0  0  0  0  0  0  0
  -28.9984  -21.0715   26.5426 C   0  0  0  0  0  0  0  0  0  0  0  0
  -24.6983  -25.5397   26.1388 C   0  0  0  0  0  0  0  0  0  0  0  0
  -23.9281  -12.6820   20.0378 C   0  0  0  0  0  0  0  0  0  0  0  0
  -25.9015  -27.6485   26.0154 C   0  0  0  0  0  0  0  0  0  0  0  0
  -23.2732  -10.5151   20.6685 C   0  0  0  0  0  0  0  0  0  0  0  0
  -23.8525   -8.1277   21.9903 C   0  0  0  0  0  0  0  0  0  0  0  0
  -22.4560  -10.0794   21.7115 C   0  0  0  0  0  0  0  0  0  0  0  0
  -26.8546  -15.7360   20.1197 C   0  0  0  0  0  0  0  0  0  0  0  0
  -28.7395  -16.8655   20.0386 C   0  0  0  0  0  0  0  0  0  0  0  0
  -29.5566  -25.6830   19.5586 C   0  0  0  0  0  0  0  0  0  0  0  0
  -28.9429  -27.4596   20.6551 C   0  0  0  0  0  0  0  0  0  0  0  0
  -29.0034  -14.4164   19.6136 C   0  0  0  0  0  0  0  0  0  0  0  0
  -25.5270  -22.2334   26.0400 C   0  0  0  0  0  0  0  0  0  0  0  0
  -22.3006  -22.5599   26.1163 C   0  0  0  0  0  0  0  0  0  0  0  0
  -19.5994  -24.6455   26.1396 C   0  0  0  0  0  0  0  0  0  0  0  0
  -26.9244  -28.8996   21.0761 C   0  0  0  0  0  0  0  0  0  0  0  0
  -28.5033  -22.2131   18.9008 C   0  0  0  0  0  0  0  0  0  0  0  0
  -28.9402  -18.5786   27.0647 C   0  0  0  0  0  0  0  0  0  0  0  0
  -25.2306  -23.8594   27.9438 C   0  0  0  0  0  0  0  0  0  0  0  0
  -23.6324  -24.6344   25.5794 C   0  0  0  0  0  0  0  0  0  0  0  0
  -27.4715  -18.6156   26.6504 C   0  0  0  0  0  0  0  0  0  0  0  0
  -26.5640  -21.1011   21.7469 C   0  0  0  0  0  0  0  0  0  0  0  0
  -27.2755  -19.5518   25.4621 C   0  0  0  0  0  0  0  0  0  0  0  0
  -26.5839  -19.5836   21.5543 C   0  0  0  0  0  0  0  0  0  0  0  0
  -26.4612  -21.8268   20.4086 C   0  0  0  0  0  0  0  0  0  0  0  0
  -27.5471  -19.9512   19.2355 C   0  0  0  0  0  0  0  0  0  0  0  0
  -27.6706  -20.9892   25.8212 C   0  0  1  0  0  0  0  0  0  0  0  0
  -24.5732  -22.8187   27.0426 C   0  0  1  0  0  0  0  0  0  0  0  0
  -27.6726  -19.1604   20.5504 C   0  0  2  0  0  0  0  0  0  0  0  0
  -28.8909  -24.9359   17.2434 C   0  0  0  0  0  0  0  0  0  0  0  0
  -17.0902  -24.6188   26.1659 C   0  0  0  0  0  0  0  0  0  0  0  0
  -22.2800  -21.8090   23.1590 C   0  0  0  0  0  0  0  0  0  0  0  0
  -19.9481  -22.7093   23.0182 C   0  0  0  0  0  0  0  0  0  0  0  0
  -20.4481  -20.7741   24.5108 C   0  0  0  0  0  0  0  0  0  0  0  0
  -19.4955  -26.0872   28.7221 C   0  0  0  0  0  0  0  0  0  0  0  0
  -25.8580  -28.9227   24.0078 C   0  0  0  0  0  0  0  0  0  1  0  0
  -29.3479  -24.5339   18.6611 C   0  0  2  0  0  0  0  0  0  0  0  0
  -21.2558  -23.0805   25.1590 C   0  0  1  0  0  0  0  0  0  0  0  0
  -18.3550  -24.6724   27.0086 C   0  0  2  0  0  0  0  0  0  0  0  0
  -26.7835  -29.9537   23.3782 C   0  0  1  0  0  0  0  0  0  0  0  0
  -26.5623  -30.1345   21.8820 C   0  0  0  0  0  0  0  0  0  0  0  0
  -21.0044  -22.1097   23.9709 C   0  0  0  0  0  0  0  0  0  0  0  0
  -26.4988  -16.9990   20.3694 N   0  0  0  0  0  0  0  0  0  0  0  0
  -28.4966  -26.5274   19.8422 N   0  0  0  0  0  0  0  0  0  0  0  0
  -30.7608  -25.8975   20.0884 N   0  0  0  0  0  0  0  0  0  0  0  0
  -27.6667  -17.6616   20.3134 N   0  0  0  0  0  0  0  0  0  0  0  0
  -23.4398  -23.3588   26.2889 N   0  0  0  0  0  0  0  0  0  0  0  0
  -27.5368  -21.3927   19.5060 N   0  0  0  0  0  0  0  0  0  0  0  0
  -29.9884  -17.3695   19.9459 N   0  0  0  0  0  0  0  0  0  0  0  0
  -28.3309  -13.1909   19.5120 N   0  0  0  0  0  0  0  0  0  0  0  0
  -28.2594  -28.5531   21.2366 N   0  0  0  0  0  0  0  0  0  0  0  0
  -26.6290  -21.6192   26.6039 N   0  0  0  0  0  0  0  0  0  0  0  0
  -20.0706  -23.3619   25.9619 N   0  0  0  0  0  0  0  0  0  0  0  0
  -28.4197  -23.5667   19.2033 N   0  0  0  0  0  0  0  0  0  0  0  0
  -18.3218  -25.9171   27.8274 N   0  3  0  0  0  0  0  0  0  0  0  0
  -30.2484  -14.4477   19.4637 O   0  0  0  0  0  0  0  0  0  0  0  0
  -25.2807  -22.3304   24.8435 O   0  0  0  0  0  0  0  0  0  0  0  0
  -22.1096  -21.4875   26.6952 O   0  0  0  0  0  0  0  0  0  0  0  0
  -20.1010  -25.6612   25.6628 O   0  0  0  0  0  0  0  0  0  0  0  0
  -26.0755  -28.3268   20.3994 O   0  0  0  0  0  0  0  0  0  0  0  0
  -29.3799  -21.7711   18.1502 O   0  0  0  0  0  0  0  0  0  0  0  0
  -22.9866  -11.6996   20.0108 O   0  0  0  0  0  0  0  0  0  0  0  0
  -26.1114  -28.8491   25.4102 O   0  0  0  0  0  0  0  0  0  1  0  0
  -24.1299   -6.9806   22.6240 F   0  0  0  0  0  0  0  0  0  0  0  0
  -21.3905  -10.8027   22.0823 F   0  0  0  0  0  0  0  0  0  0  0  0
  -26.5153  -31.1567   23.9725 F   0  0  0  0  0  0  0  0  0  0  0  0
  -27.3068  -31.1997   21.4699 F   0  0  0  0  0  0  0  0  0  0  0  0
  -25.2634  -30.4837   21.6695 F   0  0  0  0  0  0  0  0  0  0  0  0
  -30.6059  -27.2699   21.0335 S   0  0  0  0  0  0  0  0  0  0  0  0
  1  2  1  0  0  0  0
  1  5  2  0  0  0  0
  2  6  2  0  0  0  0
  3  8  2  0  0  0  0
  3 15  1  0  0  0  0
  4  9  1  0  0  0  0
  4 15  2  0  0  0  0
  5 17  1  0  0  0  0
  6 19  1  0  0  0  0
  7 10  2  0  0  0  0
  7 18  1  0  0  0  0
  8 21  1  0  0  0  0
  9 21  2  0  0  0  0
 10 22  1  0  0  0  0
 11 12  2  0  0  0  0
 11 23  1  0  0  0  0
 12 24  1  0  0  0  0
 13 20  1  0  0  0  0
 13 22  2  0  0  0  0
 14 24  2  0  0  0  0
 14 25  1  0  0  0  0
 15 26  1  0  0  0  0
 16 26  1  0  0  0  0
 16 27  2  0  0  0  0
 16 30  1  0  0  0  0
 17 19  2  0  0  0  0
 17 36  1  0  0  0  0
 18 20  2  0  0  0  0
 18 37  1  0  0  0  0
 19 45  1  0  0  0  0
 20 38  1  0  0  0  0
 21 80  1  0  0  0  0
 22 81  1  0  0  0  0
 23 25  2  0  0  0  0
 23 80  1  0  0  0  0
 24 82  1  0  0  0  0
 25 83  1  0  0  0  0
 26 61  2  0  0  0  0
 27 64  1  0  0  0  0
 27 67  1  0  0  0  0
 28 55  1  0  0  0  0
 28 62  1  0  0  0  0
 28 63  2  0  0  0  0
 29 62  2  0  0  0  0
 29 69  1  0  0  0  0
 29 87  1  0  0  0  0
 30 68  1  0  0  0  0
 30 74  2  0  0  0  0
 31 46  1  0  0  0  0
 31 70  1  0  0  0  0
 31 75  2  0  0  0  0
 32 56  1  0  0  0  0
 32 65  1  0  0  0  0
 32 76  2  0  0  0  0
 33 57  1  0  0  0  0
 33 71  1  0  0  0  0
 33 77  2  0  0  0  0
 34 59  1  0  0  0  0
 34 69  1  0  0  0  0
 34 78  2  0  0  0  0
 35 66  1  0  0  0  0
 35 72  1  0  0  0  0
 35 79  2  0  0  0  0
 36 39  1  0  0  0  0
 37 46  1  0  0  0  0
 38 65  1  0  0  0  0
 39 41  1  0  0  0  0
 40 42  1  0  0  0  0
 40 43  1  0  0  0  0
 41 45  1  0  0  0  0
 42 47  1  0  0  0  0
 43 66  1  0  0  0  0
 44 47  1  0  0  0  0
 44 66  1  0  0  0  0
 45 70  1  0  0  0  0
 46 65  1  0  0  0  0
 47 64  1  0  0  0  0
 48 55  1  0  0  0  0
 49 57  1  0  0  0  0
 50 60  1  0  0  0  0
 51 60  1  0  0  0  0
 52 60  1  0  0  0  0
 53 73  1  0  0  0  0
 54 58  1  0  0  0  0
 54 81  1  0  0  0  0
 55 72  1  0  0  0  0
 56 60  1  0  0  0  0
 56 71  1  0  0  0  0
 57 73  1  0  0  0  0
 58 59  1  0  0  0  0
 58 84  1  0  0  0  0
 59 85  1  0  0  0  0
 59 86  1  0  0  0  0
 61 64  1  0  0  0  0
 63 87  1  0  0  0  0
M  CHG  1  73   1
M  ISO  4  35 100  54 101  72 100  81 101
M  END
> <Batch ID>
0187

> <Smiles>
CNC(C)C(=O)NC(C(=O)N1Cc2cc([101O:1][101CH2:1]C(F)C(F)(F)C(=O)Nc3nc(C(C)[100NH:0][100C:0](=O)N4CCCC(n5nc(-c6ccc(Oc7ccc(F)cc7F)cc6)c(C(N)=O)c5N)C4)ns3)ccc2CC1C(=O)NC1CCCc2ccccc21)C(C)(C)C

> <Shape>
0.200

> <Color>
0.063

> <Negative vol penalty>
0.000

$$$$

  -OEChem-04052305123D

 83 91  0     1  0  0  0  0  0999 V2000
  -31.1850  -34.0186   18.8664 C   0  0  0  0  0  0  0  0  0  0  0  0
  -31.0236  -32.6599   18.6144 C   0  0  0  0  0  0  0  0  0  0  0  0
  -22.9941   -9.9363   20.6452 C   0  0  0  0  0  0  0  0  0  0  0  0
  -23.6663  -10.4798   22.9012 C   0  0  0  0  0  0  0  0  0  0  0  0
  -30.5935  -34.5929   19.9908 C   0  0  0  0  0  0  0  0  0  0  0  0
  -30.2714  -31.8746   19.4873 C   0  0  0  0  0  0  0  0  0  0  0  0
  -26.7165  -27.1092   18.0178 C   0  0  0  0  0  0  0  0  0  0  0  0
  -22.1981   -8.8995   21.1320 C   0  0  0  0  0  0  0  0  0  0  0  0
  -22.8703   -9.4430   23.3881 C   0  0  0  0  0  0  0  0  0  0  0  0
  -26.9295  -25.7320   18.0597 C   0  0  0  0  0  0  0  0  0  0  0  0
  -19.5937   -8.9049   24.0168 C   0  0  0  0  0  0  0  0  0  0  0  0
  -18.7920   -9.1718   25.1265 C   0  0  0  0  0  0  0  0  0  0  0  0
  -25.8528  -25.6373   20.2164 C   0  0  0  0  0  0  0  0  0  0  0  0
  -19.9304   -7.4381   26.3658 C   0  0  0  0  0  0  0  0  0  0  0  0
  -23.7282  -10.7265   21.5297 C   0  0  0  0  0  0  0  0  0  0  0  0
  -24.1698  -13.1362   20.8186 C   0  0  0  0  0  0  0  0  0  0  0  0
  -29.8256  -33.8162   20.8727 C   0  0  0  0  0  0  0  0  0  0  0  0
  -26.0788  -27.7635   19.0815 C   0  0  0  0  0  0  0  0  0  0  0  0
  -29.6701  -32.4389   20.6252 C   0  0  0  0  0  0  0  0  0  0  0  0
  -25.6307  -27.0225   20.1844 C   0  0  0  0  0  0  0  0  0  0  0  0
  -29.6548  -18.2859   23.0627 C   0  0  0  0  0  0  0  0  0  0  0  0
  -28.8305  -19.4403   23.1972 C   0  0  0  0  0  0  0  0  0  0  0  0
  -22.1362   -8.6529   22.5035 C   0  0  0  0  0  0  0  0  0  0  0  0
  -26.5002  -24.9963   19.1604 C   0  0  0  0  0  0  0  0  0  0  0  0
  -20.5638   -7.9046   24.0814 C   0  0  0  0  0  0  0  0  0  0  0  0
  -18.9604   -8.4384   26.3010 C   0  0  0  0  0  0  0  0  0  0  0  0
  -20.7321   -7.1712   25.2559 C   0  0  0  0  0  0  0  0  0  0  0  0
  -24.5511  -11.7973   21.0273 C   0  0  0  0  0  0  0  0  0  0  0  0
  -30.0565  -18.0857   21.7603 C   0  0  0  0  0  0  0  0  0  0  0  0
  -25.3025  -13.7445   20.3355 C   0  0  0  0  0  0  0  0  0  0  0  0
  -28.6337  -20.0786   21.9923 C   0  0  0  0  0  0  0  0  0  0  0  0
  -22.9048  -13.7732   21.0416 C   0  0  0  0  0  0  0  0  0  0  0  0
  -26.9161  -30.0311   21.1457 C   0  0  0  0  0  0  0  0  0  0  0  0
  -23.8033  -29.8267   22.0350 C   0  0  0  0  0  0  0  0  0  0  0  0
  -27.7496  -21.8234   20.4086 C   0  0  0  0  0  0  0  0  0  0  0  0
  -20.9495  -27.9612   22.1851 C   0  0  0  0  0  0  0  0  0  0  0  0
  -30.8098  -14.6272   20.5235 C   0  0  0  0  0  0  0  0  0  0  0  0
  -29.2449  -34.4721   22.1003 C   0  0  0  0  0  0  0  0  0  0  0  0
  -25.8328  -29.2456   19.0090 C   0  0  0  0  0  0  0  0  0  0  0  0
  -24.9229  -27.6743   21.3431 C   0  0  0  0  0  0  0  0  0  0  0  0
  -28.1523  -33.6455   22.7734 C   0  0  0  0  0  0  0  0  0  0  0  0
  -29.6739  -11.7662   18.7344 C   0  0  0  0  0  0  0  0  0  0  0  0
  -28.5909  -32.1910   22.9099 C   0  0  0  0  0  0  0  0  0  0  0  0
  -28.2110  -11.6263   19.1590 C   0  0  0  0  0  0  0  0  0  0  0  0
  -30.5526  -12.2470   19.8871 C   0  0  0  0  0  0  0  0  0  0  0  0
  -28.6288  -13.3455   20.9669 C   0  0  0  0  0  0  0  0  0  0  0  0
  -28.8409  -31.5589   21.5353 C   0  0  1  0  0  0  0  0  0  0  0  0
  -25.6320  -29.8857   20.3792 C   0  0  1  0  0  0  0  0  0  0  0  0
  -27.6940  -12.9167   19.8230 C   0  0  2  0  0  0  0  0  0  0  0  0
  -30.0385  -17.4034   24.1925 C   0  0  0  0  0  0  0  0  0  0  0  0
  -28.2541  -19.9038   24.4842 C   0  0  0  0  0  0  0  0  0  0  0  0
  -18.5789  -28.0499   23.0033 C   0  0  0  0  0  0  0  0  0  0  0  0
  -24.7780  -29.4126   24.8966 C   0  0  0  0  0  0  0  0  0  0  0  0
  -22.4916  -28.5758   25.4802 C   0  0  0  0  0  0  0  0  0  0  0  0
  -22.7933  -30.9185   24.6782 C   0  0  0  0  0  0  0  0  0  0  0  0
  -19.8708  -27.5973   19.4533 C   0  0  0  0  0  0  0  0  0  0  0  0
  -30.9102  -17.0113   21.2055 C   0  0  0  0  0  0  0  0  0  0  0  0
  -26.8781  -23.0628   20.4926 C   0  0  0  0  0  0  0  0  0  1  0  0
  -23.0301  -29.0074   23.0400 C   0  0  1  0  0  0  0  0  0  0  0  0
  -19.5115  -28.2894   21.8262 C   0  0  2  0  0  0  0  0  0  0  0  0
  -23.2883  -29.4663   24.5030 C   0  0  0  0  0  0  0  0  0  0  0  0
  -25.8263  -11.5678   20.7032 N   0  0  0  0  0  0  0  0  0  0  0  0
  -26.2562  -12.7707   20.2858 N   0  0  0  0  0  0  0  0  0  0  0  0
  -24.7115  -29.1267   21.2282 N   0  0  0  0  0  0  0  0  0  0  0  0
  -30.0083  -13.4749   20.4719 N   0  0  0  0  0  0  0  0  0  0  0  0
  -25.5658  -15.0119   19.9525 N   0  0  0  0  0  0  0  0  0  0  0  0
  -21.8471  -13.0016   21.5418 N   0  0  0  0  0  0  0  0  0  0  0  0
  -27.8980  -21.2418   21.6631 N   0  0  0  0  0  0  0  0  0  0  0  0
  -27.5862  -31.2147   20.9015 N   0  0  0  0  0  0  0  0  0  0  0  0
  -21.6313  -29.0737   22.6310 N   0  0  0  0  0  0  0  0  0  0  0  0
  -30.2148  -15.7491   21.0876 N   0  0  0  0  0  0  0  0  0  0  0  0
  -19.0563  -27.4443   20.6863 N   0  3  0  0  0  0  0  0  0  0  0  0
  -22.7133  -14.9869   20.7888 O   0  0  0  0  0  0  0  0  0  0  0  0
  -27.2719  -29.1364   21.9037 O   0  0  0  0  0  0  0  0  0  0  0  0
  -23.6035  -31.0419   21.9635 O   0  0  0  0  0  0  0  0  0  0  0  0
  -28.2260  -21.4439   19.3439 O   0  0  0  0  0  0  0  0  0  0  0  0
  -21.4198  -26.8302   22.0838 O   0  0  0  0  0  0  0  0  0  0  0  0
  -31.9680  -14.6557   20.0936 O   0  0  0  0  0  0  0  0  0  0  0  0
  -21.3594   -7.6414   22.9790 O   0  0  0  0  0  0  0  0  0  0  0  0
  -26.7073  -23.6520   19.2042 O   0  0  0  0  0  0  0  0  0  1  0  0
  -18.1914   -8.6959   27.3672 F   0  0  0  0  0  0  0  0  0  0  0  0
  -21.6631   -6.2098   25.3244 F   0  0  0  0  0  0  0  0  0  0  0  0
  -29.4406  -19.2866   20.7063 S   0  0  0  0  0  0  0  0  0  0  0  0
  1  2  1  0  0  0  0
  1  5  2  0  0  0  0
  2  6  2  0  0  0  0
  3  8  2  0  0  0  0
  3 15  1  0  0  0  0
  4  9  1  0  0  0  0
  4 15  2  0  0  0  0
  5 17  1  0  0  0  0
  6 19  1  0  0  0  0
  7 10  2  0  0  0  0
  7 18  1  0  0  0  0
  8 23  1  0  0  0  0
  9 23  2  0  0  0  0
 10 24  1  0  0  0  0
 11 12  2  0  0  0  0
 11 25  1  0  0  0  0
 12 26  1  0  0  0  0
 13 20  1  0  0  0  0
 13 24  2  0  0  0  0
 14 26  2  0  0  0  0
 14 27  1  0  0  0  0
 15 28  1  0  0  0  0
 16 28  1  0  0  0  0
 16 30  2  0  0  0  0
 16 32  1  0  0  0  0
 17 19  2  0  0  0  0
 17 38  1  0  0  0  0
 18 20  2  0  0  0  0
 18 39  1  0  0  0  0
 19 47  1  0  0  0  0
 20 40  1  0  0  0  0
 21 22  1  0  0  0  0
 21 29  2  0  0  0  0
 21 50  1  0  0  0  0
 22 31  2  0  0  0  0
 22 51  1  0  0  0  0
 23 79  1  0  0  0  0
 24 80  1  0  0  0  0
 25 27  2  0  0  0  0
 25 79  1  0  0  0  0
 26 81  1  0  0  0  0
 27 82  1  0  0  0  0
 28 62  2  0  0  0  0
 29 57  1  0  0  0  0
 29 83  1  0  0  0  0
 30 63  1  0  0  0  0
 30 66  1  0  0  0  0
 31 68  1  0  0  0  0
 31 83  1  0  0  0  0
 32 67  1  0  0  0  0
 32 73  2  0  0  0  0
 33 48  1  0  0  0  0
 33 69  1  0  0  0  0
 33 74  2  0  0  0  0
 34 59  1  0  0  0  0
 34 64  1  0  0  0  0
 34 75  2  0  0  0  0
 35 58  1  0  0  0  0
 35 68  1  0  0  0  0
 35 76  2  0  0  0  0
 36 60  1  0  0  0  0
 36 70  1  0  0  0  0
 36 77  2  0  0  0  0
 37 65  1  0  0  0  0
 37 71  1  0  0  0  0
 37 78  2  0  0  0  0
 38 41  1  0  0  0  0
 39 48  1  0  0  0  0
 40 64  1  0  0  0  0
 41 43  1  0  0  0  0
 42 44  1  0  0  0  0
 42 45  1  0  0  0  0
 43 47  1  0  0  0  0
 44 49  1  0  0  0  0
 45 65  1  0  0  0  0
 46 49  1  0  0  0  0
 46 65  1  0  0  0  0
 47 69  1  0  0  0  0
 48 64  1  0  0  0  0
 49 63  1  0  0  0  0
 52 60  1  0  0  0  0
 53 61  1  0  0  0  0
 54 61  1  0  0  0  0
 55 61  1  0  0  0  0
 56 72  1  0  0  0  0
 57 71  1  0  0  0  0
 58 80  1  0  0  0  0
 59 61  1  0  0  0  0
 59 70  1  0  0  0  0
 60 72  1  0  0  0  0
 62 63  1  0  0  0  0
M  CHG  1  72   1
M  ISO  4  37 100  58 101  71 100  80 101
M  END
> <Batch ID>
0187

> <Smiles>
CNC(C)C(=O)NC(C(=O)N1Cc2cc([101O:1][101CH2:1]C(=O)Nc3sc(C[100NH:0][100C:0](=O)N4CCCC(n5nc(-c6ccc(Oc7ccc(F)cc7F)cc6)c(C(N)=O)c5N)C4)c(C)c3C)ccc2CC1C(=O)NC1CCCc2ccccc21)C(C)(C)C

> <Shape>
0.305

> <Color>
0.190

> <Negative vol penalty>
0.000

$$$$

  -OEChem-04052305123D

 88 96  0     1  0  0  0  0  0999 V2000
  -26.7862  -35.7461   24.7873 C   0  0  0  0  0  0  0  0  0  0  0  0
  -27.5602  -35.2019   23.7674 C   0  0  0  0  0  0  0  0  0  0  0  0
  -24.4590   -9.5975   19.6132 C   0  0  0  0  0  0  0  0  0  0  0  0
  -25.1752   -9.7055   21.9181 C   0  0  0  0  0  0  0  0  0  0  0  0
  -26.2360  -34.9152   25.7624 C   0  0  0  0  0  0  0  0  0  0  0  0
  -27.7854  -33.8264   23.7227 C   0  0  0  0  0  0  0  0  0  0  0  0
  -28.7510  -28.4763   19.0580 C   0  0  0  0  0  0  0  0  0  0  0  0
  -24.2131   -8.2317   19.7536 C   0  0  0  0  0  0  0  0  0  0  0  0
  -24.9292   -8.3397   22.0585 C   0  0  0  0  0  0  0  0  0  0  0  0
  -29.6357  -27.4347   18.7817 C   0  0  0  0  0  0  0  0  0  0  0  0
  -24.8318   -4.8107   22.9226 C   0  0  0  0  0  0  0  0  0  0  0  0
  -25.7951   -4.0423   23.5761 C   0  0  0  0  0  0  0  0  0  0  0  0
  -28.5690  -26.0876   20.4749 C   0  0  0  0  0  0  0  0  0  0  0  0
  -27.6341  -20.4224   23.6987 C   0  0  0  0  0  0  0  0  0  0  0  0
  -27.4258   -4.6667   21.9063 C   0  0  0  0  0  0  0  0  0  0  0  0
  -24.9401  -10.3344   20.6954 C   0  0  0  0  0  0  0  0  0  0  0  0
  -24.2919  -12.8002   20.7822 C   0  0  0  0  0  0  0  0  0  0  0  0
  -26.4464  -33.5278   25.7241 C   0  0  0  0  0  0  0  0  0  0  0  0
  -27.7741  -28.3350   20.0540 C   0  0  0  0  0  0  0  0  0  0  0  0
  -27.2385  -32.9764   24.6989 C   0  0  0  0  0  0  0  0  0  0  0  0
  -27.6715  -27.1279   20.7601 C   0  0  0  0  0  0  0  0  0  0  0  0
  -28.6365  -21.3277   23.3688 C   0  0  0  0  0  0  0  0  0  0  0  0
  -24.4481   -7.6028   20.9762 C   0  0  0  0  0  0  0  0  0  0  0  0
  -29.5467  -26.2412   19.4922 C   0  0  0  0  0  0  0  0  0  0  0  0
  -25.1654   -5.5070   21.7609 C   0  0  0  0  0  0  0  0  0  0  0  0
  -27.0922   -3.9703   23.0680 C   0  0  0  0  0  0  0  0  0  0  0  0
  -27.6602  -19.1393   23.1638 C   0  0  0  0  0  0  0  0  0  0  0  0
  -26.4624   -5.4350   21.2528 C   0  0  0  0  0  0  0  0  0  0  0  0
  -25.1949  -11.7452   20.5509 C   0  0  0  0  0  0  0  0  0  0  0  0
  -29.6349  -20.9040   22.5065 C   0  0  0  0  0  0  0  0  0  0  0  0
  -28.7021  -18.8136   22.3104 C   0  0  0  0  0  0  0  0  0  0  0  0
  -25.0130  -13.9360   20.5058 C   0  0  0  0  0  0  0  0  0  0  0  0
  -22.9238  -12.7572   21.2089 C   0  0  0  0  0  0  0  0  0  0  0  0
  -27.1370  -29.8105   22.7964 C   0  0  0  0  0  0  0  0  0  0  0  0
  -24.5043  -27.9159   22.7541 C   0  0  0  0  0  0  0  0  0  0  0  0
  -31.7471  -21.5981   21.3227 C   0  0  0  0  0  0  0  0  0  0  0  0
  -23.0124  -25.0532   21.6468 C   0  0  0  0  0  0  0  0  0  0  0  0
  -29.6680  -16.9660   20.8964 C   0  0  0  0  0  0  0  0  0  0  0  0
  -25.8703  -32.6754   26.8269 C   0  0  0  0  0  0  0  0  0  0  0  0
  -26.8102  -29.4583   20.3215 C   0  0  0  0  0  0  0  0  0  0  0  0
  -26.6274  -26.9185   21.8252 C   0  0  0  0  0  0  0  0  0  0  0  0
  -25.8458  -31.1855   26.4956 C   0  0  0  0  0  0  0  0  0  0  0  0
  -29.5417  -14.5123   18.3195 C   0  0  0  0  0  0  0  0  0  0  0  0
  -27.1848  -30.7465   25.9115 C   0  0  0  0  0  0  0  0  0  0  0  0
  -28.3253  -13.6604   18.6893 C   0  0  0  0  0  0  0  0  0  0  0  0
  -30.3090  -14.9731   19.5575 C   0  0  0  0  0  0  0  0  0  0  0  0
  -28.2798  -14.8012   20.9440 C   0  0  0  0  0  0  0  0  0  0  0  0
  -27.4848  -31.4864   24.6023 C   0  0  1  0  0  0  0  0  0  0  0  0
  -26.1855  -29.3912   21.7118 C   0  0  1  0  0  0  0  0  0  0  0  0
  -27.4382  -14.3677   19.7326 C   0  0  2  0  0  0  0  0  0  0  0  0
  -28.7175  -22.7007   25.4811 C   0  0  0  0  0  0  0  0  0  0  0  0
  -27.3548  -23.4934   23.5140 C   0  0  0  0  0  0  0  0  0  0  0  0
  -34.1044  -22.4692   21.0426 C   0  0  0  0  0  0  0  0  0  0  0  0
  -20.8692  -23.7583   21.8109 C   0  0  0  0  0  0  0  0  0  0  0  0
  -25.2879  -26.9779   25.5498 C   0  0  0  0  0  0  0  0  0  0  0  0
  -23.7129  -25.0520   25.2693 C   0  0  0  0  0  0  0  0  0  0  0  0
  -22.8412  -27.3890   25.2350 C   0  0  0  0  0  0  0  0  0  0  0  0
  -22.5274  -25.2629   18.7348 C   0  0  0  0  0  0  0  0  0  0  0  0
  -32.1414  -23.7847   20.0936 C   0  0  0  0  0  0  0  0  0  0  0  0
  -30.7401  -24.3517   20.3054 C   0  0  0  0  0  0  0  0  0  1  0  0
  -28.6049  -22.7025   23.9446 C   0  0  0  0  0  0  0  0  0  0  0  0
  -24.1733  -26.5339   23.2636 C   0  0  1  0  0  0  0  0  0  0  0  0
  -32.6324  -22.8459   21.2089 C   0  0  1  0  0  0  0  0  0  0  0  0
  -21.6494  -24.8023   21.0273 C   0  0  2  0  0  0  0  0  0  0  0  0
  -24.0249  -26.4925   24.8108 C   0  0  0  0  0  0  0  0  0  0  0  0
  -26.3976  -12.1727   20.1576 N   0  0  0  0  0  0  0  0  0  0  0  0
  -29.6937  -19.6659   21.9669 N   0  0  0  0  0  0  0  0  0  0  0  0
  -26.2554  -13.5090   20.1396 N   0  0  0  0  0  0  0  0  0  0  0  0
  -25.7121  -28.0486   22.0545 N   0  0  0  0  0  0  0  0  0  0  0  0
  -29.4053  -15.6379   20.4990 N   0  0  0  0  0  0  0  0  0  0  0  0
  -24.6990  -15.2485   20.5426 N   0  0  0  0  0  0  0  0  0  0  0  0
  -22.3377  -11.5070   21.4488 N   0  0  0  0  0  0  0  0  0  0  0  0
  -30.6603  -21.8173   22.1640 N   0  0  0  0  0  0  0  0  0  0  0  0
  -28.7226  -17.5045   21.7686 N   0  0  0  0  0  0  0  0  0  0  0  0
  -26.7212  -30.9163   23.5132 N   0  0  0  0  0  0  0  0  0  0  0  0
  -22.9828  -26.1054   22.5374 N   0  0  0  0  0  0  0  0  0  0  0  0
  -21.7985  -24.3225   19.6243 N   0  3  0  0  0  0  0  0  0  0  0  0
  -22.2364  -13.7961   21.3567 O   0  0  0  0  0  0  0  0  0  0  0  0
  -28.1711  -29.1766   22.9712 O   0  0  0  0  0  0  0  0  0  0  0  0
  -23.7166  -28.8420   22.9627 O   0  0  0  0  0  0  0  0  0  0  0  0
  -32.0165  -20.5633   20.7193 O   0  0  0  0  0  0  0  0  0  0  0  0
  -24.0034  -24.3805   21.3711 O   0  0  0  0  0  0  0  0  0  0  0  0
  -30.6440  -17.5896   20.4714 O   0  0  0  0  0  0  0  0  0  0  0  0
  -24.2081   -6.2701   21.1137 O   0  0  0  0  0  0  0  0  0  0  0  0
  -30.4093  -25.2233   19.2249 O   0  0  0  0  0  0  0  0  0  1  0  0
  -28.0176   -3.2336   23.6965 F   0  0  0  0  0  0  0  0  0  0  0  0
  -26.7013  -18.2570   23.4728 F   0  0  0  0  0  0  0  0  0  0  0  0
  -26.7892   -6.1028   20.1378 F   0  0  0  0  0  0  0  0  0  0  0  0
  1  2  1  0  0  0  0
  1  5  2  0  0  0  0
  2  6  2  0  0  0  0
  3  8  2  0  0  0  0
  3 16  1  0  0  0  0
  4  9  1  0  0  0  0
  4 16  2  0  0  0  0
  5 18  1  0  0  0  0
  6 20  1  0  0  0  0
  7 10  2  0  0  0  0
  7 19  1  0  0  0  0
  8 23  1  0  0  0  0
  9 23  2  0  0  0  0
 10 24  1  0  0  0  0
 11 12  2  0  0  0  0
 11 25  1  0  0  0  0
 12 26  1  0  0  0  0
 13 21  1  0  0  0  0
 13 24  2  0  0  0  0
 14 22  1  0  0  0  0
 14 27  2  0  0  0  0
 15 26  2  0  0  0  0
 15 28  1  0  0  0  0
 16 29  1  0  0  0  0
 17 29  1  0  0  0  0
 17 32  2  0  0  0  0
 17 33  1  0  0  0  0
 18 20  2  0  0  0  0
 18 39  1  0  0  0  0
 19 21  2  0  0  0  0
 19 40  1  0  0  0  0
 20 48  1  0  0  0  0
 21 41  1  0  0  0  0
 22 30  2  0  0  0  0
 22 61  1  0  0  0  0
 23 84  1  0  0  0  0
 24 85  1  0  0  0  0
 25 28  2  0  0  0  0
 25 84  1  0  0  0  0
 26 86  1  0  0  0  0
 27 31  1  0  0  0  0
 27 87  1  0  0  0  0
 28 88  1  0  0  0  0
 29 66  2  0  0  0  0
 30 67  1  0  0  0  0
 30 73  1  0  0  0  0
 31 67  2  0  0  0  0
 31 74  1  0  0  0  0
 32 68  1  0  0  0  0
 32 71  1  0  0  0  0
 33 72  1  0  0  0  0
 33 78  2  0  0  0  0
 34 49  1  0  0  0  0
 34 75  1  0  0  0  0
 34 79  2  0  0  0  0
 35 62  1  0  0  0  0
 35 69  1  0  0  0  0
 35 80  2  0  0  0  0
 36 63  1  0  0  0  0
 36 73  1  0  0  0  0
 36 81  2  0  0  0  0
 37 64  1  0  0  0  0
 37 76  1  0  0  0  0
 37 82  2  0  0  0  0
 38 70  1  0  0  0  0
 38 74  1  0  0  0  0
 38 83  2  0  0  0  0
 39 42  1  0  0  0  0
 40 49  1  0  0  0  0
 41 69  1  0  0  0  0
 42 44  1  0  0  0  0
 43 45  1  0  0  0  0
 43 46  1  0  0  0  0
 44 48  1  0  0  0  0
 45 50  1  0  0  0  0
 46 70  1  0  0  0  0
 47 50  1  0  0  0  0
 47 70  1  0  0  0  0
 48 75  1  0  0  0  0
 49 69  1  0  0  0  0
 50 68  1  0  0  0  0
 51 61  1  0  0  0  0
 52 61  1  0  0  0  0
 53 63  1  0  0  0  0
 54 64  1  0  0  0  0
 55 65  1  0  0  0  0
 56 65  1  0  0  0  0
 57 65  1  0  0  0  0
 58 77  1  0  0  0  0
 59 60  1  0  0  0  0
 59 63  1  0  0  0  0
 60 85  1  0  0  0  0
 62 65  1  0  0  0  0
 62 76  1  0  0  0  0
 64 77  1  0  0  0  0
 66 68  1  0  0  0  0
M  CHG  1  77   1
M  ISO  4  38 100  60 101  74 100  85 101
M  END
> <Batch ID>
0187

> <Smiles>
CNC(C)C(=O)NC(C(=O)N1Cc2cc([101O:1][101CH2:1]CC(C)C(=O)Nc3nc([100NH:0][100C:0](=O)N4CCCC(n5nc(-c6ccc(Oc7ccc(F)cc7F)cc6)c(C(N)=O)c5N)C4)c(F)cc3C(C)C)ccc2CC1C(=O)NC1CCCc2ccccc21)C(C)(C)C

> <Shape>
0.233

> <Color>
0.107

> <Negative vol penalty>
0.000

$$$$

  -OEChem-04052305123D

 84 92  0     1  0  0  0  0  0999 V2000
  -18.2972  -25.2356   19.8496 C   0  0  0  0  0  0  0  0  0  0  0  0
  -19.5295  -25.6891   19.3899 C   0  0  0  0  0  0  0  0  0  0  0  0
  -24.3745  -14.4859   19.9395 C   0  0  0  0  0  0  0  0  0  0  0  0
  -26.2915  -14.6709   21.3982 C   0  0  0  0  0  0  0  0  0  0  0  0
  -17.8425  -25.6155   21.1117 C   0  0  0  0  0  0  0  0  0  0  0  0
  -20.3073  -26.5237   20.1917 C   0  0  0  0  0  0  0  0  0  0  0  0
  -25.1830  -25.1569   20.2629 C   0  0  0  0  0  0  0  0  0  0  0  0
  -24.4684  -13.0952   19.9923 C   0  0  0  0  0  0  0  0  0  0  0  0
  -26.3854  -13.2802   21.4511 C   0  0  0  0  0  0  0  0  0  0  0  0
  -25.9585  -25.5070   19.1585 C   0  0  0  0  0  0  0  0  0  0  0  0
  -23.6355  -10.6223   22.1426 C   0  0  0  0  0  0  0  0  0  0  0  0
  -22.4582   -9.9000   22.3374 C   0  0  0  0  0  0  0  0  0  0  0  0
  -26.8491  -27.3829   20.3862 C   0  0  0  0  0  0  0  0  0  0  0  0
  -31.8854  -23.4841   20.7585 C   0  0  0  0  0  0  0  0  0  0  0  0
  -22.8035   -8.7691   20.2305 C   0  0  0  0  0  0  0  0  0  0  0  0
  -25.2861  -15.2738   20.6423 C   0  0  0  0  0  0  0  0  0  0  0  0
  -24.4543  -17.5465   21.4488 C   0  0  0  0  0  0  0  0  0  0  0  0
  -18.6195  -26.4474   21.9333 C   0  0  0  0  0  0  0  0  0  0  0  0
  -25.2265  -25.9248   21.4355 C   0  0  0  0  0  0  0  0  0  0  0  0
  -19.8620  -26.9161   21.4654 C   0  0  0  0  0  0  0  0  0  0  0  0
  -26.0750  -27.0389   21.5050 C   0  0  0  0  0  0  0  0  0  0  0  0
  -31.0182  -23.0569   19.7117 C   0  0  0  0  0  0  0  0  0  0  0  0
  -25.4739  -12.4924   20.7481 C   0  0  0  0  0  0  0  0  0  0  0  0
  -26.7896  -26.6218   19.2191 C   0  0  0  0  0  0  0  0  0  0  0  0
  -24.3967  -10.4181   20.9917 C   0  0  0  0  0  0  0  0  0  0  0  0
  -22.0422   -8.9734   21.3814 C   0  0  0  0  0  0  0  0  0  0  0  0
  -23.9807   -9.4915   20.0357 C   0  0  0  0  0  0  0  0  0  0  0  0
  -25.1899  -16.7104   20.5877 C   0  0  0  0  0  0  0  0  0  0  0  0
  -24.6901  -18.8156   20.9793 C   0  0  0  0  0  0  0  0  0  0  0  0
  -30.6942  -21.7225   19.8204 C   0  0  0  0  0  0  0  0  0  0  0  0
  -32.1910  -22.4598   21.6276 C   0  0  0  0  0  0  0  0  0  0  0  0
  -23.6314  -17.2065   22.5726 C   0  0  0  0  0  0  0  0  0  0  0  0
  -23.1084  -27.6338   23.0776 C   0  0  0  0  0  0  0  0  0  0  0  0
  -25.5524  -27.9085   25.1926 C   0  0  0  0  0  0  0  0  0  0  0  0
  -30.8125  -25.2465   18.4847 C   0  0  0  0  0  0  0  0  0  0  0  0
  -28.9179  -27.8473   25.7550 C   0  0  0  0  0  0  0  0  0  0  0  0
  -29.1737  -21.2496   17.8683 C   0  0  0  0  0  0  0  0  0  0  0  0
  -18.0649  -26.8695   23.2707 C   0  0  0  0  0  0  0  0  0  0  0  0
  -24.4038  -25.5184   22.6273 C   0  0  0  0  0  0  0  0  0  0  0  0
  -26.1734  -27.8846   22.7474 C   0  0  0  0  0  0  0  0  0  0  0  0
  -19.1175  -27.4528   24.2100 C   0  0  0  0  0  0  0  0  0  0  0  0
  -25.7342  -21.1840   16.9501 C   0  0  0  0  0  0  0  0  0  0  0  0
  -19.9883  -28.4653   23.4729 C   0  0  0  0  0  0  0  0  0  0  0  0
  -25.1362  -20.1097   17.8613 C   0  0  0  0  0  0  0  0  0  0  0  0
  -27.1469  -20.8204   16.4961 C   0  0  0  0  0  0  0  0  0  0  0  0
  -27.4829  -19.4140   18.4907 C   0  0  0  0  0  0  0  0  0  0  0  0
  -20.7457  -27.8027   22.3158 C   0  0  1  0  0  0  0  0  0  0  0  0
  -24.1401  -26.6703   23.5921 C   0  0  1  0  0  0  0  0  0  0  0  0
  -26.0854  -19.7664   19.0261 C   0  0  2  0  0  0  0  0  0  0  0  0
  -30.6162  -28.1444   27.5784 C   0  0  0  0  0  0  0  0  0  0  0  0
  -25.1599  -30.9316   25.0623 C   0  0  0  0  0  0  0  0  0  0  0  0
  -27.4185  -31.1999   26.1087 C   0  0  0  0  0  0  0  0  0  0  0  0
  -25.5989  -30.0345   27.3551 C   0  0  0  0  0  0  0  0  0  0  0  0
  -29.9155  -25.0792   25.4360 C   0  0  0  0  0  0  0  0  0  0  0  0
  -30.0930  -25.7683   17.2462 C   0  0  0  0  0  0  0  0  0  0  0  0
  -28.7868  -27.6230   18.4037 C   0  0  0  0  0  0  0  0  0  1  0  0
  -26.6917  -28.8792   25.3897 C   0  0  1  0  0  0  0  0  0  0  0  0
  -29.7490  -27.1527   26.8186 C   0  0  2  0  0  0  0  0  0  0  0  0
  -29.7904  -27.2654   17.3094 C   0  0  2  0  0  0  0  0  0  0  0  0
  -26.2142  -30.2467   25.9547 C   0  0  0  0  0  0  0  0  0  0  0  0
  -25.8440  -17.3909   19.6426 N   0  0  0  0  0  0  0  0  0  0  0  0
  -25.5201  -18.6681   19.9071 N   0  0  0  0  0  0  0  0  0  0  0  0
  -25.3446  -27.4501   23.8840 N   0  0  0  0  0  0  0  0  0  0  0  0
  -27.9904  -20.5119   17.6529 N   0  0  0  0  0  0  0  0  0  0  0  0
  -24.2664  -20.0320   21.3831 N   0  0  0  0  0  0  0  0  0  0  0  0
  -23.4979  -15.8548   22.9182 N   0  0  0  0  0  0  0  0  0  0  0  0
  -30.5391  -23.8952   18.6770 N   0  0  0  0  0  0  0  0  0  0  0  0
  -29.8768  -20.8890   19.0173 N   0  0  0  0  0  0  0  0  0  0  0  0
  -21.8804  -27.0566   22.8160 N   0  0  0  0  0  0  0  0  0  0  0  0
  -27.6703  -28.1952   26.2280 N   0  0  0  0  0  0  0  0  0  0  0  0
  -29.1952  -27.6655   15.9963 N   0  3  0  0  0  0  0  0  0  0  0  0
  -30.6380  -26.1313   26.1963 N   0  3  0  0  0  0  0  0  0  0  0  0
  -23.0192  -18.0743   23.2401 O   0  0  0  0  0  0  0  0  0  0  0  0
  -23.4040  -28.8139   22.9303 O   0  0  0  0  0  0  0  0  0  0  0  0
  -24.8763  -27.5641   26.1652 O   0  0  0  0  0  0  0  0  0  0  0  0
  -31.5392  -25.9624   19.1657 O   0  0  0  0  0  0  0  0  0  0  0  0
  -29.3352  -28.0632   24.6193 O   0  0  0  0  0  0  0  0  0  0  0  0
  -29.5224  -22.1542   17.1054 O   0  0  0  0  0  0  0  0  0  0  0  0
  -25.5657  -11.1354   20.8001 O   0  0  0  0  0  0  0  0  0  0  0  0
  -27.5472  -26.9661   18.1423 O   0  0  0  0  0  0  0  0  0  1  0  0
  -20.9125   -8.2788   21.5693 F   0  0  0  0  0  0  0  0  0  0  0  0
  -24.7085   -9.2900   18.9286 F   0  0  0  0  0  0  0  0  0  0  0  0
  -32.9846  -22.5977   22.6945 F   0  0  0  0  0  0  0  0  0  0  0  0
  -31.4341  -20.9904   21.1802 S   0  0  0  0  0  0  0  0  0  0  0  0
  1  2  1  0  0  0  0
  1  5  2  0  0  0  0
  2  6  2  0  0  0  0
  3  8  2  0  0  0  0
  3 16  1  0  0  0  0
  4  9  1  0  0  0  0
  4 16  2  0  0  0  0
  5 18  1  0  0  0  0
  6 20  1  0  0  0  0
  7 10  2  0  0  0  0
  7 19  1  0  0  0  0
  8 23  1  0  0  0  0
  9 23  2  0  0  0  0
 10 24  1  0  0  0  0
 11 12  2  0  0  0  0
 11 25  1  0  0  0  0
 12 26  1  0  0  0  0
 13 21  1  0  0  0  0
 13 24  2  0  0  0  0
 14 22  1  0  0  0  0
 14 31  2  0  0  0  0
 15 26  2  0  0  0  0
 15 27  1  0  0  0  0
 16 28  1  0  0  0  0
 17 28  1  0  0  0  0
 17 29  2  0  0  0  0
 17 32  1  0  0  0  0
 18 20  2  0  0  0  0
 18 38  1  0  0  0  0
 19 21  2  0  0  0  0
 19 39  1  0  0  0  0
 20 47  1  0  0  0  0
 21 40  1  0  0  0  0
 22 30  2  0  0  0  0
 22 67  1  0  0  0  0
 23 79  1  0  0  0  0
 24 80  1  0  0  0  0
 25 27  2  0  0  0  0
 25 79  1  0  0  0  0
 26 81  1  0  0  0  0
 27 82  1  0  0  0  0
 28 61  2  0  0  0  0
 29 62  1  0  0  0  0
 29 65  1  0  0  0  0
 30 68  1  0  0  0  0
 30 84  1  0  0  0  0
 31 83  1  0  0  0  0
 31 84  1  0  0  0  0
 32 66  1  0  0  0  0
 32 73  2  0  0  0  0
 33 48  1  0  0  0  0
 33 69  1  0  0  0  0
 33 74  2  0  0  0  0
 34 57  1  0  0  0  0
 34 63  1  0  0  0  0
 34 75  2  0  0  0  0
 35 55  1  0  0  0  0
 35 67  1  0  0  0  0
 35 76  2  0  0  0  0
 36 58  1  0  0  0  0
 36 70  1  0  0  0  0
 36 77  2  0  0  0  0
 37 64  1  0  0  0  0
 37 68  1  0  0  0  0
 37 78  2  0  0  0  0
 38 41  1  0  0  0  0
 39 48  1  0  0  0  0
 40 63  1  0  0  0  0
 41 43  1  0  0  0  0
 42 44  1  0  0  0  0
 42 45  1  0  0  0  0
 43 47  1  0  0  0  0
 44 49  1  0  0  0  0
 45 64  1  0  0  0  0
 46 49  1  0  0  0  0
 46 64  1  0  0  0  0
 47 69  1  0  0  0  0
 48 63  1  0  0  0  0
 49 62  1  0  0  0  0
 50 58  1  0  0  0  0
 51 60  1  0  0  0  0
 52 60  1  0  0  0  0
 53 60  1  0  0  0  0
 54 72  1  0  0  0  0
 55 59  1  0  0  0  0
 56 59  1  0  0  0  0
 56 80  1  0  0  0  0
 57 60  1  0  0  0  0
 57 70  1  0  0  0  0
 58 72  1  0  0  0  0
 59 71  1  0  0  0  0
 61 62  1  0  0  0  0
M  CHG  2  71   1  72   1
M  ISO  4  37 100  56 101  68 100  80 101
M  END
> <Batch ID>
0187

> <Smiles>
CNC(C)C(=O)NC(C(=O)N1Cc2cc([101O:1][101CH2:1]C(N)CC(=O)Nc3cc(F)sc3[100NH:0][100C:0](=O)N3CCCC(n4nc(-c5ccc(Oc6ccc(F)cc6F)cc5)c(C(N)=O)c4N)C3)ccc2CC1C(=O)NC1CCCc2ccccc21)C(C)(C)C

> <Shape>
0.209

> <Color>
0.074

> <Negative vol penalty>
0.000

$$$$

  -OEChem-04052305123D

 88 96  0     1  0  0  0  0  0999 V2000
  -17.2382  -27.4075   25.6203 C   0  0  0  0  0  0  0  0  0  0  0  0
  -18.4237  -26.8453   26.0826 C   0  0  0  0  0  0  0  0  0  0  0  0
  -26.4602  -12.1619   21.5852 C   0  0  0  0  0  0  0  0  0  0  0  0
  -25.6770  -13.2985   19.6023 C   0  0  0  0  0  0  0  0  0  0  0  0
  -17.2088  -28.0506   24.3836 C   0  0  0  0  0  0  0  0  0  0  0  0
  -19.5805  -26.9250   25.3080 C   0  0  0  0  0  0  0  0  0  0  0  0
  -26.6949  -27.4761   25.9389 C   0  0  0  0  0  0  0  0  0  0  0  0
  -25.2763  -11.4259   21.6310 C   0  0  0  0  0  0  0  0  0  0  0  0
  -24.4931  -12.5624   19.6481 C   0  0  0  0  0  0  0  0  0  0  0  0
  -27.8660  -26.8587   25.5017 C   0  0  0  0  0  0  0  0  0  0  0  0
  -22.0816  -11.9070   22.6245 C   0  0  0  0  0  0  0  0  0  0  0  0
  -21.4499  -11.7733   23.8609 C   0  0  0  0  0  0  0  0  0  0  0  0
  -27.7156  -28.0632   23.4170 C   0  0  0  0  0  0  0  0  0  0  0  0
  -21.6746   -9.3721   23.7158 C   0  0  0  0  0  0  0  0  0  0  0  0
  -26.6606  -13.0983   20.5709 C   0  0  0  0  0  0  0  0  0  0  0  0
  -29.0736  -13.5148   19.8556 C   0  0  0  0  0  0  0  0  0  0  0  0
  -18.3681  -28.1467   23.5978 C   0  0  0  0  0  0  0  0  0  0  0  0
  -26.0183  -28.3850   25.1127 C   0  0  0  0  0  0  0  0  0  0  0  0
  -19.5663  -27.5689   24.0591 C   0  0  0  0  0  0  0  0  0  0  0  0
  -26.5375  -28.6927   23.8471 C   0  0  0  0  0  0  0  0  0  0  0  0
  -24.2927  -11.6261   20.6624 C   0  0  0  0  0  0  0  0  0  0  0  0
  -28.3749  -27.1500   24.2395 C   0  0  0  0  0  0  0  0  0  0  0  0
  -22.5097  -10.7733   21.9337 C   0  0  0  0  0  0  0  0  0  0  0  0
  -21.2465  -10.5058   24.4066 C   0  0  0  0  0  0  0  0  0  0  0  0
  -22.3062   -9.5059   22.4794 C   0  0  0  0  0  0  0  0  0  0  0  0
  -27.8832  -13.8593   20.5234 C   0  0  0  0  0  0  0  0  0  0  0  0
  -29.1046  -23.3667   18.3181 C   0  0  0  0  0  0  0  0  0  0  0  0
  -29.9276  -14.5586   20.1155 C   0  0  0  0  0  0  0  0  0  0  0  0
  -29.1880  -22.6325   17.1535 C   0  0  0  0  0  0  0  0  0  0  0  0
  -29.1285  -21.3571   19.1962 C   0  0  0  0  0  0  0  0  0  0  0  0
  -29.3799  -12.3549   19.0703 C   0  0  0  0  0  0  0  0  0  0  0  0
  -23.1343  -28.4876   23.7800 C   0  0  0  0  0  0  0  0  0  0  0  0
  -24.0777  -31.4620   22.8936 C   0  0  0  0  0  0  0  0  0  0  0  0
  -26.6458  -33.6113   22.2365 C   0  0  0  0  0  0  0  0  0  0  0  0
  -29.0484  -20.3081   21.4852 C   0  0  0  0  0  0  0  0  0  0  0  0
  -18.2762  -28.8104   22.2465 C   0  0  0  0  0  0  0  0  0  0  0  0
  -24.7708  -29.0627   25.6096 C   0  0  0  0  0  0  0  0  0  0  0  0
  -25.8601  -29.6767   22.9298 C   0  0  0  0  0  0  0  0  0  0  0  0
  -19.6344  -29.1788   21.6552 C   0  0  0  0  0  0  0  0  0  0  0  0
  -30.8490  -17.9123   23.4076 C   0  0  0  0  0  0  0  0  0  0  0  0
  -20.6081  -28.0119   21.7866 C   0  0  0  0  0  0  0  0  0  0  0  0
  -30.4057  -16.5700   22.8213 C   0  0  0  0  0  0  0  0  0  0  0  0
  -29.7034  -18.9225   23.4412 C   0  0  0  0  0  0  0  0  0  0  0  0
  -28.5726  -17.7819   21.5732 C   0  0  0  0  0  0  0  0  0  0  0  0
  -20.8478  -27.6565   23.2589 C   0  0  1  0  0  0  0  0  0  0  0  0
  -23.8845  -29.5837   24.4825 C   0  0  1  0  0  0  0  0  0  0  0  0
  -29.7089  -16.7527   21.4587 C   0  0  2  0  0  0  0  0  0  0  0  0
  -27.1044  -35.9650   21.4967 C   0  0  0  0  0  0  0  0  0  0  0  0
  -26.6165  -28.3893   18.2948 C   0  0  0  0  0  0  0  0  0  0  0  0
  -25.9636  -26.2352   19.3860 C   0  0  0  0  0  0  0  0  0  0  0  0
  -29.7896  -24.3157   22.9660 C   0  0  0  0  0  0  0  0  0  0  0  0
  -23.3700  -30.6959   20.0262 C   0  0  0  0  0  0  0  0  0  0  0  0
  -24.7053  -32.6643   19.2447 C   0  0  0  0  0  0  0  0  0  0  0  0
  -22.6974  -33.0134   20.6832 C   0  0  0  0  0  0  0  0  0  0  0  0
  -28.0585  -34.2516   24.7571 C   0  0  0  0  0  0  0  0  0  0  0  0
  -28.4223  -26.9223   19.2499 C   0  0  0  0  0  0  0  0  0  0  0  0
  -30.3728  -26.3258   21.5585 C   0  0  0  0  0  0  0  0  0  0  0  0
  -24.7986  -32.0441   21.7018 C   0  0  1  0  0  0  0  0  0  0  0  0
  -26.9053  -35.0379   22.6857 C   0  0  2  0  0  0  0  0  0  0  0  0
  -27.0397  -26.9412   18.5598 C   0  0  0  0  0  0  0  0  0  0  0  0
  -28.9684  -25.5180   19.5746 C   0  0  2  0  0  0  0  0  0  0  0  0
  -29.4266  -25.7558   22.6251 C   0  0  2  0  0  0  0  0  0  1  0  0
  -30.3644  -25.5290   20.2407 C   0  0  1  0  0  0  0  0  0  0  0  0
  -23.9048  -32.0844   20.4302 C   0  0  0  0  0  0  0  0  0  0  0  0
  -27.9694  -15.0303   21.1600 N   0  0  0  0  0  0  0  0  0  0  0  0
  -29.0700  -22.6370   19.4903 N   0  0  0  0  0  0  0  0  0  0  0  0
  -29.2243  -15.4307   20.8933 N   0  0  0  0  0  0  0  0  0  0  0  0
  -24.6398  -30.3084   23.4585 N   0  0  0  0  0  0  0  0  0  0  0  0
  -29.0941  -19.0464   22.1152 N   0  0  0  0  0  0  0  0  0  0  0  0
  -31.2040  -14.8063   19.7525 N   0  0  0  0  0  0  0  0  0  0  0  0
  -28.3875  -11.3794   18.9040 N   0  0  0  0  0  0  0  0  0  0  0  0
  -29.0562  -24.7464   18.3471 N   0  0  0  0  0  0  0  0  0  0  0  0
  -29.1205  -20.2604   20.0934 N   0  0  0  0  0  0  0  0  0  0  0  0
  -21.7599  -28.6024   23.8652 N   0  0  0  0  0  0  0  0  0  0  0  0
  -25.2969  -33.3488   22.1235 N   0  0  0  0  0  0  0  0  0  0  0  0
  -28.1260  -35.0986   23.5385 N   0  3  0  0  0  0  0  0  0  0  0  0
  -30.5060  -12.1808   18.5456 O   0  0  0  0  0  0  0  0  0  0  0  0
  -23.7564  -27.6040   23.2022 O   0  0  0  0  0  0  0  0  0  0  0  0
  -23.0576  -32.0146   23.3126 O   0  0  0  0  0  0  0  0  0  0  0  0
  -27.5495  -32.8110   22.0052 O   0  0  0  0  0  0  0  0  0  0  0  0
  -28.9799  -21.3553   22.1338 O   0  0  0  0  0  0  0  0  0  0  0  0
  -31.3138  -26.0916   19.3360 O   0  0  0  0  0  0  0  0  0  0  0  0
  -23.1374  -10.9079   20.7067 O   0  0  0  0  0  0  0  0  0  0  0  0
  -29.5245  -26.5446   23.8074 O   0  0  0  0  0  0  0  0  0  1  0  0
  -20.6412  -10.3775   25.5946 F   0  0  0  0  0  0  0  0  0  0  0  0
  -22.7164   -8.4131   21.8210 F   0  0  0  0  0  0  0  0  0  0  0  0
  -29.2326  -23.1385   15.9181 F   0  0  0  0  0  0  0  0  0  0  0  0
  -29.2272  -20.9597   17.5297 S   0  0  0  0  0  0  0  0  0  0  0  0
  1  2  1  0  0  0  0
  1  5  2  0  0  0  0
  2  6  2  0  0  0  0
  3  8  2  0  0  0  0
  3 15  1  0  0  0  0
  4  9  1  0  0  0  0
  4 15  2  0  0  0  0
  5 17  1  0  0  0  0
  6 19  1  0  0  0  0
  7 10  2  0  0  0  0
  7 18  1  0  0  0  0
  8 21  1  0  0  0  0
  9 21  2  0  0  0  0
 10 22  1  0  0  0  0
 11 12  2  0  0  0  0
 11 23  1  0  0  0  0
 12 24  1  0  0  0  0
 13 20  1  0  0  0  0
 13 22  2  0  0  0  0
 14 24  2  0  0  0  0
 14 25  1  0  0  0  0
 15 26  1  0  0  0  0
 16 26  1  0  0  0  0
 16 28  2  0  0  0  0
 16 31  1  0  0  0  0
 17 19  2  0  0  0  0
 17 36  1  0  0  0  0
 18 20  2  0  0  0  0
 18 37  1  0  0  0  0
 19 45  1  0  0  0  0
 20 38  1  0  0  0  0
 21 83  1  0  0  0  0
 22 84  1  0  0  0  0
 23 25  2  0  0  0  0
 23 83  1  0  0  0  0
 24 85  1  0  0  0  0
 25 86  1  0  0  0  0
 26 65  2  0  0  0  0
 27 29  2  0  0  0  0
 27 66  1  0  0  0  0
 27 72  1  0  0  0  0
 28 67  1  0  0  0  0
 28 70  1  0  0  0  0
 29 87  1  0  0  0  0
 29 88  1  0  0  0  0
 30 66  2  0  0  0  0
 30 73  1  0  0  0  0
 30 88  1  0  0  0  0
 31 71  1  0  0  0  0
 31 77  2  0  0  0  0
 32 46  1  0  0  0  0
 32 74  1  0  0  0  0
 32 78  2  0  0  0  0
 33 58  1  0  0  0  0
 33 68  1  0  0  0  0
 33 79  2  0  0  0  0
 34 59  1  0  0  0  0
 34 75  1  0  0  0  0
 34 80  2  0  0  0  0
 35 69  1  0  0  0  0
 35 73  1  0  0  0  0
 35 81  2  0  0  0  0
 36 39  1  0  0  0  0
 37 46  1  0  0  0  0
 38 68  1  0  0  0  0
 39 41  1  0  0  0  0
 40 42  1  0  0  0  0
 40 43  1  0  0  0  0
 41 45  1  0  0  0  0
 42 47  1  0  0  0  0
 43 69  1  0  0  0  0
 44 47  1  0  0  0  0
 44 69  1  0  0  0  0
 45 74  1  0  0  0  0
 46 68  1  0  0  0  0
 47 67  1  0  0  0  0
 48 59  1  0  0  0  0
 49 60  1  0  0  0  0
 50 60  1  0  0  0  0
 51 62  1  0  0  0  0
 52 64  1  0  0  0  0
 53 64  1  0  0  0  0
 54 64  1  0  0  0  0
 55 76  1  0  0  0  0
 56 60  1  0  0  0  0
 56 61  1  0  0  0  0
 57 62  1  0  0  0  0
 57 63  1  0  0  0  0
 58 64  1  0  0  0  0
 58 75  1  0  0  0  0
 59 76  1  0  0  0  0
 61 63  1  0  0  0  0
 61 72  1  0  0  0  0
 62 84  1  0  0  0  0
 63 82  1  0  0  0  0
 65 67  1  0  0  0  0
M  CHG  1  76   1
M  ISO  4  35 100  62 101  73 100  84 101
M  END
> <Batch ID>
0187

> <Smiles>
CNC(C)C(=O)NC(C(=O)N1Cc2cc([101O:1][101CH:1](C)CC(O)C(CC(C)C)Nc3nc([100NH:0][100C:0](=O)N4CCCC(n5nc(-c6ccc(Oc7ccc(F)cc7F)cc6)c(C(N)=O)c5N)C4)sc3F)ccc2CC1C(=O)NC1CCCc2ccccc21)C(C)(C)C

> <Shape>
0.307

> <Color>
0.075

> <Negative vol penalty>
0.000

$$$$

  -OEChem-04052305123D

 86 94  0     1  0  0  0  0  0999 V2000
  -30.0875  -31.1307   25.2061 C   0  0  0  0  0  0  0  0  0  0  0  0
  -29.6697  -29.9295   24.6422 C   0  0  0  0  0  0  0  0  0  0  0  0
  -23.9534   -9.8805   22.1166 C   0  0  0  0  0  0  0  0  0  0  0  0
  -24.3949  -11.3468   23.9853 C   0  0  0  0  0  0  0  0  0  0  0  0
  -29.1441  -32.0603   25.6416 C   0  0  0  0  0  0  0  0  0  0  0  0
  -28.3082  -29.6567   24.5145 C   0  0  0  0  0  0  0  0  0  0  0  0
  -27.1283  -27.7377   19.9791 C   0  0  0  0  0  0  0  0  0  0  0  0
  -23.4792   -8.9052   22.9939 C   0  0  0  0  0  0  0  0  0  0  0  0
  -23.9207  -10.3716   24.8626 C   0  0  0  0  0  0  0  0  0  0  0  0
  -27.4111  -26.3894   19.7651 C   0  0  0  0  0  0  0  0  0  0  0  0
  -20.6458   -8.2829   24.7310 C   0  0  0  0  0  0  0  0  0  0  0  0
  -19.4590   -7.6312   24.3957 C   0  0  0  0  0  0  0  0  0  0  0  0
  -25.0993  -25.8439   20.1859 C   0  0  0  0  0  0  0  0  0  0  0  0
  -20.6260   -5.5157   24.3776 C   0  0  0  0  0  0  0  0  0  0  0  0
  -31.5265  -19.8308   21.5564 C   0  0  0  0  0  0  0  0  0  0  0  0
  -24.4113  -11.1013   22.6123 C   0  0  0  0  0  0  0  0  0  0  0  0
  -24.1561  -13.1275   21.0837 C   0  0  0  0  0  0  0  0  0  0  0  0
  -27.7703  -31.8030   25.5104 C   0  0  0  0  0  0  0  0  0  0  0  0
  -25.8289  -28.1487   20.3094 C   0  0  0  0  0  0  0  0  0  0  0  0
  -27.3455  -30.5832   24.9499 C   0  0  0  0  0  0  0  0  0  0  0  0
  -24.8021  -27.1983   20.4011 C   0  0  0  0  0  0  0  0  0  0  0  0
  -30.2142  -19.4161   21.4968 C   0  0  0  0  0  0  0  0  0  0  0  0
  -23.4628   -9.1508   24.3669 C   0  0  0  0  0  0  0  0  0  0  0  0
  -26.3972  -25.4419   19.8713 C   0  0  0  0  0  0  0  0  0  0  0  0
  -21.8227   -7.5511   24.8895 C   0  0  0  0  0  0  0  0  0  0  0  0
  -19.4491   -6.2476   24.2190 C   0  0  0  0  0  0  0  0  0  0  0  0
  -21.8127   -6.1675   24.7129 C   0  0  0  0  0  0  0  0  0  0  0  0
  -30.0681  -18.0475   21.8653 C   0  0  0  0  0  0  0  0  0  0  0  0
  -24.9018  -12.1088   21.7066 C   0  0  0  0  0  0  0  0  0  0  0  0
  -31.2745  -17.4682   22.1923 C   0  0  0  0  0  0  0  0  0  0  0  0
  -25.0759  -13.8138   20.3289 C   0  0  0  0  0  0  0  0  0  0  0  0
  -22.7572  -13.4268   21.1788 C   0  0  0  0  0  0  0  0  0  0  0  0
  -24.5006  -29.5929   22.8101 C   0  0  0  0  0  0  0  0  0  0  0  0
  -27.9708  -22.2150   20.3944 C   0  0  0  0  0  0  0  0  0  0  0  0
  -21.8674  -29.5964   20.9159 C   0  0  0  0  0  0  0  0  0  0  0  0
  -20.1764  -28.1971   18.3026 C   0  0  0  0  0  0  0  0  0  0  0  0
  -31.0061  -14.5128   20.7712 C   0  0  0  0  0  0  0  0  0  0  0  0
  -26.7879  -32.8180   26.0389 C   0  0  0  0  0  0  0  0  0  0  0  0
  -25.5346  -29.6100   20.5109 C   0  0  0  0  0  0  0  0  0  0  0  0
  -23.3862  -27.5902   20.7332 C   0  0  0  0  0  0  0  0  0  0  0  0
  -25.3651  -32.6135   25.5251 C   0  0  0  0  0  0  0  0  0  0  0  0
  -29.2062  -13.2028   17.9926 C   0  0  0  0  0  0  0  0  0  0  0  0
  -24.9652  -31.1452   25.6309 C   0  0  0  0  0  0  0  0  0  0  0  0
  -27.8316  -12.8658   18.5732 C   0  0  0  0  0  0  0  0  0  0  0  0
  -30.3251  -12.9266   18.9945 C   0  0  0  0  0  0  0  0  0  0  0  0
  -28.7795  -13.2380   20.8887 C   0  0  0  0  0  0  0  0  0  0  0  0
  -25.8776  -30.2616   24.7717 C   0  0  1  0  0  0  0  0  0  0  0  0
  -24.2830  -29.8576   21.3472 C   0  0  1  0  0  0  0  0  0  0  0  0
  -27.6144  -13.5526   19.9349 C   0  0  2  0  0  0  0  0  0  0  0  0
  -18.0322  -28.3915   17.0134 C   0  0  0  0  0  0  0  0  0  0  0  0
  -20.3694  -28.2524   23.2093 C   0  0  0  0  0  0  0  0  0  0  0  0
  -18.5773  -27.6236   21.5779 C   0  0  0  0  0  0  0  0  0  0  0  0
  -19.0744  -30.0285   22.0164 C   0  0  0  0  0  0  0  0  0  0  0  0
  -21.6105  -28.7817   15.7806 C   0  0  0  0  0  0  0  0  0  0  0  0
  -29.3175  -21.6213   20.7493 C   0  0  0  0  0  0  0  0  0  0  0  0
  -27.9856  -23.6758   19.9880 C   0  0  0  0  0  0  0  0  0  1  0  0
  -31.5423  -16.0784   22.6207 C   0  0  1  0  0  0  0  0  0  0  0  0
  -20.7177  -28.6465   20.6816 C   0  0  1  0  0  0  0  0  0  0  0  0
  -19.4896  -28.8175   17.0994 C   0  0  2  0  0  0  0  0  0  0  0  0
  -31.4812  -15.8903   24.1456 C   0  0  0  0  0  0  0  0  0  0  0  0
  -19.7117  -28.6298   21.8669 C   0  0  0  0  0  0  0  0  0  0  0  0
  -26.1955  -12.1412   21.3762 N   0  0  0  0  0  0  0  0  0  0  0  0
  -26.2700  -13.1885   20.5373 N   0  0  0  0  0  0  0  0  0  0  0  0
  -23.1500  -29.0303   20.9275 N   0  0  0  0  0  0  0  0  0  0  0  0
  -30.0592  -13.6078   20.2638 N   0  0  0  0  0  0  0  0  0  0  0  0
  -24.9717  -14.8849   19.5140 N   0  0  0  0  0  0  0  0  0  0  0  0
  -21.9559  -12.6212   21.9993 N   0  0  0  0  0  0  0  0  0  0  0  0
  -29.1616  -20.2383   21.1210 N   0  0  0  0  0  0  0  0  0  0  0  0
  -25.5042  -30.3554   23.3766 N   0  0  0  0  0  0  0  0  0  0  0  0
  -20.1279  -29.0271   19.4026 N   0  0  0  0  0  0  0  0  0  0  0  0
  -30.6729  -15.1195   21.9761 N   0  0  0  0  0  0  0  0  0  0  0  0
  -20.1748  -28.4049   15.8419 N   0  3  0  0  0  0  0  0  0  0  0  0
  -22.2302  -14.3703   20.5418 O   0  0  0  0  0  0  0  0  0  0  0  0
  -23.8083  -28.7597   23.3829 O   0  0  0  0  0  0  0  0  0  0  0  0
  -26.9268  -21.5649   20.4300 O   0  0  0  0  0  0  0  0  0  0  0  0
  -21.6364  -30.7976   21.0754 O   0  0  0  0  0  0  0  0  0  0  0  0
  -20.7000  -27.0856   18.2710 O   0  0  0  0  0  0  0  0  0  0  0  0
  -32.0672  -14.7657   20.1907 O   0  0  0  0  0  0  0  0  0  0  0  0
  -22.9999   -8.1995   25.2232 O   0  0  0  0  0  0  0  0  0  0  0  0
  -26.6706  -24.1251   19.6636 O   0  0  0  0  0  0  0  0  0  1  0  0
  -18.3091   -5.6216   23.8985 F   0  0  0  0  0  0  0  0  0  0  0  0
  -22.9399   -5.4589   24.8650 F   0  0  0  0  0  0  0  0  0  0  0  0
  -28.9003  -17.4007   21.8900 F   0  0  0  0  0  0  0  0  0  0  0  0
  -31.7159  -14.5945   24.4778 F   0  0  0  0  0  0  0  0  0  0  0  0
  -30.2441  -16.1913   24.6123 F   0  0  0  0  0  0  0  0  0  0  0  0
  -32.5758  -18.5727   22.0549 S   0  0  0  0  0  0  0  0  0  0  0  0
  1  2  1  0  0  0  0
  1  5  2  0  0  0  0
  2  6  2  0  0  0  0
  3  8  2  0  0  0  0
  3 16  1  0  0  0  0
  4  9  1  0  0  0  0
  4 16  2  0  0  0  0
  5 18  1  0  0  0  0
  6 20  1  0  0  0  0
  7 10  2  0  0  0  0
  7 19  1  0  0  0  0
  8 23  1  0  0  0  0
  9 23  2  0  0  0  0
 10 24  1  0  0  0  0
 11 12  2  0  0  0  0
 11 25  1  0  0  0  0
 12 26  1  0  0  0  0
 13 21  1  0  0  0  0
 13 24  2  0  0  0  0
 14 26  2  0  0  0  0
 14 27  1  0  0  0  0
 15 22  2  0  0  0  0
 15 86  1  0  0  0  0
 16 29  1  0  0  0  0
 17 29  1  0  0  0  0
 17 31  2  0  0  0  0
 17 32  1  0  0  0  0
 18 20  2  0  0  0  0
 18 38  1  0  0  0  0
 19 21  2  0  0  0  0
 19 39  1  0  0  0  0
 20 47  1  0  0  0  0
 21 40  1  0  0  0  0
 22 28  1  0  0  0  0
 22 68  1  0  0  0  0
 23 79  1  0  0  0  0
 24 80  1  0  0  0  0
 25 27  2  0  0  0  0
 25 79  1  0  0  0  0
 26 81  1  0  0  0  0
 27 82  1  0  0  0  0
 28 30  2  0  0  0  0
 28 83  1  0  0  0  0
 29 62  2  0  0  0  0
 30 57  1  0  0  0  0
 30 86  1  0  0  0  0
 31 63  1  0  0  0  0
 31 66  1  0  0  0  0
 32 67  1  0  0  0  0
 32 73  2  0  0  0  0
 33 48  1  0  0  0  0
 33 69  1  0  0  0  0
 33 74  2  0  0  0  0
 34 55  1  0  0  0  0
 34 56  1  0  0  0  0
 34 75  2  0  0  0  0
 35 58  1  0  0  0  0
 35 64  1  0  0  0  0
 35 76  2  0  0  0  0
 36 59  1  0  0  0  0
 36 70  1  0  0  0  0
 36 77  2  0  0  0  0
 37 65  1  0  0  0  0
 37 71  1  0  0  0  0
 37 78  2  0  0  0  0
 38 41  1  0  0  0  0
 39 48  1  0  0  0  0
 40 64  1  0  0  0  0
 41 43  1  0  0  0  0
 42 44  1  0  0  0  0
 42 45  1  0  0  0  0
 43 47  1  0  0  0  0
 44 49  1  0  0  0  0
 45 65  1  0  0  0  0
 46 49  1  0  0  0  0
 46 65  1  0  0  0  0
 47 69  1  0  0  0  0
 48 64  1  0  0  0  0
 49 63  1  0  0  0  0
 50 59  1  0  0  0  0
 51 61  1  0  0  0  0
 52 61  1  0  0  0  0
 53 61  1  0  0  0  0
 54 72  1  0  0  0  0
 55 68  1  0  0  0  0
 56 80  1  0  0  0  0
 57 60  1  0  0  0  0
 57 71  1  0  0  0  0
 58 61  1  0  0  0  0
 58 70  1  0  0  0  0
 59 72  1  0  0  0  0
 60 84  1  0  0  0  0
 60 85  1  0  0  0  0
 62 63  1  0  0  0  0
M  CHG  1  72   1
M  ISO  4  37 100  56 101  71 100  80 101
M  END
> <Batch ID>
0187

> <Smiles>
CNC(C)C(=O)NC(C(=O)N1Cc2cc([101O:1][101CH2:1]C(=O)CNc3csc(C([100NH:0][100C:0](=O)N4CCCC(n5nc(-c6ccc(Oc7ccc(F)cc7F)cc6)c(C(N)=O)c5N)C4)C(F)F)c3F)ccc2CC1C(=O)NC1CCCc2ccccc21)C(C)(C)C

> <Shape>
0.334

> <Color>
0.134

> <Negative vol penalty>
0.000

$$$$

  -OEChem-04052305123D

 86 94  0     1  0  0  0  0  0999 V2000
  -30.5924  -22.3110   25.2699 C   0  0  0  0  0  0  0  0  0  0  0  0
  -30.5310  -22.2083   23.8839 C   0  0  0  0  0  0  0  0  0  0  0  0
  -23.0576   -9.8422   20.0217 C   0  0  0  0  0  0  0  0  0  0  0  0
  -23.7131  -10.0227   22.3400 C   0  0  0  0  0  0  0  0  0  0  0  0
  -30.0123  -23.4036   25.9132 C   0  0  0  0  0  0  0  0  0  0  0  0
  -29.8885  -23.1977   23.1404 C   0  0  0  0  0  0  0  0  0  0  0  0
  -32.5400  -24.5881   19.0560 C   0  0  0  0  0  0  0  0  0  0  0  0
  -22.3069   -8.7057   20.3224 C   0  0  0  0  0  0  0  0  0  0  0  0
  -22.9623   -8.8862   22.6408 C   0  0  0  0  0  0  0  0  0  0  0  0
  -32.4977  -23.7398   17.9504 C   0  0  0  0  0  0  0  0  0  0  0  0
  -23.2887   -5.5342   22.3435 C   0  0  0  0  0  0  0  0  0  0  0  0
  -23.8744   -4.5685   23.1619 C   0  0  0  0  0  0  0  0  0  0  0  0
  -30.8579  -25.1768   16.9182 C   0  0  0  0  0  0  0  0  0  0  0  0
  -22.0970   -4.8560   24.7731 C   0  0  0  0  0  0  0  0  0  0  0  0
  -23.7608  -10.5006   21.0305 C   0  0  0  0  0  0  0  0  0  0  0  0
  -24.0997  -13.0123   20.7400 C   0  0  0  0  0  0  0  0  0  0  0  0
  -29.3708  -24.4117   25.1765 C   0  0  0  0  0  0  0  0  0  0  0  0
  -31.7321  -25.7332   19.1059 C   0  0  0  0  0  0  0  0  0  0  0  0
  -29.2982  -24.3041   23.7745 C   0  0  0  0  0  0  0  0  0  0  0  0
  -30.8937  -26.0393   18.0245 C   0  0  0  0  0  0  0  0  0  0  0  0
  -22.2592   -8.2277   21.6319 C   0  0  0  0  0  0  0  0  0  0  0  0
  -31.6545  -24.0326   16.8825 C   0  0  0  0  0  0  0  0  0  0  0  0
  -22.1072   -6.1609   22.7398 C   0  0  0  0  0  0  0  0  0  0  0  0
  -23.2785   -4.2293   24.3767 C   0  0  0  0  0  0  0  0  0  0  0  0
  -21.5114   -5.8218   23.9546 C   0  0  0  0  0  0  0  0  0  0  0  0
  -24.5370  -11.6743   20.7204 C   0  0  0  0  0  0  0  0  0  0  0  0
  -29.4278  -18.8347   20.4144 C   0  0  0  0  0  0  0  0  0  0  0  0
  -30.5207  -18.0646   20.7529 C   0  0  0  0  0  0  0  0  0  0  0  0
  -25.2047  -13.7401   20.3718 C   0  0  0  0  0  0  0  0  0  0  0  0
  -30.8427  -19.5961   18.9217 C   0  0  0  0  0  0  0  0  0  0  0  0
  -22.8099  -13.5493   21.0624 C   0  0  0  0  0  0  0  0  0  0  0  0
  -29.3916  -26.7462   21.0032 C   0  0  0  0  0  0  0  0  0  0  0  0
  -29.6519  -29.4500   19.2301 C   0  0  0  0  0  0  0  0  0  0  0  0
  -30.5998  -30.9095   16.2944 C   0  0  0  0  0  0  0  0  0  0  0  0
  -30.8768  -21.2834   17.0533 C   0  0  0  0  0  0  0  0  0  0  0  0
  -30.6711  -14.8058   20.7301 C   0  0  0  0  0  0  0  0  0  0  0  0
  -28.7173  -25.5498   25.9196 C   0  0  0  0  0  0  0  0  0  0  0  0
  -31.8091  -26.6523   20.2941 C   0  0  0  0  0  0  0  0  0  0  0  0
  -30.0214  -27.2672   18.0202 C   0  0  0  0  0  0  0  0  0  0  0  0
  -28.3818  -26.7447   25.0308 C   0  0  0  0  0  0  0  0  0  0  0  0
  -29.6501  -12.2450   18.4770 C   0  0  0  0  0  0  0  0  0  0  0  0
  -27.7046  -26.2803   23.7453 C   0  0  0  0  0  0  0  0  0  0  0  0
  -28.1955  -11.9745   18.8656 C   0  0  0  0  0  0  0  0  0  0  0  0
  -30.5113  -12.5594   19.6982 C   0  0  0  0  0  0  0  0  0  0  0  0
  -28.5466  -13.3781   20.9405 C   0  0  0  0  0  0  0  0  0  0  0  0
  -28.6317  -25.3695   22.9314 C   0  0  1  0  0  0  0  0  0  0  0  0
  -30.5632  -27.5163   20.4629 C   0  0  1  0  0  0  0  0  0  0  0  0
  -27.6271  -13.1111   19.7365 C   0  0  2  0  0  0  0  0  0  0  0  0
  -30.6536  -33.1293   15.1253 C   0  0  0  0  0  0  0  0  0  0  0  0
  -31.7917  -21.0687   14.7131 C   0  0  0  0  0  0  0  0  0  0  0  0
  -26.6554  -29.2382   18.6951 C   0  0  0  0  0  0  0  0  0  0  0  0
  -26.9471  -30.8633   16.8131 C   0  0  0  0  0  0  0  0  0  0  0  0
  -27.4723  -31.5575   19.1508 C   0  0  0  0  0  0  0  0  0  0  0  0
  -33.5512  -30.8560   16.0805 C   0  0  0  0  0  0  0  0  0  0  0  0
  -30.6742  -17.0419   21.8067 C   0  0  0  0  0  0  0  0  0  0  0  0
  -29.0221  -29.9573   17.9553 C   0  0  1  0  0  0  0  0  0  0  0  0
  -31.4189  -32.1548   16.0070 C   0  0  2  0  0  0  0  0  0  0  0  0
  -31.8751  -21.8226   16.0321 C   0  0  1  0  0  0  0  0  0  1  0  0
  -28.1034  -18.7997   21.0677 C   0  0  0  0  0  0  0  0  0  0  0  0
  -27.5391  -30.3798   18.1542 C   0  0  0  0  0  0  0  0  0  0  0  0
  -25.8197  -11.5562   20.3674 N   0  0  0  0  0  0  0  0  0  0  0  0
  -29.6107  -19.7138   19.3649 N   0  0  0  0  0  0  0  0  0  0  0  0
  -26.1980  -12.8293   20.1618 N   0  0  0  0  0  0  0  0  0  0  0  0
  -30.1275  -28.1313   19.2074 N   0  0  0  0  0  0  0  0  0  0  0  0
  -29.9180  -13.6467   20.4804 N   0  0  0  0  0  0  0  0  0  0  0  0
  -25.4140  -15.0639   20.2103 N   0  0  0  0  0  0  0  0  0  0  0  0
  -21.7867  -12.6608   21.4201 N   0  0  0  0  0  0  0  0  0  0  0  0
  -31.4513  -20.3061   17.8594 N   0  0  0  0  0  0  0  0  0  0  0  0
  -29.6244  -26.1554   22.2304 N   0  0  0  0  0  0  0  0  0  0  0  0
  -29.8880  -31.0263   17.4695 N   0  0  0  0  0  0  0  0  0  0  0  0
  -30.0316  -15.7901   21.4736 N   0  0  0  0  0  0  0  0  0  0  0  0
  -32.6880  -31.7919   15.3151 N   0  3  0  0  0  0  0  0  0  0  0  0
  -22.5674  -14.7792   21.0182 O   0  0  0  0  0  0  0  0  0  0  0  0
  -28.3527  -26.6933   20.3553 O   0  0  0  0  0  0  0  0  0  0  0  0
  -29.7256  -30.1987   20.2076 O   0  0  0  0  0  0  0  0  0  0  0  0
  -30.5894  -29.9324   15.5489 O   0  0  0  0  0  0  0  0  0  0  0  0
  -29.7294  -21.7160   17.1114 O   0  0  0  0  0  0  0  0  0  0  0  0
  -31.8258  -14.9548   20.3161 O   0  0  0  0  0  0  0  0  0  0  0  0
  -21.5265   -7.1190   21.9258 O   0  0  0  0  0  0  0  0  0  0  0  0
  -31.6108  -23.2060   15.8024 O   0  0  0  0  0  0  0  0  0  1  0  0
  -23.8403   -3.3008   25.1619 F   0  0  0  0  0  0  0  0  0  0  0  0
  -20.3757   -6.4196   24.3401 F   0  0  0  0  0  0  0  0  0  0  0  0
  -28.0094  -17.9002   22.0992 F   0  0  0  0  0  0  0  0  0  0  0  0
  -27.7180  -19.9951   21.6190 F   0  0  0  0  0  0  0  0  0  0  0  0
  -27.0883  -18.4621   20.2112 F   0  0  0  0  0  0  0  0  0  0  0  0
  -31.8358  -18.4469   19.7205 S   0  0  0  0  0  0  0  0  0  0  0  0
  1  2  1  0  0  0  0
  1  5  2  0  0  0  0
  2  6  2  0  0  0  0
  3  8  2  0  0  0  0
  3 15  1  0  0  0  0
  4  9  1  0  0  0  0
  4 15  2  0  0  0  0
  5 17  1  0  0  0  0
  6 19  1  0  0  0  0
  7 10  2  0  0  0  0
  7 18  1  0  0  0  0
  8 21  1  0  0  0  0
  9 21  2  0  0  0  0
 10 22  1  0  0  0  0
 11 12  2  0  0  0  0
 11 23  1  0  0  0  0
 12 24  1  0  0  0  0
 13 20  1  0  0  0  0
 13 22  2  0  0  0  0
 14 24  2  0  0  0  0
 14 25  1  0  0  0  0
 15 26  1  0  0  0  0
 16 26  1  0  0  0  0
 16 29  2  0  0  0  0
 16 31  1  0  0  0  0
 17 19  2  0  0  0  0
 17 37  1  0  0  0  0
 18 20  2  0  0  0  0
 18 38  1  0  0  0  0
 19 46  1  0  0  0  0
 20 39  1  0  0  0  0
 21 79  1  0  0  0  0
 22 80  1  0  0  0  0
 23 25  2  0  0  0  0
 23 79  1  0  0  0  0
 24 81  1  0  0  0  0
 25 82  1  0  0  0  0
 26 61  2  0  0  0  0
 27 28  2  0  0  0  0
 27 59  1  0  0  0  0
 27 62  1  0  0  0  0
 28 55  1  0  0  0  0
 28 86  1  0  0  0  0
 29 63  1  0  0  0  0
 29 66  1  0  0  0  0
 30 62  2  0  0  0  0
 30 68  1  0  0  0  0
 30 86  1  0  0  0  0
 31 67  1  0  0  0  0
 31 73  2  0  0  0  0
 32 47  1  0  0  0  0
 32 69  1  0  0  0  0
 32 74  2  0  0  0  0
 33 56  1  0  0  0  0
 33 64  1  0  0  0  0
 33 75  2  0  0  0  0
 34 57  1  0  0  0  0
 34 70  1  0  0  0  0
 34 76  2  0  0  0  0
 35 58  1  0  0  0  0
 35 68  1  0  0  0  0
 35 77  2  0  0  0  0
 36 65  1  0  0  0  0
 36 71  1  0  0  0  0
 36 78  2  0  0  0  0
 37 40  1  0  0  0  0
 38 47  1  0  0  0  0
 39 64  1  0  0  0  0
 40 42  1  0  0  0  0
 41 43  1  0  0  0  0
 41 44  1  0  0  0  0
 42 46  1  0  0  0  0
 43 48  1  0  0  0  0
 44 65  1  0  0  0  0
 45 48  1  0  0  0  0
 45 65  1  0  0  0  0
 46 69  1  0  0  0  0
 47 64  1  0  0  0  0
 48 63  1  0  0  0  0
 49 57  1  0  0  0  0
 50 58  1  0  0  0  0
 51 60  1  0  0  0  0
 52 60  1  0  0  0  0
 53 60  1  0  0  0  0
 54 72  1  0  0  0  0
 55 71  1  0  0  0  0
 56 60  1  0  0  0  0
 56 70  1  0  0  0  0
 57 72  1  0  0  0  0
 58 80  1  0  0  0  0
 59 83  1  0  0  0  0
 59 84  1  0  0  0  0
 59 85  1  0  0  0  0
 61 63  1  0  0  0  0
M  CHG  1  72   1
M  ISO  4  36 100  58 101  71 100  80 101
M  END
> <Batch ID>
0187

> <Smiles>
CNC(C)C(=O)NC(C(=O)N1Cc2cc([101O:1][101CH:1](C)C(=O)Nc3nc(C(F)(F)F)c(C[100NH:0][100C:0](=O)N4CCCC(n5nc(-c6ccc(Oc7ccc(F)cc7F)cc6)c(C(N)=O)c5N)C4)s3)ccc2CC1C(=O)NC1CCCc2ccccc21)C(C)(C)C

> <Shape>
0.262

> <Color>
0.223

> <Negative vol penalty>
0.000

$$$$

  -OEChem-04052305123D

 90 98  0     1  0  0  0  0  0999 V2000
  -29.0203  -33.6735   23.6312 C   0  0  0  0  0  0  0  0  0  0  0  0
  -28.8857  -32.4115   23.0615 C   0  0  0  0  0  0  0  0  0  0  0  0
  -22.9355  -10.0880   19.9016 C   0  0  0  0  0  0  0  0  0  0  0  0
  -23.9997   -9.5524   22.0035 C   0  0  0  0  0  0  0  0  0  0  0  0
  -27.9957  -34.1935   24.4209 C   0  0  0  0  0  0  0  0  0  0  0  0
  -27.7267  -31.6682   23.2821 C   0  0  0  0  0  0  0  0  0  0  0  0
  -25.9585  -29.5242   19.0486 C   0  0  0  0  0  0  0  0  0  0  0  0
  -22.1866   -8.9140   19.9816 C   0  0  0  0  0  0  0  0  0  0  0  0
  -23.2507   -8.3784   22.0835 C   0  0  0  0  0  0  0  0  0  0  0  0
  -26.6035  -28.3721   18.6010 C   0  0  0  0  0  0  0  0  0  0  0  0
  -20.1049   -7.4861   22.9366 C   0  0  0  0  0  0  0  0  0  0  0  0
  -19.5131   -7.1790   24.1618 C   0  0  0  0  0  0  0  0  0  0  0  0
  -24.8559  -27.0232   19.5734 C   0  0  0  0  0  0  0  0  0  0  0  0
  -20.7638   -5.1137   24.2482 C   0  0  0  0  0  0  0  0  0  0  0  0
  -23.8421  -10.4072   20.9125 C   0  0  0  0  0  0  0  0  0  0  0  0
  -24.2661  -12.8877   21.3309 C   0  0  0  0  0  0  0  0  0  0  0  0
  -26.8195  -33.4602   24.6434 C   0  0  0  0  0  0  0  0  0  0  0  0
  -24.7610  -29.4338   19.7726 C   0  0  0  0  0  0  0  0  0  0  0  0
  -26.6859  -32.1783   24.0766 C   0  0  0  0  0  0  0  0  0  0  0  0
  -24.1963  -28.1758   20.0268 C   0  0  0  0  0  0  0  0  0  0  0  0
  -22.3441   -8.0592   21.0726 C   0  0  0  0  0  0  0  0  0  0  0  0
  -26.0538  -27.1212   18.8659 C   0  0  0  0  0  0  0  0  0  0  0  0
  -21.0261   -6.6070   22.3672 C   0  0  0  0  0  0  0  0  0  0  0  0
  -19.8426   -5.9928   24.8176 C   0  0  0  0  0  0  0  0  0  0  0  0
  -21.3556   -5.4208   23.0230 C   0  0  0  0  0  0  0  0  0  0  0  0
  -24.6165  -11.6195   20.8301 C   0  0  0  0  0  0  0  0  0  0  0  0
  -31.6005  -18.4871   20.8542 C   0  0  0  0  0  0  0  0  0  0  0  0
  -30.8225  -17.6822   21.6597 C   0  0  0  0  0  0  0  0  0  0  0  0
  -25.3281  -13.6931   20.9994 C   0  0  0  0  0  0  0  0  0  0  0  0
  -29.7669  -19.6904   20.8501 C   0  0  0  0  0  0  0  0  0  0  0  0
  -23.0862  -13.3007   22.0330 C   0  0  0  0  0  0  0  0  0  0  0  0
  -23.8418  -30.2624   22.7005 C   0  0  0  0  0  0  0  0  0  0  0  0
  -20.9231  -29.3459   21.6221 C   0  0  0  0  0  0  0  0  0  0  0  0
  -28.9390  -21.8512   19.8557 C   0  0  0  0  0  0  0  0  0  0  0  0
  -19.1031  -27.4721   19.4258 C   0  0  0  0  0  0  0  0  0  0  0  0
  -30.8232  -14.5986   20.6393 C   0  0  0  0  0  0  0  0  0  0  0  0
  -25.7591  -34.0442   25.5430 C   0  0  0  0  0  0  0  0  0  0  0  0
  -24.0636  -30.6873   20.2253 C   0  0  0  0  0  0  0  0  0  0  0  0
  -22.9021  -28.0254   20.7824 C   0  0  0  0  0  0  0  0  0  0  0  0
  -24.4059  -33.3485   25.4208 C   0  0  0  0  0  0  0  0  0  0  0  0
  -29.2764  -12.8473   17.9528 C   0  0  0  0  0  0  0  0  0  0  0  0
  -24.5798  -31.8333   25.4518 C   0  0  0  0  0  0  0  0  0  0  0  0
  -27.9005  -12.4713   18.5053 C   0  0  0  0  0  0  0  0  0  0  0  0
  -30.3564  -12.7741   19.0299 C   0  0  0  0  0  0  0  0  0  0  0  0
  -28.6919  -13.1747   20.8026 C   0  0  0  0  0  0  0  0  0  0  0  0
  -25.4334  -31.3518   24.2724 C   0  0  1  0  0  0  0  0  0  0  0  0
  -23.1167  -30.4538   21.3985 C   0  0  1  0  0  0  0  0  0  0  0  0
  -27.5604  -13.2879   19.7666 C   0  0  2  0  0  0  0  0  0  0  0  0
  -32.9984  -18.2261   20.4546 C   0  0  0  0  0  0  0  0  0  0  0  0
  -33.4420  -17.2077   24.4155 C   0  0  0  0  0  0  0  0  0  0  0  0
  -16.7378  -26.9005   18.8126 C   0  0  0  0  0  0  0  0  0  0  0  0
  -20.7366  -27.5163   24.0568 C   0  0  0  0  0  0  0  0  0  0  0  0
  -18.8612  -26.3093   22.9191 C   0  0  0  0  0  0  0  0  0  0  0  0
  -18.6201  -28.7244   23.4951 C   0  0  0  0  0  0  0  0  0  0  0  0
  -31.3358  -14.9630   24.4665 C   0  0  0  0  0  0  0  0  0  0  0  0
  -19.4214  -28.5741   16.6976 C   0  0  0  0  0  0  0  0  0  0  0  0
  -27.6516  -22.6656   19.8768 C   0  0  0  0  0  0  0  0  0  0  0  0
  -31.9432  -17.4160   24.5775 C   0  0  0  0  0  0  0  0  0  0  0  0
  -26.5121  -24.8135   19.2127 C   0  0  0  0  0  0  0  0  0  1  0  0
  -31.1433  -16.3994   22.3167 C   0  0  1  0  0  0  0  0  0  0  0  0
  -20.1505  -28.0491   21.5994 C   0  0  1  0  0  0  0  0  0  0  0  0
  -17.9175  -27.8219   18.5446 C   0  0  2  0  0  0  0  0  0  0  0  0
  -27.7663  -23.9637   19.0870 C   0  0  1  0  0  0  0  0  0  0  0  0
  -19.6175  -27.6522   23.0050 C   0  0  0  0  0  0  0  0  0  0  0  0
  -31.0398  -16.3612   23.8945 C   0  0  1  0  0  0  0  0  0  0  0  0
  -25.8078  -11.6147   20.2263 N   0  0  0  0  0  0  0  0  0  0  0  0
  -30.9968  -19.6389   20.3887 N   0  0  0  0  0  0  0  0  0  0  0  0
  -26.2153  -12.8898   20.3454 N   0  0  0  0  0  0  0  0  0  0  0  0
  -22.2615  -29.2803   21.2096 N   0  0  0  0  0  0  0  0  0  0  0  0
  -29.9734  -13.5709   20.1980 N   0  0  0  0  0  0  0  0  0  0  0  0
  -25.5802  -15.0031   21.2063 N   0  0  0  0  0  0  0  0  0  0  0  0
  -22.0937  -12.3455   22.2913 N   0  0  0  0  0  0  0  0  0  0  0  0
  -28.7985  -20.6966   20.6207 N   0  0  0  0  0  0  0  0  0  0  0  0
  -24.6480  -31.3265   23.0571 N   0  0  0  0  0  0  0  0  0  0  0  0
  -19.1100  -28.2114   20.5897 N   0  0  0  0  0  0  0  0  0  0  0  0
  -30.3820  -15.3090   21.7489 N   0  0  0  0  0  0  0  0  0  0  0  0
  -18.2887  -27.7039   17.1061 N   0  3  0  0  0  0  0  0  0  0  0  0
  -22.9098  -14.4855   22.4054 O   0  0  0  0  0  0  0  0  0  0  0  0
  -23.6806  -29.2267   23.3353 O   0  0  0  0  0  0  0  0  0  0  0  0
  -20.3577  -30.3803   21.9854 O   0  0  0  0  0  0  0  0  0  0  0  0
  -29.9313  -22.2161   19.2339 O   0  0  0  0  0  0  0  0  0  0  0  0
  -19.9373  -26.6249   19.1147 O   0  0  0  0  0  0  0  0  0  0  0  0
  -31.8931  -14.8667   20.0822 O   0  0  0  0  0  0  0  0  0  0  0  0
  -29.6967  -16.6840   24.2836 O   0  0  0  0  0  0  0  0  0  0  0  0
  -21.6133   -6.9137   21.1511 O   0  0  0  0  0  0  0  0  0  0  0  0
  -26.6817  -25.9951   18.4307 O   0  0  0  0  0  0  0  0  0  1  0  0
  -19.2754   -5.6987   25.9949 F   0  0  0  0  0  0  0  0  0  0  0  0
  -22.2408   -4.5729   22.4815 F   0  0  0  0  0  0  0  0  0  0  0  0
  -28.8054  -24.6826   19.6062 F   0  0  0  0  0  0  0  0  0  0  0  0
  -29.2707  -18.3872   21.8503 S   0  0  0  0  0  0  0  0  0  0  0  0
  1  2  1  0  0  0  0
  1  5  2  0  0  0  0
  2  6  2  0  0  0  0
  3  8  2  0  0  0  0
  3 15  1  0  0  0  0
  4  9  1  0  0  0  0
  4 15  2  0  0  0  0
  5 17  1  0  0  0  0
  6 19  1  0  0  0  0
  7 10  2  0  0  0  0
  7 18  1  0  0  0  0
  8 21  1  0  0  0  0
  9 21  2  0  0  0  0
 10 22  1  0  0  0  0
 11 12  2  0  0  0  0
 11 23  1  0  0  0  0
 12 24  1  0  0  0  0
 13 20  1  0  0  0  0
 13 22  2  0  0  0  0
 14 24  2  0  0  0  0
 14 25  1  0  0  0  0
 15 26  1  0  0  0  0
 16 26  1  0  0  0  0
 16 29  2  0  0  0  0
 16 31  1  0  0  0  0
 17 19  2  0  0  0  0
 17 37  1  0  0  0  0
 18 20  2  0  0  0  0
 18 38  1  0  0  0  0
 19 46  1  0  0  0  0
 20 39  1  0  0  0  0
 21 85  1  0  0  0  0
 22 86  1  0  0  0  0
 23 25  2  0  0  0  0
 23 85  1  0  0  0  0
 24 87  1  0  0  0  0
 25 88  1  0  0  0  0
 26 66  2  0  0  0  0
 27 28  2  0  0  0  0
 27 49  1  0  0  0  0
 27 67  1  0  0  0  0
 28 60  1  0  0  0  0
 28 90  1  0  0  0  0
 29 68  1  0  0  0  0
 29 71  1  0  0  0  0
 30 67  2  0  0  0  0
 30 73  1  0  0  0  0
 30 90  1  0  0  0  0
 31 72  1  0  0  0  0
 31 78  2  0  0  0  0
 32 47  1  0  0  0  0
 32 74  1  0  0  0  0
 32 79  2  0  0  0  0
 33 61  1  0  0  0  0
 33 69  1  0  0  0  0
 33 80  2  0  0  0  0
 34 57  1  0  0  0  0
 34 73  1  0  0  0  0
 34 81  2  0  0  0  0
 35 62  1  0  0  0  0
 35 75  1  0  0  0  0
 35 82  2  0  0  0  0
 36 70  1  0  0  0  0
 36 76  1  0  0  0  0
 36 83  2  0  0  0  0
 37 40  1  0  0  0  0
 38 47  1  0  0  0  0
 39 69  1  0  0  0  0
 40 42  1  0  0  0  0
 41 43  1  0  0  0  0
 41 44  1  0  0  0  0
 42 46  1  0  0  0  0
 43 48  1  0  0  0  0
 44 70  1  0  0  0  0
 45 48  1  0  0  0  0
 45 70  1  0  0  0  0
 46 74  1  0  0  0  0
 47 69  1  0  0  0  0
 48 68  1  0  0  0  0
 50 58  1  0  0  0  0
 51 62  1  0  0  0  0
 52 64  1  0  0  0  0
 53 64  1  0  0  0  0
 54 64  1  0  0  0  0
 55 65  1  0  0  0  0
 56 77  1  0  0  0  0
 57 63  1  0  0  0  0
 58 65  1  0  0  0  0
 59 63  1  0  0  0  0
 59 86  1  0  0  0  0
 60 65  1  0  0  0  0
 60 76  1  0  0  0  0
 61 64  1  0  0  0  0
 61 75  1  0  0  0  0
 62 77  1  0  0  0  0
 63 89  1  0  0  0  0
 65 84  1  0  0  0  0
 66 68  1  0  0  0  0
M  CHG  1  77   1
M  ISO  4  36 100  59 101  76 100  86 101
M  END
> <Batch ID>
0187

> <Smiles>
CCC(C)(O)C([100NH:0][100C:0](=O)N1CCCC(n2nc(-c3ccc(Oc4ccc(F)cc4F)cc3)c(C(N)=O)c2N)C1)c1sc(NC(=O)CC(F)[101CH2:1][101O:1]c2ccc3c(c2)CN(C(=O)C(NC(=O)C(C)NC)C(C)(C)C)C(C(=O)NC2CCCc4ccccc42)C3)nc1C

> <Shape>
0.407

> <Color>
0.174

> <Negative vol penalty>
0.000

$$$$

  -OEChem-04052305123D

 80 88  0     1  0  0  0  0  0999 V2000
  -30.0505  -20.8082   16.1929 C   0  0  0  0  0  0  0  0  0  0  0  0
  -29.7127  -20.9520   17.5348 C   0  0  0  0  0  0  0  0  0  0  0  0
  -24.7800  -14.4484   19.8543 C   0  0  0  0  0  0  0  0  0  0  0  0
  -23.5031  -15.6151   21.5412 C   0  0  0  0  0  0  0  0  0  0  0  0
  -30.2609  -21.9378   15.4033 C   0  0  0  0  0  0  0  0  0  0  0  0
  -29.5862  -22.2257   18.0881 C   0  0  0  0  0  0  0  0  0  0  0  0
  -25.4629  -22.6814   20.9925 C   0  0  0  0  0  0  0  0  0  0  0  0
  -23.9453  -13.3391   19.9898 C   0  0  0  0  0  0  0  0  0  0  0  0
  -22.6684  -14.5058   21.6766 C   0  0  0  0  0  0  0  0  0  0  0  0
  -25.5243  -22.1382   22.2751 C   0  0  0  0  0  0  0  0  0  0  0  0
  -23.5685  -10.7528   22.1331 C   0  0  0  0  0  0  0  0  0  0  0  0
  -24.1690   -9.4960   22.2067 C   0  0  0  0  0  0  0  0  0  0  0  0
  -25.9505  -24.3341   23.1781 C   0  0  0  0  0  0  0  0  0  0  0  0
  -22.9713   -8.8078   20.2245 C   0  0  0  0  0  0  0  0  0  0  0  0
  -27.3974  -21.8848   27.7946 C   0  0  0  0  0  0  0  0  0  0  0  0
  -24.5589  -15.5864   20.6301 C   0  0  0  0  0  0  0  0  0  0  0  0
  -25.2546  -17.8200   19.6129 C   0  0  0  0  0  0  0  0  0  0  0  0
  -30.1274  -23.2261   15.9448 C   0  0  0  0  0  0  0  0  0  0  0  0
  -25.6560  -24.0557   20.7916 C   0  0  0  0  0  0  0  0  0  0  0  0
  -29.7963  -23.3737   17.3053 C   0  0  0  0  0  0  0  0  0  0  0  0
  -25.8885  -24.8927   21.8923 C   0  0  0  0  0  0  0  0  0  0  0  0
  -22.8895  -13.3678   20.9009 C   0  0  0  0  0  0  0  0  0  0  0  0
  -25.7710  -22.9642   23.3678 C   0  0  0  0  0  0  0  0  0  0  0  0
  -22.6694  -11.0371   21.1052 C   0  0  0  0  0  0  0  0  0  0  0  0
  -23.8705   -8.5235   21.2524 C   0  0  0  0  0  0  0  0  0  0  0  0
  -22.3708  -10.0646   20.1509 C   0  0  0  0  0  0  0  0  0  0  0  0
  -25.4212  -16.7324   20.4910 C   0  0  0  0  0  0  0  0  0  0  0  0
  -26.3315  -18.6340   19.8663 C   0  0  0  0  0  0  0  0  0  0  0  0
  -28.4223  -20.6990   26.2938 C   0  0  0  0  0  0  0  0  0  0  0  0
  -24.2189  -18.0721   18.6540 C   0  0  0  0  0  0  0  0  0  0  0  0
  -27.7767  -25.8148   19.2066 C   0  0  0  0  0  0  0  0  0  0  0  0
  -25.8146  -28.2514   20.0642 C   0  0  0  0  0  0  0  0  0  0  0  0
  -23.4553  -29.4501   22.2191 C   0  0  0  0  0  0  0  0  0  0  0  0
  -29.8278  -19.4073   24.6499 C   0  0  0  0  0  0  0  0  0  0  0  0
  -30.4110  -24.4169   15.0637 C   0  0  0  0  0  0  0  0  0  0  0  0
  -25.5601  -24.6301   19.4047 C   0  0  0  0  0  0  0  0  0  0  0  0
  -26.0825  -26.3777   21.7323 C   0  0  0  0  0  0  0  0  0  0  0  0
  -29.8902  -25.7339   15.6334 C   0  0  0  0  0  0  0  0  0  0  0  0
  -30.8732  -18.4738   21.3768 C   0  0  0  0  0  0  0  0  0  0  0  0
  -30.2613  -25.8617   17.1074 C   0  0  0  0  0  0  0  0  0  0  0  0
  -29.5776  -18.0261   20.6964 C   0  0  0  0  0  0  0  0  0  0  0  0
  -30.9067  -18.0749   22.8511 C   0  0  0  0  0  0  0  0  0  0  0  0
  -28.4454  -18.0529   22.9557 C   0  0  0  0  0  0  0  0  0  0  0  0
  -29.6255  -24.7388   17.9357 C   0  0  1  0  0  0  0  0  0  0  0  0
  -26.2827  -25.9659   19.2599 C   0  0  1  0  0  0  0  0  0  0  0  0
  -28.3373  -18.4894   21.4855 C   0  0  2  0  0  0  0  0  0  0  0  0
  -22.0689  -31.4889   22.6868 C   0  0  0  0  0  0  0  0  0  0  0  0
  -28.2629  -29.6443   21.2369 C   0  0  0  0  0  0  0  0  0  0  0  0
  -26.7138  -31.1595   22.4908 C   0  0  0  0  0  0  0  0  0  0  0  0
  -26.6996  -31.1514   19.9963 C   0  0  0  0  0  0  0  0  0  0  0  0
  -25.6131  -19.0418   26.2746 C   0  0  0  0  0  0  0  0  0  0  0  0
  -24.6971  -21.2111   27.0700 C   0  0  0  0  0  0  0  0  0  0  0  0
  -20.9267  -27.9617   21.8322 C   0  0  0  0  0  0  0  0  0  0  0  0
  -25.6340  -21.0286   24.7428 C   0  0  0  0  0  0  0  0  0  1  0  0
  -25.7225  -29.1839   21.2477 C   0  0  1  0  0  0  0  0  0  0  0  0
  -22.1288  -30.1465   21.9746 C   0  0  2  0  0  0  0  0  0  0  0  0
  -26.8480  -30.2566   21.2461 C   0  0  0  0  0  0  0  0  0  0  0  0
  -25.8166  -20.5749   26.2142 C   0  0  0  0  0  0  0  0  0  0  0  0
  -28.6883  -22.0558   27.9703 N   0  0  0  0  0  0  0  0  0  0  0  0
  -26.5177  -16.8423   21.2457 N   0  0  0  0  0  0  0  0  0  0  0  0
  -29.3403  -21.3014   27.0154 N   0  0  0  0  0  0  0  0  0  0  0  0
  -27.1845  -21.0379   26.7495 N   0  0  0  0  0  0  0  0  0  0  0  0
  -27.0499  -18.0086   20.8425 N   0  0  0  0  0  0  0  0  0  0  0  0
  -25.9859  -26.8907   20.3558 N   0  0  0  0  0  0  0  0  0  0  0  0
  -29.7026  -18.5510   23.5355 N   0  0  0  0  0  0  0  0  0  0  0  0
  -26.7246  -19.8164   19.3470 N   0  0  0  0  0  0  0  0  0  0  0  0
  -23.1874  -17.1324   18.5221 N   0  0  0  0  0  0  0  0  0  0  0  0
  -28.6143  -19.8211   25.1983 N   0  0  0  0  0  0  0  0  0  0  0  0
  -28.2248  -25.0159   18.1720 N   0  0  0  0  0  0  0  0  0  0  0  0
  -24.3718  -29.7350   21.2291 N   0  0  0  0  0  0  0  0  0  0  0  0
  -21.0027  -29.3031   22.4660 N   0  3  0  0  0  0  0  0  0  0  0  0
  -24.2173  -19.0921   17.9238 O   0  0  0  0  0  0  0  0  0  0  0  0
  -28.4715  -26.3822   20.0414 O   0  0  0  0  0  0  0  0  0  0  0  0
  -25.7302  -28.7123   18.9231 O   0  0  0  0  0  0  0  0  0  0  0  0
  -23.6594  -28.7288   23.1930 O   0  0  0  0  0  0  0  0  0  0  0  0
  -30.9300  -19.7701   25.0689 O   0  0  0  0  0  0  0  0  0  0  0  0
  -22.0747  -12.2856   21.0331 O   0  0  0  0  0  0  0  0  0  0  0  0
  -25.8321  -22.4365   24.6206 O   0  0  0  0  0  0  0  0  0  1  0  0
  -24.4483   -7.3171   21.3222 F   0  0  0  0  0  0  0  0  0  0  0  0
  -21.5087  -10.3323   19.1605 F   0  0  0  0  0  0  0  0  0  0  0  0
  1  2  1  0  0  0  0
  1  5  2  0  0  0  0
  2  6  2  0  0  0  0
  3  8  2  0  0  0  0
  3 16  1  0  0  0  0
  4  9  1  0  0  0  0
  4 16  2  0  0  0  0
  5 18  1  0  0  0  0
  6 20  1  0  0  0  0
  7 10  2  0  0  0  0
  7 19  1  0  0  0  0
  8 22  1  0  0  0  0
  9 22  2  0  0  0  0
 10 23  1  0  0  0  0
 11 12  2  0  0  0  0
 11 24  1  0  0  0  0
 12 25  1  0  0  0  0
 13 21  1  0  0  0  0
 13 23  2  0  0  0  0
 14 25  2  0  0  0  0
 14 26  1  0  0  0  0
 15 59  2  0  0  0  0
 15 62  1  0  0  0  0
 16 27  1  0  0  0  0
 17 27  1  0  0  0  0
 17 28  2  0  0  0  0
 17 30  1  0  0  0  0
 18 20  2  0  0  0  0
 18 35  1  0  0  0  0
 19 21  2  0  0  0  0
 19 36  1  0  0  0  0
 20 44  1  0  0  0  0
 21 37  1  0  0  0  0
 22 77  1  0  0  0  0
 23 78  1  0  0  0  0
 24 26  2  0  0  0  0
 24 77  1  0  0  0  0
 25 79  1  0  0  0  0
 26 80  1  0  0  0  0
 27 60  2  0  0  0  0
 28 63  1  0  0  0  0
 28 66  1  0  0  0  0
 29 61  2  0  0  0  0
 29 62  1  0  0  0  0
 29 68  1  0  0  0  0
 30 67  1  0  0  0  0
 30 72  2  0  0  0  0
 31 45  1  0  0  0  0
 31 69  1  0  0  0  0
 31 73  2  0  0  0  0
 32 55  1  0  0  0  0
 32 64  1  0  0  0  0
 32 74  2  0  0  0  0
 33 56  1  0  0  0  0
 33 70  1  0  0  0  0
 33 75  2  0  0  0  0
 34 65  1  0  0  0  0
 34 68  1  0  0  0  0
 34 76  2  0  0  0  0
 35 38  1  0  0  0  0
 36 45  1  0  0  0  0
 37 64  1  0  0  0  0
 38 40  1  0  0  0  0
 39 41  1  0  0  0  0
 39 42  1  0  0  0  0
 40 44  1  0  0  0  0
 41 46  1  0  0  0  0
 42 65  1  0  0  0  0
 43 46  1  0  0  0  0
 43 65  1  0  0  0  0
 44 69  1  0  0  0  0
 45 64  1  0  0  0  0
 46 63  1  0  0  0  0
 47 56  1  0  0  0  0
 48 57  1  0  0  0  0
 49 57  1  0  0  0  0
 50 57  1  0  0  0  0
 51 58  1  0  0  0  0
 52 58  1  0  0  0  0
 53 71  1  0  0  0  0
 54 58  1  0  0  0  0
 54 78  1  0  0  0  0
 55 57  1  0  0  0  0
 55 70  1  0  0  0  0
 56 71  1  0  0  0  0
 58 62  1  0  0  0  0
 59 61  1  0  0  0  0
 60 63  1  0  0  0  0
M  CHG  1  71   1
M  ISO  4  34 100  54 101  68 100  78 101
M  END
> <Batch ID>
0187

> <Smiles>
CNC(C)C(=O)NC(C(=O)N1Cc2cc([101O:1][101CH2:1]C(C)(C)n3cnnc3[100NH:0][100C:0](=O)N3CCCC(n4nc(-c5ccc(Oc6ccc(F)cc6F)cc5)c(C(N)=O)c4N)C3)ccc2CC1C(=O)NC1CCCc2ccccc21)C(C)(C)C

> <Shape>
0.205

> <Color>
0.063

> <Negative vol penalty>
0.000

$$$$

  -OEChem-04052305123D

 85 93  0     1  0  0  0  0  0999 V2000
  -22.6219  -17.5815   21.8360 C   0  0  0  0  0  0  0  0  0  0  0  0
  -23.6337  -18.5214   22.0043 C   0  0  0  0  0  0  0  0  0  0  0  0
  -24.1706   -9.5548   20.4939 C   0  0  0  0  0  0  0  0  0  0  0  0
  -24.5582  -10.1856   22.7937 C   0  0  0  0  0  0  0  0  0  0  0  0
  -21.4559  -17.9285   21.1550 C   0  0  0  0  0  0  0  0  0  0  0  0
  -23.4804  -19.8087   21.4907 C   0  0  0  0  0  0  0  0  0  0  0  0
  -24.8978  -23.3927   24.7756 C   0  0  0  0  0  0  0  0  0  0  0  0
  -23.7729   -8.2841   20.9095 C   0  0  0  0  0  0  0  0  0  0  0  0
  -24.1604   -8.9149   23.2093 C   0  0  0  0  0  0  0  0  0  0  0  0
  -26.2658  -23.6203   24.9185 C   0  0  0  0  0  0  0  0  0  0  0  0
  -21.0157   -6.8475   22.2389 C   0  0  0  0  0  0  0  0  0  0  0  0
  -19.8643   -6.3086   21.6649 C   0  0  0  0  0  0  0  0  0  0  0  0
  -26.0918  -25.5396   23.4676 C   0  0  0  0  0  0  0  0  0  0  0  0
  -21.1563   -4.4514   20.8171 C   0  0  0  0  0  0  0  0  0  0  0  0
  -30.2211  -20.7927   21.8471 C   0  0  0  0  0  0  0  0  0  0  0  0
  -24.5633  -10.5056   21.4360 C   0  0  0  0  0  0  0  0  0  0  0  0
  -24.1573  -12.9512   20.8345 C   0  0  0  0  0  0  0  0  0  0  0  0
  -21.2842  -19.2235   20.6411 C   0  0  0  0  0  0  0  0  0  0  0  0
  -24.1172  -24.2317   23.9676 C   0  0  0  0  0  0  0  0  0  0  0  0
  -22.3115  -20.1730   20.8009 C   0  0  0  0  0  0  0  0  0  0  0  0
  -24.7136  -25.3220   23.3181 C   0  0  0  0  0  0  0  0  0  0  0  0
  -29.5604  -21.3358   22.9372 C   0  0  0  0  0  0  0  0  0  0  0  0
  -23.7678   -7.9641   22.2671 C   0  0  0  0  0  0  0  0  0  0  0  0
  -26.8636  -24.6922   24.2621 C   0  0  0  0  0  0  0  0  0  0  0  0
  -22.2374   -6.1884   22.1019 C   0  0  0  0  0  0  0  0  0  0  0  0
  -19.9346   -5.1106   20.9540 C   0  0  0  0  0  0  0  0  0  0  0  0
  -22.3077   -4.9904   21.3910 C   0  0  0  0  0  0  0  0  0  0  0  0
  -28.7637  -20.4913   23.7023 C   0  0  0  0  0  0  0  0  0  0  0  0
  -28.6535  -19.1485   23.3587 C   0  0  0  0  0  0  0  0  0  0  0  0
  -24.9748  -11.8182   21.0073 C   0  0  0  0  0  0  0  0  0  0  0  0
  -29.3547  -18.7034   22.2496 C   0  0  0  0  0  0  0  0  0  0  0  0
  -25.0194  -13.9367   20.4198 C   0  0  0  0  0  0  0  0  0  0  0  0
  -22.7449  -13.0996   21.0314 C   0  0  0  0  0  0  0  0  0  0  0  0
  -22.3693  -23.8274   21.3436 C   0  0  0  0  0  0  0  0  0  0  0  0
  -21.5468  -26.9181   21.8855 C   0  0  0  0  0  0  0  0  0  0  0  0
  -30.4465  -23.6688   22.5908 C   0  0  0  0  0  0  0  0  0  0  0  0
  -22.3377  -29.9211   23.3008 C   0  0  0  0  0  0  0  0  0  0  0  0
  -29.8488  -16.6763   20.8378 C   0  0  0  0  0  0  0  0  0  0  0  0
  -20.0261  -19.5381   19.8710 C   0  0  0  0  0  0  0  0  0  0  0  0
  -22.6379  -23.9884   23.8452 C   0  0  0  0  0  0  0  0  0  0  0  0
  -23.9161  -26.2642   22.4553 C   0  0  0  0  0  0  0  0  0  0  0  0
  -19.7846  -21.0337   19.6834 C   0  0  0  0  0  0  0  0  0  0  0  0
  -29.8481  -13.6737   18.9243 C   0  0  0  0  0  0  0  0  0  0  0  0
  -21.0644  -21.7282   19.2288 C   0  0  0  0  0  0  0  0  0  0  0  0
  -28.5129  -13.0165   19.2814 C   0  0  0  0  0  0  0  0  0  0  0  0
  -30.4730  -14.3784   20.1270 C   0  0  0  0  0  0  0  0  0  0  0  0
  -28.2601  -14.6804   21.1667 C   0  0  0  0  0  0  0  0  0  0  0  0
  -22.1721  -21.5868   20.2797 C   0  0  1  0  0  0  0  0  0  0  0  0
  -22.0335  -24.6025   22.5862 C   0  0  1  0  0  0  0  0  0  0  0  0
  -27.5609  -14.0132   19.9711 C   0  0  2  0  0  0  0  0  0  0  0  0
  -31.1978  -26.0518   22.5188 C   0  0  0  0  0  0  0  0  0  0  0  0
  -21.4884  -32.2703   23.5407 C   0  0  0  0  0  0  0  0  0  0  0  0
  -22.4027  -27.5177   19.0188 C   0  0  0  0  0  0  0  0  0  0  0  0
  -22.4404  -29.9496   19.6127 C   0  0  0  0  0  0  0  0  0  0  0  0
  -20.3039  -28.6686   19.7433 C   0  0  0  0  0  0  0  0  0  0  0  0
  -22.1835  -29.6880   26.2471 C   0  0  0  0  0  0  0  0  0  0  0  0
  -28.8715  -25.5261   23.2985 C   0  0  0  0  0  0  0  0  0  1  0  0
  -22.1018  -28.2601   21.4733 C   0  0  1  0  0  0  0  0  0  0  0  0
  -30.3236  -25.0433   23.2631 C   0  0  1  0  0  0  0  0  0  0  0  0
  -21.5241  -30.8786   24.1528 C   0  0  2  0  0  0  0  0  0  0  0  0
  -21.8278  -28.5803   19.9767 C   0  0  0  0  0  0  0  0  0  0  0  0
  -30.1384  -19.4936   21.4822 N   0  0  0  0  0  0  0  0  0  0  0  0
  -26.2577  -12.0602   20.7252 N   0  0  0  0  0  0  0  0  0  0  0  0
  -26.2528  -13.3565   20.3709 N   0  0  0  0  0  0  0  0  0  0  0  0
  -22.4744  -25.9808   22.3619 N   0  0  0  0  0  0  0  0  0  0  0  0
  -29.5149  -15.3099   20.7264 N   0  0  0  0  0  0  0  0  0  0  0  0
  -24.8352  -15.2341   20.0957 N   0  0  0  0  0  0  0  0  0  0  0  0
  -22.0094  -11.9862   21.4600 N   0  0  0  0  0  0  0  0  0  0  0  0
  -29.6938  -22.7073   23.2601 N   0  0  0  0  0  0  0  0  0  0  0  0
  -29.2372  -17.3341   21.9045 N   0  0  0  0  0  0  0  0  0  0  0  0
  -21.9528  -22.5102   21.3724 N   0  0  0  0  0  0  0  0  0  0  0  0
  -21.5452  -29.2355   22.4046 N   0  0  0  0  0  0  0  0  0  0  0  0
  -22.1094  -30.9810   25.5195 N   0  3  0  0  0  0  0  0  0  0  0  0
  -22.1499  -14.1830   20.8174 O   0  0  0  0  0  0  0  0  0  0  0  0
  -22.9611  -24.3837   20.4259 O   0  0  0  0  0  0  0  0  0  0  0  0
  -20.3341  -26.7115   21.7951 O   0  0  0  0  0  0  0  0  0  0  0  0
  -31.1440  -23.4982   21.5951 O   0  0  0  0  0  0  0  0  0  0  0  0
  -23.5550  -29.7968   23.4160 O   0  0  0  0  0  0  0  0  0  0  0  0
  -30.5990  -17.2290   20.0294 O   0  0  0  0  0  0  0  0  0  0  0  0
  -23.3795   -6.7243   22.6730 O   0  0  0  0  0  0  0  0  0  0  0  0
  -28.1988  -24.9163   24.3993 O   0  0  0  0  0  0  0  0  0  1  0  0
  -18.8285   -4.5924   20.4042 F   0  0  0  0  0  0  0  0  0  0  0  0
  -23.4783   -4.3520   21.2570 F   0  0  0  0  0  0  0  0  0  0  0  0
  -28.1002  -20.9596   24.7688 F   0  0  0  0  0  0  0  0  0  0  0  0
  -27.8895  -18.3239   24.0862 F   0  0  0  0  0  0  0  0  0  0  0  0
  1  2  1  0  0  0  0
  1  5  2  0  0  0  0
  2  6  2  0  0  0  0
  3  8  2  0  0  0  0
  3 16  1  0  0  0  0
  4  9  1  0  0  0  0
  4 16  2  0  0  0  0
  5 18  1  0  0  0  0
  6 20  1  0  0  0  0
  7 10  2  0  0  0  0
  7 19  1  0  0  0  0
  8 23  1  0  0  0  0
  9 23  2  0  0  0  0
 10 24  1  0  0  0  0
 11 12  2  0  0  0  0
 11 25  1  0  0  0  0
 12 26  1  0  0  0  0
 13 21  1  0  0  0  0
 13 24  2  0  0  0  0
 14 26  2  0  0  0  0
 14 27  1  0  0  0  0
 15 22  1  0  0  0  0
 15 62  2  0  0  0  0
 16 30  1  0  0  0  0
 17 30  1  0  0  0  0
 17 32  2  0  0  0  0
 17 33  1  0  0  0  0
 18 20  2  0  0  0  0
 18 39  1  0  0  0  0
 19 21  2  0  0  0  0
 19 40  1  0  0  0  0
 20 48  1  0  0  0  0
 21 41  1  0  0  0  0
 22 28  2  0  0  0  0
 22 69  1  0  0  0  0
 23 80  1  0  0  0  0
 24 81  1  0  0  0  0
 25 27  2  0  0  0  0
 25 80  1  0  0  0  0
 26 82  1  0  0  0  0
 27 83  1  0  0  0  0
 28 29  1  0  0  0  0
 28 84  1  0  0  0  0
 29 31  2  0  0  0  0
 29 85  1  0  0  0  0
 30 63  2  0  0  0  0
 31 62  1  0  0  0  0
 31 70  1  0  0  0  0
 32 64  1  0  0  0  0
 32 67  1  0  0  0  0
 33 68  1  0  0  0  0
 33 74  2  0  0  0  0
 34 49  1  0  0  0  0
 34 71  1  0  0  0  0
 34 75  2  0  0  0  0
 35 58  1  0  0  0  0
 35 65  1  0  0  0  0
 35 76  2  0  0  0  0
 36 59  1  0  0  0  0
 36 69  1  0  0  0  0
 36 77  2  0  0  0  0
 37 60  1  0  0  0  0
 37 72  1  0  0  0  0
 37 78  2  0  0  0  0
 38 66  1  0  0  0  0
 38 70  1  0  0  0  0
 38 79  2  0  0  0  0
 39 42  1  0  0  0  0
 40 49  1  0  0  0  0
 41 65  1  0  0  0  0
 42 44  1  0  0  0  0
 43 45  1  0  0  0  0
 43 46  1  0  0  0  0
 44 48  1  0  0  0  0
 45 50  1  0  0  0  0
 46 66  1  0  0  0  0
 47 50  1  0  0  0  0
 47 66  1  0  0  0  0
 48 71  1  0  0  0  0
 49 65  1  0  0  0  0
 50 64  1  0  0  0  0
 51 59  1  0  0  0  0
 52 60  1  0  0  0  0
 53 61  1  0  0  0  0
 54 61  1  0  0  0  0
 55 61  1  0  0  0  0
 56 73  1  0  0  0  0
 57 59  1  0  0  0  0
 57 81  1  0  0  0  0
 58 61  1  0  0  0  0
 58 72  1  0  0  0  0
 60 73  1  0  0  0  0
 63 64  1  0  0  0  0
M  CHG  1  73   1
M  ISO  4  38 100  57 101  70 100  81 101
M  END
> <Batch ID>
0187

> <Smiles>
CNC(C)C(=O)NC(C(=O)N1Cc2cc([101O:1][101CH2:1]C(C)C(=O)Nc3cnc([100NH:0][100C:0](=O)N4CCCC(n5nc(-c6ccc(Oc7ccc(F)cc7F)cc6)c(C(N)=O)c5N)C4)c(F)c3F)ccc2CC1C(=O)NC1CCCc2ccccc21)C(C)(C)C

> <Shape>
0.196

> <Color>
0.131

> <Negative vol penalty>
0.000

$$$$

  -OEChem-04052305123D

 85 93  0     1  0  0  0  0  0999 V2000
  -17.4167  -11.3033   23.1558 C   0  0  0  0  0  0  0  0  0  0  0  0
  -17.7452  -12.5594   22.6561 C   0  0  0  0  0  0  0  0  0  0  0  0
  -22.3412  -28.3409   21.0125 C   0  0  0  0  0  0  0  0  0  0  0  0
  -23.5511  -27.7285   23.0120 C   0  0  0  0  0  0  0  0  0  0  0  0
  -18.3959  -10.5177   23.7623 C   0  0  0  0  0  0  0  0  0  0  0  0
  -19.0530  -13.0311   22.7636 C   0  0  0  0  0  0  0  0  0  0  0  0
  -22.0372  -16.5570   18.7426 C   0  0  0  0  0  0  0  0  0  0  0  0
  -21.1356  -28.0658   21.6577 C   0  0  0  0  0  0  0  0  0  0  0  0
  -22.3455  -27.4534   23.6573 C   0  0  0  0  0  0  0  0  0  0  0  0
  -22.2785  -17.9294   18.6965 C   0  0  0  0  0  0  0  0  0  0  0  0
  -19.1038  -29.5843   23.8935 C   0  0  0  0  0  0  0  0  0  0  0  0
  -18.0667  -30.5059   23.7499 C   0  0  0  0  0  0  0  0  0  0  0  0
  -24.4371  -17.5779   19.7144 C   0  0  0  0  0  0  0  0  0  0  0  0
  -16.6840  -28.7945   22.7518 C   0  0  0  0  0  0  0  0  0  0  0  0
  -28.5095  -23.4111   23.3113 C   0  0  0  0  0  0  0  0  0  0  0  0
  -23.5490  -28.1721   21.6896 C   0  0  0  0  0  0  0  0  0  0  0  0
  -25.4785  -29.6857   20.9867 C   0  0  0  0  0  0  0  0  0  0  0  0
  -19.7185  -10.9760   23.8687 C   0  0  0  0  0  0  0  0  0  0  0  0
  -22.9911  -15.6845   19.2858 C   0  0  0  0  0  0  0  0  0  0  0  0
  -20.0506  -12.2514   23.3733 C   0  0  0  0  0  0  0  0  0  0  0  0
  -24.2065  -16.1946   19.7639 C   0  0  0  0  0  0  0  0  0  0  0  0
  -21.1377  -27.6221   22.9801 C   0  0  0  0  0  0  0  0  0  0  0  0
  -23.4774  -18.4404   19.1851 C   0  0  0  0  0  0  0  0  0  0  0  0
  -18.9311  -28.2677   23.4662 C   0  0  0  0  0  0  0  0  0  0  0  0
  -16.8568  -30.1110   23.1791 C   0  0  0  0  0  0  0  0  0  0  0  0
  -17.7212  -27.8728   22.8954 C   0  0  0  0  0  0  0  0  0  0  0  0
  -24.7948  -28.4556   21.0234 C   0  0  0  0  0  0  0  0  0  0  0  0
  -28.8875  -23.0828   22.0263 C   0  0  0  0  0  0  0  0  0  0  0  0
  -26.5985  -29.4335   20.2328 C   0  0  0  0  0  0  0  0  0  0  0  0
  -26.8589  -22.2499   21.9962 C   0  0  0  0  0  0  0  0  0  0  0  0
  -25.1321  -30.9436   21.5810 C   0  0  0  0  0  0  0  0  0  0  0  0
  -23.0481  -13.6746   21.7477 C   0  0  0  0  0  0  0  0  0  0  0  0
  -25.9441  -12.8736   20.5254 C   0  0  0  0  0  0  0  0  0  0  0  0
  -28.6380  -13.7701   18.6319 C   0  0  0  0  0  0  0  0  0  0  0  0
  -25.3482  -21.0351   20.3896 C   0  0  0  0  0  0  0  0  0  0  0  0
  -29.3168  -24.0538   19.1338 C   0  0  0  0  0  0  0  0  0  0  0  0
  -20.7321  -10.1107   24.5748 C   0  0  0  0  0  0  0  0  0  0  0  0
  -22.7267  -14.2038   19.3038 C   0  0  0  0  0  0  0  0  0  0  0  0
  -25.2717  -15.2981   20.3384 C   0  0  0  0  0  0  0  0  0  0  0  0
  -22.1769  -10.5284   24.3137 C   0  0  0  0  0  0  0  0  0  0  0  0
  -28.2052  -26.6261   16.7153 C   0  0  0  0  0  0  0  0  0  0  0  0
  -22.3321  -12.0381   24.4665 C   0  0  0  0  0  0  0  0  0  0  0  0
  -27.2074  -27.4438   17.5338 C   0  0  0  0  0  0  0  0  0  0  0  0
  -28.2833  -25.1803   17.1962 C   0  0  0  0  0  0  0  0  0  0  0  0
  -27.5804  -25.8613   19.4670 C   0  0  0  0  0  0  0  0  0  0  0  0
  -21.4637  -12.7877   23.4489 C   0  0  1  0  0  0  0  0  0  0  0  0
  -23.5540  -13.4618   20.3490 C   0  0  1  0  0  0  0  0  0  0  0  0
  -27.5119  -27.3347   19.0380 C   0  0  2  0  0  0  0  0  0  0  0  0
  -30.8653  -12.9203   17.8479 C   0  0  0  0  0  0  0  0  0  0  0  0
  -22.8793  -21.5081   20.5912 C   0  0  0  0  0  0  0  0  0  0  0  0
  -27.1201  -13.4138   23.2886 C   0  0  0  0  0  0  0  0  0  0  0  0
  -29.3892  -13.4822   22.2328 C   0  0  0  0  0  0  0  0  0  0  0  0
  -28.0362  -11.3884   22.1428 C   0  0  0  0  0  0  0  0  0  0  0  0
  -30.5419  -25.6645   20.5425 C   0  0  0  0  0  0  0  0  0  0  0  0
  -27.8293  -13.9312   15.7896 C   0  0  0  0  0  0  0  0  0  0  0  0
  -30.9468  -22.1086   20.9596 C   0  0  0  0  0  0  0  0  0  0  0  0
  -30.1952  -23.3811   21.4094 C   0  0  1  0  0  0  0  0  0  0  0  0
  -27.3586  -13.3642   20.7183 C   0  0  1  0  0  0  0  0  0  0  0  0
  -29.3829  -13.0387   17.5298 C   0  0  2  0  0  0  0  0  0  0  0  0
  -23.9427  -20.4393   20.3866 C   0  0  1  0  0  0  0  0  0  1  0  0
  -27.9554  -12.9295   22.0866 C   0  0  0  0  0  0  0  0  0  0  0  0
  -25.4275  -27.4936   20.3465 N   0  0  0  0  0  0  0  0  0  0  0  0
  -27.9425  -22.4165   21.2708 N   0  0  0  0  0  0  0  0  0  0  0  0
  -26.5205  -28.1191   19.8773 N   0  0  0  0  0  0  0  0  0  0  0  0
  -24.9636  -13.8585   20.3399 N   0  0  0  0  0  0  0  0  0  0  0  0
  -28.5305  -25.1061   18.6365 N   0  0  0  0  0  0  0  0  0  0  0  0
  -27.6326  -30.2102   19.8457 N   0  0  0  0  0  0  0  0  0  0  0  0
  -23.9464  -31.0279   22.3234 N   0  0  0  0  0  0  0  0  0  0  0  0
  -25.6511  -21.6179   21.6158 N   0  0  0  0  0  0  0  0  0  0  0  0
  -22.0843  -12.7661   22.1417 N   0  0  0  0  0  0  0  0  0  0  0  0
  -28.1142  -12.8965   19.5612 N   0  0  0  0  0  0  0  0  0  0  0  0
  -30.0722  -24.3100   20.2881 N   0  0  0  0  0  0  0  0  0  0  0  0
  -32.2729  -22.4510   20.3843 N   0  3  0  0  0  0  0  0  0  0  0  0
  -29.2362  -13.7637   16.2361 N   0  3  0  0  0  0  0  0  0  0  0  0
  -25.8445  -31.9670   21.4436 O   0  0  0  0  0  0  0  0  0  0  0  0
  -23.4998  -14.5940   22.4203 O   0  0  0  0  0  0  0  0  0  0  0  0
  -25.7185  -11.6609   20.5319 O   0  0  0  0  0  0  0  0  0  0  0  0
  -28.5347  -14.9943   18.6671 O   0  0  0  0  0  0  0  0  0  0  0  0
  -26.0740  -20.9586   19.4024 O   0  0  0  0  0  0  0  0  0  0  0  0
  -29.3495  -22.9513   18.5723 O   0  0  0  0  0  0  0  0  0  0  0  0
  -19.9614  -27.3538   23.6101 O   0  0  0  0  0  0  0  0  0  0  0  0
  -23.7152  -19.7795   19.1419 O   0  0  0  0  0  0  0  0  0  1  0  0
  -15.8605  -30.9958   23.0427 F   0  0  0  0  0  0  0  0  0  0  0  0
  -17.5489  -26.6091   22.4840 F   0  0  0  0  0  0  0  0  0  0  0  0
  -26.9070  -22.8702   23.5955 S   0  0  0  0  0  0  0  0  0  0  0  0
  1  2  1  0  0  0  0
  1  5  2  0  0  0  0
  2  6  2  0  0  0  0
  3  8  2  0  0  0  0
  3 16  1  0  0  0  0
  4  9  1  0  0  0  0
  4 16  2  0  0  0  0
  5 18  1  0  0  0  0
  6 20  1  0  0  0  0
  7 10  2  0  0  0  0
  7 19  1  0  0  0  0
  8 22  1  0  0  0  0
  9 22  2  0  0  0  0
 10 23  1  0  0  0  0
 11 12  2  0  0  0  0
 11 24  1  0  0  0  0
 12 25  1  0  0  0  0
 13 21  1  0  0  0  0
 13 23  2  0  0  0  0
 14 25  2  0  0  0  0
 14 26  1  0  0  0  0
 15 28  2  0  0  0  0
 15 85  1  0  0  0  0
 16 27  1  0  0  0  0
 17 27  1  0  0  0  0
 17 29  2  0  0  0  0
 17 31  1  0  0  0  0
 18 20  2  0  0  0  0
 18 37  1  0  0  0  0
 19 21  2  0  0  0  0
 19 38  1  0  0  0  0
 20 46  1  0  0  0  0
 21 39  1  0  0  0  0
 22 81  1  0  0  0  0
 23 82  1  0  0  0  0
 24 26  2  0  0  0  0
 24 81  1  0  0  0  0
 25 83  1  0  0  0  0
 26 84  1  0  0  0  0
 27 62  2  0  0  0  0
 28 57  1  0  0  0  0
 28 63  1  0  0  0  0
 29 64  1  0  0  0  0
 29 67  1  0  0  0  0
 30 63  2  0  0  0  0
 30 69  1  0  0  0  0
 30 85  1  0  0  0  0
 31 68  1  0  0  0  0
 31 75  2  0  0  0  0
 32 47  1  0  0  0  0
 32 70  1  0  0  0  0
 32 76  2  0  0  0  0
 33 58  1  0  0  0  0
 33 65  1  0  0  0  0
 33 77  2  0  0  0  0
 34 59  1  0  0  0  0
 34 71  1  0  0  0  0
 34 78  2  0  0  0  0
 35 60  1  0  0  0  0
 35 69  1  0  0  0  0
 35 79  2  0  0  0  0
 36 66  1  0  0  0  0
 36 72  1  0  0  0  0
 36 80  2  0  0  0  0
 37 40  1  0  0  0  0
 38 47  1  0  0  0  0
 39 65  1  0  0  0  0
 40 42  1  0  0  0  0
 41 43  1  0  0  0  0
 41 44  1  0  0  0  0
 42 46  1  0  0  0  0
 43 48  1  0  0  0  0
 44 66  1  0  0  0  0
 45 48  1  0  0  0  0
 45 66  1  0  0  0  0
 46 70  1  0  0  0  0
 47 65  1  0  0  0  0
 48 64  1  0  0  0  0
 49 59  1  0  0  0  0
 50 60  1  0  0  0  0
 51 61  1  0  0  0  0
 52 61  1  0  0  0  0
 53 61  1  0  0  0  0
 54 72  1  0  0  0  0
 55 74  1  0  0  0  0
 56 57  1  0  0  0  0
 56 73  1  0  0  0  0
 57 72  1  0  0  0  0
 58 61  1  0  0  0  0
 58 71  1  0  0  0  0
 59 74  1  0  0  0  0
 60 82  1  0  0  0  0
 62 64  1  0  0  0  0
M  CHG  2  73   1  74   1
M  ISO  4  36 100  60 101  72 100  82 101
M  END
> <Batch ID>
0187

> <Smiles>
CNC(C)C(=O)NC(C(=O)N1Cc2cc([101O:1][101CH:1](C)C(=O)Nc3nc(C(CN)[100N:0](C)[100C:0](=O)N4CCCC(n5nc(-c6ccc(Oc7ccc(F)cc7F)cc6)c(C(N)=O)c5N)C4)cs3)ccc2CC1C(=O)NC1CCCc2ccccc21)C(C)(C)C

> <Shape>
0.263

> <Color>
0.082

> <Negative vol penalty>
0.000

$$$$

  -OEChem-04052305123D

 84 92  0     1  0  0  0  0  0999 V2000
  -24.5652  -23.7321   21.6899 C   0  0  0  0  0  0  0  0  0  0  0  0
  -23.9604  -22.6891   20.9958 C   0  0  0  0  0  0  0  0  0  0  0  0
  -25.0517  -30.5115   20.1849 C   0  0  0  0  0  0  0  0  0  0  0  0
  -24.1453  -28.9741   21.8134 C   0  0  0  0  0  0  0  0  0  0  0  0
  -25.9368  -23.6998   21.9381 C   0  0  0  0  0  0  0  0  0  0  0  0
  -24.7271  -21.6136   20.5485 C   0  0  0  0  0  0  0  0  0  0  0  0
  -22.5270  -17.1453   21.4642 C   0  0  0  0  0  0  0  0  0  0  0  0
  -24.8079  -31.5753   21.0534 C   0  0  0  0  0  0  0  0  0  0  0  0
  -23.9016  -30.0379   22.6820 C   0  0  0  0  0  0  0  0  0  0  0  0
  -21.4961  -16.7562   20.6101 C   0  0  0  0  0  0  0  0  0  0  0  0
  -23.3721  -32.3065   25.4733 C   0  0  0  0  0  0  0  0  0  0  0  0
  -23.7247  -32.1446   26.8131 C   0  0  0  0  0  0  0  0  0  0  0  0
  -23.0337  -15.3359   19.4111 C   0  0  0  0  0  0  0  0  0  0  0  0
  -19.2070  -21.6263   17.4251 C   0  0  0  0  0  0  0  0  0  0  0  0
  -26.0266  -31.7993   26.1655 C   0  0  0  0  0  0  0  0  0  0  0  0
  -24.7203  -29.2109   20.5648 C   0  0  0  0  0  0  0  0  0  0  0  0
  -26.1412  -27.3329   19.5839 C   0  0  0  0  0  0  0  0  0  0  0  0
  -26.7191  -22.6188   21.5021 C   0  0  0  0  0  0  0  0  0  0  0  0
  -23.8237  -16.6401   21.2912 C   0  0  0  0  0  0  0  0  0  0  0  0
  -26.1107  -21.5676   20.7900 C   0  0  0  0  0  0  0  0  0  0  0  0
  -24.0788  -15.7182   20.2660 C   0  0  0  0  0  0  0  0  0  0  0  0
  -18.6529  -20.6266   18.2759 C   0  0  0  0  0  0  0  0  0  0  0  0
  -24.2329  -31.3385   22.3020 C   0  0  0  0  0  0  0  0  0  0  0  0
  -21.7500  -15.8536   19.5815 C   0  0  0  0  0  0  0  0  0  0  0  0
  -24.3467  -32.2146   24.4796 C   0  0  0  0  0  0  0  0  0  0  0  0
  -25.0520  -31.8911   27.1592 C   0  0  0  0  0  0  0  0  0  0  0  0
  -25.6739  -31.9611   24.8257 C   0  0  0  0  0  0  0  0  0  0  0  0
  -24.9714  -28.1116   19.6677 C   0  0  0  0  0  0  0  0  0  0  0  0
  -19.0454  -20.7871   19.5865 C   0  0  0  0  0  0  0  0  0  0  0  0
  -25.8799  -26.4273   18.5848 C   0  0  0  0  0  0  0  0  0  0  0  0
  -20.0018  -22.5129   18.1180 C   0  0  0  0  0  0  0  0  0  0  0  0
  -27.3553  -27.4203   20.3415 C   0  0  0  0  0  0  0  0  0  0  0  0
  -26.6593  -17.9169   20.6333 C   0  0  0  0  0  0  0  0  0  0  0  0
  -18.4579  -18.6070   16.7903 C   0  0  0  0  0  0  0  0  0  0  0  0
  -27.7066  -14.8907   21.1504 C   0  0  0  0  0  0  0  0  0  0  0  0
  -27.0005  -11.5525   21.2194 C   0  0  0  0  0  0  0  0  0  0  0  0
  -20.8247  -24.1336   16.3738 C   0  0  0  0  0  0  0  0  0  0  0  0
  -28.2059  -22.6510   21.7527 C   0  0  0  0  0  0  0  0  0  0  0  0
  -24.9188  -17.0492   22.2376 C   0  0  0  0  0  0  0  0  0  0  0  0
  -25.4489  -15.1309   20.0504 C   0  0  0  0  0  0  0  0  0  0  0  0
  -28.8836  -21.2952   21.5718 C   0  0  0  0  0  0  0  0  0  0  0  0
  -23.3224  -25.9165   14.5683 C   0  0  0  0  0  0  0  0  0  0  0  0
  -28.4153  -20.6324   20.2803 C   0  0  0  0  0  0  0  0  0  0  0  0
  -24.1389  -26.6060   15.6638 C   0  0  0  0  0  0  0  0  0  0  0  0
  -21.8348  -25.8717   14.9130 C   0  0  0  0  0  0  0  0  0  0  0  0
  -22.3356  -25.9864   17.3224 C   0  0  0  0  0  0  0  0  0  0  0  0
  -26.9045  -20.3718   20.3103 C   0  0  1  0  0  0  0  0  0  0  0  0
  -26.3150  -16.8662   21.6507 C   0  0  1  0  0  0  0  0  0  0  0  0
  -23.8486  -25.9981   17.0501 C   0  0  2  0  0  0  0  0  0  0  0  0
  -18.6932  -19.9686   20.7690 C   0  0  0  0  0  0  0  0  0  0  0  0
  -16.4497  -20.0920   17.1926 C   0  0  0  0  0  0  0  0  0  0  0  0
  -28.0691   -9.3212   21.6397 C   0  0  0  0  0  0  0  0  0  0  0  0
  -29.0523  -15.0226   18.4151 C   0  0  0  0  0  0  0  0  0  0  0  0
  -29.2704  -12.5293   18.4796 C   0  0  0  0  0  0  0  0  0  0  0  0
  -30.4195  -13.9250   20.1985 C   0  0  0  0  0  0  0  0  0  0  0  0
  -25.1858  -10.9804   23.4863 C   0  0  0  0  0  0  0  0  0  0  0  0
  -18.0111  -17.1507   16.7665 C   0  0  0  0  0  0  0  0  0  0  0  0
  -19.1252  -16.1708   17.1196 C   0  0  0  0  0  0  0  0  0  0  0  0
  -19.7052  -16.4196   18.5071 C   0  0  0  0  0  0  0  0  0  1  0  0
  -17.7401  -19.5215   17.7845 C   0  0  2  0  0  0  0  0  0  0  0  0
  -27.9061  -13.6667   20.2896 C   0  0  1  0  0  0  0  0  0  0  0  0
  -27.2992  -10.4809   22.2523 C   0  0  2  0  0  0  0  0  0  0  0  0
  -29.1366  -13.7983   19.3483 C   0  0  0  0  0  0  0  0  0  0  0  0
  -24.0366  -27.7339   18.7916 N   0  0  0  0  0  0  0  0  0  0  0  0
  -24.6188  -26.7079   18.1478 N   0  0  0  0  0  0  0  0  0  0  0  0
  -26.4879  -15.5669   20.9979 N   0  0  0  0  0  0  0  0  0  0  0  0
  -21.6362  -25.2798   16.2378 N   0  0  0  0  0  0  0  0  0  0  0  0
  -26.6083  -25.4264   18.0463 N   0  0  0  0  0  0  0  0  0  0  0  0
  -27.4565  -28.4088   21.3299 N   0  0  0  0  0  0  0  0  0  0  0  0
  -20.7360  -23.6411   17.6753 N   0  0  0  0  0  0  0  0  0  0  0  0
  -26.6081  -19.2092   21.1197 N   0  0  0  0  0  0  0  0  0  0  0  0
  -27.9716  -12.5313   21.2034 N   0  0  0  0  0  0  0  0  0  0  0  0
  -26.0319   -9.9507   22.8300 N   0  3  0  0  0  0  0  0  0  0  0  0
  -28.3281  -26.6553   20.1365 O   0  0  0  0  0  0  0  0  0  0  0  0
  -26.9512  -17.5799   19.4918 O   0  0  0  0  0  0  0  0  0  0  0  0
  -19.3273  -19.0304   16.0281 O   0  0  0  0  0  0  0  0  0  0  0  0
  -28.5964  -15.2301   21.9345 O   0  0  0  0  0  0  0  0  0  0  0  0
  -26.0070  -11.5223   20.4964 O   0  0  0  0  0  0  0  0  0  0  0  0
  -20.2726  -23.6104   15.4024 O   0  0  0  0  0  0  0  0  0  0  0  0
  -23.9951  -32.3763   23.1499 O   0  0  0  0  0  0  0  0  0  0  0  0
  -20.7457  -15.4727   18.7459 O   0  0  0  0  0  0  0  0  0  1  0  0
  -25.3907  -31.7372   28.4459 F   0  0  0  0  0  0  0  0  0  0  0  0
  -26.6148  -31.8730   23.8755 F   0  0  0  0  0  0  0  0  0  0  0  0
  -20.0777  -22.1385   19.7873 S   0  0  0  0  0  0  0  0  0  0  0  0
  1  2  1  0  0  0  0
  1  5  2  0  0  0  0
  2  6  2  0  0  0  0
  3  8  2  0  0  0  0
  3 16  1  0  0  0  0
  4  9  1  0  0  0  0
  4 16  2  0  0  0  0
  5 18  1  0  0  0  0
  6 20  1  0  0  0  0
  7 10  2  0  0  0  0
  7 19  1  0  0  0  0
  8 23  1  0  0  0  0
  9 23  2  0  0  0  0
 10 24  1  0  0  0  0
 11 12  2  0  0  0  0
 11 25  1  0  0  0  0
 12 26  1  0  0  0  0
 13 21  1  0  0  0  0
 13 24  2  0  0  0  0
 14 22  1  0  0  0  0
 14 31  2  0  0  0  0
 15 26  2  0  0  0  0
 15 27  1  0  0  0  0
 16 28  1  0  0  0  0
 17 28  1  0  0  0  0
 17 30  2  0  0  0  0
 17 32  1  0  0  0  0
 18 20  2  0  0  0  0
 18 38  1  0  0  0  0
 19 21  2  0  0  0  0
 19 39  1  0  0  0  0
 20 47  1  0  0  0  0
 21 40  1  0  0  0  0
 22 29  2  0  0  0  0
 22 60  1  0  0  0  0
 23 80  1  0  0  0  0
 24 81  1  0  0  0  0
 25 27  2  0  0  0  0
 25 80  1  0  0  0  0
 26 82  1  0  0  0  0
 27 83  1  0  0  0  0
 28 64  2  0  0  0  0
 29 50  1  0  0  0  0
 29 84  1  0  0  0  0
 30 65  1  0  0  0  0
 30 68  1  0  0  0  0
 31 70  1  0  0  0  0
 31 84  1  0  0  0  0
 32 69  1  0  0  0  0
 32 74  2  0  0  0  0
 33 48  1  0  0  0  0
 33 71  1  0  0  0  0
 33 75  2  0  0  0  0
 34 57  1  0  0  0  0
 34 60  1  0  0  0  0
 34 76  2  0  0  0  0
 35 61  1  0  0  0  0
 35 66  1  0  0  0  0
 35 77  2  0  0  0  0
 36 62  1  0  0  0  0
 36 72  1  0  0  0  0
 36 78  2  0  0  0  0
 37 67  1  0  0  0  0
 37 70  1  0  0  0  0
 37 79  2  0  0  0  0
 38 41  1  0  0  0  0
 39 48  1  0  0  0  0
 40 66  1  0  0  0  0
 41 43  1  0  0  0  0
 42 44  1  0  0  0  0
 42 45  1  0  0  0  0
 43 47  1  0  0  0  0
 44 49  1  0  0  0  0
 45 67  1  0  0  0  0
 46 49  1  0  0  0  0
 46 67  1  0  0  0  0
 47 71  1  0  0  0  0
 48 66  1  0  0  0  0
 49 65  1  0  0  0  0
 51 60  1  0  0  0  0
 52 62  1  0  0  0  0
 53 63  1  0  0  0  0
 54 63  1  0  0  0  0
 55 63  1  0  0  0  0
 56 73  1  0  0  0  0
 57 58  1  0  0  0  0
 58 59  1  0  0  0  0
 59 81  1  0  0  0  0
 61 63  1  0  0  0  0
 61 72  1  0  0  0  0
 62 73  1  0  0  0  0
 64 65  1  0  0  0  0
M  CHG  1  73   1
M  ISO  4  37 100  59 101  70 100  81 101
M  END
> <Batch ID>
0187

> <Smiles>
CNC(C)C(=O)NC(C(=O)N1Cc2cc([101O:1][101CH2:1]CCC(=O)C(C)c3cc([100NH:0][100C:0](=O)N4CCCC(n5nc(-c6ccc(Oc7ccc(F)cc7F)cc6)c(C(N)=O)c5N)C4)sc3C)ccc2CC1C(=O)NC1CCCc2ccccc21)C(C)(C)C

> <Shape>
0.197

> <Color>
0.062

> <Negative vol penalty>
0.000

$$$$

  -OEChem-04052305123D

 85 93  0     1  0  0  0  0  0999 V2000
  -16.5768  -29.9515   23.0002 C   0  0  0  0  0  0  0  0  0  0  0  0
  -17.6972  -30.5081   22.3918 C   0  0  0  0  0  0  0  0  0  0  0  0
  -27.2669  -13.2263   22.9789 C   0  0  0  0  0  0  0  0  0  0  0  0
  -26.3783  -13.3503   20.7357 C   0  0  0  0  0  0  0  0  0  0  0  0
  -16.7277  -28.9182   23.9241 C   0  0  0  0  0  0  0  0  0  0  0  0
  -18.9694  -30.0325   22.7077 C   0  0  0  0  0  0  0  0  0  0  0  0
  -25.4185  -28.9676   19.7765 C   0  0  0  0  0  0  0  0  0  0  0  0
  -26.1192  -12.5524   23.3963 C   0  0  0  0  0  0  0  0  0  0  0  0
  -25.2306  -12.6764   21.1530 C   0  0  0  0  0  0  0  0  0  0  0  0
  -26.7639  -29.2575   19.9991 C   0  0  0  0  0  0  0  0  0  0  0  0
  -24.3176   -9.4915   21.8186 C   0  0  0  0  0  0  0  0  0  0  0  0
  -23.8433   -8.4595   21.0089 C   0  0  0  0  0  0  0  0  0  0  0  0
  -26.8979  -27.4150   21.5504 C   0  0  0  0  0  0  0  0  0  0  0  0
  -21.7508   -9.6358   20.7355 C   0  0  0  0  0  0  0  0  0  0  0  0
  -27.3965  -13.6253   21.6486 C   0  0  0  0  0  0  0  0  0  0  0  0
  -29.7673  -13.7524   20.7155 C   0  0  0  0  0  0  0  0  0  0  0  0
  -18.0017  -28.4231   24.2443 C   0  0  0  0  0  0  0  0  0  0  0  0
  -24.7988  -27.9042   20.4485 C   0  0  0  0  0  0  0  0  0  0  0  0
  -19.1376  -28.9925   23.6377 C   0  0  0  0  0  0  0  0  0  0  0  0
  -25.5451  -27.1122   21.3326 C   0  0  0  0  0  0  0  0  0  0  0  0
  -25.1011  -12.2775   22.4834 C   0  0  0  0  0  0  0  0  0  0  0  0
  -27.5031  -28.4830   20.8884 C   0  0  0  0  0  0  0  0  0  0  0  0
  -23.5085  -10.5956   22.0869 C   0  0  0  0  0  0  0  0  0  0  0  0
  -22.5599   -8.5316   20.4673 C   0  0  0  0  0  0  0  0  0  0  0  0
  -22.2251  -10.6678   21.5452 C   0  0  0  0  0  0  0  0  0  0  0  0
  -28.5816  -14.3219   21.2169 C   0  0  0  0  0  0  0  0  0  0  0  0
  -28.4581  -24.9239   18.3486 C   0  0  0  0  0  0  0  0  0  0  0  0
  -29.5294  -24.0636   18.4678 C   0  0  0  0  0  0  0  0  0  0  0  0
  -30.5801  -14.8277   20.4521 C   0  0  0  0  0  0  0  0  0  0  0  0
  -29.8636  -26.2832   19.3419 C   0  0  0  0  0  0  0  0  0  0  0  0
  -30.1039  -12.3744   20.5065 C   0  0  0  0  0  0  0  0  0  0  0  0
  -22.3888  -27.6506   22.5056 C   0  0  0  0  0  0  0  0  0  0  0  0
  -22.8858  -24.4714   22.0959 C   0  0  0  0  0  0  0  0  0  0  0  0
  -25.0318  -21.9620   21.2331 C   0  0  0  0  0  0  0  0  0  0  0  0
  -29.3594  -20.4571   19.1576 C   0  0  0  0  0  0  0  0  0  0  0  0
  -18.1181  -27.3370   25.2842 C   0  0  0  0  0  0  0  0  0  0  0  0
  -23.3535  -27.5880   20.1772 C   0  0  0  0  0  0  0  0  0  0  0  0
  -24.9321  -25.9468   22.0638 C   0  0  0  0  0  0  0  0  0  0  0  0
  -19.4744  -26.6365   25.2840 C   0  0  0  0  0  0  0  0  0  0  0  0
  -31.4409  -19.3117   21.8876 C   0  0  0  0  0  0  0  0  0  0  0  0
  -20.6039  -27.6600   25.2252 C   0  0  0  0  0  0  0  0  0  0  0  0
  -31.0475  -17.8358   21.9715 C   0  0  0  0  0  0  0  0  0  0  0  0
  -30.2359  -20.1870   21.5558 C   0  0  0  0  0  0  0  0  0  0  0  0
  -29.1207  -18.3220   20.3932 C   0  0  0  0  0  0  0  0  0  0  0  0
  -20.5324  -28.4869   23.9357 C   0  0  1  0  0  0  0  0  0  0  0  0
  -22.6924  -26.8007   21.3043 C   0  0  1  0  0  0  0  0  0  0  0  0
  -30.2999  -17.3822   20.7036 C   0  0  2  0  0  0  0  0  0  0  0  0
  -27.1495  -24.6037   17.7425 C   0  0  0  0  0  0  0  0  0  0  0  0
  -25.7962  -19.6313   20.7032 C   0  0  0  0  0  0  0  0  0  0  0  0
  -30.7832  -29.7967   20.2679 C   0  0  0  0  0  0  0  0  0  0  0  0
  -23.1005  -24.2410   25.1308 C   0  0  0  0  0  0  0  0  0  0  0  0
  -24.1505  -21.9901   24.8159 C   0  0  0  0  0  0  0  0  0  0  0  0
  -21.8172  -22.3966   24.0328 C   0  0  0  0  0  0  0  0  0  0  0  0
  -30.6329  -23.0636   15.6981 C   0  0  0  0  0  0  0  0  0  0  0  0
  -24.3132  -22.2512   18.3767 C   0  0  0  0  0  0  0  0  0  0  0  0
  -29.6693  -22.6548   18.0482 C   0  0  1  0  0  0  0  0  0  0  0  0
  -23.7470  -23.4287   22.7668 C   0  0  1  0  0  0  0  0  0  0  0  0
  -24.8670  -20.7688   20.3092 C   0  0  2  0  0  0  0  0  0  0  0  0
  -29.7347  -28.7190   19.9966 C   0  0  1  0  0  0  0  0  0  1  0  0
  -23.2151  -23.0372   24.1744 C   0  0  0  0  0  0  0  0  0  0  0  0
  -30.8097  -22.3730   17.0374 C   0  0  0  0  0  0  0  0  0  0  0  0
  -28.6325  -15.6556   21.2700 N   0  0  0  0  0  0  0  0  0  0  0  0
  -28.6477  -26.1970   18.8497 N   0  0  0  0  0  0  0  0  0  0  0  0
  -29.8600  -15.9330   20.7986 N   0  0  0  0  0  0  0  0  0  0  0  0
  -23.5141  -25.6816   21.7697 N   0  0  0  0  0  0  0  0  0  0  0  0
  -29.5805  -19.7132   20.3286 N   0  0  0  0  0  0  0  0  0  0  0  0
  -31.8335  -14.9263   19.9603 N   0  0  0  0  0  0  0  0  0  0  0  0
  -29.1524  -11.3977   20.8302 N   0  0  0  0  0  0  0  0  0  0  0  0
  -30.3899  -27.4230   19.9262 N   0  0  0  0  0  0  0  0  0  0  0  0
  -21.0446  -27.7245   22.8173 N   0  0  0  0  0  0  0  0  0  0  0  0
  -23.8402  -22.3129   21.8316 N   0  0  0  0  0  0  0  0  0  0  0  0
  -29.8189  -21.7682   19.1806 N   0  0  0  0  0  0  0  0  0  0  0  0
  -25.1696  -21.1572   18.9026 N   0  3  0  0  0  0  0  0  0  0  0  0
  -31.2216  -12.0190   20.0617 O   0  0  0  0  0  0  0  0  0  0  0  0
  -23.3063  -28.1977   23.1061 O   0  0  0  0  0  0  0  0  0  0  0  0
  -21.7011  -24.2186   21.8631 O   0  0  0  0  0  0  0  0  0  0  0  0
  -26.1105  -22.5240   21.4093 O   0  0  0  0  0  0  0  0  0  0  0  0
  -28.7984  -19.9858   18.1624 O   0  0  0  0  0  0  0  0  0  0  0  0
  -23.9811  -11.6197   22.8903 O   0  0  0  0  0  0  0  0  0  0  0  0
  -28.8163  -28.7641   21.1080 O   0  0  0  0  0  0  0  0  0  1  0  0
  -22.1051   -7.5413   19.6885 F   0  0  0  0  0  0  0  0  0  0  0  0
  -21.4436  -11.7265   21.7984 F   0  0  0  0  0  0  0  0  0  0  0  0
  -30.9005  -21.0329   16.8050 F   0  0  0  0  0  0  0  0  0  0  0  0
  -32.0026  -22.7444   17.5690 F   0  0  0  0  0  0  0  0  0  0  0  0
  -30.8333  -24.8713   19.2351 S   0  0  0  0  0  0  0  0  0  0  0  0
  1  2  1  0  0  0  0
  1  5  2  0  0  0  0
  2  6  2  0  0  0  0
  3  8  2  0  0  0  0
  3 15  1  0  0  0  0
  4  9  1  0  0  0  0
  4 15  2  0  0  0  0
  5 17  1  0  0  0  0
  6 19  1  0  0  0  0
  7 10  2  0  0  0  0
  7 18  1  0  0  0  0
  8 21  1  0  0  0  0
  9 21  2  0  0  0  0
 10 22  1  0  0  0  0
 11 12  2  0  0  0  0
 11 23  1  0  0  0  0
 12 24  1  0  0  0  0
 13 20  1  0  0  0  0
 13 22  2  0  0  0  0
 14 24  2  0  0  0  0
 14 25  1  0  0  0  0
 15 26  1  0  0  0  0
 16 26  1  0  0  0  0
 16 29  2  0  0  0  0
 16 31  1  0  0  0  0
 17 19  2  0  0  0  0
 17 36  1  0  0  0  0
 18 20  2  0  0  0  0
 18 37  1  0  0  0  0
 19 45  1  0  0  0  0
 20 38  1  0  0  0  0
 21 79  1  0  0  0  0
 22 80  1  0  0  0  0
 23 25  2  0  0  0  0
 23 79  1  0  0  0  0
 24 81  1  0  0  0  0
 25 82  1  0  0  0  0
 26 62  2  0  0  0  0
 27 28  2  0  0  0  0
 27 48  1  0  0  0  0
 27 63  1  0  0  0  0
 28 56  1  0  0  0  0
 28 85  1  0  0  0  0
 29 64  1  0  0  0  0
 29 67  1  0  0  0  0
 30 63  2  0  0  0  0
 30 69  1  0  0  0  0
 30 85  1  0  0  0  0
 31 68  1  0  0  0  0
 31 74  2  0  0  0  0
 32 46  1  0  0  0  0
 32 70  1  0  0  0  0
 32 75  2  0  0  0  0
 33 57  1  0  0  0  0
 33 65  1  0  0  0  0
 33 76  2  0  0  0  0
 34 58  1  0  0  0  0
 34 71  1  0  0  0  0
 34 77  2  0  0  0  0
 35 66  1  0  0  0  0
 35 72  1  0  0  0  0
 35 78  2  0  0  0  0
 36 39  1  0  0  0  0
 37 46  1  0  0  0  0
 38 65  1  0  0  0  0
 39 41  1  0  0  0  0
 40 42  1  0  0  0  0
 40 43  1  0  0  0  0
 41 45  1  0  0  0  0
 42 47  1  0  0  0  0
 43 66  1  0  0  0  0
 44 47  1  0  0  0  0
 44 66  1  0  0  0  0
 45 70  1  0  0  0  0
 46 65  1  0  0  0  0
 47 64  1  0  0  0  0
 49 58  1  0  0  0  0
 50 59  1  0  0  0  0
 51 60  1  0  0  0  0
 52 60  1  0  0  0  0
 53 60  1  0  0  0  0
 54 61  1  0  0  0  0
 55 73  1  0  0  0  0
 56 61  1  0  0  0  0
 56 72  1  0  0  0  0
 57 60  1  0  0  0  0
 57 71  1  0  0  0  0
 58 73  1  0  0  0  0
 59 69  1  0  0  0  0
 59 80  1  0  0  0  0
 61 83  1  0  0  0  0
 61 84  1  0  0  0  0
 62 64  1  0  0  0  0
M  CHG  1  73   1
M  ISO  4  35 100  59 101  72 100  80 101
M  END
> <Batch ID>
0187

> <Smiles>
CNC(C)C(=O)NC(C(=O)N1Cc2cc([101O:1][101CH:1](C)Nc3nc(C)c(C([100NH:0][100C:0](=O)N4CCCC(n5nc(-c6ccc(Oc7ccc(F)cc7F)cc6)c(C(N)=O)c5N)C4)C(C)(F)F)s3)ccc2CC1C(=O)NC1CCCc2ccccc21)C(C)(C)C

> <Shape>
0.273

> <Color>
0.087

> <Negative vol penalty>
0.000

$$$$

  -OEChem-04052305123D

 83 91  0     1  0  0  0  0  0999 V2000
  -16.7943  -30.8345   23.8263 C   0  0  0  0  0  0  0  0  0  0  0  0
  -17.9934  -31.4966   24.0697 C   0  0  0  0  0  0  0  0  0  0  0  0
  -26.1779  -11.8295   20.9396 C   0  0  0  0  0  0  0  0  0  0  0  0
  -24.0516  -12.2513   19.8728 C   0  0  0  0  0  0  0  0  0  0  0  0
  -16.8045  -29.4919   23.4504 C   0  0  0  0  0  0  0  0  0  0  0  0
  -19.2034  -30.8161   23.9385 C   0  0  0  0  0  0  0  0  0  0  0  0
  -26.0255  -31.8754   22.0274 C   0  0  0  0  0  0  0  0  0  0  0  0
  -25.6555  -10.6762   21.5248 C   0  0  0  0  0  0  0  0  0  0  0  0
  -23.5292  -11.0979   20.4580 C   0  0  0  0  0  0  0  0  0  0  0  0
  -27.3209  -31.6713   22.5010 C   0  0  0  0  0  0  0  0  0  0  0  0
  -22.3355  -10.1584   23.4785 C   0  0  0  0  0  0  0  0  0  0  0  0
  -21.0700  -10.2424   24.0589 C   0  0  0  0  0  0  0  0  0  0  0  0
  -27.2201  -29.3749   21.7691 C   0  0  0  0  0  0  0  0  0  0  0  0
  -20.2614   -8.5450   22.5416 C   0  0  0  0  0  0  0  0  0  0  0  0
  -25.3760  -12.6171   20.1136 C   0  0  0  0  0  0  0  0  0  0  0  0
  -26.5606  -13.9124   18.2625 C   0  0  0  0  0  0  0  0  0  0  0  0
  -18.0156  -28.7972   23.3051 C   0  0  0  0  0  0  0  0  0  0  0  0
  -25.3126  -30.8261   21.4299 C   0  0  0  0  0  0  0  0  0  0  0  0
  -19.2297  -29.4626   23.5616 C   0  0  0  0  0  0  0  0  0  0  0  0
  -25.9169  -29.5690   21.2864 C   0  0  0  0  0  0  0  0  0  0  0  0
  -24.3312  -10.3104   21.2841 C   0  0  0  0  0  0  0  0  0  0  0  0
  -27.9173  -30.4201   22.3745 C   0  0  0  0  0  0  0  0  0  0  0  0
  -22.5640   -9.2677   22.4295 C   0  0  0  0  0  0  0  0  0  0  0  0
  -20.0329   -9.4357   23.5906 C   0  0  0  0  0  0  0  0  0  0  0  0
  -21.5269   -8.4610   21.9612 C   0  0  0  0  0  0  0  0  0  0  0  0
  -25.9149  -13.8089   19.5091 C   0  0  0  0  0  0  0  0  0  0  0  0
  -29.9431  -23.4819   20.3515 C   0  0  0  0  0  0  0  0  0  0  0  0
  -30.5716  -24.4771   19.6326 C   0  0  0  0  0  0  0  0  0  0  0  0
  -26.8798  -15.2436   18.1507 C   0  0  0  0  0  0  0  0  0  0  0  0
  -29.8918  -25.6799   21.3359 C   0  0  0  0  0  0  0  0  0  0  0  0
  -29.7900  -22.1098   20.0673 C   0  0  0  0  0  0  0  0  0  0  0  0
  -29.1261  -21.1752   20.8294 C   0  0  0  0  0  0  0  0  0  0  0  0
  -26.8463  -12.8962   17.2923 C   0  0  0  0  0  0  0  0  0  0  0  0
  -29.0443  -19.7681   20.3889 C   0  0  0  0  0  0  0  0  0  0  0  0
  -22.6178  -29.2787   22.0987 C   0  0  0  0  0  0  0  0  0  0  0  0
  -23.1768  -27.8643   19.2335 C   0  0  0  0  0  0  0  0  0  0  0  0
  -25.4335  -26.9747   16.8329 C   0  0  0  0  0  0  0  0  0  0  0  0
  -30.0010  -28.0726   22.1119 C   0  0  0  0  0  0  0  0  0  0  0  0
  -17.9742  -27.3338   22.9427 C   0  0  0  0  0  0  0  0  0  0  0  0
  -23.9261  -31.0697   20.9001 C   0  0  0  0  0  0  0  0  0  0  0  0
  -25.2016  -28.4150   20.6343 C   0  0  0  0  0  0  0  0  0  0  0  0
  -19.3159  -26.7872   22.4618 C   0  0  0  0  0  0  0  0  0  0  0  0
  -25.4552  -19.2266   20.8961 C   0  0  0  0  0  0  0  0  0  0  0  0
  -20.4394  -27.2370   23.3903 C   0  0  0  0  0  0  0  0  0  0  0  0
  -25.3244  -17.7533   20.5191 C   0  0  0  0  0  0  0  0  0  0  0  0
  -26.7935  -19.5279   21.5690 C   0  0  0  0  0  0  0  0  0  0  0  0
  -27.8434  -17.6162   20.3928 C   0  0  0  0  0  0  0  0  0  0  0  0
  -20.5637  -28.7653   23.4057 C   0  0  1  0  0  0  0  0  0  0  0  0
  -23.1022  -29.7920   20.7723 C   0  0  1  0  0  0  0  0  0  0  0  0
  -26.5238  -17.2997   19.6719 C   0  0  1  0  0  0  0  0  0  0  0  0
  -31.2611  -24.3168   18.3345 C   0  0  0  0  0  0  0  0  0  0  0  0
  -25.5978  -25.7954   14.6239 C   0  0  0  0  0  0  0  0  0  0  0  0
  -30.5494  -28.9967   24.3933 C   0  0  0  0  0  0  0  0  0  0  0  0
  -22.9271  -25.1751   20.6533 C   0  0  0  0  0  0  0  0  0  0  0  0
  -24.0166  -24.1052   18.6692 C   0  0  0  0  0  0  0  0  0  0  0  0
  -21.8292  -25.2756   18.4085 C   0  0  0  0  0  0  0  0  0  0  0  0
  -26.4338  -29.4078   15.4770 C   0  0  0  0  0  0  0  0  0  0  0  0
  -23.9275  -26.6374   18.7752 C   0  0  1  0  0  0  0  0  0  0  0  0
  -25.4134  -27.1332   15.3233 C   0  0  2  0  0  0  0  0  0  0  0  0
  -29.5042  -28.9046   23.2914 C   0  0  1  0  0  0  0  0  0  1  0  0
  -23.1881  -25.3193   19.1406 C   0  0  0  0  0  0  0  0  0  0  0  0
  -25.8283  -14.9809   20.1439 N   0  0  0  0  0  0  0  0  0  0  0  0
  -30.5428  -25.7381   20.1953 N   0  0  0  0  0  0  0  0  0  0  0  0
  -26.4239  -15.8335   19.2928 N   0  0  0  0  0  0  0  0  0  0  0  0
  -27.9226  -19.0325   20.7674 N   0  0  0  0  0  0  0  0  0  0  0  0
  -23.8455  -28.7014   20.1379 N   0  0  0  0  0  0  0  0  0  0  0  0
  -27.5033  -15.9554   17.1879 N   0  0  0  0  0  0  0  0  0  0  0  0
  -26.4488  -11.5804   17.5661 N   0  0  0  0  0  0  0  0  0  0  0  0
  -29.6279  -26.7384   22.2375 N   0  0  0  0  0  0  0  0  0  0  0  0
  -21.2416  -29.2293   22.2142 N   0  0  0  0  0  0  0  0  0  0  0  0
  -24.1640  -26.8134   17.3464 N   0  0  0  0  0  0  0  0  0  0  0  0
  -26.5051  -28.0476   14.8839 N   0  3  0  0  0  0  0  0  0  0  0  0
  -27.4512  -13.1446   16.2218 O   0  0  0  0  0  0  0  0  0  0  0  0
  -29.9779  -19.3279   19.7157 O   0  0  0  0  0  0  0  0  0  0  0  0
  -23.4321  -28.9502   22.9534 O   0  0  0  0  0  0  0  0  0  0  0  0
  -22.0418  -28.0761   18.7992 O   0  0  0  0  0  0  0  0  0  0  0  0
  -26.4718  -26.9885   17.4904 O   0  0  0  0  0  0  0  0  0  0  0  0
  -30.6318  -28.5855   21.1921 O   0  0  0  0  0  0  0  0  0  0  0  0
  -23.8212   -9.1849   21.8548 O   0  0  0  0  0  0  0  0  0  0  0  0
  -29.1812  -30.2180   22.8365 O   0  0  0  0  0  0  0  0  0  1  0  0
  -18.8181   -9.5154   24.1491 F   0  0  0  0  0  0  0  0  0  0  0  0
  -21.7407   -7.6026   20.9545 F   0  0  0  0  0  0  0  0  0  0  0  0
  -29.2876  -24.1402   21.7932 S   0  0  0  0  0  0  0  0  0  0  0  0
  1  2  1  0  0  0  0
  1  5  2  0  0  0  0
  2  6  2  0  0  0  0
  3  8  2  0  0  0  0
  3 15  1  0  0  0  0
  4  9  1  0  0  0  0
  4 15  2  0  0  0  0
  5 17  1  0  0  0  0
  6 19  1  0  0  0  0
  7 10  2  0  0  0  0
  7 18  1  0  0  0  0
  8 21  1  0  0  0  0
  9 21  2  0  0  0  0
 10 22  1  0  0  0  0
 11 12  2  0  0  0  0
 11 23  1  0  0  0  0
 12 24  1  0  0  0  0
 13 20  1  0  0  0  0
 13 22  2  0  0  0  0
 14 24  2  0  0  0  0
 14 25  1  0  0  0  0
 15 26  1  0  0  0  0
 16 26  1  0  0  0  0
 16 29  2  0  0  0  0
 16 33  1  0  0  0  0
 17 19  2  0  0  0  0
 17 39  1  0  0  0  0
 18 20  2  0  0  0  0
 18 40  1  0  0  0  0
 19 48  1  0  0  0  0
 20 41  1  0  0  0  0
 21 79  1  0  0  0  0
 22 80  1  0  0  0  0
 23 25  2  0  0  0  0
 23 79  1  0  0  0  0
 24 81  1  0  0  0  0
 25 82  1  0  0  0  0
 26 62  2  0  0  0  0
 27 28  2  0  0  0  0
 27 31  1  0  0  0  0
 27 83  1  0  0  0  0
 28 51  1  0  0  0  0
 28 63  1  0  0  0  0
 29 64  1  0  0  0  0
 29 67  1  0  0  0  0
 30 63  2  0  0  0  0
 30 69  1  0  0  0  0
 30 83  1  0  0  0  0
 31 32  2  0  0  0  0
 32 34  1  0  0  0  0
 33 68  1  0  0  0  0
 33 73  2  0  0  0  0
 34 65  1  0  0  0  0
 34 74  2  0  0  0  0
 35 49  1  0  0  0  0
 35 70  1  0  0  0  0
 35 75  2  0  0  0  0
 36 58  1  0  0  0  0
 36 66  1  0  0  0  0
 36 76  2  0  0  0  0
 37 59  1  0  0  0  0
 37 71  1  0  0  0  0
 37 77  2  0  0  0  0
 38 60  1  0  0  0  0
 38 69  1  0  0  0  0
 38 78  2  0  0  0  0
 39 42  1  0  0  0  0
 40 49  1  0  0  0  0
 41 66  1  0  0  0  0
 42 44  1  0  0  0  0
 43 45  1  0  0  0  0
 43 46  1  0  0  0  0
 44 48  1  0  0  0  0
 45 50  1  0  0  0  0
 46 65  1  0  0  0  0
 47 50  1  0  0  0  0
 47 65  1  0  0  0  0
 48 70  1  0  0  0  0
 49 66  1  0  0  0  0
 50 64  1  0  0  0  0
 52 59  1  0  0  0  0
 53 60  1  0  0  0  0
 54 61  1  0  0  0  0
 55 61  1  0  0  0  0
 56 61  1  0  0  0  0
 57 72  1  0  0  0  0
 58 61  1  0  0  0  0
 58 71  1  0  0  0  0
 59 72  1  0  0  0  0
 60 80  1  0  0  0  0
 62 64  1  0  0  0  0
M  CHG  1  72   1
M  ISO  4  32 100  34 100  60 101  80 101
M  END
> <Batch ID>
0187

> <Smiles>
CNC(C)C(=O)NC(C(=O)N1Cc2cc([101O:1][101CH:1](C)C(=O)Nc3nc(C)c(C=[100CH:0][100C:0](=O)N4CCCC(n5nc(-c6ccc(Oc7ccc(F)cc7F)cc6)c(C(N)=O)c5N)C4)s3)ccc2CC1C(=O)NC1CCCc2ccccc21)C(C)(C)C

> <Shape>
0.291

> <Color>
0.107

> <Negative vol penalty>
0.000

$$$$

  -OEChem-04052305123D

 83 91  0     1  0  0  0  0  0999 V2000
  -24.5008  -20.8384   17.5249 C   0  0  0  0  0  0  0  0  0  0  0  0
  -23.9871  -22.0195   18.0509 C   0  0  0  0  0  0  0  0  0  0  0  0
  -23.0793  -13.7715   21.0806 C   0  0  0  0  0  0  0  0  0  0  0  0
  -24.8815  -14.7037   22.3921 C   0  0  0  0  0  0  0  0  0  0  0  0
  -25.7893  -20.4279   17.8642 C   0  0  0  0  0  0  0  0  0  0  0  0
  -24.7614  -22.7903   18.9174 C   0  0  0  0  0  0  0  0  0  0  0  0
  -24.8161  -28.8982   19.3597 C   0  0  0  0  0  0  0  0  0  0  0  0
  -23.9458  -12.7995   20.5806 C   0  0  0  0  0  0  0  0  0  0  0  0
  -25.7481  -13.7317   21.8921 C   0  0  0  0  0  0  0  0  0  0  0  0
  -24.1905  -29.7806   20.2394 C   0  0  0  0  0  0  0  0  0  0  0  0
  -27.5002  -13.1784   19.0540 C   0  0  0  0  0  0  0  0  0  0  0  0
  -28.7633  -13.5921   18.6309 C   0  0  0  0  0  0  0  0  0  0  0  0
  -26.1908  -29.8468   21.5861 C   0  0  0  0  0  0  0  0  0  0  0  0
  -29.7875  -12.1319   20.2606 C   0  0  0  0  0  0  0  0  0  0  0  0
  -23.5471  -14.7236   21.9863 C   0  0  0  0  0  0  0  0  0  0  0  0
  -21.8552  -15.6428   23.6596 C   0  0  0  0  0  0  0  0  0  0  0  0
  -26.5833  -21.1990   18.7277 C   0  0  0  0  0  0  0  0  0  0  0  0
  -26.1323  -28.4743   19.5930 C   0  0  0  0  0  0  0  0  0  0  0  0
  -26.0613  -22.3890   19.2696 C   0  0  0  0  0  0  0  0  0  0  0  0
  -26.8317  -28.9610   20.7065 C   0  0  0  0  0  0  0  0  0  0  0  0
  -25.2802  -12.7796   20.9864 C   0  0  0  0  0  0  0  0  0  0  0  0
  -24.8768  -30.2528   21.3543 C   0  0  0  0  0  0  0  0  0  0  0  0
  -27.3807  -12.2415   20.0805 C   0  0  0  0  0  0  0  0  0  0  0  0
  -29.9069  -13.0688   19.2341 C   0  0  0  0  0  0  0  0  0  0  0  0
  -28.5244  -11.7182   20.6838 C   0  0  0  0  0  0  0  0  0  0  0  0
  -22.6526  -15.7283   22.5027 C   0  0  0  0  0  0  0  0  0  0  0  0
  -20.1438  -25.8769   23.0574 C   0  0  0  0  0  0  0  0  0  0  0  0
  -19.0380  -26.1366   22.2752 C   0  0  0  0  0  0  0  0  0  0  0  0
  -21.1957  -16.8465   23.7118 C   0  0  0  0  0  0  0  0  0  0  0  0
  -20.6486  -27.9202   22.4409 C   0  0  0  0  0  0  0  0  0  0  0  0
  -21.7225  -14.5712   24.6029 C   0  0  0  0  0  0  0  0  0  0  0  0
  -27.5205  -25.6687   20.1455 C   0  0  0  0  0  0  0  0  0  0  0  0
  -30.2455  -27.4164   19.9393 C   0  0  0  0  0  0  0  0  0  0  0  0
  -31.7587  -30.4646   20.1949 C   0  0  0  0  0  0  0  0  0  0  0  0
  -22.4985  -29.5894   22.8020 C   0  0  0  0  0  0  0  0  0  0  0  0
  -21.2386  -22.3106   23.4136 C   0  0  0  0  0  0  0  0  0  0  0  0
  -27.9527  -20.6904   19.1028 C   0  0  0  0  0  0  0  0  0  0  0  0
  -26.8021  -27.5430   18.6201 C   0  0  0  0  0  0  0  0  0  0  0  0
  -28.2532  -28.5523   20.9909 C   0  0  0  0  0  0  0  0  0  0  0  0
  -28.8469  -21.7557   19.7319 C   0  0  0  0  0  0  0  0  0  0  0  0
  -20.8149  -20.5459   20.2824 C   0  0  0  0  0  0  0  0  0  0  0  0
  -28.0824  -22.5320   20.7995 C   0  0  0  0  0  0  0  0  0  0  0  0
  -21.1929  -19.1190   20.6839 C   0  0  0  0  0  0  0  0  0  0  0  0
  -21.6905  -21.5714   20.9965 C   0  0  0  0  0  0  0  0  0  0  0  0
  -22.0620  -20.0333   22.8859 C   0  0  0  0  0  0  0  0  0  0  0  0
  -26.8796  -23.2650   20.1933 C   0  0  1  0  0  0  0  0  0  0  0  0
  -27.9691  -26.7759   19.2341 C   0  0  1  0  0  0  0  0  0  0  0  0
  -21.1977  -18.9503   22.2149 C   0  0  2  0  0  0  0  0  0  0  0  0
  -17.8753  -25.2836   21.9582 C   0  0  0  0  0  0  0  0  0  0  0  0
  -34.0028  -31.5718   20.0065 C   0  0  0  0  0  0  0  0  0  0  0  0
  -22.3586  -32.0493   23.3395 C   0  0  0  0  0  0  0  0  0  0  0  0
  -31.0320  -26.2797   22.6595 C   0  0  0  0  0  0  0  0  0  0  0  0
  -32.7473  -28.0941   22.8439 C   0  0  0  0  0  0  0  0  0  0  0  0
  -32.9026  -26.4155   21.0052 C   0  0  0  0  0  0  0  0  0  0  0  0
  -30.8447  -32.2022   17.9803 C   0  0  0  0  0  0  0  0  0  0  0  0
  -20.4175  -24.6221   23.7871 C   0  0  0  0  0  0  0  0  0  0  0  0
  -31.0992  -28.1852   20.9186 C   0  0  1  0  0  0  0  0  0  0  0  0
  -32.7250  -31.1897   19.2757 C   0  0  2  0  0  0  0  0  0  0  0  0
  -22.8520  -31.0040   22.3500 C   0  0  1  0  0  0  0  0  0  1  0  0
  -31.9178  -27.2500   21.8528 C   0  0  0  0  0  0  0  0  0  0  0  0
  -22.5138  -16.8941   21.8657 N   0  0  0  0  0  0  0  0  0  0  0  0
  -21.0686  -26.8983   23.1533 N   0  0  0  0  0  0  0  0  0  0  0  0
  -21.6214  -17.5521   22.6251 N   0  0  0  0  0  0  0  0  0  0  0  0
  -28.8626  -27.6350   20.0137 N   0  0  0  0  0  0  0  0  0  0  0  0
  -21.6362  -21.3678   22.4511 N   0  0  0  0  0  0  0  0  0  0  0  0
  -20.2990  -17.3595   24.5807 N   0  0  0  0  0  0  0  0  0  0  0  0
  -22.4728  -13.4051   24.3992 N   0  0  0  0  0  0  0  0  0  0  0  0
  -21.2869  -29.1706   22.2620 N   0  0  0  0  0  0  0  0  0  0  0  0
  -27.3118  -24.4623   19.5048 N   0  0  0  0  0  0  0  0  0  0  0  0
  -31.9140  -29.0964   20.1223 N   0  0  0  0  0  0  0  0  0  0  0  0
  -20.8570  -23.5520   22.9196 N   0  0  0  0  0  0  0  0  0  0  0  0
  -32.0990  -32.4325   18.7425 N   0  3  0  0  0  0  0  0  0  0  0  0
  -20.9487  -14.6391   25.5878 O   0  0  0  0  0  0  0  0  0  0  0  0
  -27.3760  -25.8920   21.3417 O   0  0  0  0  0  0  0  0  0  0  0  0
  -30.7864  -26.6554   19.1331 O   0  0  0  0  0  0  0  0  0  0  0  0
  -30.9498  -31.0532   20.9088 O   0  0  0  0  0  0  0  0  0  0  0  0
  -23.2454  -28.9513   23.5383 O   0  0  0  0  0  0  0  0  0  0  0  0
  -21.2197  -22.0626   24.6241 O   0  0  0  0  0  0  0  0  0  0  0  0
  -26.1260  -11.8312   20.4989 O   0  0  0  0  0  0  0  0  0  0  0  0
  -24.2683  -31.1136   22.2149 O   0  0  0  0  0  0  0  0  0  1  0  0
  -31.1198  -13.4651   18.8267 F   0  0  0  0  0  0  0  0  0  0  0  0
  -28.4159  -10.8170   21.6696 F   0  0  0  0  0  0  0  0  0  0  0  0
  -19.1492  -27.7218   21.6300 S   0  0  0  0  0  0  0  0  0  0  0  0
  1  2  1  0  0  0  0
  1  5  2  0  0  0  0
  2  6  2  0  0  0  0
  3  8  2  0  0  0  0
  3 15  1  0  0  0  0
  4  9  1  0  0  0  0
  4 15  2  0  0  0  0
  5 17  1  0  0  0  0
  6 19  1  0  0  0  0
  7 10  2  0  0  0  0
  7 18  1  0  0  0  0
  8 21  1  0  0  0  0
  9 21  2  0  0  0  0
 10 22  1  0  0  0  0
 11 12  2  0  0  0  0
 11 23  1  0  0  0  0
 12 24  1  0  0  0  0
 13 20  1  0  0  0  0
 13 22  2  0  0  0  0
 14 24  2  0  0  0  0
 14 25  1  0  0  0  0
 15 26  1  0  0  0  0
 16 26  1  0  0  0  0
 16 29  2  0  0  0  0
 16 31  1  0  0  0  0
 17 19  2  0  0  0  0
 17 37  1  0  0  0  0
 18 20  2  0  0  0  0
 18 38  1  0  0  0  0
 19 46  1  0  0  0  0
 20 39  1  0  0  0  0
 21 79  1  0  0  0  0
 22 80  1  0  0  0  0
 23 25  2  0  0  0  0
 23 79  1  0  0  0  0
 24 81  1  0  0  0  0
 25 82  1  0  0  0  0
 26 61  2  0  0  0  0
 27 28  2  0  0  0  0
 27 56  1  0  0  0  0
 27 62  1  0  0  0  0
 28 49  1  0  0  0  0
 28 83  1  0  0  0  0
 29 63  1  0  0  0  0
 29 66  1  0  0  0  0
 30 62  2  0  0  0  0
 30 68  1  0  0  0  0
 30 83  1  0  0  0  0
 31 67  1  0  0  0  0
 31 73  2  0  0  0  0
 32 47  1  0  0  0  0
 32 69  1  0  0  0  0
 32 74  2  0  0  0  0
 33 57  1  0  0  0  0
 33 64  1  0  0  0  0
 33 75  2  0  0  0  0
 34 58  1  0  0  0  0
 34 70  1  0  0  0  0
 34 76  2  0  0  0  0
 35 59  1  0  0  0  0
 35 68  1  0  0  0  0
 35 77  2  0  0  0  0
 36 65  1  0  0  0  0
 36 71  1  0  0  0  0
 36 78  2  0  0  0  0
 37 40  1  0  0  0  0
 38 47  1  0  0  0  0
 39 64  1  0  0  0  0
 40 42  1  0  0  0  0
 41 43  1  0  0  0  0
 41 44  1  0  0  0  0
 42 46  1  0  0  0  0
 43 48  1  0  0  0  0
 44 65  1  0  0  0  0
 45 48  1  0  0  0  0
 45 65  1  0  0  0  0
 46 69  1  0  0  0  0
 47 64  1  0  0  0  0
 48 63  1  0  0  0  0
 50 58  1  0  0  0  0
 51 59  1  0  0  0  0
 52 60  1  0  0  0  0
 53 60  1  0  0  0  0
 54 60  1  0  0  0  0
 55 72  1  0  0  0  0
 56 71  1  0  0  0  0
 57 60  1  0  0  0  0
 57 70  1  0  0  0  0
 58 72  1  0  0  0  0
 59 80  1  0  0  0  0
 61 63  1  0  0  0  0
M  CHG  1  72   1
M  ISO  4  36 100  59 101  71 100  80 101
M  END
> <Batch ID>
0187

> <Smiles>
CNC(C)C(=O)NC(C(=O)N1Cc2cc([101O:1][101CH:1](C)C(=O)Nc3nc(C[100NH:0][100C:0](=O)N4CCCC(n5nc(-c6ccc(Oc7ccc(F)cc7F)cc6)c(C(N)=O)c5N)C4)c(C)s3)ccc2CC1C(=O)NC1CCCc2ccccc21)C(C)(C)C

> <Shape>
0.231

> <Color>
0.092

> <Negative vol penalty>
0.000

$$$$

  -OEChem-04052305123D

 83 91  0     1  0  0  0  0  0999 V2000
  -29.0869  -22.8587   16.3452 C   0  0  0  0  0  0  0  0  0  0  0  0
  -28.0058  -22.9953   17.2099 C   0  0  0  0  0  0  0  0  0  0  0  0
  -27.4593  -16.0502   18.9277 C   0  0  0  0  0  0  0  0  0  0  0  0
  -27.3840  -16.3404   21.3250 C   0  0  0  0  0  0  0  0  0  0  0  0
  -30.2570  -23.5815   16.5742 C   0  0  0  0  0  0  0  0  0  0  0  0
  -28.0944  -23.8541   18.3049 C   0  0  0  0  0  0  0  0  0  0  0  0
  -23.9544  -26.7153   18.8698 C   0  0  0  0  0  0  0  0  0  0  0  0
  -28.6734  -16.7353   18.8828 C   0  0  0  0  0  0  0  0  0  0  0  0
  -28.5982  -17.0256   21.2802 C   0  0  0  0  0  0  0  0  0  0  0  0
  -22.8363  -26.1113   19.4432 C   0  0  0  0  0  0  0  0  0  0  0  0
  -29.6796  -20.1293   20.4878 C   0  0  0  0  0  0  0  0  0  0  0  0
  -29.7869  -21.3070   21.2275 C   0  0  0  0  0  0  0  0  0  0  0  0
  -23.3792  -27.1308   21.5610 C   0  0  0  0  0  0  0  0  0  0  0  0
  -31.6052  -20.3452   22.4948 C   0  0  0  0  0  0  0  0  0  0  0  0
  -19.3117  -20.3864   23.7730 C   0  0  0  0  0  0  0  0  0  0  0  0
  -26.8145  -15.8528   20.1488 C   0  0  0  0  0  0  0  0  0  0  0  0
  -25.3707  -13.7601   20.3576 C   0  0  0  0  0  0  0  0  0  0  0  0
  -30.3565  -24.4570   17.6670 C   0  0  0  0  0  0  0  0  0  0  0  0
  -24.8008  -27.5242   19.6416 C   0  0  0  0  0  0  0  0  0  0  0  0
  -29.2673  -24.5884   18.5495 C   0  0  0  0  0  0  0  0  0  0  0  0
  -24.5059  -27.7460   20.9944 C   0  0  0  0  0  0  0  0  0  0  0  0
  -29.2429  -17.2230   20.0591 C   0  0  0  0  0  0  0  0  0  0  0  0
  -22.5502  -26.3166   20.7897 C   0  0  0  0  0  0  0  0  0  0  0  0
  -30.5351  -19.0596   20.7516 C   0  0  0  0  0  0  0  0  0  0  0  0
  -30.7497  -21.4149   22.2310 C   0  0  0  0  0  0  0  0  0  0  0  0
  -31.4979  -19.1676   21.7551 C   0  0  0  0  0  0  0  0  0  0  0  0
  -25.5600  -15.1456   20.1956 C   0  0  0  0  0  0  0  0  0  0  0  0
  -20.1456  -19.9545   22.7630 C   0  0  0  0  0  0  0  0  0  0  0  0
  -24.0073  -13.5949   20.3356 C   0  0  0  0  0  0  0  0  0  0  0  0
  -19.7054  -22.3221   22.8202 C   0  0  0  0  0  0  0  0  0  0  0  0
  -26.3405  -12.7158   20.5141 C   0  0  0  0  0  0  0  0  0  0  0  0
  -27.8609  -27.3992   20.4923 C   0  0  0  0  0  0  0  0  0  0  0  0
  -19.7010  -17.8984   21.4669 C   0  0  0  0  0  0  0  0  0  0  0  0
  -27.2295  -30.3248   21.7430 C   0  0  0  0  0  0  0  0  0  0  0  0
  -19.0669  -24.7390   23.1341 C   0  0  0  0  0  0  0  0  0  0  0  0
  -24.9160  -32.5135   22.9694 C   0  0  0  0  0  0  0  0  0  0  0  0
  -31.6586  -25.1814   17.9005 C   0  0  0  0  0  0  0  0  0  0  0  0
  -25.9879  -28.1902   19.0016 C   0  0  0  0  0  0  0  0  0  0  0  0
  -25.3716  -28.6220   21.8614 C   0  0  0  0  0  0  0  0  0  0  0  0
  -31.5378  -26.3537   18.8709 C   0  0  0  0  0  0  0  0  0  0  0  0
  -20.2213  -15.9190   18.3903 C   0  0  0  0  0  0  0  0  0  0  0  0
  -30.7445  -25.9435   20.1075 C   0  0  0  0  0  0  0  0  0  0  0  0
  -21.4889  -15.0993   18.6359 C   0  0  0  0  0  0  0  0  0  0  0  0
  -19.4593  -16.2193   19.6733 C   0  0  0  0  0  0  0  0  0  0  0  0
  -21.7224  -16.6020   20.6767 C   0  0  0  0  0  0  0  0  0  0  0  0
  -29.3162  -25.5288   19.7341 C   0  0  1  0  0  0  0  0  0  0  0  0
  -27.0682  -28.5794   20.0061 C   0  0  1  0  0  0  0  0  0  0  0  0
  -22.0152  -15.2179   20.0772 C   0  0  2  0  0  0  0  0  0  0  0  0
  -18.5643  -27.1874   23.1699 C   0  0  0  0  0  0  0  0  0  0  0  0
  -24.7062  -34.8139   23.9501 C   0  0  0  0  0  0  0  0  0  0  0  0
  -28.3413  -29.2946   24.3910 C   0  0  0  0  0  0  0  0  0  0  0  0
  -27.2534  -31.2431   25.5259 C   0  0  0  0  0  0  0  0  0  0  0  0
  -29.0234  -31.6297   23.8112 C   0  0  0  0  0  0  0  0  0  0  0  0
  -23.1575  -33.4181   20.7675 C   0  0  0  0  0  0  0  0  0  0  0  0
  -20.8361  -26.4161   22.4353 C   0  0  0  0  0  0  0  0  0  1  0  0
  -20.6173  -18.5931   22.4445 C   0  0  2  0  0  0  0  0  0  0  0  0
  -26.7388  -30.8341   23.0767 C   0  0  1  0  0  0  0  0  0  0  0  0
  -19.3416  -26.0858   22.4506 C   0  0  1  0  0  0  0  0  0  0  0  0
  -24.6647  -33.9819   22.6777 C   0  0  2  0  0  0  0  0  0  0  0  0
  -27.8238  -30.7323   24.1856 C   0  0  0  0  0  0  0  0  0  0  0  0
  -19.0585  -21.7438   23.8076 N   0  0  0  0  0  0  0  0  0  0  0  0
  -24.4090  -15.8132   20.0792 N   0  0  0  0  0  0  0  0  0  0  0  0
  -23.4833  -14.8429   20.1680 N   0  0  0  0  0  0  0  0  0  0  0  0
  -26.5244  -29.2459   21.1911 N   0  0  0  0  0  0  0  0  0  0  0  0
  -20.2909  -16.9376   20.6422 N   0  0  0  0  0  0  0  0  0  0  0  0
  -23.2176  -12.5054   20.4435 N   0  0  0  0  0  0  0  0  0  0  0  0
  -27.6991  -13.0601   20.5143 N   0  0  0  0  0  0  0  0  0  0  0  0
  -19.7271  -23.6976   22.4873 N   0  0  0  0  0  0  0  0  0  0  0  0
  -28.4988  -26.6974   19.4873 N   0  0  0  0  0  0  0  0  0  0  0  0
  -26.2499  -32.1884   22.8417 N   0  0  0  0  0  0  0  0  0  0  0  0
  -23.3292  -34.1625   22.0416 N   0  3  0  0  0  0  0  0  0  0  0  0
  -26.0126  -11.5109   20.6332 O   0  0  0  0  0  0  0  0  0  0  0  0
  -27.8927  -27.1451   21.6907 O   0  0  0  0  0  0  0  0  0  0  0  0
  -18.5039  -18.1941   21.4394 O   0  0  0  0  0  0  0  0  0  0  0  0
  -28.1982  -30.8690   21.2071 O   0  0  0  0  0  0  0  0  0  0  0  0
  -18.3397  -24.6527   24.1194 O   0  0  0  0  0  0  0  0  0  0  0  0
  -24.0193  -31.7337   23.2830 O   0  0  0  0  0  0  0  0  0  0  0  0
  -30.4278  -17.8914   20.0158 O   0  0  0  0  0  0  0  0  0  0  0  0
  -21.4599  -25.7277   21.3521 O   0  0  0  0  0  0  0  0  0  1  0  0
  -30.8537  -22.5465   22.9403 F   0  0  0  0  0  0  0  0  0  0  0  0
  -32.3233  -18.1437   22.0123 F   0  0  0  0  0  0  0  0  0  0  0  0
  -20.7677  -17.7841   23.5481 F   0  0  0  0  0  0  0  0  0  0  0  0
  -20.6372  -21.2936   21.8108 S   0  0  0  0  0  0  0  0  0  0  0  0
  1  2  1  0  0  0  0
  1  5  2  0  0  0  0
  2  6  2  0  0  0  0
  3  8  2  0  0  0  0
  3 16  1  0  0  0  0
  4  9  1  0  0  0  0
  4 16  2  0  0  0  0
  5 18  1  0  0  0  0
  6 20  1  0  0  0  0
  7 10  2  0  0  0  0
  7 19  1  0  0  0  0
  8 22  1  0  0  0  0
  9 22  2  0  0  0  0
 10 23  1  0  0  0  0
 11 12  2  0  0  0  0
 11 24  1  0  0  0  0
 12 25  1  0  0  0  0
 13 21  1  0  0  0  0
 13 23  2  0  0  0  0
 14 25  2  0  0  0  0
 14 26  1  0  0  0  0
 15 28  2  0  0  0  0
 15 61  1  0  0  0  0
 16 27  1  0  0  0  0
 17 27  1  0  0  0  0
 17 29  2  0  0  0  0
 17 31  1  0  0  0  0
 18 20  2  0  0  0  0
 18 37  1  0  0  0  0
 19 21  2  0  0  0  0
 19 38  1  0  0  0  0
 20 46  1  0  0  0  0
 21 39  1  0  0  0  0
 22 78  1  0  0  0  0
 23 79  1  0  0  0  0
 24 26  2  0  0  0  0
 24 78  1  0  0  0  0
 25 80  1  0  0  0  0
 26 81  1  0  0  0  0
 27 62  2  0  0  0  0
 28 56  1  0  0  0  0
 28 83  1  0  0  0  0
 29 63  1  0  0  0  0
 29 66  1  0  0  0  0
 30 61  2  0  0  0  0
 30 68  1  0  0  0  0
 30 83  1  0  0  0  0
 31 67  1  0  0  0  0
 31 72  2  0  0  0  0
 32 47  1  0  0  0  0
 32 69  1  0  0  0  0
 32 73  2  0  0  0  0
 33 56  1  0  0  0  0
 33 65  1  0  0  0  0
 33 74  2  0  0  0  0
 34 57  1  0  0  0  0
 34 64  1  0  0  0  0
 34 75  2  0  0  0  0
 35 58  1  0  0  0  0
 35 68  1  0  0  0  0
 35 76  2  0  0  0  0
 36 59  1  0  0  0  0
 36 70  1  0  0  0  0
 36 77  2  0  0  0  0
 37 40  1  0  0  0  0
 38 47  1  0  0  0  0
 39 64  1  0  0  0  0
 40 42  1  0  0  0  0
 41 43  1  0  0  0  0
 41 44  1  0  0  0  0
 42 46  1  0  0  0  0
 43 48  1  0  0  0  0
 44 65  1  0  0  0  0
 45 48  1  0  0  0  0
 45 65  1  0  0  0  0
 46 69  1  0  0  0  0
 47 64  1  0  0  0  0
 48 63  1  0  0  0  0
 49 58  1  0  0  0  0
 50 59  1  0  0  0  0
 51 60  1  0  0  0  0
 52 60  1  0  0  0  0
 53 60  1  0  0  0  0
 54 71  1  0  0  0  0
 55 58  1  0  0  0  0
 55 79  1  0  0  0  0
 56 82  1  0  0  0  0
 57 60  1  0  0  0  0
 57 70  1  0  0  0  0
 59 71  1  0  0  0  0
 62 63  1  0  0  0  0
M  CHG  1  71   1
M  ISO  4  33 100  55 101  56 100  79 101
M  END
> <Batch ID>
0187

> <Smiles>
CNC(C)C(=O)NC(C(=O)N1Cc2cc([101O:1][101CH2:1]C(C)C(=O)Nc3ncc([100CH:0](F)[100C:0](=O)N4CCCC(n5nc(-c6ccc(Oc7ccc(F)cc7F)cc6)c(C(N)=O)c5N)C4)s3)ccc2CC1C(=O)NC1CCCc2ccccc21)C(C)(C)C

> <Shape>
0.261

> <Color>
0.067

> <Negative vol penalty>
0.000

$$$$

  -OEChem-04052305123D

 86 94  0     1  0  0  0  0  0999 V2000
  -22.8554   -7.8614   21.7897 C   0  0  0  0  0  0  0  0  0  0  0  0
  -24.1666   -8.3257   21.7638 C   0  0  0  0  0  0  0  0  0  0  0  0
  -23.9914  -30.9210   23.7917 C   0  0  0  0  0  0  0  0  0  0  0  0
  -24.1252  -30.8158   21.3817 C   0  0  0  0  0  0  0  0  0  0  0  0
  -21.8239   -8.6622   21.3012 C   0  0  0  0  0  0  0  0  0  0  0  0
  -24.4472   -9.5906   21.2485 C   0  0  0  0  0  0  0  0  0  0  0  0
  -28.9296  -15.1089   22.1275 C   0  0  0  0  0  0  0  0  0  0  0  0
  -24.0218  -32.3142   23.7327 C   0  0  0  0  0  0  0  0  0  0  0  0
  -24.1556  -32.2091   21.3226 C   0  0  0  0  0  0  0  0  0  0  0  0
  -29.7981  -15.9181   21.3963 C   0  0  0  0  0  0  0  0  0  0  0  0
  -26.3380  -34.7389   23.3078 C   0  0  0  0  0  0  0  0  0  0  0  0
  -27.1766  -35.4065   24.2004 C   0  0  0  0  0  0  0  0  0  0  0  0
  -28.0773  -24.6356   17.6001 C   0  0  0  0  0  0  0  0  0  0  0  0
  -29.3688  -23.0583   16.3239 C   0  0  0  0  0  0  0  0  0  0  0  0
  -27.9260  -17.2454   20.6529 C   0  0  0  0  0  0  0  0  0  0  0  0
  -25.2683  -36.5604   25.1301 C   0  0  0  0  0  0  0  0  0  0  0  0
  -24.0432  -30.1717   22.6162 C   0  0  0  0  0  0  0  0  0  0  0  0
  -28.4637  -24.1128   16.3710 C   0  0  0  0  0  0  0  0  0  0  0  0
  -22.8741  -27.9046   22.6494 C   0  0  0  0  0  0  0  0  0  0  0  0
  -22.0907   -9.9415   20.7885 C   0  0  0  0  0  0  0  0  0  0  0  0
  -27.5492  -15.3557   22.1181 C   0  0  0  0  0  0  0  0  0  0  0  0
  -23.4184  -10.4087   20.7514 C   0  0  0  0  0  0  0  0  0  0  0  0
  -27.0423  -16.4394   21.3869 C   0  0  0  0  0  0  0  0  0  0  0  0
  -24.1039  -32.9583   22.4981 C   0  0  0  0  0  0  0  0  0  0  0  0
  -29.2960  -16.9848   20.6565 C   0  0  0  0  0  0  0  0  0  0  0  0
  -24.9646  -34.9820   23.3263 C   0  0  0  0  0  0  0  0  0  0  0  0
  -26.6417  -36.3172   25.1115 C   0  0  0  0  0  0  0  0  0  0  0  0
  -24.4298  -35.8927   24.2375 C   0  0  0  0  0  0  0  0  0  0  0  0
  -24.0124  -28.7325   22.6766 C   0  0  0  0  0  0  0  0  0  0  0  0
  -28.6207  -24.0730   18.7439 C   0  0  0  0  0  0  0  0  0  0  0  0
  -29.8545  -22.5665   17.5248 C   0  0  0  0  0  0  0  0  0  0  0  0
  -23.3755  -26.6286   22.7320 C   0  0  0  0  0  0  0  0  0  0  0  0
  -27.9235  -24.6666   15.1398 C   0  0  0  0  0  0  0  0  0  0  0  0
  -21.4875  -28.2575   22.5574 C   0  0  0  0  0  0  0  0  0  0  0  0
  -24.9857  -13.7273   21.1799 C   0  0  0  0  0  0  0  0  0  0  0  0
  -23.3953  -16.2179   22.5176 C   0  0  0  0  0  0  0  0  0  0  0  0
  -23.4242  -19.4912   23.4830 C   0  0  0  0  0  0  0  0  0  0  0  0
  -28.6356  -24.2061   21.2595 C   0  0  0  0  0  0  0  0  0  0  0  0
  -20.9486  -10.7517   20.2282 C   0  0  0  0  0  0  0  0  0  0  0  0
  -26.6286  -14.4898   22.9336 C   0  0  0  0  0  0  0  0  0  0  0  0
  -25.5708  -16.7591   21.3600 C   0  0  0  0  0  0  0  0  0  0  0  0
  -21.2834  -12.2296   20.0434 C   0  0  0  0  0  0  0  0  0  0  0  0
  -27.1016  -24.1747   24.4724 C   0  0  0  0  0  0  0  0  0  0  0  0
  -22.6406  -12.3888   19.3657 C   0  0  0  0  0  0  0  0  0  0  0  0
  -26.0277  -25.2604   24.3721 C   0  0  0  0  0  0  0  0  0  0  0  0
  -28.3664  -24.5554   23.7050 C   0  0  0  0  0  0  0  0  0  0  0  0
  -27.0772  -26.0219   22.2028 C   0  0  0  0  0  0  0  0  0  0  0  0
  -23.7596  -11.7851   20.2230 C   0  0  1  0  0  0  0  0  0  0  0  0
  -25.1855  -14.5212   22.4398 C   0  0  1  0  0  0  0  0  0  0  0  0
  -25.7604  -25.6549   22.9063 C   0  0  2  0  0  0  0  0  0  0  0  0
  -21.9648  -21.2546   24.5114 C   0  0  0  0  0  0  0  0  0  0  0  0
  -32.4552  -21.8164   19.1501 C   0  0  0  0  0  0  0  0  0  0  0  0
  -21.9103  -16.5292   19.8704 C   0  0  0  0  0  0  0  0  0  0  0  0
  -21.2042  -18.8129   20.6151 C   0  0  0  0  0  0  0  0  0  0  0  0
  -20.4832  -16.8036   21.9057 C   0  0  0  0  0  0  0  0  0  0  0  0
  -25.2461  -19.8167   25.7925 C   0  0  0  0  0  0  0  0  0  0  0  0
  -30.7653  -18.5708   17.7641 C   0  0  0  0  0  0  0  0  0  0  0  0
  -29.6222  -18.3761   18.7555 C   0  0  0  0  0  0  0  0  0  1  0  0
  -22.8943  -17.5545   22.0260 C   0  0  1  0  0  0  0  0  0  0  0  0
  -22.9926  -20.1647   24.7731 C   0  0  2  0  0  0  0  0  0  0  0  0
  -31.3471  -20.9020   18.6325 C   0  0  2  0  0  0  0  0  0  0  0  0
  -31.8695  -19.4911   18.3011 C   0  0  2  0  0  0  0  0  0  0  0  0
  -21.6506  -17.4181   21.1031 C   0  0  0  0  0  0  0  0  0  0  0  0
  -25.1511  -28.0405   22.7696 N   0  0  0  0  0  0  0  0  0  0  0  0
  -29.5024  -23.0483   18.7378 N   0  0  0  0  0  0  0  0  0  0  0  0
  -27.0748  -25.6511   15.1088 N   0  0  0  0  0  0  0  0  0  0  0  0
  -24.7309  -26.7644   22.8015 N   0  0  0  0  0  0  0  0  0  0  0  0
  -24.7104  -15.8795   22.1684 N   0  0  0  0  0  0  0  0  0  0  0  0
  -28.0364  -24.9127   22.3236 N   0  0  0  0  0  0  0  0  0  0  0  0
  -22.7849  -25.4149   22.7515 N   0  0  0  0  0  0  0  0  0  0  0  0
  -21.1473  -29.6149   22.4800 N   0  0  0  0  0  0  0  0  0  0  0  0
  -28.2206  -24.6122   19.9916 N   0  0  0  0  0  0  0  0  0  0  0  0
  -30.7536  -21.5181   17.4623 N   0  0  0  0  0  0  0  0  0  0  0  0
  -24.0986  -12.6761   21.3119 N   0  0  0  0  0  0  0  0  0  0  0  0
  -22.6694  -18.3687   23.2155 N   0  0  0  0  0  0  0  0  0  0  0  0
  -24.1667  -20.7798   25.4544 N   0  3  0  0  0  0  0  0  0  0  0  0
  -20.5763  -27.3954   22.5608 O   0  0  0  0  0  0  0  0  0  0  0  0
  -25.5905  -14.0458   20.1628 O   0  0  0  0  0  0  0  0  0  0  0  0
  -22.6499  -15.5038   23.1929 O   0  0  0  0  0  0  0  0  0  0  0  0
  -24.3371  -19.9201   22.7807 O   0  0  0  0  0  0  0  0  0  0  0  0
  -29.4359  -23.2887   21.4589 O   0  0  0  0  0  0  0  0  0  0  0  0
  -32.9309  -19.5892   17.3533 O   0  0  0  0  0  0  0  0  0  0  0  0
  -24.1333  -34.3178   22.4401 O   0  0  0  0  0  0  0  0  0  0  0  0
  -30.1415  -17.7757   19.9414 O   0  0  0  0  0  0  0  0  0  1  0  0
  -27.4470  -36.9571   25.9696 F   0  0  0  0  0  0  0  0  0  0  0  0
  -23.1110  -36.1296   24.2608 F   0  0  0  0  0  0  0  0  0  0  0  0
  1  2  1  0  0  0  0
  1  5  2  0  0  0  0
  2  6  2  0  0  0  0
  3  8  2  0  0  0  0
  3 17  1  0  0  0  0
  4  9  1  0  0  0  0
  4 17  2  0  0  0  0
  5 20  1  0  0  0  0
  6 22  1  0  0  0  0
  7 10  2  0  0  0  0
  7 21  1  0  0  0  0
  8 24  1  0  0  0  0
  9 24  2  0  0  0  0
 10 25  1  0  0  0  0
 11 12  2  0  0  0  0
 11 26  1  0  0  0  0
 12 27  1  0  0  0  0
 13 18  1  0  0  0  0
 13 30  2  0  0  0  0
 14 18  2  0  0  0  0
 14 31  1  0  0  0  0
 15 23  1  0  0  0  0
 15 25  2  0  0  0  0
 16 27  2  0  0  0  0
 16 28  1  0  0  0  0
 17 29  1  0  0  0  0
 18 33  1  0  0  0  0
 19 29  1  0  0  0  0
 19 32  2  0  0  0  0
 19 34  1  0  0  0  0
 20 22  2  0  0  0  0
 20 39  1  0  0  0  0
 21 23  2  0  0  0  0
 21 40  1  0  0  0  0
 22 48  1  0  0  0  0
 23 41  1  0  0  0  0
 24 83  1  0  0  0  0
 25 84  1  0  0  0  0
 26 28  2  0  0  0  0
 26 83  1  0  0  0  0
 27 85  1  0  0  0  0
 28 86  1  0  0  0  0
 29 64  2  0  0  0  0
 30 65  1  0  0  0  0
 30 72  1  0  0  0  0
 31 65  2  0  0  0  0
 31 73  1  0  0  0  0
 32 67  1  0  0  0  0
 32 70  1  0  0  0  0
 33 66  2  0  0  0  0
 34 71  1  0  0  0  0
 34 77  2  0  0  0  0
 35 49  1  0  0  0  0
 35 74  1  0  0  0  0
 35 78  2  0  0  0  0
 36 59  1  0  0  0  0
 36 68  1  0  0  0  0
 36 79  2  0  0  0  0
 37 60  1  0  0  0  0
 37 75  1  0  0  0  0
 37 80  2  0  0  0  0
 38 69  1  0  0  0  0
 38 72  1  0  0  0  0
 38 81  2  0  0  0  0
 39 42  1  0  0  0  0
 40 49  1  0  0  0  0
 41 68  1  0  0  0  0
 42 44  1  0  0  0  0
 43 45  1  0  0  0  0
 43 46  1  0  0  0  0
 44 48  1  0  0  0  0
 45 50  1  0  0  0  0
 46 69  1  0  0  0  0
 47 50  1  0  0  0  0
 47 69  1  0  0  0  0
 48 74  1  0  0  0  0
 49 68  1  0  0  0  0
 50 67  1  0  0  0  0
 51 60  1  0  0  0  0
 52 61  1  0  0  0  0
 53 63  1  0  0  0  0
 54 63  1  0  0  0  0
 55 63  1  0  0  0  0
 56 76  1  0  0  0  0
 57 58  1  0  0  0  0
 57 62  1  0  0  0  0
 58 84  1  0  0  0  0
 59 63  1  0  0  0  0
 59 75  1  0  0  0  0
 60 76  1  0  0  0  0
 61 62  1  0  0  0  0
 61 73  1  0  0  0  0
 62 82  1  0  0  0  0
 64 67  1  0  0  0  0
M  CHG  1  76   1
M  ISO  4  38 100  58 101  72 100  84 101
M  END
> <Batch ID>
0187

> <Smiles>
CNC(C)C(=O)NC(C(=O)N1Cc2cc([101O:1][101CH2:1]CC(O)C(C)Nc3cc(C=N)cc([100NH:0][100C:0](=O)N4CCCC(n5nc(-c6ccc(Oc7ccc(F)cc7F)cc6)c(C(N)=O)c5N)C4)n3)ccc2CC1C(=O)NC1CCCc2ccccc21)C(C)(C)C

> <Shape>
0.226

> <Color>
0.068

> <Negative vol penalty>
0.000

$$$$

  -OEChem-04052305123D

 85 93  0     1  0  0  0  0  0999 V2000
  -18.4897  -33.2401   24.3667 C   0  0  0  0  0  0  0  0  0  0  0  0
  -19.6973  -33.3641   23.6873 C   0  0  0  0  0  0  0  0  0  0  0  0
  -24.2596  -14.6184   19.9296 C   0  0  0  0  0  0  0  0  0  0  0  0
  -25.6107  -14.9687   21.9016 C   0  0  0  0  0  0  0  0  0  0  0  0
  -18.1775  -32.0482   25.0193 C   0  0  0  0  0  0  0  0  0  0  0  0
  -20.5940  -32.2966   23.6609 C   0  0  0  0  0  0  0  0  0  0  0  0
  -25.5025  -29.2316   19.4385 C   0  0  0  0  0  0  0  0  0  0  0  0
  -24.5227  -13.2501   19.9923 C   0  0  0  0  0  0  0  0  0  0  0  0
  -25.8738  -13.6003   21.9644 C   0  0  0  0  0  0  0  0  0  0  0  0
  -26.8299  -28.8058   19.4633 C   0  0  0  0  0  0  0  0  0  0  0  0
  -24.5443   -9.6179   19.8433 C   0  0  0  0  0  0  0  0  0  0  0  0
  -23.4737   -8.7427   19.6611 C   0  0  0  0  0  0  0  0  0  0  0  0
  -26.1493  -26.7675   20.5594 C   0  0  0  0  0  0  0  0  0  0  0  0
  -22.3606   -9.7055   21.5771 C   0  0  0  0  0  0  0  0  0  0  0  0
  -24.8037  -15.4778   20.8842 C   0  0  0  0  0  0  0  0  0  0  0  0
  -23.4668  -17.5814   21.4275 C   0  0  0  0  0  0  0  0  0  0  0  0
  -19.0666  -30.9622   24.9927 C   0  0  0  0  0  0  0  0  0  0  0  0
  -24.4883  -28.4320   19.9847 C   0  0  0  0  0  0  0  0  0  0  0  0
  -20.2940  -31.0895   24.3148 C   0  0  0  0  0  0  0  0  0  0  0  0
  -24.8096  -27.1843   20.5379 C   0  0  0  0  0  0  0  0  0  0  0  0
  -25.3298  -12.7410   21.0098 C   0  0  0  0  0  0  0  0  0  0  0  0
  -27.1539  -27.5750   20.0264 C   0  0  0  0  0  0  0  0  0  0  0  0
  -24.5232  -10.5369   20.8924 C   0  0  0  0  0  0  0  0  0  0  0  0
  -22.3818   -8.7864   20.5280 C   0  0  0  0  0  0  0  0  0  0  0  0
  -23.4313  -10.5807   21.7593 C   0  0  0  0  0  0  0  0  0  0  0  0
  -24.5327  -16.8915   20.8195 C   0  0  0  0  0  0  0  0  0  0  0  0
  -30.6703  -24.3929   22.4939 C   0  0  0  0  0  0  0  0  0  0  0  0
  -23.6560  -18.8929   21.0659 C   0  0  0  0  0  0  0  0  0  0  0  0
  -30.0656  -24.0474   23.6843 C   0  0  0  0  0  0  0  0  0  0  0  0
  -29.1848  -22.9818   21.7117 C   0  0  0  0  0  0  0  0  0  0  0  0
  -22.4010  -17.0815   22.2459 C   0  0  0  0  0  0  0  0  0  0  0  0
  -22.3987  -28.7685   22.3563 C   0  0  0  0  0  0  0  0  0  0  0  0
  -21.2564  -25.9494   21.2294 C   0  0  0  0  0  0  0  0  0  0  0  0
  -21.8472  -23.0683   19.4981 C   0  0  0  0  0  0  0  0  0  0  0  0
  -28.4861  -22.0351   19.4842 C   0  0  0  0  0  0  0  0  0  0  0  0
  -18.7061  -29.7102   25.7526 C   0  0  0  0  0  0  0  0  0  0  0  0
  -23.0579  -28.8937   19.9261 C   0  0  0  0  0  0  0  0  0  0  0  0
  -23.7552  -26.2793   21.1192 C   0  0  0  0  0  0  0  0  0  0  0  0
  -19.5461  -28.4971   25.3614 C   0  0  0  0  0  0  0  0  0  0  0  0
  -25.5193  -21.5817   17.5685 C   0  0  0  0  0  0  0  0  0  0  0  0
  -21.0246  -28.8679   25.3031 C   0  0  0  0  0  0  0  0  0  0  0  0
  -24.8296  -20.3941   18.2438 C   0  0  0  0  0  0  0  0  0  0  0  0
  -27.0389  -21.4245   17.5586 C   0  0  0  0  0  0  0  0  0  0  0  0
  -26.9542  -19.9699   19.5451 C   0  0  0  0  0  0  0  0  0  0  0  0
  -21.2818  -29.9453   24.2426 C   0  0  1  0  0  0  0  0  0  0  0  0
  -22.1714  -28.2268   20.9733 C   0  0  1  0  0  0  0  0  0  0  0  0
  -25.4263  -20.1137   19.6370 C   0  0  2  0  0  0  0  0  0  0  0  0
  -20.7313  -20.9394   18.7769 C   0  0  0  0  0  0  0  0  0  0  0  0
  -31.8291  -26.6802   18.8330 C   0  0  0  0  0  0  0  0  0  0  0  0
  -21.5274  -24.8504   24.0629 C   0  0  0  0  0  0  0  0  0  0  0  0
  -21.3249  -22.5430   23.1126 C   0  0  0  0  0  0  0  0  0  0  0  0
  -19.4402  -24.1592   22.8711 C   0  0  0  0  0  0  0  0  0  0  0  0
  -32.9292  -24.3661   20.5185 C   0  0  0  0  0  0  0  0  0  0  0  0
  -33.5119  -26.5945   21.4898 C   0  0  0  0  0  0  0  0  0  0  0  0
  -22.2234  -23.7056   16.6325 C   0  0  0  0  0  0  0  0  0  0  0  0
  -30.6564  -27.6031   20.8836 C   0  0  0  0  0  0  0  0  0  0  0  0
  -29.4552  -28.1661   20.1280 C   0  0  0  0  0  0  0  0  0  1  0  0
  -21.5419  -24.4930   21.5060 C   0  0  1  0  0  0  0  0  0  0  0  0
  -21.0627  -22.3748   18.3990 C   0  0  2  0  0  0  0  0  0  0  0  0
  -31.2789  -26.3457   20.2318 C   0  0  2  0  0  0  0  0  0  0  0  0
  -20.9789  -24.0291   22.8790 C   0  0  0  0  0  0  0  0  0  0  0  0
  -32.3503  -25.6463   21.1403 C   0  0  0  0  0  0  0  0  0  0  0  0
  -25.3392  -17.6979   20.1243 N   0  0  0  0  0  0  0  0  0  0  0  0
  -30.1669  -23.7825   21.3618 N   0  0  0  0  0  0  0  0  0  0  0  0
  -24.7798  -18.9081   20.2932 N   0  0  0  0  0  0  0  0  0  0  0  0
  -22.3721  -26.7780   21.0439 N   0  0  0  0  0  0  0  0  0  0  0  0
  -27.5332  -21.1655   18.9126 N   0  0  0  0  0  0  0  0  0  0  0  0
  -22.9691  -20.0230   21.3367 N   0  0  0  0  0  0  0  0  0  0  0  0
  -22.3566  -15.7077   22.5195 N   0  0  0  0  0  0  0  0  0  0  0  0
  -31.7141  -25.2869   22.4032 N   0  0  0  0  0  0  0  0  0  0  0  0
  -28.3916  -22.1638   20.8695 N   0  0  0  0  0  0  0  0  0  0  0  0
  -21.2842  -29.3609   22.9187 N   0  0  0  0  0  0  0  0  0  0  0  0
  -21.0190  -23.7506   20.3641 N   0  0  0  0  0  0  0  0  0  0  0  0
  -21.8488  -22.3579   17.1331 N   0  3  0  0  0  0  0  0  0  0  0  0
  -21.5050  -17.8286   22.7071 O   0  0  0  0  0  0  0  0  0  0  0  0
  -23.5031  -28.6560   22.8752 O   0  0  0  0  0  0  0  0  0  0  0  0
  -20.0864  -26.3361   21.1727 O   0  0  0  0  0  0  0  0  0  0  0  0
  -23.0718  -23.0077   19.5822 O   0  0  0  0  0  0  0  0  0  0  0  0
  -29.3067  -22.6435   18.7924 O   0  0  0  0  0  0  0  0  0  0  0  0
  -25.5865  -11.4058   21.0715 O   0  0  0  0  0  0  0  0  0  0  0  0
  -28.4488  -27.1573   20.0525 O   0  0  0  0  0  0  0  0  0  1  0  0
  -21.3530   -7.9469   20.3520 F   0  0  0  0  0  0  0  0  0  0  0  0
  -23.4047  -11.4622   22.7683 F   0  0  0  0  0  0  0  0  0  0  0  0
  -30.3975  -24.5187   24.8893 F   0  0  0  0  0  0  0  0  0  0  0  0
  -28.8132  -22.9145   23.3857 S   0  0  0  0  0  0  0  0  0  0  0  0
  1  2  1  0  0  0  0
  1  5  2  0  0  0  0
  2  6  2  0  0  0  0
  3  8  2  0  0  0  0
  3 15  1  0  0  0  0
  4  9  1  0  0  0  0
  4 15  2  0  0  0  0
  5 17  1  0  0  0  0
  6 19  1  0  0  0  0
  7 10  2  0  0  0  0
  7 18  1  0  0  0  0
  8 21  1  0  0  0  0
  9 21  2  0  0  0  0
 10 22  1  0  0  0  0
 11 12  2  0  0  0  0
 11 23  1  0  0  0  0
 12 24  1  0  0  0  0
 13 20  1  0  0  0  0
 13 22  2  0  0  0  0
 14 24  2  0  0  0  0
 14 25  1  0  0  0  0
 15 26  1  0  0  0  0
 16 26  1  0  0  0  0
 16 28  2  0  0  0  0
 16 31  1  0  0  0  0
 17 19  2  0  0  0  0
 17 36  1  0  0  0  0
 18 20  2  0  0  0  0
 18 37  1  0  0  0  0
 19 45  1  0  0  0  0
 20 38  1  0  0  0  0
 21 80  1  0  0  0  0
 22 81  1  0  0  0  0
 23 25  2  0  0  0  0
 23 80  1  0  0  0  0
 24 82  1  0  0  0  0
 25 83  1  0  0  0  0
 26 63  2  0  0  0  0
 27 29  2  0  0  0  0
 27 64  1  0  0  0  0
 27 70  1  0  0  0  0
 28 65  1  0  0  0  0
 28 68  1  0  0  0  0
 29 84  1  0  0  0  0
 29 85  1  0  0  0  0
 30 64  2  0  0  0  0
 30 71  1  0  0  0  0
 30 85  1  0  0  0  0
 31 69  1  0  0  0  0
 31 75  2  0  0  0  0
 32 46  1  0  0  0  0
 32 72  1  0  0  0  0
 32 76  2  0  0  0  0
 33 58  1  0  0  0  0
 33 66  1  0  0  0  0
 33 77  2  0  0  0  0
 34 59  1  0  0  0  0
 34 73  1  0  0  0  0
 34 78  2  0  0  0  0
 35 67  1  0  0  0  0
 35 71  1  0  0  0  0
 35 79  2  0  0  0  0
 36 39  1  0  0  0  0
 37 46  1  0  0  0  0
 38 66  1  0  0  0  0
 39 41  1  0  0  0  0
 40 42  1  0  0  0  0
 40 43  1  0  0  0  0
 41 45  1  0  0  0  0
 42 47  1  0  0  0  0
 43 67  1  0  0  0  0
 44 47  1  0  0  0  0
 44 67  1  0  0  0  0
 45 72  1  0  0  0  0
 46 66  1  0  0  0  0
 47 65  1  0  0  0  0
 48 59  1  0  0  0  0
 49 60  1  0  0  0  0
 50 61  1  0  0  0  0
 51 61  1  0  0  0  0
 52 61  1  0  0  0  0
 53 62  1  0  0  0  0
 54 62  1  0  0  0  0
 55 74  1  0  0  0  0
 56 57  1  0  0  0  0
 56 60  1  0  0  0  0
 57 81  1  0  0  0  0
 58 61  1  0  0  0  0
 58 73  1  0  0  0  0
 59 74  1  0  0  0  0
 60 62  1  0  0  0  0
 62 70  1  0  0  0  0
 63 65  1  0  0  0  0
M  CHG  1  74   1
M  ISO  4  35 100  57 101  71 100  81 101
M  END
> <Batch ID>
0187

> <Smiles>
CNC(C)C(=O)NC(C(=O)N1Cc2cc([101O:1][101CH2:1]CC(C)C(C)(C)Nc3nc([100NH:0][100C:0](=O)N4CCCC(n5nc(-c6ccc(Oc7ccc(F)cc7F)cc6)c(C(N)=O)c5N)C4)sc3F)ccc2CC1C(=O)NC1CCCc2ccccc21)C(C)(C)C

> <Shape>
0.198

> <Color>
0.103

> <Negative vol penalty>
0.000

$$$$

  -OEChem-04052305123D

 83 91  0     1  0  0  0  0  0999 V2000
  -26.5254  -35.6617   25.2454 C   0  0  0  0  0  0  0  0  0  0  0  0
  -26.7594  -34.9333   24.0834 C   0  0  0  0  0  0  0  0  0  0  0  0
  -25.6568  -13.1526   22.1625 C   0  0  0  0  0  0  0  0  0  0  0  0
  -26.1790  -13.7233   19.8737 C   0  0  0  0  0  0  0  0  0  0  0  0
  -26.4538  -35.0073   26.4744 C   0  0  0  0  0  0  0  0  0  0  0  0
  -26.9231  -33.5501   24.1501 C   0  0  0  0  0  0  0  0  0  0  0  0
  -25.1347  -29.4268   19.9901 C   0  0  0  0  0  0  0  0  0  0  0  0
  -24.5872  -12.3722   21.7239 C   0  0  0  0  0  0  0  0  0  0  0  0
  -25.1093  -12.9429   19.4350 C   0  0  0  0  0  0  0  0  0  0  0  0
  -25.8182  -28.7660   18.9704 C   0  0  0  0  0  0  0  0  0  0  0  0
  -24.1287   -9.3031   20.3811 C   0  0  0  0  0  0  0  0  0  0  0  0
  -23.9719   -8.0394   20.9504 C   0  0  0  0  0  0  0  0  0  0  0  0
  -26.1578  -26.8762   20.4308 C   0  0  0  0  0  0  0  0  0  0  0  0
  -21.7834   -8.6733   21.7542 C   0  0  0  0  0  0  0  0  0  0  0  0
  -26.4528  -13.8282   21.2374 C   0  0  0  0  0  0  0  0  0  0  0  0
  -28.8877  -14.2197   21.8896 C   0  0  0  0  0  0  0  0  0  0  0  0
  -26.6071  -33.6143   26.5550 C   0  0  0  0  0  0  0  0  0  0  0  0
  -24.9668  -28.8207   21.2435 C   0  0  0  0  0  0  0  0  0  0  0  0
  -26.8548  -32.8767   25.3815 C   0  0  0  0  0  0  0  0  0  0  0  0
  -25.4696  -27.5304   21.4640 C   0  0  0  0  0  0  0  0  0  0  0  0
  -24.3134  -12.2673   20.3602 C   0  0  0  0  0  0  0  0  0  0  0  0
  -26.3324  -27.4917   19.1915 C   0  0  0  0  0  0  0  0  0  0  0  0
  -23.1130  -10.2519   20.4983 C   0  0  0  0  0  0  0  0  0  0  0  0
  -22.7992   -7.7245   21.6370 C   0  0  0  0  0  0  0  0  0  0  0  0
  -21.9403   -9.9369   21.1848 C   0  0  0  0  0  0  0  0  0  0  0  0
  -27.5575  -14.6350   21.6899 C   0  0  0  0  0  0  0  0  0  0  0  0
  -29.8467  -23.3879   17.9988 C   0  0  0  0  0  0  0  0  0  0  0  0
  -29.8442  -22.4327   17.0040 C   0  0  0  0  0  0  0  0  0  0  0  0
  -29.5394  -15.3498   22.3192 C   0  0  0  0  0  0  0  0  0  0  0  0
  -29.1678  -21.6750   19.1883 C   0  0  0  0  0  0  0  0  0  0  0  0
  -29.4812  -12.9279   21.7033 C   0  0  0  0  0  0  0  0  0  0  0  0
  -25.8780  -29.5115   24.2093 C   0  0  0  0  0  0  0  0  0  0  0  0
  -24.0229  -26.9580   24.9579 C   0  0  0  0  0  0  0  0  0  0  0  0
  -22.5785  -24.0330   23.9554 C   0  0  0  0  0  0  0  0  0  0  0  0
  -28.5111  -21.1883   21.5712 C   0  0  0  0  0  0  0  0  0  0  0  0
  -26.5687  -32.9570   27.9119 C   0  0  0  0  0  0  0  0  0  0  0  0
  -24.2038  -29.5359   22.3245 C   0  0  0  0  0  0  0  0  0  0  0  0
  -25.2986  -26.8277   22.7851 C   0  0  0  0  0  0  0  0  0  0  0  0
  -26.3801  -31.4434   27.8503 C   0  0  0  0  0  0  0  0  0  0  0  0
  -28.7703  -19.4515   24.6685 C   0  0  0  0  0  0  0  0  0  0  0  0
  -27.3151  -30.8307   26.8125 C   0  0  0  0  0  0  0  0  0  0  0  0
  -28.6159  -17.9810   24.2735 C   0  0  0  0  0  0  0  0  0  0  0  0
  -27.8771  -20.3615   23.8271 C   0  0  0  0  0  0  0  0  0  0  0  0
  -27.8671  -18.7319   21.9796 C   0  0  0  0  0  0  0  0  0  0  0  0
  -27.0129  -31.3719   25.4099 C   0  0  1  0  0  0  0  0  0  0  0  0
  -24.5386  -29.0325   23.7252 C   0  0  1  0  0  0  0  0  0  0  0  0
  -28.7953  -17.7833   22.7555 C   0  0  2  0  0  0  0  0  0  0  0  0
  -30.1944  -22.5472   15.5742 C   0  0  0  0  0  0  0  0  0  0  0  0
  -21.1515  -22.1496   24.8005 C   0  0  0  0  0  0  0  0  0  0  0  0
  -26.4280  -25.8029   26.4381 C   0  0  0  0  0  0  0  0  0  0  0  0
  -25.2770  -23.5796   26.4306 C   0  0  0  0  0  0  0  0  0  0  0  0
  -24.2410  -25.5144   27.6163 C   0  0  0  0  0  0  0  0  0  0  0  0
  -20.4425  -24.6163   21.9917 C   0  0  0  0  0  0  0  0  0  0  0  0
  -32.2687  -24.8900   19.0063 C   0  0  0  0  0  0  0  0  0  0  0  0
  -28.0226  -25.9299   18.5916 C   0  0  0  0  0  0  0  0  0  1  0  0
  -30.2313  -24.8439   17.8360 C   0  0  1  0  0  0  0  0  0  0  0  0
  -24.2521  -25.4716   25.0884 C   0  0  1  0  0  0  0  0  0  0  0  0
  -21.1639  -23.5038   24.1085 C   0  0  2  0  0  0  0  0  0  0  0  0
  -29.0822  -25.8142   17.4981 C   0  0  2  0  0  0  0  0  0  0  0  0
  -25.0546  -25.1059   26.3690 C   0  0  0  0  0  0  0  0  0  0  0  0
  -27.3735  -15.9280   21.9698 N   0  0  0  0  0  0  0  0  0  0  0  0
  -29.4588  -22.9554   19.2519 N   0  0  0  0  0  0  0  0  0  0  0  0
  -28.5966  -16.3349   22.3498 N   0  0  0  0  0  0  0  0  0  0  0  0
  -24.5506  -27.5709   23.8127 N   0  0  0  0  0  0  0  0  0  0  0  0
  -28.1048  -20.1215   22.4004 N   0  0  0  0  0  0  0  0  0  0  0  0
  -30.8212  -15.5871   22.6700 N   0  0  0  0  0  0  0  0  0  0  0  0
  -28.6682  -11.8772   21.2567 N   0  0  0  0  0  0  0  0  0  0  0  0
  -28.7284  -20.8335   20.2402 N   0  0  0  0  0  0  0  0  0  0  0  0
  -25.8379  -30.7287   24.8622 N   0  0  0  0  0  0  0  0  0  0  0  0
  -22.9361  -24.8470   25.0093 N   0  0  0  0  0  0  0  0  0  0  0  0
  -29.6233  -27.1802   17.2246 N   0  3  0  0  0  0  0  0  0  0  0  0
  -20.5192  -23.3551   22.7731 N   0  3  0  0  0  0  0  0  0  0  0  0
  -30.6928  -12.7078   21.9421 O   0  0  0  0  0  0  0  0  0  0  0  0
  -26.8738  -28.8267   24.0068 O   0  0  0  0  0  0  0  0  0  0  0  0
  -23.3924  -27.5520   25.8361 O   0  0  0  0  0  0  0  0  0  0  0  0
  -23.2959  -23.7493   22.9987 O   0  0  0  0  0  0  0  0  0  0  0  0
  -28.6819  -22.3267   22.0150 O   0  0  0  0  0  0  0  0  0  0  0  0
  -23.2699  -11.5057   19.9318 O   0  0  0  0  0  0  0  0  0  0  0  0
  -27.0006  -26.8447   18.1981 O   0  0  0  0  0  0  0  0  0  1  0  0
  -30.9102  -25.2955   19.0117 O   0  0  0  0  0  0  0  0  0  0  0  0
  -22.6481   -6.5105   22.1823 F   0  0  0  0  0  0  0  0  0  0  0  0
  -20.9605  -10.8439   21.2997 F   0  0  0  0  0  0  0  0  0  0  0  0
  -29.3391  -20.9277   17.6529 S   0  0  0  0  0  0  0  0  0  0  0  0
  1  2  1  0  0  0  0
  1  5  2  0  0  0  0
  2  6  2  0  0  0  0
  3  8  2  0  0  0  0
  3 15  1  0  0  0  0
  4  9  1  0  0  0  0
  4 15  2  0  0  0  0
  5 17  1  0  0  0  0
  6 19  1  0  0  0  0
  7 10  2  0  0  0  0
  7 18  1  0  0  0  0
  8 21  1  0  0  0  0
  9 21  2  0  0  0  0
 10 22  1  0  0  0  0
 11 12  2  0  0  0  0
 11 23  1  0  0  0  0
 12 24  1  0  0  0  0
 13 20  1  0  0  0  0
 13 22  2  0  0  0  0
 14 24  2  0  0  0  0
 14 25  1  0  0  0  0
 15 26  1  0  0  0  0
 16 26  1  0  0  0  0
 16 29  2  0  0  0  0
 16 31  1  0  0  0  0
 17 19  2  0  0  0  0
 17 36  1  0  0  0  0
 18 20  2  0  0  0  0
 18 37  1  0  0  0  0
 19 45  1  0  0  0  0
 20 38  1  0  0  0  0
 21 78  1  0  0  0  0
 22 79  1  0  0  0  0
 23 25  2  0  0  0  0
 23 78  1  0  0  0  0
 24 81  1  0  0  0  0
 25 82  1  0  0  0  0
 26 61  2  0  0  0  0
 27 28  2  0  0  0  0
 27 56  1  0  0  0  0
 27 62  1  0  0  0  0
 28 48  1  0  0  0  0
 28 83  1  0  0  0  0
 29 63  1  0  0  0  0
 29 66  1  0  0  0  0
 30 62  2  0  0  0  0
 30 68  1  0  0  0  0
 30 83  1  0  0  0  0
 31 67  1  0  0  0  0
 31 73  2  0  0  0  0
 32 46  1  0  0  0  0
 32 69  1  0  0  0  0
 32 74  2  0  0  0  0
 33 57  1  0  0  0  0
 33 64  1  0  0  0  0
 33 75  2  0  0  0  0
 34 58  1  0  0  0  0
 34 70  1  0  0  0  0
 34 76  2  0  0  0  0
 35 65  1  0  0  0  0
 35 68  1  0  0  0  0
 35 77  2  0  0  0  0
 36 39  1  0  0  0  0
 37 46  1  0  0  0  0
 38 64  1  0  0  0  0
 39 41  1  0  0  0  0
 40 42  1  0  0  0  0
 40 43  1  0  0  0  0
 41 45  1  0  0  0  0
 42 47  1  0  0  0  0
 43 65  1  0  0  0  0
 44 47  1  0  0  0  0
 44 65  1  0  0  0  0
 45 69  1  0  0  0  0
 46 64  1  0  0  0  0
 47 63  1  0  0  0  0
 49 58  1  0  0  0  0
 50 60  1  0  0  0  0
 51 60  1  0  0  0  0
 52 60  1  0  0  0  0
 53 72  1  0  0  0  0
 54 80  1  0  0  0  0
 55 59  1  0  0  0  0
 55 79  1  0  0  0  0
 56 59  1  0  0  0  0
 56 80  1  0  0  0  0
 57 60  1  0  0  0  0
 57 70  1  0  0  0  0
 58 72  1  0  0  0  0
 59 71  1  0  0  0  0
 61 63  1  0  0  0  0
M  CHG  2  71   1  72   1
M  ISO  4  35 100  55 101  68 100  79 101
M  END
> <Batch ID>
0187

> <Smiles>
CNC(C)C(=O)NC(C(=O)N1Cc2cc([101O:1][101CH2:1]C(N)C(OC)c3nc([100NH:0][100C:0](=O)N4CCCC(n5nc(-c6ccc(Oc7ccc(F)cc7F)cc6)c(C(N)=O)c5N)C4)sc3C)ccc2CC1C(=O)NC1CCCc2ccccc21)C(C)(C)C

> <Shape>
0.257

> <Color>
0.075

> <Negative vol penalty>
0.000

$$$$

  -OEChem-04052305123D

 86 94  0     1  0  0  0  0  0999 V2000
  -22.1691   -8.4540   21.3878 C   0  0  0  0  0  0  0  0  0  0  0  0
  -22.5610   -9.4100   22.3194 C   0  0  0  0  0  0  0  0  0  0  0  0
  -22.4515  -28.1293   20.6625 C   0  0  0  0  0  0  0  0  0  0  0  0
  -23.8110  -27.2810   22.4706 C   0  0  0  0  0  0  0  0  0  0  0  0
  -22.6958   -8.4830   20.0972 C   0  0  0  0  0  0  0  0  0  0  0  0
  -23.4808  -10.3949   21.9612 C   0  0  0  0  0  0  0  0  0  0  0  0
  -23.6097  -16.1973   23.9160 C   0  0  0  0  0  0  0  0  0  0  0  0
  -21.3012  -27.8834   21.4121 C   0  0  0  0  0  0  0  0  0  0  0  0
  -22.6607  -27.0352   23.2202 C   0  0  0  0  0  0  0  0  0  0  0  0
  -24.3525  -16.8368   24.9075 C   0  0  0  0  0  0  0  0  0  0  0  0
  -19.6263  -29.3489   23.9576 C   0  0  0  0  0  0  0  0  0  0  0  0
  -18.6508  -30.3452   23.9936 C   0  0  0  0  0  0  0  0  0  0  0  0
  -25.9454  -17.5532   23.2436 C   0  0  0  0  0  0  0  0  0  0  0  0
  -17.0508  -28.8135   23.0286 C   0  0  0  0  0  0  0  0  0  0  0  0
  -30.8293  -22.2447   23.2564 C   0  0  0  0  0  0  0  0  0  0  0  0
  -23.7065  -27.8280   21.1918 C   0  0  0  0  0  0  0  0  0  0  0  0
  -25.6604  -29.2627   20.3969 C   0  0  0  0  0  0  0  0  0  0  0  0
  -23.6151   -9.4746   19.7201 C   0  0  0  0  0  0  0  0  0  0  0  0
  -24.0357  -16.2218   22.5802 C   0  0  0  0  0  0  0  0  0  0  0  0
  -24.0213  -10.4364   20.6647 C   0  0  0  0  0  0  0  0  0  0  0  0
  -25.2048  -16.9154   22.2367 C   0  0  0  0  0  0  0  0  0  0  0  0
  -29.9457  -21.3395   22.7111 C   0  0  0  0  0  0  0  0  0  0  0  0
  -29.8095  -21.5064   21.3027 C   0  0  0  0  0  0  0  0  0  0  0  0
  -21.4058  -27.3364   22.6909 C   0  0  0  0  0  0  0  0  0  0  0  0
  -25.5221  -17.5124   24.5718 C   0  0  0  0  0  0  0  0  0  0  0  0
  -19.3141  -28.0849   23.4571 C   0  0  0  0  0  0  0  0  0  0  0  0
  -17.3630  -30.0776   23.5291 C   0  0  0  0  0  0  0  0  0  0  0  0
  -18.0264  -27.8172   22.9926 C   0  0  0  0  0  0  0  0  0  0  0  0
  -24.8951  -28.0812   20.4177 C   0  0  0  0  0  0  0  0  0  0  0  0
  -30.5941  -22.5332   20.8252 C   0  0  0  0  0  0  0  0  0  0  0  0
  -26.6758  -28.9984   19.5106 C   0  0  0  0  0  0  0  0  0  0  0  0
  -25.4703  -30.4892   21.1146 C   0  0  0  0  0  0  0  0  0  0  0  0
  -24.9105  -14.0172   20.4641 C   0  0  0  0  0  0  0  0  0  0  0  0
  -24.9743  -16.5485   18.4366 C   0  0  0  0  0  0  0  0  0  0  0  0
  -25.2686  -19.9235   18.0241 C   0  0  0  0  0  0  0  0  0  0  0  0
  -29.3699  -20.1756   24.8650 C   0  0  0  0  0  0  0  0  0  0  0  0
  -29.2557  -23.9215   17.6612 C   0  0  0  0  0  0  0  0  0  0  0  0
  -24.1929   -9.4371   18.3275 C   0  0  0  0  0  0  0  0  0  0  0  0
  -23.2089  -15.5497   21.5186 C   0  0  0  0  0  0  0  0  0  0  0  0
  -25.6945  -16.9886   20.8142 C   0  0  0  0  0  0  0  0  0  0  0  0
  -24.8781  -10.7380   17.9171 C   0  0  0  0  0  0  0  0  0  0  0  0
  -27.6737  -26.3819   15.6313 C   0  0  0  0  0  0  0  0  0  0  0  0
  -25.7942  -11.2335   19.0316 C   0  0  0  0  0  0  0  0  0  0  0  0
  -26.8512  -27.2030   16.6259 C   0  0  0  0  0  0  0  0  0  0  0  0
  -27.6963  -24.9013   16.0044 C   0  0  0  0  0  0  0  0  0  0  0  0
  -27.3109  -25.4380   18.3786 C   0  0  0  0  0  0  0  0  0  0  0  0
  -24.9980  -11.5356   20.3068 C   0  0  1  0  0  0  0  0  0  0  0  0
  -24.0100  -15.2038   20.2672 C   0  0  1  0  0  0  0  0  0  0  0  0
  -27.3049  -26.9461   18.0755 C   0  0  2  0  0  0  0  0  0  0  0  0
  -24.9736  -20.7093   25.7318 C   0  0  0  0  0  0  0  0  0  0  0  0
  -25.3200  -21.6937   16.2462 C   0  0  0  0  0  0  0  0  0  0  0  0
  -27.8295  -15.7442   17.7217 C   0  0  0  0  0  0  0  0  0  0  0  0
  -28.1437  -18.0159   16.7172 C   0  0  0  0  0  0  0  0  0  0  0  0
  -26.4309  -16.4647   15.7777 C   0  0  0  0  0  0  0  0  0  0  0  0
  -22.8661  -21.2589   19.1212 C   0  0  0  0  0  0  0  0  0  0  0  0
  -30.7414  -23.0269   19.4364 C   0  0  0  0  0  0  0  0  0  0  0  0
  -26.4705  -20.5019   25.9289 C   0  0  0  0  0  0  0  0  0  0  0  0
  -26.0163  -17.5580   18.0193 C   0  0  1  0  0  0  0  0  0  0  0  0
  -24.4482  -20.9152   17.2192 C   0  0  2  0  0  0  0  0  0  0  0  0
  -28.4875  -19.0313   25.3431 C   0  0  2  0  0  0  0  0  0  0  0  0
  -26.9905  -19.2923   25.1477 C   0  0  1  0  0  0  0  0  0  1  0  0
  -27.0972  -16.9429   17.0861 C   0  0  0  0  0  0  0  0  0  0  0  0
  -25.3826  -27.1368   19.6088 N   0  0  0  0  0  0  0  0  0  0  0  0
  -26.4650  -27.7246   19.0712 N   0  0  0  0  0  0  0  0  0  0  0  0
  -24.8548  -16.3103   19.8131 N   0  0  0  0  0  0  0  0  0  0  0  0
  -28.1367  -24.7263   17.3905 N   0  0  0  0  0  0  0  0  0  0  0  0
  -29.0053  -20.7486   20.5182 N   0  0  0  0  0  0  0  0  0  0  0  0
  -27.7194  -29.7339   19.0718 N   0  0  0  0  0  0  0  0  0  0  0  0
  -24.3762  -30.5918   21.9844 N   0  0  0  0  0  0  0  0  0  0  0  0
  -29.2724  -20.3718   23.4938 N   0  0  0  0  0  0  0  0  0  0  0  0
  -24.3112  -12.8037   20.1853 N   0  0  0  0  0  0  0  0  0  0  0  0
  -25.2880  -18.6779   17.4330 N   0  0  0  0  0  0  0  0  0  0  0  0
  -29.6095  -23.8141   19.0006 N   0  0  0  0  0  0  0  0  0  0  0  0
  -23.7736  -21.8863   18.1263 N   0  3  0  0  0  0  0  0  0  0  0  0
  -26.2385  -31.4712   20.9759 O   0  0  0  0  0  0  0  0  0  0  0  0
  -26.0641  -14.1900   20.8396 O   0  0  0  0  0  0  0  0  0  0  0  0
  -24.2868  -15.9971   17.5735 O   0  0  0  0  0  0  0  0  0  0  0  0
  -25.8385  -20.2246   19.0706 O   0  0  0  0  0  0  0  0  0  0  0  0
  -30.0628  -20.7998   25.6638 O   0  0  0  0  0  0  0  0  0  0  0  0
  -29.8954  -23.3460   16.7744 O   0  0  0  0  0  0  0  0  0  0  0  0
  -20.2835  -27.0966   23.4227 O   0  0  0  0  0  0  0  0  0  0  0  0
  -26.2494  -18.1369   25.5377 O   0  0  0  0  0  0  0  0  0  1  0  0
  -16.4259  -31.0340   23.5652 F   0  0  0  0  0  0  0  0  0  0  0  0
  -17.7202  -26.6044   22.5117 F   0  0  0  0  0  0  0  0  0  0  0  0
  -28.6948  -18.8281   26.6793 F   0  0  0  0  0  0  0  0  0  0  0  0
  -31.4903  -23.2904   22.0725 S   0  0  0  0  0  0  0  0  0  0  0  0
  1  2  1  0  0  0  0
  1  5  2  0  0  0  0
  2  6  2  0  0  0  0
  3  8  2  0  0  0  0
  3 16  1  0  0  0  0
  4  9  1  0  0  0  0
  4 16  2  0  0  0  0
  5 18  1  0  0  0  0
  6 20  1  0  0  0  0
  7 10  2  0  0  0  0
  7 19  1  0  0  0  0
  8 24  1  0  0  0  0
  9 24  2  0  0  0  0
 10 25  1  0  0  0  0
 11 12  2  0  0  0  0
 11 26  1  0  0  0  0
 12 27  1  0  0  0  0
 13 21  1  0  0  0  0
 13 25  2  0  0  0  0
 14 27  2  0  0  0  0
 14 28  1  0  0  0  0
 15 22  2  0  0  0  0
 15 86  1  0  0  0  0
 16 29  1  0  0  0  0
 17 29  1  0  0  0  0
 17 31  2  0  0  0  0
 17 32  1  0  0  0  0
 18 20  2  0  0  0  0
 18 38  1  0  0  0  0
 19 21  2  0  0  0  0
 19 39  1  0  0  0  0
 20 47  1  0  0  0  0
 21 40  1  0  0  0  0
 22 23  1  0  0  0  0
 22 70  1  0  0  0  0
 23 30  2  0  0  0  0
 23 67  1  0  0  0  0
 24 81  1  0  0  0  0
 25 82  1  0  0  0  0
 26 28  2  0  0  0  0
 26 81  1  0  0  0  0
 27 83  1  0  0  0  0
 28 84  1  0  0  0  0
 29 63  2  0  0  0  0
 30 56  1  0  0  0  0
 30 86  1  0  0  0  0
 31 64  1  0  0  0  0
 31 68  1  0  0  0  0
 32 69  1  0  0  0  0
 32 75  2  0  0  0  0
 33 48  1  0  0  0  0
 33 71  1  0  0  0  0
 33 76  2  0  0  0  0
 34 58  1  0  0  0  0
 34 65  1  0  0  0  0
 34 77  2  0  0  0  0
 35 59  1  0  0  0  0
 35 72  1  0  0  0  0
 35 78  2  0  0  0  0
 36 60  1  0  0  0  0
 36 70  1  0  0  0  0
 36 79  2  0  0  0  0
 37 66  1  0  0  0  0
 37 73  1  0  0  0  0
 37 80  2  0  0  0  0
 38 41  1  0  0  0  0
 39 48  1  0  0  0  0
 40 65  1  0  0  0  0
 41 43  1  0  0  0  0
 42 44  1  0  0  0  0
 42 45  1  0  0  0  0
 43 47  1  0  0  0  0
 44 49  1  0  0  0  0
 45 66  1  0  0  0  0
 46 49  1  0  0  0  0
 46 66  1  0  0  0  0
 47 71  1  0  0  0  0
 48 65  1  0  0  0  0
 49 64  1  0  0  0  0
 50 57  1  0  0  0  0
 51 59  1  0  0  0  0
 52 62  1  0  0  0  0
 53 62  1  0  0  0  0
 54 62  1  0  0  0  0
 55 74  1  0  0  0  0
 56 73  1  0  0  0  0
 57 61  1  0  0  0  0
 58 62  1  0  0  0  0
 58 72  1  0  0  0  0
 59 74  1  0  0  0  0
 60 61  1  0  0  0  0
 60 85  1  0  0  0  0
 61 82  1  0  0  0  0
 63 64  1  0  0  0  0
M  CHG  1  74   1
M  ISO  4  37 100  61 101  73 100  82 101
M  END
> <Batch ID>
0187

> <Smiles>
CC[101CH:1](C(F)C(=O)Nc1csc(C[100NH:0][100C:0](=O)N2CCCC(n3nc(-c4ccc(Oc5ccc(F)cc5F)cc4)c(C(N)=O)c3N)C2)c1N)[101O:1]c1ccc2c(c1)CN(C(=O)C(NC(=O)C(C)NC)C(C)(C)C)C(C(=O)NC1CCCc3ccccc31)C2

> <Shape>
0.219

> <Color>
0.059

> <Negative vol penalty>
0.000

$$$$

  -OEChem-04052305123D

 82 89  0     1  0  0  0  0  0999 V2000
  -16.8154  -27.9891   23.7242 C   0  0  0  0  0  0  0  0  0  0  0  0
  -17.5208  -27.3571   22.7052 C   0  0  0  0  0  0  0  0  0  0  0  0
  -24.2454   -9.3785   22.2793 C   0  0  0  0  0  0  0  0  0  0  0  0
  -23.0979  -10.0102   20.2492 C   0  0  0  0  0  0  0  0  0  0  0  0
  -17.2326  -29.2351   24.1904 C   0  0  0  0  0  0  0  0  0  0  0  0
  -18.6433  -27.9713   22.1510 C   0  0  0  0  0  0  0  0  0  0  0  0
  -22.5212  -24.7673   21.5670 C   0  0  0  0  0  0  0  0  0  0  0  0
  -23.1900   -8.5292   22.6116 C   0  0  0  0  0  0  0  0  0  0  0  0
  -22.0425   -9.1608   20.5814 C   0  0  0  0  0  0  0  0  0  0  0  0
  -22.4696  -23.8966   20.4793 C   0  0  0  0  0  0  0  0  0  0  0  0
  -22.1000   -5.4504   21.7365 C   0  0  0  0  0  0  0  0  0  0  0  0
  -22.4168   -4.1726   22.1974 C   0  0  0  0  0  0  0  0  0  0  0  0
  -23.9628  -25.3444   19.2572 C   0  0  0  0  0  0  0  0  0  0  0  0
  -21.2793   -4.6407   24.2769 C   0  0  0  0  0  0  0  0  0  0  0  0
  -24.1993  -10.1191   21.0981 C   0  0  0  0  0  0  0  0  0  0  0  0
  -26.4365  -10.6749   20.0055 C   0  0  0  0  0  0  0  0  0  0  0  0
  -18.3665  -29.8605   23.6483 C   0  0  0  0  0  0  0  0  0  0  0  0
  -23.2867  -25.9405   21.5038 C   0  0  0  0  0  0  0  0  0  0  0  0
  -19.0754  -29.2274   22.6095 C   0  0  0  0  0  0  0  0  0  0  0  0
  -24.0245  -26.2270   20.3464 C   0  0  0  0  0  0  0  0  0  0  0  0
  -22.0886   -8.4203   21.7627 C   0  0  0  0  0  0  0  0  0  0  0  0
  -23.1881  -24.1866   19.3231 C   0  0  0  0  0  0  0  0  0  0  0  0
  -21.3730   -6.3234   22.5458 C   0  0  0  0  0  0  0  0  0  0  0  0
  -22.0064   -3.7677   23.4676 C   0  0  0  0  0  0  0  0  0  0  0  0
  -20.9626   -5.9186   23.8160 C   0  0  0  0  0  0  0  0  0  0  0  0
  -25.2889  -10.9971   20.7546 C   0  0  0  0  0  0  0  0  0  0  0  0
  -27.1567  -11.8435   19.9610 C   0  0  0  0  0  0  0  0  0  0  0  0
  -24.3533  -21.9274   16.7868 C   0  0  0  0  0  0  0  0  0  0  0  0
  -26.8173   -9.4305   19.4036 C   0  0  0  0  0  0  0  0  0  0  0  0
  -25.3685  -21.0637   16.9384 C   0  0  0  0  0  0  0  0  0  0  0  0
  -22.6454  -29.0492   21.6736 C   0  0  0  0  0  0  0  0  0  0  0  0
  -25.8773  -29.3219   21.6180 C   0  0  0  0  0  0  0  0  0  0  0  0
  -28.8853  -27.9597   20.7563 C   0  0  0  0  0  0  0  0  0  0  0  0
  -25.6075  -17.6083   20.4286 C   0  0  0  0  0  0  0  0  0  0  0  0
  -18.7515  -31.2289   24.1523 C   0  0  0  0  0  0  0  0  0  0  0  0
  -23.3532  -26.8559   22.6955 C   0  0  0  0  0  0  0  0  0  0  0  0
  -24.8777  -27.4632   20.2355 C   0  0  0  0  0  0  0  0  0  0  0  0
  -20.1703  -31.6420   23.7694 C   0  0  0  0  0  0  0  0  0  0  0  0
  -27.9502  -15.8501   22.4527 C   0  0  0  0  0  0  0  0  0  0  0  0
  -20.4318  -31.3504   22.2952 C   0  0  0  0  0  0  0  0  0  0  0  0
  -27.6373  -14.3779   22.1795 C   0  0  0  0  0  0  0  0  0  0  0  0
  -26.6835  -16.7029   22.4679 C   0  0  0  0  0  0  0  0  0  0  0  0
  -25.5244  -15.1042   20.9933 C   0  0  0  0  0  0  0  0  0  0  0  0
  -20.3125  -29.8504   21.9999 C   0  0  1  0  0  0  0  0  0  0  0  0
  -23.7566  -28.2816   22.3321 C   0  0  1  0  0  0  0  0  0  0  0  0
  -26.7760  -14.2134   20.9128 C   0  0  2  0  0  0  0  0  0  0  0  0
  -31.3490  -28.4347   20.8039 C   0  0  0  0  0  0  0  0  0  0  0  0
  -23.1528  -17.9980   17.7154 C   0  0  0  0  0  0  0  0  0  0  0  0
  -25.5497  -31.2431   19.2703 C   0  0  0  0  0  0  0  0  0  0  0  0
  -27.9828  -30.9338   18.7679 C   0  0  0  0  0  0  0  0  0  0  0  0
  -27.2770  -31.9269   20.9446 C   0  0  0  0  0  0  0  0  0  0  0  0
  -29.4236  -25.6072   22.4695 C   0  0  0  0  0  0  0  0  0  0  0  0
  -24.2940  -23.2773   17.4241 C   0  0  0  0  0  0  0  0  0  1  0  0
  -25.4178  -19.7027   16.3073 C   0  0  2  0  0  0  0  0  0  0  0  0
  -26.9202  -29.4576   20.5351 C   0  0  1  0  0  0  0  0  0  0  0  0
  -30.1780  -27.7976   21.5356 C   0  0  2  0  0  0  0  0  0  0  0  0
  -24.4944  -18.3617   18.3422 C   0  0  2  0  0  0  0  0  0  0  0  0
  -26.9149  -30.8679   19.8805 C   0  0  0  0  0  0  0  0  0  0  0  0
  -25.6071  -18.5650   17.3078 C   0  0  0  0  0  0  0  0  0  0  0  0
  -25.2767  -12.2706   21.1572 N   0  0  0  0  0  0  0  0  0  0  0  0
  -26.4255  -12.7589   20.6593 N   0  0  0  0  0  0  0  0  0  0  0  0
  -24.9051  -28.3302   21.4251 N   0  0  0  0  0  0  0  0  0  0  0  0
  -25.9128  -16.5020   21.2384 N   0  0  0  0  0  0  0  0  0  0  0  0
  -28.3379  -12.1672   19.3932 N   0  0  0  0  0  0  0  0  0  0  0  0
  -25.9613   -8.3299   19.5459 N   0  0  0  0  0  0  0  0  0  0  0  0
  -21.5010  -29.1523   22.4412 N   0  0  0  0  0  0  0  0  0  0  0  0
  -28.1926  -29.0868   21.1450 N   0  0  0  0  0  0  0  0  0  0  0  0
  -24.8794  -17.3292   19.2785 N   0  0  0  0  0  0  0  0  0  0  0  0
  -30.4816  -26.3530   21.7405 N   0  3  0  0  0  0  0  0  0  0  0  0
  -27.8929   -9.2942   18.7727 O   0  0  0  0  0  0  0  0  0  0  0  0
  -22.8143  -29.5147   20.5527 O   0  0  0  0  0  0  0  0  0  0  0  0
  -25.9276  -30.0636   22.6024 O   0  0  0  0  0  0  0  0  0  0  0  0
  -28.5279  -27.1679   19.8870 O   0  0  0  0  0  0  0  0  0  0  0  0
  -25.9623  -18.7587   20.7069 O   0  0  0  0  0  0  0  0  0  0  0  0
  -21.0587   -7.5915   22.0865 O   0  0  0  0  0  0  0  0  0  0  0  0
  -23.1389  -23.3388   18.2598 O   0  0  0  0  0  0  0  0  0  1  0  0
  -22.3093   -2.5400   23.9094 F   0  0  0  0  0  0  0  0  0  0  0  0
  -20.2629   -6.7524   24.5975 F   0  0  0  0  0  0  0  0  0  0  0  0
  -26.4006  -21.4188   17.7397 F   0  0  0  0  0  0  0  0  0  0  0  0
  -26.4502  -19.6203   15.4129 F   0  0  0  0  0  0  0  0  0  0  0  0
  -26.7839  -18.7657   17.9655 F   0  0  0  0  0  0  0  0  0  0  0  0
  -25.7632  -17.4104   16.5998 F   0  0  0  0  0  0  0  0  0  0  0  0
  1  2  1  0  0  0  0
  1  5  2  0  0  0  0
  2  6  2  0  0  0  0
  3  8  2  0  0  0  0
  3 15  1  0  0  0  0
  4  9  1  0  0  0  0
  4 15  2  0  0  0  0
  5 17  1  0  0  0  0
  6 19  1  0  0  0  0
  7 10  2  0  0  0  0
  7 18  1  0  0  0  0
  8 21  1  0  0  0  0
  9 21  2  0  0  0  0
 10 22  1  0  0  0  0
 11 12  2  0  0  0  0
 11 23  1  0  0  0  0
 12 24  1  0  0  0  0
 13 20  1  0  0  0  0
 13 22  2  0  0  0  0
 14 24  2  0  0  0  0
 14 25  1  0  0  0  0
 15 26  1  0  0  0  0
 16 26  1  0  0  0  0
 16 27  2  0  0  0  0
 16 29  1  0  0  0  0
 17 19  2  0  0  0  0
 17 35  1  0  0  0  0
 18 20  2  0  0  0  0
 18 36  1  0  0  0  0
 19 44  1  0  0  0  0
 20 37  1  0  0  0  0
 21 75  1  0  0  0  0
 22 76  1  0  0  0  0
 23 25  2  0  0  0  0
 23 75  1  0  0  0  0
 24 77  1  0  0  0  0
 25 78  1  0  0  0  0
 26 60  2  0  0  0  0
 27 61  1  0  0  0  0
 27 64  1  0  0  0  0
 28 30  2  0  0  0  0
 28 53  1  0  0  0  0
 29 65  1  0  0  0  0
 29 70  2  0  0  0  0
 30 54  1  0  0  0  0
 30 79  1  0  0  0  0
 31 45  1  0  0  0  0
 31 66  1  0  0  0  0
 31 71  2  0  0  0  0
 32 55  1  0  0  0  0
 32 62  1  0  0  0  0
 32 72  2  0  0  0  0
 33 56  1  0  0  0  0
 33 67  1  0  0  0  0
 33 73  2  0  0  0  0
 34 63  1  0  0  0  0
 34 68  1  0  0  0  0
 34 74  2  0  0  0  0
 35 38  1  0  0  0  0
 36 45  1  0  0  0  0
 37 62  1  0  0  0  0
 38 40  1  0  0  0  0
 39 41  1  0  0  0  0
 39 42  1  0  0  0  0
 40 44  1  0  0  0  0
 41 46  1  0  0  0  0
 42 63  1  0  0  0  0
 43 46  1  0  0  0  0
 43 63  1  0  0  0  0
 44 66  1  0  0  0  0
 45 62  1  0  0  0  0
 46 61  1  0  0  0  0
 47 56  1  0  0  0  0
 48 57  1  0  0  0  0
 49 58  1  0  0  0  0
 50 58  1  0  0  0  0
 51 58  1  0  0  0  0
 52 69  1  0  0  0  0
 53 76  1  0  0  0  0
 54 59  1  0  0  0  0
 54 80  1  0  0  0  0
 55 58  1  0  0  0  0
 55 67  1  0  0  0  0
 56 69  1  0  0  0  0
 57 59  1  0  0  0  0
 57 68  1  0  0  0  0
 59 81  1  0  0  0  0
 59 82  1  0  0  0  0
 60 61  1  0  0  0  0
M  CHG  1  69   1
M  ISO  4  34 100  53 101  68 100  76 101
M  END
> <Batch ID>
0187

> <Smiles>
CNC(C)C(=O)NC(C(=O)N1Cc2cc([101O:1][101CH2:1]C=C(F)C(F)C(F)(F)C(C)[100NH:0][100C:0](=O)N3CCCC(n4nc(-c5ccc(Oc6ccc(F)cc6F)cc5)c(C(N)=O)c4N)C3)ccc2CC1C(=O)NC1CCCc2ccccc21)C(C)(C)C

> <Shape>
0.256

> <Color>
0.098

> <Negative vol penalty>
0.000

$$$$

  -OEChem-04052305123D

 90 98  0     1  0  0  0  0  0999 V2000
  -32.8645  -24.2654    7.3922 C   0  0  0  0  0  0  0  0  0  0  0  0
  -32.8895  -23.2687    8.3624 C   0  0  0  0  0  0  0  0  0  0  0  0
  -22.9558   -9.8526   20.0608 C   0  0  0  0  0  0  0  0  0  0  0  0
  -23.6570  -10.0174   22.3669 C   0  0  0  0  0  0  0  0  0  0  0  0
  -33.1914  -25.5772    7.7334 C   0  0  0  0  0  0  0  0  0  0  0  0
  -33.2424  -23.5830    9.6743 C   0  0  0  0  0  0  0  0  0  0  0  0
  -31.0100  -21.0648   14.7911 C   0  0  0  0  0  0  0  0  0  0  0  0
  -22.1738   -8.7420   20.3779 C   0  0  0  0  0  0  0  0  0  0  0  0
  -22.8749   -8.9068   22.6841 C   0  0  0  0  0  0  0  0  0  0  0  0
  -31.4932  -20.0627   15.6313 C   0  0  0  0  0  0  0  0  0  0  0  0
  -23.0865   -5.5452   22.3915 C   0  0  0  0  0  0  0  0  0  0  0  0
  -23.6545   -4.5629   23.2027 C   0  0  0  0  0  0  0  0  0  0  0  0
  -32.4328  -21.7430   17.0850 C   0  0  0  0  0  0  0  0  0  0  0  0
  -21.9158   -4.9124   24.8434 C   0  0  0  0  0  0  0  0  0  0  0  0
  -23.6975  -10.4902   21.0553 C   0  0  0  0  0  0  0  0  0  0  0  0
  -24.1131  -12.9887   20.7513 C   0  0  0  0  0  0  0  0  0  0  0  0
  -33.5391  -25.9095    9.0523 C   0  0  0  0  0  0  0  0  0  0  0  0
  -31.2444  -22.4155   15.0862 C   0  0  0  0  0  0  0  0  0  0  0  0
  -33.5755  -24.9001   10.0332 C   0  0  0  0  0  0  0  0  0  0  0  0
  -31.9493  -22.7604   16.2482 C   0  0  0  0  0  0  0  0  0  0  0  0
  -22.1333   -8.2691   21.6896 C   0  0  0  0  0  0  0  0  0  0  0  0
  -32.2072  -20.4016   16.7770 C   0  0  0  0  0  0  0  0  0  0  0  0
  -21.9332   -6.2112   22.8063 C   0  0  0  0  0  0  0  0  0  0  0  0
  -23.0692   -4.2464   24.4286 C   0  0  0  0  0  0  0  0  0  0  0  0
  -21.3478   -5.8947   24.0322 C   0  0  0  0  0  0  0  0  0  0  0  0
  -24.5060  -11.6371   20.7282 C   0  0  0  0  0  0  0  0  0  0  0  0
  -30.7661  -19.0860   22.6037 C   0  0  0  0  0  0  0  0  0  0  0  0
  -31.8757  -18.6326   21.9215 C   0  0  0  0  0  0  0  0  0  0  0  0
  -25.2347  -13.6791   20.3618 C   0  0  0  0  0  0  0  0  0  0  0  0
  -30.5970  -16.8670   21.6817 C   0  0  0  0  0  0  0  0  0  0  0  0
  -22.8473  -13.5683   21.0943 C   0  0  0  0  0  0  0  0  0  0  0  0
  -30.5224  -20.3260   23.2642 C   0  0  0  0  0  0  0  0  0  0  0  0
  -32.7784  -24.7942   13.6397 C   0  0  0  0  0  0  0  0  0  0  0  0
  -31.5197  -26.5560   16.0551 C   0  0  0  0  0  0  0  0  0  0  0  0
  -30.2602  -26.6436   19.2257 C   0  0  0  0  0  0  0  0  0  0  0  0
  -30.7219  -14.5923   20.6062 C   0  0  0  0  0  0  0  0  0  0  0  0
  -33.9305  -27.3324    9.3632 C   0  0  0  0  0  0  0  0  0  0  0  0
  -30.6935  -23.4853   14.1837 C   0  0  0  0  0  0  0  0  0  0  0  0
  -32.2104  -24.1962   16.6206 C   0  0  0  0  0  0  0  0  0  0  0  0
  -33.9301  -27.6519   10.8560 C   0  0  0  0  0  0  0  0  0  0  0  0
  -29.6007  -12.0323   18.4002 C   0  0  0  0  0  0  0  0  0  0  0  0
  -34.6436  -26.5530   11.6372 C   0  0  0  0  0  0  0  0  0  0  0  0
  -28.1430  -11.8125   18.8111 C   0  0  0  0  0  0  0  0  0  0  0  0
  -30.4911  -12.3295   19.6055 C   0  0  0  0  0  0  0  0  0  0  0  0
  -28.5707  -13.2082   20.8742 C   0  0  0  0  0  0  0  0  0  0  0  0
  -33.9292  -25.2062   11.4725 C   0  0  1  0  0  0  0  0  0  0  0  0
  -31.4338  -24.8132   14.3101 C   0  0  1  0  0  0  0  0  0  0  0  0
  -27.6237  -12.9697   19.6868 C   0  0  2  0  0  0  0  0  0  0  0  0
  -29.3495  -28.2336   20.9403 C   0  0  0  0  0  0  0  0  0  0  0  0
  -29.5456  -23.1213   24.5385 C   0  0  0  0  0  0  0  0  0  0  0  0
  -29.5145  -22.9885   22.0491 C   0  0  0  0  0  0  0  0  0  0  0  0
  -27.3701  -22.8083   23.3046 C   0  0  0  0  0  0  0  0  0  0  0  0
  -34.3496  -27.5269   16.6542 C   0  0  0  0  0  0  0  0  0  0  0  0
  -33.5319  -28.3150   18.8855 C   0  0  0  0  0  0  0  0  0  0  0  0
  -32.5878  -29.2963   16.7954 C   0  0  0  0  0  0  0  0  0  0  0  0
  -34.7050  -17.6141   21.7279 C   0  0  0  0  0  0  0  0  0  0  0  0
  -35.2764  -19.9686   21.1005 C   0  0  0  0  0  0  0  0  0  0  0  0
  -27.6402  -25.2682   19.2787 C   0  0  0  0  0  0  0  0  0  0  0  0
  -29.0762  -20.9064   23.3576 C   0  0  0  0  0  0  0  0  0  0  0  0
  -33.4038  -19.8441   18.7552 C   0  0  0  0  0  0  0  0  0  1  0  0
  -31.9650  -26.9342   17.4470 C   0  0  1  0  0  0  0  0  0  0  0  0
  -29.0111  -27.2911   19.7958 C   0  0  2  0  0  0  0  0  0  0  0  0
  -33.8178  -18.6161   19.5596 C   0  0  2  0  0  0  0  0  0  0  0  0
  -28.8636  -22.4424   23.3390 C   0  0  0  0  0  0  0  0  0  0  0  0
  -33.1055  -27.9909   17.4378 C   0  0  0  0  0  0  0  0  0  0  0  0
  -34.1938  -18.8816   21.0329 C   0  0  0  0  0  0  0  0  0  0  0  0
  -25.7779  -11.4763   20.3535 N   0  0  0  0  0  0  0  0  0  0  0  0
  -31.7807  -17.3603   21.3925 N   0  0  0  0  0  0  0  0  0  0  0  0
  -26.1939  -12.7358   20.1375 N   0  0  0  0  0  0  0  0  0  0  0  0
  -31.6568  -25.2057   15.7031 N   0  0  0  0  0  0  0  0  0  0  0  0
  -29.9391  -13.4394   20.3856 N   0  0  0  0  0  0  0  0  0  0  0  0
  -25.4842  -14.9950   20.1926 N   0  0  0  0  0  0  0  0  0  0  0  0
  -21.8020  -12.7147   21.4723 N   0  0  0  0  0  0  0  0  0  0  0  0
  -33.0297  -19.3709   21.7526 N   0  0  0  0  0  0  0  0  0  0  0  0
  -30.0802  -15.5945   21.3332 N   0  0  0  0  0  0  0  0  0  0  0  0
  -32.7474  -25.1556   12.3063 N   0  0  0  0  0  0  0  0  0  0  0  0
  -30.7640  -27.3574   18.1590 N   0  0  0  0  0  0  0  0  0  0  0  0
  -28.0746  -26.2499   20.3056 N   0  3  0  0  0  0  0  0  0  0  0  0
  -22.6443  -14.8054   21.0505 O   0  0  0  0  0  0  0  0  0  0  0  0
  -31.4609  -20.9819   23.7940 O   0  0  0  0  0  0  0  0  0  0  0  0
  -33.7707  -24.4767   14.2848 O   0  0  0  0  0  0  0  0  0  0  0  0
  -31.0602  -27.4252   15.3101 O   0  0  0  0  0  0  0  0  0  0  0  0
  -30.7429  -25.6101   19.6833 O   0  0  0  0  0  0  0  0  0  0  0  0
  -31.8668  -14.6949   20.1583 O   0  0  0  0  0  0  0  0  0  0  0  0
  -21.3700   -7.1856   21.9994 O   0  0  0  0  0  0  0  0  0  0  0  0
  -32.6805  -19.4254   17.5985 O   0  0  0  0  0  0  0  0  0  1  0  0
  -23.6138   -3.3020   25.2068 F   0  0  0  0  0  0  0  0  0  0  0  0
  -20.2391   -6.5303   24.4355 F   0  0  0  0  0  0  0  0  0  0  0  0
  -34.9090  -18.0771   18.9321 F   0  0  0  0  0  0  0  0  0  0  0  0
  -29.5476  -17.8792   22.5868 S   0  0  0  0  0  0  0  0  0  0  0  0
  1  2  1  0  0  0  0
  1  5  2  0  0  0  0
  2  6  2  0  0  0  0
  3  8  2  0  0  0  0
  3 15  1  0  0  0  0
  4  9  1  0  0  0  0
  4 15  2  0  0  0  0
  5 17  1  0  0  0  0
  6 19  1  0  0  0  0
  7 10  2  0  0  0  0
  7 18  1  0  0  0  0
  8 21  1  0  0  0  0
  9 21  2  0  0  0  0
 10 22  1  0  0  0  0
 11 12  2  0  0  0  0
 11 23  1  0  0  0  0
 12 24  1  0  0  0  0
 13 20  1  0  0  0  0
 13 22  2  0  0  0  0
 14 24  2  0  0  0  0
 14 25  1  0  0  0  0
 15 26  1  0  0  0  0
 16 26  1  0  0  0  0
 16 29  2  0  0  0  0
 16 31  1  0  0  0  0
 17 19  2  0  0  0  0
 17 37  1  0  0  0  0
 18 20  2  0  0  0  0
 18 38  1  0  0  0  0
 19 46  1  0  0  0  0
 20 39  1  0  0  0  0
 21 85  1  0  0  0  0
 22 86  1  0  0  0  0
 23 25  2  0  0  0  0
 23 85  1  0  0  0  0
 24 87  1  0  0  0  0
 25 88  1  0  0  0  0
 26 67  2  0  0  0  0
 27 28  2  0  0  0  0
 27 32  1  0  0  0  0
 27 90  1  0  0  0  0
 28 68  1  0  0  0  0
 28 74  1  0  0  0  0
 29 69  1  0  0  0  0
 29 72  1  0  0  0  0
 30 68  2  0  0  0  0
 30 75  1  0  0  0  0
 30 90  1  0  0  0  0
 31 73  1  0  0  0  0
 31 79  2  0  0  0  0
 32 59  1  0  0  0  0
 32 80  2  0  0  0  0
 33 47  1  0  0  0  0
 33 76  1  0  0  0  0
 33 81  2  0  0  0  0
 34 61  1  0  0  0  0
 34 70  1  0  0  0  0
 34 82  2  0  0  0  0
 35 62  1  0  0  0  0
 35 77  1  0  0  0  0
 35 83  2  0  0  0  0
 36 71  1  0  0  0  0
 36 75  1  0  0  0  0
 36 84  2  0  0  0  0
 37 40  1  0  0  0  0
 38 47  1  0  0  0  0
 39 70  1  0  0  0  0
 40 42  1  0  0  0  0
 41 43  1  0  0  0  0
 41 44  1  0  0  0  0
 42 46  1  0  0  0  0
 43 48  1  0  0  0  0
 44 71  1  0  0  0  0
 45 48  1  0  0  0  0
 45 71  1  0  0  0  0
 46 76  1  0  0  0  0
 47 70  1  0  0  0  0
 48 69  1  0  0  0  0
 49 62  1  0  0  0  0
 50 64  1  0  0  0  0
 51 64  1  0  0  0  0
 52 64  1  0  0  0  0
 53 65  1  0  0  0  0
 54 65  1  0  0  0  0
 55 65  1  0  0  0  0
 56 66  1  0  0  0  0
 57 66  1  0  0  0  0
 58 78  1  0  0  0  0
 59 64  1  0  0  0  0
 60 63  1  0  0  0  0
 60 86  1  0  0  0  0
 61 65  1  0  0  0  0
 61 77  1  0  0  0  0
 62 78  1  0  0  0  0
 63 66  1  0  0  0  0
 63 89  1  0  0  0  0
 66 74  1  0  0  0  0
 67 69  1  0  0  0  0
M  CHG  1  78   1
M  ISO  4  36 100  60 101  75 100  86 101
M  END
> <Batch ID>
0187

> <Smiles>
CNC(C)C(=O)NC(C(=O)N1Cc2cc([101O:1][101CH2:1]C(F)C(C)(C)Nc3nc([100NH:0][100C:0](=O)N4CCCC(n5nc(-c6ccc(Oc7ccc(F)cc7F)cc6)c(C(N)=O)c5N)C4)sc3C(=O)CC(C)(C)C)ccc2CC1C(=O)NC1CCCc2ccccc21)C(C)(C)C

> <Shape>
0.218

> <Color>
0.203

> <Negative vol penalty>
0.000

$$$$

  -OEChem-04052305123D

 85 93  0     1  0  0  0  0  0999 V2000
  -23.3913  -19.0869   10.9560 C   0  0  0  0  0  0  0  0  0  0  0  0
  -24.2583  -18.4560   11.8424 C   0  0  0  0  0  0  0  0  0  0  0  0
  -26.5087  -28.4913   19.0433 C   0  0  0  0  0  0  0  0  0  0  0  0
  -26.0916  -27.2294   21.0609 C   0  0  0  0  0  0  0  0  0  0  0  0
  -22.6558  -20.1957   11.3723 C   0  0  0  0  0  0  0  0  0  0  0  0
  -24.3911  -18.9344   13.1455 C   0  0  0  0  0  0  0  0  0  0  0  0
  -25.3660  -15.6204   18.2024 C   0  0  0  0  0  0  0  0  0  0  0  0
  -25.4511  -29.3444   19.3582 C   0  0  0  0  0  0  0  0  0  0  0  0
  -25.0339  -28.0826   21.3758 C   0  0  0  0  0  0  0  0  0  0  0  0
  -26.5221  -15.3312   18.9260 C   0  0  0  0  0  0  0  0  0  0  0  0
  -21.8129  -28.5080   20.4405 C   0  0  0  0  0  0  0  0  0  0  0  0
  -20.6211  -27.9292   20.8764 C   0  0  0  0  0  0  0  0  0  0  0  0
  -26.0269  -17.1492   20.4322 C   0  0  0  0  0  0  0  0  0  0  0  0
  -20.8014  -29.1307   22.9647 C   0  0  0  0  0  0  0  0  0  0  0  0
  -26.8289  -27.4337   19.8946 C   0  0  0  0  0  0  0  0  0  0  0  0
  -29.2711  -26.6980   19.9404 C   0  0  0  0  0  0  0  0  0  0  0  0
  -22.7723  -20.6821   12.6840 C   0  0  0  0  0  0  0  0  0  0  0  0
  -24.5360  -16.6848   18.5826 C   0  0  0  0  0  0  0  0  0  0  0  0
  -23.6574  -20.0516   13.5793 C   0  0  0  0  0  0  0  0  0  0  0  0
  -24.8595  -17.4483   19.7133 C   0  0  0  0  0  0  0  0  0  0  0  0
  -24.7137  -29.1401   20.5244 C   0  0  0  0  0  0  0  0  0  0  0  0
  -26.8543  -16.0975   20.0393 C   0  0  0  0  0  0  0  0  0  0  0  0
  -22.4991  -29.3981   21.2667 C   0  0  0  0  0  0  0  0  0  0  0  0
  -20.1153  -28.2405   22.1385 C   0  0  0  0  0  0  0  0  0  0  0  0
  -21.9933  -29.7095   22.5288 C   0  0  0  0  0  0  0  0  0  0  0  0
  -27.9209  -26.5517   19.5696 C   0  0  0  0  0  0  0  0  0  0  0  0
  -30.8187  -17.0603   21.0170 C   0  0  0  0  0  0  0  0  0  0  0  0
  -29.8986  -25.6076   19.3892 C   0  0  0  0  0  0  0  0  0  0  0  0
  -30.9330  -17.7411   22.2110 C   0  0  0  0  0  0  0  0  0  0  0  0
  -29.9691  -18.9807   20.3842 C   0  0  0  0  0  0  0  0  0  0  0  0
  -29.9016  -27.7274   20.7140 C   0  0  0  0  0  0  0  0  0  0  0  0
  -23.5979  -19.3967   17.2153 C   0  0  0  0  0  0  0  0  0  0  0  0
  -21.7095  -19.6136   19.8439 C   0  0  0  0  0  0  0  0  0  0  0  0
  -21.1571  -18.7348   23.0949 C   0  0  0  0  0  0  0  0  0  0  0  0
  -29.0031  -20.0072   18.2963 C   0  0  0  0  0  0  0  0  0  0  0  0
  -21.9922  -21.9125   13.0740 C   0  0  0  0  0  0  0  0  0  0  0  0
  -23.2783  -16.9670   17.8073 C   0  0  0  0  0  0  0  0  0  0  0  0
  -23.9911  -18.5890   20.1749 C   0  0  0  0  0  0  0  0  0  0  0  0
  -21.9097  -22.1285   14.5829 C   0  0  0  0  0  0  0  0  0  0  0  0
  -28.8366  -22.4607   15.7215 C   0  0  0  0  0  0  0  0  0  0  0  0
  -23.2824  -21.9493   15.2237 C   0  0  0  0  0  0  0  0  0  0  0  0
  -28.7156  -23.7809   16.4860 C   0  0  0  0  0  0  0  0  0  0  0  0
  -28.0718  -21.3331   16.4123 C   0  0  0  0  0  0  0  0  0  0  0  0
  -28.2799  -22.4574   18.5944 C   0  0  0  0  0  0  0  0  0  0  0  0
  -23.8102  -20.5258   15.0083 C   0  0  1  0  0  0  0  0  0  0  0  0
  -22.7776  -18.3976   17.9811 C   0  0  1  0  0  0  0  0  0  0  0  0
  -29.0875  -23.6080   17.9717 C   0  0  2  0  0  0  0  0  0  0  0  0
  -28.5815  -13.7632   23.1905 C   0  0  0  0  0  0  0  0  0  0  0  0
  -19.5507  -19.0985   24.9882 C   0  0  0  0  0  0  0  0  0  0  0  0
  -31.6799  -15.4266   19.2697 C   0  0  0  0  0  0  0  0  0  0  0  0
  -32.5753  -15.2981   21.5377 C   0  0  0  0  0  0  0  0  0  0  0  0
  -22.8894  -22.3889   20.3087 C   0  0  0  0  0  0  0  0  0  0  0  0
  -22.0001  -22.2989   22.6473 C   0  0  0  0  0  0  0  0  0  0  0  0
  -20.4271  -22.2210   20.7129 C   0  0  0  0  0  0  0  0  0  0  0  0
  -30.5274  -13.0695   20.8876 C   0  0  0  0  0  0  0  0  0  0  0  0
  -20.4867  -15.8555   23.2324 C   0  0  0  0  0  0  0  0  0  0  0  0
  -29.6996  -14.6658   22.6712 C   0  0  0  0  0  0  0  0  0  0  0  0
  -28.7799  -14.7251   20.2926 C   0  0  0  0  0  0  0  0  0  1  0  0
  -21.8630  -20.2041   21.2247 C   0  0  1  0  0  0  0  0  0  0  0  0
  -19.9167  -18.2196   23.8023 C   0  0  2  0  0  0  0  0  0  0  0  0
  -31.2509  -15.5871   20.7640 C   0  0  0  0  0  0  0  0  0  0  0  0
  -21.8125  -21.7580   21.2138 C   0  0  0  0  0  0  0  0  0  0  0  0
  -30.0695  -14.5307   21.1497 C   0  0  2  0  0  0  0  0  0  0  0  0
  -27.7027  -25.4550   18.8391 N   0  0  0  0  0  0  0  0  0  0  0  0
  -30.2659  -17.7694   19.9685 N   0  0  0  0  0  0  0  0  0  0  0  0
  -28.9242  -24.9022   18.7465 N   0  0  0  0  0  0  0  0  0  0  0  0
  -22.7754  -18.8296   19.3802 N   0  0  0  0  0  0  0  0  0  0  0  0
  -28.4791  -21.2256   17.8149 N   0  0  0  0  0  0  0  0  0  0  0  0
  -31.1833  -25.1931   19.3964 N   0  0  0  0  0  0  0  0  0  0  0  0
  -29.1096  -28.7746   21.2044 N   0  0  0  0  0  0  0  0  0  0  0  0
  -29.3864  -20.0340   19.6369 N   0  0  0  0  0  0  0  0  0  0  0  0
  -23.1656  -19.6045   15.9194 N   0  0  0  0  0  0  0  0  0  0  0  0
  -20.8372  -19.5787   22.0524 N   0  0  0  0  0  0  0  0  0  0  0  0
  -20.1414  -16.8321   24.2974 N   0  3  0  0  0  0  0  0  0  0  0  0
  -31.1338  -27.7274   20.9493 O   0  0  0  0  0  0  0  0  0  0  0  0
  -24.5515  -19.9401   17.7603 O   0  0  0  0  0  0  0  0  0  0  0  0
  -20.6787  -19.8339   19.2031 O   0  0  0  0  0  0  0  0  0  0  0  0
  -22.2961  -18.4231   23.4356 O   0  0  0  0  0  0  0  0  0  0  0  0
  -29.1298  -19.0214   17.5655 O   0  0  0  0  0  0  0  0  0  0  0  0
  -23.6818  -29.9726   20.8321 O   0  0  0  0  0  0  0  0  0  0  0  0
  -27.9825  -15.8178   20.7470 O   0  0  0  0  0  0  0  0  0  1  0  0
  -18.9699  -27.6858   22.5564 F   0  0  0  0  0  0  0  0  0  0  0  0
  -22.6473  -30.5649   23.3265 F   0  0  0  0  0  0  0  0  0  0  0  0
  -31.4385  -17.2407   23.3413 F   0  0  0  0  0  0  0  0  0  0  0  0
  -30.3285  -19.3352   22.0244 S   0  0  0  0  0  0  0  0  0  0  0  0
  1  2  1  0  0  0  0
  1  5  2  0  0  0  0
  2  6  2  0  0  0  0
  3  8  2  0  0  0  0
  3 15  1  0  0  0  0
  4  9  1  0  0  0  0
  4 15  2  0  0  0  0
  5 17  1  0  0  0  0
  6 19  1  0  0  0  0
  7 10  2  0  0  0  0
  7 18  1  0  0  0  0
  8 21  1  0  0  0  0
  9 21  2  0  0  0  0
 10 22  1  0  0  0  0
 11 12  2  0  0  0  0
 11 23  1  0  0  0  0
 12 24  1  0  0  0  0
 13 20  1  0  0  0  0
 13 22  2  0  0  0  0
 14 24  2  0  0  0  0
 14 25  1  0  0  0  0
 15 26  1  0  0  0  0
 16 26  1  0  0  0  0
 16 28  2  0  0  0  0
 16 31  1  0  0  0  0
 17 19  2  0  0  0  0
 17 36  1  0  0  0  0
 18 20  2  0  0  0  0
 18 37  1  0  0  0  0
 19 45  1  0  0  0  0
 20 38  1  0  0  0  0
 21 80  1  0  0  0  0
 22 81  1  0  0  0  0
 23 25  2  0  0  0  0
 23 80  1  0  0  0  0
 24 82  1  0  0  0  0
 25 83  1  0  0  0  0
 26 64  2  0  0  0  0
 27 29  2  0  0  0  0
 27 61  1  0  0  0  0
 27 65  1  0  0  0  0
 28 66  1  0  0  0  0
 28 69  1  0  0  0  0
 29 84  1  0  0  0  0
 29 85  1  0  0  0  0
 30 65  2  0  0  0  0
 30 71  1  0  0  0  0
 30 85  1  0  0  0  0
 31 70  1  0  0  0  0
 31 75  2  0  0  0  0
 32 46  1  0  0  0  0
 32 72  1  0  0  0  0
 32 76  2  0  0  0  0
 33 59  1  0  0  0  0
 33 67  1  0  0  0  0
 33 77  2  0  0  0  0
 34 60  1  0  0  0  0
 34 73  1  0  0  0  0
 34 78  2  0  0  0  0
 35 68  1  0  0  0  0
 35 71  1  0  0  0  0
 35 79  2  0  0  0  0
 36 39  1  0  0  0  0
 37 46  1  0  0  0  0
 38 67  1  0  0  0  0
 39 41  1  0  0  0  0
 40 42  1  0  0  0  0
 40 43  1  0  0  0  0
 41 45  1  0  0  0  0
 42 47  1  0  0  0  0
 43 68  1  0  0  0  0
 44 47  1  0  0  0  0
 44 68  1  0  0  0  0
 45 72  1  0  0  0  0
 46 67  1  0  0  0  0
 47 66  1  0  0  0  0
 48 57  1  0  0  0  0
 49 60  1  0  0  0  0
 50 61  1  0  0  0  0
 51 61  1  0  0  0  0
 52 62  1  0  0  0  0
 53 62  1  0  0  0  0
 54 62  1  0  0  0  0
 55 63  1  0  0  0  0
 56 74  1  0  0  0  0
 57 63  1  0  0  0  0
 58 63  1  0  0  0  0
 58 81  1  0  0  0  0
 59 62  1  0  0  0  0
 59 73  1  0  0  0  0
 60 74  1  0  0  0  0
 61 63  1  0  0  0  0
 64 66  1  0  0  0  0
M  CHG  1  74   1
M  ISO  4  35 100  58 101  71 100  81 101
M  END
> <Batch ID>
0187

> <Smiles>
CCC(C)(C(C)(C)c1nc([100NH:0][100C:0](=O)N2CCCC(n3nc(-c4ccc(Oc5ccc(F)cc5F)cc4)c(C(N)=O)c3N)C2)sc1F)[101CH2:1][101O:1]c1ccc2c(c1)CN(C(=O)C(NC(=O)C(C)NC)C(C)(C)C)C(C(=O)NC1CCCc3ccccc31)C2

> <Shape>
0.198

> <Color>
0.050

> <Negative vol penalty>
0.000

$$$$

  -OEChem-04052305123D

 84 92  0     1  0  0  0  0  0999 V2000
  -25.5880  -35.8899   23.5508 C   0  0  0  0  0  0  0  0  0  0  0  0
  -26.3973  -35.3207   22.5729 C   0  0  0  0  0  0  0  0  0  0  0  0
  -28.3531  -12.6661   20.6734 C   0  0  0  0  0  0  0  0  0  0  0  0
  -26.3987  -14.0648   20.4262 C   0  0  0  0  0  0  0  0  0  0  0  0
  -25.2234  -35.1460   24.6722 C   0  0  0  0  0  0  0  0  0  0  0  0
  -26.8435  -34.0074   22.7164 C   0  0  0  0  0  0  0  0  0  0  0  0
  -28.4786  -28.2113   18.8371 C   0  0  0  0  0  0  0  0  0  0  0  0
  -27.5701  -11.5330   20.4528 C   0  0  0  0  0  0  0  0  0  0  0  0
  -25.6157  -12.9317   20.2056 C   0  0  0  0  0  0  0  0  0  0  0  0
  -29.5101  -27.2904   18.6589 C   0  0  0  0  0  0  0  0  0  0  0  0
  -24.1874  -10.4911   22.0588 C   0  0  0  0  0  0  0  0  0  0  0  0
  -22.9653  -10.4080   22.7261 C   0  0  0  0  0  0  0  0  0  0  0  0
  -28.7517  -26.0746   20.5995 C   0  0  0  0  0  0  0  0  0  0  0  0
  -21.8144  -10.2995   20.6046 C   0  0  0  0  0  0  0  0  0  0  0  0
  -27.7674  -13.9320   20.6601 C   0  0  0  0  0  0  0  0  0  0  0  0
  -29.2489  -15.8729   19.9212 C   0  0  0  0  0  0  0  0  0  0  0  0
  -25.6574  -33.8197   24.8248 C   0  0  0  0  0  0  0  0  0  0  0  0
  -27.5810  -28.0767   19.9060 C   0  0  0  0  0  0  0  0  0  0  0  0
  -26.4855  -33.2454   23.8416 C   0  0  0  0  0  0  0  0  0  0  0  0
  -27.7082  -26.9937   20.7876 C   0  0  0  0  0  0  0  0  0  0  0  0
  -26.2014  -11.6658   20.2189 C   0  0  0  0  0  0  0  0  0  0  0  0
  -29.6485  -26.2235   19.5418 C   0  0  0  0  0  0  0  0  0  0  0  0
  -24.2230  -10.4786   20.6644 C   0  0  0  0  0  0  0  0  0  0  0  0
  -21.7788  -10.3122   21.9990 C   0  0  0  0  0  0  0  0  0  0  0  0
  -23.0365  -10.3827   19.9373 C   0  0  0  0  0  0  0  0  0  0  0  0
  -28.5756  -15.1028   20.8884 C   0  0  0  0  0  0  0  0  0  0  0  0
  -26.9329  -21.2825   22.3079 C   0  0  0  0  0  0  0  0  0  0  0  0
  -27.7881  -21.2704   23.3898 C   0  0  0  0  0  0  0  0  0  0  0  0
  -29.8670  -16.8653   20.6419 C   0  0  0  0  0  0  0  0  0  0  0  0
  -28.6171  -22.3621   21.4091 C   0  0  0  0  0  0  0  0  0  0  0  0
  -29.3099  -15.7060   18.4985 C   0  0  0  0  0  0  0  0  0  0  0  0
  -26.8260  -29.8446   22.4374 C   0  0  0  0  0  0  0  0  0  0  0  0
  -28.8985  -20.1765   25.3158 C   0  0  0  0  0  0  0  0  0  0  0  0
  -24.5413  -27.5793   22.8506 C   0  0  0  0  0  0  0  0  0  0  0  0
  -23.4953  -24.3814   22.2793 C   0  0  0  0  0  0  0  0  0  0  0  0
  -29.2077  -23.4288   19.2049 C   0  0  0  0  0  0  0  0  0  0  0  0
  -25.2762  -33.0707   26.0772 C   0  0  0  0  0  0  0  0  0  0  0  0
  -26.4576  -29.0635   20.0689 C   0  0  0  0  0  0  0  0  0  0  0  0
  -26.7585  -26.7928   21.9392 C   0  0  0  0  0  0  0  0  0  0  0  0
  -25.4832  -31.5620   25.9714 C   0  0  0  0  0  0  0  0  0  0  0  0
  -31.2113  -17.4398   25.3560 C   0  0  0  0  0  0  0  0  0  0  0  0
  -26.8504  -31.2516   25.3704 C   0  0  0  0  0  0  0  0  0  0  0  0
  -30.8132  -16.6154   24.1325 C   0  0  0  0  0  0  0  0  0  0  0  0
  -29.9944  -18.0752   26.0212 C   0  0  0  0  0  0  0  0  0  0  0  0
  -28.7636  -18.0843   23.8749 C   0  0  0  0  0  0  0  0  0  0  0  0
  -26.9692  -31.8155   23.9493 C   0  0  1  0  0  0  0  0  0  0  0  0
  -25.9116  -29.1178   21.4923 C   0  0  1  0  0  0  0  0  0  0  0  0
  -29.9668  -17.4500   23.1550 C   0  0  2  0  0  0  0  0  0  0  0  0
  -25.5788  -20.6941   22.2631 C   0  0  0  0  0  0  0  0  0  0  0  0
  -26.9828  -21.6799   25.7512 C   0  0  0  0  0  0  0  0  0  0  0  0
  -21.6030  -22.8096   22.7751 C   0  0  0  0  0  0  0  0  0  0  0  0
  -31.6460  -23.3364   18.5343 C   0  0  0  0  0  0  0  0  0  0  0  0
  -30.0212  -24.6850   17.1532 C   0  0  0  0  0  0  0  0  0  0  0  0
  -25.5855  -27.2234   25.6954 C   0  0  0  0  0  0  0  0  0  0  0  0
  -24.3383  -25.0554   25.8075 C   0  0  0  0  0  0  0  0  0  0  0  0
  -23.0935  -27.1933   25.4875 C   0  0  0  0  0  0  0  0  0  0  0  0
  -22.8602  -24.0554   19.4071 C   0  0  0  0  0  0  0  0  0  0  0  0
  -27.6069  -20.6995   24.7394 C   0  0  1  0  0  0  0  0  0  0  0  0
  -24.4639  -26.2594   23.5791 C   0  0  1  0  0  0  0  0  0  0  0  0
  -22.1672  -23.8272   21.7959 C   0  0  2  0  0  0  0  0  0  0  0  0
  -30.3777  -24.1870   18.5532 C   0  0  0  0  0  0  0  0  0  1  0  0
  -24.3895  -26.4375   25.1219 C   0  0  0  0  0  0  0  0  0  0  0  0
  -28.7497  -15.5662   22.1290 N   0  0  0  0  0  0  0  0  0  0  0  0
  -27.4064  -21.9084   21.1713 N   0  0  0  0  0  0  0  0  0  0  0  0
  -29.5395  -16.6381   21.9462 N   0  0  0  0  0  0  0  0  0  0  0  0
  -25.6803  -27.7879   22.0600 N   0  0  0  0  0  0  0  0  0  0  0  0
  -29.2046  -18.8407   25.0551 N   0  0  0  0  0  0  0  0  0  0  0  0
  -30.6534  -17.9015   20.2808 N   0  0  0  0  0  0  0  0  0  0  0  0
  -28.6164  -14.6336   17.9211 N   0  0  0  0  0  0  0  0  0  0  0  0
  -29.4675  -23.0650   20.5218 N   0  0  0  0  0  0  0  0  0  0  0  0
  -26.2645  -30.9702   23.0095 N   0  0  0  0  0  0  0  0  0  0  0  0
  -23.3305  -25.5421   23.0051 N   0  0  0  0  0  0  0  0  0  0  0  0
  -22.3340  -23.1634   20.4721 N   0  3  0  0  0  0  0  0  0  0  0  0
  -29.9737  -16.4752   17.7627 O   0  0  0  0  0  0  0  0  0  0  0  0
  -27.9567  -29.4152   22.6343 O   0  0  0  0  0  0  0  0  0  0  0  0
  -29.6142  -20.9349   25.9752 O   0  0  0  0  0  0  0  0  0  0  0  0
  -23.6216  -28.3922   22.9726 O   0  0  0  0  0  0  0  0  0  0  0  0
  -24.5709  -23.8370   22.0402 O   0  0  0  0  0  0  0  0  0  0  0  0
  -28.1786  -23.1999   18.5727 O   0  0  0  0  0  0  0  0  0  0  0  0
  -25.4371  -10.5604   20.0035 O   0  0  0  0  0  0  0  0  0  0  0  0
  -30.6548  -25.3235   19.3705 O   0  0  0  0  0  0  0  0  0  1  0  0
  -20.6055  -10.2308   22.6399 F   0  0  0  0  0  0  0  0  0  0  0  0
  -23.0644  -10.3690   18.5976 F   0  0  0  0  0  0  0  0  0  0  0  0
  -29.2480  -22.0708   22.9782 S   0  0  0  0  0  0  0  0  0  0  0  0
  1  2  1  0  0  0  0
  1  5  2  0  0  0  0
  2  6  2  0  0  0  0
  3  8  2  0  0  0  0
  3 15  1  0  0  0  0
  4  9  1  0  0  0  0
  4 15  2  0  0  0  0
  5 17  1  0  0  0  0
  6 19  1  0  0  0  0
  7 10  2  0  0  0  0
  7 18  1  0  0  0  0
  8 21  1  0  0  0  0
  9 21  2  0  0  0  0
 10 22  1  0  0  0  0
 11 12  2  0  0  0  0
 11 23  1  0  0  0  0
 12 24  1  0  0  0  0
 13 20  1  0  0  0  0
 13 22  2  0  0  0  0
 14 24  2  0  0  0  0
 14 25  1  0  0  0  0
 15 26  1  0  0  0  0
 16 26  1  0  0  0  0
 16 29  2  0  0  0  0
 16 31  1  0  0  0  0
 17 19  2  0  0  0  0
 17 37  1  0  0  0  0
 18 20  2  0  0  0  0
 18 38  1  0  0  0  0
 19 46  1  0  0  0  0
 20 39  1  0  0  0  0
 21 80  1  0  0  0  0
 22 81  1  0  0  0  0
 23 25  2  0  0  0  0
 23 80  1  0  0  0  0
 24 82  1  0  0  0  0
 25 83  1  0  0  0  0
 26 63  2  0  0  0  0
 27 28  2  0  0  0  0
 27 49  1  0  0  0  0
 27 64  1  0  0  0  0
 28 58  1  0  0  0  0
 28 84  1  0  0  0  0
 29 65  1  0  0  0  0
 29 68  1  0  0  0  0
 30 64  2  0  0  0  0
 30 70  1  0  0  0  0
 30 84  1  0  0  0  0
 31 69  1  0  0  0  0
 31 74  2  0  0  0  0
 32 47  1  0  0  0  0
 32 71  1  0  0  0  0
 32 75  2  0  0  0  0
 33 58  1  0  0  0  0
 33 67  1  0  0  0  0
 33 76  2  0  0  0  0
 34 59  1  0  0  0  0
 34 66  1  0  0  0  0
 34 77  2  0  0  0  0
 35 60  1  0  0  0  0
 35 72  1  0  0  0  0
 35 78  2  0  0  0  0
 36 61  1  0  0  0  0
 36 70  1  0  0  0  0
 36 79  2  0  0  0  0
 37 40  1  0  0  0  0
 38 47  1  0  0  0  0
 39 66  1  0  0  0  0
 40 42  1  0  0  0  0
 41 43  1  0  0  0  0
 41 44  1  0  0  0  0
 42 46  1  0  0  0  0
 43 48  1  0  0  0  0
 44 67  1  0  0  0  0
 45 48  1  0  0  0  0
 45 67  1  0  0  0  0
 46 71  1  0  0  0  0
 47 66  1  0  0  0  0
 48 65  1  0  0  0  0
 50 58  1  0  0  0  0
 51 60  1  0  0  0  0
 52 61  1  0  0  0  0
 53 61  1  0  0  0  0
 54 62  1  0  0  0  0
 55 62  1  0  0  0  0
 56 62  1  0  0  0  0
 57 73  1  0  0  0  0
 59 62  1  0  0  0  0
 59 72  1  0  0  0  0
 60 73  1  0  0  0  0
 61 81  1  0  0  0  0
 63 65  1  0  0  0  0
M  CHG  1  73   1
M  ISO  4  33 100  58 100  61 101  81 101
M  END
> <Batch ID>
0187

> <Smiles>
CNC(C)C(=O)NC(C(=O)N1Cc2cc([101O:1][101C:1](C)(C)C(=O)Nc3nc(C)c([100CH:0](C)[100C:0](=O)N4CCCC(n5nc(-c6ccc(Oc7ccc(F)cc7F)cc6)c(C(N)=O)c5N)C4)s3)ccc2CC1C(=O)NC1CCCc2ccccc21)C(C)(C)C

> <Shape>
0.266

> <Color>
0.068

> <Negative vol penalty>
0.000

$$$$

  -OEChem-04052305123D

 84 92  0     1  0  0  0  0  0999 V2000
  -28.0771  -36.5075   17.3333 C   0  0  0  0  0  0  0  0  0  0  0  0
  -28.4616  -35.1729   17.4132 C   0  0  0  0  0  0  0  0  0  0  0  0
  -22.4538  -10.6707   21.2349 C   0  0  0  0  0  0  0  0  0  0  0  0
  -24.5556   -9.6342   20.6476 C   0  0  0  0  0  0  0  0  0  0  0  0
  -27.2916  -37.0670   18.3402 C   0  0  0  0  0  0  0  0  0  0  0  0
  -28.0617  -34.3973   18.5008 C   0  0  0  0  0  0  0  0  0  0  0  0
  -26.6671  -28.4341   18.4553 C   0  0  0  0  0  0  0  0  0  0  0  0
  -21.8723   -9.4109   21.3775 C   0  0  0  0  0  0  0  0  0  0  0  0
  -23.9742   -8.3743   20.7902 C   0  0  0  0  0  0  0  0  0  0  0  0
  -27.3991  -27.2970   18.7943 C   0  0  0  0  0  0  0  0  0  0  0  0
  -19.9306   -6.4635   22.2478 C   0  0  0  0  0  0  0  0  0  0  0  0
  -19.1294   -6.2421   23.3679 C   0  0  0  0  0  0  0  0  0  0  0  0
  -26.4119  -27.3251   20.9952 C   0  0  0  0  0  0  0  0  0  0  0  0
  -21.0099   -6.7198   24.8075 C   0  0  0  0  0  0  0  0  0  0  0  0
  -29.1722  -18.9723   19.6792 C   0  0  0  0  0  0  0  0  0  0  0  0
  -23.7955  -10.7824   20.8699 C   0  0  0  0  0  0  0  0  0  0  0  0
  -25.0468  -12.8377   21.7169 C   0  0  0  0  0  0  0  0  0  0  0  0
  -26.8738  -36.2952   19.4358 C   0  0  0  0  0  0  0  0  0  0  0  0
  -25.8088  -29.0326   19.3888 C   0  0  0  0  0  0  0  0  0  0  0  0
  -27.2710  -34.9473   19.5240 C   0  0  0  0  0  0  0  0  0  0  0  0
  -25.6682  -28.4682   20.6647 C   0  0  0  0  0  0  0  0  0  0  0  0
  -22.6325   -8.2627   21.1552 C   0  0  0  0  0  0  0  0  0  0  0  0
  -27.2738  -26.7440   20.0653 C   0  0  0  0  0  0  0  0  0  0  0  0
  -21.2715   -6.8130   22.4075 C   0  0  0  0  0  0  0  0  0  0  0  0
  -19.6690   -6.3703   24.6477 C   0  0  0  0  0  0  0  0  0  0  0  0
  -21.8112   -6.9412   23.6874 C   0  0  0  0  0  0  0  0  0  0  0  0
  -24.3965  -12.0835   20.7218 C   0  0  0  0  0  0  0  0  0  0  0  0
  -29.4467  -18.7486   18.3463 C   0  0  0  0  0  0  0  0  0  0  0  0
  -25.4362  -13.9884   21.0760 C   0  0  0  0  0  0  0  0  0  0  0  0
  -28.9684  -21.0308   18.9506 C   0  0  0  0  0  0  0  0  0  0  0  0
  -25.2782  -12.5260   23.0971 C   0  0  0  0  0  0  0  0  0  0  0  0
  -25.6651  -31.8754   20.8037 C   0  0  0  0  0  0  0  0  0  0  0  0
  -22.8648  -30.7216   21.9653 C   0  0  0  0  0  0  0  0  0  0  0  0
  -28.4358  -23.3087   19.8788 C   0  0  0  0  0  0  0  0  0  0  0  0
  -20.9614  -28.0055   22.7694 C   0  0  0  0  0  0  0  0  0  0  0  0
  -27.6804  -16.5879   16.6770 C   0  0  0  0  0  0  0  0  0  0  0  0
  -26.0649  -36.9566   20.5234 C   0  0  0  0  0  0  0  0  0  0  0  0
  -25.0059  -30.2433   18.9988 C   0  0  0  0  0  0  0  0  0  0  0  0
  -24.7449  -29.0607   21.6966 C   0  0  0  0  0  0  0  0  0  0  0  0
  -25.3705  -35.9658   21.4542 C   0  0  0  0  0  0  0  0  0  0  0  0
  -24.2152  -15.7875   16.5088 C   0  0  0  0  0  0  0  0  0  0  0  0
  -26.3391  -34.8687   21.8843 C   0  0  0  0  0  0  0  0  0  0  0  0
  -24.0089  -14.8104   17.6676 C   0  0  0  0  0  0  0  0  0  0  0  0
  -25.5735  -15.5902   15.8393 C   0  0  0  0  0  0  0  0  0  0  0  0
  -26.5218  -14.6586   17.9146 C   0  0  0  0  0  0  0  0  0  0  0  0
  -26.8364  -34.0668   20.6756 C   0  0  1  0  0  0  0  0  0  0  0  0
  -24.5509  -31.0700   20.1974 C   0  0  1  0  0  0  0  0  0  0  0  0
  -25.1890  -14.8564   18.6567 C   0  0  2  0  0  0  0  0  0  0  0  0
  -18.7314  -27.3789   23.7347 C   0  0  0  0  0  0  0  0  0  0  0  0
  -31.3427  -15.4448   17.4180 C   0  0  0  0  0  0  0  0  0  0  0  0
  -32.3008  -17.6599   18.0464 C   0  0  0  0  0  0  0  0  0  0  0  0
  -23.8803  -31.4181   24.7570 C   0  0  0  0  0  0  0  0  0  0  0  0
  -22.0921  -29.9412   25.7000 C   0  0  0  0  0  0  0  0  0  0  0  0
  -21.4693  -31.9514   24.3608 C   0  0  0  0  0  0  0  0  0  0  0  0
  -20.1512  -26.6067   20.2903 C   0  0  0  0  0  0  0  0  0  0  0  0
  -28.3017  -24.7234   19.3466 C   0  0  0  0  0  0  0  0  0  1  0  0
  -29.7780  -17.4916   17.6479 C   0  0  1  0  0  0  0  0  0  0  0  0
  -22.4568  -29.9396   23.1905 C   0  0  1  0  0  0  0  0  0  0  0  0
  -19.5148  -27.6627   22.4625 C   0  0  2  0  0  0  0  0  0  0  0  0
  -31.0660  -16.7569   18.1660 C   0  0  0  0  0  0  0  0  0  0  0  0
  -22.4936  -30.8023   24.4835 C   0  0  0  0  0  0  0  0  0  0  0  0
  -28.8981  -20.2804   20.0277 N   0  0  0  0  0  0  0  0  0  0  0  0
  -24.3721  -12.7030   19.5388 N   0  0  0  0  0  0  0  0  0  0  0  0
  -25.0117  -13.8587   19.7864 N   0  0  0  0  0  0  0  0  0  0  0  0
  -23.9861  -30.2479   21.2695 N   0  0  0  0  0  0  0  0  0  0  0  0
  -26.6496  -15.6464   16.8317 N   0  0  0  0  0  0  0  0  0  0  0  0
  -26.0967  -15.0885   21.4955 N   0  0  0  0  0  0  0  0  0  0  0  0
  -24.8116  -11.3008   23.5927 N   0  0  0  0  0  0  0  0  0  0  0  0
  -28.7603  -22.4272   18.8533 N   0  0  0  0  0  0  0  0  0  0  0  0
  -25.8248  -33.1275   20.2413 N   0  0  0  0  0  0  0  0  0  0  0  0
  -21.1491  -29.3660   22.8918 N   0  0  0  0  0  0  0  0  0  0  0  0
  -28.6571  -16.5783   17.6653 N   0  0  0  0  0  0  0  0  0  0  0  0
  -19.4422  -26.4587   21.5874 N   0  3  0  0  0  0  0  0  0  0  0  0
  -25.8664  -13.3178   23.8721 O   0  0  0  0  0  0  0  0  0  0  0  0
  -26.3298  -31.3968   21.7152 O   0  0  0  0  0  0  0  0  0  0  0  0
  -22.2084  -31.7119   21.6336 O   0  0  0  0  0  0  0  0  0  0  0  0
  -28.2666  -23.0501   21.0658 O   0  0  0  0  0  0  0  0  0  0  0  0
  -21.8367  -27.1514   22.8923 O   0  0  0  0  0  0  0  0  0  0  0  0
  -27.7241  -17.3820   15.7313 O   0  0  0  0  0  0  0  0  0  0  0  0
  -22.0655   -7.0332   21.2945 O   0  0  0  0  0  0  0  0  0  0  0  0
  -27.9876  -25.6345   20.3990 O   0  0  0  0  0  0  0  0  0  1  0  0
  -18.8990   -6.1591   25.7232 F   0  0  0  0  0  0  0  0  0  0  0  0
  -23.0984   -7.2779   23.8472 F   0  0  0  0  0  0  0  0  0  0  0  0
  -29.3590  -20.2289   17.4846 S   0  0  0  0  0  0  0  0  0  0  0  0
  1  2  1  0  0  0  0
  1  5  2  0  0  0  0
  2  6  2  0  0  0  0
  3  8  2  0  0  0  0
  3 16  1  0  0  0  0
  4  9  1  0  0  0  0
  4 16  2  0  0  0  0
  5 18  1  0  0  0  0
  6 20  1  0  0  0  0
  7 10  2  0  0  0  0
  7 19  1  0  0  0  0
  8 22  1  0  0  0  0
  9 22  2  0  0  0  0
 10 23  1  0  0  0  0
 11 12  2  0  0  0  0
 11 24  1  0  0  0  0
 12 25  1  0  0  0  0
 13 21  1  0  0  0  0
 13 23  2  0  0  0  0
 14 25  2  0  0  0  0
 14 26  1  0  0  0  0
 15 28  2  0  0  0  0
 15 62  1  0  0  0  0
 16 27  1  0  0  0  0
 17 27  1  0  0  0  0
 17 29  2  0  0  0  0
 17 31  1  0  0  0  0
 18 20  2  0  0  0  0
 18 37  1  0  0  0  0
 19 21  2  0  0  0  0
 19 38  1  0  0  0  0
 20 46  1  0  0  0  0
 21 39  1  0  0  0  0
 22 80  1  0  0  0  0
 23 81  1  0  0  0  0
 24 26  2  0  0  0  0
 24 80  1  0  0  0  0
 25 82  1  0  0  0  0
 26 83  1  0  0  0  0
 27 63  2  0  0  0  0
 28 57  1  0  0  0  0
 28 84  1  0  0  0  0
 29 64  1  0  0  0  0
 29 67  1  0  0  0  0
 30 62  2  0  0  0  0
 30 69  1  0  0  0  0
 30 84  1  0  0  0  0
 31 68  1  0  0  0  0
 31 74  2  0  0  0  0
 32 47  1  0  0  0  0
 32 70  1  0  0  0  0
 32 75  2  0  0  0  0
 33 58  1  0  0  0  0
 33 65  1  0  0  0  0
 33 76  2  0  0  0  0
 34 56  1  0  0  0  0
 34 69  1  0  0  0  0
 34 77  2  0  0  0  0
 35 59  1  0  0  0  0
 35 71  1  0  0  0  0
 35 78  2  0  0  0  0
 36 66  1  0  0  0  0
 36 72  1  0  0  0  0
 36 79  2  0  0  0  0
 37 40  1  0  0  0  0
 38 47  1  0  0  0  0
 39 65  1  0  0  0  0
 40 42  1  0  0  0  0
 41 43  1  0  0  0  0
 41 44  1  0  0  0  0
 42 46  1  0  0  0  0
 43 48  1  0  0  0  0
 44 66  1  0  0  0  0
 45 48  1  0  0  0  0
 45 66  1  0  0  0  0
 46 70  1  0  0  0  0
 47 65  1  0  0  0  0
 48 64  1  0  0  0  0
 49 59  1  0  0  0  0
 50 60  1  0  0  0  0
 51 60  1  0  0  0  0
 52 61  1  0  0  0  0
 53 61  1  0  0  0  0
 54 61  1  0  0  0  0
 55 73  1  0  0  0  0
 56 81  1  0  0  0  0
 57 60  1  0  0  0  0
 57 72  1  0  0  0  0
 58 61  1  0  0  0  0
 58 71  1  0  0  0  0
 59 73  1  0  0  0  0
 63 64  1  0  0  0  0
M  CHG  1  73   1
M  ISO  4  36 100  56 101  72 100  81 101
M  END
> <Batch ID>
0187

> <Smiles>
CNC(C)C(=O)NC(C(=O)N1Cc2cc([101O:1][101CH2:1]C(=O)Nc3ncc(C([100NH:0][100C:0](=O)N4CCCC(n5nc(-c6ccc(Oc7ccc(F)cc7F)cc6)c(C(N)=O)c5N)C4)C(C)C)s3)ccc2CC1C(=O)NC1CCCc2ccccc21)C(C)(C)C

> <Shape>
0.258

> <Color>
0.109

> <Negative vol penalty>
0.000

$$$$

  -OEChem-04052305123D

 86 94  0     1  0  0  0  0  0999 V2000
  -25.8810  -34.4206   25.0203 C   0  0  0  0  0  0  0  0  0  0  0  0
  -26.4218  -33.2367   24.5290 C   0  0  0  0  0  0  0  0  0  0  0  0
  -24.5328  -14.9756   20.8026 C   0  0  0  0  0  0  0  0  0  0  0  0
  -26.7262  -14.8132   21.8026 C   0  0  0  0  0  0  0  0  0  0  0  0
  -24.5473  -34.4613   25.4248 C   0  0  0  0  0  0  0  0  0  0  0  0
  -25.6295  -32.0925   24.4429 C   0  0  0  0  0  0  0  0  0  0  0  0
  -26.2038  -29.6586   20.0394 C   0  0  0  0  0  0  0  0  0  0  0  0
  -24.5504  -13.6056   20.5414 C   0  0  0  0  0  0  0  0  0  0  0  0
  -26.7438  -13.4431   21.5415 C   0  0  0  0  0  0  0  0  0  0  0  0
  -27.3447  -28.8709   19.8913 C   0  0  0  0  0  0  0  0  0  0  0  0
  -23.8651  -10.0872   19.9362 C   0  0  0  0  0  0  0  0  0  0  0  0
  -22.7140   -9.3562   20.2298 C   0  0  0  0  0  0  0  0  0  0  0  0
  -26.0420  -26.9018   20.3861 C   0  0  0  0  0  0  0  0  0  0  0  0
  -22.8948  -10.0037   22.5504 C   0  0  0  0  0  0  0  0  0  0  0  0
  -25.6207  -15.5795   21.4331 C   0  0  0  0  0  0  0  0  0  0  0  0
  -25.1226  -17.6337   22.8613 C   0  0  0  0  0  0  0  0  0  0  0  0
  -23.7356  -33.3196   25.3346 C   0  0  0  0  0  0  0  0  0  0  0  0
  -24.9737  -29.0740   20.3732 C   0  0  0  0  0  0  0  0  0  0  0  0
  -24.2841  -32.1177   24.8478 C   0  0  0  0  0  0  0  0  0  0  0  0
  -24.8866  -27.6839   20.5353 C   0  0  0  0  0  0  0  0  0  0  0  0
  -25.6559  -12.8393   20.9109 C   0  0  0  0  0  0  0  0  0  0  0  0
  -27.2645  -27.4927   20.0675 C   0  0  0  0  0  0  0  0  0  0  0  0
  -24.5311  -10.7764   20.9497 C   0  0  0  0  0  0  0  0  0  0  0  0
  -22.2288   -9.3144   21.5369 C   0  0  0  0  0  0  0  0  0  0  0  0
  -24.0459  -10.7347   22.2568 C   0  0  0  0  0  0  0  0  0  0  0  0
  -25.6034  -16.9948   21.7027 C   0  0  0  0  0  0  0  0  0  0  0  0
  -25.3294  -18.9711   22.6269 C   0  0  0  0  0  0  0  0  0  0  0  0
  -33.2984  -22.8369   20.5400 C   0  0  0  0  0  0  0  0  0  0  0  0
  -31.3983  -21.7924   20.3559 C   0  0  0  0  0  0  0  0  0  0  0  0
  -24.5411  -17.0687   24.0439 C   0  0  0  0  0  0  0  0  0  0  0  0
  -22.9606  -29.3267   22.8201 C   0  0  0  0  0  0  0  0  0  0  0  0
  -21.0977  -27.4111   20.9809 C   0  0  0  0  0  0  0  0  0  0  0  0
  -20.9011  -25.0982   18.4791 C   0  0  0  0  0  0  0  0  0  0  0  0
  -29.1805  -21.9623   19.1732 C   0  0  0  0  0  0  0  0  0  0  0  0
  -22.3127  -33.3997   25.8282 C   0  0  0  0  0  0  0  0  0  0  0  0
  -23.7468  -29.9344   20.5031 C   0  0  0  0  0  0  0  0  0  0  0  0
  -23.5855  -27.0051   20.8743 C   0  0  0  0  0  0  0  0  0  0  0  0
  -21.4375  -32.2423   25.3541 C   0  0  0  0  0  0  0  0  0  0  0  0
  -25.6267  -22.1443   19.0524 C   0  0  0  0  0  0  0  0  0  0  0  0
  -22.1608  -30.9130   25.5452 C   0  0  0  0  0  0  0  0  0  0  0  0
  -25.1736  -20.9058   19.8290 C   0  0  0  0  0  0  0  0  0  0  0  0
  -26.8837  -21.8690   18.2291 C   0  0  0  0  0  0  0  0  0  0  0  0
  -27.5535  -20.0583   19.7595 C   0  0  0  0  0  0  0  0  0  0  0  0
  -23.4497  -30.8620   24.7159 C   0  0  1  0  0  0  0  0  0  0  0  0
  -22.6529  -29.2912   21.3498 C   0  0  1  0  0  0  0  0  0  0  0  0
  -26.3281  -20.3048   20.6546 C   0  0  2  0  0  0  0  0  0  0  0  0
  -35.1630  -23.6404   19.0331 C   0  0  0  0  0  0  0  0  0  0  0  0
  -19.2462  -23.6897   17.2242 C   0  0  0  0  0  0  0  0  0  0  0  0
  -30.1239  -25.5568   21.9722 C   0  0  0  0  0  0  0  0  0  0  0  0
  -34.3836  -26.6683   21.8444 C   0  0  0  0  0  0  0  0  0  0  0  0
  -20.8934  -25.5258   23.3713 C   0  0  0  0  0  0  0  0  0  0  0  0
  -20.0694  -23.7494   21.8112 C   0  0  0  0  0  0  0  0  0  0  0  0
  -18.7569  -25.8493   22.1122 C   0  0  0  0  0  0  0  0  0  0  0  0
  -21.5891  -26.3801   15.9019 C   0  0  0  0  0  0  0  0  0  0  0  0
  -29.6300  -27.3234   20.2458 C   0  0  0  0  0  0  0  0  0  1  0  0
  -34.2832  -23.9443   20.2431 C   0  0  1  0  0  0  0  0  0  0  0  0
  -20.9288  -25.9196   20.8199 C   0  0  1  0  0  0  0  0  0  0  0  0
  -20.0028  -25.0084   17.2587 C   0  0  2  0  0  0  0  0  0  0  0  0
  -30.6425  -26.2662   20.7191 C   0  0  1  0  0  0  0  0  0  0  0  0
  -33.1782  -25.9395   21.2613 C   0  0  1  0  0  0  0  0  0  0  0  0
  -32.0287  -26.9055   20.9473 C   0  0  1  0  0  0  0  0  0  0  0  0
  -20.1872  -25.2738   22.0242 C   0  0  0  0  0  0  0  0  0  0  0  0
  -26.0795  -17.8556   20.7992 N   0  0  0  0  0  0  0  0  0  0  0  0
  -32.0537  -22.8514   19.9339 N   0  0  0  0  0  0  0  0  0  0  0  0
  -33.6373  -21.8588   21.3796 N   0  0  0  0  0  0  0  0  0  0  0  0
  -25.8990  -19.0490   21.3901 N   0  0  0  0  0  0  0  0  0  0  0  0
  -22.4153  -27.8901   20.9969 N   0  0  0  0  0  0  0  0  0  0  0  0
  -27.9356  -21.3051   19.0779 N   0  0  0  0  0  0  0  0  0  0  0  0
  -25.0778  -20.0763   23.3601 N   0  0  0  0  0  0  0  0  0  0  0  0
  -24.4023  -15.6761   24.1204 N   0  0  0  0  0  0  0  0  0  0  0  0
  -30.0906  -21.3512   20.0351 N   0  0  0  0  0  0  0  0  0  0  0  0
  -23.1461  -30.5993   23.3255 N   0  0  0  0  0  0  0  0  0  0  0  0
  -20.2681  -25.7201   19.5345 N   0  0  0  0  0  0  0  0  0  0  0  0
  -20.8109  -25.1193   16.0115 N   0  3  0  0  0  0  0  0  0  0  0  0
  -33.6208  -25.2547   20.0149 N   0  3  0  0  0  0  0  0  0  0  0  0
  -24.1410  -17.7788   24.9974 O   0  0  0  0  0  0  0  0  0  0  0  0
  -23.0235  -28.2772   23.4497 O   0  0  0  0  0  0  0  0  0  0  0  0
  -20.0972  -28.1257   21.0813 O   0  0  0  0  0  0  0  0  0  0  0  0
  -22.0481  -24.6573   18.4959 O   0  0  0  0  0  0  0  0  0  0  0  0
  -29.4119  -23.0063   18.5581 O   0  0  0  0  0  0  0  0  0  0  0  0
  -25.6733  -11.5023   20.6564 O   0  0  0  0  0  0  0  0  0  0  0  0
  -28.3766  -26.7216   19.9242 O   0  0  0  0  0  0  0  0  0  1  0  0
  -21.1225   -8.6137   21.8184 F   0  0  0  0  0  0  0  0  0  0  0  0
  -24.6807  -11.3957   23.2344 F   0  0  0  0  0  0  0  0  0  0  0  0
  -32.3572  -27.5961   19.8131 F   0  0  0  0  0  0  0  0  0  0  0  0
  -32.3115  -20.8402   21.4532 S   0  0  0  0  0  0  0  0  0  0  0  0
  1  2  1  0  0  0  0
  1  5  2  0  0  0  0
  2  6  2  0  0  0  0
  3  8  2  0  0  0  0
  3 15  1  0  0  0  0
  4  9  1  0  0  0  0
  4 15  2  0  0  0  0
  5 17  1  0  0  0  0
  6 19  1  0  0  0  0
  7 10  2  0  0  0  0
  7 18  1  0  0  0  0
  8 21  1  0  0  0  0
  9 21  2  0  0  0  0
 10 22  1  0  0  0  0
 11 12  2  0  0  0  0
 11 23  1  0  0  0  0
 12 24  1  0  0  0  0
 13 20  1  0  0  0  0
 13 22  2  0  0  0  0
 14 24  2  0  0  0  0
 14 25  1  0  0  0  0
 15 26  1  0  0  0  0
 16 26  1  0  0  0  0
 16 27  2  0  0  0  0
 16 30  1  0  0  0  0
 17 19  2  0  0  0  0
 17 35  1  0  0  0  0
 18 20  2  0  0  0  0
 18 36  1  0  0  0  0
 19 44  1  0  0  0  0
 20 37  1  0  0  0  0
 21 81  1  0  0  0  0
 22 82  1  0  0  0  0
 23 25  2  0  0  0  0
 23 81  1  0  0  0  0
 24 83  1  0  0  0  0
 25 84  1  0  0  0  0
 26 63  2  0  0  0  0
 27 66  1  0  0  0  0
 27 69  1  0  0  0  0
 28 56  1  0  0  0  0
 28 64  1  0  0  0  0
 28 65  2  0  0  0  0
 29 64  2  0  0  0  0
 29 71  1  0  0  0  0
 29 86  1  0  0  0  0
 30 70  1  0  0  0  0
 30 76  2  0  0  0  0
 31 45  1  0  0  0  0
 31 72  1  0  0  0  0
 31 77  2  0  0  0  0
 32 57  1  0  0  0  0
 32 67  1  0  0  0  0
 32 78  2  0  0  0  0
 33 58  1  0  0  0  0
 33 73  1  0  0  0  0
 33 79  2  0  0  0  0
 34 68  1  0  0  0  0
 34 71  1  0  0  0  0
 34 80  2  0  0  0  0
 35 38  1  0  0  0  0
 36 45  1  0  0  0  0
 37 67  1  0  0  0  0
 38 40  1  0  0  0  0
 39 41  1  0  0  0  0
 39 42  1  0  0  0  0
 40 44  1  0  0  0  0
 41 46  1  0  0  0  0
 42 68  1  0  0  0  0
 43 46  1  0  0  0  0
 43 68  1  0  0  0  0
 44 72  1  0  0  0  0
 45 67  1  0  0  0  0
 46 66  1  0  0  0  0
 47 56  1  0  0  0  0
 48 58  1  0  0  0  0
 49 59  1  0  0  0  0
 50 60  1  0  0  0  0
 51 62  1  0  0  0  0
 52 62  1  0  0  0  0
 53 62  1  0  0  0  0
 54 74  1  0  0  0  0
 55 59  1  0  0  0  0
 55 82  1  0  0  0  0
 56 75  1  0  0  0  0
 57 62  1  0  0  0  0
 57 73  1  0  0  0  0
 58 74  1  0  0  0  0
 59 61  1  0  0  0  0
 60 61  1  0  0  0  0
 60 75  1  0  0  0  0
 61 85  1  0  0  0  0
 63 66  1  0  0  0  0
 65 86  1  0  0  0  0
M  CHG  2  74   1  75   1
M  ISO  4  34 100  55 101  71 100  82 101
M  END
> <Batch ID>
0187

> <Smiles>
CNC(C)C(=O)NC(C(=O)N1Cc2cc([101O:1][101CH2:1]C(C)C(F)C(C)NC(C)c3nsc([100NH:0][100C:0](=O)N4CCCC(n5nc(-c6ccc(Oc7ccc(F)cc7F)cc6)c(C(N)=O)c5N)C4)n3)ccc2CC1C(=O)NC1CCCc2ccccc21)C(C)(C)C

> <Shape>
0.234

> <Color>
0.089

> <Negative vol penalty>
0.000

$$$$

  -OEChem-04052305123D

 87 95  0     1  0  0  0  0  0999 V2000
  -27.0560  -25.1756    6.9542 C   0  0  0  0  0  0  0  0  0  0  0  0
  -27.3955  -24.6436    8.1941 C   0  0  0  0  0  0  0  0  0  0  0  0
  -23.1062   -9.8899   19.9193 C   0  0  0  0  0  0  0  0  0  0  0  0
  -23.8684   -9.8787   22.2119 C   0  0  0  0  0  0  0  0  0  0  0  0
  -26.3241  -26.3600    6.8819 C   0  0  0  0  0  0  0  0  0  0  0  0
  -27.0042  -25.2965    9.3624 C   0  0  0  0  0  0  0  0  0  0  0  0
  -25.1315  -22.1169   12.8306 C   0  0  0  0  0  0  0  0  0  0  0  0
  -22.3826   -8.7208   20.1541 C   0  0  0  0  0  0  0  0  0  0  0  0
  -23.1448   -8.7096   22.4468 C   0  0  0  0  0  0  0  0  0  0  0  0
  -26.0473  -21.3654   13.5658 C   0  0  0  0  0  0  0  0  0  0  0  0
  -23.0124   -5.4090   20.3992 C   0  0  0  0  0  0  0  0  0  0  0  0
  -23.0960   -4.3936   19.4466 C   0  0  0  0  0  0  0  0  0  0  0  0
  -25.8307  -22.9118   15.4046 C   0  0  0  0  0  0  0  0  0  0  0  0
  -20.7086   -4.5230   19.0992 C   0  0  0  0  0  0  0  0  0  0  0  0
  -23.8491  -10.4688   20.9482 C   0  0  0  0  0  0  0  0  0  0  0  0
  -24.1472  -13.0009   20.8624 C   0  0  0  0  0  0  0  0  0  0  0  0
  -25.9152  -27.0226    8.0501 C   0  0  0  0  0  0  0  0  0  0  0  0
  -24.5658  -23.2794   13.3736 C   0  0  0  0  0  0  0  0  0  0  0  0
  -26.2672  -26.4917    9.3057 C   0  0  0  0  0  0  0  0  0  0  0  0
  -24.9061  -23.6748   14.6752 C   0  0  0  0  0  0  0  0  0  0  0  0
  -22.4019   -8.1306   21.4179 C   0  0  0  0  0  0  0  0  0  0  0  0
  -26.3992  -21.7644   14.8519 C   0  0  0  0  0  0  0  0  0  0  0  0
  -21.7769   -5.9814   20.7020 C   0  0  0  0  0  0  0  0  0  0  0  0
  -21.9441   -3.9506   18.7965 C   0  0  0  0  0  0  0  0  0  0  0  0
  -20.6250   -5.5384   20.0520 C   0  0  0  0  0  0  0  0  0  0  0  0
  -24.5973  -11.6762   20.7061 C   0  0  0  0  0  0  0  0  0  0  0  0
  -29.3916  -18.9072   20.8004 C   0  0  0  0  0  0  0  0  0  0  0  0
  -30.5075  -18.1270   21.0195 C   0  0  0  0  0  0  0  0  0  0  0  0
  -25.2259  -13.7740   20.5084 C   0  0  0  0  0  0  0  0  0  0  0  0
  -30.7256  -19.8153   19.3152 C   0  0  0  0  0  0  0  0  0  0  0  0
  -22.8685  -13.4890   21.2894 C   0  0  0  0  0  0  0  0  0  0  0  0
  -24.5964  -26.3620   12.5988 C   0  0  0  0  0  0  0  0  0  0  0  0
  -29.4396  -21.0496   16.6938 C   0  0  0  0  0  0  0  0  0  0  0  0
  -22.4598  -26.5936   15.0285 C   0  0  0  0  0  0  0  0  0  0  0  0
  -21.2119  -25.2867   17.9236 C   0  0  0  0  0  0  0  0  0  0  0  0
  -30.6914  -14.8849   20.7059 C   0  0  0  0  0  0  0  0  0  0  0  0
  -25.1662  -28.3253    7.9213 C   0  0  0  0  0  0  0  0  0  0  0  0
  -23.5593  -24.0642   12.5777 C   0  0  0  0  0  0  0  0  0  0  0  0
  -24.3118  -24.9038   15.3115 C   0  0  0  0  0  0  0  0  0  0  0  0
  -24.4680  -28.7562    9.2087 C   0  0  0  0  0  0  0  0  0  0  0  0
  -29.5925  -12.5139   18.2878 C   0  0  0  0  0  0  0  0  0  0  0  0
  -25.4107  -28.6166   10.3997 C   0  0  0  0  0  0  0  0  0  0  0  0
  -28.1608  -12.1896   18.7179 C   0  0  0  0  0  0  0  0  0  0  0  0
  -30.5070  -12.7341   19.4908 C   0  0  0  0  0  0  0  0  0  0  0  0
  -28.5945  -13.4133   20.8889 C   0  0  0  0  0  0  0  0  0  0  0  0
  -25.8396  -27.1574   10.5957 C   0  0  1  0  0  0  0  0  0  0  0  0
  -23.4352  -25.5142   13.0353 C   0  0  1  0  0  0  0  0  0  0  0  0
  -27.6222  -13.2380   19.7098 C   0  0  2  0  0  0  0  0  0  0  0  0
  -31.3099  -22.6839   17.0081 C   0  0  0  0  0  0  0  0  0  0  0  0
  -19.4933  -25.7195   19.7003 C   0  0  0  0  0  0  0  0  0  0  0  0
  -24.2489  -28.7540   16.2294 C   0  0  0  0  0  0  0  0  0  0  0  0
  -23.0263  -28.4646   18.3950 C   0  0  0  0  0  0  0  0  0  0  0  0
  -21.7984  -29.2347   16.3647 C   0  0  0  0  0  0  0  0  0  0  0  0
  -19.7899  -22.7607   17.3267 C   0  0  0  0  0  0  0  0  0  0  0  0
  -30.7215  -17.0192   21.9720 C   0  0  0  0  0  0  0  0  0  0  0  0
  -28.0989  -21.7381   16.5151 C   0  0  0  0  0  0  0  0  0  1  0  0
  -30.3953  -21.6837   17.6948 C   0  0  2  0  0  0  0  0  0  0  0  0
  -22.5547  -26.8270   16.5170 C   0  0  1  0  0  0  0  0  0  0  0  0
  -19.7875  -25.0258   18.3793 C   0  0  2  0  0  0  0  0  0  0  0  0
  -28.1005  -18.7962   21.5097 C   0  0  0  0  0  0  0  0  0  0  0  0
  -22.9199  -28.2979   16.8641 C   0  0  0  0  0  0  0  0  0  0  0  0
  -25.8631  -11.6080   20.2854 N   0  0  0  0  0  0  0  0  0  0  0  0
  -29.5149  -19.8761   19.8238 N   0  0  0  0  0  0  0  0  0  0  0  0
  -26.2177  -12.8995   20.1743 N   0  0  0  0  0  0  0  0  0  0  0  0
  -23.3371  -25.6412   14.4908 N   0  0  0  0  0  0  0  0  0  0  0  0
  -29.9398  -13.7408   20.3912 N   0  0  0  0  0  0  0  0  0  0  0  0
  -25.4132  -15.1098   20.4534 N   0  0  0  0  0  0  0  0  0  0  0  0
  -21.8728  -12.5579   21.6151 N   0  0  0  0  0  0  0  0  0  0  0  0
  -31.1920  -20.6449   18.3101 N   0  0  0  0  0  0  0  0  0  0  0  0
  -24.7818  -26.4005   11.2300 N   0  0  0  0  0  0  0  0  0  0  0  0
  -21.2875  -26.3766   17.0824 N   0  0  0  0  0  0  0  0  0  0  0  0
  -30.0773  -15.7917   21.5611 N   0  0  0  0  0  0  0  0  0  0  0  0
  -19.5595  -23.5636   18.5552 N   0  3  0  0  0  0  0  0  0  0  0  0
  -22.6111  -14.7144   21.3638 O   0  0  0  0  0  0  0  0  0  0  0  0
  -25.2731  -26.9397   13.4414 O   0  0  0  0  0  0  0  0  0  0  0  0
  -29.7342  -20.0401   16.0532 O   0  0  0  0  0  0  0  0  0  0  0  0
  -21.6328  -27.2276   14.3685 O   0  0  0  0  0  0  0  0  0  0  0  0
  -22.1629  -24.5951   18.2813 O   0  0  0  0  0  0  0  0  0  0  0  0
  -31.8237  -15.0862   20.2537 O   0  0  0  0  0  0  0  0  0  0  0  0
  -21.6957   -6.9899   21.6474 O   0  0  0  0  0  0  0  0  0  0  0  0
  -27.2932  -21.0332   15.5715 O   0  0  0  0  0  0  0  0  0  1  0  0
  -22.0247   -2.9766   17.8806 F   0  0  0  0  0  0  0  0  0  0  0  0
  -19.4354   -6.0852   20.3377 F   0  0  0  0  0  0  0  0  0  0  0  0
  -28.0662  -17.8100   22.4626 F   0  0  0  0  0  0  0  0  0  0  0  0
  -27.7292  -19.9338   22.1800 F   0  0  0  0  0  0  0  0  0  0  0  0
  -27.0491  -18.5183   20.6758 F   0  0  0  0  0  0  0  0  0  0  0  0
  -31.7677  -18.6162   19.9641 S   0  0  0  0  0  0  0  0  0  0  0  0
  1  2  1  0  0  0  0
  1  5  2  0  0  0  0
  2  6  2  0  0  0  0
  3  8  2  0  0  0  0
  3 15  1  0  0  0  0
  4  9  1  0  0  0  0
  4 15  2  0  0  0  0
  5 17  1  0  0  0  0
  6 19  1  0  0  0  0
  7 10  2  0  0  0  0
  7 18  1  0  0  0  0
  8 21  1  0  0  0  0
  9 21  2  0  0  0  0
 10 22  1  0  0  0  0
 11 12  2  0  0  0  0
 11 23  1  0  0  0  0
 12 24  1  0  0  0  0
 13 20  1  0  0  0  0
 13 22  2  0  0  0  0
 14 24  2  0  0  0  0
 14 25  1  0  0  0  0
 15 26  1  0  0  0  0
 16 26  1  0  0  0  0
 16 29  2  0  0  0  0
 16 31  1  0  0  0  0
 17 19  2  0  0  0  0
 17 37  1  0  0  0  0
 18 20  2  0  0  0  0
 18 38  1  0  0  0  0
 19 46  1  0  0  0  0
 20 39  1  0  0  0  0
 21 80  1  0  0  0  0
 22 81  1  0  0  0  0
 23 25  2  0  0  0  0
 23 80  1  0  0  0  0
 24 82  1  0  0  0  0
 25 83  1  0  0  0  0
 26 62  2  0  0  0  0
 27 28  2  0  0  0  0
 27 60  1  0  0  0  0
 27 63  1  0  0  0  0
 28 55  1  0  0  0  0
 28 87  1  0  0  0  0
 29 64  1  0  0  0  0
 29 67  1  0  0  0  0
 30 63  2  0  0  0  0
 30 69  1  0  0  0  0
 30 87  1  0  0  0  0
 31 68  1  0  0  0  0
 31 74  2  0  0  0  0
 32 47  1  0  0  0  0
 32 70  1  0  0  0  0
 32 75  2  0  0  0  0
 33 56  1  0  0  0  0
 33 57  1  0  0  0  0
 33 76  2  0  0  0  0
 34 58  1  0  0  0  0
 34 65  1  0  0  0  0
 34 77  2  0  0  0  0
 35 59  1  0  0  0  0
 35 71  1  0  0  0  0
 35 78  2  0  0  0  0
 36 66  1  0  0  0  0
 36 72  1  0  0  0  0
 36 79  2  0  0  0  0
 37 40  1  0  0  0  0
 38 47  1  0  0  0  0
 39 65  1  0  0  0  0
 40 42  1  0  0  0  0
 41 43  1  0  0  0  0
 41 44  1  0  0  0  0
 42 46  1  0  0  0  0
 43 48  1  0  0  0  0
 44 66  1  0  0  0  0
 45 48  1  0  0  0  0
 45 66  1  0  0  0  0
 46 70  1  0  0  0  0
 47 65  1  0  0  0  0
 48 64  1  0  0  0  0
 49 57  1  0  0  0  0
 50 59  1  0  0  0  0
 51 61  1  0  0  0  0
 52 61  1  0  0  0  0
 53 61  1  0  0  0  0
 54 73  1  0  0  0  0
 55 72  1  0  0  0  0
 56 81  1  0  0  0  0
 57 69  1  0  0  0  0
 58 61  1  0  0  0  0
 58 71  1  0  0  0  0
 59 73  1  0  0  0  0
 60 84  1  0  0  0  0
 60 85  1  0  0  0  0
 60 86  1  0  0  0  0
 62 64  1  0  0  0  0
M  CHG  1  73   1
M  ISO  4  36 100  56 101  72 100  81 101
M  END
> <Batch ID>
0187

> <Smiles>
CNC(C)C(=O)NC(C(=O)N1Cc2cc([101O:1][101CH2:1]C(=O)C(C)Nc3nc(C(F)(F)F)c(C[100NH:0][100C:0](=O)N4CCCC(n5nc(-c6ccc(Oc7ccc(F)cc7F)cc6)c(C(N)=O)c5N)C4)s3)ccc2CC1C(=O)NC1CCCc2ccccc21)C(C)(C)C

> <Shape>
0.181

> <Color>
0.203

> <Negative vol penalty>
0.000

$$$$
