
  -OEChem-04052305153D

 85 93  0     1  0  0  0  0  0999 V2000
  -31.2247  -18.7058   14.0533 C   0  0  0  0  0  0  0  0  0  0  0  0
  -31.1138  -18.7226   15.4400 C   0  0  0  0  0  0  0  0  0  0  0  0
  -23.0037   -9.8885   19.9802 C   0  0  0  0  0  0  0  0  0  0  0  0
  -23.7280   -9.9418   22.2844 C   0  0  0  0  0  0  0  0  0  0  0  0
  -31.9063  -19.7299   13.3972 C   0  0  0  0  0  0  0  0  0  0  0  0
  -31.6855  -19.7631   16.1715 C   0  0  0  0  0  0  0  0  0  0  0  0
  -29.5119  -22.2738   21.3171 C   0  0  0  0  0  0  0  0  0  0  0  0
  -22.2390   -8.7528   20.2468 C   0  0  0  0  0  0  0  0  0  0  0  0
  -22.9632   -8.8062   22.5511 C   0  0  0  0  0  0  0  0  0  0  0  0
  -29.8248  -22.0774   22.6615 C   0  0  0  0  0  0  0  0  0  0  0  0
  -23.2134   -5.4674   22.0809 C   0  0  0  0  0  0  0  0  0  0  0  0
  -23.8024   -4.4516   22.8337 C   0  0  0  0  0  0  0  0  0  0  0  0
  -31.3180  -23.9705   22.5841 C   0  0  0  0  0  0  0  0  0  0  0  0
  -22.0775   -4.6924   24.5082 C   0  0  0  0  0  0  0  0  0  0  0  0
  -23.7482  -10.4830   20.9990 C   0  0  0  0  0  0  0  0  0  0  0  0
  -24.1293  -12.9991   20.8218 C   0  0  0  0  0  0  0  0  0  0  0  0
  -32.4784  -20.7885   14.1203 C   0  0  0  0  0  0  0  0  0  0  0  0
  -30.1089  -23.3150   20.5921 C   0  0  0  0  0  0  0  0  0  0  0  0
  -32.3766  -20.8016   15.5245 C   0  0  0  0  0  0  0  0  0  0  0  0
  -31.0090  -24.1795   21.2314 C   0  0  0  0  0  0  0  0  0  0  0  0
  -22.2187   -8.2117   21.5322 C   0  0  0  0  0  0  0  0  0  0  0  0
  -30.7302  -22.9240   23.2944 C   0  0  0  0  0  0  0  0  0  0  0  0
  -22.0565   -6.0958   22.5417 C   0  0  0  0  0  0  0  0  0  0  0  0
  -23.2345   -4.0641   24.0473 C   0  0  0  0  0  0  0  0  0  0  0  0
  -21.4886   -5.7083   23.7554 C   0  0  0  0  0  0  0  0  0  0  0  0
  -24.5388  -11.6558   20.7240 C   0  0  0  0  0  0  0  0  0  0  0  0
  -30.1385  -17.5364   23.2037 C   0  0  0  0  0  0  0  0  0  0  0  0
  -25.2380  -13.7234   20.4575 C   0  0  0  0  0  0  0  0  0  0  0  0
  -30.6652  -16.5605   22.3839 C   0  0  0  0  0  0  0  0  0  0  0  0
  -32.2577  -17.7910   23.7076 C   0  0  0  0  0  0  0  0  0  0  0  0
  -22.8603  -13.5436   21.2077 C   0  0  0  0  0  0  0  0  0  0  0  0
  -32.0073  -23.4756   18.0477 C   0  0  0  0  0  0  0  0  0  0  0  0
  -31.5207  -26.6664   18.3710 C   0  0  0  0  0  0  0  0  0  0  0  0
  -30.7041  -29.2809   20.4067 C   0  0  0  0  0  0  0  0  0  0  0  0
  -30.7158  -14.6938   20.6929 C   0  0  0  0  0  0  0  0  0  0  0  0
  -33.2463  -21.8482   13.3707 C   0  0  0  0  0  0  0  0  0  0  0  0
  -29.7405  -23.5299   19.1497 C   0  0  0  0  0  0  0  0  0  0  0  0
  -31.6620  -25.3246   20.5029 C   0  0  0  0  0  0  0  0  0  0  0  0
  -33.5009  -23.1105   14.1905 C   0  0  0  0  0  0  0  0  0  0  0  0
  -29.6024  -12.2381   18.3676 C   0  0  0  0  0  0  0  0  0  0  0  0
  -34.0041  -22.7493   15.5844 C   0  0  0  0  0  0  0  0  0  0  0  0
  -28.1521  -11.9782   18.7814 C   0  0  0  0  0  0  0  0  0  0  0  0
  -30.5021  -12.4835   19.5776 C   0  0  0  0  0  0  0  0  0  0  0  0
  -28.5850  -13.2697   20.9102 C   0  0  0  0  0  0  0  0  0  0  0  0
  -32.9619  -21.9261   16.3510 C   0  0  1  0  0  0  0  0  0  0  0  0
  -30.7984  -24.3068   18.3721 C   0  0  1  0  0  0  0  0  0  0  0  0
  -27.6280  -13.0812   19.7217 C   0  0  2  0  0  0  0  0  0  0  0  0
  -28.7081  -17.8824   23.3348 C   0  0  0  0  0  0  0  0  0  0  0  0
  -30.4269  -31.7750   20.3947 C   0  0  0  0  0  0  0  0  0  0  0  0
  -34.4461  -20.9931   23.6427 C   0  0  0  0  0  0  0  0  0  0  0  0
  -34.6853  -19.2242   26.1226 C   0  0  0  0  0  0  0  0  0  0  0  0
  -32.2166  -24.2183   26.0794 C   0  0  0  0  0  0  0  0  0  0  0  0
  -34.5535  -27.0011   18.3818 C   0  0  0  0  0  0  0  0  0  0  0  0
  -34.2262  -29.3041   19.3076 C   0  0  0  0  0  0  0  0  0  0  0  0
  -33.3183  -28.7258   17.0573 C   0  0  0  0  0  0  0  0  0  0  0  0
  -27.8487  -29.0835   21.1594 C   0  0  0  0  0  0  0  0  0  0  0  0
  -33.0771  -21.8966   25.5979 C   0  0  0  0  0  0  0  0  0  0  0  0
  -32.2066  -27.7817   19.1224 C   0  0  1  0  0  0  0  0  0  0  0  0
  -29.7320  -30.4328   20.2260 C   0  0  2  0  0  0  0  0  0  0  0  0
  -33.2676  -20.7336   24.5925 C   0  0  2  0  0  0  0  0  0  0  0  0
  -33.4241  -19.3466   25.2714 C   0  0  1  0  0  0  0  0  0  0  0  0
  -32.3447  -23.1209   25.0295 C   0  0  1  0  0  0  0  0  0  1  0  0
  -33.5655  -28.1805   18.4808 C   0  0  0  0  0  0  0  0  0  0  0  0
  -25.8084  -11.5313   20.3283 N   0  0  0  0  0  0  0  0  0  0  0  0
  -31.0501  -18.2428   23.9638 N   0  0  0  0  0  0  0  0  0  0  0  0
  -26.2063  -12.8056   20.1742 N   0  0  0  0  0  0  0  0  0  0  0  0
  -31.2742  -25.4896   19.0923 N   0  0  0  0  0  0  0  0  0  0  0  0
  -29.9450  -13.5439   20.4203 N   0  0  0  0  0  0  0  0  0  0  0  0
  -25.4692  -15.0495   20.3548 N   0  0  0  0  0  0  0  0  0  0  0  0
  -21.8299  -12.6578   21.5513 N   0  0  0  0  0  0  0  0  0  0  0  0
  -30.0696  -15.6483   21.4778 N   0  0  0  0  0  0  0  0  0  0  0  0
  -33.4117  -18.2747   24.2963 N   0  0  0  0  0  0  0  0  0  0  0  0
  -31.9112  -22.7842   16.8551 N   0  0  0  0  0  0  0  0  0  0  0  0
  -31.2414  -28.8726   19.2043 N   0  0  0  0  0  0  0  0  0  0  0  0
  -28.6319  -30.3441   21.2274 N   0  3  0  0  0  0  0  0  0  0  0  0
  -22.6415  -14.7785   21.2308 O   0  0  0  0  0  0  0  0  0  0  0  0
  -32.9576  -23.4637   18.8213 O   0  0  0  0  0  0  0  0  0  0  0  0
  -31.2086  -26.8357   17.1897 O   0  0  0  0  0  0  0  0  0  0  0  0
  -30.9639  -28.7946   21.5052 O   0  0  0  0  0  0  0  0  0  0  0  0
  -31.8543  -14.8345   20.2392 O   0  0  0  0  0  0  0  0  0  0  0  0
  -21.4725   -7.1036   21.7928 O   0  0  0  0  0  0  0  0  0  0  0  0
  -31.0379  -22.7342   24.6064 O   0  0  0  0  0  0  0  0  0  1  0  0
  -23.7993   -3.0875   24.7694 F   0  0  0  0  0  0  0  0  0  0  0  0
  -20.3765   -6.3075   24.2027 F   0  0  0  0  0  0  0  0  0  0  0  0
  -32.3704  -16.5179   22.5624 S   0  0  0  0  0  0  0  0  0  0  0  0
  1  2  1  0  0  0  0
  1  5  2  0  0  0  0
  2  6  2  0  0  0  0
  3  8  2  0  0  0  0
  3 15  1  0  0  0  0
  4  9  1  0  0  0  0
  4 15  2  0  0  0  0
  5 17  1  0  0  0  0
  6 19  1  0  0  0  0
  7 10  2  0  0  0  0
  7 18  1  0  0  0  0
  8 21  1  0  0  0  0
  9 21  2  0  0  0  0
 10 22  1  0  0  0  0
 11 12  2  0  0  0  0
 11 23  1  0  0  0  0
 12 24  1  0  0  0  0
 13 20  1  0  0  0  0
 13 22  2  0  0  0  0
 14 24  2  0  0  0  0
 14 25  1  0  0  0  0
 15 26  1  0  0  0  0
 16 26  1  0  0  0  0
 16 28  2  0  0  0  0
 16 31  1  0  0  0  0
 17 19  2  0  0  0  0
 17 36  1  0  0  0  0
 18 20  2  0  0  0  0
 18 37  1  0  0  0  0
 19 45  1  0  0  0  0
 20 38  1  0  0  0  0
 21 81  1  0  0  0  0
 22 82  1  0  0  0  0
 23 25  2  0  0  0  0
 23 81  1  0  0  0  0
 24 83  1  0  0  0  0
 25 84  1  0  0  0  0
 26 64  2  0  0  0  0
 27 29  2  0  0  0  0
 27 48  1  0  0  0  0
 27 65  1  0  0  0  0
 28 66  1  0  0  0  0
 28 69  1  0  0  0  0
 29 71  1  0  0  0  0
 29 85  1  0  0  0  0
 30 65  2  0  0  0  0
 30 72  1  0  0  0  0
 30 85  1  0  0  0  0
 31 70  1  0  0  0  0
 31 76  2  0  0  0  0
 32 46  1  0  0  0  0
 32 73  1  0  0  0  0
 32 77  2  0  0  0  0
 33 58  1  0  0  0  0
 33 67  1  0  0  0  0
 33 78  2  0  0  0  0
 34 59  1  0  0  0  0
 34 74  1  0  0  0  0
 34 79  2  0  0  0  0
 35 68  1  0  0  0  0
 35 71  1  0  0  0  0
 35 80  2  0  0  0  0
 36 39  1  0  0  0  0
 37 46  1  0  0  0  0
 38 67  1  0  0  0  0
 39 41  1  0  0  0  0
 40 42  1  0  0  0  0
 40 43  1  0  0  0  0
 41 45  1  0  0  0  0
 42 47  1  0  0  0  0
 43 68  1  0  0  0  0
 44 47  1  0  0  0  0
 44 68  1  0  0  0  0
 45 73  1  0  0  0  0
 46 67  1  0  0  0  0
 47 66  1  0  0  0  0
 49 59  1  0  0  0  0
 50 60  1  0  0  0  0
 51 61  1  0  0  0  0
 52 62  1  0  0  0  0
 53 63  1  0  0  0  0
 54 63  1  0  0  0  0
 55 63  1  0  0  0  0
 56 75  1  0  0  0  0
 57 60  1  0  0  0  0
 57 62  1  0  0  0  0
 58 63  1  0  0  0  0
 58 74  1  0  0  0  0
 59 75  1  0  0  0  0
 60 61  1  0  0  0  0
 61 72  1  0  0  0  0
 62 82  1  0  0  0  0
 64 66  1  0  0  0  0
M  CHG  1  75   1
M  ISO  4  35 100  62 101  71 100  82 101
M  END
> <Batch ID>
0188

> <Smiles>
CNC(C)C(=O)NC(C(=O)N1Cc2cc([101O:1][101CH:1](C)CC(C)C(C)Nc3nc(C)c([100NH:0][100C:0](=O)N4CCCC(n5nc(-c6ccc(Oc7ccc(F)cc7F)cc6)c(C(N)=O)c5N)C4)s3)ccc2CC1C(=O)NC1CCCc2ccccc21)C(C)(C)C

> <Shape>
0.238

> <Color>
0.193

> <Negative vol penalty>
0.000

$$$$

  -OEChem-04052305153D

 85 93  0     1  0  0  0  0  0999 V2000
  -22.0392  -30.9169   14.3865 C   0  0  0  0  0  0  0  0  0  0  0  0
  -23.1781  -30.3736   14.9721 C   0  0  0  0  0  0  0  0  0  0  0  0
  -24.7137   -9.2569   21.2306 C   0  0  0  0  0  0  0  0  0  0  0  0
  -22.9221  -10.6335   20.3748 C   0  0  0  0  0  0  0  0  0  0  0  0
  -21.4138  -32.0176   14.9706 C   0  0  0  0  0  0  0  0  0  0  0  0
  -23.6931  -30.9315   16.1417 C   0  0  0  0  0  0  0  0  0  0  0  0
  -24.9604  -27.4274   19.5711 C   0  0  0  0  0  0  0  0  0  0  0  0
  -23.7999   -8.2403   21.5082 C   0  0  0  0  0  0  0  0  0  0  0  0
  -22.0083   -9.6169   20.6524 C   0  0  0  0  0  0  0  0  0  0  0  0
  -26.1624  -26.7491   19.3741 C   0  0  0  0  0  0  0  0  0  0  0  0
  -21.5129   -7.5306   23.8936 C   0  0  0  0  0  0  0  0  0  0  0  0
  -21.6095   -6.8934   25.1306 C   0  0  0  0  0  0  0  0  0  0  0  0
  -27.2311  -28.1855   20.9908 C   0  0  0  0  0  0  0  0  0  0  0  0
  -21.9822   -4.7833   24.0145 C   0  0  0  0  0  0  0  0  0  0  0  0
  -27.4837  -19.1041   17.7370 C   0  0  0  0  0  0  0  0  0  0  0  0
  -24.2748  -10.4536   20.6639 C   0  0  0  0  0  0  0  0  0  0  0  0
  -25.9376  -11.6984   19.1830 C   0  0  0  0  0  0  0  0  0  0  0  0
  -21.9157  -32.5833   16.1533 C   0  0  0  0  0  0  0  0  0  0  0  0
  -24.8873  -28.4988   20.4730 C   0  0  0  0  0  0  0  0  0  0  0  0
  -23.0746  -32.0416   16.7415 C   0  0  0  0  0  0  0  0  0  0  0  0
  -26.0264  -28.8741   21.1994 C   0  0  0  0  0  0  0  0  0  0  0  0
  -22.4473   -8.4203   21.2191 C   0  0  0  0  0  0  0  0  0  0  0  0
  -27.2987  -27.1300   20.0818 C   0  0  0  0  0  0  0  0  0  0  0  0
  -21.6508   -6.7941   22.7170 C   0  0  0  0  0  0  0  0  0  0  0  0
  -21.8442   -5.5197   25.1911 C   0  0  0  0  0  0  0  0  0  0  0  0
  -21.8855   -5.4205   22.7775 C   0  0  0  0  0  0  0  0  0  0  0  0
  -25.2181  -11.5043   20.3774 C   0  0  0  0  0  0  0  0  0  0  0  0
  -27.5897  -19.1290   19.1118 C   0  0  0  0  0  0  0  0  0  0  0  0
  -26.6904  -12.8236   19.4146 C   0  0  0  0  0  0  0  0  0  0  0  0
  -28.4874  -21.0821   18.6766 C   0  0  0  0  0  0  0  0  0  0  0  0
  -25.9263  -10.9304   17.9723 C   0  0  0  0  0  0  0  0  0  0  0  0
  -24.2172  -31.5962   20.2271 C   0  0  0  0  0  0  0  0  0  0  0  0
  -30.6962  -22.1455   20.6254 C   0  0  0  0  0  0  0  0  0  0  0  0
  -24.4047  -31.4953   23.4639 C   0  0  0  0  0  0  0  0  0  0  0  0
  -25.6221  -29.9426   26.2485 C   0  0  0  0  0  0  0  0  0  0  0  0
  -27.2164  -18.0205   21.3430 C   0  0  0  0  0  0  0  0  0  0  0  0
  -21.2329  -33.8019   16.7219 C   0  0  0  0  0  0  0  0  0  0  0  0
  -23.5766  -29.2029   20.6940 C   0  0  0  0  0  0  0  0  0  0  0  0
  -25.9956  -30.0045   22.1943 C   0  0  0  0  0  0  0  0  0  0  0  0
  -21.6249  -34.1013   18.1665 C   0  0  0  0  0  0  0  0  0  0  0  0
  -27.5711  -15.3735   23.6977 C   0  0  0  0  0  0  0  0  0  0  0  0
  -23.1381  -34.0147   18.3380 C   0  0  0  0  0  0  0  0  0  0  0  0
  -27.0497  -14.1468   22.9455 C   0  0  0  0  0  0  0  0  0  0  0  0
  -26.7735  -16.6304   23.3546 C   0  0  0  0  0  0  0  0  0  0  0  0
  -26.1360  -15.6930   21.1674 C   0  0  0  0  0  0  0  0  0  0  0  0
  -23.6490  -32.6034   18.0240 C   0  0  1  0  0  0  0  0  0  0  0  0
  -23.7424  -30.6109   21.2574 C   0  0  1  0  0  0  0  0  0  0  0  0
  -26.9492  -14.4151   21.4311 C   0  0  2  0  0  0  0  0  0  0  0  0
  -32.1392  -21.2672   22.5094 C   0  0  0  0  0  0  0  0  0  0  0  0
  -25.6361  -30.1137   28.7520 C   0  0  0  0  0  0  0  0  0  0  0  0
  -26.4153  -33.7841   23.2938 C   0  0  0  0  0  0  0  0  0  0  0  0
  -27.0887  -33.2751   25.6509 C   0  0  0  0  0  0  0  0  0  0  0  0
  -24.7525  -33.9921   25.1502 C   0  0  0  0  0  0  0  0  0  0  0  0
  -24.3141  -27.3052   26.5519 C   0  0  0  0  0  0  0  0  0  0  0  0
  -30.8388  -21.9525   22.1288 C   0  0  0  0  0  0  0  0  0  0  0  0
  -28.3927  -25.0922   19.5280 C   0  0  0  0  0  0  0  0  0  1  0  0
  -29.4303  -22.8555   20.1569 C   0  0  1  0  0  0  0  0  0  0  0  0
  -25.5093  -31.6756   24.4769 C   0  0  1  0  0  0  0  0  0  0  0  0
  -24.9467  -29.5113   27.5377 C   0  0  2  0  0  0  0  0  0  0  0  0
  -29.6152  -24.3729   20.0812 C   0  0  1  0  0  0  0  0  0  0  0  0
  -25.9428  -33.1617   24.6229 C   0  0  0  0  0  0  0  0  0  0  0  0
  -25.4897  -12.4318   21.2994 N   0  0  0  0  0  0  0  0  0  0  0  0
  -28.1653  -20.2622   19.6524 N   0  0  0  0  0  0  0  0  0  0  0  0
  -26.3882  -13.2195   20.6843 N   0  0  0  0  0  0  0  0  0  0  0  0
  -24.6922  -30.6661   22.3705 N   0  0  0  0  0  0  0  0  0  0  0  0
  -26.7245  -16.8227   21.9036 N   0  0  0  0  0  0  0  0  0  0  0  0
  -27.5749  -13.5031   18.6541 N   0  0  0  0  0  0  0  0  0  0  0  0
  -25.0949   -9.8042   17.9033 N   0  0  0  0  0  0  0  0  0  0  0  0
  -27.1477  -18.0766   19.9514 N   0  0  0  0  0  0  0  0  0  0  0  0
  -29.0869  -22.3171   18.8608 N   0  0  0  0  0  0  0  0  0  0  0  0
  -23.3824  -31.7112   19.1319 N   0  0  0  0  0  0  0  0  0  0  0  0
  -25.0315  -31.0683   25.7144 N   0  0  0  0  0  0  0  0  0  0  0  0
  -24.9783  -28.0270   27.6676 N   0  3  0  0  0  0  0  0  0  0  0  0
  -26.6449  -11.2243   16.9871 O   0  0  0  0  0  0  0  0  0  0  0  0
  -25.2627  -32.2079   20.4127 O   0  0  0  0  0  0  0  0  0  0  0  0
  -31.5449  -21.7365   19.8332 O   0  0  0  0  0  0  0  0  0  0  0  0
  -23.3240  -32.0634   23.6400 O   0  0  0  0  0  0  0  0  0  0  0  0
  -26.5803  -29.3433   25.7656 O   0  0  0  0  0  0  0  0  0  0  0  0
  -27.6905  -18.9183   22.0439 O   0  0  0  0  0  0  0  0  0  0  0  0
  -21.5553   -7.4284   21.4897 O   0  0  0  0  0  0  0  0  0  0  0  0
  -28.4733  -26.4700   19.8909 O   0  0  0  0  0  0  0  0  0  1  0  0
  -21.9386   -4.9082   26.3791 F   0  0  0  0  0  0  0  0  0  0  0  0
  -22.0201   -4.7079   21.6506 F   0  0  0  0  0  0  0  0  0  0  0  0
  -30.6678  -24.6485   19.2553 F   0  0  0  0  0  0  0  0  0  0  0  0
  -28.1261  -20.5542   17.0842 S   0  0  0  0  0  0  0  0  0  0  0  0
  1  2  1  0  0  0  0
  1  5  2  0  0  0  0
  2  6  2  0  0  0  0
  3  8  2  0  0  0  0
  3 16  1  0  0  0  0
  4  9  1  0  0  0  0
  4 16  2  0  0  0  0
  5 18  1  0  0  0  0
  6 20  1  0  0  0  0
  7 10  2  0  0  0  0
  7 19  1  0  0  0  0
  8 22  1  0  0  0  0
  9 22  2  0  0  0  0
 10 23  1  0  0  0  0
 11 12  2  0  0  0  0
 11 24  1  0  0  0  0
 12 25  1  0  0  0  0
 13 21  1  0  0  0  0
 13 23  2  0  0  0  0
 14 25  2  0  0  0  0
 14 26  1  0  0  0  0
 15 28  2  0  0  0  0
 15 85  1  0  0  0  0
 16 27  1  0  0  0  0
 17 27  1  0  0  0  0
 17 29  2  0  0  0  0
 17 31  1  0  0  0  0
 18 20  2  0  0  0  0
 18 37  1  0  0  0  0
 19 21  2  0  0  0  0
 19 38  1  0  0  0  0
 20 46  1  0  0  0  0
 21 39  1  0  0  0  0
 22 80  1  0  0  0  0
 23 81  1  0  0  0  0
 24 26  2  0  0  0  0
 24 80  1  0  0  0  0
 25 82  1  0  0  0  0
 26 83  1  0  0  0  0
 27 62  2  0  0  0  0
 28 63  1  0  0  0  0
 28 69  1  0  0  0  0
 29 64  1  0  0  0  0
 29 67  1  0  0  0  0
 30 63  2  0  0  0  0
 30 70  1  0  0  0  0
 30 85  1  0  0  0  0
 31 68  1  0  0  0  0
 31 74  2  0  0  0  0
 32 47  1  0  0  0  0
 32 71  1  0  0  0  0
 32 75  2  0  0  0  0
 33 55  1  0  0  0  0
 33 57  1  0  0  0  0
 33 76  2  0  0  0  0
 34 58  1  0  0  0  0
 34 65  1  0  0  0  0
 34 77  2  0  0  0  0
 35 59  1  0  0  0  0
 35 72  1  0  0  0  0
 35 78  2  0  0  0  0
 36 66  1  0  0  0  0
 36 69  1  0  0  0  0
 36 79  2  0  0  0  0
 37 40  1  0  0  0  0
 38 47  1  0  0  0  0
 39 65  1  0  0  0  0
 40 42  1  0  0  0  0
 41 43  1  0  0  0  0
 41 44  1  0  0  0  0
 42 46  1  0  0  0  0
 43 48  1  0  0  0  0
 44 66  1  0  0  0  0
 45 48  1  0  0  0  0
 45 66  1  0  0  0  0
 46 71  1  0  0  0  0
 47 65  1  0  0  0  0
 48 64  1  0  0  0  0
 49 55  1  0  0  0  0
 50 59  1  0  0  0  0
 51 61  1  0  0  0  0
 52 61  1  0  0  0  0
 53 61  1  0  0  0  0
 54 73  1  0  0  0  0
 56 60  1  0  0  0  0
 56 81  1  0  0  0  0
 57 60  1  0  0  0  0
 57 70  1  0  0  0  0
 58 61  1  0  0  0  0
 58 72  1  0  0  0  0
 59 73  1  0  0  0  0
 60 84  1  0  0  0  0
 62 64  1  0  0  0  0
M  CHG  1  73   1
M  ISO  4  36 100  56 101  69 100  81 101
M  END
> <Batch ID>
0188

> <Smiles>
CCC(=O)C(Nc1nc([100NH:0][100C:0](=O)N2CCCC(n3nc(-c4ccc(Oc5ccc(F)cc5F)cc4)c(C(N)=O)c3N)C2)cs1)C(F)[101CH2:1][101O:1]c1ccc2c(c1)CN(C(=O)C(NC(=O)C(C)NC)C(C)(C)C)C(C(=O)NC1CCCc3ccccc31)C2

> <Shape>
0.307

> <Color>
0.121

> <Negative vol penalty>
0.000

$$$$

  -OEChem-04052305153D

 85 93  0     1  0  0  0  0  0999 V2000
  -19.4425  -15.1311   20.6396 C   0  0  0  0  0  0  0  0  0  0  0  0
  -20.3397  -16.1915   20.5621 C   0  0  0  0  0  0  0  0  0  0  0  0
  -19.4196  -21.0764   23.6267 C   0  0  0  0  0  0  0  0  0  0  0  0
  -17.7177  -21.1500   21.9135 C   0  0  0  0  0  0  0  0  0  0  0  0
  -19.8405  -13.9230   21.2106 C   0  0  0  0  0  0  0  0  0  0  0  0
  -21.6352  -16.0448   21.0566 C   0  0  0  0  0  0  0  0  0  0  0  0
  -26.7447  -18.5525   18.7960 C   0  0  0  0  0  0  0  0  0  0  0  0
  -18.7049  -20.0818   24.2941 C   0  0  0  0  0  0  0  0  0  0  0  0
  -17.0029  -20.1553   22.5809 C   0  0  0  0  0  0  0  0  0  0  0  0
  -27.4739  -19.6841   19.1585 C   0  0  0  0  0  0  0  0  0  0  0  0
  -18.2138  -16.7488   24.0070 C   0  0  0  0  0  0  0  0  0  0  0  0
  -18.9254  -15.6472   24.4822 C   0  0  0  0  0  0  0  0  0  0  0  0
  -28.9509  -18.3034   20.4743 C   0  0  0  0  0  0  0  0  0  0  0  0
  -18.2202  -16.1635   26.7346 C   0  0  0  0  0  0  0  0  0  0  0  0
  -27.2037  -28.2040   20.2006 C   0  0  0  0  0  0  0  0  0  0  0  0
  -18.9260  -21.6106   22.4364 C   0  0  0  0  0  0  0  0  0  0  0  0
  -20.6502  -22.4592   20.7587 C   0  0  0  0  0  0  0  0  0  0  0  0
  -21.1445  -13.7583   21.7036 C   0  0  0  0  0  0  0  0  0  0  0  0
  -27.1071  -17.2871   19.2795 C   0  0  0  0  0  0  0  0  0  0  0  0
  -22.0506  -14.8338   21.6359 C   0  0  0  0  0  0  0  0  0  0  0  0
  -28.2261  -17.1570   20.1144 C   0  0  0  0  0  0  0  0  0  0  0  0
  -17.4965  -19.6213   23.7712 C   0  0  0  0  0  0  0  0  0  0  0  0
  -28.5755  -19.5601   20.0001 C   0  0  0  0  0  0  0  0  0  0  0  0
  -17.5055  -17.5577   24.8956 C   0  0  0  0  0  0  0  0  0  0  0  0
  -18.9286  -15.3546   25.8460 C   0  0  0  0  0  0  0  0  0  0  0  0
  -17.5087  -17.2651   26.2594 C   0  0  0  0  0  0  0  0  0  0  0  0
  -19.6636  -22.6385   21.7468 C   0  0  0  0  0  0  0  0  0  0  0  0
  -25.9325  -27.9252   20.6571 C   0  0  0  0  0  0  0  0  0  0  0  0
  -21.0387  -23.7340   20.4263 C   0  0  0  0  0  0  0  0  0  0  0  0
  -27.3708  -26.0210   20.3288 C   0  0  0  0  0  0  0  0  0  0  0  0
  -21.1689  -21.2487   20.1920 C   0  0  0  0  0  0  0  0  0  0  0  0
  -24.8033  -28.8402   20.9641 C   0  0  0  0  0  0  0  0  0  0  0  0
  -25.6964  -15.0899   21.0922 C   0  0  0  0  0  0  0  0  0  0  0  0
  -28.3192  -13.3395   20.3308 C   0  0  0  0  0  0  0  0  0  0  0  0
  -31.5830  -13.2941   19.3349 C   0  0  0  0  0  0  0  0  0  0  0  0
  -22.4747  -28.9062   21.7992 C   0  0  0  0  0  0  0  0  0  0  0  0
  -21.5143  -12.4492   22.3549 C   0  0  0  0  0  0  0  0  0  0  0  0
  -26.3262  -16.0728   18.8576 C   0  0  0  0  0  0  0  0  0  0  0  0
  -28.6688  -15.8184   20.6443 C   0  0  0  0  0  0  0  0  0  0  0  0
  -23.0196  -12.2528   22.5161 C   0  0  0  0  0  0  0  0  0  0  0  0
  -19.0116  -28.2176   21.6272 C   0  0  0  0  0  0  0  0  0  0  0  0
  -23.6645  -13.5131   23.0840 C   0  0  0  0  0  0  0  0  0  0  0  0
  -18.9505  -26.6895   21.5535 C   0  0  0  0  0  0  0  0  0  0  0  0
  -20.1242  -28.6967   22.5586 C   0  0  0  0  0  0  0  0  0  0  0  0
  -21.3894  -26.6146   22.2093 C   0  0  0  0  0  0  0  0  0  0  0  0
  -23.4721  -14.7052   22.1388 C   0  0  1  0  0  0  0  0  0  0  0  0
  -26.4769  -14.9006   19.8223 C   0  0  1  0  0  0  0  0  0  0  0  0
  -20.3307  -26.0831   21.2296 C   0  0  1  0  0  0  0  0  0  0  0  0
  -33.4686  -11.7152   18.8359 C   0  0  0  0  0  0  0  0  0  0  0  0
  -29.3013  -24.6252   18.2986 C   0  0  0  0  0  0  0  0  0  0  0  0
  -28.7416  -12.9028   23.3209 C   0  0  0  0  0  0  0  0  0  0  0  0
  -31.0804  -12.1683   22.8124 C   0  0  0  0  0  0  0  0  0  0  0  0
  -29.1457  -10.8819   21.9042 C   0  0  0  0  0  0  0  0  0  0  0  0
  -31.1997  -22.8287   19.9367 C   0  0  0  0  0  0  0  0  0  0  0  0
  -29.7000  -23.0831   21.9045 C   0  0  0  0  0  0  0  0  0  0  0  0
  -31.7650  -14.2148   16.5280 C   0  0  0  0  0  0  0  0  0  0  0  0
  -28.8524  -21.9160   19.8305 C   0  0  0  0  0  0  0  0  0  1  0  0
  -29.6908  -13.1516   20.9328 C   0  0  1  0  0  0  0  0  0  0  0  0
  -32.2971  -12.4951   18.2596 C   0  0  2  0  0  0  0  0  0  0  0  0
  -29.2533  -24.4646   19.8194 C   0  0  2  0  0  0  0  0  0  0  0  0
  -29.6554  -12.3018   22.2343 C   0  0  0  0  0  0  0  0  0  0  0  0
  -29.7330  -23.0757   20.3570 C   0  0  0  0  0  0  0  0  0  0  0  0
  -28.0301  -27.1133   20.0122 N   0  0  0  0  0  0  0  0  0  0  0  0
  -19.4394  -23.9256   22.0241 N   0  0  0  0  0  0  0  0  0  0  0  0
  -20.2906  -24.5668   21.2054 N   0  0  0  0  0  0  0  0  0  0  0  0
  -27.8691  -14.6617   20.2083 N   0  0  0  0  0  0  0  0  0  0  0  0
  -21.3990  -28.0849   22.1795 N   0  0  0  0  0  0  0  0  0  0  0  0
  -21.9439  -24.2125   19.5465 N   0  0  0  0  0  0  0  0  0  0  0  0
  -20.6586  -20.0254   20.6475 N   0  0  0  0  0  0  0  0  0  0  0  0
  -27.8976  -24.7465   20.2580 N   0  0  0  0  0  0  0  0  0  0  0  0
  -23.6348  -28.2249   21.4141 N   0  0  0  0  0  0  0  0  0  0  0  0
  -24.3969  -14.6243   21.0286 N   0  0  0  0  0  0  0  0  0  0  0  0
  -30.5270  -12.5921   19.8764 N   0  0  0  0  0  0  0  0  0  0  0  0
  -32.8141  -13.4031   17.1970 N   0  3  0  0  0  0  0  0  0  0  0  0
  -22.0703  -21.2512   19.3196 O   0  0  0  0  0  0  0  0  0  0  0  0
  -24.9665  -30.0517   20.8475 O   0  0  0  0  0  0  0  0  0  0  0  0
  -26.2339  -15.6178   22.0587 O   0  0  0  0  0  0  0  0  0  0  0  0
  -27.6739  -12.3500   19.9756 O   0  0  0  0  0  0  0  0  0  0  0  0
  -31.9298  -14.4263   19.6642 O   0  0  0  0  0  0  0  0  0  0  0  0
  -22.3973  -30.1384   21.7682 O   0  0  0  0  0  0  0  0  0  0  0  0
  -16.7989  -18.6505   24.4221 O   0  0  0  0  0  0  0  0  0  0  0  0
  -29.2887  -20.6630   20.3560 O   0  0  0  0  0  0  0  0  0  1  0  0
  -19.6107  -14.2958   26.3021 F   0  0  0  0  0  0  0  0  0  0  0  0
  -16.8291  -18.0379   27.1177 F   0  0  0  0  0  0  0  0  0  0  0  0
  -25.7528  -26.2318   20.8603 S   0  0  0  0  0  0  0  0  0  0  0  0
  1  2  1  0  0  0  0
  1  5  2  0  0  0  0
  2  6  2  0  0  0  0
  3  8  2  0  0  0  0
  3 16  1  0  0  0  0
  4  9  1  0  0  0  0
  4 16  2  0  0  0  0
  5 18  1  0  0  0  0
  6 20  1  0  0  0  0
  7 10  2  0  0  0  0
  7 19  1  0  0  0  0
  8 22  1  0  0  0  0
  9 22  2  0  0  0  0
 10 23  1  0  0  0  0
 11 12  2  0  0  0  0
 11 24  1  0  0  0  0
 12 25  1  0  0  0  0
 13 21  1  0  0  0  0
 13 23  2  0  0  0  0
 14 25  2  0  0  0  0
 14 26  1  0  0  0  0
 15 28  2  0  0  0  0
 15 63  1  0  0  0  0
 16 27  1  0  0  0  0
 17 27  1  0  0  0  0
 17 29  2  0  0  0  0
 17 31  1  0  0  0  0
 18 20  2  0  0  0  0
 18 37  1  0  0  0  0
 19 21  2  0  0  0  0
 19 38  1  0  0  0  0
 20 46  1  0  0  0  0
 21 39  1  0  0  0  0
 22 81  1  0  0  0  0
 23 82  1  0  0  0  0
 24 26  2  0  0  0  0
 24 81  1  0  0  0  0
 25 83  1  0  0  0  0
 26 84  1  0  0  0  0
 27 64  2  0  0  0  0
 28 32  1  0  0  0  0
 28 85  1  0  0  0  0
 29 65  1  0  0  0  0
 29 68  1  0  0  0  0
 30 63  2  0  0  0  0
 30 70  1  0  0  0  0
 30 85  1  0  0  0  0
 31 69  1  0  0  0  0
 31 75  2  0  0  0  0
 32 71  1  0  0  0  0
 32 76  2  0  0  0  0
 33 47  1  0  0  0  0
 33 72  1  0  0  0  0
 33 77  2  0  0  0  0
 34 58  1  0  0  0  0
 34 66  1  0  0  0  0
 34 78  2  0  0  0  0
 35 59  1  0  0  0  0
 35 73  1  0  0  0  0
 35 79  2  0  0  0  0
 36 67  1  0  0  0  0
 36 71  1  0  0  0  0
 36 80  2  0  0  0  0
 37 40  1  0  0  0  0
 38 47  1  0  0  0  0
 39 66  1  0  0  0  0
 40 42  1  0  0  0  0
 41 43  1  0  0  0  0
 41 44  1  0  0  0  0
 42 46  1  0  0  0  0
 43 48  1  0  0  0  0
 44 67  1  0  0  0  0
 45 48  1  0  0  0  0
 45 67  1  0  0  0  0
 46 72  1  0  0  0  0
 47 66  1  0  0  0  0
 48 65  1  0  0  0  0
 49 59  1  0  0  0  0
 50 60  1  0  0  0  0
 51 61  1  0  0  0  0
 52 61  1  0  0  0  0
 53 61  1  0  0  0  0
 54 62  1  0  0  0  0
 55 62  1  0  0  0  0
 56 74  1  0  0  0  0
 57 62  1  0  0  0  0
 57 82  1  0  0  0  0
 58 61  1  0  0  0  0
 58 73  1  0  0  0  0
 59 74  1  0  0  0  0
 60 62  1  0  0  0  0
 60 70  1  0  0  0  0
 64 65  1  0  0  0  0
M  CHG  1  74   1
M  ISO  4  36 100  57 101  71 100  82 101
M  END
> <Batch ID>
0188

> <Smiles>
CNC(C)C(=O)NC(C(=O)N1Cc2cc([101O:1][101CH2:1]C(C)(C)C(C)Nc3ncc(C(=O)[100NH:0][100C:0](=O)N4CCCC(n5nc(-c6ccc(Oc7ccc(F)cc7F)cc6)c(C(N)=O)c5N)C4)s3)ccc2CC1C(=O)NC1CCCc2ccccc21)C(C)(C)C

> <Shape>
0.230

> <Color>
0.055

> <Negative vol penalty>
0.000

$$$$

  -OEChem-04052305152D

  0  0  0     0  0  0  0  0  0999 V2000
M  END
$$$$

  -OEChem-04052305153D

 86 94  0     1  0  0  0  0  0999 V2000
  -21.7296  -30.9784   14.4522 C   0  0  0  0  0  0  0  0  0  0  0  0
  -22.8827  -30.4285   15.0030 C   0  0  0  0  0  0  0  0  0  0  0  0
  -24.0716  -14.1291   20.5738 C   0  0  0  0  0  0  0  0  0  0  0  0
  -26.3738  -13.8629   19.8913 C   0  0  0  0  0  0  0  0  0  0  0  0
  -21.1492  -32.1046   15.0342 C   0  0  0  0  0  0  0  0  0  0  0  0
  -23.4567  -31.0051   16.1355 C   0  0  0  0  0  0  0  0  0  0  0  0
  -24.8067  -27.5631   19.5959 C   0  0  0  0  0  0  0  0  0  0  0  0
  -23.8351  -12.7817   20.3018 C   0  0  0  0  0  0  0  0  0  0  0  0
  -26.1373  -12.5154   19.6193 C   0  0  0  0  0  0  0  0  0  0  0  0
  -25.9871  -26.8578   19.3657 C   0  0  0  0  0  0  0  0  0  0  0  0
  -24.4034   -9.8019   21.7953 C   0  0  0  0  0  0  0  0  0  0  0  0
  -23.6827   -9.0673   22.7369 C   0  0  0  0  0  0  0  0  0  0  0  0
  -27.1487  -28.3132   20.8993 C   0  0  0  0  0  0  0  0  0  0  0  0
  -21.9962   -8.5904   21.0739 C   0  0  0  0  0  0  0  0  0  0  0  0
  -31.0732  -21.4934   18.6130 C   0  0  0  0  0  0  0  0  0  0  0  0
  -25.3409  -14.6698   20.3685 C   0  0  0  0  0  0  0  0  0  0  0  0
  -26.0121  -16.6212   21.8682 C   0  0  0  0  0  0  0  0  0  0  0  0
  -21.7108  -32.6896   16.1800 C   0  0  0  0  0  0  0  0  0  0  0  0
  -24.7909  -28.6573   20.4727 C   0  0  0  0  0  0  0  0  0  0  0  0
  -22.8839  -32.1410   16.7325 C   0  0  0  0  0  0  0  0  0  0  0  0
  -25.9663  -29.0291   21.1409 C   0  0  0  0  0  0  0  0  0  0  0  0
  -24.8679  -11.9748   19.8246 C   0  0  0  0  0  0  0  0  0  0  0  0
  -27.1590  -27.2346   20.0152 C   0  0  0  0  0  0  0  0  0  0  0  0
  -23.9205   -9.9308   20.4931 C   0  0  0  0  0  0  0  0  0  0  0  0
  -22.4791   -8.4615   22.3762 C   0  0  0  0  0  0  0  0  0  0  0  0
  -22.7169   -9.3251   20.1323 C   0  0  0  0  0  0  0  0  0  0  0  0
  -25.5857  -16.0618   20.6488 C   0  0  0  0  0  0  0  0  0  0  0  0
  -32.2271  -22.2491   18.5718 C   0  0  0  0  0  0  0  0  0  0  0  0
  -29.9777  -22.0413   17.9775 C   0  0  0  0  0  0  0  0  0  0  0  0
  -26.0945  -17.9691   21.6174 C   0  0  0  0  0  0  0  0  0  0  0  0
  -31.1799  -23.8745   17.3766 C   0  0  0  0  0  0  0  0  0  0  0  0
  -26.3074  -15.9798   23.1161 C   0  0  0  0  0  0  0  0  0  0  0  0
  -24.1656  -31.7598   20.1770 C   0  0  0  0  0  0  0  0  0  0  0  0
  -24.4888  -31.7348   23.4046 C   0  0  0  0  0  0  0  0  0  0  0  0
  -25.7959  -30.2283   26.1738 C   0  0  0  0  0  0  0  0  0  0  0  0
  -27.5508  -21.6595   17.4198 C   0  0  0  0  0  0  0  0  0  0  0  0
  -21.0743  -33.9343   16.7459 C   0  0  0  0  0  0  0  0  0  0  0  0
  -23.5035  -29.3911   20.7308 C   0  0  0  0  0  0  0  0  0  0  0  0
  -25.9977  -30.1838   22.1073 C   0  0  0  0  0  0  0  0  0  0  0  0
  -21.5326  -34.2617   18.1647 C   0  0  0  0  0  0  0  0  0  0  0  0
  -24.1463  -21.0099   18.2349 C   0  0  0  0  0  0  0  0  0  0  0  0
  -23.0500  -34.1510   18.2745 C   0  0  0  0  0  0  0  0  0  0  0  0
  -24.2103  -19.7225   19.0600 C   0  0  0  0  0  0  0  0  0  0  0  0
  -25.1731  -21.0103   17.1038 C   0  0  0  0  0  0  0  0  0  0  0  0
  -26.6185  -19.4478   18.3442 C   0  0  0  0  0  0  0  0  0  0  0  0
  -23.5221  -32.7231   17.9750 C   0  0  1  0  0  0  0  0  0  0  0  0
  -23.7178  -30.8091   21.2510 C   0  0  1  0  0  0  0  0  0  0  0  0
  -25.6467  -19.4287   19.5354 C   0  0  2  0  0  0  0  0  0  0  0  0
  -25.9194  -30.4604   28.6695 C   0  0  0  0  0  0  0  0  0  0  0  0
  -30.3526  -28.6456   16.4654 C   0  0  0  0  0  0  0  0  0  0  0  0
  -28.6671  -27.0823   15.4583 C   0  0  0  0  0  0  0  0  0  0  0  0
  -26.5304  -33.9807   23.0924 C   0  0  0  0  0  0  0  0  0  0  0  0
  -27.2943  -33.5172   25.4311 C   0  0  0  0  0  0  0  0  0  0  0  0
  -24.9519  -34.2652   25.0112 C   0  0  0  0  0  0  0  0  0  0  0  0
  -24.4558  -27.6240   26.5985 C   0  0  0  0  0  0  0  0  0  0  0  0
  -29.5342  -27.2777   19.9027 C   0  0  0  0  0  0  0  0  0  1  0  0
  -25.6385  -31.9192   24.3654 C   0  0  1  0  0  0  0  0  0  0  0  0
  -25.1685  -29.8413   27.5009 C   0  0  2  0  0  0  0  0  0  0  0  0
  -29.3559  -27.5191   16.7593 C   0  0  0  0  0  0  0  0  0  0  0  0
  -30.5550  -26.6851   18.9304 C   0  0  2  0  0  0  0  0  0  0  0  0
  -29.9605  -26.3234   17.5472 C   0  0  2  0  0  0  0  0  0  0  0  0
  -26.1039  -33.4000   24.4554 C   0  0  0  0  0  0  0  0  0  0  0  0
  -25.4093  -16.9793   19.6943 N   0  0  0  0  0  0  0  0  0  0  0  0
  -32.3163  -23.4483   17.9601 N   0  0  0  0  0  0  0  0  0  0  0  0
  -29.9956  -23.2341   17.3472 N   0  0  0  0  0  0  0  0  0  0  0  0
  -25.7265  -18.1289   20.3139 N   0  0  0  0  0  0  0  0  0  0  0  0
  -24.7149  -30.8738   22.3214 N   0  0  0  0  0  0  0  0  0  0  0  0
  -26.5108  -20.7294   17.6296 N   0  0  0  0  0  0  0  0  0  0  0  0
  -33.3747  -21.7218   19.2127 N   0  0  0  0  0  0  0  0  0  0  0  0
  -26.4451  -19.0214   22.3870 N   0  0  0  0  0  0  0  0  0  0  0  0
  -26.1707  -14.5875   23.2005 N   0  0  0  0  0  0  0  0  0  0  0  0
  -28.7700  -21.3003   17.9935 N   0  0  0  0  0  0  0  0  0  0  0  0
  -23.2872  -31.8635   19.1154 N   0  0  0  0  0  0  0  0  0  0  0  0
  -25.2031  -31.3514   25.6368 N   0  0  0  0  0  0  0  0  0  0  0  0
  -25.1795  -28.3603   27.6667 N   0  3  0  0  0  0  0  0  0  0  0  0
  -26.6657  -16.6241   24.1309 O   0  0  0  0  0  0  0  0  0  0  0  0
  -25.2287  -32.3563   20.3030 O   0  0  0  0  0  0  0  0  0  0  0  0
  -23.4267  -32.3271   23.6116 O   0  0  0  0  0  0  0  0  0  0  0  0
  -26.7220  -29.5995   25.6664 O   0  0  0  0  0  0  0  0  0  0  0  0
  -27.3661  -22.7111   16.8017 O   0  0  0  0  0  0  0  0  0  0  0  0
  -31.0492  -25.4925   19.5565 O   0  0  0  0  0  0  0  0  0  0  0  0
  -24.6376  -10.6599   19.5592 O   0  0  0  0  0  0  0  0  0  0  0  0
  -28.3127  -26.5483   19.7917 O   0  0  0  0  0  0  0  0  0  1  0  0
  -21.7879   -7.7548   23.2800 F   0  0  0  0  0  0  0  0  0  0  0  0
  -22.2485   -9.4445   18.8825 F   0  0  0  0  0  0  0  0  0  0  0  0
  -31.2494  -25.4369   16.5664 S   0  0  0  0  0  0  0  0  0  0  0  0
  1  2  1  0  0  0  0
  1  5  2  0  0  0  0
  2  6  2  0  0  0  0
  3  8  2  0  0  0  0
  3 16  1  0  0  0  0
  4  9  1  0  0  0  0
  4 16  2  0  0  0  0
  5 18  1  0  0  0  0
  6 20  1  0  0  0  0
  7 10  2  0  0  0  0
  7 19  1  0  0  0  0
  8 22  1  0  0  0  0
  9 22  2  0  0  0  0
 10 23  1  0  0  0  0
 11 12  2  0  0  0  0
 11 24  1  0  0  0  0
 12 25  1  0  0  0  0
 13 21  1  0  0  0  0
 13 23  2  0  0  0  0
 14 25  2  0  0  0  0
 14 26  1  0  0  0  0
 15 28  1  0  0  0  0
 15 29  2  0  0  0  0
 16 27  1  0  0  0  0
 17 27  1  0  0  0  0
 17 30  2  0  0  0  0
 17 32  1  0  0  0  0
 18 20  2  0  0  0  0
 18 37  1  0  0  0  0
 19 21  2  0  0  0  0
 19 38  1  0  0  0  0
 20 46  1  0  0  0  0
 21 39  1  0  0  0  0
 22 82  1  0  0  0  0
 23 83  1  0  0  0  0
 24 26  2  0  0  0  0
 24 82  1  0  0  0  0
 25 84  1  0  0  0  0
 26 85  1  0  0  0  0
 27 63  2  0  0  0  0
 28 64  2  0  0  0  0
 28 69  1  0  0  0  0
 29 65  1  0  0  0  0
 29 72  1  0  0  0  0
 30 66  1  0  0  0  0
 30 70  1  0  0  0  0
 31 64  1  0  0  0  0
 31 65  2  0  0  0  0
 31 86  1  0  0  0  0
 32 71  1  0  0  0  0
 32 76  2  0  0  0  0
 33 47  1  0  0  0  0
 33 73  1  0  0  0  0
 33 77  2  0  0  0  0
 34 57  1  0  0  0  0
 34 67  1  0  0  0  0
 34 78  2  0  0  0  0
 35 58  1  0  0  0  0
 35 74  1  0  0  0  0
 35 79  2  0  0  0  0
 36 68  1  0  0  0  0
 36 72  1  0  0  0  0
 36 80  2  0  0  0  0
 37 40  1  0  0  0  0
 38 47  1  0  0  0  0
 39 67  1  0  0  0  0
 40 42  1  0  0  0  0
 41 43  1  0  0  0  0
 41 44  1  0  0  0  0
 42 46  1  0  0  0  0
 43 48  1  0  0  0  0
 44 68  1  0  0  0  0
 45 48  1  0  0  0  0
 45 68  1  0  0  0  0
 46 73  1  0  0  0  0
 47 67  1  0  0  0  0
 48 66  1  0  0  0  0
 49 58  1  0  0  0  0
 50 59  1  0  0  0  0
 51 59  1  0  0  0  0
 52 62  1  0  0  0  0
 53 62  1  0  0  0  0
 54 62  1  0  0  0  0
 55 75  1  0  0  0  0
 56 60  1  0  0  0  0
 56 83  1  0  0  0  0
 57 62  1  0  0  0  0
 57 74  1  0  0  0  0
 58 75  1  0  0  0  0
 59 61  1  0  0  0  0
 60 61  1  0  0  0  0
 60 81  1  0  0  0  0
 61 86  1  0  0  0  0
 63 66  1  0  0  0  0
M  CHG  1  75   1
M  ISO  4  36 100  56 101  72 100  83 101
M  END
> <Batch ID>
0188

> <Smiles>
CNC(C)C(=O)NC(C(=O)N1Cc2cc([101O:1][101CH2:1]C(O)C(Sc3nc(N)cc([100NH:0][100C:0](=O)N4CCCC(n5nc(-c6ccc(Oc7ccc(F)cc7F)cc6)c(C(N)=O)c5N)C4)n3)C(C)C)ccc2CC1C(=O)NC1CCCc2ccccc21)C(C)(C)C

> <Shape>
0.255

> <Color>
0.107

> <Negative vol penalty>
0.000

$$$$

  -OEChem-04052305153D

 83 91  0     1  0  0  0  0  0999 V2000
  -22.2732  -11.5599   18.9502 C   0  0  0  0  0  0  0  0  0  0  0  0
  -21.9362  -12.8852   19.2060 C   0  0  0  0  0  0  0  0  0  0  0  0
  -26.1124  -29.1890   21.2297 C   0  0  0  0  0  0  0  0  0  0  0  0
  -25.0935  -27.0470   20.7706 C   0  0  0  0  0  0  0  0  0  0  0  0
  -23.4975  -11.0561   19.3877 C   0  0  0  0  0  0  0  0  0  0  0  0
  -22.8229  -13.7072   19.9006 C   0  0  0  0  0  0  0  0  0  0  0  0
  -23.3016  -18.2798   17.7775 C   0  0  0  0  0  0  0  0  0  0  0  0
  -27.3032  -28.7459   20.6541 C   0  0  0  0  0  0  0  0  0  0  0  0
  -26.2843  -26.6039   20.1950 C   0  0  0  0  0  0  0  0  0  0  0  0
  -22.2794  -19.1993   18.0086 C   0  0  0  0  0  0  0  0  0  0  0  0
  -30.7230  -28.0553   19.6285 C   0  0  0  0  0  0  0  0  0  0  0  0
  -31.9126  -28.3300   20.3029 C   0  0  0  0  0  0  0  0  0  0  0  0
  -23.6234  -20.2566   19.7101 C   0  0  0  0  0  0  0  0  0  0  0  0
  -31.1186  -27.0806   22.2123 C   0  0  0  0  0  0  0  0  0  0  0  0
  -20.2723  -22.3490   27.0283 C   0  0  0  0  0  0  0  0  0  0  0  0
  -25.0075  -28.3395   21.2880 C   0  0  0  0  0  0  0  0  0  0  0  0
  -22.7085  -29.4436   21.2346 C   0  0  0  0  0  0  0  0  0  0  0  0
  -24.4037  -11.8751   20.0796 C   0  0  0  0  0  0  0  0  0  0  0  0
  -24.4901  -18.3352   18.5198 C   0  0  0  0  0  0  0  0  0  0  0  0
  -24.0599  -13.2136   20.3490 C   0  0  0  0  0  0  0  0  0  0  0  0
  -24.6602  -19.3383   19.4847 C   0  0  0  0  0  0  0  0  0  0  0  0
  -27.3891  -27.4534   20.1367 C   0  0  0  0  0  0  0  0  0  0  0  0
  -22.4390  -20.1861   18.9770 C   0  0  0  0  0  0  0  0  0  0  0  0
  -29.7311  -27.2933   20.2460 C   0  0  0  0  0  0  0  0  0  0  0  0
  -32.1105  -27.8426   21.5948 C   0  0  0  0  0  0  0  0  0  0  0  0
  -29.9289  -26.8059   21.5379 C   0  0  0  0  0  0  0  0  0  0  0  0
  -23.7774  -28.7964   21.8830 C   0  0  0  0  0  0  0  0  0  0  0  0
  -19.8874  -23.5187   26.4072 C   0  0  0  0  0  0  0  0  0  0  0  0
  -21.7882  -29.6672   22.2294 C   0  0  0  0  0  0  0  0  0  0  0  0
  -20.0937  -22.2530   24.6280 C   0  0  0  0  0  0  0  0  0  0  0  0
  -22.5606  -29.8099   19.8563 C   0  0  0  0  0  0  0  0  0  0  0  0
  -25.9727  -16.3698   20.5304 C   0  0  0  0  0  0  0  0  0  0  0  0
  -28.3043  -18.6210   20.3980 C   0  0  0  0  0  0  0  0  0  0  0  0
  -29.1652  -21.8687   19.7995 C   0  0  0  0  0  0  0  0  0  0  0  0
  -20.7082  -26.9718   27.4657 C   0  0  0  0  0  0  0  0  0  0  0  0
  -25.6950  -11.2728   20.5741 C   0  0  0  0  0  0  0  0  0  0  0  0
  -25.5938  -17.3525   18.2398 C   0  0  0  0  0  0  0  0  0  0  0  0
  -25.9249  -19.4533   20.2945 C   0  0  0  0  0  0  0  0  0  0  0  0
  -26.7376  -12.3129   20.9758 C   0  0  0  0  0  0  0  0  0  0  0  0
  -21.4783  -30.4089   26.9458 C   0  0  0  0  0  0  0  0  0  0  0  0
  -26.1044  -13.3963   21.8431 C   0  0  0  0  0  0  0  0  0  0  0  0
  -22.0584  -30.4438   25.5308 C   0  0  0  0  0  0  0  0  0  0  0  0
  -21.8852  -29.1398   27.6914 C   0  0  0  0  0  0  0  0  0  0  0  0
  -22.1605  -27.9166   25.5698 C   0  0  0  0  0  0  0  0  0  0  0  0
  -25.0056  -14.1435   21.0776 C   0  0  1  0  0  0  0  0  0  0  0  0
  -26.5564  -17.1853   19.4116 C   0  0  1  0  0  0  0  0  0  0  0  0
  -21.7316  -29.1513   24.7588 C   0  0  2  0  0  0  0  0  0  0  0  0
  -31.1400  -23.4171   19.8096 C   0  0  0  0  0  0  0  0  0  0  0  0
  -18.9299  -20.8087   20.7086 C   0  0  0  0  0  0  0  0  0  0  0  0
  -28.2063  -18.7223   23.4459 C   0  0  0  0  0  0  0  0  0  0  0  0
  -29.4570  -20.8888   23.3447 C   0  0  0  0  0  0  0  0  0  0  0  0
  -30.5088  -18.8015   22.4730 C   0  0  0  0  0  0  0  0  0  0  0  0
  -28.8759  -22.4439   16.9108 C   0  0  0  0  0  0  0  0  0  0  0  0
  -19.5806  -24.7941   27.0846 C   0  0  0  0  0  0  0  0  0  0  0  0
  -21.3290  -21.6063   20.5284 C   0  0  0  0  0  0  0  0  0  1  0  0
  -28.6244  -19.8756   21.1741 C   0  0  1  0  0  0  0  0  0  0  0  0
  -30.2836  -22.4786   18.9738 C   0  0  2  0  0  0  0  0  0  0  0  0
  -19.8771  -22.0063   20.8314 C   0  0  2  0  0  0  0  0  0  0  0  0
  -19.7374  -22.7094   22.1916 C   0  0  1  0  0  0  0  0  0  0  0  0
  -29.1744  -19.5690   22.5957 C   0  0  0  0  0  0  0  0  0  0  0  0
  -23.5578  -28.6204   23.1887 N   0  0  0  0  0  0  0  0  0  0  0  0
  -19.7848  -23.4656   25.0308 N   0  0  0  0  0  0  0  0  0  0  0  0
  -22.3405  -29.1604   23.3688 N   0  0  0  0  0  0  0  0  0  0  0  0
  -26.9725  -18.4653   19.9883 N   0  0  0  0  0  0  0  0  0  0  0  0
  -21.5463  -27.9504   26.9063 N   0  0  0  0  0  0  0  0  0  0  0  0
  -20.5686  -30.2461   22.2319 N   0  0  0  0  0  0  0  0  0  0  0  0
  -23.6018  -29.5057   18.9687 N   0  0  0  0  0  0  0  0  0  0  0  0
  -20.0959  -21.8473   23.3018 N   0  0  0  0  0  0  0  0  0  0  0  0
  -25.5891  -15.0958   20.1572 N   0  0  0  0  0  0  0  0  0  0  0  0
  -29.5319  -20.6531   20.3372 N   0  0  0  0  0  0  0  0  0  0  0  0
  -20.4320  -25.8798   26.6521 N   0  0  0  0  0  0  0  0  0  0  0  0
  -29.7212  -23.2496   17.8292 N   0  3  0  0  0  0  0  0  0  0  0  0
  -21.5426  -30.4044   19.4277 O   0  0  0  0  0  0  0  0  0  0  0  0
  -25.8787  -16.8595   21.6498 O   0  0  0  0  0  0  0  0  0  0  0  0
  -29.2044  -17.8124   20.1576 O   0  0  0  0  0  0  0  0  0  0  0  0
  -28.0767  -22.4177   19.9552 O   0  0  0  0  0  0  0  0  0  0  0  0
  -20.2363  -27.0670   28.6038 O   0  0  0  0  0  0  0  0  0  0  0  0
  -28.5509  -27.0208   19.5748 O   0  0  0  0  0  0  0  0  0  0  0  0
  -21.4426  -21.0844   19.2051 O   0  0  0  0  0  0  0  0  0  1  0  0
  -33.2535  -28.1052   22.2418 F   0  0  0  0  0  0  0  0  0  0  0  0
  -28.9802  -26.0723   22.1358 F   0  0  0  0  0  0  0  0  0  0  0  0
  -20.5539  -23.8021   22.1843 F   0  0  0  0  0  0  0  0  0  0  0  0
  -20.5166  -21.1260   25.8511 S   0  0  0  0  0  0  0  0  0  0  0  0
  1  2  1  0  0  0  0
  1  5  2  0  0  0  0
  2  6  2  0  0  0  0
  3  8  2  0  0  0  0
  3 16  1  0  0  0  0
  4  9  1  0  0  0  0
  4 16  2  0  0  0  0
  5 18  1  0  0  0  0
  6 20  1  0  0  0  0
  7 10  2  0  0  0  0
  7 19  1  0  0  0  0
  8 22  1  0  0  0  0
  9 22  2  0  0  0  0
 10 23  1  0  0  0  0
 11 12  2  0  0  0  0
 11 24  1  0  0  0  0
 12 25  1  0  0  0  0
 13 21  1  0  0  0  0
 13 23  2  0  0  0  0
 14 25  2  0  0  0  0
 14 26  1  0  0  0  0
 15 28  2  0  0  0  0
 15 83  1  0  0  0  0
 16 27  1  0  0  0  0
 17 27  1  0  0  0  0
 17 29  2  0  0  0  0
 17 31  1  0  0  0  0
 18 20  2  0  0  0  0
 18 36  1  0  0  0  0
 19 21  2  0  0  0  0
 19 37  1  0  0  0  0
 20 45  1  0  0  0  0
 21 38  1  0  0  0  0
 22 78  1  0  0  0  0
 23 79  1  0  0  0  0
 24 26  2  0  0  0  0
 24 78  1  0  0  0  0
 25 80  1  0  0  0  0
 26 81  1  0  0  0  0
 27 61  2  0  0  0  0
 28 54  1  0  0  0  0
 28 62  1  0  0  0  0
 29 63  1  0  0  0  0
 29 66  1  0  0  0  0
 30 62  2  0  0  0  0
 30 68  1  0  0  0  0
 30 83  1  0  0  0  0
 31 67  1  0  0  0  0
 31 73  2  0  0  0  0
 32 46  1  0  0  0  0
 32 69  1  0  0  0  0
 32 74  2  0  0  0  0
 33 56  1  0  0  0  0
 33 64  1  0  0  0  0
 33 75  2  0  0  0  0
 34 57  1  0  0  0  0
 34 70  1  0  0  0  0
 34 76  2  0  0  0  0
 35 65  1  0  0  0  0
 35 71  1  0  0  0  0
 35 77  2  0  0  0  0
 36 39  1  0  0  0  0
 37 46  1  0  0  0  0
 38 64  1  0  0  0  0
 39 41  1  0  0  0  0
 40 42  1  0  0  0  0
 40 43  1  0  0  0  0
 41 45  1  0  0  0  0
 42 47  1  0  0  0  0
 43 65  1  0  0  0  0
 44 47  1  0  0  0  0
 44 65  1  0  0  0  0
 45 69  1  0  0  0  0
 46 64  1  0  0  0  0
 47 63  1  0  0  0  0
 48 57  1  0  0  0  0
 49 58  1  0  0  0  0
 50 60  1  0  0  0  0
 51 60  1  0  0  0  0
 52 60  1  0  0  0  0
 53 72  1  0  0  0  0
 54 71  1  0  0  0  0
 55 58  1  0  0  0  0
 55 79  1  0  0  0  0
 56 60  1  0  0  0  0
 56 70  1  0  0  0  0
 57 72  1  0  0  0  0
 58 59  1  0  0  0  0
 59 68  1  0  0  0  0
 59 82  1  0  0  0  0
 61 63  1  0  0  0  0
M  CHG  1  72   1
M  ISO  4  35 100  55 101  71 100  79 101
M  END
> <Batch ID>
0188

> <Smiles>
CNC(C)C(=O)NC(C(=O)N1Cc2cc([101O:1][101CH2:1]C(C)C(F)Nc3nc(C[100NH:0][100C:0](=O)N4CCCC(n5nc(-c6ccc(Oc7ccc(F)cc7F)cc6)c(C(N)=O)c5N)C4)cs3)ccc2CC1C(=O)NC1CCCc2ccccc21)C(C)(C)C

> <Shape>
0.201

> <Color>
0.091

> <Negative vol penalty>
0.000

$$$$

  -OEChem-04052305153D

 84 92  0     1  0  0  0  0  0999 V2000
  -31.8216  -35.6102   20.6988 C   0  0  0  0  0  0  0  0  0  0  0  0
  -31.9333  -34.3255   20.1766 C   0  0  0  0  0  0  0  0  0  0  0  0
  -24.5863   -9.6286   21.4817 C   0  0  0  0  0  0  0  0  0  0  0  0
  -24.8679  -10.7461   23.6051 C   0  0  0  0  0  0  0  0  0  0  0  0
  -31.0096  -35.8424   21.8081 C   0  0  0  0  0  0  0  0  0  0  0  0
  -31.2338  -33.2720   20.7643 C   0  0  0  0  0  0  0  0  0  0  0  0
  -28.7742  -28.4420   17.9135 C   0  0  0  0  0  0  0  0  0  0  0  0
  -24.3182   -8.4322   22.1468 C   0  0  0  0  0  0  0  0  0  0  0  0
  -24.5997   -9.5497   24.2703 C   0  0  0  0  0  0  0  0  0  0  0  0
  -29.2203  -27.1340   17.7297 C   0  0  0  0  0  0  0  0  0  0  0  0
  -21.7068   -7.0064   23.7532 C   0  0  0  0  0  0  0  0  0  0  0  0
  -20.6282   -6.2436   23.3057 C   0  0  0  0  0  0  0  0  0  0  0  0
  -27.9305  -26.4317   19.6434 C   0  0  0  0  0  0  0  0  0  0  0  0
  -22.1225   -4.4025   22.8424 C   0  0  0  0  0  0  0  0  0  0  0  0
  -24.8612  -10.7855   22.2108 C   0  0  0  0  0  0  0  0  0  0  0  0
  -24.2093  -13.0030   21.1313 C   0  0  0  0  0  0  0  0  0  0  0  0
  -30.2922  -34.7929   22.4037 C   0  0  0  0  0  0  0  0  0  0  0  0
  -27.9100  -28.7573   18.9719 C   0  0  0  0  0  0  0  0  0  0  0  0
  -30.4125  -33.4902   21.8834 C   0  0  0  0  0  0  0  0  0  0  0  0
  -27.4728  -27.7440   19.8369 C   0  0  0  0  0  0  0  0  0  0  0  0
  -24.3249   -8.3928   23.5411 C   0  0  0  0  0  0  0  0  0  0  0  0
  -28.8008  -26.1291   18.5964 C   0  0  0  0  0  0  0  0  0  0  0  0
  -22.9933   -6.4673   23.7452 C   0  0  0  0  0  0  0  0  0  0  0  0
  -20.8360   -4.9416   22.8504 C   0  0  0  0  0  0  0  0  0  0  0  0
  -23.2011   -5.1653   23.2898 C   0  0  0  0  0  0  0  0  0  0  0  0
  -25.1388  -12.0216   21.5243 C   0  0  0  0  0  0  0  0  0  0  0  0
  -24.9693  -13.9713   20.5219 C   0  0  0  0  0  0  0  0  0  0  0  0
  -28.2671  -19.4267   20.6646 C   0  0  0  0  0  0  0  0  0  0  0  0
  -29.0130  -21.4095   20.1673 C   0  0  0  0  0  0  0  0  0  0  0  0
  -22.7861  -13.0365   21.3019 C   0  0  0  0  0  0  0  0  0  0  0  0
  -28.0846  -30.6432   21.5247 C   0  0  0  0  0  0  0  0  0  0  0  0
  -24.9739  -29.7953   21.8804 C   0  0  0  0  0  0  0  0  0  0  0  0
  -31.0392  -22.5595   19.2084 C   0  0  0  0  0  0  0  0  0  0  0  0
  -22.4965  -27.5348   21.2479 C   0  0  0  0  0  0  0  0  0  0  0  0
  -29.4751  -17.2380   20.3534 C   0  0  0  0  0  0  0  0  0  0  0  0
  -29.4641  -35.0840   23.6302 C   0  0  0  0  0  0  0  0  0  0  0  0
  -27.4167  -30.1681   19.1405 C   0  0  0  0  0  0  0  0  0  0  0  0
  -26.5294  -28.0265   20.9765 C   0  0  0  0  0  0  0  0  0  0  0  0
  -28.4628  -33.9815   23.9648 C   0  0  0  0  0  0  0  0  0  0  0  0
  -29.8224  -13.9296   19.0841 C   0  0  0  0  0  0  0  0  0  0  0  0
  -29.1320  -32.6126   23.8924 C   0  0  0  0  0  0  0  0  0  0  0  0
  -28.5584  -13.2190   19.5735 C   0  0  0  0  0  0  0  0  0  0  0  0
  -30.3498  -14.9242   20.1169 C   0  0  0  0  0  0  0  0  0  0  0  0
  -28.1007  -15.1912   21.0862 C   0  0  0  0  0  0  0  0  0  0  0  0
  -29.6500  -32.3259   22.4779 C   0  0  1  0  0  0  0  0  0  0  0  0
  -26.9459  -30.4709   20.5597 C   0  0  1  0  0  0  0  0  0  0  0  0
  -27.4954  -14.2267   20.0533 C   0  0  2  0  0  0  0  0  0  0  0  0
  -31.6709  -23.8156   15.7145 C   0  0  0  0  0  0  0  0  0  0  0  0
  -31.5819  -24.7968   20.1443 C   0  0  0  0  0  0  0  0  0  0  0  0
  -20.0677  -27.0958   21.7011 C   0  0  0  0  0  0  0  0  0  0  0  0
  -25.6617  -28.9434   24.7284 C   0  0  0  0  0  0  0  0  0  0  0  0
  -23.5062  -27.6714   24.7941 C   0  0  0  0  0  0  0  0  0  0  0  0
  -23.4823  -30.1482   24.4975 C   0  0  0  0  0  0  0  0  0  0  0  0
  -21.8289  -27.5920   18.3652 C   0  0  0  0  0  0  0  0  0  0  0  0
  -30.3721  -23.9585   16.4905 C   0  0  0  0  0  0  0  0  0  0  0  0
  -24.2443  -28.6783   22.5867 C   0  0  1  0  0  0  0  0  0  0  0  0
  -31.4696  -23.9887   18.8468 C   0  0  2  0  0  0  0  0  0  0  0  0
  -21.0757  -27.7122   20.7437 C   0  0  2  0  0  0  0  0  0  0  0  0
  -30.5268  -24.6795   17.8380 C   0  0  2  0  0  0  0  0  0  1  0  0
  -24.2429  -28.8550   24.1315 C   0  0  0  0  0  0  0  0  0  0  0  0
  -26.3935  -12.3373   21.1923 N   0  0  0  0  0  0  0  0  0  0  0  0
  -29.3378  -20.1355   20.1468 N   0  0  0  0  0  0  0  0  0  0  0  0
  -27.1646  -20.0559   21.0712 N   0  0  0  0  0  0  0  0  0  0  0  0
  -26.2576  -13.5280   20.5842 N   0  0  0  0  0  0  0  0  0  0  0  0
  -26.0801  -29.4227   21.1037 N   0  0  0  0  0  0  0  0  0  0  0  0
  -29.2891  -15.8495   20.5214 N   0  0  0  0  0  0  0  0  0  0  0  0
  -24.6545  -15.1501   19.9441 N   0  0  0  0  0  0  0  0  0  0  0  0
  -22.1653  -11.9599   21.9499 N   0  0  0  0  0  0  0  0  0  0  0  0
  -28.3860  -18.0169   20.7431 N   0  0  0  0  0  0  0  0  0  0  0  0
  -29.7567  -22.5394   19.7507 N   0  0  0  0  0  0  0  0  0  0  0  0
  -28.5594  -31.9381   21.6092 N   0  0  0  0  0  0  0  0  0  0  0  0
  -22.9139  -28.6188   21.9910 N   0  0  0  0  0  0  0  0  0  0  0  0
  -20.9145  -27.0653   19.4109 N   0  3  0  0  0  0  0  0  0  0  0  0
  -22.0837  -13.9851   20.8772 O   0  0  0  0  0  0  0  0  0  0  0  0
  -28.5007  -29.6733   22.1476 O   0  0  0  0  0  0  0  0  0  0  0  0
  -24.5726  -30.9548   22.0072 O   0  0  0  0  0  0  0  0  0  0  0  0
  -31.7624  -21.5917   18.9921 O   0  0  0  0  0  0  0  0  0  0  0  0
  -23.1676  -26.5331   21.0099 O   0  0  0  0  0  0  0  0  0  0  0  0
  -30.5127  -17.7003   19.8721 O   0  0  0  0  0  0  0  0  0  0  0  0
  -24.0631   -7.2256   24.1904 O   0  0  0  0  0  0  0  0  0  0  0  0
  -29.2352  -24.8516   18.4197 O   0  0  0  0  0  0  0  0  0  1  0  0
  -19.7999   -4.2086   22.4221 F   0  0  0  0  0  0  0  0  0  0  0  0
  -24.4346   -4.6416   23.2808 F   0  0  0  0  0  0  0  0  0  0  0  0
  -27.4435  -21.6843   20.8044 S   0  0  0  0  0  0  0  0  0  0  0  0
  1  2  1  0  0  0  0
  1  5  2  0  0  0  0
  2  6  2  0  0  0  0
  3  8  2  0  0  0  0
  3 15  1  0  0  0  0
  4  9  1  0  0  0  0
  4 15  2  0  0  0  0
  5 17  1  0  0  0  0
  6 19  1  0  0  0  0
  7 10  2  0  0  0  0
  7 18  1  0  0  0  0
  8 21  1  0  0  0  0
  9 21  2  0  0  0  0
 10 22  1  0  0  0  0
 11 12  2  0  0  0  0
 11 23  1  0  0  0  0
 12 24  1  0  0  0  0
 13 20  1  0  0  0  0
 13 22  2  0  0  0  0
 14 24  2  0  0  0  0
 14 25  1  0  0  0  0
 15 26  1  0  0  0  0
 16 26  1  0  0  0  0
 16 27  2  0  0  0  0
 16 30  1  0  0  0  0
 17 19  2  0  0  0  0
 17 36  1  0  0  0  0
 18 20  2  0  0  0  0
 18 37  1  0  0  0  0
 19 45  1  0  0  0  0
 20 38  1  0  0  0  0
 21 80  1  0  0  0  0
 22 81  1  0  0  0  0
 23 25  2  0  0  0  0
 23 80  1  0  0  0  0
 24 82  1  0  0  0  0
 25 83  1  0  0  0  0
 26 61  2  0  0  0  0
 27 64  1  0  0  0  0
 27 67  1  0  0  0  0
 28 62  1  0  0  0  0
 28 63  2  0  0  0  0
 28 69  1  0  0  0  0
 29 62  2  0  0  0  0
 29 70  1  0  0  0  0
 29 84  1  0  0  0  0
 30 68  1  0  0  0  0
 30 74  2  0  0  0  0
 31 46  1  0  0  0  0
 31 71  1  0  0  0  0
 31 75  2  0  0  0  0
 32 56  1  0  0  0  0
 32 65  1  0  0  0  0
 32 76  2  0  0  0  0
 33 57  1  0  0  0  0
 33 70  1  0  0  0  0
 33 77  2  0  0  0  0
 34 58  1  0  0  0  0
 34 72  1  0  0  0  0
 34 78  2  0  0  0  0
 35 66  1  0  0  0  0
 35 69  1  0  0  0  0
 35 79  2  0  0  0  0
 36 39  1  0  0  0  0
 37 46  1  0  0  0  0
 38 65  1  0  0  0  0
 39 41  1  0  0  0  0
 40 42  1  0  0  0  0
 40 43  1  0  0  0  0
 41 45  1  0  0  0  0
 42 47  1  0  0  0  0
 43 66  1  0  0  0  0
 44 47  1  0  0  0  0
 44 66  1  0  0  0  0
 45 71  1  0  0  0  0
 46 65  1  0  0  0  0
 47 64  1  0  0  0  0
 48 55  1  0  0  0  0
 49 57  1  0  0  0  0
 50 58  1  0  0  0  0
 51 60  1  0  0  0  0
 52 60  1  0  0  0  0
 53 60  1  0  0  0  0
 54 73  1  0  0  0  0
 55 59  1  0  0  0  0
 56 60  1  0  0  0  0
 56 72  1  0  0  0  0
 57 59  1  0  0  0  0
 58 73  1  0  0  0  0
 59 81  1  0  0  0  0
 61 64  1  0  0  0  0
 63 84  1  0  0  0  0
M  CHG  1  73   1
M  ISO  4  35 100  59 101  69 100  81 101
M  END
> <Batch ID>
0188

> <Smiles>
CC[101CH:1](C(C)C(=O)Nc1nc([100NH:0][100C:0](=O)N2CCCC(n3nc(-c4ccc(Oc5ccc(F)cc5F)cc4)c(C(N)=O)c3N)C2)ns1)[101O:1]c1ccc2c(c1)CN(C(=O)C(NC(=O)C(C)NC)C(C)(C)C)C(C(=O)NC1CCCc3ccccc31)C2

> <Shape>
0.291

> <Color>
0.111

> <Negative vol penalty>
0.000

$$$$

  -OEChem-04052305153D

 84 92  0     1  0  0  0  0  0999 V2000
  -28.9571  -19.3721   15.2458 C   0  0  0  0  0  0  0  0  0  0  0  0
  -28.4323  -19.6648   16.5005 C   0  0  0  0  0  0  0  0  0  0  0  0
  -23.0728   -9.8683   19.9443 C   0  0  0  0  0  0  0  0  0  0  0  0
  -23.8347   -9.8788   22.2370 C   0  0  0  0  0  0  0  0  0  0  0  0
  -30.3329  -19.2111   15.0871 C   0  0  0  0  0  0  0  0  0  0  0  0
  -29.2830  -19.7954   17.5976 C   0  0  0  0  0  0  0  0  0  0  0  0
  -28.1607  -23.8210   20.4576 C   0  0  0  0  0  0  0  0  0  0  0  0
  -22.3295   -8.7152   20.1965 C   0  0  0  0  0  0  0  0  0  0  0  0
  -23.0914   -8.7257   22.4893 C   0  0  0  0  0  0  0  0  0  0  0  0
  -27.0740  -23.7041   21.3233 C   0  0  0  0  0  0  0  0  0  0  0  0
  -19.9455   -5.9742   20.3309 C   0  0  0  0  0  0  0  0  0  0  0  0
  -18.6394   -5.9250   19.8438 C   0  0  0  0  0  0  0  0  0  0  0  0
  -28.5864  -23.2873   23.1558 C   0  0  0  0  0  0  0  0  0  0  0  0
  -18.0747   -7.8695   21.1618 C   0  0  0  0  0  0  0  0  0  0  0  0
  -23.8254  -10.4500   20.9645 C   0  0  0  0  0  0  0  0  0  0  0  0
  -24.1662  -12.9752   20.8407 C   0  0  0  0  0  0  0  0  0  0  0  0
  -31.2018  -19.3493   16.1810 C   0  0  0  0  0  0  0  0  0  0  0  0
  -29.4701  -23.6609   20.9333 C   0  0  0  0  0  0  0  0  0  0  0  0
  -30.6716  -19.6347   17.4537 C   0  0  0  0  0  0  0  0  0  0  0  0
  -29.6881  -23.4052   22.2947 C   0  0  0  0  0  0  0  0  0  0  0  0
  -22.3388   -8.1439   21.4690 C   0  0  0  0  0  0  0  0  0  0  0  0
  -27.2866  -23.4343   22.6720 C   0  0  0  0  0  0  0  0  0  0  0  0
  -20.3162   -6.9710   21.2335 C   0  0  0  0  0  0  0  0  0  0  0  0
  -17.7040   -6.8727   20.2592 C   0  0  0  0  0  0  0  0  0  0  0  0
  -19.3808   -7.9186   21.6489 C   0  0  0  0  0  0  0  0  0  0  0  0
  -24.5938  -11.6408   20.7044 C   0  0  0  0  0  0  0  0  0  0  0  0
  -30.1460  -18.2541   23.9961 C   0  0  0  0  0  0  0  0  0  0  0  0
  -29.9544  -17.7764   22.7166 C   0  0  0  0  0  0  0  0  0  0  0  0
  -25.2577  -13.7245   20.4754 C   0  0  0  0  0  0  0  0  0  0  0  0
  -28.2096  -19.1956   23.5791 C   0  0  0  0  0  0  0  0  0  0  0  0
  -22.8959  -13.4911   21.2600 C   0  0  0  0  0  0  0  0  0  0  0  0
  -31.8417  -21.6310   20.3345 C   0  0  0  0  0  0  0  0  0  0  0  0
  -33.5074  -23.6067   22.2951 C   0  0  0  0  0  0  0  0  0  0  0  0
  -26.5605  -20.6995   24.7466 C   0  0  0  0  0  0  0  0  0  0  0  0
  -33.4541  -25.9102   24.8126 C   0  0  0  0  0  0  0  0  0  0  0  0
  -30.7413  -14.7458   20.6575 C   0  0  0  0  0  0  0  0  0  0  0  0
  -32.6773  -19.1195   15.9696 C   0  0  0  0  0  0  0  0  0  0  0  0
  -30.6327  -23.8166   19.9918 C   0  0  0  0  0  0  0  0  0  0  0  0
  -31.0751  -23.2448   22.8592 C   0  0  0  0  0  0  0  0  0  0  0  0
  -33.5451  -19.6442   17.1106 C   0  0  0  0  0  0  0  0  0  0  0  0
  -29.6024  -12.3576   18.2750 C   0  0  0  0  0  0  0  0  0  0  0  0
  -32.9668  -19.2237   18.4581 C   0  0  0  0  0  0  0  0  0  0  0  0
  -28.1655  -12.0639   18.7097 C   0  0  0  0  0  0  0  0  0  0  0  0
  -30.5205  -12.5804   19.4748 C   0  0  0  0  0  0  0  0  0  0  0  0
  -28.6198  -13.3127   20.8621 C   0  0  0  0  0  0  0  0  0  0  0  0
  -31.5642  -19.8086   18.6633 C   0  0  1  0  0  0  0  0  0  0  0  0
  -31.8991  -23.1247   20.4866 C   0  0  1  0  0  0  0  0  0  0  0  0
  -27.6446  -13.1361   19.6855 C   0  0  2  0  0  0  0  0  0  0  0  0
  -31.3080  -17.9741   24.8640 C   0  0  0  0  0  0  0  0  0  0  0  0
  -34.9755  -27.3170   26.2280 C   0  0  0  0  0  0  0  0  0  0  0  0
  -23.9225  -22.9486   22.9814 C   0  0  0  0  0  0  0  0  0  0  0  0
  -34.2534  -21.1448   23.9360 C   0  0  0  0  0  0  0  0  0  0  0  0
  -34.9347  -22.6767   25.7954 C   0  0  0  0  0  0  0  0  0  0  0  0
  -36.1166  -22.7790   23.6011 C   0  0  0  0  0  0  0  0  0  0  0  0
  -32.2468  -28.4226   23.8180 C   0  0  0  0  0  0  0  0  0  0  0  0
  -30.8074  -16.8982   21.8913 C   0  0  0  0  0  0  0  0  0  0  0  0
  -25.2138  -21.3396   24.4238 C   0  0  0  0  0  0  0  0  0  0  0  0
  -33.7591  -23.6743   23.7820 C   0  0  1  0  0  0  0  0  0  0  0  0
  -34.1381  -27.2573   24.9600 C   0  0  2  0  0  0  0  0  0  0  0  0
  -25.2753  -22.2957   23.2325 C   0  0  2  0  0  0  0  0  0  1  0  0
  -34.7396  -22.5697   24.2679 C   0  0  0  0  0  0  0  0  0  0  0  0
  -25.8583  -11.5449   20.2852 N   0  0  0  0  0  0  0  0  0  0  0  0
  -29.1467  -19.0684   24.4922 N   0  0  0  0  0  0  0  0  0  0  0  0
  -26.2346  -12.8284   20.1547 N   0  0  0  0  0  0  0  0  0  0  0  0
  -32.1790  -23.3997   21.8974 N   0  0  0  0  0  0  0  0  0  0  0  0
  -29.9704  -13.6100   20.3598 N   0  0  0  0  0  0  0  0  0  0  0  0
  -25.4676  -15.0560   20.4003 N   0  0  0  0  0  0  0  0  0  0  0  0
  -21.8846  -12.5820   21.5994 N   0  0  0  0  0  0  0  0  0  0  0  0
  -27.0093  -19.9398   23.6695 N   0  0  0  0  0  0  0  0  0  0  0  0
  -31.6483  -21.2050   19.0342 N   0  0  0  0  0  0  0  0  0  0  0  0
  -34.2070  -25.0348   24.0589 N   0  0  0  0  0  0  0  0  0  0  0  0
  -30.1425  -15.6756   21.4987 N   0  0  0  0  0  0  0  0  0  0  0  0
  -33.1254  -28.3493   25.0137 N   0  3  0  0  0  0  0  0  0  0  0  0
  -22.6592  -14.7217   21.3158 O   0  0  0  0  0  0  0  0  0  0  0  0
  -31.9652  -20.9177   21.3233 O   0  0  0  0  0  0  0  0  0  0  0  0
  -34.4536  -23.7401   21.5149 O   0  0  0  0  0  0  0  0  0  0  0  0
  -27.1225  -20.8675   25.8237 O   0  0  0  0  0  0  0  0  0  0  0  0
  -32.3629  -25.6583   25.3189 O   0  0  0  0  0  0  0  0  0  0  0  0
  -31.8768  -14.9211   20.2026 O   0  0  0  0  0  0  0  0  0  0  0  0
  -21.6135   -7.0189   21.7155 O   0  0  0  0  0  0  0  0  0  0  0  0
  -26.2278  -23.3190   23.5189 O   0  0  0  0  0  0  0  0  0  1  0  0
  -16.4502   -6.8262   19.7902 F   0  0  0  0  0  0  0  0  0  0  0  0
  -19.7314   -8.8793   22.5149 F   0  0  0  0  0  0  0  0  0  0  0  0
  -28.4650  -18.3626   22.1006 S   0  0  0  0  0  0  0  0  0  0  0  0
  1  2  1  0  0  0  0
  1  5  2  0  0  0  0
  2  6  2  0  0  0  0
  3  8  2  0  0  0  0
  3 15  1  0  0  0  0
  4  9  1  0  0  0  0
  4 15  2  0  0  0  0
  5 17  1  0  0  0  0
  6 19  1  0  0  0  0
  7 10  2  0  0  0  0
  7 18  1  0  0  0  0
  8 21  1  0  0  0  0
  9 21  2  0  0  0  0
 10 22  1  0  0  0  0
 11 12  2  0  0  0  0
 11 23  1  0  0  0  0
 12 24  1  0  0  0  0
 13 20  1  0  0  0  0
 13 22  2  0  0  0  0
 14 24  2  0  0  0  0
 14 25  1  0  0  0  0
 15 26  1  0  0  0  0
 16 26  1  0  0  0  0
 16 29  2  0  0  0  0
 16 31  1  0  0  0  0
 17 19  2  0  0  0  0
 17 37  1  0  0  0  0
 18 20  2  0  0  0  0
 18 38  1  0  0  0  0
 19 46  1  0  0  0  0
 20 39  1  0  0  0  0
 21 80  1  0  0  0  0
 22 81  1  0  0  0  0
 23 25  2  0  0  0  0
 23 80  1  0  0  0  0
 24 82  1  0  0  0  0
 25 83  1  0  0  0  0
 26 62  2  0  0  0  0
 27 28  2  0  0  0  0
 27 49  1  0  0  0  0
 27 63  1  0  0  0  0
 28 56  1  0  0  0  0
 28 84  1  0  0  0  0
 29 64  1  0  0  0  0
 29 67  1  0  0  0  0
 30 63  2  0  0  0  0
 30 69  1  0  0  0  0
 30 84  1  0  0  0  0
 31 68  1  0  0  0  0
 31 74  2  0  0  0  0
 32 47  1  0  0  0  0
 32 70  1  0  0  0  0
 32 75  2  0  0  0  0
 33 58  1  0  0  0  0
 33 65  1  0  0  0  0
 33 76  2  0  0  0  0
 34 57  1  0  0  0  0
 34 69  1  0  0  0  0
 34 77  2  0  0  0  0
 35 59  1  0  0  0  0
 35 71  1  0  0  0  0
 35 78  2  0  0  0  0
 36 66  1  0  0  0  0
 36 72  1  0  0  0  0
 36 79  2  0  0  0  0
 37 40  1  0  0  0  0
 38 47  1  0  0  0  0
 39 65  1  0  0  0  0
 40 42  1  0  0  0  0
 41 43  1  0  0  0  0
 41 44  1  0  0  0  0
 42 46  1  0  0  0  0
 43 48  1  0  0  0  0
 44 66  1  0  0  0  0
 45 48  1  0  0  0  0
 45 66  1  0  0  0  0
 46 70  1  0  0  0  0
 47 65  1  0  0  0  0
 48 64  1  0  0  0  0
 50 59  1  0  0  0  0
 51 60  1  0  0  0  0
 52 61  1  0  0  0  0
 53 61  1  0  0  0  0
 54 61  1  0  0  0  0
 55 73  1  0  0  0  0
 56 72  1  0  0  0  0
 57 60  1  0  0  0  0
 58 61  1  0  0  0  0
 58 71  1  0  0  0  0
 59 73  1  0  0  0  0
 60 81  1  0  0  0  0
 62 64  1  0  0  0  0
M  CHG  1  73   1
M  ISO  4  36 100  60 101  72 100  81 101
M  END
> <Batch ID>
0188

> <Smiles>
CNC(C)C(=O)NC(C(=O)N1Cc2cc([101O:1][101CH:1](C)CC(=O)Nc3nc(C)c(C[100NH:0][100C:0](=O)N4CCCC(n5nc(-c6ccc(Oc7ccc(F)cc7F)cc6)c(C(N)=O)c5N)C4)s3)ccc2CC1C(=O)NC1CCCc2ccccc21)C(C)(C)C

> <Shape>
0.172

> <Color>
0.187

> <Negative vol penalty>
0.000

$$$$

  -OEChem-04052305153D

 84 92  0     1  0  0  0  0  0999 V2000
  -29.8599  -24.1394   14.8935 C   0  0  0  0  0  0  0  0  0  0  0  0
  -28.5678  -24.1806   15.4076 C   0  0  0  0  0  0  0  0  0  0  0  0
  -25.8209  -13.7721   19.3226 C   0  0  0  0  0  0  0  0  0  0  0  0
  -25.0747  -13.6384   21.6166 C   0  0  0  0  0  0  0  0  0  0  0  0
  -30.9479  -24.4060   15.7236 C   0  0  0  0  0  0  0  0  0  0  0  0
  -28.3631  -24.4874   16.7523 C   0  0  0  0  0  0  0  0  0  0  0  0
  -23.6718  -27.6161   19.1418 C   0  0  0  0  0  0  0  0  0  0  0  0
  -25.7735  -12.3814   19.2261 C   0  0  0  0  0  0  0  0  0  0  0  0
  -25.0272  -12.2477   21.5201 C   0  0  0  0  0  0  0  0  0  0  0  0
  -22.4946  -27.2088   19.7678 C   0  0  0  0  0  0  0  0  0  0  0  0
  -24.3633   -8.6817   21.7667 C   0  0  0  0  0  0  0  0  0  0  0  0
  -23.2424   -8.0328   22.2846 C   0  0  0  0  0  0  0  0  0  0  0  0
  -23.5463  -27.4970   21.9196 C   0  0  0  0  0  0  0  0  0  0  0  0
  -21.8272   -9.2591   20.7580 C   0  0  0  0  0  0  0  0  0  0  0  0
  -25.1811  -23.0144   21.3643 C   0  0  0  0  0  0  0  0  0  0  0  0
  -25.4715  -14.4006   20.5178 C   0  0  0  0  0  0  0  0  0  0  0  0
  -24.4835  -16.7453   20.3340 C   0  0  0  0  0  0  0  0  0  0  0  0
  -30.7558  -24.7257   17.0769 C   0  0  0  0  0  0  0  0  0  0  0  0
  -24.8005  -27.9570   19.9009 C   0  0  0  0  0  0  0  0  0  0  0  0
  -29.4496  -24.7572   17.6016 C   0  0  0  0  0  0  0  0  0  0  0  0
  -24.7359  -27.9108   21.3008 C   0  0  0  0  0  0  0  0  0  0  0  0
  -25.3766  -11.6192   20.3248 C   0  0  0  0  0  0  0  0  0  0  0  0
  -22.4326  -27.1464   21.1568 C   0  0  0  0  0  0  0  0  0  0  0  0
  -24.2162   -9.6194   20.7446 C   0  0  0  0  0  0  0  0  0  0  0  0
  -21.9744   -8.3215   21.7802 C   0  0  0  0  0  0  0  0  0  0  0  0
  -22.9481   -9.9080   20.2402 C   0  0  0  0  0  0  0  0  0  0  0  0
  -25.5209  -15.8371   20.6183 C   0  0  0  0  0  0  0  0  0  0  0  0
  -25.0225  -23.7116   22.5436 C   0  0  0  0  0  0  0  0  0  0  0  0
  -25.0299  -17.9802   20.5846 C   0  0  0  0  0  0  0  0  0  0  0  0
  -22.9309  -23.6991   21.8840 C   0  0  0  0  0  0  0  0  0  0  0  0
  -23.1455  -16.4950   19.8837 C   0  0  0  0  0  0  0  0  0  0  0  0
  -27.7579  -26.8206   20.1577 C   0  0  0  0  0  0  0  0  0  0  0  0
  -28.1699  -29.4102   22.0673 C   0  0  0  0  0  0  0  0  0  0  0  0
  -26.7645  -31.7645   24.0993 C   0  0  0  0  0  0  0  0  0  0  0  0
  -28.0700  -21.3992   23.7805 C   0  0  0  0  0  0  0  0  0  0  0  0
  -31.9658  -24.9600   17.9463 C   0  0  0  0  0  0  0  0  0  0  0  0
  -26.0544  -28.4200   19.2111 C   0  0  0  0  0  0  0  0  0  0  0  0
  -25.9133  -28.2858   22.1619 C   0  0  0  0  0  0  0  0  0  0  0  0
  -31.6403  -25.6444   19.2714 C   0  0  0  0  0  0  0  0  0  0  0  0
  -29.8216  -19.3438   21.4603 C   0  0  0  0  0  0  0  0  0  0  0  0
  -30.4336  -24.9844   19.9310 C   0  0  0  0  0  0  0  0  0  0  0  0
  -28.7754  -18.3200   21.0161 C   0  0  0  0  0  0  0  0  0  0  0  0
  -29.6672  -19.7045   22.9361 C   0  0  0  0  0  0  0  0  0  0  0  0
  -27.2713  -19.1297   22.8818 C   0  0  0  0  0  0  0  0  0  0  0  0
  -29.1854  -25.1105   19.0492 C   0  0  1  0  0  0  0  0  0  0  0  0
  -27.3051  -28.2505   20.0681 C   0  0  1  0  0  0  0  0  0  0  0  0
  -27.3515  -18.7765   21.3868 C   0  0  2  0  0  0  0  0  0  0  0  0
  -27.3599  -33.7251   25.5479 C   0  0  0  0  0  0  0  0  0  0  0  0
  -20.7483  -26.9481   24.0951 C   0  0  0  0  0  0  0  0  0  0  0  0
  -29.2075  -27.5060   24.2138 C   0  0  0  0  0  0  0  0  0  0  0  0
  -28.8824  -29.3338   25.8937 C   0  0  0  0  0  0  0  0  0  0  0  0
  -30.4874  -29.6449   24.0096 C   0  0  0  0  0  0  0  0  0  0  0  0
  -21.0762  -23.8729   24.2247 C   0  0  0  0  0  0  0  0  0  0  0  0
  -19.3641  -24.6426   22.5697 C   0  0  0  0  0  0  0  0  0  0  0  0
  -25.1252  -33.6136   22.4706 C   0  0  0  0  0  0  0  0  0  0  0  0
  -26.0998  -24.0597   23.4912 C   0  0  0  0  0  0  0  0  0  0  0  0
  -26.3484  -22.9987   24.5786 C   0  0  0  0  0  0  0  0  0  0  0  0
  -28.0032  -29.6887   23.5417 C   0  0  1  0  0  0  0  0  0  0  0  0
  -26.9324  -33.2719   24.1606 C   0  0  2  0  0  0  0  0  0  0  0  0
  -21.4166  -26.0849   23.0268 C   0  0  1  0  0  0  0  0  0  1  0  0
  -29.1234  -29.0343   24.3987 C   0  0  0  0  0  0  0  0  0  0  0  0
  -20.8610  -24.6412   22.9105 C   0  0  0  0  0  0  0  0  0  0  0  0
  -26.6416  -16.4434   21.0187 N   0  0  0  0  0  0  0  0  0  0  0  0
  -23.7329  -24.1055   22.8430 N   0  0  0  0  0  0  0  0  0  0  0  0
  -26.3116  -17.7458   20.9877 N   0  0  0  0  0  0  0  0  0  0  0  0
  -27.1187  -28.7261   21.4404 N   0  0  0  0  0  0  0  0  0  0  0  0
  -28.2950  -20.1306   23.2211 N   0  0  0  0  0  0  0  0  0  0  0  0
  -24.5344  -19.2329   20.4971 N   0  0  0  0  0  0  0  0  0  0  0  0
  -22.7477  -15.1672   19.6762 N   0  0  0  0  0  0  0  0  0  0  0  0
  -21.5699  -23.9234   21.8621 N   0  0  0  0  0  0  0  0  0  0  0  0
  -28.6263  -26.4414   19.1519 N   0  0  0  0  0  0  0  0  0  0  0  0
  -27.9180  -31.1389   23.6761 N   0  0  0  0  0  0  0  0  0  0  0  0
  -26.7398  -21.7268   24.0131 N   0  0  0  0  0  0  0  0  0  0  0  0
  -25.6502  -33.9503   23.8190 N   0  3  0  0  0  0  0  0  0  0  0  0
  -22.3319  -17.4223   19.6559 O   0  0  0  0  0  0  0  0  0  0  0  0
  -27.3508  -26.1141   21.0724 O   0  0  0  0  0  0  0  0  0  0  0  0
  -29.1918  -29.7920   21.4915 O   0  0  0  0  0  0  0  0  0  0  0  0
  -25.7160  -31.1982   24.4006 O   0  0  0  0  0  0  0  0  0  0  0  0
  -28.9863  -22.1841   24.0476 O   0  0  0  0  0  0  0  0  0  0  0  0
  -25.3300  -10.2622   20.2310 O   0  0  0  0  0  0  0  0  0  0  0  0
  -21.2849  -26.7486   21.7704 O   0  0  0  0  0  0  0  0  0  1  0  0
  -20.8983   -7.6971   22.2765 F   0  0  0  0  0  0  0  0  0  0  0  0
  -22.8006  -10.8070   19.2574 F   0  0  0  0  0  0  0  0  0  0  0  0
  -23.6603  -22.8372   20.5917 S   0  0  0  0  0  0  0  0  0  0  0  0
  1  2  1  0  0  0  0
  1  5  2  0  0  0  0
  2  6  2  0  0  0  0
  3  8  2  0  0  0  0
  3 16  1  0  0  0  0
  4  9  1  0  0  0  0
  4 16  2  0  0  0  0
  5 18  1  0  0  0  0
  6 20  1  0  0  0  0
  7 10  2  0  0  0  0
  7 19  1  0  0  0  0
  8 22  1  0  0  0  0
  9 22  2  0  0  0  0
 10 23  1  0  0  0  0
 11 12  2  0  0  0  0
 11 24  1  0  0  0  0
 12 25  1  0  0  0  0
 13 21  1  0  0  0  0
 13 23  2  0  0  0  0
 14 25  2  0  0  0  0
 14 26  1  0  0  0  0
 15 28  2  0  0  0  0
 15 84  1  0  0  0  0
 16 27  1  0  0  0  0
 17 27  1  0  0  0  0
 17 29  2  0  0  0  0
 17 31  1  0  0  0  0
 18 20  2  0  0  0  0
 18 36  1  0  0  0  0
 19 21  2  0  0  0  0
 19 37  1  0  0  0  0
 20 45  1  0  0  0  0
 21 38  1  0  0  0  0
 22 80  1  0  0  0  0
 23 81  1  0  0  0  0
 24 26  2  0  0  0  0
 24 80  1  0  0  0  0
 25 82  1  0  0  0  0
 26 83  1  0  0  0  0
 27 63  2  0  0  0  0
 28 56  1  0  0  0  0
 28 64  1  0  0  0  0
 29 65  1  0  0  0  0
 29 68  1  0  0  0  0
 30 64  2  0  0  0  0
 30 70  1  0  0  0  0
 30 84  1  0  0  0  0
 31 69  1  0  0  0  0
 31 75  2  0  0  0  0
 32 46  1  0  0  0  0
 32 71  1  0  0  0  0
 32 76  2  0  0  0  0
 33 58  1  0  0  0  0
 33 66  1  0  0  0  0
 33 77  2  0  0  0  0
 34 59  1  0  0  0  0
 34 72  1  0  0  0  0
 34 78  2  0  0  0  0
 35 67  1  0  0  0  0
 35 73  1  0  0  0  0
 35 79  2  0  0  0  0
 36 39  1  0  0  0  0
 37 46  1  0  0  0  0
 38 66  1  0  0  0  0
 39 41  1  0  0  0  0
 40 42  1  0  0  0  0
 40 43  1  0  0  0  0
 41 45  1  0  0  0  0
 42 47  1  0  0  0  0
 43 67  1  0  0  0  0
 44 47  1  0  0  0  0
 44 67  1  0  0  0  0
 45 71  1  0  0  0  0
 46 66  1  0  0  0  0
 47 65  1  0  0  0  0
 48 59  1  0  0  0  0
 49 60  1  0  0  0  0
 50 61  1  0  0  0  0
 51 61  1  0  0  0  0
 52 61  1  0  0  0  0
 53 62  1  0  0  0  0
 54 62  1  0  0  0  0
 55 74  1  0  0  0  0
 56 57  1  0  0  0  0
 57 73  1  0  0  0  0
 58 61  1  0  0  0  0
 58 72  1  0  0  0  0
 59 74  1  0  0  0  0
 60 62  1  0  0  0  0
 60 81  1  0  0  0  0
 62 70  1  0  0  0  0
 63 65  1  0  0  0  0
M  CHG  1  74   1
M  ISO  4  35 100  60 101  73 100  81 101
M  END
> <Batch ID>
0188

> <Smiles>
CNC(C)C(=O)NC(C(=O)N1Cc2cc([101O:1][101CH:1](C)C(C)(C)Nc3nc(CC[100NH:0][100C:0](=O)N4CCCC(n5nc(-c6ccc(Oc7ccc(F)cc7F)cc6)c(C(N)=O)c5N)C4)cs3)ccc2CC1C(=O)NC1CCCc2ccccc21)C(C)(C)C

> <Shape>
0.237

> <Color>
0.065

> <Negative vol penalty>
0.000

$$$$

  -OEChem-04052305153D

 85 93  0     1  0  0  0  0  0999 V2000
  -19.8751  -32.3111   18.4847 C   0  0  0  0  0  0  0  0  0  0  0  0
  -20.4292  -31.0351   18.4753 C   0  0  0  0  0  0  0  0  0  0  0  0
  -23.2017   -9.6599   21.3592 C   0  0  0  0  0  0  0  0  0  0  0  0
  -23.9142  -10.5765   23.4780 C   0  0  0  0  0  0  0  0  0  0  0  0
  -20.1292  -33.1724   19.5512 C   0  0  0  0  0  0  0  0  0  0  0  0
  -21.2388  -30.6200   19.5321 C   0  0  0  0  0  0  0  0  0  0  0  0
  -21.6509  -24.9681   21.8543 C   0  0  0  0  0  0  0  0  0  0  0  0
  -22.5411   -8.6290   22.0273 C   0  0  0  0  0  0  0  0  0  0  0  0
  -23.2536   -9.5456   24.1461 C   0  0  0  0  0  0  0  0  0  0  0  0
  -22.5666  -23.9362   21.6538 C   0  0  0  0  0  0  0  0  0  0  0  0
  -23.3534   -5.7103   23.5260 C   0  0  0  0  0  0  0  0  0  0  0  0
  -23.5150   -4.4141   23.0370 C   0  0  0  0  0  0  0  0  0  0  0  0
  -23.7763  -24.6359   23.6201 C   0  0  0  0  0  0  0  0  0  0  0  0
  -21.1321   -4.2546   22.6720 C   0  0  0  0  0  0  0  0  0  0  0  0
  -23.8883  -10.6337   22.0845 C   0  0  0  0  0  0  0  0  0  0  0  0
  -24.0432  -12.9516   21.0306 C   0  0  0  0  0  0  0  0  0  0  0  0
  -20.9345  -32.7642   20.6262 C   0  0  0  0  0  0  0  0  0  0  0  0
  -21.7974  -25.8499   22.9347 C   0  0  0  0  0  0  0  0  0  0  0  0
  -21.5051  -31.4771   20.6134 C   0  0  0  0  0  0  0  0  0  0  0  0
  -22.8596  -25.6767   23.8335 C   0  0  0  0  0  0  0  0  0  0  0  0
  -22.5670   -8.5718   23.4207 C   0  0  0  0  0  0  0  0  0  0  0  0
  -23.6312  -23.7717   22.5352 C   0  0  0  0  0  0  0  0  0  0  0  0
  -22.0811   -6.2787   23.5881 C   0  0  0  0  0  0  0  0  0  0  0  0
  -22.4044   -3.6862   22.6100 C   0  0  0  0  0  0  0  0  0  0  0  0
  -20.9704   -5.5509   23.1610 C   0  0  0  0  0  0  0  0  0  0  0  0
  -24.5713  -11.6986   21.3949 C   0  0  0  0  0  0  0  0  0  0  0  0
  -29.8356  -19.8400   19.2310 C   0  0  0  0  0  0  0  0  0  0  0  0
  -31.1100  -19.3301   19.3646 C   0  0  0  0  0  0  0  0  0  0  0  0
  -25.0834  -13.5936   20.4041 C   0  0  0  0  0  0  0  0  0  0  0  0
  -29.9794  -17.4754   19.6671 C   0  0  0  0  0  0  0  0  0  0  0  0
  -22.7299  -13.4875   21.2399 C   0  0  0  0  0  0  0  0  0  0  0  0
  -29.3728  -21.2127   18.9651 C   0  0  0  0  0  0  0  0  0  0  0  0
  -22.2676  -28.9799   23.2278 C   0  0  0  0  0  0  0  0  0  0  0  0
  -21.8723  -28.3493   26.3851 C   0  0  0  0  0  0  0  0  0  0  0  0
  -22.0134  -26.0743   28.9250 C   0  0  0  0  0  0  0  0  0  0  0  0
  -30.4520  -15.0436   20.1245 C   0  0  0  0  0  0  0  0  0  0  0  0
  -21.2193  -33.7472   21.7341 C   0  0  0  0  0  0  0  0  0  0  0  0
  -20.7858  -26.9416   23.1523 C   0  0  0  0  0  0  0  0  0  0  0  0
  -23.0500  -26.5840   25.0205 C   0  0  0  0  0  0  0  0  0  0  0  0
  -21.7827  -33.0972   22.9952 C   0  0  0  0  0  0  0  0  0  0  0  0
  -29.5668  -11.8452   18.8346 C   0  0  0  0  0  0  0  0  0  0  0  0
  -22.8957  -32.1169   22.6389 C   0  0  0  0  0  0  0  0  0  0  0  0
  -28.1448  -11.6250   19.3558 C   0  0  0  0  0  0  0  0  0  0  0  0
  -30.4388  -12.5732   19.8561 C   0  0  0  0  0  0  0  0  0  0  0  0
  -28.4567  -13.6110   20.8873 C   0  0  0  0  0  0  0  0  0  0  0  0
  -22.3683  -30.9815   21.7533 C   0  0  1  0  0  0  0  0  0  0  0  0
  -21.3236  -28.0957   23.9926 C   0  0  1  0  0  0  0  0  0  0  0  0
  -27.5226  -12.9388   19.8679 C   0  0  2  0  0  0  0  0  0  0  0  0
  -21.6707  -25.8635   31.4020 C   0  0  0  0  0  0  0  0  0  0  0  0
  -30.7307  -21.9488   21.8850 C   0  0  0  0  0  0  0  0  0  0  0  0
  -24.5386  -29.7511   26.8708 C   0  0  0  0  0  0  0  0  0  0  0  0
  -24.6003  -28.6963   29.1405 C   0  0  0  0  0  0  0  0  0  0  0  0
  -22.7624  -30.2767   28.5511 C   0  0  0  0  0  0  0  0  0  0  0  0
  -19.8576  -24.0772   28.5739 C   0  0  0  0  0  0  0  0  0  0  0  0
  -26.8422  -22.2125   21.9151 C   0  0  0  0  0  0  0  0  0  0  0  0
  -28.3003  -22.4367   22.3388 C   0  0  0  0  0  0  0  0  0  0  0  0
  -25.8637  -22.9916   22.7867 C   0  0  0  0  0  0  0  0  0  1  0  0
  -22.7892  -27.9675   27.5220 C   0  0  1  0  0  0  0  0  0  0  0  0
  -21.0286  -25.7352   30.0294 C   0  0  2  0  0  0  0  0  0  0  0  0
  -29.2947  -21.6763   21.4488 C   0  0  1  0  0  0  0  0  0  0  0  0
  -23.6704  -29.1568   27.9977 C   0  0  0  0  0  0  0  0  0  0  0  0
  -25.8477  -11.5511   21.0300 N   0  0  0  0  0  0  0  0  0  0  0  0
  -31.1944  -17.9744   19.6151 N   0  0  0  0  0  0  0  0  0  0  0  0
  -26.1303  -12.7199   20.4299 N   0  0  0  0  0  0  0  0  0  0  0  0
  -22.0381  -27.6404   25.1869 N   0  0  0  0  0  0  0  0  0  0  0  0
  -29.7876  -13.8102   20.2926 N   0  0  0  0  0  0  0  0  0  0  0  0
  -32.2362  -20.0760   19.2627 N   0  0  0  0  0  0  0  0  0  0  0  0
  -25.1953  -14.8145   19.8391 N   0  0  0  0  0  0  0  0  0  0  0  0
  -21.7822  -12.6942   21.9009 N   0  0  0  0  0  0  0  0  0  0  0  0
  -29.6054  -16.1287   19.9001 N   0  0  0  0  0  0  0  0  0  0  0  0
  -29.1338  -22.0294   20.0577 N   0  0  0  0  0  0  0  0  0  0  0  0
  -21.6473  -30.0122   22.5502 N   0  0  0  0  0  0  0  0  0  0  0  0
  -21.9363  -27.4023   28.5620 N   0  0  0  0  0  0  0  0  0  0  0  0
  -20.5332  -24.3387   29.8709 N   0  3  0  0  0  0  0  0  0  0  0  0
  -22.4016  -14.6294   20.8377 O   0  0  0  0  0  0  0  0  0  0  0  0
  -23.4699  -28.7439   23.2519 O   0  0  0  0  0  0  0  0  0  0  0  0
  -21.0350  -29.2388   26.5561 O   0  0  0  0  0  0  0  0  0  0  0  0
  -22.7774  -25.2450   28.4360 O   0  0  0  0  0  0  0  0  0  0  0  0
  -31.6827  -15.1263   20.1488 O   0  0  0  0  0  0  0  0  0  0  0  0
  -21.9223   -7.5661   24.0730 O   0  0  0  0  0  0  0  0  0  0  0  0
  -24.5269  -22.7657   22.3415 O   0  0  0  0  0  0  0  0  0  1  0  0
  -22.5600   -2.4419   22.1391 F   0  0  0  0  0  0  0  0  0  0  0  0
  -19.7458   -6.0921   23.2171 F   0  0  0  0  0  0  0  0  0  0  0  0
  -29.1360  -21.7713   17.3995 S   0  0  0  0  0  0  0  0  0  0  0  0
  -28.6886  -18.5796   19.4230 S   0  0  0  0  0  0  0  0  0  0  0  0
  1  2  1  0  0  0  0
  1  5  2  0  0  0  0
  2  6  2  0  0  0  0
  3  8  2  0  0  0  0
  3 15  1  0  0  0  0
  4  9  1  0  0  0  0
  4 15  2  0  0  0  0
  5 17  1  0  0  0  0
  6 19  1  0  0  0  0
  7 10  2  0  0  0  0
  7 18  1  0  0  0  0
  8 21  1  0  0  0  0
  9 21  2  0  0  0  0
 10 22  1  0  0  0  0
 11 12  2  0  0  0  0
 11 23  1  0  0  0  0
 12 24  1  0  0  0  0
 13 20  1  0  0  0  0
 13 22  2  0  0  0  0
 14 24  2  0  0  0  0
 14 25  1  0  0  0  0
 15 26  1  0  0  0  0
 16 26  1  0  0  0  0
 16 29  2  0  0  0  0
 16 31  1  0  0  0  0
 17 19  2  0  0  0  0
 17 37  1  0  0  0  0
 18 20  2  0  0  0  0
 18 38  1  0  0  0  0
 19 46  1  0  0  0  0
 20 39  1  0  0  0  0
 21 80  1  0  0  0  0
 22 81  1  0  0  0  0
 23 25  2  0  0  0  0
 23 80  1  0  0  0  0
 24 82  1  0  0  0  0
 25 83  1  0  0  0  0
 26 62  2  0  0  0  0
 27 28  2  0  0  0  0
 27 32  1  0  0  0  0
 27 85  1  0  0  0  0
 28 63  1  0  0  0  0
 28 67  1  0  0  0  0
 29 64  1  0  0  0  0
 29 68  1  0  0  0  0
 30 63  2  0  0  0  0
 30 70  1  0  0  0  0
 30 85  1  0  0  0  0
 31 69  1  0  0  0  0
 31 75  2  0  0  0  0
 32 71  1  0  0  0  0
 32 84  2  0  0  0  0
 33 47  1  0  0  0  0
 33 72  1  0  0  0  0
 33 76  2  0  0  0  0
 34 58  1  0  0  0  0
 34 65  1  0  0  0  0
 34 77  2  0  0  0  0
 35 59  1  0  0  0  0
 35 73  1  0  0  0  0
 35 78  2  0  0  0  0
 36 66  1  0  0  0  0
 36 70  1  0  0  0  0
 36 79  2  0  0  0  0
 37 40  1  0  0  0  0
 38 47  1  0  0  0  0
 39 65  1  0  0  0  0
 40 42  1  0  0  0  0
 41 43  1  0  0  0  0
 41 44  1  0  0  0  0
 42 46  1  0  0  0  0
 43 48  1  0  0  0  0
 44 66  1  0  0  0  0
 45 48  1  0  0  0  0
 45 66  1  0  0  0  0
 46 72  1  0  0  0  0
 47 65  1  0  0  0  0
 48 64  1  0  0  0  0
 49 59  1  0  0  0  0
 50 60  1  0  0  0  0
 51 61  1  0  0  0  0
 52 61  1  0  0  0  0
 53 61  1  0  0  0  0
 54 74  1  0  0  0  0
 55 56  1  0  0  0  0
 55 57  1  0  0  0  0
 56 60  1  0  0  0  0
 57 81  1  0  0  0  0
 58 61  1  0  0  0  0
 58 73  1  0  0  0  0
 59 74  1  0  0  0  0
 60 71  1  0  0  0  0
 62 64  1  0  0  0  0
M  CHG  1  74   1
M  ISO  4  36 100  57 101  70 100  81 101
M  END
> <Batch ID>
0188

> <Smiles>
CNC(C)C(=O)NC(C(=O)N1Cc2cc([101O:1][101CH2:1]CCC(C)NC(=S)c3sc([100NH:0][100C:0](=O)N4CCCC(n5nc(-c6ccc(Oc7ccc(F)cc7F)cc6)c(C(N)=O)c5N)C4)nc3N)ccc2CC1C(=O)NC1CCCc2ccccc21)C(C)(C)C

> <Shape>
0.236

> <Color>
0.187

> <Negative vol penalty>
0.000

$$$$

  -OEChem-04052305153D

 91 99  0     1  0  0  0  0  0999 V2000
  -37.9941  -23.1055   20.1507 C   0  0  0  0  0  0  0  0  0  0  0  0
  -36.7540  -23.3889   20.7139 C   0  0  0  0  0  0  0  0  0  0  0  0
  -23.0000   -9.8939   19.9885 C   0  0  0  0  0  0  0  0  0  0  0  0
  -23.7586   -9.9406   22.2819 C   0  0  0  0  0  0  0  0  0  0  0  0
  -38.7248  -24.1184   19.5309 C   0  0  0  0  0  0  0  0  0  0  0  0
  -36.2443  -24.6856   20.6585 C   0  0  0  0  0  0  0  0  0  0  0  0
  -31.3547  -24.7967   19.3451 C   0  0  0  0  0  0  0  0  0  0  0  0
  -22.2422   -8.7553   20.2623 C   0  0  0  0  0  0  0  0  0  0  0  0
  -23.0008   -8.8020   22.5557 C   0  0  0  0  0  0  0  0  0  0  0  0
  -30.4228  -24.4803   20.3326 C   0  0  0  0  0  0  0  0  0  0  0  0
  -23.2523   -5.4657   22.0694 C   0  0  0  0  0  0  0  0  0  0  0  0
  -23.8551   -4.4486   22.8095 C   0  0  0  0  0  0  0  0  0  0  0  0
  -30.0015  -26.8301   20.6793 C   0  0  0  0  0  0  0  0  0  0  0  0
  -22.1549   -4.6788   24.5105 C   0  0  0  0  0  0  0  0  0  0  0  0
  -27.2882  -19.0926   23.1075 C   0  0  0  0  0  0  0  0  0  0  0  0
  -23.7582  -10.4866   20.9983 C   0  0  0  0  0  0  0  0  0  0  0  0
  -24.1303  -13.0043   20.8249 C   0  0  0  0  0  0  0  0  0  0  0  0
  -38.2195  -25.4261   19.4594 C   0  0  0  0  0  0  0  0  0  0  0  0
  -31.6254  -26.1347   19.0243 C   0  0  0  0  0  0  0  0  0  0  0  0
  -36.9695  -25.7172   20.0383 C   0  0  0  0  0  0  0  0  0  0  0  0
  -30.9354  -27.1607   19.6856 C   0  0  0  0  0  0  0  0  0  0  0  0
  -28.5223  -19.6999   23.0334 C   0  0  0  0  0  0  0  0  0  0  0  0
  -29.4358  -18.9595   22.2287 C   0  0  0  0  0  0  0  0  0  0  0  0
  -22.2426   -8.2094   21.5459 C   0  0  0  0  0  0  0  0  0  0  0  0
  -29.7481  -25.4971   21.0019 C   0  0  0  0  0  0  0  0  0  0  0  0
  -22.1008   -6.0894   22.5499 C   0  0  0  0  0  0  0  0  0  0  0  0
  -23.3064   -4.0551   24.0300 C   0  0  0  0  0  0  0  0  0  0  0  0
  -21.5521   -5.6959   23.7704 C   0  0  0  0  0  0  0  0  0  0  0  0
  -24.5416  -11.6624   20.7159 C   0  0  0  0  0  0  0  0  0  0  0  0
  -28.8648  -17.8142   21.7185 C   0  0  0  0  0  0  0  0  0  0  0  0
  -25.2315  -13.7328   20.4467 C   0  0  0  0  0  0  0  0  0  0  0  0
  -22.8658  -13.5441   21.2317 C   0  0  0  0  0  0  0  0  0  0  0  0
  -34.1986  -27.9963   19.1548 C   0  0  0  0  0  0  0  0  0  0  0  0
  -32.2583  -30.1203   17.6560 C   0  0  0  0  0  0  0  0  0  0  0  0
  -30.7469  -14.6255   20.7162 C   0  0  0  0  0  0  0  0  0  0  0  0
  -31.6314  -20.0580   22.7927 C   0  0  0  0  0  0  0  0  0  0  0  0
  -27.9583  -21.6741   24.4909 C   0  0  0  0  0  0  0  0  0  0  0  0
  -29.0808  -31.1698   16.9863 C   0  0  0  0  0  0  0  0  0  0  0  0
  -39.0669  -26.4979   18.8208 C   0  0  0  0  0  0  0  0  0  0  0  0
  -32.6140  -26.4587   17.9380 C   0  0  0  0  0  0  0  0  0  0  0  0
  -31.1749  -28.6126   19.3643 C   0  0  0  0  0  0  0  0  0  0  0  0
  -38.2883  -27.7646   18.4750 C   0  0  0  0  0  0  0  0  0  0  0  0
  -29.5562  -12.2905   18.2729 C   0  0  0  0  0  0  0  0  0  0  0  0
  -37.4084  -28.1871   19.6473 C   0  0  0  0  0  0  0  0  0  0  0  0
  -28.1219  -12.0062   18.7171 C   0  0  0  0  0  0  0  0  0  0  0  0
  -30.4783  -12.5076   19.4686 C   0  0  0  0  0  0  0  0  0  0  0  0
  -28.5831  -13.2946   20.8507 C   0  0  0  0  0  0  0  0  0  0  0  0
  -36.3718  -27.1061   19.9767 C   0  0  1  0  0  0  0  0  0  0  0  0
  -33.1863  -27.8683   18.0519 C   0  0  1  0  0  0  0  0  0  0  0  0
  -27.6122  -13.0996   19.6727 C   0  0  2  0  0  0  0  0  0  0  0  0
  -33.0378  -21.5166   21.2874 C   0  0  0  0  0  0  0  0  0  0  0  0
  -34.0904  -20.3060   23.2154 C   0  0  0  0  0  0  0  0  0  0  0  0
  -27.8131  -32.9566   15.7625 C   0  0  0  0  0  0  0  0  0  0  0  0
  -32.9505  -32.1160   19.8578 C   0  0  0  0  0  0  0  0  0  0  0  0
  -30.9825  -33.4862   19.1383 C   0  0  0  0  0  0  0  0  0  0  0  0
  -32.8692  -33.0893   17.5555 C   0  0  0  0  0  0  0  0  0  0  0  0
  -27.7397  -29.1879   15.2448 C   0  0  0  0  0  0  0  0  0  0  0  0
  -29.4664  -16.7806   20.8447 C   0  0  0  0  0  0  0  0  0  0  0  0
  -28.4653  -24.1381   24.1065 C   0  0  0  0  0  0  0  0  0  0  0  0
  -29.0547  -23.9895   22.7055 C   0  0  0  0  0  0  0  0  0  1  0  0
  -31.2938  -31.1904   18.1072 C   0  0  1  0  0  0  0  0  0  0  0  0
  -30.1303  -15.6469   21.6385 C   0  0  2  0  0  0  0  0  0  0  0  0
  -33.0047  -20.2513   22.1422 C   0  0  0  0  0  0  0  0  0  0  0  0
  -28.6555  -22.9226   25.0184 C   0  0  1  0  0  0  0  0  0  0  0  0
  -28.4007  -31.5560   15.6853 C   0  0  2  0  0  0  0  0  0  0  0  0
  -32.0207  -32.4433   18.6723 C   0  0  0  0  0  0  0  0  0  0  0  0
  -25.8055  -11.5426   20.3008 N   0  0  0  0  0  0  0  0  0  0  0  0
  -26.1978  -12.8186   20.1456 N   0  0  0  0  0  0  0  0  0  0  0  0
  -32.1555  -28.8785   18.2989 N   0  0  0  0  0  0  0  0  0  0  0  0
  -29.9481  -13.5376   20.3636 N   0  0  0  0  0  0  0  0  0  0  0  0
  -25.4578  -15.0598   20.3455 N   0  0  0  0  0  0  0  0  0  0  0  0
  -21.8429  -12.6544   21.5874 N   0  0  0  0  0  0  0  0  0  0  0  0
  -28.8116  -20.9174   23.6940 N   0  0  0  0  0  0  0  0  0  0  0  0
  -30.7450  -19.3238   21.9743 N   0  0  0  0  0  0  0  0  0  0  0  0
  -35.2805  -27.1463   19.0270 N   0  0  0  0  0  0  0  0  0  0  0  0
  -30.4272  -31.4662   16.9664 N   0  0  0  0  0  0  0  0  0  0  0  0
  -28.1815  -23.2435   26.3947 N   0  3  0  0  0  0  0  0  0  0  0  0
  -27.3000  -30.6012   15.3728 N   0  3  0  0  0  0  0  0  0  0  0  0
  -22.6442  -14.7784   21.2627 O   0  0  0  0  0  0  0  0  0  0  0  0
  -34.0125  -28.8074   20.0544 O   0  0  0  0  0  0  0  0  0  0  0  0
  -33.0682  -30.3745   16.7609 O   0  0  0  0  0  0  0  0  0  0  0  0
  -31.9032  -14.7928   20.3197 O   0  0  0  0  0  0  0  0  0  0  0  0
  -31.3801  -20.5047   23.9083 O   0  0  0  0  0  0  0  0  0  0  0  0
  -26.7894  -21.4254   24.7716 O   0  0  0  0  0  0  0  0  0  0  0  0
  -28.4771  -30.6598   17.9276 O   0  0  0  0  0  0  0  0  0  0  0  0
  -21.5031   -7.0985   21.8135 O   0  0  0  0  0  0  0  0  0  0  0  0
  -28.8385  -25.1911   21.9667 O   0  0  0  0  0  0  0  0  0  1  0  0
  -23.8844   -3.0773   24.7399 F   0  0  0  0  0  0  0  0  0  0  0  0
  -20.4454   -6.2906   24.2366 F   0  0  0  0  0  0  0  0  0  0  0  0
  -31.0915  -16.1836   22.4394 F   0  0  0  0  0  0  0  0  0  0  0  0
  -27.2341  -17.6356   22.2094 S   0  0  0  0  0  0  0  0  0  0  0  0
  1  2  1  0  0  0  0
  1  5  2  0  0  0  0
  2  6  2  0  0  0  0
  3  8  2  0  0  0  0
  3 16  1  0  0  0  0
  4  9  1  0  0  0  0
  4 16  2  0  0  0  0
  5 18  1  0  0  0  0
  6 20  1  0  0  0  0
  7 10  2  0  0  0  0
  7 19  1  0  0  0  0
  8 24  1  0  0  0  0
  9 24  2  0  0  0  0
 10 25  1  0  0  0  0
 11 12  2  0  0  0  0
 11 26  1  0  0  0  0
 12 27  1  0  0  0  0
 13 21  1  0  0  0  0
 13 25  2  0  0  0  0
 14 27  2  0  0  0  0
 14 28  1  0  0  0  0
 15 22  2  0  0  0  0
 15 91  1  0  0  0  0
 16 29  1  0  0  0  0
 17 29  1  0  0  0  0
 17 31  2  0  0  0  0
 17 32  1  0  0  0  0
 18 20  2  0  0  0  0
 18 39  1  0  0  0  0
 19 21  2  0  0  0  0
 19 40  1  0  0  0  0
 20 48  1  0  0  0  0
 21 41  1  0  0  0  0
 22 23  1  0  0  0  0
 22 73  1  0  0  0  0
 23 30  2  0  0  0  0
 23 74  1  0  0  0  0
 24 86  1  0  0  0  0
 25 87  1  0  0  0  0
 26 28  2  0  0  0  0
 26 86  1  0  0  0  0
 27 88  1  0  0  0  0
 28 89  1  0  0  0  0
 29 67  2  0  0  0  0
 30 58  1  0  0  0  0
 30 91  1  0  0  0  0
 31 68  1  0  0  0  0
 31 71  1  0  0  0  0
 32 72  1  0  0  0  0
 32 79  2  0  0  0  0
 33 49  1  0  0  0  0
 33 75  1  0  0  0  0
 33 80  2  0  0  0  0
 34 61  1  0  0  0  0
 34 69  1  0  0  0  0
 34 81  2  0  0  0  0
 35 62  1  0  0  0  0
 35 70  1  0  0  0  0
 35 82  2  0  0  0  0
 36 63  1  0  0  0  0
 36 74  1  0  0  0  0
 36 83  2  0  0  0  0
 37 64  1  0  0  0  0
 37 73  1  0  0  0  0
 37 84  2  0  0  0  0
 38 65  1  0  0  0  0
 38 76  1  0  0  0  0
 38 85  2  0  0  0  0
 39 42  1  0  0  0  0
 40 49  1  0  0  0  0
 41 69  1  0  0  0  0
 42 44  1  0  0  0  0
 43 45  1  0  0  0  0
 43 46  1  0  0  0  0
 44 48  1  0  0  0  0
 45 50  1  0  0  0  0
 46 70  1  0  0  0  0
 47 50  1  0  0  0  0
 47 70  1  0  0  0  0
 48 75  1  0  0  0  0
 49 69  1  0  0  0  0
 50 68  1  0  0  0  0
 51 63  1  0  0  0  0
 52 63  1  0  0  0  0
 53 65  1  0  0  0  0
 54 66  1  0  0  0  0
 55 66  1  0  0  0  0
 56 66  1  0  0  0  0
 57 78  1  0  0  0  0
 58 62  1  0  0  0  0
 59 60  1  0  0  0  0
 59 64  1  0  0  0  0
 60 87  1  0  0  0  0
 61 66  1  0  0  0  0
 61 76  1  0  0  0  0
 62 90  1  0  0  0  0
 64 77  1  0  0  0  0
 65 78  1  0  0  0  0
 67 68  1  0  0  0  0
M  CHG  2  77   1  78   1
M  ISO  4  35 100  60 101  62 100  87 101
M  END
> <Batch ID>
0188

> <Smiles>
CNC(C)C(=O)NC(C(=O)N1Cc2cc([101O:1][101CH2:1]CC(N)C(=O)Nc3csc(C[100CH:0](F)[100C:0](=O)N4CCCC(n5nc(-c6ccc(Oc7ccc(F)cc7F)cc6)c(C(N)=O)c5N)C4)c3NC(=O)C(C)C)ccc2CC1C(=O)NC1CCCc2ccccc21)C(C)(C)C

> <Shape>
0.217

> <Color>
0.180

> <Negative vol penalty>
0.000

$$$$

  -OEChem-04052305153D

 82 90  0     1  0  0  0  0  0999 V2000
  -29.5689  -11.8732   19.6258 C   0  0  0  0  0  0  0  0  0  0  0  0
  -29.4355  -12.6832   20.7490 C   0  0  0  0  0  0  0  0  0  0  0  0
  -26.2674  -28.0149   18.8592 C   0  0  0  0  0  0  0  0  0  0  0  0
  -26.3889  -27.6277   21.2409 C   0  0  0  0  0  0  0  0  0  0  0  0
  -28.8377  -12.1562   18.4729 C   0  0  0  0  0  0  0  0  0  0  0  0
  -28.5716  -13.7774   20.7195 C   0  0  0  0  0  0  0  0  0  0  0  0
  -25.7342  -14.1256   24.8996 C   0  0  0  0  0  0  0  0  0  0  0  0
  -25.1524  -28.8312   19.0488 C   0  0  0  0  0  0  0  0  0  0  0  0
  -25.2740  -28.4441   21.4305 C   0  0  0  0  0  0  0  0  0  0  0  0
  -26.3430  -14.6461   26.0408 C   0  0  0  0  0  0  0  0  0  0  0  0
  -21.9179  -28.1923   21.1073 C   0  0  0  0  0  0  0  0  0  0  0  0
  -20.9201  -27.7367   21.9689 C   0  0  0  0  0  0  0  0  0  0  0  0
  -25.3114  -16.7835   25.6088 C   0  0  0  0  0  0  0  0  0  0  0  0
  -21.2422  -29.6791   23.3691 C   0  0  0  0  0  0  0  0  0  0  0  0
  -29.0403  -20.3893   24.2594 C   0  0  0  0  0  0  0  0  0  0  0  0
  -29.5821  -17.7802   24.0982 C   0  0  0  0  0  0  0  0  0  0  0  0
  -26.8856  -27.4131   19.9553 C   0  0  0  0  0  0  0  0  0  0  0  0
  -29.3886  -26.9630   19.7552 C   0  0  0  0  0  0  0  0  0  0  0  0
  -27.9572  -13.2488   18.4325 C   0  0  0  0  0  0  0  0  0  0  0  0
  -24.9169  -14.9345   24.0971 C   0  0  0  0  0  0  0  0  0  0  0  0
  -27.8290  -14.0761   19.5645 C   0  0  0  0  0  0  0  0  0  0  0  0
  -24.6914  -16.2702   24.4594 C   0  0  0  0  0  0  0  0  0  0  0  0
  -24.6557  -29.0459   20.3344 C   0  0  0  0  0  0  0  0  0  0  0  0
  -26.1339  -15.9760   26.3940 C   0  0  0  0  0  0  0  0  0  0  0  0
  -22.5780  -29.3913   21.3766 C   0  0  0  0  0  0  0  0  0  0  0  0
  -20.5822  -28.4801   23.0998 C   0  0  0  0  0  0  0  0  0  0  0  0
  -22.2401  -30.1346   22.5075 C   0  0  0  0  0  0  0  0  0  0  0  0
  -28.0371  -26.5692   19.7600 C   0  0  0  0  0  0  0  0  0  0  0  0
  -29.0887  -19.7473   23.0416 C   0  0  0  0  0  0  0  0  0  0  0  0
  -29.5346  -18.4222   25.3159 C   0  0  0  0  0  0  0  0  0  0  0  0
  -30.0843  -25.8000   19.5315 C   0  0  0  0  0  0  0  0  0  0  0  0
  -29.9638  -28.2637   19.9368 C   0  0  0  0  0  0  0  0  0  0  0  0
  -25.0192  -15.9350   21.0818 C   0  0  0  0  0  0  0  0  0  0  0  0
  -22.0924  -17.1403   21.7917 C   0  0  0  0  0  0  0  0  0  0  0  0
  -19.9133  -18.2419   24.1759 C   0  0  0  0  0  0  0  0  0  0  0  0
  -28.8486  -20.0435   20.5514 C   0  0  0  0  0  0  0  0  0  0  0  0
  -27.2236  -13.5428   17.1479 C   0  0  0  0  0  0  0  0  0  0  0  0
  -24.2461  -14.3507   22.8840 C   0  0  0  0  0  0  0  0  0  0  0  0
  -23.8064  -17.1748   23.6427 C   0  0  0  0  0  0  0  0  0  0  0  0
  -26.0482  -14.5009   17.3233 C   0  0  0  0  0  0  0  0  0  0  0  0
  -29.6520  -21.5257   17.4154 C   0  0  0  0  0  0  0  0  0  0  0  0
  -26.4583  -15.6988   18.1740 C   0  0  0  0  0  0  0  0  0  0  0  0
  -29.4579  -23.0236   17.6621 C   0  0  0  0  0  0  0  0  0  0  0  0
  -28.6155  -20.6889   18.1631 C   0  0  0  0  0  0  0  0  0  0  0  0
  -28.3229  -22.4613   19.8490 C   0  0  0  0  0  0  0  0  0  0  0  0
  -26.8834  -15.2575   19.5797 C   0  0  1  0  0  0  0  0  0  0  0  0
  -23.8460  -15.4053   21.8568 C   0  0  1  0  0  0  0  0  0  0  0  0
  -29.3837  -23.3417   19.1683 C   0  0  2  0  0  0  0  0  0  0  0  0
  -17.6104  -19.2010   24.4476 C   0  0  0  0  0  0  0  0  0  0  0  0
  -29.9750  -19.2316   28.3275 C   0  0  0  0  0  0  0  0  0  0  0  0
  -23.1048  -19.8443   20.8051 C   0  0  0  0  0  0  0  0  0  0  0  0
  -21.1585  -20.9158   21.9593 C   0  0  0  0  0  0  0  0  0  0  0  0
  -20.7678  -19.2884   20.1095 C   0  0  0  0  0  0  0  0  0  0  0  0
  -19.0289  -15.9523   25.8295 C   0  0  0  0  0  0  0  0  0  0  0  0
  -28.8179  -17.0074   28.5663 C   0  0  0  0  0  0  0  0  0  0  0  0
  -27.9828  -15.9261   27.8890 C   0  0  0  0  0  0  0  0  0  1  0  0
  -21.5808  -18.4460   22.3504 C   0  0  1  0  0  0  0  0  0  0  0  0
  -18.4477  -17.9318   24.4215 C   0  0  2  0  0  0  0  0  0  0  0  0
  -29.0972  -18.1930   27.6423 C   0  0  2  0  0  0  0  0  0  0  0  0
  -21.6713  -19.6074   21.3206 C   0  0  0  0  0  0  0  0  0  0  0  0
  -29.3601  -18.4312   22.9391 N   0  0  0  0  0  0  0  0  0  0  0  0
  -29.2627  -19.7384   25.4184 N   0  0  0  0  0  0  0  0  0  0  0  0
  -27.8812  -25.2585   19.5554 N   0  0  0  0  0  0  0  0  0  0  0  0
  -29.1438  -24.8186   19.4199 N   0  0  0  0  0  0  0  0  0  0  0  0
  -23.1780  -16.5592   22.4622 N   0  0  0  0  0  0  0  0  0  0  0  0
  -28.6048  -21.0416   19.5845 N   0  0  0  0  0  0  0  0  0  0  0  0
  -31.4027  -25.5314   19.4213 N   0  0  0  0  0  0  0  0  0  0  0  0
  -29.1050  -29.3493   20.1564 N   0  0  0  0  0  0  0  0  0  0  0  0
  -28.8458  -20.5031   21.8680 N   0  0  0  0  0  0  0  0  0  0  0  0
  -25.7211  -14.9657   20.3910 N   0  0  0  0  0  0  0  0  0  0  0  0
  -20.2305  -18.1813   22.8354 N   0  0  0  0  0  0  0  0  0  0  0  0
  -18.2781  -17.2300   25.7252 N   0  3  0  0  0  0  0  0  0  0  0  0
  -31.2018  -28.4602   19.8890 O   0  0  0  0  0  0  0  0  0  0  0  0
  -25.2682  -17.1346   21.1073 O   0  0  0  0  0  0  0  0  0  0  0  0
  -21.5444  -16.6503   20.8011 O   0  0  0  0  0  0  0  0  0  0  0  0
  -20.6974  -18.5146   25.0822 O   0  0  0  0  0  0  0  0  0  0  0  0
  -29.0725  -18.8727   20.2334 O   0  0  0  0  0  0  0  0  0  0  0  0
  -23.5679  -29.8426   20.5199 O   0  0  0  0  0  0  0  0  0  0  0  0
  -26.7274  -16.4868   27.5070 O   0  0  0  0  0  0  0  0  0  1  0  0
  -29.7634  -17.7264   26.4725 O   0  0  0  0  0  0  0  0  0  0  0  0
  -19.6229  -28.0432   23.9262 F   0  0  0  0  0  0  0  0  0  0  0  0
  -22.8699  -31.2878   22.7708 F   0  0  0  0  0  0  0  0  0  0  0  0
  1  2  1  0  0  0  0
  1  5  2  0  0  0  0
  2  6  2  0  0  0  0
  3  8  2  0  0  0  0
  3 17  1  0  0  0  0
  4  9  1  0  0  0  0
  4 17  2  0  0  0  0
  5 19  1  0  0  0  0
  6 21  1  0  0  0  0
  7 10  2  0  0  0  0
  7 20  1  0  0  0  0
  8 23  1  0  0  0  0
  9 23  2  0  0  0  0
 10 24  1  0  0  0  0
 11 12  2  0  0  0  0
 11 25  1  0  0  0  0
 12 26  1  0  0  0  0
 13 22  1  0  0  0  0
 13 24  2  0  0  0  0
 14 26  2  0  0  0  0
 14 27  1  0  0  0  0
 15 29  2  0  0  0  0
 15 62  1  0  0  0  0
 16 30  1  0  0  0  0
 16 61  2  0  0  0  0
 17 28  1  0  0  0  0
 18 28  1  0  0  0  0
 18 31  2  0  0  0  0
 18 32  1  0  0  0  0
 19 21  2  0  0  0  0
 19 37  1  0  0  0  0
 20 22  2  0  0  0  0
 20 38  1  0  0  0  0
 21 46  1  0  0  0  0
 22 39  1  0  0  0  0
 23 78  1  0  0  0  0
 24 79  1  0  0  0  0
 25 27  2  0  0  0  0
 25 78  1  0  0  0  0
 26 81  1  0  0  0  0
 27 82  1  0  0  0  0
 28 63  2  0  0  0  0
 29 61  1  0  0  0  0
 29 69  1  0  0  0  0
 30 62  2  0  0  0  0
 30 80  1  0  0  0  0
 31 64  1  0  0  0  0
 31 67  1  0  0  0  0
 32 68  1  0  0  0  0
 32 73  2  0  0  0  0
 33 47  1  0  0  0  0
 33 70  1  0  0  0  0
 33 74  2  0  0  0  0
 34 57  1  0  0  0  0
 34 65  1  0  0  0  0
 34 75  2  0  0  0  0
 35 58  1  0  0  0  0
 35 71  1  0  0  0  0
 35 76  2  0  0  0  0
 36 66  1  0  0  0  0
 36 69  1  0  0  0  0
 36 77  2  0  0  0  0
 37 40  1  0  0  0  0
 38 47  1  0  0  0  0
 39 65  1  0  0  0  0
 40 42  1  0  0  0  0
 41 43  1  0  0  0  0
 41 44  1  0  0  0  0
 42 46  1  0  0  0  0
 43 48  1  0  0  0  0
 44 66  1  0  0  0  0
 45 48  1  0  0  0  0
 45 66  1  0  0  0  0
 46 70  1  0  0  0  0
 47 65  1  0  0  0  0
 48 64  1  0  0  0  0
 49 58  1  0  0  0  0
 50 59  1  0  0  0  0
 51 60  1  0  0  0  0
 52 60  1  0  0  0  0
 53 60  1  0  0  0  0
 54 72  1  0  0  0  0
 55 56  1  0  0  0  0
 55 59  1  0  0  0  0
 56 79  1  0  0  0  0
 57 60  1  0  0  0  0
 57 71  1  0  0  0  0
 58 72  1  0  0  0  0
 59 80  1  0  0  0  0
 63 64  1  0  0  0  0
M  CHG  1  72   1
M  ISO  4  36 100  56 101  69 100  79 101
M  END
> <Batch ID>
0188

> <Smiles>
CNC(C)C(=O)NC(C(=O)N1Cc2cc([101O:1][101CH2:1]CC(C)Oc3cnc([100NH:0][100C:0](=O)N4CCCC(n5nc(-c6ccc(Oc7ccc(F)cc7F)cc6)c(C(N)=O)c5N)C4)cn3)ccc2CC1C(=O)NC1CCCc2ccccc21)C(C)(C)C

> <Shape>
0.216

> <Color>
0.065

> <Negative vol penalty>
0.000

$$$$

  -OEChem-04052305153D

 87 95  0     1  0  0  0  0  0999 V2000
  -26.6651  -28.9845   28.6740 C   0  0  0  0  0  0  0  0  0  0  0  0
  -27.0684  -28.3929   27.4812 C   0  0  0  0  0  0  0  0  0  0  0  0
  -24.5139   -9.9131   21.3458 C   0  0  0  0  0  0  0  0  0  0  0  0
  -24.9107  -10.9419   23.4955 C   0  0  0  0  0  0  0  0  0  0  0  0
  -25.4280  -28.6593   29.2287 C   0  0  0  0  0  0  0  0  0  0  0  0
  -26.2352  -27.4750   26.8428 C   0  0  0  0  0  0  0  0  0  0  0  0
  -25.9262  -28.2749   21.8519 C   0  0  0  0  0  0  0  0  0  0  0  0
  -24.2051   -8.7092   21.9789 C   0  0  0  0  0  0  0  0  0  0  0  0
  -24.6018   -9.7379   24.1287 C   0  0  0  0  0  0  0  0  0  0  0  0
  -26.9945  -27.8382   21.0697 C   0  0  0  0  0  0  0  0  0  0  0  0
  -21.5720   -7.3588   23.6146 C   0  0  0  0  0  0  0  0  0  0  0  0
  -20.4443   -6.6656   23.1747 C   0  0  0  0  0  0  0  0  0  0  0  0
  -25.7360  -25.8730   20.4588 C   0  0  0  0  0  0  0  0  0  0  0  0
  -21.8310   -4.7705   22.6066 C   0  0  0  0  0  0  0  0  0  0  0  0
  -29.6560  -21.5409   20.2147 C   0  0  0  0  0  0  0  0  0  0  0  0
  -24.8667  -11.0295   22.1041 C   0  0  0  0  0  0  0  0  0  0  0  0
  -24.2964  -13.3120   21.1181 C   0  0  0  0  0  0  0  0  0  0  0  0
  -24.5750  -27.7442   28.5918 C   0  0  0  0  0  0  0  0  0  0  0  0
  -24.7570  -27.5073   21.9522 C   0  0  0  0  0  0  0  0  0  0  0  0
  -24.9860  -27.1363   27.3902 C   0  0  0  0  0  0  0  0  0  0  0  0
  -24.6533  -26.3035   21.2408 C   0  0  0  0  0  0  0  0  0  0  0  0
  -28.5746  -22.2679   20.6858 C   0  0  0  0  0  0  0  0  0  0  0  0
  -27.5277  -20.1744   21.2388 C   0  0  0  0  0  0  0  0  0  0  0  0
  -24.2491   -8.6216   23.3703 C   0  0  0  0  0  0  0  0  0  0  0  0
  -26.9006  -26.6357   20.3753 C   0  0  0  0  0  0  0  0  0  0  0  0
  -22.8291   -6.7578   23.5505 C   0  0  0  0  0  0  0  0  0  0  0  0
  -20.5738   -5.3715   22.6707 C   0  0  0  0  0  0  0  0  0  0  0  0
  -22.9586   -5.4637   23.0465 C   0  0  0  0  0  0  0  0  0  0  0  0
  -27.4942  -21.5640   21.2060 C   0  0  0  0  0  0  0  0  0  0  0  0
  -25.1864  -12.2733   21.4507 C   0  0  0  0  0  0  0  0  0  0  0  0
  -28.6558  -19.5411   20.7427 C   0  0  0  0  0  0  0  0  0  0  0  0
  -25.0864  -14.2622   20.5186 C   0  0  0  0  0  0  0  0  0  0  0  0
  -22.8820  -13.4094   21.3321 C   0  0  0  0  0  0  0  0  0  0  0  0
  -23.2259  -26.0523   24.3275 C   0  0  0  0  0  0  0  0  0  0  0  0
  -20.9991  -25.5001   22.0343 C   0  0  0  0  0  0  0  0  0  0  0  0
  -20.2779  -25.1760   18.7145 C   0  0  0  0  0  0  0  0  0  0  0  0
  -29.5717  -24.5154   20.1444 C   0  0  0  0  0  0  0  0  0  0  0  0
  -29.7436  -17.3079   20.3235 C   0  0  0  0  0  0  0  0  0  0  0  0
  -23.2675  -27.3885   29.2540 C   0  0  0  0  0  0  0  0  0  0  0  0
  -23.6033  -28.0055   22.7789 C   0  0  0  0  0  0  0  0  0  0  0  0
  -23.4120  -25.4524   21.2990 C   0  0  0  0  0  0  0  0  0  0  0  0
  -22.2826  -26.6889   28.3209 C   0  0  0  0  0  0  0  0  0  0  0  0
  -29.8889  -14.0321   18.9360 C   0  0  0  0  0  0  0  0  0  0  0  0
  -22.9830  -25.5832   27.5374 C   0  0  0  0  0  0  0  0  0  0  0  0
  -28.6052  -13.3679   19.4392 C   0  0  0  0  0  0  0  0  0  0  0  0
  -30.4943  -14.9634   19.9848 C   0  0  0  0  0  0  0  0  0  0  0  0
  -28.2897  -15.3069   21.0291 C   0  0  0  0  0  0  0  0  0  0  0  0
  -24.0994  -26.1546   26.6550 C   0  0  1  0  0  0  0  0  0  0  0  0
  -22.6580  -26.8915   23.2181 C   0  0  1  0  0  0  0  0  0  0  0  0
  -27.6079  -14.4094   19.9835 C   0  0  2  0  0  0  0  0  0  0  0  0
  -18.3777  -24.6870   17.1500 C   0  0  0  0  0  0  0  0  0  0  0  0
  -30.2449  -26.8998   19.6740 C   0  0  0  0  0  0  0  0  0  0  0  0
  -24.1713  -18.9288   22.3836 C   0  0  0  0  0  0  0  0  0  0  0  0
  -24.7056  -20.1555   20.2492 C   0  0  0  0  0  0  0  0  0  0  0  0
  -21.1636  -22.5418   22.7631 C   0  0  0  0  0  0  0  0  0  0  0  0
  -20.0130  -22.0170   20.6024 C   0  0  0  0  0  0  0  0  0  0  0  0
  -18.8480  -23.3832   22.3341 C   0  0  0  0  0  0  0  0  0  0  0  0
  -20.5348  -27.8117   17.3930 C   0  0  0  0  0  0  0  0  0  0  0  0
  -20.7535  -24.4055   21.0241 C   0  0  1  0  0  0  0  0  0  0  0  0
  -19.1725  -25.7712   17.8610 C   0  0  2  0  0  0  0  0  0  0  0  0
  -29.1864  -25.9868   20.2748 C   0  0  1  0  0  0  0  0  0  1  0  0
  -25.0882  -19.9365   21.7056 C   0  0  0  0  0  0  0  0  0  0  0  0
  -20.2188  -23.1017   21.6812 C   0  0  0  0  0  0  0  0  0  0  0  0
  -29.7247  -20.1908   20.2298 N   0  0  0  0  0  0  0  0  0  0  0  0
  -26.4454  -12.5383   21.0921 N   0  0  0  0  0  0  0  0  0  0  0  0
  -26.3522  -13.7545   20.5278 N   0  0  0  0  0  0  0  0  0  0  0  0
  -22.3136  -25.9790   22.1259 N   0  0  0  0  0  0  0  0  0  0  0  0
  -29.4931  -15.9252   20.4511 N   0  0  0  0  0  0  0  0  0  0  0  0
  -24.8148  -15.4742   19.9895 N   0  0  0  0  0  0  0  0  0  0  0  0
  -22.2267  -12.3429   21.9625 N   0  0  0  0  0  0  0  0  0  0  0  0
  -28.5735  -23.6823   20.6387 N   0  0  0  0  0  0  0  0  0  0  0  0
  -26.4360  -19.4573   21.7638 N   0  0  0  0  0  0  0  0  0  0  0  0
  -28.7062  -18.1253   20.7710 N   0  0  0  0  0  0  0  0  0  0  0  0
  -23.5422  -26.7661   25.4676 N   0  0  0  0  0  0  0  0  0  0  0  0
  -19.8662  -24.9733   20.0147 N   0  0  0  0  0  0  0  0  0  0  0  0
  -19.7467  -26.6840   16.8325 N   0  3  0  0  0  0  0  0  0  0  0  0
  -22.2163  -14.4053   20.9600 O   0  0  0  0  0  0  0  0  0  0  0  0
  -23.3652  -24.8461   24.1620 O   0  0  0  0  0  0  0  0  0  0  0  0
  -20.0577  -25.9198   22.7121 O   0  0  0  0  0  0  0  0  0  0  0  0
  -21.3937  -24.9136   18.2710 O   0  0  0  0  0  0  0  0  0  0  0  0
  -30.6395  -24.1795   19.6402 O   0  0  0  0  0  0  0  0  0  0  0  0
  -30.7890  -17.7349   19.8270 O   0  0  0  0  0  0  0  0  0  0  0  0
  -23.9476   -7.4470   23.9884 O   0  0  0  0  0  0  0  0  0  0  0  0
  -27.9421  -26.2067   19.6117 O   0  0  0  0  0  0  0  0  0  1  0  0
  -19.4907   -4.7054   22.2496 F   0  0  0  0  0  0  0  0  0  0  0  0
  -24.1636   -4.8807   22.9835 F   0  0  0  0  0  0  0  0  0  0  0  0
  -26.4241  -22.2242   21.6740 F   0  0  0  0  0  0  0  0  0  0  0  0
  1  2  1  0  0  0  0
  1  5  2  0  0  0  0
  2  6  2  0  0  0  0
  3  8  2  0  0  0  0
  3 16  1  0  0  0  0
  4  9  1  0  0  0  0
  4 16  2  0  0  0  0
  5 18  1  0  0  0  0
  6 20  1  0  0  0  0
  7 10  2  0  0  0  0
  7 19  1  0  0  0  0
  8 24  1  0  0  0  0
  9 24  2  0  0  0  0
 10 25  1  0  0  0  0
 11 12  2  0  0  0  0
 11 26  1  0  0  0  0
 12 27  1  0  0  0  0
 13 21  1  0  0  0  0
 13 25  2  0  0  0  0
 14 27  2  0  0  0  0
 14 28  1  0  0  0  0
 15 22  1  0  0  0  0
 15 64  2  0  0  0  0
 16 30  1  0  0  0  0
 17 30  1  0  0  0  0
 17 32  2  0  0  0  0
 17 33  1  0  0  0  0
 18 20  2  0  0  0  0
 18 39  1  0  0  0  0
 19 21  2  0  0  0  0
 19 40  1  0  0  0  0
 20 48  1  0  0  0  0
 21 41  1  0  0  0  0
 22 29  2  0  0  0  0
 22 71  1  0  0  0  0
 23 29  1  0  0  0  0
 23 31  2  0  0  0  0
 23 72  1  0  0  0  0
 24 83  1  0  0  0  0
 25 84  1  0  0  0  0
 26 28  2  0  0  0  0
 26 83  1  0  0  0  0
 27 85  1  0  0  0  0
 28 86  1  0  0  0  0
 29 87  1  0  0  0  0
 30 65  2  0  0  0  0
 31 64  1  0  0  0  0
 31 73  1  0  0  0  0
 32 66  1  0  0  0  0
 32 69  1  0  0  0  0
 33 70  1  0  0  0  0
 33 77  2  0  0  0  0
 34 49  1  0  0  0  0
 34 74  1  0  0  0  0
 34 78  2  0  0  0  0
 35 59  1  0  0  0  0
 35 67  1  0  0  0  0
 35 79  2  0  0  0  0
 36 60  1  0  0  0  0
 36 75  1  0  0  0  0
 36 80  2  0  0  0  0
 37 61  1  0  0  0  0
 37 71  1  0  0  0  0
 37 81  2  0  0  0  0
 38 68  1  0  0  0  0
 38 73  1  0  0  0  0
 38 82  2  0  0  0  0
 39 42  1  0  0  0  0
 40 49  1  0  0  0  0
 41 67  1  0  0  0  0
 42 44  1  0  0  0  0
 43 45  1  0  0  0  0
 43 46  1  0  0  0  0
 44 48  1  0  0  0  0
 45 50  1  0  0  0  0
 46 68  1  0  0  0  0
 47 50  1  0  0  0  0
 47 68  1  0  0  0  0
 48 74  1  0  0  0  0
 49 67  1  0  0  0  0
 50 66  1  0  0  0  0
 51 60  1  0  0  0  0
 52 61  1  0  0  0  0
 53 62  1  0  0  0  0
 54 62  1  0  0  0  0
 55 63  1  0  0  0  0
 56 63  1  0  0  0  0
 57 63  1  0  0  0  0
 58 76  1  0  0  0  0
 59 63  1  0  0  0  0
 59 75  1  0  0  0  0
 60 76  1  0  0  0  0
 61 84  1  0  0  0  0
 62 72  1  0  0  0  0
 65 66  1  0  0  0  0
M  CHG  1  76   1
M  ISO  4  38 100  61 101  73 100  84 101
M  END
> <Batch ID>
0188

> <Smiles>
CNC(C)C(=O)NC(C(=O)N1Cc2cc([101O:1][101CH:1](C)C(=O)Nc3cnc([100NH:0][100C:0](=O)N4CCCC(n5nc(-c6ccc(Oc7ccc(F)cc7F)cc6)c(C(N)=O)c5N)C4)c(NC(C)C)c3F)ccc2CC1C(=O)NC1CCCc2ccccc21)C(C)(C)C

> <Shape>
0.228

> <Color>
0.123

> <Negative vol penalty>
0.000

$$$$

  -OEChem-04052305153D

 89 97  0     1  0  0  0  0  0999 V2000
  -34.6968  -26.3897   20.8606 C   0  0  0  0  0  0  0  0  0  0  0  0
  -34.8393  -25.0093   20.9578 C   0  0  0  0  0  0  0  0  0  0  0  0
  -23.2181   -9.8133   19.9202 C   0  0  0  0  0  0  0  0  0  0  0  0
  -23.8400   -9.8972   22.2532 C   0  0  0  0  0  0  0  0  0  0  0  0
  -33.4492  -26.9422   20.5740 C   0  0  0  0  0  0  0  0  0  0  0  0
  -33.7338  -24.1805   20.7696 C   0  0  0  0  0  0  0  0  0  0  0  0
  -34.7706  -20.1999   17.8158 C   0  0  0  0  0  0  0  0  0  0  0  0
  -22.5188   -8.6284   20.1491 C   0  0  0  0  0  0  0  0  0  0  0  0
  -23.1406   -8.7122   22.4822 C   0  0  0  0  0  0  0  0  0  0  0  0
  -35.4593  -19.1369   18.3984 C   0  0  0  0  0  0  0  0  0  0  0  0
  -19.5331   -7.7080   21.4419 C   0  0  0  0  0  0  0  0  0  0  0  0
  -18.2611   -7.5876   20.8825 C   0  0  0  0  0  0  0  0  0  0  0  0
  -33.3815  -17.9381   18.6530 C   0  0  0  0  0  0  0  0  0  0  0  0
  -18.9934   -5.6535   19.6335 C   0  0  0  0  0  0  0  0  0  0  0  0
  -23.8788  -10.4477   20.9722 C   0  0  0  0  0  0  0  0  0  0  0  0
  -24.1016  -12.9846   20.8226 C   0  0  0  0  0  0  0  0  0  0  0  0
  -32.3299  -26.1193   20.3727 C   0  0  0  0  0  0  0  0  0  0  0  0
  -33.3784  -20.1444   17.6570 C   0  0  0  0  0  0  0  0  0  0  0  0
  -32.4697  -24.7225   20.4814 C   0  0  0  0  0  0  0  0  0  0  0  0
  -32.6778  -19.0006   18.0657 C   0  0  0  0  0  0  0  0  0  0  0  0
  -22.4800   -8.0778   21.4301 C   0  0  0  0  0  0  0  0  0  0  0  0
  -34.7644  -18.0070   18.8197 C   0  0  0  0  0  0  0  0  0  0  0  0
  -20.5354   -6.8012   21.0971 C   0  0  0  0  0  0  0  0  0  0  0  0
  -17.9912   -6.5604   19.9783 C   0  0  0  0  0  0  0  0  0  0  0  0
  -20.2655   -5.7740   20.1929 C   0  0  0  0  0  0  0  0  0  0  0  0
  -24.6018  -11.6715   20.7363 C   0  0  0  0  0  0  0  0  0  0  0  0
  -32.3704  -17.3106   23.8017 C   0  0  0  0  0  0  0  0  0  0  0  0
  -25.1748  -13.7822   20.5088 C   0  0  0  0  0  0  0  0  0  0  0  0
  -31.2177  -17.9155   24.2572 C   0  0  0  0  0  0  0  0  0  0  0  0
  -30.9047  -16.0424   22.7754 C   0  0  0  0  0  0  0  0  0  0  0  0
  -22.7846  -13.4424   21.1567 C   0  0  0  0  0  0  0  0  0  0  0  0
  -30.9263  -21.8448   18.7524 C   0  0  0  0  0  0  0  0  0  0  0  0
  -29.2219  -19.9594   16.7368 C   0  0  0  0  0  0  0  0  0  0  0  0
  -28.9895  -17.0178   15.0222 C   0  0  0  0  0  0  0  0  0  0  0  0
  -30.9003  -14.0634   21.2166 C   0  0  0  0  0  0  0  0  0  0  0  0
  -30.9919  -26.7646   20.1119 C   0  0  0  0  0  0  0  0  0  0  0  0
  -32.6536  -21.2883   17.0023 C   0  0  0  0  0  0  0  0  0  0  0  0
  -31.1855  -18.8831   17.8993 C   0  0  0  0  0  0  0  0  0  0  0  0
  -29.9481  -25.7994   19.5561 C   0  0  0  0  0  0  0  0  0  0  0  0
  -29.4493  -13.0896   18.1144 C   0  0  0  0  0  0  0  0  0  0  0  0
  -29.9438  -24.4998   20.3548 C   0  0  0  0  0  0  0  0  0  0  0  0
  -28.0021  -12.7527   18.4810 C   0  0  0  0  0  0  0  0  0  0  0  0
  -30.4247  -12.6719   19.2134 C   0  0  0  0  0  0  0  0  0  0  0  0
  -28.6564  -12.8415   20.9204 C   0  0  0  0  0  0  0  0  0  0  0  0
  -31.2994  -23.7892   20.2593 C   0  0  1  0  0  0  0  0  0  0  0  0
  -31.1712  -21.3388   17.3589 C   0  0  1  0  0  0  0  0  0  0  0  0
  -27.6306  -13.3024   19.8721 C   0  0  2  0  0  0  0  0  0  0  0  0
  -27.4620  -15.7460   13.4902 C   0  0  0  0  0  0  0  0  0  0  0  0
  -35.7411  -16.9028   26.0616 C   0  0  0  0  0  0  0  0  0  0  0  0
  -27.4342  -19.2558   19.1073 C   0  0  0  0  0  0  0  0  0  0  0  0
  -26.5623  -17.3169   17.7849 C   0  0  0  0  0  0  0  0  0  0  0  0
  -26.2136  -19.6450   16.9595 C   0  0  0  0  0  0  0  0  0  0  0  0
  -39.1501  -17.0433   20.1980 C   0  0  0  0  0  0  0  0  0  0  0  0
  -38.0241  -17.0300   17.9743 C   0  0  0  0  0  0  0  0  0  0  0  0
  -37.7638  -15.0815   19.5294 C   0  0  0  0  0  0  0  0  0  0  0  0
  -31.0024  -16.9852   12.8528 C   0  0  0  0  0  0  0  0  0  0  0  0
  -35.1491  -17.5513   22.2350 C   0  0  0  0  0  0  0  0  0  0  0  0
  -36.3921  -16.9072   21.5894 C   0  0  0  0  0  0  0  0  0  0  0  0
  -28.5247  -18.6255   16.8535 C   0  0  1  0  0  0  0  0  0  0  0  0
  -28.6272  -16.7193   13.5785 C   0  0  2  0  0  0  0  0  0  0  0  0
  -34.8526  -17.0912   23.6746 C   0  0  1  0  0  0  0  0  0  0  0  0
  -36.6250  -17.2909   20.1165 C   0  0  1  0  0  0  0  0  0  1  0  0
  -36.0279  -17.3718   24.6371 C   0  0  1  0  0  0  0  0  0  0  0  0
  -27.2116  -18.7135   17.6814 C   0  0  0  0  0  0  0  0  0  0  0  0
  -37.8677  -16.6162   19.4499 C   0  0  0  0  0  0  0  0  0  0  0  0
  -25.8923  -11.6328   20.3942 N   0  0  0  0  0  0  0  0  0  0  0  0
  -32.1929  -16.2361   22.9522 N   0  0  0  0  0  0  0  0  0  0  0  0
  -26.2121  -12.9315   20.2628 N   0  0  0  0  0  0  0  0  0  0  0  0
  -30.5210  -20.0305   17.2593 N   0  0  0  0  0  0  0  0  0  0  0  0
  -30.0116  -13.2328   20.5017 N   0  0  0  0  0  0  0  0  0  0  0  0
  -25.3230  -15.1212   20.4219 N   0  0  0  0  0  0  0  0  0  0  0  0
  -21.8008  -12.4890   21.4524 N   0  0  0  0  0  0  0  0  0  0  0  0
  -33.6405  -17.7271   24.1536 N   0  0  0  0  0  0  0  0  0  0  0  0
  -30.2785  -15.0496   21.9817 N   0  0  0  0  0  0  0  0  0  0  0  0
  -31.4262  -23.1115   18.9869 N   0  0  0  0  0  0  0  0  0  0  0  0
  -28.3401  -18.1406   15.4900 N   0  0  0  0  0  0  0  0  0  0  0  0
  -29.7921  -16.1239   12.8647 N   0  3  0  0  0  0  0  0  0  0  0  0
  -22.4847  -14.6603   21.1760 O   0  0  0  0  0  0  0  0  0  0  0  0
  -30.3269  -21.1388   19.5549 O   0  0  0  0  0  0  0  0  0  0  0  0
  -28.6381  -20.9015   16.1954 O   0  0  0  0  0  0  0  0  0  0  0  0
  -29.7676  -16.3222   15.6712 O   0  0  0  0  0  0  0  0  0  0  0  0
  -32.1237  -13.9284   21.1332 O   0  0  0  0  0  0  0  0  0  0  0  0
  -21.7976   -6.9217   21.6539 O   0  0  0  0  0  0  0  0  0  0  0  0
  -35.4372  -16.9635   19.3920 O   0  0  0  0  0  0  0  0  0  1  0  0
  -16.7691   -6.4439   19.4424 F   0  0  0  0  0  0  0  0  0  0  0  0
  -21.2240   -4.8991   19.8587 F   0  0  0  0  0  0  0  0  0  0  0  0
  -31.1653  -18.9642   25.0831 F   0  0  0  0  0  0  0  0  0  0  0  0
  -29.8501  -17.1159   23.6002 S   0  0  0  0  0  0  0  0  0  0  0  0
  -36.4807  -19.1062   24.6785 Cl  0  0  0  0  0  0  0  0  0  0  0  0
  1  2  1  0  0  0  0
  1  5  2  0  0  0  0
  2  6  2  0  0  0  0
  3  8  2  0  0  0  0
  3 15  1  0  0  0  0
  4  9  1  0  0  0  0
  4 15  2  0  0  0  0
  5 17  1  0  0  0  0
  6 19  1  0  0  0  0
  7 10  2  0  0  0  0
  7 18  1  0  0  0  0
  8 21  1  0  0  0  0
  9 21  2  0  0  0  0
 10 22  1  0  0  0  0
 11 12  2  0  0  0  0
 11 23  1  0  0  0  0
 12 24  1  0  0  0  0
 13 20  1  0  0  0  0
 13 22  2  0  0  0  0
 14 24  2  0  0  0  0
 14 25  1  0  0  0  0
 15 26  1  0  0  0  0
 16 26  1  0  0  0  0
 16 28  2  0  0  0  0
 16 31  1  0  0  0  0
 17 19  2  0  0  0  0
 17 36  1  0  0  0  0
 18 20  2  0  0  0  0
 18 37  1  0  0  0  0
 19 45  1  0  0  0  0
 20 38  1  0  0  0  0
 21 83  1  0  0  0  0
 22 84  1  0  0  0  0
 23 25  2  0  0  0  0
 23 83  1  0  0  0  0
 24 85  1  0  0  0  0
 25 86  1  0  0  0  0
 26 66  2  0  0  0  0
 27 29  2  0  0  0  0
 27 67  1  0  0  0  0
 27 73  1  0  0  0  0
 28 68  1  0  0  0  0
 28 71  1  0  0  0  0
 29 87  1  0  0  0  0
 29 88  1  0  0  0  0
 30 67  2  0  0  0  0
 30 74  1  0  0  0  0
 30 88  1  0  0  0  0
 31 72  1  0  0  0  0
 31 78  2  0  0  0  0
 32 46  1  0  0  0  0
 32 75  1  0  0  0  0
 32 79  2  0  0  0  0
 33 59  1  0  0  0  0
 33 69  1  0  0  0  0
 33 80  2  0  0  0  0
 34 60  1  0  0  0  0
 34 76  1  0  0  0  0
 34 81  2  0  0  0  0
 35 70  1  0  0  0  0
 35 74  1  0  0  0  0
 35 82  2  0  0  0  0
 36 39  1  0  0  0  0
 37 46  1  0  0  0  0
 38 69  1  0  0  0  0
 39 41  1  0  0  0  0
 40 42  1  0  0  0  0
 40 43  1  0  0  0  0
 41 45  1  0  0  0  0
 42 47  1  0  0  0  0
 43 70  1  0  0  0  0
 44 47  1  0  0  0  0
 44 70  1  0  0  0  0
 45 75  1  0  0  0  0
 46 69  1  0  0  0  0
 47 68  1  0  0  0  0
 48 60  1  0  0  0  0
 49 63  1  0  0  0  0
 50 64  1  0  0  0  0
 51 64  1  0  0  0  0
 52 64  1  0  0  0  0
 53 65  1  0  0  0  0
 54 65  1  0  0  0  0
 55 65  1  0  0  0  0
 56 77  1  0  0  0  0
 57 58  1  0  0  0  0
 57 61  1  0  0  0  0
 58 62  1  0  0  0  0
 59 64  1  0  0  0  0
 59 76  1  0  0  0  0
 60 77  1  0  0  0  0
 61 63  1  0  0  0  0
 61 73  1  0  0  0  0
 62 65  1  0  0  0  0
 62 84  1  0  0  0  0
 63 89  1  0  0  0  0
 66 68  1  0  0  0  0
M  CHG  1  77   1
M  ISO  4  35 100  62 101  74 100  84 101
M  END
> <Batch ID>
0188

> <Smiles>
CNC(C)C(=O)NC(C(=O)N1Cc2cc([101O:1][101CH:1](CCC(Nc3nc([100NH:0][100C:0](=O)N4CCCC(n5nc(-c6ccc(Oc7ccc(F)cc7F)cc6)c(C(N)=O)c5N)C4)sc3F)C(C)Cl)C(C)(C)C)ccc2CC1C(=O)NC1CCCc2ccccc21)C(C)(C)C

> <Shape>
0.185

> <Color>
0.176

> <Negative vol penalty>
0.000

$$$$

  -OEChem-04052305153D

 86 94  0     1  0  0  0  0  0999 V2000
  -31.4196  -25.0386   18.3088 C   0  0  0  0  0  0  0  0  0  0  0  0
  -30.0488  -24.8400   18.4380 C   0  0  0  0  0  0  0  0  0  0  0  0
  -26.1101  -12.1169   19.9912 C   0  0  0  0  0  0  0  0  0  0  0  0
  -24.2511  -13.6565   20.0938 C   0  0  0  0  0  0  0  0  0  0  0  0
  -32.1063  -25.7923   19.2598 C   0  0  0  0  0  0  0  0  0  0  0  0
  -29.3640  -25.3940   19.5189 C   0  0  0  0  0  0  0  0  0  0  0  0
  -23.6382  -27.5670   19.5269 C   0  0  0  0  0  0  0  0  0  0  0  0
  -25.4413  -11.2516   20.8569 C   0  0  0  0  0  0  0  0  0  0  0  0
  -23.5822  -12.7912   20.9594 C   0  0  0  0  0  0  0  0  0  0  0  0
  -22.4246  -27.0111   19.9291 C   0  0  0  0  0  0  0  0  0  0  0  0
  -24.0697   -8.4706   22.7543 C   0  0  0  0  0  0  0  0  0  0  0  0
  -24.0635   -7.1124   22.4368 C   0  0  0  0  0  0  0  0  0  0  0  0
  -22.6453  -28.0954   22.0727 C   0  0  0  0  0  0  0  0  0  0  0  0
  -22.9517   -7.6054   20.3493 C   0  0  0  0  0  0  0  0  0  0  0  0
  -25.5151  -13.3194   19.6097 C   0  0  0  0  0  0  0  0  0  0  0  0
  -26.1403  -14.2289   17.3097 C   0  0  0  0  0  0  0  0  0  0  0  0
  -31.4279  -26.3639   20.3477 C   0  0  0  0  0  0  0  0  0  0  0  0
  -24.3711  -28.3838   20.3999 C   0  0  0  0  0  0  0  0  0  0  0  0
  -30.0424  -26.1549   20.4861 C   0  0  0  0  0  0  0  0  0  0  0  0
  -23.8667  -28.6625   21.6782 C   0  0  0  0  0  0  0  0  0  0  0  0
  -24.1773  -11.5887   21.3410 C   0  0  0  0  0  0  0  0  0  0  0  0
  -21.9293  -27.2729   21.2032 C   0  0  0  0  0  0  0  0  0  0  0  0
  -23.5167   -9.3962   21.8693 C   0  0  0  0  0  0  0  0  0  0  0  0
  -23.5046   -6.6798   21.2343 C   0  0  0  0  0  0  0  0  0  0  0  0
  -22.9577   -8.9636   20.6668 C   0  0  0  0  0  0  0  0  0  0  0  0
  -26.2058  -14.2140   18.7159 C   0  0  0  0  0  0  0  0  0  0  0  0
  -24.7124  -22.2732   19.2304 C   0  0  0  0  0  0  0  0  0  0  0  0
  -25.6931  -22.3884   20.1932 C   0  0  0  0  0  0  0  0  0  0  0  0
  -26.9708  -15.2578   16.9382 C   0  0  0  0  0  0  0  0  0  0  0  0
  -23.5019  -23.1605   20.8296 C   0  0  0  0  0  0  0  0  0  0  0  0
  -25.3952  -13.3879   16.4190 C   0  0  0  0  0  0  0  0  0  0  0  0
  -27.2471  -28.2183   21.7435 C   0  0  0  0  0  0  0  0  0  0  0  0
  -26.5065  -31.2024   22.7776 C   0  0  0  0  0  0  0  0  0  0  0  0
  -28.8114  -20.1806   19.8520 C   0  0  0  0  0  0  0  0  0  0  0  0
  -24.0894  -33.4889   23.5367 C   0  0  0  0  0  0  0  0  0  0  0  0
  -21.1191  -23.8822   21.2031 C   0  0  0  0  0  0  0  0  0  0  0  0
  -32.2210  -27.1311   21.3758 C   0  0  0  0  0  0  0  0  0  0  0  0
  -25.6655  -28.9974   19.9414 C   0  0  0  0  0  0  0  0  0  0  0  0
  -24.6051  -29.5493   22.6461 C   0  0  0  0  0  0  0  0  0  0  0  0
  -31.3574  -27.9974   22.2891 C   0  0  0  0  0  0  0  0  0  0  0  0
  -30.8566  -17.6439   18.3613 C   0  0  0  0  0  0  0  0  0  0  0  0
  -30.1548  -27.2066   22.7942 C   0  0  0  0  0  0  0  0  0  0  0  0
  -29.8968  -16.4685   18.1817 C   0  0  0  0  0  0  0  0  0  0  0  0
  -30.5444  -18.4308   19.6303 C   0  0  0  0  0  0  0  0  0  0  0  0
  -28.1708  -17.7392   19.5350 C   0  0  0  0  0  0  0  0  0  0  0  0
  -29.2602  -26.7604   21.6314 C   0  0  1  0  0  0  0  0  0  0  0  0
  -26.5789  -29.3980   21.0958 C   0  0  1  0  0  0  0  0  0  0  0  0
  -28.4320  -16.9357   18.2486 C   0  0  2  0  0  0  0  0  0  0  0  0
  -24.8896  -21.7271   17.8694 C   0  0  0  0  0  0  0  0  0  0  0  0
  -23.7904  -35.8283   24.3941 C   0  0  0  0  0  0  0  0  0  0  0  0
  -19.9008  -26.4944   23.8281 C   0  0  0  0  0  0  0  0  0  0  0  0
  -27.1420  -30.2450   25.6042 C   0  0  0  0  0  0  0  0  0  0  0  0
  -25.9416  -32.2594   26.4814 C   0  0  0  0  0  0  0  0  0  0  0  0
  -27.9775  -32.5404   25.0677 C   0  0  0  0  0  0  0  0  0  0  0  0
  -22.7399  -34.3524   21.0483 C   0  0  0  0  0  0  0  0  0  0  0  0
  -27.1218  -22.0190   20.1448 C   0  0  0  0  0  0  0  0  0  0  0  0
  -25.8205  -31.7722   23.9957 C   0  0  1  0  0  0  0  0  0  0  0  0
  -27.3428  -20.5224   19.8743 C   0  0  2  0  0  0  0  0  0  0  0  0
  -23.9321  -34.9510   23.1599 C   0  0  2  0  0  0  0  0  0  0  0  0
  -20.2780  -24.4819   22.3306 C   0  0  1  0  0  0  0  0  0  0  0  0
  -20.7715  -25.8758   22.7405 C   0  0  1  0  0  0  0  0  0  1  0  0
  -26.7072  -31.6859   25.2699 C   0  0  0  0  0  0  0  0  0  0  0  0
  -27.0142  -15.1583   19.2045 N   0  0  0  0  0  0  0  0  0  0  0  0
  -23.4551  -22.7150   19.5937 N   0  0  0  0  0  0  0  0  0  0  0  0
  -27.4644  -15.7762   18.0992 N   0  0  0  0  0  0  0  0  0  0  0  0
  -25.8693  -30.1206   22.1534 N   0  0  0  0  0  0  0  0  0  0  0  0
  -29.1384  -18.8372   19.6666 N   0  0  0  0  0  0  0  0  0  0  0  0
  -27.3199  -15.7605   15.7350 N   0  0  0  0  0  0  0  0  0  0  0  0
  -24.5914  -12.3795   16.9680 N   0  0  0  0  0  0  0  0  0  0  0  0
  -22.4418  -23.7028   21.5942 N   0  0  0  0  0  0  0  0  0  0  0  0
  -28.4506  -27.8651   21.1637 N   0  0  0  0  0  0  0  0  0  0  0  0
  -25.4162  -33.1280   23.6396 N   0  0  0  0  0  0  0  0  0  0  0  0
  -22.7237  -35.1393   22.3082 N   0  3  0  0  0  0  0  0  0  0  0  0
  -25.4537  -13.5160   15.1726 O   0  0  0  0  0  0  0  0  0  0  0  0
  -26.7111  -27.6701   22.6995 O   0  0  0  0  0  0  0  0  0  0  0  0
  -27.5650  -31.7033   22.3900 O   0  0  0  0  0  0  0  0  0  0  0  0
  -29.6416  -21.0824   19.9923 O   0  0  0  0  0  0  0  0  0  0  0  0
  -23.1312  -32.7426   23.7247 O   0  0  0  0  0  0  0  0  0  0  0  0
  -20.6204  -23.6028   20.1166 O   0  0  0  0  0  0  0  0  0  0  0  0
  -18.9226  -24.5341   21.9104 O   0  0  0  0  0  0  0  0  0  0  0  0
  -23.5242  -10.7444   22.1855 O   0  0  0  0  0  0  0  0  0  0  0  0
  -20.7453  -26.7311   21.5986 O   0  0  0  0  0  0  0  0  0  1  0  0
  -23.5002   -5.3756   20.9289 F   0  0  0  0  0  0  0  0  0  0  0  0
  -22.4261   -9.8482   19.8120 F   0  0  0  0  0  0  0  0  0  0  0  0
  -26.7192  -19.8099   20.8525 F   0  0  0  0  0  0  0  0  0  0  0  0
  -25.0259  -23.0784   21.6144 S   0  0  0  0  0  0  0  0  0  0  0  0
  1  2  1  0  0  0  0
  1  5  2  0  0  0  0
  2  6  2  0  0  0  0
  3  8  2  0  0  0  0
  3 15  1  0  0  0  0
  4  9  1  0  0  0  0
  4 15  2  0  0  0  0
  5 17  1  0  0  0  0
  6 19  1  0  0  0  0
  7 10  2  0  0  0  0
  7 18  1  0  0  0  0
  8 21  1  0  0  0  0
  9 21  2  0  0  0  0
 10 22  1  0  0  0  0
 11 12  2  0  0  0  0
 11 23  1  0  0  0  0
 12 24  1  0  0  0  0
 13 20  1  0  0  0  0
 13 22  2  0  0  0  0
 14 24  2  0  0  0  0
 14 25  1  0  0  0  0
 15 26  1  0  0  0  0
 16 26  1  0  0  0  0
 16 29  2  0  0  0  0
 16 31  1  0  0  0  0
 17 19  2  0  0  0  0
 17 37  1  0  0  0  0
 18 20  2  0  0  0  0
 18 38  1  0  0  0  0
 19 46  1  0  0  0  0
 20 39  1  0  0  0  0
 21 81  1  0  0  0  0
 22 82  1  0  0  0  0
 23 25  2  0  0  0  0
 23 81  1  0  0  0  0
 24 83  1  0  0  0  0
 25 84  1  0  0  0  0
 26 63  2  0  0  0  0
 27 28  2  0  0  0  0
 27 49  1  0  0  0  0
 27 64  1  0  0  0  0
 28 56  1  0  0  0  0
 28 86  1  0  0  0  0
 29 65  1  0  0  0  0
 29 68  1  0  0  0  0
 30 64  2  0  0  0  0
 30 70  1  0  0  0  0
 30 86  1  0  0  0  0
 31 69  1  0  0  0  0
 31 74  2  0  0  0  0
 32 47  1  0  0  0  0
 32 71  1  0  0  0  0
 32 75  2  0  0  0  0
 33 57  1  0  0  0  0
 33 66  1  0  0  0  0
 33 76  2  0  0  0  0
 34 58  1  0  0  0  0
 34 67  1  0  0  0  0
 34 77  2  0  0  0  0
 35 59  1  0  0  0  0
 35 72  1  0  0  0  0
 35 78  2  0  0  0  0
 36 60  1  0  0  0  0
 36 70  1  0  0  0  0
 36 79  2  0  0  0  0
 37 40  1  0  0  0  0
 38 47  1  0  0  0  0
 39 66  1  0  0  0  0
 40 42  1  0  0  0  0
 41 43  1  0  0  0  0
 41 44  1  0  0  0  0
 42 46  1  0  0  0  0
 43 48  1  0  0  0  0
 44 67  1  0  0  0  0
 45 48  1  0  0  0  0
 45 67  1  0  0  0  0
 46 71  1  0  0  0  0
 47 66  1  0  0  0  0
 48 65  1  0  0  0  0
 50 59  1  0  0  0  0
 51 61  1  0  0  0  0
 52 62  1  0  0  0  0
 53 62  1  0  0  0  0
 54 62  1  0  0  0  0
 55 73  1  0  0  0  0
 56 58  1  0  0  0  0
 57 62  1  0  0  0  0
 57 72  1  0  0  0  0
 58 85  1  0  0  0  0
 59 73  1  0  0  0  0
 60 61  1  0  0  0  0
 60 80  1  0  0  0  0
 61 82  1  0  0  0  0
 63 65  1  0  0  0  0
M  CHG  1  73   1
M  ISO  4  34 100  58 100  61 101  82 101
M  END
> <Batch ID>
0188

> <Smiles>
CNC(C)C(=O)NC(C(=O)N1Cc2cc([101O:1][101CH:1](C)C(O)C(=O)Nc3nc(C)c(C[100CH:0](F)[100C:0](=O)N4CCCC(n5nc(-c6ccc(Oc7ccc(F)cc7F)cc6)c(C(N)=O)c5N)C4)s3)ccc2CC1C(=O)NC1CCCc2ccccc21)C(C)(C)C

> <Shape>
0.300

> <Color>
0.069

> <Negative vol penalty>
0.000

$$$$

  -OEChem-04052305153D

 83 91  0     1  0  0  0  0  0999 V2000
  -17.2106  -26.9624   21.2226 C   0  0  0  0  0  0  0  0  0  0  0  0
  -18.4962  -26.5392   20.9007 C   0  0  0  0  0  0  0  0  0  0  0  0
  -24.2871   -9.0543   21.9395 C   0  0  0  0  0  0  0  0  0  0  0  0
  -24.2716   -8.2715   19.6539 C   0  0  0  0  0  0  0  0  0  0  0  0
  -16.9285  -28.3249   21.3127 C   0  0  0  0  0  0  0  0  0  0  0  0
  -19.5002  -27.4784   20.6676 C   0  0  0  0  0  0  0  0  0  0  0  0
  -25.4406  -26.9381   22.0555 C   0  0  0  0  0  0  0  0  0  0  0  0
  -23.1900   -8.2417   22.2253 C   0  0  0  0  0  0  0  0  0  0  0  0
  -23.1745   -7.4588   19.9397 C   0  0  0  0  0  0  0  0  0  0  0  0
  -26.5528  -26.5803   21.2947 C   0  0  0  0  0  0  0  0  0  0  0  0
  -22.6126   -4.9741   22.8748 C   0  0  0  0  0  0  0  0  0  0  0  0
  -22.6486   -4.2268   24.0521 C   0  0  0  0  0  0  0  0  0  0  0  0
  -27.0393  -28.9130   20.9196 C   0  0  0  0  0  0  0  0  0  0  0  0
  -20.6557   -5.3516   24.8270 C   0  0  0  0  0  0  0  0  0  0  0  0
  -24.8278   -9.0692   20.6537 C   0  0  0  0  0  0  0  0  0  0  0  0
  -27.3224   -9.5682   20.4650 C   0  0  0  0  0  0  0  0  0  0  0  0
  -17.9319  -29.2810   21.0900 C   0  0  0  0  0  0  0  0  0  0  0  0
  -25.1126  -28.2883   22.2452 C   0  0  0  0  0  0  0  0  0  0  0  0
  -19.2310  -28.8549   20.7534 C   0  0  0  0  0  0  0  0  0  0  0  0
  -25.9239  -29.2855   21.6853 C   0  0  0  0  0  0  0  0  0  0  0  0
  -22.6337   -7.4439   21.2254 C   0  0  0  0  0  0  0  0  0  0  0  0
  -27.3507  -27.5677   20.7243 C   0  0  0  0  0  0  0  0  0  0  0  0
  -21.5982   -5.9102   22.6737 C   0  0  0  0  0  0  0  0  0  0  0  0
  -21.6702   -4.4156   25.0281 C   0  0  0  0  0  0  0  0  0  0  0  0
  -20.6197   -6.0989   23.6497 C   0  0  0  0  0  0  0  0  0  0  0  0
  -25.9607   -9.9089   20.3577 C   0  0  0  0  0  0  0  0  0  0  0  0
  -27.2926  -20.0926   20.0511 C   0  0  0  0  0  0  0  0  0  0  0  0
  -26.9522  -20.7585   18.8923 C   0  0  0  0  0  0  0  0  0  0  0  0
  -27.9919  -10.7011   20.0715 C   0  0  0  0  0  0  0  0  0  0  0  0
  -27.9181  -22.4168   19.9540 C   0  0  0  0  0  0  0  0  0  0  0  0
  -27.0755  -18.7508   20.4204 C   0  0  0  0  0  0  0  0  0  0  0  0
  -26.4706  -17.7704   19.6655 C   0  0  0  0  0  0  0  0  0  0  0  0
  -27.9281   -8.3376   20.8828 C   0  0  0  0  0  0  0  0  0  0  0  0
  -26.3253  -16.3985   20.1923 C   0  0  0  0  0  0  0  0  0  0  0  0
  -22.6222  -30.1177   21.5005 C   0  0  0  0  0  0  0  0  0  0  0  0
  -24.2217  -32.3325   23.2494 C   0  0  0  0  0  0  0  0  0  0  0  0
  -27.1992  -33.4431   24.4935 C   0  0  0  0  0  0  0  0  0  0  0  0
  -28.4401  -24.8489   19.5653 C   0  0  0  0  0  0  0  0  0  0  0  0
  -17.5680  -30.7433   21.1523 C   0  0  0  0  0  0  0  0  0  0  0  0
  -23.9249  -28.6582   23.0907 C   0  0  0  0  0  0  0  0  0  0  0  0
  -25.6265  -30.7496   21.8760 C   0  0  0  0  0  0  0  0  0  0  0  0
  -18.7778  -31.6681   21.2583 C   0  0  0  0  0  0  0  0  0  0  0  0
  -27.5512  -14.5434   17.2790 C   0  0  0  0  0  0  0  0  0  0  0  0
  -19.8477  -31.2654   20.2485 C   0  0  0  0  0  0  0  0  0  0  0  0
  -27.3566  -13.1030   17.7450 C   0  0  0  0  0  0  0  0  0  0  0  0
  -26.4631  -15.4707   17.8182 C   0  0  0  0  0  0  0  0  0  0  0  0
  -26.1239  -13.9794   19.7680 C   0  0  0  0  0  0  0  0  0  0  0  0
  -20.3529  -29.8428   20.5178 C   0  0  1  0  0  0  0  0  0  0  0  0
  -23.3897  -30.0550   22.7907 C   0  0  1  0  0  0  0  0  0  0  0  0
  -27.2340  -13.0378   19.2756 C   0  0  1  0  0  0  0  0  0  0  0  0
  -28.1953  -35.3011   25.8547 C   0  0  0  0  0  0  0  0  0  0  0  0
  -30.5756  -26.1205   19.9924 C   0  0  0  0  0  0  0  0  0  0  0  0
  -23.9931  -34.2073   20.8531 C   0  0  0  0  0  0  0  0  0  0  0  0
  -25.7767  -35.6299   21.8843 C   0  0  0  0  0  0  0  0  0  0  0  0
  -23.6077  -35.2972   23.0708 C   0  0  0  0  0  0  0  0  0  0  0  0
  -28.1565  -31.5645   26.5704 C   0  0  0  0  0  0  0  0  0  0  0  0
  -25.2593  -33.3868   22.9482 C   0  0  1  0  0  0  0  0  0  0  0  0
  -27.6021  -33.9011   25.8836 C   0  0  2  0  0  0  0  0  0  0  0  0
  -29.0949  -26.0019   20.3218 C   0  0  1  0  0  0  0  0  0  1  0  0
  -24.6640  -34.6028   22.1837 C   0  0  0  0  0  0  0  0  0  0  0  0
  -25.7745  -11.1604   19.9298 N   0  0  0  0  0  0  0  0  0  0  0  0
  -27.3097  -22.0914   18.8350 N   0  0  0  0  0  0  0  0  0  0  0  0
  -27.0280  -11.6160   19.7648 N   0  0  0  0  0  0  0  0  0  0  0  0
  -26.3251  -15.3473   19.2772 N   0  0  0  0  0  0  0  0  0  0  0  0
  -24.4507  -31.0606   22.7057 N   0  0  0  0  0  0  0  0  0  0  0  0
  -29.3051  -10.9940   19.9615 N   0  0  0  0  0  0  0  0  0  0  0  0
  -27.0936   -7.2743   21.2535 N   0  0  0  0  0  0  0  0  0  0  0  0
  -28.4481  -23.6780   20.3162 N   0  0  0  0  0  0  0  0  0  0  0  0
  -21.2757  -29.8367   21.6327 N   0  0  0  0  0  0  0  0  0  0  0  0
  -25.8771  -33.7280   24.2250 N   0  0  0  0  0  0  0  0  0  0  0  0
  -28.6152  -32.9733   26.4613 N   0  3  0  0  0  0  0  0  0  0  0  0
  -29.1725   -8.1908   20.9419 O   0  0  0  0  0  0  0  0  0  0  0  0
  -26.2078  -16.2673   21.4120 O   0  0  0  0  0  0  0  0  0  0  0  0
  -23.2079  -30.4016   20.4622 O   0  0  0  0  0  0  0  0  0  0  0  0
  -23.2476  -32.6247   23.9476 O   0  0  0  0  0  0  0  0  0  0  0  0
  -27.9803  -32.8913   23.7215 O   0  0  0  0  0  0  0  0  0  0  0  0
  -27.9701  -25.0099   18.4426 O   0  0  0  0  0  0  0  0  0  0  0  0
  -21.5634   -6.6507   21.5040 O   0  0  0  0  0  0  0  0  0  0  0  0
  -28.4365  -27.2211   19.9807 O   0  0  0  0  0  0  0  0  0  1  0  0
  -21.7040   -3.6968   26.1579 F   0  0  0  0  0  0  0  0  0  0  0  0
  -19.6421   -6.9959   23.4616 F   0  0  0  0  0  0  0  0  0  0  0  0
  -26.3138  -20.1607   17.8796 F   0  0  0  0  0  0  0  0  0  0  0  0
  -28.0949  -21.1688   21.1185 S   0  0  0  0  0  0  0  0  0  0  0  0
  1  2  1  0  0  0  0
  1  5  2  0  0  0  0
  2  6  2  0  0  0  0
  3  8  2  0  0  0  0
  3 15  1  0  0  0  0
  4  9  1  0  0  0  0
  4 15  2  0  0  0  0
  5 17  1  0  0  0  0
  6 19  1  0  0  0  0
  7 10  2  0  0  0  0
  7 18  1  0  0  0  0
  8 21  1  0  0  0  0
  9 21  2  0  0  0  0
 10 22  1  0  0  0  0
 11 12  2  0  0  0  0
 11 23  1  0  0  0  0
 12 24  1  0  0  0  0
 13 20  1  0  0  0  0
 13 22  2  0  0  0  0
 14 24  2  0  0  0  0
 14 25  1  0  0  0  0
 15 26  1  0  0  0  0
 16 26  1  0  0  0  0
 16 29  2  0  0  0  0
 16 33  1  0  0  0  0
 17 19  2  0  0  0  0
 17 39  1  0  0  0  0
 18 20  2  0  0  0  0
 18 40  1  0  0  0  0
 19 48  1  0  0  0  0
 20 41  1  0  0  0  0
 21 78  1  0  0  0  0
 22 79  1  0  0  0  0
 23 25  2  0  0  0  0
 23 78  1  0  0  0  0
 24 80  1  0  0  0  0
 25 81  1  0  0  0  0
 26 61  2  0  0  0  0
 27 28  2  0  0  0  0
 27 31  1  0  0  0  0
 27 83  1  0  0  0  0
 28 62  1  0  0  0  0
 28 82  1  0  0  0  0
 29 63  1  0  0  0  0
 29 66  1  0  0  0  0
 30 62  2  0  0  0  0
 30 68  1  0  0  0  0
 30 83  1  0  0  0  0
 31 32  2  0  0  0  0
 32 34  1  0  0  0  0
 33 67  1  0  0  0  0
 33 72  2  0  0  0  0
 34 64  1  0  0  0  0
 34 73  2  0  0  0  0
 35 49  1  0  0  0  0
 35 69  1  0  0  0  0
 35 74  2  0  0  0  0
 36 57  1  0  0  0  0
 36 65  1  0  0  0  0
 36 75  2  0  0  0  0
 37 58  1  0  0  0  0
 37 70  1  0  0  0  0
 37 76  2  0  0  0  0
 38 59  1  0  0  0  0
 38 68  1  0  0  0  0
 38 77  2  0  0  0  0
 39 42  1  0  0  0  0
 40 49  1  0  0  0  0
 41 65  1  0  0  0  0
 42 44  1  0  0  0  0
 43 45  1  0  0  0  0
 43 46  1  0  0  0  0
 44 48  1  0  0  0  0
 45 50  1  0  0  0  0
 46 64  1  0  0  0  0
 47 50  1  0  0  0  0
 47 64  1  0  0  0  0
 48 69  1  0  0  0  0
 49 65  1  0  0  0  0
 50 63  1  0  0  0  0
 51 58  1  0  0  0  0
 52 59  1  0  0  0  0
 53 60  1  0  0  0  0
 54 60  1  0  0  0  0
 55 60  1  0  0  0  0
 56 71  1  0  0  0  0
 57 60  1  0  0  0  0
 57 70  1  0  0  0  0
 58 71  1  0  0  0  0
 59 79  1  0  0  0  0
 61 63  1  0  0  0  0
M  CHG  1  71   1
M  ISO  4  32 100  34 100  59 101  79 101
M  END
> <Batch ID>
0188

> <Smiles>
CNC(C)C(=O)NC(C(=O)N1Cc2cc([101O:1][101CH:1](C)C(=O)Nc3nc(F)c(C=[100CH:0][100C:0](=O)N4CCCC(n5nc(-c6ccc(Oc7ccc(F)cc7F)cc6)c(C(N)=O)c5N)C4)s3)ccc2CC1C(=O)NC1CCCc2ccccc21)C(C)(C)C

> <Shape>
0.293

> <Color>
0.116

> <Negative vol penalty>
0.000

$$$$

  -OEChem-04052305153D

 84 92  0     1  0  0  0  0  0999 V2000
  -28.7206  -36.2603   24.4283 C   0  0  0  0  0  0  0  0  0  0  0  0
  -29.0915  -35.1700   23.6478 C   0  0  0  0  0  0  0  0  0  0  0  0
  -24.1630   -9.6630   22.5003 C   0  0  0  0  0  0  0  0  0  0  0  0
  -23.6514  -11.8351   23.4263 C   0  0  0  0  0  0  0  0  0  0  0  0
  -27.7081  -36.1245   25.3772 C   0  0  0  0  0  0  0  0  0  0  0  0
  -28.4509  -33.9430   23.8165 C   0  0  0  0  0  0  0  0  0  0  0  0
  -27.1852  -29.8218   19.4669 C   0  0  0  0  0  0  0  0  0  0  0  0
  -23.6517   -9.0540   23.6463 C   0  0  0  0  0  0  0  0  0  0  0  0
  -23.1401  -11.2261   24.5723 C   0  0  0  0  0  0  0  0  0  0  0  0
  -27.8283  -28.6506   19.0688 C   0  0  0  0  0  0  0  0  0  0  0  0
  -20.6124   -8.2943   24.9183 C   0  0  0  0  0  0  0  0  0  0  0  0
  -19.7667   -7.1982   24.7476 C   0  0  0  0  0  0  0  0  0  0  0  0
  -26.3389  -27.3654   20.4649 C   0  0  0  0  0  0  0  0  0  0  0  0
  -21.3021   -5.8182   26.0027 C   0  0  0  0  0  0  0  0  0  0  0  0
  -24.1629  -11.0536   22.3903 C   0  0  0  0  0  0  0  0  0  0  0  0
  -23.9869  -12.0173   20.0349 C   0  0  0  0  0  0  0  0  0  0  0  0
  -27.0482  -34.8978   25.5510 C   0  0  0  0  0  0  0  0  0  0  0  0
  -26.1194  -29.7745   20.3769 C   0  0  0  0  0  0  0  0  0  0  0  0
  -27.4296  -33.7904   24.7696 C   0  0  0  0  0  0  0  0  0  0  0  0
  -25.6823  -28.5372   20.8709 C   0  0  0  0  0  0  0  0  0  0  0  0
  -23.1402   -9.8356   24.6823 C   0  0  0  0  0  0  0  0  0  0  0  0
  -27.4071  -27.4224   19.5700 C   0  0  0  0  0  0  0  0  0  0  0  0
  -21.8029   -8.1523   25.6312 C   0  0  0  0  0  0  0  0  0  0  0  0
  -20.1116   -5.9602   25.2898 C   0  0  0  0  0  0  0  0  0  0  0  0
  -22.1477   -6.9143   26.1735 C   0  0  0  0  0  0  0  0  0  0  0  0
  -24.6915  -11.6833   21.2070 C   0  0  0  0  0  0  0  0  0  0  0  0
  -30.2672  -19.7074   21.2742 C   0  0  0  0  0  0  0  0  0  0  0  0
  -29.0638  -19.9532   21.9015 C   0  0  0  0  0  0  0  0  0  0  0  0
  -24.9313  -12.5890   19.2177 C   0  0  0  0  0  0  0  0  0  0  0  0
  -29.4211  -17.6868   21.1678 C   0  0  0  0  0  0  0  0  0  0  0  0
  -28.0111  -22.1407   21.3955 C   0  0  0  0  0  0  0  0  0  0  0  0
  -22.6026  -11.8277   19.7135 C   0  0  0  0  0  0  0  0  0  0  0  0
  -25.6020  -30.9412   23.2881 C   0  0  0  0  0  0  0  0  0  0  0  0
  -27.9976  -24.1152   20.2477 C   0  0  0  0  0  0  0  0  0  0  0  0
  -22.6191  -29.7607   22.8071 C   0  0  0  0  0  0  0  0  0  0  0  0
  -20.6130  -27.5335   21.1756 C   0  0  0  0  0  0  0  0  0  0  0  0
  -30.0830  -15.4198   20.2909 C   0  0  0  0  0  0  0  0  0  0  0  0
  -25.9923  -34.7868   26.6222 C   0  0  0  0  0  0  0  0  0  0  0  0
  -25.4189  -31.0444   20.7757 C   0  0  0  0  0  0  0  0  0  0  0  0
  -24.5297  -28.4305   21.8346 C   0  0  0  0  0  0  0  0  0  0  0  0
  -25.1066  -33.5518   26.4788 C   0  0  0  0  0  0  0  0  0  0  0  0
  -29.6299  -12.5059   18.2956 C   0  0  0  0  0  0  0  0  0  0  0  0
  -25.9567  -32.3128   26.2164 C   0  0  0  0  0  0  0  0  0  0  0  0
  -28.2454  -11.9981   18.7047 C   0  0  0  0  0  0  0  0  0  0  0  0
  -30.3932  -13.0905   19.4828 C   0  0  0  0  0  0  0  0  0  0  0  0
  -28.2863  -13.6141   20.6473 C   0  0  0  0  0  0  0  0  0  0  0  0
  -26.7413  -32.4495   24.9060 C   0  0  1  0  0  0  0  0  0  0  0  0
  -24.6774  -30.9261   22.1037 C   0  0  1  0  0  0  0  0  0  0  0  0
  -27.4542  -13.0753   19.4722 C   0  0  2  0  0  0  0  0  0  0  0  0
  -31.3334  -20.6974   21.0199 C   0  0  0  0  0  0  0  0  0  0  0  0
  -30.1302  -25.3920   19.9041 C   0  0  0  0  0  0  0  0  0  0  0  0
  -18.2242  -26.7807   21.0200 C   0  0  0  0  0  0  0  0  0  0  0  0
  -22.9218  -28.2626   25.4480 C   0  0  0  0  0  0  0  0  0  0  0  0
  -20.9779  -26.8333   24.7798 C   0  0  0  0  0  0  0  0  0  0  0  0
  -20.6710  -29.2901   25.0835 C   0  0  0  0  0  0  0  0  0  0  0  0
  -20.4431  -28.2780   18.3163 C   0  0  0  0  0  0  0  0  0  0  0  0
  -28.5148  -21.2289   22.4796 C   0  0  0  0  0  0  0  0  0  0  0  0
  -28.6447  -25.4943   20.2078 C   0  0  1  0  0  0  0  0  0  1  0  0
  -21.9376  -28.4391   23.0676 C   0  0  1  0  0  0  0  0  0  0  0  0
  -19.2877  -27.7104   20.4567 C   0  0  2  0  0  0  0  0  0  0  0  0
  -21.6501  -28.2081   24.5781 C   0  0  0  0  0  0  0  0  0  0  0  0
  -25.9838  -12.0150   21.1440 N   0  0  0  0  0  0  0  0  0  0  0  0
  -30.4740  -18.4082   20.8532 N   0  0  0  0  0  0  0  0  0  0  0  0
  -28.4922  -23.3326   21.2702 N   0  0  0  0  0  0  0  0  0  0  0  0
  -26.0987  -12.5633   19.9225 N   0  0  0  0  0  0  0  0  0  0  0  0
  -23.8812  -29.7009   22.1993 N   0  0  0  0  0  0  0  0  0  0  0  0
  -29.5838  -14.1068   20.1587 N   0  0  0  0  0  0  0  0  0  0  0  0
  -24.8687  -13.1060   17.9723 N   0  0  0  0  0  0  0  0  0  0  0  0
  -21.7717  -11.2245   20.6676 N   0  0  0  0  0  0  0  0  0  0  0  0
  -29.2117  -16.3071   20.9218 N   0  0  0  0  0  0  0  0  0  0  0  0
  -25.8765  -32.2063   23.7713 N   0  0  0  0  0  0  0  0  0  0  0  0
  -20.7481  -28.4198   22.2232 N   0  0  0  0  0  0  0  0  0  0  0  0
  -19.4439  -27.4199   19.0034 N   0  3  0  0  0  0  0  0  0  0  0  0
  -22.1202  -12.1679   18.6066 O   0  0  0  0  0  0  0  0  0  0  0  0
  -26.0331  -29.8833   23.7315 O   0  0  0  0  0  0  0  0  0  0  0  0
  -27.1114  -23.8000   19.4555 O   0  0  0  0  0  0  0  0  0  0  0  0
  -22.0495  -30.8078   23.1245 O   0  0  0  0  0  0  0  0  0  0  0  0
  -21.4436  -26.6907   20.8435 O   0  0  0  0  0  0  0  0  0  0  0  0
  -31.1900  -15.7406   19.8508 O   0  0  0  0  0  0  0  0  0  0  0  0
  -22.6410   -9.2416   25.8006 O   0  0  0  0  0  0  0  0  0  0  0  0
  -28.0334  -26.2778   19.1836 O   0  0  0  0  0  0  0  0  0  1  0  0
  -19.2987   -4.9081   25.1271 F   0  0  0  0  0  0  0  0  0  0  0  0
  -23.2896   -6.7720   26.8603 F   0  0  0  0  0  0  0  0  0  0  0  0
  -28.1451  -18.5066   21.9709 S   0  0  0  0  0  0  0  0  0  0  0  0
  1  2  1  0  0  0  0
  1  5  2  0  0  0  0
  2  6  2  0  0  0  0
  3  8  2  0  0  0  0
  3 15  1  0  0  0  0
  4  9  1  0  0  0  0
  4 15  2  0  0  0  0
  5 17  1  0  0  0  0
  6 19  1  0  0  0  0
  7 10  2  0  0  0  0
  7 18  1  0  0  0  0
  8 21  1  0  0  0  0
  9 21  2  0  0  0  0
 10 22  1  0  0  0  0
 11 12  2  0  0  0  0
 11 23  1  0  0  0  0
 12 24  1  0  0  0  0
 13 20  1  0  0  0  0
 13 22  2  0  0  0  0
 14 24  2  0  0  0  0
 14 25  1  0  0  0  0
 15 26  1  0  0  0  0
 16 26  1  0  0  0  0
 16 29  2  0  0  0  0
 16 32  1  0  0  0  0
 17 19  2  0  0  0  0
 17 38  1  0  0  0  0
 18 20  2  0  0  0  0
 18 39  1  0  0  0  0
 19 47  1  0  0  0  0
 20 40  1  0  0  0  0
 21 80  1  0  0  0  0
 22 81  1  0  0  0  0
 23 25  2  0  0  0  0
 23 80  1  0  0  0  0
 24 82  1  0  0  0  0
 25 83  1  0  0  0  0
 26 62  2  0  0  0  0
 27 28  2  0  0  0  0
 27 50  1  0  0  0  0
 27 63  1  0  0  0  0
 28 57  1  0  0  0  0
 28 84  1  0  0  0  0
 29 65  1  0  0  0  0
 29 68  1  0  0  0  0
 30 63  2  0  0  0  0
 30 70  1  0  0  0  0
 30 84  1  0  0  0  0
 31 57  1  0  0  0  0
 31 64  2  0  0  0  0
 32 69  1  0  0  0  0
 32 74  2  0  0  0  0
 33 48  1  0  0  0  0
 33 71  1  0  0  0  0
 33 75  2  0  0  0  0
 34 58  1  0  0  0  0
 34 64  1  0  0  0  0
 34 76  2  0  0  0  0
 35 59  1  0  0  0  0
 35 66  1  0  0  0  0
 35 77  2  0  0  0  0
 36 60  1  0  0  0  0
 36 72  1  0  0  0  0
 36 78  2  0  0  0  0
 37 67  1  0  0  0  0
 37 70  1  0  0  0  0
 37 79  2  0  0  0  0
 38 41  1  0  0  0  0
 39 48  1  0  0  0  0
 40 66  1  0  0  0  0
 41 43  1  0  0  0  0
 42 44  1  0  0  0  0
 42 45  1  0  0  0  0
 43 47  1  0  0  0  0
 44 49  1  0  0  0  0
 45 67  1  0  0  0  0
 46 49  1  0  0  0  0
 46 67  1  0  0  0  0
 47 71  1  0  0  0  0
 48 66  1  0  0  0  0
 49 65  1  0  0  0  0
 51 58  1  0  0  0  0
 52 60  1  0  0  0  0
 53 61  1  0  0  0  0
 54 61  1  0  0  0  0
 55 61  1  0  0  0  0
 56 73  1  0  0  0  0
 58 81  1  0  0  0  0
 59 61  1  0  0  0  0
 59 72  1  0  0  0  0
 60 73  1  0  0  0  0
 62 65  1  0  0  0  0
M  CHG  1  73   1
M  ISO  4  37 100  58 101  70 100  81 101
M  END
> <Batch ID>
0188

> <Smiles>
CNC(C)C(=O)NC(C(=O)N1Cc2cc([101O:1][101CH:1](C)C(=O)NC=Cc3sc([100NH:0][100C:0](=O)N4CCCC(n5nc(-c6ccc(Oc7ccc(F)cc7F)cc6)c(C(N)=O)c5N)C4)nc3C)ccc2CC1C(=O)NC1CCCc2ccccc21)C(C)(C)C

> <Shape>
0.315

> <Color>
0.087

> <Negative vol penalty>
0.000

$$$$

  -OEChem-04052305153D

 87 95  0     1  0  0  0  0  0999 V2000
  -16.2307  -27.4097   24.6919 C   0  0  0  0  0  0  0  0  0  0  0  0
  -17.3166  -26.7601   25.2701 C   0  0  0  0  0  0  0  0  0  0  0  0
  -22.8772  -10.0839   20.0378 C   0  0  0  0  0  0  0  0  0  0  0  0
  -23.6501  -10.0608   22.3267 C   0  0  0  0  0  0  0  0  0  0  0  0
  -16.1364  -27.5074   23.3043 C   0  0  0  0  0  0  0  0  0  0  0  0
  -18.3083  -26.2069   24.4609 C   0  0  0  0  0  0  0  0  0  0  0  0
  -24.3017  -25.8900   25.6794 C   0  0  0  0  0  0  0  0  0  0  0  0
  -22.0538   -8.9902   20.3047 C   0  0  0  0  0  0  0  0  0  0  0  0
  -22.8265   -8.9671   22.5937 C   0  0  0  0  0  0  0  0  0  0  0  0
  -25.1043  -24.8655   26.1796 C   0  0  0  0  0  0  0  0  0  0  0  0
  -22.8738   -5.6269   22.0720 C   0  0  0  0  0  0  0  0  0  0  0  0
  -23.4183   -4.5677   22.7980 C   0  0  0  0  0  0  0  0  0  0  0  0
  -25.7148  -24.2526   23.9277 C   0  0  0  0  0  0  0  0  0  0  0  0
  -21.7446   -4.8820   24.5118 C   0  0  0  0  0  0  0  0  0  0  0  0
  -23.6754  -10.6192   21.0488 C   0  0  0  0  0  0  0  0  0  0  0  0
  -24.1976  -13.1117   20.8986 C   0  0  0  0  0  0  0  0  0  0  0  0
  -17.1325  -26.9636   22.4780 C   0  0  0  0  0  0  0  0  0  0  0  0
  -24.1909  -26.0968   24.2969 C   0  0  0  0  0  0  0  0  0  0  0  0
  -18.2267  -26.2964   23.0609 C   0  0  0  0  0  0  0  0  0  0  0  0
  -24.9122  -25.2820   23.4127 C   0  0  0  0  0  0  0  0  0  0  0  0
  -22.0284   -8.4318   21.5827 C   0  0  0  0  0  0  0  0  0  0  0  0
  -25.8087  -24.0448   25.3036 C   0  0  0  0  0  0  0  0  0  0  0  0
  -21.7647   -6.3138   22.5659 C   0  0  0  0  0  0  0  0  0  0  0  0
  -22.8537   -4.1952   24.0179 C   0  0  0  0  0  0  0  0  0  0  0  0
  -21.2001   -5.9413   23.7858 C   0  0  0  0  0  0  0  0  0  0  0  0
  -24.5267  -11.7486   20.7735 C   0  0  0  0  0  0  0  0  0  0  0  0
  -32.2434  -18.3130   22.2000 C   0  0  0  0  0  0  0  0  0  0  0  0
  -25.3386  -13.7764   20.5209 C   0  0  0  0  0  0  0  0  0  0  0  0
  -31.1759  -18.7667   22.9461 C   0  0  0  0  0  0  0  0  0  0  0  0
  -30.8780  -16.6265   21.8814 C   0  0  0  0  0  0  0  0  0  0  0  0
  -22.9702  -13.7223   21.3187 C   0  0  0  0  0  0  0  0  0  0  0  0
  -21.8066  -25.9937   22.1974 C   0  0  0  0  0  0  0  0  0  0  0  0
  -24.0706  -27.1083   20.1592 C   0  0  0  0  0  0  0  0  0  0  0  0
  -29.8363  -20.3042   24.4244 C   0  0  0  0  0  0  0  0  0  0  0  0
  -27.3820  -27.4059   19.3894 C   0  0  0  0  0  0  0  0  0  0  0  0
  -30.8670  -14.4267   20.6539 C   0  0  0  0  0  0  0  0  0  0  0  0
  -16.9632  -27.0529   20.9819 C   0  0  0  0  0  0  0  0  0  0  0  0
  -23.3420  -27.2232   23.7744 C   0  0  0  0  0  0  0  0  0  0  0  0
  -24.8432  -25.4754   21.9206 C   0  0  0  0  0  0  0  0  0  0  0  0
  -18.2462  -26.7674   20.2057 C   0  0  0  0  0  0  0  0  0  0  0  0
  -29.5665  -12.0743   18.3188 C   0  0  0  0  0  0  0  0  0  0  0  0
  -18.9325  -25.5185   20.7496 C   0  0  0  0  0  0  0  0  0  0  0  0
  -28.1123  -11.8920   18.7595 C   0  0  0  0  0  0  0  0  0  0  0  0
  -30.5033  -12.2494   19.5128 C   0  0  0  0  0  0  0  0  0  0  0  0
  -28.6623  -13.1243   20.8964 C   0  0  0  0  0  0  0  0  0  0  0  0
  -19.3353  -25.7052   22.2174 C   0  0  1  0  0  0  0  0  0  0  0  0
  -22.8990  -27.0168   22.3292 C   0  0  1  0  0  0  0  0  0  0  0  0
  -27.6721  -13.0091   19.7259 C   0  0  2  0  0  0  0  0  0  0  0  0
  -28.9219  -28.3368   17.6402 C   0  0  0  0  0  0  0  0  0  0  0  0
  -29.2560  -23.1715   26.9704 C   0  0  0  0  0  0  0  0  0  0  0  0
  -33.5085  -19.9376   20.7791 C   0  0  0  0  0  0  0  0  0  0  0  0
  -23.3729  -24.7829   18.3110 C   0  0  0  0  0  0  0  0  0  0  0  0
  -25.5208  -25.1975   17.0932 C   0  0  0  0  0  0  0  0  0  0  0  0
  -23.7584  -26.9621   17.1460 C   0  0  0  0  0  0  0  0  0  0  0  0
  -28.6818  -29.2200   21.3333 C   0  0  0  0  0  0  0  0  0  0  0  0
  -30.0332  -21.6609   25.0931 C   0  0  0  0  0  0  0  0  0  0  0  0
  -27.7374  -22.6831   25.0177 C   0  0  0  0  0  0  0  0  0  1  0  0
  -25.0874  -26.4746   19.2408 C   0  0  1  0  0  0  0  0  0  0  0  0
  -28.2127  -28.6015   18.9592 C   0  0  2  0  0  0  0  0  0  0  0  0
  -28.8327  -22.1222   25.9344 C   0  0  2  0  0  0  0  0  0  0  0  0
  -33.5276  -19.0162   22.0031 C   0  0  0  0  0  0  0  0  0  0  0  0
  -24.4349  -25.8491   17.9757 C   0  0  0  0  0  0  0  0  0  0  0  0
  -25.7787  -11.5573   20.3493 N   0  0  0  0  0  0  0  0  0  0  0  0
  -32.0745  -17.0857   21.5891 N   0  0  0  0  0  0  0  0  0  0  0  0
  -26.2463  -12.8089   20.2045 N   0  0  0  0  0  0  0  0  0  0  0  0
  -23.9946  -26.5862   21.4583 N   0  0  0  0  0  0  0  0  0  0  0  0
  -30.0257  -13.3272   20.3817 N   0  0  0  0  0  0  0  0  0  0  0  0
  -25.6440  -15.0884   20.4318 N   0  0  0  0  0  0  0  0  0  0  0  0
  -21.8976  -12.8921   21.6717 N   0  0  0  0  0  0  0  0  0  0  0  0
  -30.9707  -19.9461   23.7010 N   0  0  0  0  0  0  0  0  0  0  0  0
  -30.2931  -15.4048   21.4655 N   0  0  0  0  0  0  0  0  0  0  0  0
  -20.5317  -26.5137   22.3142 N   0  0  0  0  0  0  0  0  0  0  0  0
  -26.0777  -27.5069   18.9540 N   0  0  0  0  0  0  0  0  0  0  0  0
  -29.2411  -28.9159   19.9910 N   0  3  0  0  0  0  0  0  0  0  0  0
  -22.8237  -14.9673   21.3635 O   0  0  0  0  0  0  0  0  0  0  0  0
  -22.0986  -24.8196   22.0026 O   0  0  0  0  0  0  0  0  0  0  0  0
  -23.3745  -28.0371   19.7418 O   0  0  0  0  0  0  0  0  0  0  0  0
  -28.7889  -19.6738   24.5232 O   0  0  0  0  0  0  0  0  0  0  0  0
  -27.8450  -26.4736   20.0429 O   0  0  0  0  0  0  0  0  0  0  0  0
  -32.0023  -14.5085   20.1782 O   0  0  0  0  0  0  0  0  0  0  0  0
  -21.2248   -7.3647   21.8436 O   0  0  0  0  0  0  0  0  0  0  0  0
  -26.5923  -23.0438   25.7891 O   0  0  0  0  0  0  0  0  0  1  0  0
  -23.3757   -3.1769   24.7142 F   0  0  0  0  0  0  0  0  0  0  0  0
  -20.1338   -6.5966   24.2649 F   0  0  0  0  0  0  0  0  0  0  0  0
  -34.5996  -18.1680   21.8350 F   0  0  0  0  0  0  0  0  0  0  0  0
  -33.8961  -19.7996   23.0744 F   0  0  0  0  0  0  0  0  0  0  0  0
  -29.9028  -17.6191   22.8858 S   0  0  0  0  0  0  0  0  0  0  0  0
  1  2  1  0  0  0  0
  1  5  2  0  0  0  0
  2  6  2  0  0  0  0
  3  8  2  0  0  0  0
  3 15  1  0  0  0  0
  4  9  1  0  0  0  0
  4 15  2  0  0  0  0
  5 17  1  0  0  0  0
  6 19  1  0  0  0  0
  7 10  2  0  0  0  0
  7 18  1  0  0  0  0
  8 21  1  0  0  0  0
  9 21  2  0  0  0  0
 10 22  1  0  0  0  0
 11 12  2  0  0  0  0
 11 23  1  0  0  0  0
 12 24  1  0  0  0  0
 13 20  1  0  0  0  0
 13 22  2  0  0  0  0
 14 24  2  0  0  0  0
 14 25  1  0  0  0  0
 15 26  1  0  0  0  0
 16 26  1  0  0  0  0
 16 28  2  0  0  0  0
 16 31  1  0  0  0  0
 17 19  2  0  0  0  0
 17 37  1  0  0  0  0
 18 20  2  0  0  0  0
 18 38  1  0  0  0  0
 19 46  1  0  0  0  0
 20 39  1  0  0  0  0
 21 81  1  0  0  0  0
 22 82  1  0  0  0  0
 23 25  2  0  0  0  0
 23 81  1  0  0  0  0
 24 83  1  0  0  0  0
 25 84  1  0  0  0  0
 26 63  2  0  0  0  0
 27 29  2  0  0  0  0
 27 61  1  0  0  0  0
 27 64  1  0  0  0  0
 28 65  1  0  0  0  0
 28 68  1  0  0  0  0
 29 70  1  0  0  0  0
 29 87  1  0  0  0  0
 30 64  2  0  0  0  0
 30 71  1  0  0  0  0
 30 87  1  0  0  0  0
 31 69  1  0  0  0  0
 31 75  2  0  0  0  0
 32 47  1  0  0  0  0
 32 72  1  0  0  0  0
 32 76  2  0  0  0  0
 33 58  1  0  0  0  0
 33 66  1  0  0  0  0
 33 77  2  0  0  0  0
 34 56  1  0  0  0  0
 34 70  1  0  0  0  0
 34 78  2  0  0  0  0
 35 59  1  0  0  0  0
 35 73  1  0  0  0  0
 35 79  2  0  0  0  0
 36 67  1  0  0  0  0
 36 71  1  0  0  0  0
 36 80  2  0  0  0  0
 37 40  1  0  0  0  0
 38 47  1  0  0  0  0
 39 66  1  0  0  0  0
 40 42  1  0  0  0  0
 41 43  1  0  0  0  0
 41 44  1  0  0  0  0
 42 46  1  0  0  0  0
 43 48  1  0  0  0  0
 44 67  1  0  0  0  0
 45 48  1  0  0  0  0
 45 67  1  0  0  0  0
 46 72  1  0  0  0  0
 47 66  1  0  0  0  0
 48 65  1  0  0  0  0
 49 59  1  0  0  0  0
 50 60  1  0  0  0  0
 51 61  1  0  0  0  0
 52 62  1  0  0  0  0
 53 62  1  0  0  0  0
 54 62  1  0  0  0  0
 55 74  1  0  0  0  0
 56 60  1  0  0  0  0
 57 60  1  0  0  0  0
 57 82  1  0  0  0  0
 58 62  1  0  0  0  0
 58 73  1  0  0  0  0
 59 74  1  0  0  0  0
 61 85  1  0  0  0  0
 61 86  1  0  0  0  0
 63 65  1  0  0  0  0
M  CHG  1  74   1
M  ISO  4  36 100  57 101  71 100  82 101
M  END
> <Batch ID>
0188

> <Smiles>
CNC(C)C(=O)NC(C(=O)N1Cc2cc([101O:1][101CH2:1]C(C)CC(=O)Nc3sc([100NH:0][100C:0](=O)N4CCCC(n5nc(-c6ccc(Oc7ccc(F)cc7F)cc6)c(C(N)=O)c5N)C4)nc3C(C)(F)F)ccc2CC1C(=O)NC1CCCc2ccccc21)C(C)(C)C

> <Shape>
0.272

> <Color>
0.199

> <Negative vol penalty>
0.000

$$$$

  -OEChem-04052305153D

 85 93  0     1  0  0  0  0  0999 V2000
  -26.7026  -28.6717   21.9102 C   0  0  0  0  0  0  0  0  0  0  0  0
  -27.5302  -28.1231   22.8847 C   0  0  0  0  0  0  0  0  0  0  0  0
  -23.1597   -9.8488   19.9640 C   0  0  0  0  0  0  0  0  0  0  0  0
  -23.8255   -9.9598   22.2838 C   0  0  0  0  0  0  0  0  0  0  0  0
  -26.0851  -27.8429   20.9745 C   0  0  0  0  0  0  0  0  0  0  0  0
  -27.7398  -26.7451   22.9247 C   0  0  0  0  0  0  0  0  0  0  0  0
  -32.8913  -23.8501   24.5330 C   0  0  0  0  0  0  0  0  0  0  0  0
  -22.4523   -8.6749   20.2232 C   0  0  0  0  0  0  0  0  0  0  0  0
  -23.1181   -8.7859   22.5430 C   0  0  0  0  0  0  0  0  0  0  0  0
  -33.2979  -23.2514   25.7246 C   0  0  0  0  0  0  0  0  0  0  0  0
  -21.7853   -5.6238   23.7409 C   0  0  0  0  0  0  0  0  0  0  0  0
  -22.4095   -4.6492   24.5193 C   0  0  0  0  0  0  0  0  0  0  0  0
  -32.5698  -21.1086   24.8893 C   0  0  0  0  0  0  0  0  0  0  0  0
  -24.1866   -4.4865   22.8906 C   0  0  0  0  0  0  0  0  0  0  0  0
  -23.8464  -10.4912   20.9943 C   0  0  0  0  0  0  0  0  0  0  0  0
  -24.0931  -13.0230   20.8032 C   0  0  0  0  0  0  0  0  0  0  0  0
  -26.2949  -26.4550   20.9970 C   0  0  0  0  0  0  0  0  0  0  0  0
  -32.3100  -23.0831   23.5132 C   0  0  0  0  0  0  0  0  0  0  0  0
  -27.1234  -25.8968   21.9892 C   0  0  0  0  0  0  0  0  0  0  0  0
  -32.1591  -21.6996   23.6847 C   0  0  0  0  0  0  0  0  0  0  0  0
  -22.4315   -8.1434   21.5126 C   0  0  0  0  0  0  0  0  0  0  0  0
  -33.1345  -21.8809   25.9041 C   0  0  0  0  0  0  0  0  0  0  0  0
  -22.3617   -6.0298   22.5373 C   0  0  0  0  0  0  0  0  0  0  0  0
  -23.6102   -4.0805   24.0942 C   0  0  0  0  0  0  0  0  0  0  0  0
  -23.5623   -5.4611   22.1122 C   0  0  0  0  0  0  0  0  0  0  0  0
  -24.5778  -11.7035   20.7271 C   0  0  0  0  0  0  0  0  0  0  0  0
  -31.5461  -16.8600   25.0304 C   0  0  0  0  0  0  0  0  0  0  0  0
  -32.5567  -16.7586   24.0975 C   0  0  0  0  0  0  0  0  0  0  0  0
  -25.1687  -13.8044   20.4580 C   0  0  0  0  0  0  0  0  0  0  0  0
  -31.0889  -15.4415   23.1380 C   0  0  0  0  0  0  0  0  0  0  0  0
  -22.7874  -13.4999   21.1547 C   0  0  0  0  0  0  0  0  0  0  0  0
  -31.5803  -17.6601   26.2710 C   0  0  0  0  0  0  0  0  0  0  0  0
  -29.4807  -23.0524   22.0646 C   0  0  0  0  0  0  0  0  0  0  0  0
  -30.9084  -20.8358   20.1750 C   0  0  0  0  0  0  0  0  0  0  0  0
  -33.3513  -18.4809   19.8096 C   0  0  0  0  0  0  0  0  0  0  0  0
  -30.9089  -14.0341   21.0564 C   0  0  0  0  0  0  0  0  0  0  0  0
  -25.5683  -25.5946   19.9939 C   0  0  0  0  0  0  0  0  0  0  0  0
  -31.9011  -23.7397   22.2232 C   0  0  0  0  0  0  0  0  0  0  0  0
  -31.5591  -20.8284   22.6126 C   0  0  0  0  0  0  0  0  0  0  0  0
  -26.1397  -24.1841   19.8740 C   0  0  0  0  0  0  0  0  0  0  0  0
  -29.3905  -13.0309   17.9961 C   0  0  0  0  0  0  0  0  0  0  0  0
  -26.3748  -23.5841   21.2566 C   0  0  0  0  0  0  0  0  0  0  0  0
  -27.9469  -12.7150   18.3940 C   0  0  0  0  0  0  0  0  0  0  0  0
  -30.3816  -12.6188   19.0830 C   0  0  0  0  0  0  0  0  0  0  0  0
  -28.6472  -12.8323   20.8195 C   0  0  0  0  0  0  0  0  0  0  0  0
  -27.3952  -24.4093   22.0499 C   0  0  1  0  0  0  0  0  0  0  0  0
  -30.8498  -22.9448   21.4550 C   0  0  1  0  0  0  0  0  0  0  0  0
  -27.6070  -13.2889   19.7836 C   0  0  2  0  0  0  0  0  0  0  0  0
  -34.2442  -16.8073   18.1667 C   0  0  0  0  0  0  0  0  0  0  0  0
  -32.7346  -17.6754   29.2735 C   0  0  0  0  0  0  0  0  0  0  0  0
  -35.9002  -20.9224   27.0587 C   0  0  0  0  0  0  0  0  0  0  0  0
  -28.5665  -18.9809   20.7955 C   0  0  0  0  0  0  0  0  0  0  0  0
  -29.9442  -17.0713   19.9450 C   0  0  0  0  0  0  0  0  0  0  0  0
  -29.3265  -18.9407   18.4132 C   0  0  0  0  0  0  0  0  0  0  0  0
  -35.9918  -19.8139   19.7102 C   0  0  0  0  0  0  0  0  0  0  0  0
  -34.3170  -19.2657   28.1106 C   0  0  0  0  0  0  0  0  0  0  0  0
  -31.0571  -19.3340   20.2138 C   0  0  1  0  0  0  0  0  0  0  0  0
  -34.3496  -18.2299   18.6939 C   0  0  2  0  0  0  0  0  0  0  0  0
  -32.9228  -18.6291   28.1028 C   0  0  1  0  0  0  0  0  0  0  0  0
  -34.5242  -20.2747   26.9740 C   0  0  1  0  0  0  0  0  0  1  0  0
  -29.7331  -18.5982   19.8630 C   0  0  0  0  0  0  0  0  0  0  0  0
  -25.8613  -11.6459   20.3620 N   0  0  0  0  0  0  0  0  0  0  0  0
  -32.2965  -15.9453   23.0118 N   0  0  0  0  0  0  0  0  0  0  0  0
  -26.1922  -12.9390   20.2056 N   0  0  0  0  0  0  0  0  0  0  0  0
  -31.1692  -21.5182   21.3718 N   0  0  0  0  0  0  0  0  0  0  0  0
  -29.9984  -13.2028   20.3703 N   0  0  0  0  0  0  0  0  0  0  0  0
  -33.7475  -17.3976   24.1970 N   0  0  0  0  0  0  0  0  0  0  0  0
  -25.3293  -15.1403   20.3488 N   0  0  0  0  0  0  0  0  0  0  0  0
  -21.7993  -12.5615   21.4824 N   0  0  0  0  0  0  0  0  0  0  0  0
  -30.4303  -18.1490   26.7351 N   0  0  0  0  0  0  0  0  0  0  0  0
  -30.4220  -14.5580   22.2534 N   0  0  0  0  0  0  0  0  0  0  0  0
  -28.7394  -24.1211   21.5978 N   0  0  0  0  0  0  0  0  0  0  0  0
  -32.1723  -19.0113   19.3302 N   0  0  0  0  0  0  0  0  0  0  0  0
  -32.7616  -17.8563   26.8655 N   0  3  0  0  0  0  0  0  0  0  0  0
  -35.7400  -18.4475   19.1843 N   0  3  0  0  0  0  0  0  0  0  0  0
  -22.5008  -14.7211   21.1615 O   0  0  0  0  0  0  0  0  0  0  0  0
  -29.1228  -22.2262   22.8959 O   0  0  0  0  0  0  0  0  0  0  0  0
  -30.5801  -21.3840   19.1198 O   0  0  0  0  0  0  0  0  0  0  0  0
  -33.5918  -18.2280   20.9881 O   0  0  0  0  0  0  0  0  0  0  0  0
  -32.0274  -14.2861   20.6011 O   0  0  0  0  0  0  0  0  0  0  0  0
  -21.7411   -6.9981   21.7660 O   0  0  0  0  0  0  0  0  0  0  0  0
  -33.5299  -21.2941   27.0665 O   0  0  0  0  0  0  0  0  0  1  0  0
  -24.2103   -3.1457   24.8426 F   0  0  0  0  0  0  0  0  0  0  0  0
  -24.1215   -5.8479   20.9574 F   0  0  0  0  0  0  0  0  0  0  0  0
  -30.2103  -15.9039   24.5377 S   0  0  0  0  0  0  0  0  0  0  0  0
  1  2  1  0  0  0  0
  1  5  2  0  0  0  0
  2  6  2  0  0  0  0
  3  8  2  0  0  0  0
  3 15  1  0  0  0  0
  4  9  1  0  0  0  0
  4 15  2  0  0  0  0
  5 17  1  0  0  0  0
  6 19  1  0  0  0  0
  7 10  2  0  0  0  0
  7 18  1  0  0  0  0
  8 21  1  0  0  0  0
  9 21  2  0  0  0  0
 10 22  1  0  0  0  0
 11 12  2  0  0  0  0
 11 23  1  0  0  0  0
 12 24  1  0  0  0  0
 13 20  1  0  0  0  0
 13 22  2  0  0  0  0
 14 24  2  0  0  0  0
 14 25  1  0  0  0  0
 15 26  1  0  0  0  0
 16 26  1  0  0  0  0
 16 29  2  0  0  0  0
 16 31  1  0  0  0  0
 17 19  2  0  0  0  0
 17 37  1  0  0  0  0
 18 20  2  0  0  0  0
 18 38  1  0  0  0  0
 19 46  1  0  0  0  0
 20 39  1  0  0  0  0
 21 81  1  0  0  0  0
 22 82  1  0  0  0  0
 23 25  2  0  0  0  0
 23 81  1  0  0  0  0
 24 83  1  0  0  0  0
 25 84  1  0  0  0  0
 26 62  2  0  0  0  0
 27 28  2  0  0  0  0
 27 32  1  0  0  0  0
 27 85  1  0  0  0  0
 28 63  1  0  0  0  0
 28 67  1  0  0  0  0
 29 64  1  0  0  0  0
 29 68  1  0  0  0  0
 30 63  2  0  0  0  0
 30 71  1  0  0  0  0
 30 85  1  0  0  0  0
 31 69  1  0  0  0  0
 31 76  2  0  0  0  0
 32 70  1  0  0  0  0
 32 74  2  0  0  0  0
 33 47  1  0  0  0  0
 33 72  1  0  0  0  0
 33 77  2  0  0  0  0
 34 57  1  0  0  0  0
 34 65  1  0  0  0  0
 34 78  2  0  0  0  0
 35 58  1  0  0  0  0
 35 73  1  0  0  0  0
 35 79  2  0  0  0  0
 36 66  1  0  0  0  0
 36 71  1  0  0  0  0
 36 80  2  0  0  0  0
 37 40  1  0  0  0  0
 38 47  1  0  0  0  0
 39 65  1  0  0  0  0
 40 42  1  0  0  0  0
 41 43  1  0  0  0  0
 41 44  1  0  0  0  0
 42 46  1  0  0  0  0
 43 48  1  0  0  0  0
 44 66  1  0  0  0  0
 45 48  1  0  0  0  0
 45 66  1  0  0  0  0
 46 72  1  0  0  0  0
 47 65  1  0  0  0  0
 48 64  1  0  0  0  0
 49 58  1  0  0  0  0
 50 59  1  0  0  0  0
 51 60  1  0  0  0  0
 52 61  1  0  0  0  0
 53 61  1  0  0  0  0
 54 61  1  0  0  0  0
 55 75  1  0  0  0  0
 56 59  1  0  0  0  0
 56 60  1  0  0  0  0
 57 61  1  0  0  0  0
 57 73  1  0  0  0  0
 58 75  1  0  0  0  0
 59 74  1  0  0  0  0
 60 82  1  0  0  0  0
 62 64  1  0  0  0  0
M  CHG  2  74   1  75   1
M  ISO  4  36 100  60 101  71 100  82 101
M  END
> <Batch ID>
0188

> <Smiles>
CNC(C)C(=O)NC(C(=O)N1Cc2cc([101O:1][101CH:1](C)CC(C)NC(=N)c3sc([100NH:0][100C:0](=O)N4CCCC(n5nc(-c6ccc(Oc7ccc(F)cc7F)cc6)c(C(N)=O)c5N)C4)nc3N)ccc2CC1C(=O)NC1CCCc2ccccc21)C(C)(C)C

> <Shape>
0.214

> <Color>
0.175

> <Negative vol penalty>
0.000

$$$$

  -OEChem-04052305153D

 83 91  0     1  0  0  0  0  0999 V2000
  -28.4072  -25.0661   16.3839 C   0  0  0  0  0  0  0  0  0  0  0  0
  -27.2431  -25.7204   16.7709 C   0  0  0  0  0  0  0  0  0  0  0  0
  -27.2702  -21.4354   21.3658 C   0  0  0  0  0  0  0  0  0  0  0  0
  -26.1013  -19.7569   20.0800 C   0  0  0  0  0  0  0  0  0  0  0  0
  -29.5279  -25.0978   17.2110 C   0  0  0  0  0  0  0  0  0  0  0  0
  -27.2032  -26.4168   17.9794 C   0  0  0  0  0  0  0  0  0  0  0  0
  -23.1699  -29.0823   18.8908 C   0  0  0  0  0  0  0  0  0  0  0  0
  -28.4907  -20.8852   20.9745 C   0  0  0  0  0  0  0  0  0  0  0  0
  -27.3218  -19.2066   19.6886 C   0  0  0  0  0  0  0  0  0  0  0  0
  -21.9405  -28.5054   19.2061 C   0  0  0  0  0  0  0  0  0  0  0  0
  -29.6845  -17.1864   21.0182 C   0  0  0  0  0  0  0  0  0  0  0  0
  -29.8164  -15.7989   21.0708 C   0  0  0  0  0  0  0  0  0  0  0  0
  -22.2741  -29.0768   21.5259 C   0  0  0  0  0  0  0  0  0  0  0  0
  -30.2555  -15.7505   18.6955 C   0  0  0  0  0  0  0  0  0  0  0  0
  -17.7594  -23.2842   23.8989 C   0  0  0  0  0  0  0  0  0  0  0  0
  -26.0754  -20.8712   20.9186 C   0  0  0  0  0  0  0  0  0  0  0  0
  -24.0868  -22.4488   20.6653 C   0  0  0  0  0  0  0  0  0  0  0  0
  -29.4969  -25.7846   18.4359 C   0  0  0  0  0  0  0  0  0  0  0  0
  -23.9670  -29.6521   19.8940 C   0  0  0  0  0  0  0  0  0  0  0  0
  -28.3316  -26.4806   18.8168 C   0  0  0  0  0  0  0  0  0  0  0  0
  -23.5121  -29.6627   21.2203 C   0  0  0  0  0  0  0  0  0  0  0  0
  -28.5166  -19.7708   20.1359 C   0  0  0  0  0  0  0  0  0  0  0  0
  -21.4937  -28.5000   20.5242 C   0  0  0  0  0  0  0  0  0  0  0  0
  -29.8380  -17.8561   19.8042 C   0  0  0  0  0  0  0  0  0  0  0  0
  -30.1020  -15.0809   19.9095 C   0  0  0  0  0  0  0  0  0  0  0  0
  -30.1235  -17.1381   18.6429 C   0  0  0  0  0  0  0  0  0  0  0  0
  -24.8143  -21.4388   21.3229 C   0  0  0  0  0  0  0  0  0  0  0  0
  -18.0152  -22.3355   22.9311 C   0  0  0  0  0  0  0  0  0  0  0  0
  -22.9696  -22.6294   21.4436 C   0  0  0  0  0  0  0  0  0  0  0  0
  -17.9357  -24.6187   22.1675 C   0  0  0  0  0  0  0  0  0  0  0  0
  -24.3934  -23.1601   19.4588 C   0  0  0  0  0  0  0  0  0  0  0  0
  -26.8656  -29.0661   21.0594 C   0  0  0  0  0  0  0  0  0  0  0  0
  -18.7306  -20.4519   24.3726 C   0  0  0  0  0  0  0  0  0  0  0  0
  -26.3075  -31.7766   22.7517 C   0  0  0  0  0  0  0  0  0  0  0  0
  -24.0324  -33.9427   24.0854 C   0  0  0  0  0  0  0  0  0  0  0  0
  -17.7961  -27.0806   21.6713 C   0  0  0  0  0  0  0  0  0  0  0  0
  -30.7411  -25.7932   19.2886 C   0  0  0  0  0  0  0  0  0  0  0  0
  -25.2785  -30.2943   19.5335 C   0  0  0  0  0  0  0  0  0  0  0  0
  -24.3207  -30.2795   22.3312 C   0  0  0  0  0  0  0  0  0  0  0  0
  -30.4651  -26.1757   20.7391 C   0  0  0  0  0  0  0  0  0  0  0  0
  -21.8543  -20.9222   26.0642 C   0  0  0  0  0  0  0  0  0  0  0  0
  -29.6260  -27.4436   20.7916 C   0  0  0  0  0  0  0  0  0  0  0  0
  -22.8479  -21.1513   24.9261 C   0  0  0  0  0  0  0  0  0  0  0  0
  -20.7705  -19.9248   25.6669 C   0  0  0  0  0  0  0  0  0  0  0  0
  -21.0266  -20.5216   23.2795 C   0  0  0  0  0  0  0  0  0  0  0  0
  -28.2552  -27.2187   20.1411 C   0  0  1  0  0  0  0  0  0  0  0  0
  -26.2419  -30.3883   20.7126 C   0  0  1  0  0  0  0  0  0  0  0  0
  -22.1207  -21.5460   23.6284 C   0  0  2  0  0  0  0  0  0  0  0  0
  -16.7996  -20.1197   22.8629 C   0  0  0  0  0  0  0  0  0  0  0  0
  -23.8772  -36.0448   25.4471 C   0  0  0  0  0  0  0  0  0  0  0  0
  -26.9685  -30.1896   25.2725 C   0  0  0  0  0  0  0  0  0  0  0  0
  -25.8972  -32.0106   26.6159 C   0  0  0  0  0  0  0  0  0  0  0  0
  -27.9062  -32.5075   25.2232 C   0  0  0  0  0  0  0  0  0  0  0  0
  -22.6628  -35.3949   21.9004 C   0  0  0  0  0  0  0  0  0  0  0  0
  -19.2822  -27.9685   19.8295 C   0  0  0  0  0  0  0  0  0  1  0  0
  -18.1327  -20.8696   23.0527 C   0  0  1  0  0  0  0  0  0  0  0  0
  -25.6846  -32.0921   24.0901 C   0  0  1  0  0  0  0  0  0  0  0  0
  -23.9404  -35.4574   24.0458 C   0  0  2  0  0  0  0  0  0  0  0  0
  -17.9025  -28.0040   20.4699 C   0  0  2  0  0  0  0  0  0  0  0  0
  -26.5995  -31.6865   25.2800 C   0  0  0  0  0  0  0  0  0  0  0  0
  -17.7138  -24.5940   23.4630 N   0  0  0  0  0  0  0  0  0  0  0  0
  -24.2101  -21.0080   22.4335 N   0  0  0  0  0  0  0  0  0  0  0  0
  -23.0913  -21.7510   22.4799 N   0  0  0  0  0  0  0  0  0  0  0  0
  -25.5990  -30.8893   21.9291 N   0  0  0  0  0  0  0  0  0  0  0  0
  -20.1189  -20.3234   24.4180 N   0  0  0  0  0  0  0  0  0  0  0  0
  -21.9049  -23.4524   21.3359 N   0  0  0  0  0  0  0  0  0  0  0  0
  -25.5822  -22.8501   18.7842 N   0  0  0  0  0  0  0  0  0  0  0  0
  -17.9791  -25.7497   21.3182 N   0  0  0  0  0  0  0  0  0  0  0  0
  -27.5745  -28.4893   20.0229 N   0  0  0  0  0  0  0  0  0  0  0  0
  -25.3412  -33.5096   24.0566 N   0  0  0  0  0  0  0  0  0  0  0  0
  -22.7209  -35.8830   23.3023 N   0  3  0  0  0  0  0  0  0  0  0  0
  -23.6438  -24.0559   19.0016 O   0  0  0  0  0  0  0  0  0  0  0  0
  -26.7162  -28.6040   22.1845 O   0  0  0  0  0  0  0  0  0  0  0  0
  -17.9846  -20.2493   25.3342 O   0  0  0  0  0  0  0  0  0  0  0  0
  -27.3796  -32.3037   22.4444 O   0  0  0  0  0  0  0  0  0  0  0  0
  -23.0424  -33.2164   24.1404 O   0  0  0  0  0  0  0  0  0  0  0  0
  -17.5614  -27.5359   22.7869 O   0  0  0  0  0  0  0  0  0  0  0  0
  -29.7074  -19.2338   19.7537 O   0  0  0  0  0  0  0  0  0  0  0  0
  -20.2944  -27.9369   20.8349 O   0  0  0  0  0  0  0  0  0  1  0  0
  -30.2302  -13.7486   19.9605 F   0  0  0  0  0  0  0  0  0  0  0  0
  -30.2733  -17.7760   17.4739 F   0  0  0  0  0  0  0  0  0  0  0  0
  -17.6381  -29.2919   20.8342 F   0  0  0  0  0  0  0  0  0  0  0  0
  -18.2063  -23.1031   21.4094 S   0  0  0  0  0  0  0  0  0  0  0  0
  1  2  1  0  0  0  0
  1  5  2  0  0  0  0
  2  6  2  0  0  0  0
  3  8  2  0  0  0  0
  3 16  1  0  0  0  0
  4  9  1  0  0  0  0
  4 16  2  0  0  0  0
  5 18  1  0  0  0  0
  6 20  1  0  0  0  0
  7 10  2  0  0  0  0
  7 19  1  0  0  0  0
  8 22  1  0  0  0  0
  9 22  2  0  0  0  0
 10 23  1  0  0  0  0
 11 12  2  0  0  0  0
 11 24  1  0  0  0  0
 12 25  1  0  0  0  0
 13 21  1  0  0  0  0
 13 23  2  0  0  0  0
 14 25  2  0  0  0  0
 14 26  1  0  0  0  0
 15 28  2  0  0  0  0
 15 61  1  0  0  0  0
 16 27  1  0  0  0  0
 17 27  1  0  0  0  0
 17 29  2  0  0  0  0
 17 31  1  0  0  0  0
 18 20  2  0  0  0  0
 18 37  1  0  0  0  0
 19 21  2  0  0  0  0
 19 38  1  0  0  0  0
 20 46  1  0  0  0  0
 21 39  1  0  0  0  0
 22 78  1  0  0  0  0
 23 79  1  0  0  0  0
 24 26  2  0  0  0  0
 24 78  1  0  0  0  0
 25 80  1  0  0  0  0
 26 81  1  0  0  0  0
 27 62  2  0  0  0  0
 28 56  1  0  0  0  0
 28 83  1  0  0  0  0
 29 63  1  0  0  0  0
 29 66  1  0  0  0  0
 30 61  2  0  0  0  0
 30 68  1  0  0  0  0
 30 83  1  0  0  0  0
 31 67  1  0  0  0  0
 31 72  2  0  0  0  0
 32 47  1  0  0  0  0
 32 69  1  0  0  0  0
 32 73  2  0  0  0  0
 33 56  1  0  0  0  0
 33 65  1  0  0  0  0
 33 74  2  0  0  0  0
 34 57  1  0  0  0  0
 34 64  1  0  0  0  0
 34 75  2  0  0  0  0
 35 58  1  0  0  0  0
 35 70  1  0  0  0  0
 35 76  2  0  0  0  0
 36 59  1  0  0  0  0
 36 68  1  0  0  0  0
 36 77  2  0  0  0  0
 37 40  1  0  0  0  0
 38 47  1  0  0  0  0
 39 64  1  0  0  0  0
 40 42  1  0  0  0  0
 41 43  1  0  0  0  0
 41 44  1  0  0  0  0
 42 46  1  0  0  0  0
 43 48  1  0  0  0  0
 44 65  1  0  0  0  0
 45 48  1  0  0  0  0
 45 65  1  0  0  0  0
 46 69  1  0  0  0  0
 47 64  1  0  0  0  0
 48 63  1  0  0  0  0
 49 56  1  0  0  0  0
 50 58  1  0  0  0  0
 51 60  1  0  0  0  0
 52 60  1  0  0  0  0
 53 60  1  0  0  0  0
 54 71  1  0  0  0  0
 55 59  1  0  0  0  0
 55 79  1  0  0  0  0
 57 60  1  0  0  0  0
 57 70  1  0  0  0  0
 58 71  1  0  0  0  0
 59 82  1  0  0  0  0
 62 63  1  0  0  0  0
M  CHG  1  71   1
M  ISO  4  33 100  55 101  56 100  79 101
M  END
> <Batch ID>
0188

> <Smiles>
CNC(C)C(=O)NC(C(=O)N1Cc2cc([101O:1][101CH2:1]C(F)C(=O)Nc3ncc([100CH:0](C)[100C:0](=O)N4CCCC(n5nc(-c6ccc(Oc7ccc(F)cc7F)cc6)c(C(N)=O)c5N)C4)s3)ccc2CC1C(=O)NC1CCCc2ccccc21)C(C)(C)C

> <Shape>
0.262

> <Color>
0.059

> <Negative vol penalty>
0.000

$$$$

  -OEChem-04052305153D

 96104  0     1  0  0  0  0  0999 V2000
  -29.1883  -30.8631   26.3146 C   0  0  0  0  0  0  0  0  0  0  0  0
  -29.0451  -30.3547   25.0275 C   0  0  0  0  0  0  0  0  0  0  0  0
  -26.4784  -12.6564   21.5950 C   0  0  0  0  0  0  0  0  0  0  0  0
  -26.0794  -13.5792   19.3982 C   0  0  0  0  0  0  0  0  0  0  0  0
  -28.6965  -30.1463   27.4046 C   0  0  0  0  0  0  0  0  0  0  0  0
  -28.4111  -29.1287   24.8299 C   0  0  0  0  0  0  0  0  0  0  0  0
  -25.1116  -29.2445   20.9899 C   0  0  0  0  0  0  0  0  0  0  0  0
  -25.2067  -12.0834   21.5854 C   0  0  0  0  0  0  0  0  0  0  0  0
  -24.8077  -13.0062   19.3885 C   0  0  0  0  0  0  0  0  0  0  0  0
  -25.6341  -29.1742   19.6992 C   0  0  0  0  0  0  0  0  0  0  0  0
  -23.7051   -9.3751   20.2277 C   0  0  0  0  0  0  0  0  0  0  0  0
  -23.5872   -8.0516   20.6520 C   0  0  0  0  0  0  0  0  0  0  0  0
  -25.0873  -26.8263   19.6123 C   0  0  0  0  0  0  0  0  0  0  0  0
  -22.0848   -8.7492   22.4108 C   0  0  0  0  0  0  0  0  0  0  0  0
  -26.9147  -13.4043   20.5014 C   0  0  0  0  0  0  0  0  0  0  0  0
  -29.4255  -13.4177   20.0500 C   0  0  0  0  0  0  0  0  0  0  0  0
  -28.0475  -28.9154   27.2194 C   0  0  0  0  0  0  0  0  0  0  0  0
  -24.5821  -28.1019   21.6067 C   0  0  0  0  0  0  0  0  0  0  0  0
  -27.9113  -28.3941   25.9186 C   0  0  0  0  0  0  0  0  0  0  0  0
  -24.5564  -26.8853   20.9099 C   0  0  0  0  0  0  0  0  0  0  0  0
  -24.3714  -12.2583   20.4821 C   0  0  0  0  0  0  0  0  0  0  0  0
  -25.6246  -27.9643   19.0113 C   0  0  0  0  0  0  0  0  0  0  0  0
  -23.0130  -10.3858   20.8951 C   0  0  0  0  0  0  0  0  0  0  0  0
  -22.7770   -7.7386   21.7435 C   0  0  0  0  0  0  0  0  0  0  0  0
  -22.2028  -10.0728   21.9866 C   0  0  0  0  0  0  0  0  0  0  0  0
  -28.2281  -13.9969   20.5111 C   0  0  0  0  0  0  0  0  0  0  0  0
  -30.2231  -22.9949   17.2651 C   0  0  0  0  0  0  0  0  0  0  0  0
  -30.3813  -14.3772   20.2786 C   0  0  0  0  0  0  0  0  0  0  0  0
  -29.6382  -22.2431   16.2677 C   0  0  0  0  0  0  0  0  0  0  0  0
  -29.8231  -21.1722   18.4175 C   0  0  0  0  0  0  0  0  0  0  0  0
  -29.6533  -12.1276   19.4673 C   0  0  0  0  0  0  0  0  0  0  0  0
  -25.3023  -26.4174   24.2043 C   0  0  0  0  0  0  0  0  0  0  0  0
  -29.7369  -26.6128   20.1858 C   0  0  0  0  0  0  0  0  0  0  0  0
  -22.5761  -24.8276   23.4541 C   0  0  0  0  0  0  0  0  0  0  0  0
  -20.3154  -23.9209   21.0638 C   0  0  0  0  0  0  0  0  0  0  0  0
  -30.1563  -20.3283   20.7676 C   0  0  0  0  0  0  0  0  0  0  0  0
  -27.5744  -28.1544   28.4326 C   0  0  0  0  0  0  0  0  0  0  0  0
  -23.9981  -28.2003   22.9893 C   0  0  0  0  0  0  0  0  0  0  0  0
  -23.9809  -25.6342   21.5198 C   0  0  0  0  0  0  0  0  0  0  0  0
  -26.5827  -27.0411   28.1047 C   0  0  0  0  0  0  0  0  0  0  0  0
  -31.3905  -18.0371   23.1975 C   0  0  0  0  0  0  0  0  0  0  0  0
  -27.0788  -26.2155   26.9219 C   0  0  0  0  0  0  0  0  0  0  0  0
  -30.8336  -16.6874   22.7390 C   0  0  0  0  0  0  0  0  0  0  0  0
  -30.3978  -19.1725   22.9541 C   0  0  0  0  0  0  0  0  0  0  0  0
  -29.3312  -17.9180   21.1217 C   0  0  0  0  0  0  0  0  0  0  0  0
  -27.2074  -27.0793   25.6615 C   0  0  1  0  0  0  0  0  0  0  0  0
  -23.9520  -26.8594   23.7153 C   0  0  1  0  0  0  0  0  0  0  0  0
  -30.3211  -16.7532   21.2869 C   0  0  2  0  0  0  0  0  0  0  0  0
  -18.2137  -22.5872   20.7449 C   0  0  0  0  0  0  0  0  0  0  0  0
  -28.2034  -24.0918   20.9473 C   0  0  0  0  0  0  0  0  0  0  0  0
  -29.0883  -24.3380   23.2763 C   0  0  0  0  0  0  0  0  0  0  0  0
  -33.5543  -29.6170   18.9156 C   0  0  0  0  0  0  0  0  0  0  0  0
  -33.8960  -27.1717   18.5065 C   0  0  0  0  0  0  0  0  0  0  0  0
  -24.2011  -22.2471   23.5568 C   0  0  0  0  0  0  0  0  0  0  0  0
  -22.3392  -21.1079   22.3305 C   0  0  0  0  0  0  0  0  0  0  0  0
  -21.9274  -22.0898   24.5864 C   0  0  0  0  0  0  0  0  0  0  0  0
  -18.7945  -26.3071   20.1965 C   0  0  0  0  0  0  0  0  0  0  0  0
  -30.7422  -24.4056   17.1193 C   0  0  0  0  0  0  0  0  0  0  0  0
  -29.9964  -25.8077   21.4530 C   0  0  0  0  0  0  0  0  0  0  0  0
  -31.6947  -28.0224   19.4773 C   0  0  0  0  0  0  0  0  0  0  0  0
  -26.7022  -26.6438   17.3527 C   0  0  0  0  0  0  0  0  0  1  0  0
  -30.9029  -26.7370   19.2120 C   0  0  2  0  0  0  0  0  0  0  0  0
  -22.2383  -23.6271   22.6034 C   0  0  1  0  0  0  0  0  0  0  0  0
  -18.7979  -23.9585   21.0466 C   0  0  2  0  0  0  0  0  0  0  0  0
  -28.7516  -25.0787   21.9808 C   0  0  0  0  0  0  0  0  0  0  0  0
  -32.8700  -28.3052   18.5193 C   0  0  0  0  0  0  0  0  0  0  0  0
  -29.6902  -25.4863   17.4222 C   0  0  2  0  0  0  0  0  0  0  0  0
  -27.7924  -26.8991   16.3186 C   0  0  1  0  0  0  0  0  0  0  0  0
  -28.8122  -25.7614   16.1941 C   0  0  1  0  0  0  0  0  0  0  0  0
  -22.6892  -22.2909   23.2583 C   0  0  0  0  0  0  0  0  0  0  0  0
  -28.4045  -15.2289   20.9960 N   0  0  0  0  0  0  0  0  0  0  0  0
  -30.3295  -22.3826   18.4986 N   0  0  0  0  0  0  0  0  0  0  0  0
  -29.7240  -15.4316   20.8410 N   0  0  0  0  0  0  0  0  0  0  0  0
  -23.4275  -25.7800   22.8762 N   0  0  0  0  0  0  0  0  0  0  0  0
  -29.9593  -19.1753   21.5568 N   0  0  0  0  0  0  0  0  0  0  0  0
  -31.7115  -14.4133   20.0513 N   0  0  0  0  0  0  0  0  0  0  0  0
  -28.5603  -11.2655   19.3045 N   0  0  0  0  0  0  0  0  0  0  0  0
  -29.7291  -20.2023   19.4461 N   0  0  0  0  0  0  0  0  0  0  0  0
  -25.9062  -27.3084   25.0708 N   0  0  0  0  0  0  0  0  0  0  0  0
  -20.8066  -23.7074   22.3343 N   0  0  0  0  0  0  0  0  0  0  0  0
  -18.3151  -24.9135   20.0095 N   0  3  0  0  0  0  0  0  0  0  0  0
  -30.3889  -26.7375   17.8124 N   0  3  0  0  0  0  0  0  0  0  0  0
  -30.7951  -11.7443   19.1168 O   0  0  0  0  0  0  0  0  0  0  0  0
  -25.7616  -25.3466   23.8248 O   0  0  0  0  0  0  0  0  0  0  0  0
  -28.6571  -27.1670   19.9783 O   0  0  0  0  0  0  0  0  0  0  0  0
  -22.0965  -24.9204   24.5868 O   0  0  0  0  0  0  0  0  0  0  0  0
  -20.9967  -24.0628   20.0507 O   0  0  0  0  0  0  0  0  0  0  0  0
  -30.6911  -21.3426   21.2226 O   0  0  0  0  0  0  0  0  0  0  0  0
  -27.1442  -27.0386   15.0472 O   0  0  0  0  0  0  0  0  0  0  0  0
  -23.1305  -11.6992   20.4722 O   0  0  0  0  0  0  0  0  0  0  0  0
  -26.1375  -27.8923   17.7441 O   0  0  0  0  0  0  0  0  0  1  0  0
  -22.6626   -6.4674   22.1498 F   0  0  0  0  0  0  0  0  0  0  0  0
  -21.5345  -11.0392   22.6309 F   0  0  0  0  0  0  0  0  0  0  0  0
  -29.4421  -22.6460   15.0096 F   0  0  0  0  0  0  0  0  0  0  0  0
  -29.6384  -26.0784   15.1486 F   0  0  0  0  0  0  0  0  0  0  0  0
  -29.2017  -20.7048   16.8877 S   0  0  0  0  0  0  0  0  0  0  0  0
  1  2  1  0  0  0  0
  1  5  2  0  0  0  0
  2  6  2  0  0  0  0
  3  8  2  0  0  0  0
  3 15  1  0  0  0  0
  4  9  1  0  0  0  0
  4 15  2  0  0  0  0
  5 17  1  0  0  0  0
  6 19  1  0  0  0  0
  7 10  2  0  0  0  0
  7 18  1  0  0  0  0
  8 21  1  0  0  0  0
  9 21  2  0  0  0  0
 10 22  1  0  0  0  0
 11 12  2  0  0  0  0
 11 23  1  0  0  0  0
 12 24  1  0  0  0  0
 13 20  1  0  0  0  0
 13 22  2  0  0  0  0
 14 24  2  0  0  0  0
 14 25  1  0  0  0  0
 15 26  1  0  0  0  0
 16 26  1  0  0  0  0
 16 28  2  0  0  0  0
 16 31  1  0  0  0  0
 17 19  2  0  0  0  0
 17 37  1  0  0  0  0
 18 20  2  0  0  0  0
 18 38  1  0  0  0  0
 19 46  1  0  0  0  0
 20 39  1  0  0  0  0
 21 90  1  0  0  0  0
 22 91  1  0  0  0  0
 23 25  2  0  0  0  0
 23 90  1  0  0  0  0
 24 92  1  0  0  0  0
 25 93  1  0  0  0  0
 26 71  2  0  0  0  0
 27 29  2  0  0  0  0
 27 58  1  0  0  0  0
 27 72  1  0  0  0  0
 28 73  1  0  0  0  0
 28 76  1  0  0  0  0
 29 94  1  0  0  0  0
 29 96  1  0  0  0  0
 30 72  2  0  0  0  0
 30 78  1  0  0  0  0
 30 96  1  0  0  0  0
 31 77  1  0  0  0  0
 31 83  2  0  0  0  0
 32 47  1  0  0  0  0
 32 79  1  0  0  0  0
 32 84  2  0  0  0  0
 33 59  1  0  0  0  0
 33 62  1  0  0  0  0
 33 85  2  0  0  0  0
 34 63  1  0  0  0  0
 34 74  1  0  0  0  0
 34 86  2  0  0  0  0
 35 64  1  0  0  0  0
 35 80  1  0  0  0  0
 35 87  2  0  0  0  0
 36 75  1  0  0  0  0
 36 78  1  0  0  0  0
 36 88  2  0  0  0  0
 37 40  1  0  0  0  0
 38 47  1  0  0  0  0
 39 74  1  0  0  0  0
 40 42  1  0  0  0  0
 41 43  1  0  0  0  0
 41 44  1  0  0  0  0
 42 46  1  0  0  0  0
 43 48  1  0  0  0  0
 44 75  1  0  0  0  0
 45 48  1  0  0  0  0
 45 75  1  0  0  0  0
 46 79  1  0  0  0  0
 47 74  1  0  0  0  0
 48 73  1  0  0  0  0
 49 64  1  0  0  0  0
 50 65  1  0  0  0  0
 51 65  1  0  0  0  0
 52 66  1  0  0  0  0
 53 66  1  0  0  0  0
 54 70  1  0  0  0  0
 55 70  1  0  0  0  0
 56 70  1  0  0  0  0
 57 81  1  0  0  0  0
 58 67  1  0  0  0  0
 59 65  1  0  0  0  0
 60 62  1  0  0  0  0
 60 66  1  0  0  0  0
 61 68  1  0  0  0  0
 61 91  1  0  0  0  0
 62 82  1  0  0  0  0
 63 70  1  0  0  0  0
 63 80  1  0  0  0  0
 64 81  1  0  0  0  0
 67 69  1  0  0  0  0
 67 82  1  0  0  0  0
 68 69  1  0  0  0  0
 68 89  1  0  0  0  0
 69 95  1  0  0  0  0
 71 73  1  0  0  0  0
M  CHG  2  81   1  82   1
M  ISO  4  36 100  61 101  78 100  91 101
M  END
> <Batch ID>
0188

> <Smiles>
CNC(C)C(=O)NC(C(=O)N1Cc2cc([101O:1][101CH2:1]C(O)C(F)C(Cc3nc([100NH:0][100C:0](=O)N4CCCC(n5nc(-c6ccc(Oc7ccc(F)cc7F)cc6)c(C(N)=O)c5N)C4)sc3F)NC(CC(C)C)C(=O)CC(C)C)ccc2CC1C(=O)NC1CCCc2ccccc21)C(C)(C)C

> <Shape>
0.242

> <Color>
0.067

> <Negative vol penalty>
0.000

$$$$

  -OEChem-04052305153D

 86 94  0     1  0  0  0  0  0999 V2000
  -30.0029  -30.0404   14.6075 C   0  0  0  0  0  0  0  0  0  0  0  0
  -29.9832  -29.3069   15.7895 C   0  0  0  0  0  0  0  0  0  0  0  0
  -23.0084   -9.8051   20.0318 C   0  0  0  0  0  0  0  0  0  0  0  0
  -23.5683  -10.1099   22.3622 C   0  0  0  0  0  0  0  0  0  0  0  0
  -29.3129  -31.2492   14.5270 C   0  0  0  0  0  0  0  0  0  0  0  0
  -29.2744  -29.7825   16.8921 C   0  0  0  0  0  0  0  0  0  0  0  0
  -26.5228  -26.1724   19.1373 C   0  0  0  0  0  0  0  0  0  0  0  0
  -22.2025   -8.7173   20.3677 C   0  0  0  0  0  0  0  0  0  0  0  0
  -22.7623   -9.0221   22.6981 C   0  0  0  0  0  0  0  0  0  0  0  0
  -27.1996  -25.2792   19.9667 C   0  0  0  0  0  0  0  0  0  0  0  0
  -22.9735   -5.6486   22.6252 C   0  0  0  0  0  0  0  0  0  0  0  0
  -23.4856   -4.7170   23.5282 C   0  0  0  0  0  0  0  0  0  0  0  0
  -26.4638  -26.5241   21.8975 C   0  0  0  0  0  0  0  0  0  0  0  0
  -21.6518   -5.1692   25.0348 C   0  0  0  0  0  0  0  0  0  0  0  0
  -31.8222  -17.4607   21.5336 C   0  0  0  0  0  0  0  0  0  0  0  0
  -23.6913  -10.5014   21.0291 C   0  0  0  0  0  0  0  0  0  0  0  0
  -24.1380  -12.9759   20.5989 C   0  0  0  0  0  0  0  0  0  0  0  0
  -28.5873  -31.7351   15.6261 C   0  0  0  0  0  0  0  0  0  0  0  0
  -25.8193  -27.2562   19.6820 C   0  0  0  0  0  0  0  0  0  0  0  0
  -28.5752  -30.9997   16.8267 C   0  0  0  0  0  0  0  0  0  0  0  0
  -25.7767  -27.4281   21.0730 C   0  0  0  0  0  0  0  0  0  0  0  0
  -22.0794   -8.3258   21.7009 C   0  0  0  0  0  0  0  0  0  0  0  0
  -27.1726  -25.4566   21.3469 C   0  0  0  0  0  0  0  0  0  0  0  0
  -21.8005   -6.3406   22.9269 C   0  0  0  0  0  0  0  0  0  0  0  0
  -22.8248   -4.4773   24.7330 C   0  0  0  0  0  0  0  0  0  0  0  0
  -21.1397   -6.1009   24.1317 C   0  0  0  0  0  0  0  0  0  0  0  0
  -24.5244  -11.6248   20.6826 C   0  0  0  0  0  0  0  0  0  0  0  0
  -25.2850  -13.6393   20.2374 C   0  0  0  0  0  0  0  0  0  0  0  0
  -30.5826  -16.8835   21.7131 C   0  0  0  0  0  0  0  0  0  0  0  0
  -30.8129  -19.1445   22.5113 C   0  0  0  0  0  0  0  0  0  0  0  0
  -22.8567  -13.5774   20.8276 C   0  0  0  0  0  0  0  0  0  0  0  0
  -26.0459  -30.4188   19.4569 C   0  0  0  0  0  0  0  0  0  0  0  0
  -29.1948  -22.6273   22.5808 C   0  0  0  0  0  0  0  0  0  0  0  0
  -23.3102  -30.3485   21.1987 C   0  0  0  0  0  0  0  0  0  0  0  0
  -21.3067  -28.6520   23.3792 C   0  0  0  0  0  0  0  0  0  0  0  0
  -30.7518  -14.5571   20.7614 C   0  0  0  0  0  0  0  0  0  0  0  0
  -27.8959  -33.0702   15.5067 C   0  0  0  0  0  0  0  0  0  0  0  0
  -25.0722  -28.1954   18.7753 C   0  0  0  0  0  0  0  0  0  0  0  0
  -25.0191  -28.5639   21.7089 C   0  0  0  0  0  0  0  0  0  0  0  0
  -26.8607  -33.3201   16.6004 C   0  0  0  0  0  0  0  0  0  0  0  0
  -29.7538  -11.8684   18.6515 C   0  0  0  0  0  0  0  0  0  0  0  0
  -27.4310  -32.9578   17.9680 C   0  0  0  0  0  0  0  0  0  0  0  0
  -28.2726  -11.6765   18.9849 C   0  0  0  0  0  0  0  0  0  0  0  0
  -30.5704  -12.2376   19.8887 C   0  0  0  0  0  0  0  0  0  0  0  0
  -28.5809  -13.1954   20.9811 C   0  0  0  0  0  0  0  0  0  0  0  0
  -27.7973  -31.4703   18.0365 C   0  0  1  0  0  0  0  0  0  0  0  0
  -24.8145  -29.5590   19.4089 C   0  0  1  0  0  0  0  0  0  0  0  0
  -27.7069  -12.8860   19.7547 C   0  0  2  0  0  0  0  0  0  0  0  0
  -19.1546  -28.8667   24.6519 C   0  0  0  0  0  0  0  0  0  0  0  0
  -33.3766  -21.6436   25.7498 C   0  0  0  0  0  0  0  0  0  0  0  0
  -32.5232  -19.3181   25.3708 C   0  0  0  0  0  0  0  0  0  0  0  0
  -30.9673  -21.1313   26.0956 C   0  0  0  0  0  0  0  0  0  0  0  0
  -24.6743  -32.2210   23.1844 C   0  0  0  0  0  0  0  0  0  0  0  0
  -22.8935  -31.6424   24.8465 C   0  0  0  0  0  0  0  0  0  0  0  0
  -22.2815  -32.7701   22.7072 C   0  0  0  0  0  0  0  0  0  0  0  0
  -20.1273  -26.3093   22.0081 C   0  0  0  0  0  0  0  0  0  0  0  0
  -29.9659  -21.4347   22.0291 C   0  0  0  0  0  0  0  0  0  0  0  0
  -28.5331  -23.5162   21.5459 C   0  0  0  0  0  0  0  0  0  1  0  0
  -31.8295  -21.1694   23.7459 C   0  0  0  0  0  0  0  0  0  0  0  0
  -30.5649  -20.5159   23.1206 C   0  0  2  0  0  0  0  0  0  0  0  0
  -22.9807  -30.3408   22.6719 C   0  0  1  0  0  0  0  0  0  0  0  0
  -19.8135  -28.3788   23.3711 C   0  0  2  0  0  0  0  0  0  0  0  0
  -32.1987  -20.8132   25.2181 C   0  0  0  0  0  0  0  0  0  0  0  0
  -23.2235  -31.7232   23.3407 C   0  0  0  0  0  0  0  0  0  0  0  0
  -31.9561  -18.7574   21.9903 N   0  0  0  0  0  0  0  0  0  0  0  0
  -25.8160  -11.4392   20.3971 N   0  0  0  0  0  0  0  0  0  0  0  0
  -26.2510  -12.6825   20.1304 N   0  0  0  0  0  0  0  0  0  0  0  0
  -24.3098  -29.4590   20.7798 N   0  0  0  0  0  0  0  0  0  0  0  0
  -29.9778  -13.3941   20.5641 N   0  0  0  0  0  0  0  0  0  0  0  0
  -25.5514  -14.9419   20.0037 N   0  0  0  0  0  0  0  0  0  0  0  0
  -21.7858  -12.7502   21.1924 N   0  0  0  0  0  0  0  0  0  0  0  0
  -30.0723  -15.6030   21.3850 N   0  0  0  0  0  0  0  0  0  0  0  0
  -26.6088  -30.6650   18.2192 N   0  0  0  0  0  0  0  0  0  0  0  0
  -21.6087  -29.8570   22.7807 N   0  0  0  0  0  0  0  0  0  0  0  0
  -19.5551  -26.9172   23.2369 N   0  3  0  0  0  0  0  0  0  0  0  0
  -22.6634  -14.8098   20.6959 O   0  0  0  0  0  0  0  0  0  0  0  0
  -26.4541  -30.8296   20.5368 O   0  0  0  0  0  0  0  0  0  0  0  0
  -29.0849  -22.8461   23.7861 O   0  0  0  0  0  0  0  0  0  0  0  0
  -22.6981  -31.1105   20.4461 O   0  0  0  0  0  0  0  0  0  0  0  0
  -22.1232  -27.8760   23.8708 O   0  0  0  0  0  0  0  0  0  0  0  0
  -31.9225  -14.6302   20.3791 O   0  0  0  0  0  0  0  0  0  0  0  0
  -21.2929   -7.2646   22.0290 O   0  0  0  0  0  0  0  0  0  0  0  0
  -27.8397  -24.5777   22.1671 O   0  0  0  0  0  0  0  0  0  1  0  0
  -23.3159   -3.5815   25.5993 F   0  0  0  0  0  0  0  0  0  0  0  0
  -20.0118   -6.7617   24.4267 F   0  0  0  0  0  0  0  0  0  0  0  0
  -29.5347  -17.9998   22.4859 S   0  0  0  0  0  0  0  0  0  0  0  0
  1  2  1  0  0  0  0
  1  5  2  0  0  0  0
  2  6  2  0  0  0  0
  3  8  2  0  0  0  0
  3 16  1  0  0  0  0
  4  9  1  0  0  0  0
  4 16  2  0  0  0  0
  5 18  1  0  0  0  0
  6 20  1  0  0  0  0
  7 10  2  0  0  0  0
  7 19  1  0  0  0  0
  8 22  1  0  0  0  0
  9 22  2  0  0  0  0
 10 23  1  0  0  0  0
 11 12  2  0  0  0  0
 11 24  1  0  0  0  0
 12 25  1  0  0  0  0
 13 21  1  0  0  0  0
 13 23  2  0  0  0  0
 14 25  2  0  0  0  0
 14 26  1  0  0  0  0
 15 29  2  0  0  0  0
 15 65  1  0  0  0  0
 16 27  1  0  0  0  0
 17 27  1  0  0  0  0
 17 28  2  0  0  0  0
 17 31  1  0  0  0  0
 18 20  2  0  0  0  0
 18 37  1  0  0  0  0
 19 21  2  0  0  0  0
 19 38  1  0  0  0  0
 20 46  1  0  0  0  0
 21 39  1  0  0  0  0
 22 82  1  0  0  0  0
 23 83  1  0  0  0  0
 24 26  2  0  0  0  0
 24 82  1  0  0  0  0
 25 84  1  0  0  0  0
 26 85  1  0  0  0  0
 27 66  2  0  0  0  0
 28 67  1  0  0  0  0
 28 70  1  0  0  0  0
 29 72  1  0  0  0  0
 29 86  1  0  0  0  0
 30 60  1  0  0  0  0
 30 65  2  0  0  0  0
 30 86  1  0  0  0  0
 31 71  1  0  0  0  0
 31 76  2  0  0  0  0
 32 47  1  0  0  0  0
 32 73  1  0  0  0  0
 32 77  2  0  0  0  0
 33 57  1  0  0  0  0
 33 58  1  0  0  0  0
 33 78  2  0  0  0  0
 34 61  1  0  0  0  0
 34 68  1  0  0  0  0
 34 79  2  0  0  0  0
 35 62  1  0  0  0  0
 35 74  1  0  0  0  0
 35 80  2  0  0  0  0
 36 69  1  0  0  0  0
 36 72  1  0  0  0  0
 36 81  2  0  0  0  0
 37 40  1  0  0  0  0
 38 47  1  0  0  0  0
 39 68  1  0  0  0  0
 40 42  1  0  0  0  0
 41 43  1  0  0  0  0
 41 44  1  0  0  0  0
 42 46  1  0  0  0  0
 43 48  1  0  0  0  0
 44 69  1  0  0  0  0
 45 48  1  0  0  0  0
 45 69  1  0  0  0  0
 46 73  1  0  0  0  0
 47 68  1  0  0  0  0
 48 67  1  0  0  0  0
 49 62  1  0  0  0  0
 50 63  1  0  0  0  0
 51 63  1  0  0  0  0
 52 63  1  0  0  0  0
 53 64  1  0  0  0  0
 54 64  1  0  0  0  0
 55 64  1  0  0  0  0
 56 75  1  0  0  0  0
 57 60  1  0  0  0  0
 58 83  1  0  0  0  0
 59 60  1  0  0  0  0
 59 63  1  0  0  0  0
 61 64  1  0  0  0  0
 61 74  1  0  0  0  0
 62 75  1  0  0  0  0
 66 67  1  0  0  0  0
M  CHG  1  75   1
M  ISO  4  36 100  58 101  72 100  83 101
M  END
> <Batch ID>
0188

> <Smiles>
CNC(C)C(=O)NC(C(=O)N1Cc2cc([101O:1][101CH2:1]C(=O)CC(CC(C)(C)C)c3ncc([100NH:0][100C:0](=O)N4CCCC(n5nc(-c6ccc(Oc7ccc(F)cc7F)cc6)c(C(N)=O)c5N)C4)s3)ccc2CC1C(=O)NC1CCCc2ccccc21)C(C)(C)C

> <Shape>
0.315

> <Color>
0.199

> <Negative vol penalty>
0.000

$$$$

  -OEChem-04052305153D

 86 94  0     1  0  0  0  0  0999 V2000
  -15.3061  -27.5221   25.2604 C   0  0  0  0  0  0  0  0  0  0  0  0
  -16.2895  -26.6700   24.7681 C   0  0  0  0  0  0  0  0  0  0  0  0
  -31.0811  -19.8967   18.5036 C   0  0  0  0  0  0  0  0  0  0  0  0
  -29.1351  -20.3862   19.8492 C   0  0  0  0  0  0  0  0  0  0  0  0
  -15.3957  -28.8944   25.0307 C   0  0  0  0  0  0  0  0  0  0  0  0
  -17.3625  -27.1896   24.0449 C   0  0  0  0  0  0  0  0  0  0  0  0
  -21.8021  -25.2087   25.4628 C   0  0  0  0  0  0  0  0  0  0  0  0
  -30.8671  -21.0634   17.7697 C   0  0  0  0  0  0  0  0  0  0  0  0
  -28.9211  -21.5529   19.1153 C   0  0  0  0  0  0  0  0  0  0  0  0
  -22.1104  -23.9338   24.9904 C   0  0  0  0  0  0  0  0  0  0  0  0
  -28.0708  -24.8460   17.8304 C   0  0  0  0  0  0  0  0  0  0  0  0
  -27.7667  -26.0102   18.5359 C   0  0  0  0  0  0  0  0  0  0  0  0
  -23.5108  -24.9105   23.2862 C   0  0  0  0  0  0  0  0  0  0  0  0
  -29.8759  -25.8535   19.7037 C   0  0  0  0  0  0  0  0  0  0  0  0
  -30.2150  -19.5580   19.5433 C   0  0  0  0  0  0  0  0  0  0  0  0
  -31.2076  -18.2125   21.4699 C   0  0  0  0  0  0  0  0  0  0  0  0
  -16.4754  -29.4321   24.3126 C   0  0  0  0  0  0  0  0  0  0  0  0
  -22.3381  -26.3465   24.8426 C   0  0  0  0  0  0  0  0  0  0  0  0
  -17.4659  -28.5702   23.8042 C   0  0  0  0  0  0  0  0  0  0  0  0
  -23.2097  -26.1986   23.7543 C   0  0  0  0  0  0  0  0  0  0  0  0
  -29.7872  -21.8915   18.0756 C   0  0  0  0  0  0  0  0  0  0  0  0
  -22.9626  -23.7846   23.9001 C   0  0  0  0  0  0  0  0  0  0  0  0
  -29.2775  -24.1855   18.0616 C   0  0  0  0  0  0  0  0  0  0  0  0
  -28.6692  -26.5140   19.4725 C   0  0  0  0  0  0  0  0  0  0  0  0
  -30.1800  -24.6893   18.9982 C   0  0  0  0  0  0  0  0  0  0  0  0
  -30.4351  -18.3527   20.3014 C   0  0  0  0  0  0  0  0  0  0  0  0
  -23.9057  -14.1582   22.1419 C   0  0  0  0  0  0  0  0  0  0  0  0
  -31.0980  -16.8829   21.7966 C   0  0  0  0  0  0  0  0  0  0  0  0
  -22.5414  -13.9649   22.0835 C   0  0  0  0  0  0  0  0  0  0  0  0
  -23.2668  -16.2427   22.3805 C   0  0  0  0  0  0  0  0  0  0  0  0
  -31.9572  -19.1962   22.1953 C   0  0  0  0  0  0  0  0  0  0  0  0
  -21.1180  -28.8567   23.3216 C   0  0  0  0  0  0  0  0  0  0  0  0
  -24.2000  -29.8685   23.3305 C   0  0  0  0  0  0  0  0  0  0  0  0
  -24.3198  -18.5106   22.6818 C   0  0  0  0  0  0  0  0  0  0  0  0
  -27.5126  -29.0650   23.4956 C   0  0  0  0  0  0  0  0  0  0  0  0
  -26.9489  -12.7265   20.6303 C   0  0  0  0  0  0  0  0  0  0  0  0
  -16.5045  -30.9168   24.0490 C   0  0  0  0  0  0  0  0  0  0  0  0
  -22.0169  -27.7137   25.3810 C   0  0  0  0  0  0  0  0  0  0  0  0
  -23.8275  -27.3873   23.0659 C   0  0  0  0  0  0  0  0  0  0  0  0
  -17.8692  -31.4282   23.5948 C   0  0  0  0  0  0  0  0  0  0  0  0
  -30.4111  -12.5839   19.8122 C   0  0  0  0  0  0  0  0  0  0  0  0
  -18.4445  -30.5230   22.5102 C   0  0  0  0  0  0  0  0  0  0  0  0
  -30.8796  -14.0336   19.9502 C   0  0  0  0  0  0  0  0  0  0  0  0
  -28.9936  -12.5000   19.2503 C   0  0  0  0  0  0  0  0  0  0  0  0
  -28.4573  -14.7420   20.1217 C   0  0  0  0  0  0  0  0  0  0  0  0
  -18.6581  -29.0986   23.0364 C   0  0  1  0  0  0  0  0  0  0  0  0
  -22.2117  -28.8223   24.3512 C   0  0  1  0  0  0  0  0  0  0  0  0
  -29.8605  -14.8797   20.7369 C   0  0  2  0  0  0  0  0  0  0  0  0
  -25.3258  -12.4964   23.4001 C   0  0  0  0  0  0  0  0  0  0  0  0
  -29.7966  -30.1030   23.4392 C   0  0  0  0  0  0  0  0  0  0  0  0
  -23.9603  -30.2257   20.3098 C   0  0  0  0  0  0  0  0  0  0  0  0
  -26.4590  -30.3316   20.1942 C   0  0  0  0  0  0  0  0  0  0  0  0
  -25.1977  -32.0560   21.4818 C   0  0  0  0  0  0  0  0  0  0  0  0
  -28.1508  -28.0883   26.2155 C   0  0  0  0  0  0  0  0  0  0  0  0
  -23.8410  -19.9473   22.8487 C   0  0  0  0  0  0  0  0  0  0  0  0
  -24.5443  -22.3677   22.8294 C   0  0  0  0  0  0  0  0  0  1  0  0
  -24.9422  -13.1091   22.0395 C   0  0  2  0  0  0  0  0  0  0  0  0
  -25.3804  -29.7087   22.4032 C   0  0  1  0  0  0  0  0  0  0  0  0
  -28.6486  -29.6398   24.3224 C   0  0  2  0  0  0  0  0  0  0  0  0
  -24.9903  -20.9297   23.0392 C   0  0  1  0  0  0  0  0  0  0  0  0
  -25.2363  -30.5580   21.1088 C   0  0  0  0  0  0  0  0  0  0  0  0
  -29.8762  -17.2038   19.9119 N   0  0  0  0  0  0  0  0  0  0  0  0
  -24.3236  -15.4638   22.3117 N   0  0  0  0  0  0  0  0  0  0  0  0
  -30.2979  -16.3290   20.8409 N   0  0  0  0  0  0  0  0  0  0  0  0
  -23.4779  -28.7034   23.6254 N   0  0  0  0  0  0  0  0  0  0  0  0
  -28.0764  -13.3231   20.0423 N   0  0  0  0  0  0  0  0  0  0  0  0
  -31.6089  -16.1452   22.8051 N   0  0  0  0  0  0  0  0  0  0  0  0
  -21.8683  -12.7996   21.9232 N   0  0  0  0  0  0  0  0  0  0  0  0
  -31.9624  -20.5152   21.7217 N   0  0  0  0  0  0  0  0  0  0  0  0
  -23.2356  -17.6473   22.5504 N   0  0  0  0  0  0  0  0  0  0  0  0
  -19.8534  -29.0342   23.8497 N   0  0  0  0  0  0  0  0  0  0  0  0
  -26.5659  -30.0210   23.1939 N   0  0  0  0  0  0  0  0  0  0  0  0
  -26.1352  -13.5764   21.3694 N   0  0  0  0  0  0  0  0  0  0  0  0
  -29.1692  -28.6148   25.2708 N   0  3  0  0  0  0  0  0  0  0  0  0
  -32.6165  -18.9104   23.2235 O   0  0  0  0  0  0  0  0  0  0  0  0
  -21.4006  -28.7331   22.1356 O   0  0  0  0  0  0  0  0  0  0  0  0
  -23.9328  -30.9848   23.7826 O   0  0  0  0  0  0  0  0  0  0  0  0
  -25.5105  -18.2168   22.6752 O   0  0  0  0  0  0  0  0  0  0  0  0
  -27.4713  -27.8867   23.1487 O   0  0  0  0  0  0  0  0  0  0  0  0
  -26.6897  -11.5242   20.5103 O   0  0  0  0  0  0  0  0  0  0  0  0
  -29.5783  -23.0302   17.3598 O   0  0  0  0  0  0  0  0  0  0  0  0
  -23.2646  -22.5413   23.4366 O   0  0  0  0  0  0  0  0  0  1  0  0
  -28.3777  -27.6328   20.1488 F   0  0  0  0  0  0  0  0  0  0  0  0
  -31.3413  -24.0598   19.2237 F   0  0  0  0  0  0  0  0  0  0  0  0
  -25.4309  -20.8182   24.3274 F   0  0  0  0  0  0  0  0  0  0  0  0
  -21.7393  -15.4717   22.2488 S   0  0  0  0  0  0  0  0  0  0  0  0
  1  2  1  0  0  0  0
  1  5  2  0  0  0  0
  2  6  2  0  0  0  0
  3  8  2  0  0  0  0
  3 15  1  0  0  0  0
  4  9  1  0  0  0  0
  4 15  2  0  0  0  0
  5 17  1  0  0  0  0
  6 19  1  0  0  0  0
  7 10  2  0  0  0  0
  7 18  1  0  0  0  0
  8 21  1  0  0  0  0
  9 21  2  0  0  0  0
 10 22  1  0  0  0  0
 11 12  2  0  0  0  0
 11 23  1  0  0  0  0
 12 24  1  0  0  0  0
 13 20  1  0  0  0  0
 13 22  2  0  0  0  0
 14 24  2  0  0  0  0
 14 25  1  0  0  0  0
 15 26  1  0  0  0  0
 16 26  1  0  0  0  0
 16 28  2  0  0  0  0
 16 31  1  0  0  0  0
 17 19  2  0  0  0  0
 17 37  1  0  0  0  0
 18 20  2  0  0  0  0
 18 38  1  0  0  0  0
 19 46  1  0  0  0  0
 20 39  1  0  0  0  0
 21 81  1  0  0  0  0
 22 82  1  0  0  0  0
 23 25  2  0  0  0  0
 23 81  1  0  0  0  0
 24 83  1  0  0  0  0
 25 84  1  0  0  0  0
 26 62  2  0  0  0  0
 27 29  2  0  0  0  0
 27 57  1  0  0  0  0
 27 63  1  0  0  0  0
 28 64  1  0  0  0  0
 28 67  1  0  0  0  0
 29 68  1  0  0  0  0
 29 86  1  0  0  0  0
 30 63  2  0  0  0  0
 30 70  1  0  0  0  0
 30 86  1  0  0  0  0
 31 69  1  0  0  0  0
 31 75  2  0  0  0  0
 32 47  1  0  0  0  0
 32 71  1  0  0  0  0
 32 76  2  0  0  0  0
 33 58  1  0  0  0  0
 33 65  1  0  0  0  0
 33 77  2  0  0  0  0
 34 55  1  0  0  0  0
 34 70  1  0  0  0  0
 34 78  2  0  0  0  0
 35 59  1  0  0  0  0
 35 72  1  0  0  0  0
 35 79  2  0  0  0  0
 36 66  1  0  0  0  0
 36 73  1  0  0  0  0
 36 80  2  0  0  0  0
 37 40  1  0  0  0  0
 38 47  1  0  0  0  0
 39 65  1  0  0  0  0
 40 42  1  0  0  0  0
 41 43  1  0  0  0  0
 41 44  1  0  0  0  0
 42 46  1  0  0  0  0
 43 48  1  0  0  0  0
 44 66  1  0  0  0  0
 45 48  1  0  0  0  0
 45 66  1  0  0  0  0
 46 71  1  0  0  0  0
 47 65  1  0  0  0  0
 48 64  1  0  0  0  0
 49 57  1  0  0  0  0
 50 59  1  0  0  0  0
 51 61  1  0  0  0  0
 52 61  1  0  0  0  0
 53 61  1  0  0  0  0
 54 74  1  0  0  0  0
 55 60  1  0  0  0  0
 56 60  1  0  0  0  0
 56 82  1  0  0  0  0
 57 73  1  0  0  0  0
 58 61  1  0  0  0  0
 58 72  1  0  0  0  0
 59 74  1  0  0  0  0
 60 85  1  0  0  0  0
 62 64  1  0  0  0  0
M  CHG  1  74   1
M  ISO  4  36 100  56 101  73 100  82 101
M  END
> <Batch ID>
0188

> <Smiles>
CNC(C)C(=O)NC(C(=O)N1Cc2cc([101O:1][101CH2:1]C(F)CC(=O)Nc3nc(C(C)[100NH:0][100C:0](=O)N4CCCC(n5nc(-c6ccc(Oc7ccc(F)cc7F)cc6)c(C(N)=O)c5N)C4)c(N)s3)ccc2CC1C(=O)NC1CCCc2ccccc21)C(C)(C)C

> <Shape>
0.271

> <Color>
0.062

> <Negative vol penalty>
0.000

$$$$

  -OEChem-04052305153D

 85 93  0     1  0  0  0  0  0999 V2000
  -25.4657  -32.8872   25.6679 C   0  0  0  0  0  0  0  0  0  0  0  0
  -24.7253  -31.7139   25.7706 C   0  0  0  0  0  0  0  0  0  0  0  0
  -24.6615   -8.5637   21.3696 C   0  0  0  0  0  0  0  0  0  0  0  0
  -23.2073  -10.4911   21.2826 C   0  0  0  0  0  0  0  0  0  0  0  0
  -26.0370  -33.2450   24.4475 C   0  0  0  0  0  0  0  0  0  0  0  0
  -24.5548  -30.8983   24.6525 C   0  0  0  0  0  0  0  0  0  0  0  0
  -24.2131  -24.7841   24.5732 C   0  0  0  0  0  0  0  0  0  0  0  0
  -23.8520   -7.9974   22.3542 C   0  0  0  0  0  0  0  0  0  0  0  0
  -22.3977   -9.9247   22.2672 C   0  0  0  0  0  0  0  0  0  0  0  0
  -23.1317  -23.9057   24.5221 C   0  0  0  0  0  0  0  0  0  0  0  0
  -20.9068   -6.3438   22.5104 C   0  0  0  0  0  0  0  0  0  0  0  0
  -20.5755   -4.9952   22.3806 C   0  0  0  0  0  0  0  0  0  0  0  0
  -25.6442  -18.6161   18.6057 C   0  0  0  0  0  0  0  0  0  0  0  0
  -24.2849  -18.9326   18.8926 C   0  0  0  0  0  0  0  0  0  0  0  0
  -23.3863  -23.7410   22.1289 C   0  0  0  0  0  0  0  0  0  0  0  0
  -21.6350   -4.5307   24.5016 C   0  0  0  0  0  0  0  0  0  0  0  0
  -24.3392   -9.8107   20.8338 C   0  0  0  0  0  0  0  0  0  0  0  0
  -25.0535  -10.2419   18.4231 C   0  0  0  0  0  0  0  0  0  0  0  0
  -25.8816  -32.4285   23.3162 C   0  0  0  0  0  0  0  0  0  0  0  0
  -24.8835  -25.1568   23.3993 C   0  0  0  0  0  0  0  0  0  0  0  0
  -25.1234  -31.2462   23.4154 C   0  0  0  0  0  0  0  0  0  0  0  0
  -24.4776  -24.6224   22.1681 C   0  0  0  0  0  0  0  0  0  0  0  0
  -22.7201   -8.6779   22.8030 C   0  0  0  0  0  0  0  0  0  0  0  0
  -22.7163  -23.3863   23.2995 C   0  0  0  0  0  0  0  0  0  0  0  0
  -21.6023   -6.7860   23.6358 C   0  0  0  0  0  0  0  0  0  0  0  0
  -20.9395   -4.0886   23.3761 C   0  0  0  0  0  0  0  0  0  0  0  0
  -21.9664   -5.8794   24.6314 C   0  0  0  0  0  0  0  0  0  0  0  0
  -25.1753  -10.3965   19.8171 C   0  0  0  0  0  0  0  0  0  0  0  0
  -26.3197  -18.1754   19.7224 C   0  0  0  0  0  0  0  0  0  0  0  0
  -26.0791  -10.9933   17.9034 C   0  0  0  0  0  0  0  0  0  0  0  0
  -23.9732  -18.7214   20.2178 C   0  0  0  0  0  0  0  0  0  0  0  0
  -24.0987   -9.4867   17.6658 C   0  0  0  0  0  0  0  0  0  0  0  0
  -25.3707  -27.8997   21.8687 C   0  0  0  0  0  0  0  0  0  0  0  0
  -27.2700  -26.0626   19.9873 C   0  0  0  0  0  0  0  0  0  0  0  0
  -21.5430  -19.3555   20.4204 C   0  0  0  0  0  0  0  0  0  0  0  0
  -28.0284  -22.9585   18.7886 C   0  0  0  0  0  0  0  0  0  0  0  0
  -29.1326  -15.7099   19.9726 C   0  0  0  0  0  0  0  0  0  0  0  0
  -26.4781  -32.8809   22.0070 C   0  0  0  0  0  0  0  0  0  0  0  0
  -26.0651  -26.0845   23.4745 C   0  0  0  0  0  0  0  0  0  0  0  0
  -25.1765  -24.9750   20.8814 C   0  0  0  0  0  0  0  0  0  0  0  0
  -26.5648  -31.7718   20.9616 C   0  0  0  0  0  0  0  0  0  0  0  0
  -30.4714  -12.5711   18.9565 C   0  0  0  0  0  0  0  0  0  0  0  0
  -25.2508  -31.0002   20.8917 C   0  0  0  0  0  0  0  0  0  0  0  0
  -29.2549  -11.6439   18.9360 C   0  0  0  0  0  0  0  0  0  0  0  0
  -30.3924  -13.5807   20.0995 C   0  0  0  0  0  0  0  0  0  0  0  0
  -27.9318  -13.4444   20.1218 C   0  0  0  0  0  0  0  0  0  0  0  0
  -24.9369  -30.3228   22.2311 C   0  0  1  0  0  0  0  0  0  0  0  0
  -26.3502  -26.7971   22.1561 C   0  0  1  0  0  0  0  0  0  0  0  0
  -27.9391  -12.4449   18.9526 C   0  0  2  0  0  0  0  0  0  0  0  0
  -19.1340  -19.8352   20.8914 C   0  0  0  0  0  0  0  0  0  0  0  0
  -29.6088  -21.7777   17.2377 C   0  0  0  0  0  0  0  0  0  0  0  0
  -25.6998  -27.1130   17.5912 C   0  0  0  0  0  0  0  0  0  0  0  0
  -26.6503  -25.2363   16.2339 C   0  0  0  0  0  0  0  0  0  0  0  0
  -28.1687  -26.9471   17.2290 C   0  0  0  0  0  0  0  0  0  0  0  0
  -29.1257  -21.3013   20.9815 C   0  0  0  0  0  0  0  0  0  0  0  0
  -27.7331  -17.7549   19.8373 C   0  0  0  0  0  0  0  0  0  0  0  0
  -21.6665  -21.5549   22.2041 C   0  0  0  0  0  0  0  0  0  1  0  0
  -27.0642  -25.2437   18.7358 C   0  0  1  0  0  0  0  0  0  0  0  0
  -20.4660  -19.4099   21.5164 C   0  0  2  0  0  0  0  0  0  0  0  0
  -29.3492  -22.2198   18.6695 C   0  0  2  0  0  0  0  0  0  0  0  0
  -20.9067  -20.3187   22.6835 C   0  0  1  0  0  0  0  0  0  0  0  0
  -26.8812  -26.1297   17.4713 C   0  0  0  0  0  0  0  0  0  0  0  0
  -26.1978  -11.1841   20.1611 N   0  0  0  0  0  0  0  0  0  0  0  0
  -26.7278  -11.5310   18.9759 N   0  0  0  0  0  0  0  0  0  0  0  0
  -26.3224  -25.8909   21.0062 N   0  0  0  0  0  0  0  0  0  0  0  0
  -29.1214  -14.3078   20.0571 N   0  0  0  0  0  0  0  0  0  0  0  0
  -26.4804  -11.2398   16.6383 N   0  0  0  0  0  0  0  0  0  0  0  0
  -23.1115   -8.7722   18.3580 N   0  0  0  0  0  0  0  0  0  0  0  0
  -22.7598  -18.9019   20.9235 N   0  0  0  0  0  0  0  0  0  0  0  0
  -25.7347  -29.1260   22.3914 N   0  0  0  0  0  0  0  0  0  0  0  0
  -28.1924  -24.3217   18.6612 N   0  0  0  0  0  0  0  0  0  0  0  0
  -27.8849  -16.3200   19.9307 N   0  0  0  0  0  0  0  0  0  0  0  0
  -29.3471  -21.0112   19.5414 N   0  3  0  0  0  0  0  0  0  0  0  0
  -24.1302   -9.4334   16.4129 O   0  0  0  0  0  0  0  0  0  0  0  0
  -24.3603  -27.6562   21.2194 O   0  0  0  0  0  0  0  0  0  0  0  0
  -28.2400  -26.8211   20.0609 O   0  0  0  0  0  0  0  0  0  0  0  0
  -21.2993  -19.6741   19.2601 O   0  0  0  0  0  0  0  0  0  0  0  0
  -26.9578  -22.3836   18.9723 O   0  0  0  0  0  0  0  0  0  0  0  0
  -30.1772  -16.3687   19.9316 O   0  0  0  0  0  0  0  0  0  0  0  0
  -21.7524  -19.5864   23.5729 O   0  0  0  0  0  0  0  0  0  0  0  0
  -21.9298   -8.1254   23.7636 O   0  0  0  0  0  0  0  0  0  0  0  0
  -21.6606  -22.5292   23.2467 O   0  0  0  0  0  0  0  0  0  1  0  0
  -20.6199   -2.7937   23.2521 F   0  0  0  0  0  0  0  0  0  0  0  0
  -22.6336   -6.2984   25.7154 F   0  0  0  0  0  0  0  0  0  0  0  0
  -25.3163  -18.1442   21.1096 S   0  0  0  0  0  0  0  0  0  0  0  0
  1  2  1  0  0  0  0
  1  5  2  0  0  0  0
  2  6  2  0  0  0  0
  3  8  2  0  0  0  0
  3 17  1  0  0  0  0
  4  9  1  0  0  0  0
  4 17  2  0  0  0  0
  5 19  1  0  0  0  0
  6 21  1  0  0  0  0
  7 10  2  0  0  0  0
  7 20  1  0  0  0  0
  8 23  1  0  0  0  0
  9 23  2  0  0  0  0
 10 24  1  0  0  0  0
 11 12  2  0  0  0  0
 11 25  1  0  0  0  0
 12 26  1  0  0  0  0
 13 14  1  0  0  0  0
 13 29  2  0  0  0  0
 14 31  2  0  0  0  0
 15 22  1  0  0  0  0
 15 24  2  0  0  0  0
 16 26  2  0  0  0  0
 16 27  1  0  0  0  0
 17 28  1  0  0  0  0
 18 28  1  0  0  0  0
 18 30  2  0  0  0  0
 18 32  1  0  0  0  0
 19 21  2  0  0  0  0
 19 38  1  0  0  0  0
 20 22  2  0  0  0  0
 20 39  1  0  0  0  0
 21 47  1  0  0  0  0
 22 40  1  0  0  0  0
 23 81  1  0  0  0  0
 24 82  1  0  0  0  0
 25 27  2  0  0  0  0
 25 81  1  0  0  0  0
 26 83  1  0  0  0  0
 27 84  1  0  0  0  0
 28 63  2  0  0  0  0
 29 56  1  0  0  0  0
 29 85  1  0  0  0  0
 30 64  1  0  0  0  0
 30 67  1  0  0  0  0
 31 69  1  0  0  0  0
 31 85  1  0  0  0  0
 32 68  1  0  0  0  0
 32 74  2  0  0  0  0
 33 48  1  0  0  0  0
 33 70  1  0  0  0  0
 33 75  2  0  0  0  0
 34 58  1  0  0  0  0
 34 65  1  0  0  0  0
 34 76  2  0  0  0  0
 35 59  1  0  0  0  0
 35 69  1  0  0  0  0
 35 77  2  0  0  0  0
 36 60  1  0  0  0  0
 36 71  1  0  0  0  0
 36 78  2  0  0  0  0
 37 66  1  0  0  0  0
 37 72  1  0  0  0  0
 37 79  2  0  0  0  0
 38 41  1  0  0  0  0
 39 48  1  0  0  0  0
 40 65  1  0  0  0  0
 41 43  1  0  0  0  0
 42 44  1  0  0  0  0
 42 45  1  0  0  0  0
 43 47  1  0  0  0  0
 44 49  1  0  0  0  0
 45 66  1  0  0  0  0
 46 49  1  0  0  0  0
 46 66  1  0  0  0  0
 47 70  1  0  0  0  0
 48 65  1  0  0  0  0
 49 64  1  0  0  0  0
 50 59  1  0  0  0  0
 51 60  1  0  0  0  0
 52 62  1  0  0  0  0
 53 62  1  0  0  0  0
 54 62  1  0  0  0  0
 55 73  1  0  0  0  0
 56 72  1  0  0  0  0
 57 61  1  0  0  0  0
 57 82  1  0  0  0  0
 58 62  1  0  0  0  0
 58 71  1  0  0  0  0
 59 61  1  0  0  0  0
 60 73  1  0  0  0  0
 61 80  1  0  0  0  0
 63 64  1  0  0  0  0
M  CHG  1  73   1
M  ISO  4  37 100  57 101  72 100  82 101
M  END
> <Batch ID>
0188

> <Smiles>
CNC(C)C(=O)NC(C(=O)N1Cc2cc([101O:1][101CH2:1]C(O)C(C)C(=O)Nc3ccc(C[100NH:0][100C:0](=O)N4CCCC(n5nc(-c6ccc(Oc7ccc(F)cc7F)cc6)c(C(N)=O)c5N)C4)s3)ccc2CC1C(=O)NC1CCCc2ccccc21)C(C)(C)C

> <Shape>
0.226

> <Color>
0.075

> <Negative vol penalty>
0.000

$$$$

  -OEChem-04052305153D

 83 90  0     1  0  0  0  0  0999 V2000
  -30.6030  -27.8085   28.3604 C   0  0  0  0  0  0  0  0  0  0  0  0
  -30.7329  -26.7889   27.4229 C   0  0  0  0  0  0  0  0  0  0  0  0
  -23.0013   -9.9251   19.9759 C   0  0  0  0  0  0  0  0  0  0  0  0
  -23.7374   -9.9568   22.2768 C   0  0  0  0  0  0  0  0  0  0  0  0
  -29.4174  -28.5385   28.4350 C   0  0  0  0  0  0  0  0  0  0  0  0
  -29.6768  -26.4979   26.5602 C   0  0  0  0  0  0  0  0  0  0  0  0
  -30.0839  -24.6209   20.7449 C   0  0  0  0  0  0  0  0  0  0  0  0
  -22.2331   -8.7905   20.2373 C   0  0  0  0  0  0  0  0  0  0  0  0
  -22.9693   -8.8223   22.5382 C   0  0  0  0  0  0  0  0  0  0  0  0
  -30.0035  -23.3583   20.1590 C   0  0  0  0  0  0  0  0  0  0  0  0
  -23.2029   -5.4864   22.0400 C   0  0  0  0  0  0  0  0  0  0  0  0
  -23.7914   -4.4621   22.7816 C   0  0  0  0  0  0  0  0  0  0  0  0
  -27.6686  -23.7346   19.6833 C   0  0  0  0  0  0  0  0  0  0  0  0
  -22.0760   -4.6966   24.4668 C   0  0  0  0  0  0  0  0  0  0  0  0
  -23.7535  -10.5082   20.9957 C   0  0  0  0  0  0  0  0  0  0  0  0
  -24.1444  -13.0241   20.8368 C   0  0  0  0  0  0  0  0  0  0  0  0
  -28.3498  -28.2626   27.5663 C   0  0  0  0  0  0  0  0  0  0  0  0
  -28.9528  -25.4468   20.8143 C   0  0  0  0  0  0  0  0  0  0  0  0
  -28.4754  -27.2239   26.6241 C   0  0  0  0  0  0  0  0  0  0  0  0
  -27.7380  -25.0082   20.2684 C   0  0  0  0  0  0  0  0  0  0  0  0
  -22.2171   -8.2391   21.5185 C   0  0  0  0  0  0  0  0  0  0  0  0
  -28.7950  -22.9138   19.6307 C   0  0  0  0  0  0  0  0  0  0  0  0
  -22.0510   -6.1159   22.5118 C   0  0  0  0  0  0  0  0  0  0  0  0
  -23.2279   -4.0672   23.9950 C   0  0  0  0  0  0  0  0  0  0  0  0
  -21.4875   -5.7210   23.7251 C   0  0  0  0  0  0  0  0  0  0  0  0
  -24.5476  -11.6798   20.7261 C   0  0  0  0  0  0  0  0  0  0  0  0
  -25.2542  -13.7466   20.4726 C   0  0  0  0  0  0  0  0  0  0  0  0
  -22.8796  -13.5707   21.2334 C   0  0  0  0  0  0  0  0  0  0  0  0
  -27.2492  -26.7237   23.1746 C   0  0  0  0  0  0  0  0  0  0  0  0
  -25.7224  -28.2246   20.7377 C   0  0  0  0  0  0  0  0  0  0  0  0
  -24.8701  -28.2539   17.4332 C   0  0  0  0  0  0  0  0  0  0  0  0
  -30.7541  -14.6655   20.7022 C   0  0  0  0  0  0  0  0  0  0  0  0
  -27.0706  -29.0473   27.7163 C   0  0  0  0  0  0  0  0  0  0  0  0
  -29.0627  -26.8166   21.4257 C   0  0  0  0  0  0  0  0  0  0  0  0
  -26.4995  -25.8646   20.2995 C   0  0  0  0  0  0  0  0  0  0  0  0
  -26.1363  -28.9244   26.5153 C   0  0  0  0  0  0  0  0  0  0  0  0
  -29.5962  -12.2625   18.3439 C   0  0  0  0  0  0  0  0  0  0  0  0
  -26.0057  -27.4661   26.0875 C   0  0  0  0  0  0  0  0  0  0  0  0
  -28.1490  -12.0032   18.7664 C   0  0  0  0  0  0  0  0  0  0  0  0
  -30.5049  -12.4865   19.5506 C   0  0  0  0  0  0  0  0  0  0  0  0
  -28.6031  -13.2766   20.9044 C   0  0  0  0  0  0  0  0  0  0  0  0
  -27.3612  -26.8947   25.6543 C   0  0  1  0  0  0  0  0  0  0  0  0
  -27.7222  -27.3676   21.9021 C   0  0  1  0  0  0  0  0  0  0  0  0
  -27.6380  -13.1004   19.7195 C   0  0  2  0  0  0  0  0  0  0  0  0
  -23.5846  -29.5900   15.7421 C   0  0  0  0  0  0  0  0  0  0  0  0
  -23.1056  -27.1496   21.8810 C   0  0  0  0  0  0  0  0  0  0  0  0
  -22.0104  -27.6874   19.6948 C   0  0  0  0  0  0  0  0  0  0  0  0
  -22.9986  -29.5149   21.0757 C   0  0  0  0  0  0  0  0  0  0  0  0
  -31.7970  -15.7127   24.0033 C   0  0  0  0  0  0  0  0  0  0  0  0
  -27.2912  -28.7332   15.7999 C   0  0  0  0  0  0  0  0  0  0  0  0
  -29.5866  -20.6722   19.5639 C   0  0  0  0  0  0  0  0  0  1  0  0
  -24.5309  -27.9082   19.8663 C   0  0  1  0  0  0  0  0  0  0  0  0
  -24.9420  -29.3487   16.3841 C   0  0  2  0  0  0  0  0  0  0  0  0
  -30.8479  -16.8352   21.9034 C   0  0  1  0  0  0  0  0  0  0  0  0
  -28.9932  -19.2803   19.3846 C   0  0  1  0  0  0  0  0  0  0  0  0
  -30.0876  -18.0697   21.3925 C   0  0  1  0  0  0  0  0  0  0  0  0
  -29.8518  -18.1208   19.8834 C   0  0  1  0  0  0  0  0  0  0  0  0
  -23.1841  -28.0479   20.6304 C   0  0  0  0  0  0  0  0  0  0  0  0
  -31.0447  -16.8949   23.4222 C   0  0  0  0  0  0  0  0  0  0  0  0
  -25.8147  -11.5532   20.3230 N   0  0  0  0  0  0  0  0  0  0  0  0
  -26.2172  -12.8271   20.1771 N   0  0  0  0  0  0  0  0  0  0  0  0
  -26.6561  -27.1935   20.9135 N   0  0  0  0  0  0  0  0  0  0  0  0
  -29.9648  -13.5401   20.4133 N   0  0  0  0  0  0  0  0  0  0  0  0
  -25.4906  -15.0724   20.3795 N   0  0  0  0  0  0  0  0  0  0  0  0
  -21.8472  -12.6866   21.5752 N   0  0  0  0  0  0  0  0  0  0  0  0
  -27.6986  -27.3486   24.3222 N   0  0  0  0  0  0  0  0  0  0  0  0
  -24.6439  -28.7675   18.6927 N   0  0  0  0  0  0  0  0  0  0  0  0
  -30.1640  -15.6196   21.5221 N   0  0  0  0  0  0  0  0  0  0  0  0
  -25.9090  -28.9768   15.3128 N   0  3  0  0  0  0  0  0  0  0  0  0
  -22.6662  -14.8064   21.2676 O   0  0  0  0  0  0  0  0  0  0  0  0
  -26.5285  -25.7341   23.1194 O   0  0  0  0  0  0  0  0  0  0  0  0
  -25.8246  -29.3475   21.2379 O   0  0  0  0  0  0  0  0  0  0  0  0
  -24.9978  -27.0619   17.1620 O   0  0  0  0  0  0  0  0  0  0  0  0
  -31.8978  -14.8118   20.2578 O   0  0  0  0  0  0  0  0  0  0  0  0
  -21.4675   -7.1322   21.7739 O   0  0  0  0  0  0  0  0  0  0  0  0
  -28.7135  -21.6817   19.0588 O   0  0  0  0  0  0  0  0  0  1  0  0
  -23.7923   -3.0824   24.7063 F   0  0  0  0  0  0  0  0  0  0  0  0
  -20.3803   -6.3212   24.1829 F   0  0  0  0  0  0  0  0  0  0  0  0
  -27.8140  -19.2402   20.0752 F   0  0  0  0  0  0  0  0  0  0  0  0
  -28.8558  -18.0915   21.9878 F   0  0  0  0  0  0  0  0  0  0  0  0
  -29.2344  -16.9515   19.5333 F   0  0  0  0  0  0  0  0  0  0  0  0
  -31.7337  -18.0262   23.7349 F   0  0  0  0  0  0  0  0  0  0  0  0
  -29.8421  -16.9948   24.0451 F   0  0  0  0  0  0  0  0  0  0  0  0
  1  2  1  0  0  0  0
  1  5  2  0  0  0  0
  2  6  2  0  0  0  0
  3  8  2  0  0  0  0
  3 15  1  0  0  0  0
  4  9  1  0  0  0  0
  4 15  2  0  0  0  0
  5 17  1  0  0  0  0
  6 19  1  0  0  0  0
  7 10  2  0  0  0  0
  7 18  1  0  0  0  0
  8 21  1  0  0  0  0
  9 21  2  0  0  0  0
 10 22  1  0  0  0  0
 11 12  2  0  0  0  0
 11 23  1  0  0  0  0
 12 24  1  0  0  0  0
 13 20  1  0  0  0  0
 13 22  2  0  0  0  0
 14 24  2  0  0  0  0
 14 25  1  0  0  0  0
 15 26  1  0  0  0  0
 16 26  1  0  0  0  0
 16 27  2  0  0  0  0
 16 28  1  0  0  0  0
 17 19  2  0  0  0  0
 17 33  1  0  0  0  0
 18 20  2  0  0  0  0
 18 34  1  0  0  0  0
 19 42  1  0  0  0  0
 20 35  1  0  0  0  0
 21 75  1  0  0  0  0
 22 76  1  0  0  0  0
 23 25  2  0  0  0  0
 23 75  1  0  0  0  0
 24 77  1  0  0  0  0
 25 78  1  0  0  0  0
 26 60  2  0  0  0  0
 27 61  1  0  0  0  0
 27 64  1  0  0  0  0
 28 65  1  0  0  0  0
 28 70  2  0  0  0  0
 29 43  1  0  0  0  0
 29 66  1  0  0  0  0
 29 71  2  0  0  0  0
 30 52  1  0  0  0  0
 30 62  1  0  0  0  0
 30 72  2  0  0  0  0
 31 53  1  0  0  0  0
 31 67  1  0  0  0  0
 31 73  2  0  0  0  0
 32 63  1  0  0  0  0
 32 68  1  0  0  0  0
 32 74  2  0  0  0  0
 33 36  1  0  0  0  0
 34 43  1  0  0  0  0
 35 62  1  0  0  0  0
 36 38  1  0  0  0  0
 37 39  1  0  0  0  0
 37 40  1  0  0  0  0
 38 42  1  0  0  0  0
 39 44  1  0  0  0  0
 40 63  1  0  0  0  0
 41 44  1  0  0  0  0
 41 63  1  0  0  0  0
 42 66  1  0  0  0  0
 43 62  1  0  0  0  0
 44 61  1  0  0  0  0
 45 53  1  0  0  0  0
 46 58  1  0  0  0  0
 47 58  1  0  0  0  0
 48 58  1  0  0  0  0
 49 59  1  0  0  0  0
 50 69  1  0  0  0  0
 51 55  1  0  0  0  0
 51 76  1  0  0  0  0
 52 58  1  0  0  0  0
 52 67  1  0  0  0  0
 53 69  1  0  0  0  0
 54 56  1  0  0  0  0
 54 59  1  0  0  0  0
 54 68  1  0  0  0  0
 55 57  1  0  0  0  0
 55 79  1  0  0  0  0
 56 57  1  0  0  0  0
 56 80  1  0  0  0  0
 57 81  1  0  0  0  0
 59 82  1  0  0  0  0
 59 83  1  0  0  0  0
 60 61  1  0  0  0  0
M  CHG  1  69   1
M  ISO  4  32 100  51 101  68 100  76 101
M  END
> <Batch ID>
0188

> <Smiles>
CNC(C)C(=O)NC(C(=O)N1Cc2cc([101O:1][101CH2:1]C(F)C(F)C(F)C([100NH:0][100C:0](=O)N3CCCC(n4nc(-c5ccc(Oc6ccc(F)cc6F)cc5)c(C(N)=O)c4N)C3)C(C)(F)F)ccc2CC1C(=O)NC1CCCc2ccccc21)C(C)(C)C

> <Shape>
0.315

> <Color>
0.217

> <Negative vol penalty>
0.000

$$$$

  -OEChem-04052305153D

 85 93  0     1  0  0  0  0  0999 V2000
  -29.6687  -24.3614   17.3281 C   0  0  0  0  0  0  0  0  0  0  0  0
  -28.3172  -24.6810   17.2470 C   0  0  0  0  0  0  0  0  0  0  0  0
  -25.0472  -12.1189   20.3990 C   0  0  0  0  0  0  0  0  0  0  0  0
  -25.5561  -13.1347   22.5313 C   0  0  0  0  0  0  0  0  0  0  0  0
  -30.3524  -24.5287   18.5316 C   0  0  0  0  0  0  0  0  0  0  0  0
  -27.6482  -25.1670   18.3698 C   0  0  0  0  0  0  0  0  0  0  0  0
  -23.1315  -29.3019   18.4612 C   0  0  0  0  0  0  0  0  0  0  0  0
  -25.5162  -10.8930   20.8711 C   0  0  0  0  0  0  0  0  0  0  0  0
  -26.0250  -11.9088   23.0034 C   0  0  0  0  0  0  0  0  0  0  0  0
  -21.7455  -29.1754   18.5434 C   0  0  0  0  0  0  0  0  0  0  0  0
  -24.3897   -8.3867   22.8415 C   0  0  0  0  0  0  0  0  0  0  0  0
  -23.6210   -7.2533   22.5771 C   0  0  0  0  0  0  0  0  0  0  0  0
  -21.8618  -29.5179   20.9284 C   0  0  0  0  0  0  0  0  0  0  0  0
  -25.4733   -6.2786   21.3703 C   0  0  0  0  0  0  0  0  0  0  0  0
  -25.0673  -13.2398   21.2291 C   0  0  0  0  0  0  0  0  0  0  0  0
  -23.2679  -15.0013   20.8203 C   0  0  0  0  0  0  0  0  0  0  0  0
  -29.6938  -25.0261   19.6672 C   0  0  0  0  0  0  0  0  0  0  0  0
  -23.8954  -29.5269   19.6154 C   0  0  0  0  0  0  0  0  0  0  0  0
  -28.3234  -25.3398   19.5901 C   0  0  0  0  0  0  0  0  0  0  0  0
  -23.2571  -29.6495   20.8578 C   0  0  0  0  0  0  0  0  0  0  0  0
  -26.0050  -10.7879   22.1733 C   0  0  0  0  0  0  0  0  0  0  0  0
  -21.1107  -29.2805   19.7775 C   0  0  0  0  0  0  0  0  0  0  0  0
  -25.7002   -8.4662   22.3703 C   0  0  0  0  0  0  0  0  0  0  0  0
  -24.1627   -6.1992   21.8415 C   0  0  0  0  0  0  0  0  0  0  0  0
  -26.2420   -7.4121   21.6347 C   0  0  0  0  0  0  0  0  0  0  0  0
  -24.5835  -14.5066   20.7418 C   0  0  0  0  0  0  0  0  0  0  0  0
  -22.4346  -24.1615   21.3219 C   0  0  0  0  0  0  0  0  0  0  0  0
  -23.3782  -24.6619   20.4494 C   0  0  0  0  0  0  0  0  0  0  0  0
  -23.3285  -16.2348   20.2192 C   0  0  0  0  0  0  0  0  0  0  0  0
  -24.0286  -22.5676   20.4727 C   0  0  0  0  0  0  0  0  0  0  0  0
  -22.0959  -14.3997   21.3861 C   0  0  0  0  0  0  0  0  0  0  0  0
  -26.1926  -27.9359   21.1305 C   0  0  0  0  0  0  0  0  0  0  0  0
  -26.3048  -30.6137   22.9578 C   0  0  0  0  0  0  0  0  0  0  0  0
  -24.7017  -33.3867   24.1357 C   0  0  0  0  0  0  0  0  0  0  0  0
  -25.8251  -21.1476   19.4225 C   0  0  0  0  0  0  0  0  0  0  0  0
  -30.4634  -25.1451   20.9588 C   0  0  0  0  0  0  0  0  0  0  0  0
  -25.3870  -29.6877   19.5063 C   0  0  0  0  0  0  0  0  0  0  0  0
  -24.0296  -29.9109   22.1240 C   0  0  0  0  0  0  0  0  0  0  0  0
  -29.7716  -26.0193   22.0017 C   0  0  0  0  0  0  0  0  0  0  0  0
  -27.0093  -18.3959   17.4983 C   0  0  0  0  0  0  0  0  0  0  0  0
  -28.2945  -25.6542   22.1092 C   0  0  0  0  0  0  0  0  0  0  0  0
  -26.3755  -17.1794   18.1771 C   0  0  0  0  0  0  0  0  0  0  0  0
  -27.4115  -19.4655   18.5121 C   0  0  0  0  0  0  0  0  0  0  0  0
  -25.7091  -18.6706   20.1056 C   0  0  0  0  0  0  0  0  0  0  0  0
  -27.5689  -25.8930   20.7795 C   0  0  1  0  0  0  0  0  0  0  0  0
  -26.1160  -29.4031   20.8158 C   0  0  1  0  0  0  0  0  0  0  0  0
  -25.2283  -17.5938   19.1192 C   0  0  2  0  0  0  0  0  0  0  0  0
  -25.0379  -35.3658   25.6415 C   0  0  0  0  0  0  0  0  0  0  0  0
  -18.5947  -26.0376   22.8388 C   0  0  0  0  0  0  0  0  0  0  0  0
  -18.2725  -28.2144   18.2406 C   0  0  0  0  0  0  0  0  0  0  0  0
  -25.9662  -28.8122   25.3971 C   0  0  0  0  0  0  0  0  0  0  0  0
  -25.3616  -30.8451   26.7277 C   0  0  0  0  0  0  0  0  0  0  0  0
  -27.6224  -30.6632   25.6891 C   0  0  0  0  0  0  0  0  0  0  0  0
  -24.2823  -35.2955   21.9132 C   0  0  0  0  0  0  0  0  0  0  0  0
  -21.3027  -24.8667   22.0341 C   0  0  0  0  0  0  0  0  0  0  0  0
  -18.4773  -27.2686   20.6126 C   0  0  0  0  0  0  0  0  0  0  0  0
  -25.6111  -31.0799   24.2150 C   0  0  1  0  0  0  0  0  0  0  0  0
  -25.1318  -34.8402   24.2175 C   0  0  2  0  0  0  0  0  0  0  0  0
  -19.3955  -26.5990   21.6592 C   0  0  2  0  0  0  0  0  0  0  0  0
  -19.1904  -27.9238   19.4202 C   0  0  2  0  0  0  0  0  0  1  0  0
  -20.3120  -25.5063   21.0467 C   0  0  2  0  0  0  0  0  0  0  0  0
  -26.1256  -30.3433   25.4838 C   0  0  0  0  0  0  0  0  0  0  0  0
  -25.4188  -15.3563   20.1383 N   0  0  0  0  0  0  0  0  0  0  0  0
  -24.2933  -23.7495   19.9617 N   0  0  0  0  0  0  0  0  0  0  0  0
  -24.6261  -16.3974   19.8320 N   0  0  0  0  0  0  0  0  0  0  0  0
  -25.4864  -30.0543   21.9663 N   0  0  0  0  0  0  0  0  0  0  0  0
  -26.2737  -19.8110   19.3670 N   0  0  0  0  0  0  0  0  0  0  0  0
  -22.3979  -17.1853   19.9893 N   0  0  0  0  0  0  0  0  0  0  0  0
  -22.2102  -13.1279   21.9638 N   0  0  0  0  0  0  0  0  0  0  0  0
  -24.7161  -21.3500   20.2434 N   0  0  0  0  0  0  0  0  0  0  0  0
  -27.2992  -27.3031   20.5971 N   0  0  0  0  0  0  0  0  0  0  0  0
  -25.7744  -32.5290   24.2578 N   0  0  0  0  0  0  0  0  0  0  0  0
  -24.2675  -35.6860   23.3465 N   0  3  0  0  0  0  0  0  0  0  0  0
  -20.9768  -14.9660   21.3649 O   0  0  0  0  0  0  0  0  0  0  0  0
  -25.3136  -27.4167   21.8083 O   0  0  0  0  0  0  0  0  0  0  0  0
  -27.5268  -30.7476   22.8563 O   0  0  0  0  0  0  0  0  0  0  0  0
  -23.5308  -33.0461   23.9827 O   0  0  0  0  0  0  0  0  0  0  0  0
  -26.3667  -22.0417   18.7673 O   0  0  0  0  0  0  0  0  0  0  0  0
  -19.4916  -24.4858   20.4688 O   0  0  0  0  0  0  0  0  0  0  0  0
  -26.4624   -9.5918   22.6343 O   0  0  0  0  0  0  0  0  0  0  0  0
  -19.7581  -29.1567   19.8607 O   0  0  0  0  0  0  0  0  0  1  0  0
  -23.4249   -5.1102   21.5890 F   0  0  0  0  0  0  0  0  0  0  0  0
  -27.5008   -7.4821   21.1804 F   0  0  0  0  0  0  0  0  0  0  0  0
  -23.4118  -25.9511   20.0945 F   0  0  0  0  0  0  0  0  0  0  0  0
  -22.6929  -22.4810   21.5467 S   0  0  0  0  0  0  0  0  0  0  0  0
  1  2  1  0  0  0  0
  1  5  2  0  0  0  0
  2  6  2  0  0  0  0
  3  8  2  0  0  0  0
  3 15  1  0  0  0  0
  4  9  1  0  0  0  0
  4 15  2  0  0  0  0
  5 17  1  0  0  0  0
  6 19  1  0  0  0  0
  7 10  2  0  0  0  0
  7 18  1  0  0  0  0
  8 21  1  0  0  0  0
  9 21  2  0  0  0  0
 10 22  1  0  0  0  0
 11 12  2  0  0  0  0
 11 23  1  0  0  0  0
 12 24  1  0  0  0  0
 13 20  1  0  0  0  0
 13 22  2  0  0  0  0
 14 24  2  0  0  0  0
 14 25  1  0  0  0  0
 15 26  1  0  0  0  0
 16 26  1  0  0  0  0
 16 29  2  0  0  0  0
 16 31  1  0  0  0  0
 17 19  2  0  0  0  0
 17 36  1  0  0  0  0
 18 20  2  0  0  0  0
 18 37  1  0  0  0  0
 19 45  1  0  0  0  0
 20 38  1  0  0  0  0
 21 80  1  0  0  0  0
 22 81  1  0  0  0  0
 23 25  2  0  0  0  0
 23 80  1  0  0  0  0
 24 82  1  0  0  0  0
 25 83  1  0  0  0  0
 26 63  2  0  0  0  0
 27 28  2  0  0  0  0
 27 55  1  0  0  0  0
 27 85  1  0  0  0  0
 28 64  1  0  0  0  0
 28 84  1  0  0  0  0
 29 65  1  0  0  0  0
 29 68  1  0  0  0  0
 30 64  2  0  0  0  0
 30 70  1  0  0  0  0
 30 85  1  0  0  0  0
 31 69  1  0  0  0  0
 31 74  2  0  0  0  0
 32 46  1  0  0  0  0
 32 71  1  0  0  0  0
 32 75  2  0  0  0  0
 33 57  1  0  0  0  0
 33 66  1  0  0  0  0
 33 76  2  0  0  0  0
 34 58  1  0  0  0  0
 34 72  1  0  0  0  0
 34 77  2  0  0  0  0
 35 67  1  0  0  0  0
 35 70  1  0  0  0  0
 35 78  2  0  0  0  0
 36 39  1  0  0  0  0
 37 46  1  0  0  0  0
 38 66  1  0  0  0  0
 39 41  1  0  0  0  0
 40 42  1  0  0  0  0
 40 43  1  0  0  0  0
 41 45  1  0  0  0  0
 42 47  1  0  0  0  0
 43 67  1  0  0  0  0
 44 47  1  0  0  0  0
 44 67  1  0  0  0  0
 45 71  1  0  0  0  0
 46 66  1  0  0  0  0
 47 65  1  0  0  0  0
 48 58  1  0  0  0  0
 49 59  1  0  0  0  0
 50 60  1  0  0  0  0
 51 62  1  0  0  0  0
 52 62  1  0  0  0  0
 53 62  1  0  0  0  0
 54 73  1  0  0  0  0
 55 61  1  0  0  0  0
 56 59  1  0  0  0  0
 56 60  1  0  0  0  0
 57 62  1  0  0  0  0
 57 72  1  0  0  0  0
 58 73  1  0  0  0  0
 59 61  1  0  0  0  0
 60 81  1  0  0  0  0
 61 79  1  0  0  0  0
 63 65  1  0  0  0  0
M  CHG  1  73   1
M  ISO  4  35 100  60 101  70 100  81 101
M  END
> <Batch ID>
0188

> <Smiles>
CNC(C)C(=O)NC(C(=O)N1Cc2cc([101O:1][101CH:1](C)CC(C)C(O)Cc3sc([100NH:0][100C:0](=O)N4CCCC(n5nc(-c6ccc(Oc7ccc(F)cc7F)cc6)c(C(N)=O)c5N)C4)nc3F)ccc2CC1C(=O)NC1CCCc2ccccc21)C(C)(C)C

> <Shape>
0.259

> <Color>
0.066

> <Negative vol penalty>
0.000

$$$$

  -OEChem-04052305153D

 87 95  0     1  0  0  0  0  0999 V2000
  -30.6214  -11.5715   17.0799 C   0  0  0  0  0  0  0  0  0  0  0  0
  -30.3267  -12.9267   17.1895 C   0  0  0  0  0  0  0  0  0  0  0  0
  -21.4909  -24.7028   22.6988 C   0  0  0  0  0  0  0  0  0  0  0  0
  -20.0718  -25.6979   21.0156 C   0  0  0  0  0  0  0  0  0  0  0  0
  -29.7408  -10.6235   17.5994 C   0  0  0  0  0  0  0  0  0  0  0  0
  -29.1507  -13.3347   17.8178 C   0  0  0  0  0  0  0  0  0  0  0  0
  -29.8938  -17.1894   21.0169 C   0  0  0  0  0  0  0  0  0  0  0  0
  -20.3713  -24.1361   23.3077 C   0  0  0  0  0  0  0  0  0  0  0  0
  -18.9522  -25.1311   21.6245 C   0  0  0  0  0  0  0  0  0  0  0  0
  -30.0295  -18.4608   20.4613 C   0  0  0  0  0  0  0  0  0  0  0  0
  -18.3401  -21.4797   22.8066 C   0  0  0  0  0  0  0  0  0  0  0  0
  -18.4222  -20.1437   23.1990 C   0  0  0  0  0  0  0  0  0  0  0  0
  -27.7281  -18.9374   21.0049 C   0  0  0  0  0  0  0  0  0  0  0  0
  -28.2274  -27.3152   22.1565 C   0  0  0  0  0  0  0  0  0  0  0  0
  -18.0061  -20.7907   25.4892 C   0  0  0  0  0  0  0  0  0  0  0  0
  -27.2345  -26.3450   24.0877 C   0  0  0  0  0  0  0  0  0  0  0  0
  -21.3412  -25.4838   21.5527 C   0  0  0  0  0  0  0  0  0  0  0  0
  -23.2958  -25.5006   19.9136 C   0  0  0  0  0  0  0  0  0  0  0  0
  -28.5581  -11.0205   18.2430 C   0  0  0  0  0  0  0  0  0  0  0  0
  -28.6690  -16.7778   21.5618 C   0  0  0  0  0  0  0  0  0  0  0  0
  -28.2528  -12.3911   18.3453 C   0  0  0  0  0  0  0  0  0  0  0  0
  -27.5801  -17.6612   21.5691 C   0  0  0  0  0  0  0  0  0  0  0  0
  -27.9601  -26.1832   22.9184 C   0  0  0  0  0  0  0  0  0  0  0  0
  -19.1019  -24.3502   22.7706 C   0  0  0  0  0  0  0  0  0  0  0  0
  -28.9457  -19.3341   20.4526 C   0  0  0  0  0  0  0  0  0  0  0  0
  -18.0911  -22.4713   23.7556 C   0  0  0  0  0  0  0  0  0  0  0  0
  -18.2552  -19.7992   24.5402 C   0  0  0  0  0  0  0  0  0  0  0  0
  -27.7674  -28.5567   22.5812 C   0  0  0  0  0  0  0  0  0  0  0  0
  -17.9241  -22.1268   25.0969 C   0  0  0  0  0  0  0  0  0  0  0  0
  -22.4973  -26.0700   20.9236 C   0  0  0  0  0  0  0  0  0  0  0  0
  -27.0503  -28.6122   23.7654 C   0  0  0  0  0  0  0  0  0  0  0  0
  -24.2578  -26.4480   19.6615 C   0  0  0  0  0  0  0  0  0  0  0  0
  -23.1784  -24.2291   19.2615 C   0  0  0  0  0  0  0  0  0  0  0  0
  -26.5868  -14.4666   20.9085 C   0  0  0  0  0  0  0  0  0  0  0  0
  -25.1484  -15.5318   23.6138 C   0  0  0  0  0  0  0  0  0  0  0  0
  -29.1478  -24.5894   21.3717 C   0  0  0  0  0  0  0  0  0  0  0  0
  -24.6457  -18.0937   25.8117 C   0  0  0  0  0  0  0  0  0  0  0  0
  -26.2440  -30.9435   23.3111 C   0  0  0  0  0  0  0  0  0  0  0  0
  -27.6141   -9.9577   18.7471 C   0  0  0  0  0  0  0  0  0  0  0  0
  -28.5465  -15.4127   22.1814 C   0  0  0  0  0  0  0  0  0  0  0  0
  -26.2496  -17.2750   22.1598 C   0  0  0  0  0  0  0  0  0  0  0  0
  -26.5717  -10.4852   19.7296 C   0  0  0  0  0  0  0  0  0  0  0  0
  -25.0375  -31.1613   19.8197 C   0  0  0  0  0  0  0  0  0  0  0  0
  -25.9447  -11.7721   19.2028 C   0  0  0  0  0  0  0  0  0  0  0  0
  -24.2454  -29.8659   19.6530 C   0  0  0  0  0  0  0  0  0  0  0  0
  -25.0379  -31.6426   21.2675 C   0  0  0  0  0  0  0  0  0  0  0  0
  -24.7350  -29.3176   22.0699 C   0  0  0  0  0  0  0  0  0  0  0  0
  -26.9991  -12.8739   19.0419 C   0  0  1  0  0  0  0  0  0  0  0  0
  -27.1067  -14.9127   22.2458 C   0  0  1  0  0  0  0  0  0  0  0  0
  -24.7534  -28.7903   20.6274 C   0  0  1  0  0  0  0  0  0  0  0  0
  -28.1058  -30.6449   25.9840 C   0  0  0  0  0  0  0  0  0  0  0  0
  -23.3884  -18.6761   27.9039 C   0  0  0  0  0  0  0  0  0  0  0  0
  -22.5787  -15.8031   21.9911 C   0  0  0  0  0  0  0  0  0  0  0  0
  -21.6581  -17.2435   23.8204 C   0  0  0  0  0  0  0  0  0  0  0  0
  -22.2669  -14.8705   24.2906 C   0  0  0  0  0  0  0  0  0  0  0  0
  -27.1459  -18.6052   27.3104 C   0  0  0  0  0  0  0  0  0  0  0  0
  -29.4289  -23.0931   21.3163 C   0  0  0  0  0  0  0  0  0  0  0  0
  -26.6939  -30.2335   25.6188 C   0  0  0  0  0  0  0  0  0  0  0  0
  -30.3669  -21.1791   19.9709 C   0  0  0  0  0  0  0  0  0  1  0  0
  -24.1012  -16.5725   23.9291 C   0  0  1  0  0  0  0  0  0  0  0  0
  -24.6913  -18.1434   27.3282 C   0  0  2  0  0  0  0  0  0  0  0  0
  -30.1945  -22.6866   20.0629 C   0  0  1  0  0  0  0  0  0  0  0  0
  -22.6756  -16.1293   23.4949 C   0  0  0  0  0  0  0  0  0  0  0  0
  -26.7711  -27.5345   24.5324 N   0  0  0  0  0  0  0  0  0  0  0  0
  -22.9158  -27.2848   21.2883 N   0  0  0  0  0  0  0  0  0  0  0  0
  -23.9877  -27.4866   20.5033 N   0  0  0  0  0  0  0  0  0  0  0  0
  -26.1780  -15.9273   22.7481 N   0  0  0  0  0  0  0  0  0  0  0  0
  -25.4662  -30.5896   22.1895 N   0  0  0  0  0  0  0  0  0  0  0  0
  -25.2999  -26.4857   18.8041 N   0  0  0  0  0  0  0  0  0  0  0  0
  -22.1320  -23.3776   19.6413 N   0  0  0  0  0  0  0  0  0  0  0  0
  -28.4145  -24.9061   22.5119 N   0  0  0  0  0  0  0  0  0  0  0  0
  -27.3249  -13.4532   20.3275 N   0  0  0  0  0  0  0  0  0  0  0  0
  -24.2292  -16.8617   25.3534 N   0  0  0  0  0  0  0  0  0  0  0  0
  -26.5771  -29.9037   24.2001 N   0  0  0  0  0  0  0  0  0  0  0  0
  -25.8022  -19.0258   27.7844 N   0  3  0  0  0  0  0  0  0  0  0  0
  -23.9875  -23.8523   18.3801 O   0  0  0  0  0  0  0  0  0  0  0  0
  -25.5890  -15.0013   20.4392 O   0  0  0  0  0  0  0  0  0  0  0  0
  -25.0601  -14.4115   24.1226 O   0  0  0  0  0  0  0  0  0  0  0  0
  -29.5376  -25.3588   20.4998 O   0  0  0  0  0  0  0  0  0  0  0  0
  -24.9457  -19.0530   25.1045 O   0  0  0  0  0  0  0  0  0  0  0  0
  -26.5729  -32.1147   23.5362 O   0  0  0  0  0  0  0  0  0  0  0  0
  -18.0092  -23.7971   23.3643 O   0  0  0  0  0  0  0  0  0  0  0  0
  -29.0753  -20.5754   19.9103 O   0  0  0  0  0  0  0  0  0  1  0  0
  -18.3325  -18.5160   24.9166 F   0  0  0  0  0  0  0  0  0  0  0  0
  -28.0196  -29.6558   21.8589 F   0  0  0  0  0  0  0  0  0  0  0  0
  -17.6834  -23.0748   26.0129 F   0  0  0  0  0  0  0  0  0  0  0  0
  -29.4680  -23.0858   18.9772 F   0  0  0  0  0  0  0  0  0  0  0  0
  1  2  1  0  0  0  0
  1  5  2  0  0  0  0
  2  6  2  0  0  0  0
  3  8  2  0  0  0  0
  3 17  1  0  0  0  0
  4  9  1  0  0  0  0
  4 17  2  0  0  0  0
  5 19  1  0  0  0  0
  6 21  1  0  0  0  0
  7 10  2  0  0  0  0
  7 20  1  0  0  0  0
  8 24  1  0  0  0  0
  9 24  2  0  0  0  0
 10 25  1  0  0  0  0
 11 12  2  0  0  0  0
 11 26  1  0  0  0  0
 12 27  1  0  0  0  0
 13 22  1  0  0  0  0
 13 25  2  0  0  0  0
 14 23  2  0  0  0  0
 14 28  1  0  0  0  0
 15 27  2  0  0  0  0
 15 29  1  0  0  0  0
 16 23  1  0  0  0  0
 16 64  2  0  0  0  0
 17 30  1  0  0  0  0
 18 30  1  0  0  0  0
 18 32  2  0  0  0  0
 18 33  1  0  0  0  0
 19 21  2  0  0  0  0
 19 39  1  0  0  0  0
 20 22  2  0  0  0  0
 20 40  1  0  0  0  0
 21 48  1  0  0  0  0
 22 41  1  0  0  0  0
 23 71  1  0  0  0  0
 24 82  1  0  0  0  0
 25 83  1  0  0  0  0
 26 29  2  0  0  0  0
 26 82  1  0  0  0  0
 27 84  1  0  0  0  0
 28 31  2  0  0  0  0
 28 85  1  0  0  0  0
 29 86  1  0  0  0  0
 30 65  2  0  0  0  0
 31 64  1  0  0  0  0
 31 74  1  0  0  0  0
 32 66  1  0  0  0  0
 32 69  1  0  0  0  0
 33 70  1  0  0  0  0
 33 76  2  0  0  0  0
 34 49  1  0  0  0  0
 34 72  1  0  0  0  0
 34 77  2  0  0  0  0
 35 60  1  0  0  0  0
 35 67  1  0  0  0  0
 35 78  2  0  0  0  0
 36 57  1  0  0  0  0
 36 71  1  0  0  0  0
 36 79  2  0  0  0  0
 37 61  1  0  0  0  0
 37 73  1  0  0  0  0
 37 80  2  0  0  0  0
 38 68  1  0  0  0  0
 38 74  1  0  0  0  0
 38 81  2  0  0  0  0
 39 42  1  0  0  0  0
 40 49  1  0  0  0  0
 41 67  1  0  0  0  0
 42 44  1  0  0  0  0
 43 45  1  0  0  0  0
 43 46  1  0  0  0  0
 44 48  1  0  0  0  0
 45 50  1  0  0  0  0
 46 68  1  0  0  0  0
 47 50  1  0  0  0  0
 47 68  1  0  0  0  0
 48 72  1  0  0  0  0
 49 67  1  0  0  0  0
 50 66  1  0  0  0  0
 51 58  1  0  0  0  0
 52 61  1  0  0  0  0
 53 63  1  0  0  0  0
 54 63  1  0  0  0  0
 55 63  1  0  0  0  0
 56 75  1  0  0  0  0
 57 62  1  0  0  0  0
 58 74  1  0  0  0  0
 59 62  1  0  0  0  0
 59 83  1  0  0  0  0
 60 63  1  0  0  0  0
 60 73  1  0  0  0  0
 61 75  1  0  0  0  0
 62 87  1  0  0  0  0
 65 66  1  0  0  0  0
M  CHG  1  75   1
M  ISO  4  38 100  59 101  74 100  83 101
M  END
> <Batch ID>
0188

> <Smiles>
CC[100N:0](c1ncc(NC(=O)CC(F)[101CH2:1][101O:1]c2ccc3c(c2)CN(C(=O)C(NC(=O)C(C)NC)C(C)(C)C)C(C(=O)NC2CCCc4ccccc42)C3)cc1F)[100C:0](=O)N1CCCC(n2nc(-c3ccc(Oc4ccc(F)cc4F)cc3)c(C(N)=O)c2N)C1

> <Shape>
0.212

> <Color>
0.055

> <Negative vol penalty>
0.000

$$$$

  -OEChem-04052305153D

 87 95  0     1  0  0  0  0  0999 V2000
  -31.5498  -24.4594   10.8217 C   0  0  0  0  0  0  0  0  0  0  0  0
  -32.2371  -24.0179   11.9478 C   0  0  0  0  0  0  0  0  0  0  0  0
  -23.0041   -9.8865   19.9774 C   0  0  0  0  0  0  0  0  0  0  0  0
  -23.7319   -9.9341   22.2807 C   0  0  0  0  0  0  0  0  0  0  0  0
  -31.0081  -25.7439   10.7961 C   0  0  0  0  0  0  0  0  0  0  0  0
  -32.3840  -24.8611   13.0486 C   0  0  0  0  0  0  0  0  0  0  0  0
  -31.4721  -22.5035   17.4368 C   0  0  0  0  0  0  0  0  0  0  0  0
  -22.2407   -8.7495   20.2421 C   0  0  0  0  0  0  0  0  0  0  0  0
  -22.9685   -8.7971   22.5454 C   0  0  0  0  0  0  0  0  0  0  0  0
  -32.4804  -21.6826   17.9400 C   0  0  0  0  0  0  0  0  0  0  0  0
  -23.2206   -5.4599   22.0656 C   0  0  0  0  0  0  0  0  0  0  0  0
  -23.8116   -4.4425   22.8148 C   0  0  0  0  0  0  0  0  0  0  0  0
  -33.1505  -23.4411   19.4493 C   0  0  0  0  0  0  0  0  0  0  0  0
  -22.0891   -4.6773   24.4925 C   0  0  0  0  0  0  0  0  0  0  0  0
  -23.7497  -10.4788   20.9967 C   0  0  0  0  0  0  0  0  0  0  0  0
  -24.1285  -12.9958   20.8259 C   0  0  0  0  0  0  0  0  0  0  0  0
  -31.1401  -26.5998   11.9010 C   0  0  0  0  0  0  0  0  0  0  0  0
  -31.3022  -23.8055   17.9292 C   0  0  0  0  0  0  0  0  0  0  0  0
  -31.8448  -26.1587   13.0373 C   0  0  0  0  0  0  0  0  0  0  0  0
  -32.1377  -24.2757   18.9523 C   0  0  0  0  0  0  0  0  0  0  0  0
  -22.2229   -8.2048   21.5261 C   0  0  0  0  0  0  0  0  0  0  0  0
  -33.3216  -22.1524   18.9444 C   0  0  0  0  0  0  0  0  0  0  0  0
  -22.0639   -6.0861   22.5300 C   0  0  0  0  0  0  0  0  0  0  0  0
  -23.2458   -4.0511   24.0282 C   0  0  0  0  0  0  0  0  0  0  0  0
  -21.4981   -5.6947   23.7434 C   0  0  0  0  0  0  0  0  0  0  0  0
  -24.5389  -11.6530   20.7238 C   0  0  0  0  0  0  0  0  0  0  0  0
  -30.7240  -19.0732   22.9334 C   0  0  0  0  0  0  0  0  0  0  0  0
  -31.8306  -18.6734   22.2139 C   0  0  0  0  0  0  0  0  0  0  0  0
  -25.2360  -13.7220   20.4618 C   0  0  0  0  0  0  0  0  0  0  0  0
  -30.5719  -16.9064   21.8920 C   0  0  0  0  0  0  0  0  0  0  0  0
  -22.8596  -13.5381   21.2151 C   0  0  0  0  0  0  0  0  0  0  0  0
  -31.4685  -26.7194   16.6701 C   0  0  0  0  0  0  0  0  0  0  0  0
  -30.4007  -27.6216   19.5972 C   0  0  0  0  0  0  0  0  0  0  0  0
  -30.1127  -26.9093   22.9224 C   0  0  0  0  0  0  0  0  0  0  0  0
  -34.1592  -19.1313   21.3632 C   0  0  0  0  0  0  0  0  0  0  0  0
  -30.7134  -14.6962   20.6915 C   0  0  0  0  0  0  0  0  0  0  0  0
  -30.5783  -27.9964   11.8086 C   0  0  0  0  0  0  0  0  0  0  0  0
  -30.1928  -24.6691   17.3944 C   0  0  0  0  0  0  0  0  0  0  0  0
  -31.9839  -25.6584   19.5293 C   0  0  0  0  0  0  0  0  0  0  0  0
  -30.4548  -28.6939   13.1608 C   0  0  0  0  0  0  0  0  0  0  0  0
  -29.5984  -12.2459   18.3613 C   0  0  0  0  0  0  0  0  0  0  0  0
  -31.7345  -28.5167   13.9718 C   0  0  0  0  0  0  0  0  0  0  0  0
  -28.1490  -11.9837   18.7766 C   0  0  0  0  0  0  0  0  0  0  0  0
  -30.4998  -12.4887   19.5705 C   0  0  0  0  0  0  0  0  0  0  0  0
  -28.5841  -13.2698   20.9082 C   0  0  0  0  0  0  0  0  0  0  0  0
  -32.0038  -27.0350   14.2608 C   0  0  1  0  0  0  0  0  0  0  0  0
  -30.4387  -26.1592   17.6100 C   0  0  1  0  0  0  0  0  0  0  0  0
  -27.6255  -13.0837   19.7207 C   0  0  2  0  0  0  0  0  0  0  0  0
  -36.2833  -19.3045   23.6016 C   0  0  0  0  0  0  0  0  0  0  0  0
  -30.4919  -21.5793   22.7956 C   0  0  0  0  0  0  0  0  0  0  0  0
  -31.4543  -20.5147   24.8681 C   0  0  0  0  0  0  0  0  0  0  0  0
  -29.2233  -27.8553   25.0698 C   0  0  0  0  0  0  0  0  0  0  0  0
  -36.4728  -19.7926   20.5987 C   0  0  0  0  0  0  0  0  0  0  0  0
  -32.7763  -29.5313   19.7371 C   0  0  0  0  0  0  0  0  0  0  0  0
  -32.3870  -29.7241   22.2028 C   0  0  0  0  0  0  0  0  0  0  0  0
  -30.6274  -30.4744   20.6016 C   0  0  0  0  0  0  0  0  0  0  0  0
  -28.2437  -24.6429   23.2817 C   0  0  0  0  0  0  0  0  0  0  0  0
  -35.6844  -20.5088   22.8825 C   0  0  0  0  0  0  0  0  0  0  0  0
  -34.6841  -21.5519   20.7989 C   0  0  0  0  0  0  0  0  0  1  0  0
  -30.4742  -20.3178   23.6889 C   0  0  0  0  0  0  0  0  0  0  0  0
  -31.0550  -28.0009   20.9038 C   0  0  1  0  0  0  0  0  0  0  0  0
  -28.9262  -26.9732   23.8671 C   0  0  2  0  0  0  0  0  0  0  0  0
  -35.2431  -20.2447   21.4164 C   0  0  2  0  0  0  0  0  0  0  0  0
  -31.7158  -29.4073   20.8493 C   0  0  0  0  0  0  0  0  0  0  0  0
  -25.8080  -11.5306   20.3258 N   0  0  0  0  0  0  0  0  0  0  0  0
  -31.7454  -17.4310   21.6164 N   0  0  0  0  0  0  0  0  0  0  0  0
  -26.2046  -12.8057   20.1746 N   0  0  0  0  0  0  0  0  0  0  0  0
  -30.8886  -26.4670   18.9690 N   0  0  0  0  0  0  0  0  0  0  0  0
  -29.9431  -13.5464   20.4169 N   0  0  0  0  0  0  0  0  0  0  0  0
  -25.4660  -15.0485   20.3625 N   0  0  0  0  0  0  0  0  0  0  0  0
  -21.8305  -12.6506   21.5579 N   0  0  0  0  0  0  0  0  0  0  0  0
  -33.0033  -19.4540   22.0681 N   0  0  0  0  0  0  0  0  0  0  0  0
  -30.0677  -15.6479   21.4801 N   0  0  0  0  0  0  0  0  0  0  0  0
  -31.1528  -26.5666   15.3335 N   0  0  0  0  0  0  0  0  0  0  0  0
  -30.0274  -27.8629   21.9301 N   0  0  0  0  0  0  0  0  0  0  0  0
  -28.5812  -25.6092   24.3585 N   0  3  0  0  0  0  0  0  0  0  0  0
  -22.6399  -14.7728   21.2419 O   0  0  0  0  0  0  0  0  0  0  0  0
  -32.4744  -27.2523   17.1240 O   0  0  0  0  0  0  0  0  0  0  0  0
  -29.4855  -28.3199   19.1541 O   0  0  0  0  0  0  0  0  0  0  0  0
  -31.0259  -26.0973   23.0538 O   0  0  0  0  0  0  0  0  0  0  0  0
  -34.3525  -18.0900   20.7380 O   0  0  0  0  0  0  0  0  0  0  0  0
  -31.8511  -14.8390   20.2365 O   0  0  0  0  0  0  0  0  0  0  0  0
  -21.4779   -7.0955   21.7847 O   0  0  0  0  0  0  0  0  0  0  0  0
  -34.3069  -21.3534   19.4370 O   0  0  0  0  0  0  0  0  0  1  0  0
  -23.8126   -3.0730   24.7467 F   0  0  0  0  0  0  0  0  0  0  0  0
  -20.3863   -6.2918   24.1941 F   0  0  0  0  0  0  0  0  0  0  0  0
  -29.5211  -17.8527   22.8643 S   0  0  0  0  0  0  0  0  0  0  0  0
  1  2  1  0  0  0  0
  1  5  2  0  0  0  0
  2  6  2  0  0  0  0
  3  8  2  0  0  0  0
  3 15  1  0  0  0  0
  4  9  1  0  0  0  0
  4 15  2  0  0  0  0
  5 17  1  0  0  0  0
  6 19  1  0  0  0  0
  7 10  2  0  0  0  0
  7 18  1  0  0  0  0
  8 21  1  0  0  0  0
  9 21  2  0  0  0  0
 10 22  1  0  0  0  0
 11 12  2  0  0  0  0
 11 23  1  0  0  0  0
 12 24  1  0  0  0  0
 13 20  1  0  0  0  0
 13 22  2  0  0  0  0
 14 24  2  0  0  0  0
 14 25  1  0  0  0  0
 15 26  1  0  0  0  0
 16 26  1  0  0  0  0
 16 29  2  0  0  0  0
 16 31  1  0  0  0  0
 17 19  2  0  0  0  0
 17 37  1  0  0  0  0
 18 20  2  0  0  0  0
 18 38  1  0  0  0  0
 19 46  1  0  0  0  0
 20 39  1  0  0  0  0
 21 83  1  0  0  0  0
 22 84  1  0  0  0  0
 23 25  2  0  0  0  0
 23 83  1  0  0  0  0
 24 85  1  0  0  0  0
 25 86  1  0  0  0  0
 26 65  2  0  0  0  0
 27 28  2  0  0  0  0
 27 60  1  0  0  0  0
 27 87  1  0  0  0  0
 28 66  1  0  0  0  0
 28 72  1  0  0  0  0
 29 67  1  0  0  0  0
 29 70  1  0  0  0  0
 30 66  2  0  0  0  0
 30 73  1  0  0  0  0
 30 87  1  0  0  0  0
 31 71  1  0  0  0  0
 31 77  2  0  0  0  0
 32 47  1  0  0  0  0
 32 74  1  0  0  0  0
 32 78  2  0  0  0  0
 33 61  1  0  0  0  0
 33 68  1  0  0  0  0
 33 79  2  0  0  0  0
 34 62  1  0  0  0  0
 34 75  1  0  0  0  0
 34 80  2  0  0  0  0
 35 63  1  0  0  0  0
 35 72  1  0  0  0  0
 35 81  2  0  0  0  0
 36 69  1  0  0  0  0
 36 73  1  0  0  0  0
 36 82  2  0  0  0  0
 37 40  1  0  0  0  0
 38 47  1  0  0  0  0
 39 68  1  0  0  0  0
 40 42  1  0  0  0  0
 41 43  1  0  0  0  0
 41 44  1  0  0  0  0
 42 46  1  0  0  0  0
 43 48  1  0  0  0  0
 44 69  1  0  0  0  0
 45 48  1  0  0  0  0
 45 69  1  0  0  0  0
 46 74  1  0  0  0  0
 47 68  1  0  0  0  0
 48 67  1  0  0  0  0
 49 58  1  0  0  0  0
 50 60  1  0  0  0  0
 51 60  1  0  0  0  0
 52 62  1  0  0  0  0
 53 63  1  0  0  0  0
 54 64  1  0  0  0  0
 55 64  1  0  0  0  0
 56 64  1  0  0  0  0
 57 76  1  0  0  0  0
 58 63  1  0  0  0  0
 59 63  1  0  0  0  0
 59 84  1  0  0  0  0
 61 64  1  0  0  0  0
 61 75  1  0  0  0  0
 62 76  1  0  0  0  0
 65 67  1  0  0  0  0
M  CHG  1  76   1
M  ISO  4  36 100  59 101  73 100  84 101
M  END
> <Batch ID>
0188

> <Smiles>
CCC(C)(C(=O)Nc1nc([100NH:0][100C:0](=O)N2CCCC(n3nc(-c4ccc(Oc5ccc(F)cc5F)cc4)c(C(N)=O)c3N)C2)sc1C(C)C)[101CH2:1][101O:1]c1ccc2c(c1)CN(C(=O)C(NC(=O)C(C)NC)C(C)(C)C)C(C(=O)NC1CCCc3ccccc31)C2

> <Shape>
0.229

> <Color>
0.182

> <Negative vol penalty>
0.000

$$$$

  -OEChem-04052305153D

 86 94  0     1  0  0  0  0  0999 V2000
  -20.1799  -26.2787   17.1944 C   0  0  0  0  0  0  0  0  0  0  0  0
  -21.4483  -26.0688   17.7259 C   0  0  0  0  0  0  0  0  0  0  0  0
  -23.1794   -9.9072   19.9044 C   0  0  0  0  0  0  0  0  0  0  0  0
  -23.7014   -9.9775   22.2623 C   0  0  0  0  0  0  0  0  0  0  0  0
  -19.6136  -27.5524   17.2273 C   0  0  0  0  0  0  0  0  0  0  0  0
  -22.1516  -27.1326   18.2898 C   0  0  0  0  0  0  0  0  0  0  0  0
  -24.3242  -25.9070   22.6969 C   0  0  0  0  0  0  0  0  0  0  0  0
  -22.4118   -8.7605   20.1085 C   0  0  0  0  0  0  0  0  0  0  0  0
  -22.9338   -8.8309   22.4664 C   0  0  0  0  0  0  0  0  0  0  0  0
  -25.5039  -25.1661   22.6409 C   0  0  0  0  0  0  0  0  0  0  0  0
  -19.6596   -8.0466   22.7580 C   0  0  0  0  0  0  0  0  0  0  0  0
  -18.7871   -8.0380   23.8462 C   0  0  0  0  0  0  0  0  0  0  0  0
  -26.7798  -27.1824   22.9960 C   0  0  0  0  0  0  0  0  0  0  0  0
  -19.9434   -6.1226   24.7580 C   0  0  0  0  0  0  0  0  0  0  0  0
  -30.4874  -18.7497   18.8683 C   0  0  0  0  0  0  0  0  0  0  0  0
  -23.8242  -10.5156   20.9813 C   0  0  0  0  0  0  0  0  0  0  0  0
  -24.1811  -13.0369   20.8279 C   0  0  0  0  0  0  0  0  0  0  0  0
  -20.3064  -28.6304   17.8005 C   0  0  0  0  0  0  0  0  0  0  0  0
  -24.3639  -27.2950   22.8923 C   0  0  0  0  0  0  0  0  0  0  0  0
  -21.5946  -28.4222   18.3292 C   0  0  0  0  0  0  0  0  0  0  0  0
  -25.5990  -27.9382   23.0567 C   0  0  0  0  0  0  0  0  0  0  0  0
  -22.2890   -8.2224   21.3895 C   0  0  0  0  0  0  0  0  0  0  0  0
  -26.7321  -25.8042   22.7876 C   0  0  0  0  0  0  0  0  0  0  0  0
  -20.6740   -7.0932   22.6697 C   0  0  0  0  0  0  0  0  0  0  0  0
  -18.9290   -7.0759   24.8463 C   0  0  0  0  0  0  0  0  0  0  0  0
  -20.8159   -6.1312   23.6697 C   0  0  0  0  0  0  0  0  0  0  0  0
  -29.0972  -18.8600   21.1629 C   0  0  0  0  0  0  0  0  0  0  0  0
  -24.6178  -11.6998   20.7710 C   0  0  0  0  0  0  0  0  0  0  0  0
  -29.5046  -17.6644   20.6071 C   0  0  0  0  0  0  0  0  0  0  0  0
  -29.4511  -19.9952   20.4627 C   0  0  0  0  0  0  0  0  0  0  0  0
  -25.3060  -13.7772   20.5577 C   0  0  0  0  0  0  0  0  0  0  0  0
  -22.8755  -13.5627   21.1009 C   0  0  0  0  0  0  0  0  0  0  0  0
  -23.4502  -29.8256   21.1998 C   0  0  0  0  0  0  0  0  0  0  0  0
  -24.2989  -31.4389   23.8829 C   0  0  0  0  0  0  0  0  0  0  0  0
  -26.1597  -31.5298   26.7423 C   0  0  0  0  0  0  0  0  0  0  0  0
  -30.8210  -14.5121   21.7247 C   0  0  0  0  0  0  0  0  0  0  0  0
  -19.6729  -29.9988   17.7705 C   0  0  0  0  0  0  0  0  0  0  0  0
  -23.0812  -28.0759   22.9770 C   0  0  0  0  0  0  0  0  0  0  0  0
  -25.6951  -29.4232   23.2889 C   0  0  0  0  0  0  0  0  0  0  0  0
  -20.3295  -30.9950   18.7227 C   0  0  0  0  0  0  0  0  0  0  0  0
  -29.8511  -12.3895   18.8514 C   0  0  0  0  0  0  0  0  0  0  0  0
  -21.8483  -30.9343   18.5946 C   0  0  0  0  0  0  0  0  0  0  0  0
  -28.3849  -12.0782   19.1472 C   0  0  0  0  0  0  0  0  0  0  0  0
  -30.6473  -12.6372   20.1291 C   0  0  0  0  0  0  0  0  0  0  0  0
  -28.6006  -13.3789   21.3018 C   0  0  0  0  0  0  0  0  0  0  0  0
  -22.3787  -29.5458   18.9716 C   0  0  1  0  0  0  0  0  0  0  0  0
  -23.2627  -29.5585   22.6665 C   0  0  1  0  0  0  0  0  0  0  0  0
  -27.7602  -13.1701   20.0331 C   0  0  2  0  0  0  0  0  0  0  0  0
  -26.6713  -32.9956   28.7139 C   0  0  0  0  0  0  0  0  0  0  0  0
  -30.2743  -23.4016   22.5452 C   0  0  0  0  0  0  0  0  0  0  0  0
  -28.4322  -22.6881   19.1669 C   0  0  0  0  0  0  0  0  0  0  0  0
  -26.0736  -33.1863   22.1201 C   0  0  0  0  0  0  0  0  0  0  0  0
  -27.2454  -33.9644   24.1913 C   0  0  0  0  0  0  0  0  0  0  0  0
  -24.8132  -34.4279   23.8877 C   0  0  0  0  0  0  0  0  0  0  0  0
  -31.1354  -16.7368   22.7404 C   0  0  0  0  0  0  0  0  0  0  0  0
  -25.1220  -29.5211   28.6521 C   0  0  0  0  0  0  0  0  0  0  0  0
  -29.1712  -16.3810   21.2909 C   0  0  0  0  0  0  0  0  0  0  0  0
  -27.8804  -23.9115   21.9188 C   0  0  0  0  0  0  0  0  0  1  0  0
  -25.5719  -32.0698   24.3934 C   0  0  1  0  0  0  0  0  0  0  0  0
  -25.7915  -31.8793   28.1730 C   0  0  2  0  0  0  0  0  0  0  0  0
  -29.2959  -23.6422   21.3849 C   0  0  2  0  0  0  0  0  0  0  0  0
  -29.3652  -22.4867   20.3588 C   0  0  1  0  0  0  0  0  0  0  0  0
  -25.9246  -33.3844   23.6418 C   0  0  0  0  0  0  0  0  0  0  0  0
  -30.2036  -17.5722   19.4569 N   0  0  0  0  0  0  0  0  0  0  0  0
  -30.1486  -19.9768   19.3079 N   0  0  0  0  0  0  0  0  0  0  0  0
  -25.9185  -11.5938   20.4866 N   0  0  0  0  0  0  0  0  0  0  0  0
  -26.3089  -12.8738   20.3625 N   0  0  0  0  0  0  0  0  0  0  0  0
  -24.4132  -30.1440   23.3576 N   0  0  0  0  0  0  0  0  0  0  0  0
  -30.0084  -13.6479   20.9725 N   0  0  0  0  0  0  0  0  0  0  0  0
  -25.5251  -15.1064   20.4702 N   0  0  0  0  0  0  0  0  0  0  0  0
  -21.8328  -12.6621   21.3578 N   0  0  0  0  0  0  0  0  0  0  0  0
  -29.0637  -21.2153   20.9855 N   0  0  0  0  0  0  0  0  0  0  0  0
  -22.4041  -29.3879   20.4100 N   0  0  0  0  0  0  0  0  0  0  0  0
  -25.3981  -32.2326   25.8327 N   0  0  0  0  0  0  0  0  0  0  0  0
  -30.3247  -15.8005   21.9748 N   0  0  0  0  0  0  0  0  0  0  0  0
  -25.9491  -30.6878   29.0542 N   0  3  0  0  0  0  0  0  0  0  0  0
  -22.6368  -14.7942   21.1002 O   0  0  0  0  0  0  0  0  0  0  0  0
  -24.4678  -30.3885   20.8134 O   0  0  0  0  0  0  0  0  0  0  0  0
  -23.2408  -32.0690   23.9543 O   0  0  0  0  0  0  0  0  0  0  0  0
  -27.0378  -30.7176   26.4598 O   0  0  0  0  0  0  0  0  0  0  0  0
  -31.9310  -14.1558   22.1402 O   0  0  0  0  0  0  0  0  0  0  0  0
  -21.5399   -7.1037   21.5891 O   0  0  0  0  0  0  0  0  0  0  0  0
  -27.8852  -25.0836   22.7327 O   0  0  0  0  0  0  0  0  0  1  0  0
  -18.0920   -7.0687   25.8920 F   0  0  0  0  0  0  0  0  0  0  0  0
  -21.7892   -5.2135   23.5910 F   0  0  0  0  0  0  0  0  0  0  0  0
  -28.4028  -18.9102   22.3056 F   0  0  0  0  0  0  0  0  0  0  0  0
  1  2  1  0  0  0  0
  1  5  2  0  0  0  0
  2  6  2  0  0  0  0
  3  8  2  0  0  0  0
  3 16  1  0  0  0  0
  4  9  1  0  0  0  0
  4 16  2  0  0  0  0
  5 18  1  0  0  0  0
  6 20  1  0  0  0  0
  7 10  2  0  0  0  0
  7 19  1  0  0  0  0
  8 22  1  0  0  0  0
  9 22  2  0  0  0  0
 10 23  1  0  0  0  0
 11 12  2  0  0  0  0
 11 24  1  0  0  0  0
 12 25  1  0  0  0  0
 13 21  1  0  0  0  0
 13 23  2  0  0  0  0
 14 25  2  0  0  0  0
 14 26  1  0  0  0  0
 15 64  1  0  0  0  0
 15 65  2  0  0  0  0
 16 28  1  0  0  0  0
 17 28  1  0  0  0  0
 17 31  2  0  0  0  0
 17 32  1  0  0  0  0
 18 20  2  0  0  0  0
 18 37  1  0  0  0  0
 19 21  2  0  0  0  0
 19 38  1  0  0  0  0
 20 46  1  0  0  0  0
 21 39  1  0  0  0  0
 22 82  1  0  0  0  0
 23 83  1  0  0  0  0
 24 26  2  0  0  0  0
 24 82  1  0  0  0  0
 25 84  1  0  0  0  0
 26 85  1  0  0  0  0
 27 29  1  0  0  0  0
 27 30  2  0  0  0  0
 27 86  1  0  0  0  0
 28 66  2  0  0  0  0
 29 57  1  0  0  0  0
 29 64  2  0  0  0  0
 30 65  1  0  0  0  0
 30 72  1  0  0  0  0
 31 67  1  0  0  0  0
 31 70  1  0  0  0  0
 32 71  1  0  0  0  0
 32 77  2  0  0  0  0
 33 47  1  0  0  0  0
 33 73  1  0  0  0  0
 33 78  2  0  0  0  0
 34 59  1  0  0  0  0
 34 68  1  0  0  0  0
 34 79  2  0  0  0  0
 35 60  1  0  0  0  0
 35 74  1  0  0  0  0
 35 80  2  0  0  0  0
 36 69  1  0  0  0  0
 36 75  1  0  0  0  0
 36 81  2  0  0  0  0
 37 40  1  0  0  0  0
 38 47  1  0  0  0  0
 39 68  1  0  0  0  0
 40 42  1  0  0  0  0
 41 43  1  0  0  0  0
 41 44  1  0  0  0  0
 42 46  1  0  0  0  0
 43 48  1  0  0  0  0
 44 69  1  0  0  0  0
 45 48  1  0  0  0  0
 45 69  1  0  0  0  0
 46 73  1  0  0  0  0
 47 68  1  0  0  0  0
 48 67  1  0  0  0  0
 49 60  1  0  0  0  0
 50 61  1  0  0  0  0
 51 62  1  0  0  0  0
 52 63  1  0  0  0  0
 53 63  1  0  0  0  0
 54 63  1  0  0  0  0
 55 75  1  0  0  0  0
 56 76  1  0  0  0  0
 57 75  1  0  0  0  0
 58 61  1  0  0  0  0
 58 83  1  0  0  0  0
 59 63  1  0  0  0  0
 59 74  1  0  0  0  0
 60 76  1  0  0  0  0
 61 62  1  0  0  0  0
 62 72  1  0  0  0  0
 66 67  1  0  0  0  0
M  CHG  1  76   1
M  ISO  4  36 100  58 101  75 100  83 101
M  END
> <Batch ID>
0188

> <Smiles>
CNC(C)C(=O)NC(C(=O)N1Cc2cc([101O:1][101CH2:1]C(C)C(C)Nc3ncnc(C[100N:0](C)[100C:0](=O)N4CCCC(n5nc(-c6ccc(Oc7ccc(F)cc7F)cc6)c(C(N)=O)c5N)C4)c3F)ccc2CC1C(=O)NC1CCCc2ccccc21)C(C)(C)C

> <Shape>
0.333

> <Color>
0.210

> <Negative vol penalty>
0.000

$$$$

  -OEChem-04052305153D

 86 94  0     1  0  0  0  0  0999 V2000
  -30.5924  -22.3110   25.2699 C   0  0  0  0  0  0  0  0  0  0  0  0
  -30.5310  -22.2083   23.8839 C   0  0  0  0  0  0  0  0  0  0  0  0
  -23.0576   -9.8422   20.0217 C   0  0  0  0  0  0  0  0  0  0  0  0
  -23.7131  -10.0227   22.3400 C   0  0  0  0  0  0  0  0  0  0  0  0
  -30.0123  -23.4036   25.9132 C   0  0  0  0  0  0  0  0  0  0  0  0
  -29.8885  -23.1977   23.1404 C   0  0  0  0  0  0  0  0  0  0  0  0
  -32.5400  -24.5881   19.0560 C   0  0  0  0  0  0  0  0  0  0  0  0
  -22.3069   -8.7057   20.3224 C   0  0  0  0  0  0  0  0  0  0  0  0
  -22.9623   -8.8862   22.6408 C   0  0  0  0  0  0  0  0  0  0  0  0
  -32.4977  -23.7398   17.9504 C   0  0  0  0  0  0  0  0  0  0  0  0
  -23.2887   -5.5342   22.3435 C   0  0  0  0  0  0  0  0  0  0  0  0
  -23.8744   -4.5685   23.1619 C   0  0  0  0  0  0  0  0  0  0  0  0
  -30.8579  -25.1768   16.9182 C   0  0  0  0  0  0  0  0  0  0  0  0
  -22.0970   -4.8560   24.7731 C   0  0  0  0  0  0  0  0  0  0  0  0
  -23.7608  -10.5006   21.0305 C   0  0  0  0  0  0  0  0  0  0  0  0
  -24.0997  -13.0123   20.7400 C   0  0  0  0  0  0  0  0  0  0  0  0
  -29.3708  -24.4117   25.1765 C   0  0  0  0  0  0  0  0  0  0  0  0
  -31.7321  -25.7332   19.1059 C   0  0  0  0  0  0  0  0  0  0  0  0
  -29.2982  -24.3041   23.7745 C   0  0  0  0  0  0  0  0  0  0  0  0
  -30.8937  -26.0393   18.0245 C   0  0  0  0  0  0  0  0  0  0  0  0
  -22.2592   -8.2277   21.6319 C   0  0  0  0  0  0  0  0  0  0  0  0
  -31.6545  -24.0326   16.8825 C   0  0  0  0  0  0  0  0  0  0  0  0
  -22.1072   -6.1609   22.7398 C   0  0  0  0  0  0  0  0  0  0  0  0
  -23.2785   -4.2293   24.3767 C   0  0  0  0  0  0  0  0  0  0  0  0
  -21.5114   -5.8218   23.9546 C   0  0  0  0  0  0  0  0  0  0  0  0
  -24.5370  -11.6743   20.7204 C   0  0  0  0  0  0  0  0  0  0  0  0
  -29.4278  -18.8347   20.4144 C   0  0  0  0  0  0  0  0  0  0  0  0
  -30.5207  -18.0646   20.7529 C   0  0  0  0  0  0  0  0  0  0  0  0
  -25.2047  -13.7401   20.3718 C   0  0  0  0  0  0  0  0  0  0  0  0
  -30.8427  -19.5961   18.9217 C   0  0  0  0  0  0  0  0  0  0  0  0
  -22.8099  -13.5493   21.0624 C   0  0  0  0  0  0  0  0  0  0  0  0
  -29.3916  -26.7462   21.0032 C   0  0  0  0  0  0  0  0  0  0  0  0
  -29.6519  -29.4500   19.2301 C   0  0  0  0  0  0  0  0  0  0  0  0
  -30.5998  -30.9095   16.2944 C   0  0  0  0  0  0  0  0  0  0  0  0
  -30.8768  -21.2834   17.0533 C   0  0  0  0  0  0  0  0  0  0  0  0
  -30.6711  -14.8058   20.7301 C   0  0  0  0  0  0  0  0  0  0  0  0
  -28.7173  -25.5498   25.9196 C   0  0  0  0  0  0  0  0  0  0  0  0
  -31.8091  -26.6523   20.2941 C   0  0  0  0  0  0  0  0  0  0  0  0
  -30.0214  -27.2672   18.0202 C   0  0  0  0  0  0  0  0  0  0  0  0
  -28.3818  -26.7447   25.0308 C   0  0  0  0  0  0  0  0  0  0  0  0
  -29.6501  -12.2450   18.4770 C   0  0  0  0  0  0  0  0  0  0  0  0
  -27.7046  -26.2803   23.7453 C   0  0  0  0  0  0  0  0  0  0  0  0
  -28.1955  -11.9745   18.8656 C   0  0  0  0  0  0  0  0  0  0  0  0
  -30.5113  -12.5594   19.6982 C   0  0  0  0  0  0  0  0  0  0  0  0
  -28.5466  -13.3781   20.9405 C   0  0  0  0  0  0  0  0  0  0  0  0
  -28.6317  -25.3695   22.9314 C   0  0  1  0  0  0  0  0  0  0  0  0
  -30.5632  -27.5163   20.4629 C   0  0  1  0  0  0  0  0  0  0  0  0
  -27.6271  -13.1111   19.7365 C   0  0  2  0  0  0  0  0  0  0  0  0
  -30.6536  -33.1293   15.1253 C   0  0  0  0  0  0  0  0  0  0  0  0
  -31.7917  -21.0687   14.7131 C   0  0  0  0  0  0  0  0  0  0  0  0
  -26.6554  -29.2382   18.6951 C   0  0  0  0  0  0  0  0  0  0  0  0
  -26.9471  -30.8633   16.8131 C   0  0  0  0  0  0  0  0  0  0  0  0
  -27.4723  -31.5575   19.1508 C   0  0  0  0  0  0  0  0  0  0  0  0
  -33.5512  -30.8560   16.0805 C   0  0  0  0  0  0  0  0  0  0  0  0
  -30.6742  -17.0419   21.8067 C   0  0  0  0  0  0  0  0  0  0  0  0
  -29.0221  -29.9573   17.9553 C   0  0  1  0  0  0  0  0  0  0  0  0
  -31.4189  -32.1548   16.0070 C   0  0  2  0  0  0  0  0  0  0  0  0
  -31.8751  -21.8226   16.0321 C   0  0  1  0  0  0  0  0  0  1  0  0
  -28.1034  -18.7997   21.0677 C   0  0  0  0  0  0  0  0  0  0  0  0
  -27.5391  -30.3798   18.1542 C   0  0  0  0  0  0  0  0  0  0  0  0
  -25.8197  -11.5562   20.3674 N   0  0  0  0  0  0  0  0  0  0  0  0
  -29.6107  -19.7138   19.3649 N   0  0  0  0  0  0  0  0  0  0  0  0
  -26.1980  -12.8293   20.1618 N   0  0  0  0  0  0  0  0  0  0  0  0
  -30.1275  -28.1313   19.2074 N   0  0  0  0  0  0  0  0  0  0  0  0
  -29.9180  -13.6467   20.4804 N   0  0  0  0  0  0  0  0  0  0  0  0
  -25.4140  -15.0639   20.2103 N   0  0  0  0  0  0  0  0  0  0  0  0
  -21.7867  -12.6608   21.4201 N   0  0  0  0  0  0  0  0  0  0  0  0
  -31.4513  -20.3061   17.8594 N   0  0  0  0  0  0  0  0  0  0  0  0
  -29.6244  -26.1554   22.2304 N   0  0  0  0  0  0  0  0  0  0  0  0
  -29.8880  -31.0263   17.4695 N   0  0  0  0  0  0  0  0  0  0  0  0
  -30.0316  -15.7901   21.4736 N   0  0  0  0  0  0  0  0  0  0  0  0
  -32.6880  -31.7919   15.3151 N   0  3  0  0  0  0  0  0  0  0  0  0
  -22.5674  -14.7792   21.0182 O   0  0  0  0  0  0  0  0  0  0  0  0
  -28.3527  -26.6933   20.3553 O   0  0  0  0  0  0  0  0  0  0  0  0
  -29.7256  -30.1987   20.2076 O   0  0  0  0  0  0  0  0  0  0  0  0
  -30.5894  -29.9324   15.5489 O   0  0  0  0  0  0  0  0  0  0  0  0
  -29.7294  -21.7160   17.1114 O   0  0  0  0  0  0  0  0  0  0  0  0
  -31.8258  -14.9548   20.3161 O   0  0  0  0  0  0  0  0  0  0  0  0
  -21.5265   -7.1190   21.9258 O   0  0  0  0  0  0  0  0  0  0  0  0
  -31.6108  -23.2060   15.8024 O   0  0  0  0  0  0  0  0  0  1  0  0
  -23.8403   -3.3008   25.1619 F   0  0  0  0  0  0  0  0  0  0  0  0
  -20.3757   -6.4196   24.3401 F   0  0  0  0  0  0  0  0  0  0  0  0
  -28.0094  -17.9002   22.0992 F   0  0  0  0  0  0  0  0  0  0  0  0
  -27.7180  -19.9951   21.6190 F   0  0  0  0  0  0  0  0  0  0  0  0
  -27.0883  -18.4621   20.2112 F   0  0  0  0  0  0  0  0  0  0  0  0
  -31.8358  -18.4469   19.7205 S   0  0  0  0  0  0  0  0  0  0  0  0
  1  2  1  0  0  0  0
  1  5  2  0  0  0  0
  2  6  2  0  0  0  0
  3  8  2  0  0  0  0
  3 15  1  0  0  0  0
  4  9  1  0  0  0  0
  4 15  2  0  0  0  0
  5 17  1  0  0  0  0
  6 19  1  0  0  0  0
  7 10  2  0  0  0  0
  7 18  1  0  0  0  0
  8 21  1  0  0  0  0
  9 21  2  0  0  0  0
 10 22  1  0  0  0  0
 11 12  2  0  0  0  0
 11 23  1  0  0  0  0
 12 24  1  0  0  0  0
 13 20  1  0  0  0  0
 13 22  2  0  0  0  0
 14 24  2  0  0  0  0
 14 25  1  0  0  0  0
 15 26  1  0  0  0  0
 16 26  1  0  0  0  0
 16 29  2  0  0  0  0
 16 31  1  0  0  0  0
 17 19  2  0  0  0  0
 17 37  1  0  0  0  0
 18 20  2  0  0  0  0
 18 38  1  0  0  0  0
 19 46  1  0  0  0  0
 20 39  1  0  0  0  0
 21 79  1  0  0  0  0
 22 80  1  0  0  0  0
 23 25  2  0  0  0  0
 23 79  1  0  0  0  0
 24 81  1  0  0  0  0
 25 82  1  0  0  0  0
 26 61  2  0  0  0  0
 27 28  2  0  0  0  0
 27 59  1  0  0  0  0
 27 62  1  0  0  0  0
 28 55  1  0  0  0  0
 28 86  1  0  0  0  0
 29 63  1  0  0  0  0
 29 66  1  0  0  0  0
 30 62  2  0  0  0  0
 30 68  1  0  0  0  0
 30 86  1  0  0  0  0
 31 67  1  0  0  0  0
 31 73  2  0  0  0  0
 32 47  1  0  0  0  0
 32 69  1  0  0  0  0
 32 74  2  0  0  0  0
 33 56  1  0  0  0  0
 33 64  1  0  0  0  0
 33 75  2  0  0  0  0
 34 57  1  0  0  0  0
 34 70  1  0  0  0  0
 34 76  2  0  0  0  0
 35 58  1  0  0  0  0
 35 68  1  0  0  0  0
 35 77  2  0  0  0  0
 36 65  1  0  0  0  0
 36 71  1  0  0  0  0
 36 78  2  0  0  0  0
 37 40  1  0  0  0  0
 38 47  1  0  0  0  0
 39 64  1  0  0  0  0
 40 42  1  0  0  0  0
 41 43  1  0  0  0  0
 41 44  1  0  0  0  0
 42 46  1  0  0  0  0
 43 48  1  0  0  0  0
 44 65  1  0  0  0  0
 45 48  1  0  0  0  0
 45 65  1  0  0  0  0
 46 69  1  0  0  0  0
 47 64  1  0  0  0  0
 48 63  1  0  0  0  0
 49 57  1  0  0  0  0
 50 58  1  0  0  0  0
 51 60  1  0  0  0  0
 52 60  1  0  0  0  0
 53 60  1  0  0  0  0
 54 72  1  0  0  0  0
 55 71  1  0  0  0  0
 56 60  1  0  0  0  0
 56 70  1  0  0  0  0
 57 72  1  0  0  0  0
 58 80  1  0  0  0  0
 59 83  1  0  0  0  0
 59 84  1  0  0  0  0
 59 85  1  0  0  0  0
 61 63  1  0  0  0  0
M  CHG  1  72   1
M  ISO  4  36 100  58 101  71 100  80 101
M  END
> <Batch ID>
0188

> <Smiles>
CNC(C)C(=O)NC(C(=O)N1Cc2cc([101O:1][101CH:1](C)C(=O)Nc3nc(C(F)(F)F)c(C[100NH:0][100C:0](=O)N4CCCC(n5nc(-c6ccc(Oc7ccc(F)cc7F)cc6)c(C(N)=O)c5N)C4)s3)ccc2CC1C(=O)NC1CCCc2ccccc21)C(C)(C)C

> <Shape>
0.262

> <Color>
0.223

> <Negative vol penalty>
0.000

$$$$

  -OEChem-04052305153D

 84 92  0     1  0  0  0  0  0999 V2000
  -25.0891  -20.7162   14.9457 C   0  0  0  0  0  0  0  0  0  0  0  0
  -26.0715  -19.8086   15.3287 C   0  0  0  0  0  0  0  0  0  0  0  0
  -25.6966  -30.0340   22.8581 C   0  0  0  0  0  0  0  0  0  0  0  0
  -26.7069  -31.2652   21.0414 C   0  0  0  0  0  0  0  0  0  0  0  0
  -24.0396  -21.0134   15.8142 C   0  0  0  0  0  0  0  0  0  0  0  0
  -26.0056  -19.1986   16.5809 C   0  0  0  0  0  0  0  0  0  0  0  0
  -27.7394  -13.4975   17.9943 C   0  0  0  0  0  0  0  0  0  0  0  0
  -25.7559  -31.1721   23.6624 C   0  0  0  0  0  0  0  0  0  0  0  0
  -26.7661  -32.4034   21.8457 C   0  0  0  0  0  0  0  0  0  0  0  0
  -28.9009  -12.9863   18.5714 C   0  0  0  0  0  0  0  0  0  0  0  0
  -26.8529  -35.7327   23.3038 C   0  0  0  0  0  0  0  0  0  0  0  0
  -26.4546  -36.9458   22.7424 C   0  0  0  0  0  0  0  0  0  0  0  0
  -30.3988  -18.6950   19.5526 C   0  0  0  0  0  0  0  0  0  0  0  0
  -30.9973  -17.4234   19.7870 C   0  0  0  0  0  0  0  0  0  0  0  0
  -27.8269  -13.0005   20.7314 C   0  0  0  0  0  0  0  0  0  0  0  0
  -24.2532  -36.0359   22.3382 C   0  0  0  0  0  0  0  0  0  0  0  0
  -26.1722  -30.0806   21.5476 C   0  0  0  0  0  0  0  0  0  0  0  0
  -25.0579  -28.5175   19.8675 C   0  0  0  0  0  0  0  0  0  0  0  0
  -23.9555  -20.3994   17.0738 C   0  0  0  0  0  0  0  0  0  0  0  0
  -26.6145  -13.7748   18.7844 C   0  0  0  0  0  0  0  0  0  0  0  0
  -24.9547  -19.4889   17.4675 C   0  0  0  0  0  0  0  0  0  0  0  0
  -26.6514  -13.5129   20.1614 C   0  0  0  0  0  0  0  0  0  0  0  0
  -26.2906  -32.3568   23.1562 C   0  0  0  0  0  0  0  0  0  0  0  0
  -28.9458  -12.7404   19.9406 C   0  0  0  0  0  0  0  0  0  0  0  0
  -25.9515  -34.6711   23.3823 C   0  0  0  0  0  0  0  0  0  0  0  0
  -25.1547  -37.0975   22.2596 C   0  0  0  0  0  0  0  0  0  0  0  0
  -24.6517  -34.8228   22.8995 C   0  0  0  0  0  0  0  0  0  0  0  0
  -26.1118  -28.9051   20.7165 C   0  0  0  0  0  0  0  0  0  0  0  0
  -29.4056  -18.9756   20.4649 C   0  0  0  0  0  0  0  0  0  0  0  0
  -25.4852  -27.3393   19.3056 C   0  0  0  0  0  0  0  0  0  0  0  0
  -30.4388  -16.7805   20.8699 C   0  0  0  0  0  0  0  0  0  0  0  0
  -28.5928  -20.1257   20.5558 C   0  0  0  0  0  0  0  0  0  0  0  0
  -28.6112  -21.2188   19.7208 C   0  0  0  0  0  0  0  0  0  0  0  0
  -23.8047  -29.1646   19.6098 C   0  0  0  0  0  0  0  0  0  0  0  0
  -27.6848  -22.3472   19.9426 C   0  0  0  0  0  0  0  0  0  0  0  0
  -24.9580  -16.3950   19.4875 C   0  0  0  0  0  0  0  0  0  0  0  0
  -22.9942  -14.2836   20.9735 C   0  0  0  0  0  0  0  0  0  0  0  0
  -22.6093  -11.2340   22.4563 C   0  0  0  0  0  0  0  0  0  0  0  0
  -31.6834  -14.5986   21.0388 C   0  0  0  0  0  0  0  0  0  0  0  0
  -22.8281  -20.7881   17.9970 C   0  0  0  0  0  0  0  0  0  0  0  0
  -25.3602  -14.3010   18.1424 C   0  0  0  0  0  0  0  0  0  0  0  0
  -25.4640  -13.7744   21.0504 C   0  0  0  0  0  0  0  0  0  0  0  0
  -22.6280  -19.8160   19.1569 C   0  0  0  0  0  0  0  0  0  0  0  0
  -30.0103  -25.1135   19.3335 C   0  0  0  0  0  0  0  0  0  0  0  0
  -23.9661  -19.4767   19.8059 C   0  0  0  0  0  0  0  0  0  0  0  0
  -29.1162  -26.3171   19.6196 C   0  0  0  0  0  0  0  0  0  0  0  0
  -29.6716  -23.9238   20.2304 C   0  0  0  0  0  0  0  0  0  0  0  0
  -27.3404  -24.7311   20.4631 C   0  0  0  0  0  0  0  0  0  0  0  0
  -24.9044  -18.7878   18.8077 C   0  0  1  0  0  0  0  0  0  0  0  0
  -24.4471  -15.0296   19.1236 C   0  0  1  0  0  0  0  0  0  0  0  0
  -27.6325  -25.9242   19.5398 C   0  0  1  0  0  0  0  0  0  0  0  0
  -20.8978   -9.8062   23.6094 C   0  0  0  0  0  0  0  0  0  0  0  0
  -30.3543  -11.3353   22.7070 C   0  0  0  0  0  0  0  0  0  0  0  0
  -23.2686  -15.9897   23.4882 C   0  0  0  0  0  0  0  0  0  0  0  0
  -22.3601  -14.0660   24.8082 C   0  0  0  0  0  0  0  0  0  0  0  0
  -20.9568  -15.1428   23.0493 C   0  0  0  0  0  0  0  0  0  0  0  0
  -22.8291   -9.1114   20.4057 C   0  0  0  0  0  0  0  0  0  0  0  0
  -22.9115  -13.6945   22.3610 C   0  0  1  0  0  0  0  0  0  0  0  0
  -21.5550  -10.1557   22.2832 C   0  0  2  0  0  0  0  0  0  0  0  0
  -31.6777  -13.3542   21.9275 C   0  0  1  0  0  0  0  0  0  0  0  0
  -30.3409  -12.6039   21.8618 C   0  0  1  0  0  0  0  0  0  1  0  0
  -22.3974  -14.7200   23.4105 C   0  0  0  0  0  0  0  0  0  0  0  0
  -27.1318  -28.0430   20.6989 N   0  0  0  0  0  0  0  0  0  0  0  0
  -26.7209  -27.1019   19.8320 N   0  0  0  0  0  0  0  0  0  0  0  0
  -28.2369  -23.6043   20.1819 N   0  0  0  0  0  0  0  0  0  0  0  0
  -24.2628  -14.2947   20.3767 N   0  0  0  0  0  0  0  0  0  0  0  0
  -24.9208  -26.4936   18.4176 N   0  0  0  0  0  0  0  0  0  0  0  0
  -23.5258  -30.3683   20.2714 N   0  0  0  0  0  0  0  0  0  0  0  0
  -30.7249  -15.5203   21.4467 N   0  0  0  0  0  0  0  0  0  0  0  0
  -24.5322  -17.3994   18.6395 N   0  0  0  0  0  0  0  0  0  0  0  0
  -22.0903  -12.4941   22.2465 N   0  0  0  0  0  0  0  0  0  0  0  0
  -22.1670   -8.9184   21.7215 N   0  3  0  0  0  0  0  0  0  0  0  0
  -22.9504  -28.6811   18.8288 O   0  0  0  0  0  0  0  0  0  0  0  0
  -26.4767  -22.1064   19.9073 O   0  0  0  0  0  0  0  0  0  0  0  0
  -25.6834  -16.5276   20.4662 O   0  0  0  0  0  0  0  0  0  0  0  0
  -21.9696  -14.7114   20.4361 O   0  0  0  0  0  0  0  0  0  0  0  0
  -23.7757  -10.9839   22.7521 O   0  0  0  0  0  0  0  0  0  0  0  0
  -32.4745  -14.7115   20.1067 O   0  0  0  0  0  0  0  0  0  0  0  0
  -32.7472  -12.5073   21.5333 O   0  0  0  0  0  0  0  0  0  0  0  0
  -26.3483  -33.4676   23.9406 O   0  0  0  0  0  0  0  0  0  0  0  0
  -30.0786  -12.2420   20.5066 O   0  0  0  0  0  0  0  0  0  1  0  0
  -24.7718  -38.2630   21.7220 F   0  0  0  0  0  0  0  0  0  0  0  0
  -23.7808  -33.8069   22.9733 F   0  0  0  0  0  0  0  0  0  0  0  0
  -29.1980  -17.7089   21.5985 S   0  0  0  0  0  0  0  0  0  0  0  0
  1  2  1  0  0  0  0
  1  5  2  0  0  0  0
  2  6  2  0  0  0  0
  3  8  2  0  0  0  0
  3 17  1  0  0  0  0
  4  9  1  0  0  0  0
  4 17  2  0  0  0  0
  5 19  1  0  0  0  0
  6 21  1  0  0  0  0
  7 10  2  0  0  0  0
  7 20  1  0  0  0  0
  8 23  1  0  0  0  0
  9 23  2  0  0  0  0
 10 24  1  0  0  0  0
 11 12  2  0  0  0  0
 11 25  1  0  0  0  0
 12 26  1  0  0  0  0
 13 14  1  0  0  0  0
 13 29  2  0  0  0  0
 14 31  2  0  0  0  0
 15 22  1  0  0  0  0
 15 24  2  0  0  0  0
 16 26  2  0  0  0  0
 16 27  1  0  0  0  0
 17 28  1  0  0  0  0
 18 28  1  0  0  0  0
 18 30  2  0  0  0  0
 18 34  1  0  0  0  0
 19 21  2  0  0  0  0
 19 40  1  0  0  0  0
 20 22  2  0  0  0  0
 20 41  1  0  0  0  0
 21 49  1  0  0  0  0
 22 42  1  0  0  0  0
 23 80  1  0  0  0  0
 24 81  1  0  0  0  0
 25 27  2  0  0  0  0
 25 80  1  0  0  0  0
 26 82  1  0  0  0  0
 27 83  1  0  0  0  0
 28 63  2  0  0  0  0
 29 32  1  0  0  0  0
 29 84  1  0  0  0  0
 30 64  1  0  0  0  0
 30 67  1  0  0  0  0
 31 69  1  0  0  0  0
 31 84  1  0  0  0  0
 32 33  2  0  0  0  0
 33 35  1  0  0  0  0
 34 68  1  0  0  0  0
 34 73  2  0  0  0  0
 35 65  1  0  0  0  0
 35 74  2  0  0  0  0
 36 50  1  0  0  0  0
 36 70  1  0  0  0  0
 36 75  2  0  0  0  0
 37 58  1  0  0  0  0
 37 66  1  0  0  0  0
 37 76  2  0  0  0  0
 38 59  1  0  0  0  0
 38 71  1  0  0  0  0
 38 77  2  0  0  0  0
 39 60  1  0  0  0  0
 39 69  1  0  0  0  0
 39 78  2  0  0  0  0
 40 43  1  0  0  0  0
 41 50  1  0  0  0  0
 42 66  1  0  0  0  0
 43 45  1  0  0  0  0
 44 46  1  0  0  0  0
 44 47  1  0  0  0  0
 45 49  1  0  0  0  0
 46 51  1  0  0  0  0
 47 65  1  0  0  0  0
 48 51  1  0  0  0  0
 48 65  1  0  0  0  0
 49 70  1  0  0  0  0
 50 66  1  0  0  0  0
 51 64  1  0  0  0  0
 52 59  1  0  0  0  0
 53 61  1  0  0  0  0
 54 62  1  0  0  0  0
 55 62  1  0  0  0  0
 56 62  1  0  0  0  0
 57 72  1  0  0  0  0
 58 62  1  0  0  0  0
 58 71  1  0  0  0  0
 59 72  1  0  0  0  0
 60 61  1  0  0  0  0
 60 79  1  0  0  0  0
 61 81  1  0  0  0  0
 63 64  1  0  0  0  0
M  CHG  1  72   1
M  ISO  4  33 100  35 100  61 101  81 101
M  END
> <Batch ID>
0188

> <Smiles>
CNC(C)C(=O)NC(C(=O)N1Cc2cc([101O:1][101CH:1](C)C(O)C(=O)Nc3ccc(C=[100CH:0][100C:0](=O)N4CCCC(n5nc(-c6ccc(Oc7ccc(F)cc7F)cc6)c(C(N)=O)c5N)C4)s3)ccc2CC1C(=O)NC1CCCc2ccccc21)C(C)(C)C

> <Shape>
0.316

> <Color>
0.067

> <Negative vol penalty>
0.000

$$$$

  -OEChem-04052305153D

 89 97  0     1  0  0  0  0  0999 V2000
  -19.5313  -30.8176   24.2239 C   0  0  0  0  0  0  0  0  0  0  0  0
  -20.9014  -30.6207   24.0842 C   0  0  0  0  0  0  0  0  0  0  0  0
  -25.7012  -13.6001   21.7450 C   0  0  0  0  0  0  0  0  0  0  0  0
  -24.5932  -14.6396   19.8664 C   0  0  0  0  0  0  0  0  0  0  0  0
  -18.6385  -29.8534   23.7578 C   0  0  0  0  0  0  0  0  0  0  0  0
  -21.3795  -29.4589   23.4792 C   0  0  0  0  0  0  0  0  0  0  0  0
  -25.0820  -30.3841   20.1505 C   0  0  0  0  0  0  0  0  0  0  0  0
  -30.9251  -23.4166   17.2517 C   0  0  0  0  0  0  0  0  0  0  0  0
  -24.7291  -12.6000   21.7649 C   0  0  0  0  0  0  0  0  0  0  0  0
  -23.6211  -13.6394   19.8863 C   0  0  0  0  0  0  0  0  0  0  0  0
  -26.3540  -30.6309   20.6652 C   0  0  0  0  0  0  0  0  0  0  0  0
  -22.7405   -9.5734   22.0813 C   0  0  0  0  0  0  0  0  0  0  0  0
  -23.1704   -8.2539   22.2221 C   0  0  0  0  0  0  0  0  0  0  0  0
  -30.1087  -22.5555   17.9764 C   0  0  0  0  0  0  0  0  0  0  0  0
  -26.9869  -28.3551   20.1761 C   0  0  0  0  0  0  0  0  0  0  0  0
  -24.4546   -8.4550   20.1856 C   0  0  0  0  0  0  0  0  0  0  0  0
  -25.6332  -14.6200   20.7957 C   0  0  0  0  0  0  0  0  0  0  0  0
  -27.8479  -15.6484   20.0575 C   0  0  0  0  0  0  0  0  0  0  0  0
  -19.1057  -28.6836   23.1382 C   0  0  0  0  0  0  0  0  0  0  0  0
  -24.7489  -29.1157   19.6539 C   0  0  0  0  0  0  0  0  0  0  0  0
  -20.4922  -28.4775   23.0057 C   0  0  0  0  0  0  0  0  0  0  0  0
  -25.7108  -28.0955   19.6533 C   0  0  0  0  0  0  0  0  0  0  0  0
  -31.2106  -24.6816   17.7532 C   0  0  0  0  0  0  0  0  0  0  0  0
  -23.6891  -12.6196   20.8356 C   0  0  0  0  0  0  0  0  0  0  0  0
  -27.3057  -29.6156   20.6807 C   0  0  0  0  0  0  0  0  0  0  0  0
  -23.1676  -10.3336   20.9926 C   0  0  0  0  0  0  0  0  0  0  0  0
  -24.0274   -7.6947   21.2743 C   0  0  0  0  0  0  0  0  0  0  0  0
  -24.0247   -9.7744   20.0448 C   0  0  0  0  0  0  0  0  0  0  0  0
  -26.6367  -15.6537   20.7750 C   0  0  0  0  0  0  0  0  0  0  0  0
  -29.6067  -23.0035   19.1876 C   0  0  0  0  0  0  0  0  0  0  0  0
  -30.6591  -25.0346   18.9744 C   0  0  0  0  0  0  0  0  0  0  0  0
  -28.4384  -16.8480   20.3719 C   0  0  0  0  0  0  0  0  0  0  0  0
  -28.3906  -14.6487   19.1848 C   0  0  0  0  0  0  0  0  0  0  0  0
  -22.6181  -26.8898   20.4342 C   0  0  0  0  0  0  0  0  0  0  0  0
  -23.7161  -25.4497   17.7429 C   0  0  0  0  0  0  0  0  0  0  0  0
  -30.4965  -26.8678   20.6898 C   0  0  0  0  0  0  0  0  0  0  0  0
  -26.2495  -25.0690   15.4882 C   0  0  0  0  0  0  0  0  0  0  0  0
  -28.1672  -22.3546   21.1505 C   0  0  0  0  0  0  0  0  0  0  0  0
  -18.1036  -27.6482   22.6928 C   0  0  0  0  0  0  0  0  0  0  0  0
  -23.3809  -28.8731   19.0775 C   0  0  0  0  0  0  0  0  0  0  0  0
  -25.4098  -26.7221   19.1133 C   0  0  0  0  0  0  0  0  0  0  0  0
  -18.6815  -26.6172   21.7267 C   0  0  0  0  0  0  0  0  0  0  0  0
  -27.2492  -20.2815   23.8958 C   0  0  0  0  0  0  0  0  0  0  0  0
  -20.0252  -26.1041   22.2346 C   0  0  0  0  0  0  0  0  0  0  0  0
  -27.1077  -18.8923   23.2696 C   0  0  0  0  0  0  0  0  0  0  0  0
  -26.7617  -21.3807   22.9536 C   0  0  0  0  0  0  0  0  0  0  0  0
  -27.2179  -19.9698   20.9862 C   0  0  0  0  0  0  0  0  0  0  0  0
  -21.0489  -27.2416   22.3327 C   0  0  1  0  0  0  0  0  0  0  0  0
  -22.9886  -27.3989   19.0699 C   0  0  1  0  0  0  0  0  0  0  0  0
  -27.7565  -18.8350   21.8727 C   0  0  2  0  0  0  0  0  0  0  0  0
  -32.5349  -28.3310   20.8798 C   0  0  0  0  0  0  0  0  0  0  0  0
  -26.8689  -23.7930   13.4180 C   0  0  0  0  0  0  0  0  0  0  0  0
  -28.5180  -29.7440   23.5804 C   0  0  0  0  0  0  0  0  0  0  0  0
  -24.2217  -22.9594   19.4320 C   0  0  0  0  0  0  0  0  0  0  0  0
  -25.6782  -22.0909   17.5901 C   0  0  0  0  0  0  0  0  0  0  0  0
  -23.2547  -22.5073   17.1704 C   0  0  0  0  0  0  0  0  0  0  0  0
  -26.5328  -27.5518   13.9026 C   0  0  0  0  0  0  0  0  0  0  0  0
  -30.4873  -28.8930   22.2551 C   0  0  0  0  0  0  0  0  0  0  0  0
  -24.8236  -24.4730   17.4288 C   0  0  1  0  0  0  0  0  0  0  0  0
  -31.0069  -28.2913   20.9354 C   0  0  2  0  0  0  0  0  0  0  0  0
  -26.2556  -25.0704   13.9702 C   0  0  2  0  0  0  0  0  0  0  0  0
  -28.9622  -29.0595   22.2940 C   0  0  2  0  0  0  0  0  0  1  0  0
  -32.0866  -25.6021   16.9734 C   0  0  0  0  0  0  0  0  0  0  0  0
  -24.4999  -23.0329   17.9174 C   0  0  0  0  0  0  0  0  0  0  0  0
  -26.4666  -16.7681   21.4913 N   0  0  0  0  0  0  0  0  0  0  0  0
  -29.8618  -24.2252   19.7071 N   0  0  0  0  0  0  0  0  0  0  0  0
  -27.5787  -17.4743   21.2256 N   0  0  0  0  0  0  0  0  0  0  0  0
  -24.0562  -26.5324   18.5662 N   0  0  0  0  0  0  0  0  0  0  0  0
  -27.4224  -21.2661   21.6516 N   0  0  0  0  0  0  0  0  0  0  0  0
  -29.6041  -17.4175   19.9986 N   0  0  0  0  0  0  0  0  0  0  0  0
  -27.6531  -13.4760   18.9719 N   0  0  0  0  0  0  0  0  0  0  0  0
  -30.9432  -26.3199   19.4948 N   0  0  0  0  0  0  0  0  0  0  0  0
  -28.7771  -22.1178   19.9191 N   0  0  0  0  0  0  0  0  0  0  0  0
  -21.5680  -27.5688   21.0220 N   0  0  0  0  0  0  0  0  0  0  0  0
  -25.0647  -24.5771   15.9937 N   0  0  0  0  0  0  0  0  0  0  0  0
  -27.0401  -26.2287   13.4564 N   0  3  0  0  0  0  0  0  0  0  0  0
  -29.5044  -14.7838   18.6237 O   0  0  0  0  0  0  0  0  0  0  0  0
  -23.2382  -25.9496   20.9171 O   0  0  0  0  0  0  0  0  0  0  0  0
  -22.5926  -25.2628   17.2693 O   0  0  0  0  0  0  0  0  0  0  0  0
  -29.7664  -26.3326   21.5218 O   0  0  0  0  0  0  0  0  0  0  0  0
  -27.2021  -25.4612   16.1585 O   0  0  0  0  0  0  0  0  0  0  0  0
  -28.2798  -23.4090   21.7811 O   0  0  0  0  0  0  0  0  0  0  0  0
  -22.7405  -11.6437   20.8546 O   0  0  0  0  0  0  0  0  0  0  0  0
  -28.5478  -29.8536   21.1832 O   0  0  0  0  0  0  0  0  0  1  0  0
  -24.4414   -6.4281   21.4105 F   0  0  0  0  0  0  0  0  0  0  0  0
  -24.4393  -10.5002   18.9973 F   0  0  0  0  0  0  0  0  0  0  0  0
  -32.5306  -25.0697   15.7962 F   0  0  0  0  0  0  0  0  0  0  0  0
  -31.4771  -26.7743   16.6261 F   0  0  0  0  0  0  0  0  0  0  0  0
  -33.2109  -25.9634   17.6582 F   0  0  0  0  0  0  0  0  0  0  0  0
  1  2  1  0  0  0  0
  1  5  2  0  0  0  0
  2  6  2  0  0  0  0
  3  9  2  0  0  0  0
  3 17  1  0  0  0  0
  4 10  1  0  0  0  0
  4 17  2  0  0  0  0
  5 19  1  0  0  0  0
  6 21  1  0  0  0  0
  7 11  2  0  0  0  0
  7 20  1  0  0  0  0
  8 14  2  0  0  0  0
  8 23  1  0  0  0  0
  9 24  1  0  0  0  0
 10 24  2  0  0  0  0
 11 25  1  0  0  0  0
 12 13  2  0  0  0  0
 12 26  1  0  0  0  0
 13 27  1  0  0  0  0
 14 30  1  0  0  0  0
 15 22  1  0  0  0  0
 15 25  2  0  0  0  0
 16 27  2  0  0  0  0
 16 28  1  0  0  0  0
 17 29  1  0  0  0  0
 18 29  1  0  0  0  0
 18 32  2  0  0  0  0
 18 33  1  0  0  0  0
 19 21  2  0  0  0  0
 19 39  1  0  0  0  0
 20 22  2  0  0  0  0
 20 40  1  0  0  0  0
 21 48  1  0  0  0  0
 22 41  1  0  0  0  0
 23 31  2  0  0  0  0
 23 63  1  0  0  0  0
 24 83  1  0  0  0  0
 25 84  1  0  0  0  0
 26 28  2  0  0  0  0
 26 83  1  0  0  0  0
 27 85  1  0  0  0  0
 28 86  1  0  0  0  0
 29 65  2  0  0  0  0
 30 66  2  0  0  0  0
 30 73  1  0  0  0  0
 31 66  1  0  0  0  0
 31 72  1  0  0  0  0
 32 67  1  0  0  0  0
 32 70  1  0  0  0  0
 33 71  1  0  0  0  0
 33 77  2  0  0  0  0
 34 49  1  0  0  0  0
 34 74  1  0  0  0  0
 34 78  2  0  0  0  0
 35 59  1  0  0  0  0
 35 68  1  0  0  0  0
 35 79  2  0  0  0  0
 36 60  1  0  0  0  0
 36 72  1  0  0  0  0
 36 80  2  0  0  0  0
 37 61  1  0  0  0  0
 37 75  1  0  0  0  0
 37 81  2  0  0  0  0
 38 69  1  0  0  0  0
 38 73  1  0  0  0  0
 38 82  2  0  0  0  0
 39 42  1  0  0  0  0
 40 49  1  0  0  0  0
 41 68  1  0  0  0  0
 42 44  1  0  0  0  0
 43 45  1  0  0  0  0
 43 46  1  0  0  0  0
 44 48  1  0  0  0  0
 45 50  1  0  0  0  0
 46 69  1  0  0  0  0
 47 50  1  0  0  0  0
 47 69  1  0  0  0  0
 48 74  1  0  0  0  0
 49 68  1  0  0  0  0
 50 67  1  0  0  0  0
 51 60  1  0  0  0  0
 52 61  1  0  0  0  0
 53 62  1  0  0  0  0
 54 64  1  0  0  0  0
 55 64  1  0  0  0  0
 56 64  1  0  0  0  0
 57 76  1  0  0  0  0
 58 60  1  0  0  0  0
 58 62  1  0  0  0  0
 59 64  1  0  0  0  0
 59 75  1  0  0  0  0
 61 76  1  0  0  0  0
 62 84  1  0  0  0  0
 63 87  1  0  0  0  0
 63 88  1  0  0  0  0
 63 89  1  0  0  0  0
 65 67  1  0  0  0  0
M  CHG  1  76   1
M  ISO  4  38 100  62 101  73 100  84 101
M  END
> <Batch ID>
0188

> <Smiles>
CNC(C)C(=O)NC(C(=O)N1Cc2cc([101O:1][101CH:1](C)CC(C)C(=O)Nc3nc([100NH:0][100C:0](=O)N4CCCC(n5nc(-c6ccc(Oc7ccc(F)cc7F)cc6)c(C(N)=O)c5N)C4)ccc3C(F)(F)F)ccc2CC1C(=O)NC1CCCc2ccccc21)C(C)(C)C

> <Shape>
0.293

> <Color>
0.056

> <Negative vol penalty>
0.000

$$$$

  -OEChem-04052305153D

 83 91  0     1  0  0  0  0  0999 V2000
  -27.4566  -33.9058   26.0581 C   0  0  0  0  0  0  0  0  0  0  0  0
  -27.6966  -32.5478   25.8744 C   0  0  0  0  0  0  0  0  0  0  0  0
  -26.8940  -12.8263   21.0538 C   0  0  0  0  0  0  0  0  0  0  0  0
  -26.7956  -13.1924   18.6677 C   0  0  0  0  0  0  0  0  0  0  0  0
  -26.2332  -34.4543   25.6756 C   0  0  0  0  0  0  0  0  0  0  0  0
  -26.7128  -31.7373   25.3090 C   0  0  0  0  0  0  0  0  0  0  0  0
  -28.5660  -28.5963   21.7956 C   0  0  0  0  0  0  0  0  0  0  0  0
  -26.3325  -11.5610   20.8828 C   0  0  0  0  0  0  0  0  0  0  0  0
  -26.2341  -11.9270   18.4967 C   0  0  0  0  0  0  0  0  0  0  0  0
  -29.2336  -27.4586   22.2471 C   0  0  0  0  0  0  0  0  0  0  0  0
  -23.2623  -10.2492   20.3560 C   0  0  0  0  0  0  0  0  0  0  0  0
  -22.2377   -9.8729   21.2244 C   0  0  0  0  0  0  0  0  0  0  0  0
  -27.2513  -26.1436   21.8460 C   0  0  0  0  0  0  0  0  0  0  0  0
  -23.5651   -8.0007   21.9794 C   0  0  0  0  0  0  0  0  0  0  0  0
  -29.0940  -23.9276   16.5060 C   0  0  0  0  0  0  0  0  0  0  0  0
  -27.1254  -13.6421   19.9462 C   0  0  0  0  0  0  0  0  0  0  0  0
  -29.0731  -15.2808   20.1164 C   0  0  0  0  0  0  0  0  0  0  0  0
  -25.2375  -33.6520   25.0964 C   0  0  0  0  0  0  0  0  0  0  0  0
  -27.2304  -28.5181   21.3755 C   0  0  0  0  0  0  0  0  0  0  0  0
  -25.4744  -32.2754   24.9196 C   0  0  0  0  0  0  0  0  0  0  0  0
  -26.5699  -27.2813   21.3873 C   0  0  0  0  0  0  0  0  0  0  0  0
  -26.0026  -11.1113   19.6043 C   0  0  0  0  0  0  0  0  0  0  0  0
  -28.5754  -26.2326   22.2751 C   0  0  0  0  0  0  0  0  0  0  0  0
  -24.4384   -9.5012   20.2992 C   0  0  0  0  0  0  0  0  0  0  0  0
  -22.3891   -8.7487   22.0361 C   0  0  0  0  0  0  0  0  0  0  0  0
  -24.5898   -8.3770   21.1109 C   0  0  0  0  0  0  0  0  0  0  0  0
  -27.7048  -14.9495   20.1222 C   0  0  0  0  0  0  0  0  0  0  0  0
  -28.3995  -23.0491   17.3110 C   0  0  0  0  0  0  0  0  0  0  0  0
  -29.0985  -16.6385   20.3228 C   0  0  0  0  0  0  0  0  0  0  0  0
  -29.9611  -23.6364   18.7345 C   0  0  0  0  0  0  0  0  0  0  0  0
  -30.2186  -14.4368   19.9401 C   0  0  0  0  0  0  0  0  0  0  0  0
  -24.4938  -29.8103   22.3477 C   0  0  0  0  0  0  0  0  0  0  0  0
  -23.3198  -28.3689   19.6894 C   0  0  0  0  0  0  0  0  0  0  0  0
  -23.6296  -25.8959   17.3582 C   0  0  0  0  0  0  0  0  0  0  0  0
  -26.1213  -21.4193   18.9832 C   0  0  0  0  0  0  0  0  0  0  0  0
  -23.9133  -34.2809   24.7423 C   0  0  0  0  0  0  0  0  0  0  0  0
  -26.5327  -29.7494   20.8661 C   0  0  0  0  0  0  0  0  0  0  0  0
  -25.1425  -27.1402   20.9278 C   0  0  0  0  0  0  0  0  0  0  0  0
  -23.0636  -33.4255   23.8061 C   0  0  0  0  0  0  0  0  0  0  0  0
  -25.9365  -19.9350   22.2142 C   0  0  0  0  0  0  0  0  0  0  0  0
  -23.0342  -31.9776   24.2853 C   0  0  0  0  0  0  0  0  0  0  0  0
  -26.5009  -18.5289   22.0036 C   0  0  0  0  0  0  0  0  0  0  0  0
  -25.1228  -20.4028   21.0096 C   0  0  0  0  0  0  0  0  0  0  0  0
  -26.3938  -18.9197   19.5067 C   0  0  0  0  0  0  0  0  0  0  0  0
  -24.4414  -31.3683   24.2869 C   0  0  1  0  0  0  0  0  0  0  0  0
  -25.0125  -29.6512   20.9465 C   0  0  1  0  0  0  0  0  0  0  0  0
  -27.2686  -18.4265   20.6719 C   0  0  2  0  0  0  0  0  0  0  0  0
  -22.4959  -24.9468   15.3305 C   0  0  0  0  0  0  0  0  0  0  0  0
  -30.8661  -21.5198   20.8972 C   0  0  0  0  0  0  0  0  0  0  0  0
  -21.2231  -27.0591   21.4778 C   0  0  0  0  0  0  0  0  0  0  0  0
  -20.7540  -25.4420   19.6250 C   0  0  0  0  0  0  0  0  0  0  0  0
  -20.3546  -27.8802   19.2810 C   0  0  0  0  0  0  0  0  0  0  0  0
  -25.9756  -26.4536   15.6423 C   0  0  0  0  0  0  0  0  0  0  0  0
  -27.1921  -22.2936   16.9221 C   0  0  0  0  0  0  0  0  0  0  0  0
  -30.6363  -25.0703   22.5149 C   0  0  0  0  0  0  0  0  0  1  0  0
  -22.7281  -27.0149   19.3804 C   0  0  1  0  0  0  0  0  0  0  0  0
  -23.5430  -25.9234   15.8429 C   0  0  2  0  0  0  0  0  0  0  0  0
  -30.4028  -22.9610   21.0955 C   0  0  1  0  0  0  0  0  0  0  0  0
  -31.0543  -23.6129   22.3262 C   0  0  1  0  0  0  0  0  0  0  0  0
  -21.2912  -26.8517   19.9516 C   0  0  0  0  0  0  0  0  0  0  0  0
  -26.9181  -16.0112   20.3170 N   0  0  0  0  0  0  0  0  0  0  0  0
  -28.8955  -22.8805   18.5890 N   0  0  0  0  0  0  0  0  0  0  0  0
  -27.7947  -17.0228   20.4356 N   0  0  0  0  0  0  0  0  0  0  0  0
  -24.5012  -28.3742   20.4444 N   0  0  0  0  0  0  0  0  0  0  0  0
  -25.9086  -20.2817   19.7792 N   0  0  0  0  0  0  0  0  0  0  0  0
  -30.1086  -17.5291   20.4170 N   0  0  0  0  0  0  0  0  0  0  0  0
  -30.0132  -13.0651   19.7389 N   0  0  0  0  0  0  0  0  0  0  0  0
  -30.7099  -23.7119   19.8943 N   0  0  0  0  0  0  0  0  0  0  0  0
  -24.8382  -31.0092   22.9423 N   0  0  0  0  0  0  0  0  0  0  0  0
  -22.8181  -26.8507   17.9336 N   0  0  0  0  0  0  0  0  0  0  0  0
  -26.8820  -21.2184   17.8379 N   0  0  0  0  0  0  0  0  0  0  0  0
  -24.8578  -25.5606   15.2422 N   0  3  0  0  0  0  0  0  0  0  0  0
  -31.3903  -14.8832   19.9768 O   0  0  0  0  0  0  0  0  0  0  0  0
  -23.8292  -28.9125   22.8515 O   0  0  0  0  0  0  0  0  0  0  0  0
  -22.7585  -29.3842   19.2702 O   0  0  0  0  0  0  0  0  0  0  0  0
  -24.3427  -25.1039   17.9703 O   0  0  0  0  0  0  0  0  0  0  0  0
  -25.6716  -22.5328   19.2747 O   0  0  0  0  0  0  0  0  0  0  0  0
  -32.4766  -23.5471   22.2094 O   0  0  0  0  0  0  0  0  0  0  0  0
  -25.4550   -9.8765   19.4371 O   0  0  0  0  0  0  0  0  0  0  0  0
  -29.2244  -25.1207   22.7159 O   0  0  0  0  0  0  0  0  0  1  0  0
  -21.4057   -8.3884   22.8711 F   0  0  0  0  0  0  0  0  0  0  0  0
  -25.7177   -7.6551   21.0616 F   0  0  0  0  0  0  0  0  0  0  0  0
  -30.4228  -24.5763   17.3749 S   0  0  0  0  0  0  0  0  0  0  0  0
  1  2  1  0  0  0  0
  1  5  2  0  0  0  0
  2  6  2  0  0  0  0
  3  8  2  0  0  0  0
  3 16  1  0  0  0  0
  4  9  1  0  0  0  0
  4 16  2  0  0  0  0
  5 18  1  0  0  0  0
  6 20  1  0  0  0  0
  7 10  2  0  0  0  0
  7 19  1  0  0  0  0
  8 22  1  0  0  0  0
  9 22  2  0  0  0  0
 10 23  1  0  0  0  0
 11 12  2  0  0  0  0
 11 24  1  0  0  0  0
 12 25  1  0  0  0  0
 13 21  1  0  0  0  0
 13 23  2  0  0  0  0
 14 25  2  0  0  0  0
 14 26  1  0  0  0  0
 15 28  2  0  0  0  0
 15 83  1  0  0  0  0
 16 27  1  0  0  0  0
 17 27  1  0  0  0  0
 17 29  2  0  0  0  0
 17 31  1  0  0  0  0
 18 20  2  0  0  0  0
 18 36  1  0  0  0  0
 19 21  2  0  0  0  0
 19 37  1  0  0  0  0
 20 45  1  0  0  0  0
 21 38  1  0  0  0  0
 22 79  1  0  0  0  0
 23 80  1  0  0  0  0
 24 26  2  0  0  0  0
 24 79  1  0  0  0  0
 25 81  1  0  0  0  0
 26 82  1  0  0  0  0
 27 61  2  0  0  0  0
 28 54  1  0  0  0  0
 28 62  1  0  0  0  0
 29 63  1  0  0  0  0
 29 66  1  0  0  0  0
 30 62  2  0  0  0  0
 30 68  1  0  0  0  0
 30 83  1  0  0  0  0
 31 67  1  0  0  0  0
 31 73  2  0  0  0  0
 32 46  1  0  0  0  0
 32 69  1  0  0  0  0
 32 74  2  0  0  0  0
 33 56  1  0  0  0  0
 33 64  1  0  0  0  0
 33 75  2  0  0  0  0
 34 57  1  0  0  0  0
 34 70  1  0  0  0  0
 34 76  2  0  0  0  0
 35 65  1  0  0  0  0
 35 71  1  0  0  0  0
 35 77  2  0  0  0  0
 36 39  1  0  0  0  0
 37 46  1  0  0  0  0
 38 64  1  0  0  0  0
 39 41  1  0  0  0  0
 40 42  1  0  0  0  0
 40 43  1  0  0  0  0
 41 45  1  0  0  0  0
 42 47  1  0  0  0  0
 43 65  1  0  0  0  0
 44 47  1  0  0  0  0
 44 65  1  0  0  0  0
 45 69  1  0  0  0  0
 46 64  1  0  0  0  0
 47 63  1  0  0  0  0
 48 57  1  0  0  0  0
 49 58  1  0  0  0  0
 50 60  1  0  0  0  0
 51 60  1  0  0  0  0
 52 60  1  0  0  0  0
 53 72  1  0  0  0  0
 54 71  1  0  0  0  0
 55 59  1  0  0  0  0
 55 80  1  0  0  0  0
 56 60  1  0  0  0  0
 56 70  1  0  0  0  0
 57 72  1  0  0  0  0
 58 59  1  0  0  0  0
 58 68  1  0  0  0  0
 59 78  1  0  0  0  0
 61 63  1  0  0  0  0
M  CHG  1  72   1
M  ISO  4  35 100  55 101  71 100  80 101
M  END
> <Batch ID>
0188

> <Smiles>
CNC(C)C(=O)NC(C(=O)N1Cc2cc([101O:1][101CH2:1]C(O)C(C)Nc3nc(C[100NH:0][100C:0](=O)N4CCCC(n5nc(-c6ccc(Oc7ccc(F)cc7F)cc6)c(C(N)=O)c5N)C4)cs3)ccc2CC1C(=O)NC1CCCc2ccccc21)C(C)(C)C

> <Shape>
0.259

> <Color>
0.088

> <Negative vol penalty>
0.000

$$$$

  -OEChem-04052305153D

 88 96  0     1  0  0  0  0  0999 V2000
  -19.5774  -10.0643   21.7003 C   0  0  0  0  0  0  0  0  0  0  0  0
  -20.0263  -11.0998   22.5138 C   0  0  0  0  0  0  0  0  0  0  0  0
  -22.1064  -30.0959   20.0113 C   0  0  0  0  0  0  0  0  0  0  0  0
  -22.4119  -28.7931   22.0228 C   0  0  0  0  0  0  0  0  0  0  0  0
  -20.4937   -9.2910   20.9888 C   0  0  0  0  0  0  0  0  0  0  0  0
  -21.3920  -11.3618   22.6170 C   0  0  0  0  0  0  0  0  0  0  0  0
  -24.0486  -16.8373   23.3008 C   0  0  0  0  0  0  0  0  0  0  0  0
  -20.7426  -29.8037   20.0291 C   0  0  0  0  0  0  0  0  0  0  0  0
  -21.0480  -28.5009   22.0407 C   0  0  0  0  0  0  0  0  0  0  0  0
  -24.5364  -17.5099   24.4203 C   0  0  0  0  0  0  0  0  0  0  0  0
  -18.1825  -30.0484   22.9429 C   0  0  0  0  0  0  0  0  0  0  0  0
  -17.5142  -30.1555   24.1626 C   0  0  0  0  0  0  0  0  0  0  0  0
  -26.7550  -16.6967   23.9347 C   0  0  0  0  0  0  0  0  0  0  0  0
  -30.1476  -22.2882   22.4610 C   0  0  0  0  0  0  0  0  0  0  0  0
  -16.9175  -27.8175   24.0408 C   0  0  0  0  0  0  0  0  0  0  0  0
  -22.9410  -29.5905   21.0081 C   0  0  0  0  0  0  0  0  0  0  0  0
  -24.9937  -30.9846   21.6003 C   0  0  0  0  0  0  0  0  0  0  0  0
  -21.8706   -9.5499   21.0757 C   0  0  0  0  0  0  0  0  0  0  0  0
  -24.9099  -16.0792   22.4946 C   0  0  0  0  0  0  0  0  0  0  0  0
  -22.3277  -10.5904   21.9069 C   0  0  0  0  0  0  0  0  0  0  0  0
  -26.2761  -16.0175   22.8041 C   0  0  0  0  0  0  0  0  0  0  0  0
  -30.1329  -23.2982   21.4560 C   0  0  0  0  0  0  0  0  0  0  0  0
  -20.2134  -29.0063   21.0438 C   0  0  0  0  0  0  0  0  0  0  0  0
  -25.8893  -17.4374   24.7391 C   0  0  0  0  0  0  0  0  0  0  0  0
  -18.2182  -28.8260   22.2721 C   0  0  0  0  0  0  0  0  0  0  0  0
  -16.8818  -29.0400   24.7115 C   0  0  0  0  0  0  0  0  0  0  0  0
  -17.5857  -27.7105   22.8210 C   0  0  0  0  0  0  0  0  0  0  0  0
  -24.3500  -29.8916   20.9899 C   0  0  0  0  0  0  0  0  0  0  0  0
  -26.3215  -30.8174   21.2914 C   0  0  0  0  0  0  0  0  0  0  0  0
  -29.5238  -22.7003   23.6179 C   0  0  0  0  0  0  0  0  0  0  0  0
  -29.4981  -24.4438   21.8833 C   0  0  0  0  0  0  0  0  0  0  0  0
  -24.4409  -32.0553   22.3772 C   0  0  0  0  0  0  0  0  0  0  0  0
  -25.1135  -13.0088   21.6978 C   0  0  0  0  0  0  0  0  0  0  0  0
  -27.4577  -14.0777   19.7268 C   0  0  0  0  0  0  0  0  0  0  0  0
  -29.7035  -20.7357   25.1855 C   0  0  0  0  0  0  0  0  0  0  0  0
  -29.7920  -16.4681   19.0313 C   0  0  0  0  0  0  0  0  0  0  0  0
  -29.6237  -26.0276   19.9282 C   0  0  0  0  0  0  0  0  0  0  0  0
  -22.8261   -8.6568   20.3247 C   0  0  0  0  0  0  0  0  0  0  0  0
  -24.3728  -15.3813   21.2752 C   0  0  0  0  0  0  0  0  0  0  0  0
  -27.2460  -15.2337   21.9594 C   0  0  0  0  0  0  0  0  0  0  0  0
  -24.2314   -9.2391   20.1967 C   0  0  0  0  0  0  0  0  0  0  0  0
  -29.1783  -28.9442   17.9352 C   0  0  0  0  0  0  0  0  0  0  0  0
  -24.7072   -9.7851   21.5392 C   0  0  0  0  0  0  0  0  0  0  0  0
  -27.9518  -29.6208   18.5517 C   0  0  0  0  0  0  0  0  0  0  0  0
  -29.0543  -27.4217   17.9515 C   0  0  0  0  0  0  0  0  0  0  0  0
  -27.5252  -27.5140   19.8808 C   0  0  0  0  0  0  0  0  0  0  0  0
  -23.7996  -10.9214   22.0256 C   0  0  1  0  0  0  0  0  0  0  0  0
  -25.2487  -14.2190   20.8176 C   0  0  1  0  0  0  0  0  0  0  0  0
  -27.6326  -29.0463   19.9459 C   0  0  2  0  0  0  0  0  0  0  0  0
  -30.3306  -19.4475   27.2354 C   0  0  0  0  0  0  0  0  0  0  0  0
  -31.5836  -17.0483   17.3727 C   0  0  0  0  0  0  0  0  0  0  0  0
  -29.2937  -11.9896   20.9833 C   0  0  0  0  0  0  0  0  0  0  0  0
  -31.2445  -13.2207   20.0101 C   0  0  0  0  0  0  0  0  0  0  0  0
  -29.5235  -12.2242   18.5041 C   0  0  0  0  0  0  0  0  0  0  0  0
  -28.4262  -18.9775   18.2590 C   0  0  0  0  0  0  0  0  0  0  0  0
  -27.7198  -18.5460   25.7765 C   0  0  0  0  0  0  0  0  0  1  0  0
  -28.9479  -14.2844   19.8518 C   0  0  1  0  0  0  0  0  0  0  0  0
  -29.2822  -20.3794   26.6206 C   0  0  2  0  0  0  0  0  0  0  0  0
  -30.1196  -17.2134   17.7500 C   0  0  2  0  0  0  0  0  0  0  0  0
  -27.8552  -19.7920   26.6509 C   0  0  1  0  0  0  0  0  0  0  0  0
  -30.7336  -23.1253   20.1117 C   0  0  0  0  0  0  0  0  0  0  0  0
  -29.7341  -12.9430   19.8546 C   0  0  0  0  0  0  0  0  0  0  0  0
  -25.1989  -29.0894   20.3419 N   0  0  0  0  0  0  0  0  0  0  0  0
  -26.3897  -29.6789   20.5435 N   0  0  0  0  0  0  0  0  0  0  0  0
  -26.6714  -14.5637   20.7811 N   0  0  0  0  0  0  0  0  0  0  0  0
  -28.7557  -26.9491   19.3051 N   0  0  0  0  0  0  0  0  0  0  0  0
  -27.4257  -31.5347   21.5891 N   0  0  0  0  0  0  0  0  0  0  0  0
  -23.0571  -32.0746   22.5990 N   0  0  0  0  0  0  0  0  0  0  0  0
  -29.3126  -22.0284   24.8455 N   0  0  0  0  0  0  0  0  0  0  0  0
  -29.2555  -25.6756   21.2263 N   0  0  0  0  0  0  0  0  0  0  0  0
  -24.1017  -12.1475   21.3185 N   0  0  0  0  0  0  0  0  0  0  0  0
  -29.3251  -15.1959   18.7770 N   0  0  0  0  0  0  0  0  0  0  0  0
  -29.8366  -18.6678   17.9100 N   0  3  0  0  0  0  0  0  0  0  0  0
  -25.1507  -32.9768   22.8467 O   0  0  0  0  0  0  0  0  0  0  0  0
  -25.8720  -12.8662   22.6496 O   0  0  0  0  0  0  0  0  0  0  0  0
  -27.0073  -13.5124   18.7272 O   0  0  0  0  0  0  0  0  0  0  0  0
  -30.3168  -19.9422   24.4774 O   0  0  0  0  0  0  0  0  0  0  0  0
  -29.9392  -16.9635   20.1464 O   0  0  0  0  0  0  0  0  0  0  0  0
  -30.6351  -25.6042   19.3626 O   0  0  0  0  0  0  0  0  0  0  0  0
  -26.9206  -20.7701   26.1901 O   0  0  0  0  0  0  0  0  0  0  0  0
  -18.8826  -28.7211   21.0617 O   0  0  0  0  0  0  0  0  0  0  0  0
  -26.3679  -18.0924   25.8317 O   0  0  0  0  0  0  0  0  0  1  0  0
  -16.2414  -29.1425   25.8835 F   0  0  0  0  0  0  0  0  0  0  0  0
  -17.6176  -26.5331   22.1818 F   0  0  0  0  0  0  0  0  0  0  0  0
  -31.3107  -21.8991   19.9137 F   0  0  0  0  0  0  0  0  0  0  0  0
  -29.8401  -23.2594   19.0825 F   0  0  0  0  0  0  0  0  0  0  0  0
  -31.7226  -24.0333   19.8479 F   0  0  0  0  0  0  0  0  0  0  0  0
  -28.9238  -24.2990   23.4899 S   0  0  0  0  0  0  0  0  0  0  0  0
  1  2  1  0  0  0  0
  1  5  2  0  0  0  0
  2  6  2  0  0  0  0
  3  8  2  0  0  0  0
  3 16  1  0  0  0  0
  4  9  1  0  0  0  0
  4 16  2  0  0  0  0
  5 18  1  0  0  0  0
  6 20  1  0  0  0  0
  7 10  2  0  0  0  0
  7 19  1  0  0  0  0
  8 23  1  0  0  0  0
  9 23  2  0  0  0  0
 10 24  1  0  0  0  0
 11 12  2  0  0  0  0
 11 25  1  0  0  0  0
 12 26  1  0  0  0  0
 13 21  1  0  0  0  0
 13 24  2  0  0  0  0
 14 22  1  0  0  0  0
 14 30  2  0  0  0  0
 15 26  2  0  0  0  0
 15 27  1  0  0  0  0
 16 28  1  0  0  0  0
 17 28  1  0  0  0  0
 17 29  2  0  0  0  0
 17 32  1  0  0  0  0
 18 20  2  0  0  0  0
 18 38  1  0  0  0  0
 19 21  2  0  0  0  0
 19 39  1  0  0  0  0
 20 47  1  0  0  0  0
 21 40  1  0  0  0  0
 22 31  2  0  0  0  0
 22 61  1  0  0  0  0
 23 81  1  0  0  0  0
 24 82  1  0  0  0  0
 25 27  2  0  0  0  0
 25 81  1  0  0  0  0
 26 83  1  0  0  0  0
 27 84  1  0  0  0  0
 28 63  2  0  0  0  0
 29 64  1  0  0  0  0
 29 67  1  0  0  0  0
 30 69  1  0  0  0  0
 30 88  1  0  0  0  0
 31 70  1  0  0  0  0
 31 88  1  0  0  0  0
 32 68  1  0  0  0  0
 32 74  2  0  0  0  0
 33 48  1  0  0  0  0
 33 71  1  0  0  0  0
 33 75  2  0  0  0  0
 34 57  1  0  0  0  0
 34 65  1  0  0  0  0
 34 76  2  0  0  0  0
 35 58  1  0  0  0  0
 35 69  1  0  0  0  0
 35 77  2  0  0  0  0
 36 59  1  0  0  0  0
 36 72  1  0  0  0  0
 36 78  2  0  0  0  0
 37 66  1  0  0  0  0
 37 70  1  0  0  0  0
 37 79  2  0  0  0  0
 38 41  1  0  0  0  0
 39 48  1  0  0  0  0
 40 65  1  0  0  0  0
 41 43  1  0  0  0  0
 42 44  1  0  0  0  0
 42 45  1  0  0  0  0
 43 47  1  0  0  0  0
 44 49  1  0  0  0  0
 45 66  1  0  0  0  0
 46 49  1  0  0  0  0
 46 66  1  0  0  0  0
 47 71  1  0  0  0  0
 48 65  1  0  0  0  0
 49 64  1  0  0  0  0
 50 58  1  0  0  0  0
 51 59  1  0  0  0  0
 52 62  1  0  0  0  0
 53 62  1  0  0  0  0
 54 62  1  0  0  0  0
 55 73  1  0  0  0  0
 56 60  1  0  0  0  0
 56 82  1  0  0  0  0
 57 62  1  0  0  0  0
 57 72  1  0  0  0  0
 58 60  1  0  0  0  0
 59 73  1  0  0  0  0
 60 80  1  0  0  0  0
 61 85  1  0  0  0  0
 61 86  1  0  0  0  0
 61 87  1  0  0  0  0
 63 64  1  0  0  0  0
M  CHG  1  73   1
M  ISO  4  37 100  56 101  70 100  82 101
M  END
> <Batch ID>
0188

> <Smiles>
CNC(C)C(=O)NC(C(=O)N1Cc2cc([101O:1][101CH2:1]C(O)C(C)C(=O)Nc3cc(C(F)(F)F)c([100NH:0][100C:0](=O)N4CCCC(n5nc(-c6ccc(Oc7ccc(F)cc7F)cc6)c(C(N)=O)c5N)C4)s3)ccc2CC1C(=O)NC1CCCc2ccccc21)C(C)(C)C

> <Shape>
0.289

> <Color>
0.063

> <Negative vol penalty>
0.000

$$$$

  -OEChem-04052305153D

 84 92  0     1  0  0  0  0  0999 V2000
  -27.9557  -23.3380   18.6770 C   0  0  0  0  0  0  0  0  0  0  0  0
  -26.8348  -24.1369   18.8720 C   0  0  0  0  0  0  0  0  0  0  0  0
  -26.3781  -12.6887   21.0140 C   0  0  0  0  0  0  0  0  0  0  0  0
  -24.2443  -13.0303   19.9338 C   0  0  0  0  0  0  0  0  0  0  0  0
  -29.0925  -23.5363   19.4577 C   0  0  0  0  0  0  0  0  0  0  0  0
  -26.8543  -25.1422   19.8394 C   0  0  0  0  0  0  0  0  0  0  0  0
  -22.9823  -28.1733   19.9917 C   0  0  0  0  0  0  0  0  0  0  0  0
  -25.8863  -11.5327   21.6201 C   0  0  0  0  0  0  0  0  0  0  0  0
  -23.7524  -11.8743   20.5398 C   0  0  0  0  0  0  0  0  0  0  0  0
  -21.7312  -27.7749   20.4603 C   0  0  0  0  0  0  0  0  0  0  0  0
  -23.9613   -8.5345   20.0678 C   0  0  0  0  0  0  0  0  0  0  0  0
  -23.2324   -7.6486   19.2745 C   0  0  0  0  0  0  0  0  0  0  0  0
  -22.1390  -28.9481   22.5283 C   0  0  0  0  0  0  0  0  0  0  0  0
  -21.3176   -7.9286   20.7211 C   0  0  0  0  0  0  0  0  0  0  0  0
  -21.4592  -21.6936   21.7591 C   0  0  0  0  0  0  0  0  0  0  0  0
  -25.5571  -13.4376   20.1709 C   0  0  0  0  0  0  0  0  0  0  0  0
  -26.7110  -14.7296   18.2982 C   0  0  0  0  0  0  0  0  0  0  0  0
  -29.1209  -24.5365   20.4435 C   0  0  0  0  0  0  0  0  0  0  0  0
  -23.8271  -28.9543   20.7934 C   0  0  0  0  0  0  0  0  0  0  0  0
  -28.0006  -25.3737   20.6211 C   0  0  0  0  0  0  0  0  0  0  0  0
  -23.3993  -29.3573   22.0665 C   0  0  0  0  0  0  0  0  0  0  0  0
  -24.5734  -11.1255   21.3830 C   0  0  0  0  0  0  0  0  0  0  0  0
  -21.3105  -28.1598   21.7300 C   0  0  0  0  0  0  0  0  0  0  0  0
  -23.3684   -9.1175   21.1879 C   0  0  0  0  0  0  0  0  0  0  0  0
  -21.9106   -7.3457   19.6011 C   0  0  0  0  0  0  0  0  0  0  0  0
  -22.0466   -8.8145   21.5144 C   0  0  0  0  0  0  0  0  0  0  0  0
  -26.0644  -14.6321   19.5449 C   0  0  0  0  0  0  0  0  0  0  0  0
  -21.7141  -22.1588   20.4861 C   0  0  0  0  0  0  0  0  0  0  0  0
  -26.9933  -16.0669   18.1616 C   0  0  0  0  0  0  0  0  0  0  0  0
  -20.6227  -23.7098   21.9712 C   0  0  0  0  0  0  0  0  0  0  0  0
  -27.0279  -13.7033   17.3486 C   0  0  0  0  0  0  0  0  0  0  0  0
  -26.7139  -28.5562   22.0629 C   0  0  0  0  0  0  0  0  0  0  0  0
  -26.3293  -31.6561   22.9375 C   0  0  0  0  0  0  0  0  0  0  0  0
  -19.4971  -25.1038   23.7425 C   0  0  0  0  0  0  0  0  0  0  0  0
  -24.1953  -34.2287   23.6265 C   0  0  0  0  0  0  0  0  0  0  0  0
  -24.5242  -21.0116   20.4646 C   0  0  0  0  0  0  0  0  0  0  0  0
  -30.3802  -24.7128   21.2548 C   0  0  0  0  0  0  0  0  0  0  0  0
  -25.1627  -29.3983   20.2628 C   0  0  0  0  0  0  0  0  0  0  0  0
  -24.2602  -30.2126   22.9585 C   0  0  0  0  0  0  0  0  0  0  0  0
  -30.1527  -25.4971   22.5429 C   0  0  0  0  0  0  0  0  0  0  0  0
  -27.9204  -19.9818   20.7508 C   0  0  0  0  0  0  0  0  0  0  0  0
  -29.3812  -26.7740   22.2446 C   0  0  0  0  0  0  0  0  0  0  0  0
  -27.8882  -18.5028   20.3617 C   0  0  0  0  0  0  0  0  0  0  0  0
  -26.6716  -20.3876   21.5304 C   0  0  0  0  0  0  0  0  0  0  0  0
  -25.3626  -18.5840   20.4781 C   0  0  0  0  0  0  0  0  0  0  0  0
  -27.9882  -26.4531   21.6883 C   0  0  1  0  0  0  0  0  0  0  0  0
  -26.1525  -29.7626   21.3650 C   0  0  1  0  0  0  0  0  0  0  0  0
  -26.5752  -18.1409   19.6417 C   0  0  2  0  0  0  0  0  0  0  0  0
  -21.3667  -20.7299   18.4368 C   0  0  0  0  0  0  0  0  0  0  0  0
  -18.3190  -26.6895   25.2743 C   0  0  0  0  0  0  0  0  0  0  0  0
  -24.1752  -36.6312   24.3508 C   0  0  0  0  0  0  0  0  0  0  0  0
  -26.9567  -30.7967   25.7972 C   0  0  0  0  0  0  0  0  0  0  0  0
  -26.0070  -32.9748   26.5861 C   0  0  0  0  0  0  0  0  0  0  0  0
  -28.0114  -32.9548   25.1013 C   0  0  0  0  0  0  0  0  0  0  0  0
  -22.8600  -35.0909   21.1300 C   0  0  0  0  0  0  0  0  0  0  0  0
  -19.9537  -27.5942   23.5995 C   0  0  0  0  0  0  0  0  0  1  0  0
  -22.3601  -21.4824   19.3447 C   0  0  2  0  0  0  0  0  0  0  0  0
  -25.7497  -32.3641   24.1382 C   0  0  1  0  0  0  0  0  0  0  0  0
  -18.9047  -26.5139   23.8737 C   0  0  1  0  0  0  0  0  0  0  0  0
  -24.1807  -35.6757   23.1678 C   0  0  2  0  0  0  0  0  0  0  0  0
  -26.6655  -32.2549   25.3899 C   0  0  0  0  0  0  0  0  0  0  0  0
  -20.8338  -22.5817   22.6123 N   0  0  0  0  0  0  0  0  0  0  0  0
  -25.9432  -15.8132   20.1567 N   0  0  0  0  0  0  0  0  0  0  0  0
  -26.5175  -16.6656   19.2909 N   0  0  0  0  0  0  0  0  0  0  0  0
  -25.5601  -30.6158   22.3972 N   0  0  0  0  0  0  0  0  0  0  0  0
  -25.4613  -20.0180   20.7925 N   0  0  0  0  0  0  0  0  0  0  0  0
  -27.5997  -16.7771   17.1868 N   0  0  0  0  0  0  0  0  0  0  0  0
  -26.6664  -12.3824   17.6467 N   0  0  0  0  0  0  0  0  0  0  0  0
  -20.0102  -24.8856   22.4666 N   0  0  0  0  0  0  0  0  0  0  0  0
  -27.3717  -27.6766   21.2245 N   0  0  0  0  0  0  0  0  0  0  0  0
  -25.4792  -33.7334   23.7135 N   0  0  0  0  0  0  0  0  0  0  0  0
  -23.4087  -20.5772   19.7591 N   0  0  0  0  0  0  0  0  0  0  0  0
  -22.9705  -35.9447   22.3407 N   0  3  0  0  0  0  0  0  0  0  0  0
  -27.6290  -13.9479   16.2751 O   0  0  0  0  0  0  0  0  0  0  0  0
  -26.5627  -28.4332   23.2728 O   0  0  0  0  0  0  0  0  0  0  0  0
  -27.4209  -32.0175   22.4910 O   0  0  0  0  0  0  0  0  0  0  0  0
  -19.4827  -24.3089   24.6779 O   0  0  0  0  0  0  0  0  0  0  0  0
  -23.1705  -33.6017   23.8856 O   0  0  0  0  0  0  0  0  0  0  0  0
  -24.6733  -22.1989   20.7728 O   0  0  0  0  0  0  0  0  0  0  0  0
  -24.0932   -9.9974   21.9741 O   0  0  0  0  0  0  0  0  0  0  0  0
  -20.0901  -27.7718   22.1901 O   0  0  0  0  0  0  0  0  0  1  0  0
  -21.2102   -6.4961   18.8383 F   0  0  0  0  0  0  0  0  0  0  0  0
  -21.4713   -9.3724   22.5885 F   0  0  0  0  0  0  0  0  0  0  0  0
  -21.1503  -23.7718   20.3394 S   0  0  0  0  0  0  0  0  0  0  0  0
  1  2  1  0  0  0  0
  1  5  2  0  0  0  0
  2  6  2  0  0  0  0
  3  8  2  0  0  0  0
  3 16  1  0  0  0  0
  4  9  1  0  0  0  0
  4 16  2  0  0  0  0
  5 18  1  0  0  0  0
  6 20  1  0  0  0  0
  7 10  2  0  0  0  0
  7 19  1  0  0  0  0
  8 22  1  0  0  0  0
  9 22  2  0  0  0  0
 10 23  1  0  0  0  0
 11 12  2  0  0  0  0
 11 24  1  0  0  0  0
 12 25  1  0  0  0  0
 13 21  1  0  0  0  0
 13 23  2  0  0  0  0
 14 25  2  0  0  0  0
 14 26  1  0  0  0  0
 15 28  2  0  0  0  0
 15 62  1  0  0  0  0
 16 27  1  0  0  0  0
 17 27  1  0  0  0  0
 17 29  2  0  0  0  0
 17 31  1  0  0  0  0
 18 20  2  0  0  0  0
 18 37  1  0  0  0  0
 19 21  2  0  0  0  0
 19 38  1  0  0  0  0
 20 46  1  0  0  0  0
 21 39  1  0  0  0  0
 22 80  1  0  0  0  0
 23 81  1  0  0  0  0
 24 26  2  0  0  0  0
 24 80  1  0  0  0  0
 25 82  1  0  0  0  0
 26 83  1  0  0  0  0
 27 63  2  0  0  0  0
 28 57  1  0  0  0  0
 28 84  1  0  0  0  0
 29 64  1  0  0  0  0
 29 67  1  0  0  0  0
 30 62  2  0  0  0  0
 30 69  1  0  0  0  0
 30 84  1  0  0  0  0
 31 68  1  0  0  0  0
 31 74  2  0  0  0  0
 32 47  1  0  0  0  0
 32 70  1  0  0  0  0
 32 75  2  0  0  0  0
 33 58  1  0  0  0  0
 33 65  1  0  0  0  0
 33 76  2  0  0  0  0
 34 59  1  0  0  0  0
 34 69  1  0  0  0  0
 34 77  2  0  0  0  0
 35 60  1  0  0  0  0
 35 71  1  0  0  0  0
 35 78  2  0  0  0  0
 36 66  1  0  0  0  0
 36 72  1  0  0  0  0
 36 79  2  0  0  0  0
 37 40  1  0  0  0  0
 38 47  1  0  0  0  0
 39 65  1  0  0  0  0
 40 42  1  0  0  0  0
 41 43  1  0  0  0  0
 41 44  1  0  0  0  0
 42 46  1  0  0  0  0
 43 48  1  0  0  0  0
 44 66  1  0  0  0  0
 45 48  1  0  0  0  0
 45 66  1  0  0  0  0
 46 70  1  0  0  0  0
 47 65  1  0  0  0  0
 48 64  1  0  0  0  0
 49 57  1  0  0  0  0
 50 59  1  0  0  0  0
 51 60  1  0  0  0  0
 52 61  1  0  0  0  0
 53 61  1  0  0  0  0
 54 61  1  0  0  0  0
 55 73  1  0  0  0  0
 56 59  1  0  0  0  0
 56 81  1  0  0  0  0
 57 72  1  0  0  0  0
 58 61  1  0  0  0  0
 58 71  1  0  0  0  0
 60 73  1  0  0  0  0
 63 64  1  0  0  0  0
M  CHG  1  73   1
M  ISO  4  36 100  56 101  72 100  81 101
M  END
> <Batch ID>
0188

> <Smiles>
CNC(C)C(=O)NC(C(=O)N1Cc2cc([101O:1][101CH2:1]C(C)C(=O)Nc3ncc(C(C)[100NH:0][100C:0](=O)N4CCCC(n5nc(-c6ccc(Oc7ccc(F)cc7F)cc6)c(C(N)=O)c5N)C4)s3)ccc2CC1C(=O)NC1CCCc2ccccc21)C(C)(C)C

> <Shape>
0.264

> <Color>
0.060

> <Negative vol penalty>
0.000

$$$$

  -OEChem-04052305153D

 81 89  0     1  0  0  0  0  0999 V2000
  -23.8771  -20.4116   22.5766 C   0  0  0  0  0  0  0  0  0  0  0  0
  -24.7006  -21.4356   23.0306 C   0  0  0  0  0  0  0  0  0  0  0  0
  -24.2219  -12.5433   21.4984 C   0  0  0  0  0  0  0  0  0  0  0  0
  -26.5091  -12.2434   20.7804 C   0  0  0  0  0  0  0  0  0  0  0  0
  -23.0286  -20.6329   21.4939 C   0  0  0  0  0  0  0  0  0  0  0  0
  -24.6671  -22.6848   22.4099 C   0  0  0  0  0  0  0  0  0  0  0  0
  -27.2693  -26.2939   24.5089 C   0  0  0  0  0  0  0  0  0  0  0  0
  -24.0233  -11.1638   21.4421 C   0  0  0  0  0  0  0  0  0  0  0  0
  -26.3106  -10.8638   20.7241 C   0  0  0  0  0  0  0  0  0  0  0  0
  -28.6624  -26.3369   24.4746 C   0  0  0  0  0  0  0  0  0  0  0  0
  -24.7407   -8.4641   23.3474 C   0  0  0  0  0  0  0  0  0  0  0  0
  -24.0758   -7.8608   24.4149 C   0  0  0  0  0  0  0  0  0  0  0  0
  -28.5619  -28.0377   22.7668 C   0  0  0  0  0  0  0  0  0  0  0  0
  -22.3549   -7.0873   22.9059 C   0  0  0  0  0  0  0  0  0  0  0  0
  -29.5719  -23.8335   19.5143 C   0  0  0  0  0  0  0  0  0  0  0  0
  -25.4648  -13.0831   21.1675 C   0  0  0  0  0  0  0  0  0  0  0  0
  -26.1157  -15.2589   22.3293 C   0  0  0  0  0  0  0  0  0  0  0  0
  -22.9944  -21.8819   20.8522 C   0  0  0  0  0  0  0  0  0  0  0  0
  -26.5108  -27.1161   23.6633 C   0  0  0  0  0  0  0  0  0  0  0  0
  -23.8001  -22.9351   21.3309 C   0  0  0  0  0  0  0  0  0  0  0  0
  -27.1593  -28.0051   22.7942 C   0  0  0  0  0  0  0  0  0  0  0  0
  -25.0676  -10.3241   21.0550 C   0  0  0  0  0  0  0  0  0  0  0  0
  -29.3089  -27.2068   23.6014 C   0  0  0  0  0  0  0  0  0  0  0  0
  -24.2126   -8.3791   22.0591 C   0  0  0  0  0  0  0  0  0  0  0  0
  -22.8829   -7.1724   24.1942 C   0  0  0  0  0  0  0  0  0  0  0  0
  -23.0197   -7.6906   21.8384 C   0  0  0  0  0  0  0  0  0  0  0  0
  -25.6704  -14.5080   21.2249 C   0  0  0  0  0  0  0  0  0  0  0  0
  -26.1438  -16.5547   21.8747 C   0  0  0  0  0  0  0  0  0  0  0  0
  -29.6520  -23.6011   20.8713 C   0  0  0  0  0  0  0  0  0  0  0  0
  -28.5240  -21.9081   19.5815 C   0  0  0  0  0  0  0  0  0  0  0  0
  -26.4723  -14.8239   23.6481 C   0  0  0  0  0  0  0  0  0  0  0  0
  -24.4173  -26.6068   21.3263 C   0  0  0  0  0  0  0  0  0  0  0  0
  -24.0742  -29.8297   21.4593 C   0  0  0  0  0  0  0  0  0  0  0  0
  -25.4143  -32.8537   22.3000 C   0  0  0  0  0  0  0  0  0  0  0  0
  -30.8755  -25.5714   21.8511 C   0  0  0  0  0  0  0  0  0  0  0  0
  -27.4078  -20.3217   17.9740 C   0  0  0  0  0  0  0  0  0  0  0  0
  -22.0515  -22.0690   19.6899 C   0  0  0  0  0  0  0  0  0  0  0  0
  -25.0087  -27.0770   23.7315 C   0  0  0  0  0  0  0  0  0  0  0  0
  -26.3907  -28.9231   21.8803 C   0  0  0  0  0  0  0  0  0  0  0  0
  -22.4064  -23.2737   18.8243 C   0  0  0  0  0  0  0  0  0  0  0  0
  -24.3163  -18.5919   17.6165 C   0  0  0  0  0  0  0  0  0  0  0  0
  -22.6175  -24.4992   19.7007 C   0  0  0  0  0  0  0  0  0  0  0  0
  -24.4296  -17.4370   18.6143 C   0  0  0  0  0  0  0  0  0  0  0  0
  -25.6544  -18.8936   16.9439 C   0  0  0  0  0  0  0  0  0  0  0  0
  -26.8887  -17.9646   18.8629 C   0  0  0  0  0  0  0  0  0  0  0  0
  -23.8030  -24.2928   20.6519 C   0  0  1  0  0  0  0  0  0  0  0  0
  -24.3393  -27.5897   22.4601 C   0  0  1  0  0  0  0  0  0  0  0  0
  -25.5805  -17.6664   19.6135 C   0  0  2  0  0  0  0  0  0  0  0  0
  -24.9120  -35.3119   22.2549 C   0  0  0  0  0  0  0  0  0  0  0  0
  -32.8499  -26.2867   23.2475 C   0  0  0  0  0  0  0  0  0  0  0  0
  -24.6430  -29.8885   18.4622 C   0  0  0  0  0  0  0  0  0  0  0  0
  -25.0674  -32.3479   18.6616 C   0  0  0  0  0  0  0  0  0  0  0  0
  -22.8154  -31.4243   19.2075 C   0  0  0  0  0  0  0  0  0  0  0  0
  -25.5932  -33.0622   25.2467 C   0  0  0  0  0  0  0  0  0  0  0  0
  -24.7435  -31.0047   20.7881 C   0  0  1  0  0  0  0  0  0  0  0  0
  -24.8419  -34.0300   23.0701 C   0  0  2  0  0  0  0  0  0  0  0  0
  -31.3482  -26.0428   23.2239 C   0  0  1  0  0  0  0  0  0  1  0  0
  -24.3321  -31.1478   19.2956 C   0  0  0  0  0  0  0  0  0  0  0  0
  -28.9258  -22.8635   18.7730 N   0  0  0  0  0  0  0  0  0  0  0  0
  -25.4325  -15.2639   20.1496 N   0  0  0  0  0  0  0  0  0  0  0  0
  -25.7294  -16.5032   20.5763 N   0  0  0  0  0  0  0  0  0  0  0  0
  -24.9240  -28.8432   21.9795 N   0  0  0  0  0  0  0  0  0  0  0  0
  -26.6956  -19.1039   17.9521 N   0  0  0  0  0  0  0  0  0  0  0  0
  -26.4823  -17.7216   22.4629 N   0  0  0  0  0  0  0  0  0  0  0  0
  -26.3861  -13.4574   23.9471 N   0  0  0  0  0  0  0  0  0  0  0  0
  -30.2232  -24.3454   21.9309 N   0  0  0  0  0  0  0  0  0  0  0  0
  -27.8222  -20.7245   19.2431 N   0  0  0  0  0  0  0  0  0  0  0  0
  -23.8406  -25.3819   21.6028 N   0  0  0  0  0  0  0  0  0  0  0  0
  -24.4361  -32.1721   21.6073 N   0  0  0  0  0  0  0  0  0  0  0  0
  -25.5985  -34.2369   24.3373 N   0  3  0  0  0  0  0  0  0  0  0  0
  -26.8401  -15.6255   24.5401 O   0  0  0  0  0  0  0  0  0  0  0  0
  -24.9592  -26.9359   20.2776 O   0  0  0  0  0  0  0  0  0  0  0  0
  -22.8431  -29.7921   21.5261 O   0  0  0  0  0  0  0  0  0  0  0  0
  -26.6101  -32.5701   22.3088 O   0  0  0  0  0  0  0  0  0  0  0  0
  -31.0664  -26.2488   20.8452 O   0  0  0  0  0  0  0  0  0  0  0  0
  -27.6097  -20.9740   16.9465 O   0  0  0  0  0  0  0  0  0  0  0  0
  -24.8743   -8.9779   21.0002 O   0  0  0  0  0  0  0  0  0  0  0  0
  -30.6686  -27.2502   23.5653 O   0  0  0  0  0  0  0  0  0  1  0  0
  -22.2453   -6.5918   25.2191 F   0  0  0  0  0  0  0  0  0  0  0  0
  -22.5082   -7.6045   20.6028 F   0  0  0  0  0  0  0  0  0  0  0  0
  -28.8889  -22.1116   21.2459 S   0  0  0  0  0  0  0  0  0  0  0  0
  1  2  1  0  0  0  0
  1  5  2  0  0  0  0
  2  6  2  0  0  0  0
  3  8  2  0  0  0  0
  3 16  1  0  0  0  0
  4  9  1  0  0  0  0
  4 16  2  0  0  0  0
  5 18  1  0  0  0  0
  6 20  1  0  0  0  0
  7 10  2  0  0  0  0
  7 19  1  0  0  0  0
  8 22  1  0  0  0  0
  9 22  2  0  0  0  0
 10 23  1  0  0  0  0
 11 12  2  0  0  0  0
 11 24  1  0  0  0  0
 12 25  1  0  0  0  0
 13 21  1  0  0  0  0
 13 23  2  0  0  0  0
 14 25  2  0  0  0  0
 14 26  1  0  0  0  0
 15 29  2  0  0  0  0
 15 59  1  0  0  0  0
 16 27  1  0  0  0  0
 17 27  1  0  0  0  0
 17 28  2  0  0  0  0
 17 31  1  0  0  0  0
 18 20  2  0  0  0  0
 18 37  1  0  0  0  0
 19 21  2  0  0  0  0
 19 38  1  0  0  0  0
 20 46  1  0  0  0  0
 21 39  1  0  0  0  0
 22 77  1  0  0  0  0
 23 78  1  0  0  0  0
 24 26  2  0  0  0  0
 24 77  1  0  0  0  0
 25 79  1  0  0  0  0
 26 80  1  0  0  0  0
 27 60  2  0  0  0  0
 28 61  1  0  0  0  0
 28 64  1  0  0  0  0
 29 66  1  0  0  0  0
 29 81  1  0  0  0  0
 30 59  2  0  0  0  0
 30 67  1  0  0  0  0
 30 81  1  0  0  0  0
 31 65  1  0  0  0  0
 31 71  2  0  0  0  0
 32 47  1  0  0  0  0
 32 68  1  0  0  0  0
 32 72  2  0  0  0  0
 33 55  1  0  0  0  0
 33 62  1  0  0  0  0
 33 73  2  0  0  0  0
 34 56  1  0  0  0  0
 34 69  1  0  0  0  0
 34 74  2  0  0  0  0
 35 57  1  0  0  0  0
 35 66  1  0  0  0  0
 35 75  2  0  0  0  0
 36 63  1  0  0  0  0
 36 67  1  0  0  0  0
 36 76  2  0  0  0  0
 37 40  1  0  0  0  0
 38 47  1  0  0  0  0
 39 62  1  0  0  0  0
 40 42  1  0  0  0  0
 41 43  1  0  0  0  0
 41 44  1  0  0  0  0
 42 46  1  0  0  0  0
 43 48  1  0  0  0  0
 44 63  1  0  0  0  0
 45 48  1  0  0  0  0
 45 63  1  0  0  0  0
 46 68  1  0  0  0  0
 47 62  1  0  0  0  0
 48 61  1  0  0  0  0
 49 56  1  0  0  0  0
 50 57  1  0  0  0  0
 51 58  1  0  0  0  0
 52 58  1  0  0  0  0
 53 58  1  0  0  0  0
 54 70  1  0  0  0  0
 55 58  1  0  0  0  0
 55 69  1  0  0  0  0
 56 70  1  0  0  0  0
 57 78  1  0  0  0  0
 60 61  1  0  0  0  0
M  CHG  1  70   1
M  ISO  4  36 100  57 101  67 100  78 101
M  END
> <Batch ID>
0188

> <Smiles>
CNC(C)C(=O)NC(C(=O)N1Cc2cc([101O:1][101CH:1](C)C(=O)Nc3cnc([100NH:0][100C:0](=O)N4CCCC(n5nc(-c6ccc(Oc7ccc(F)cc7F)cc6)c(C(N)=O)c5N)C4)s3)ccc2CC1C(=O)NC1CCCc2ccccc21)C(C)(C)C

> <Shape>
0.194

> <Color>
0.059

> <Negative vol penalty>
0.000

$$$$

  -OEChem-04052305153D

 85 93  0     1  0  0  0  0  0999 V2000
  -30.5092  -34.1998   22.8208 C   0  0  0  0  0  0  0  0  0  0  0  0
  -30.1804  -32.8505   22.7400 C   0  0  0  0  0  0  0  0  0  0  0  0
  -24.7848   -8.7834   21.5364 C   0  0  0  0  0  0  0  0  0  0  0  0
  -23.1773  -10.3966   20.7298 C   0  0  0  0  0  0  0  0  0  0  0  0
  -29.5521  -35.1259   23.2332 C   0  0  0  0  0  0  0  0  0  0  0  0
  -28.8944  -32.4263   23.0726 C   0  0  0  0  0  0  0  0  0  0  0  0
  -27.0162  -29.1151   19.7330 C   0  0  0  0  0  0  0  0  0  0  0  0
  -23.8321   -8.2757   22.4197 C   0  0  0  0  0  0  0  0  0  0  0  0
  -22.2246   -9.8889   21.6130 C   0  0  0  0  0  0  0  0  0  0  0  0
  -27.4654  -27.7982   19.8205 C   0  0  0  0  0  0  0  0  0  0  0  0
  -21.1570   -6.2122   22.2818 C   0  0  0  0  0  0  0  0  0  0  0  0
  -21.0306   -4.8261   22.3725 C   0  0  0  0  0  0  0  0  0  0  0  0
  -25.4471  -27.1942   20.9957 C   0  0  0  0  0  0  0  0  0  0  0  0
  -21.5856   -4.9292   24.7216 C   0  0  0  0  0  0  0  0  0  0  0  0
  -24.4574   -9.8439   20.6915 C   0  0  0  0  0  0  0  0  0  0  0  0
  -25.6842   -9.9504   18.4573 C   0  0  0  0  0  0  0  0  0  0  0  0
  -28.2509  -34.7141   23.5618 C   0  0  0  0  0  0  0  0  0  0  0  0
  -25.7819  -29.4844   20.2866 C   0  0  0  0  0  0  0  0  0  0  0  0
  -27.9193  -33.3476   23.4911 C   0  0  0  0  0  0  0  0  0  0  0  0
  -24.9834  -28.5159   20.9115 C   0  0  0  0  0  0  0  0  0  0  0  0
  -22.5519   -8.8284   22.4579 C   0  0  0  0  0  0  0  0  0  0  0  0
  -26.6822  -26.8381   20.4545 C   0  0  0  0  0  0  0  0  0  0  0  0
  -21.4977   -6.9569   23.4110 C   0  0  0  0  0  0  0  0  0  0  0  0
  -21.2449   -4.1846   23.5924 C   0  0  0  0  0  0  0  0  0  0  0  0
  -21.7120   -6.3154   24.6309 C   0  0  0  0  0  0  0  0  0  0  0  0
  -25.4413  -10.3692   19.7793 C   0  0  0  0  0  0  0  0  0  0  0  0
  -26.7088  -10.7563   18.0247 C   0  0  0  0  0  0  0  0  0  0  0  0
  -26.6711  -19.8553   17.9926 C   0  0  0  0  0  0  0  0  0  0  0  0
  -26.8696  -17.7933   18.6593 C   0  0  0  0  0  0  0  0  0  0  0  0
  -25.0410   -8.9248   17.6891 C   0  0  0  0  0  0  0  0  0  0  0  0
  -24.8592  -31.4919   22.5718 C   0  0  0  0  0  0  0  0  0  0  0  0
  -21.8906  -30.6727   21.5527 C   0  0  0  0  0  0  0  0  0  0  0  0
  -19.8914  -28.3924   19.9874 C   0  0  0  0  0  0  0  0  0  0  0  0
  -28.5707  -16.2046   19.6230 C   0  0  0  0  0  0  0  0  0  0  0  0
  -27.2640  -35.7458   24.0478 C   0  0  0  0  0  0  0  0  0  0  0  0
  -25.2995  -30.9035   20.1602 C   0  0  0  0  0  0  0  0  0  0  0  0
  -23.6414  -28.8568   21.5043 C   0  0  0  0  0  0  0  0  0  0  0  0
  -25.8160  -35.2629   24.0229 C   0  0  0  0  0  0  0  0  0  0  0  0
  -30.4892  -13.2054   19.6510 C   0  0  0  0  0  0  0  0  0  0  0  0
  -25.7086  -33.8663   24.6268 C   0  0  0  0  0  0  0  0  0  0  0  0
  -29.4349  -12.0997   19.5606 C   0  0  0  0  0  0  0  0  0  0  0  0
  -30.0087  -14.3789   20.5027 C   0  0  0  0  0  0  0  0  0  0  0  0
  -27.6551  -13.8341   20.0203 C   0  0  0  0  0  0  0  0  0  0  0  0
  -26.5278  -32.8518   23.8197 C   0  0  1  0  0  0  0  0  0  0  0  0
  -24.2587  -31.2766   21.2114 C   0  0  1  0  0  0  0  0  0  0  0  0
  -28.0682  -12.6590   19.1191 C   0  0  2  0  0  0  0  0  0  0  0  0
  -17.5016  -27.9841   19.3395 C   0  0  0  0  0  0  0  0  0  0  0  0
  -21.2310  -29.9584   24.4449 C   0  0  0  0  0  0  0  0  0  0  0  0
  -19.2369  -28.6984   23.6057 C   0  0  0  0  0  0  0  0  0  0  0  0
  -19.4070  -31.1577   23.2246 C   0  0  0  0  0  0  0  0  0  0  0  0
  -20.5648  -28.3113   17.1067 C   0  0  0  0  0  0  0  0  0  0  0  0
  -27.8168  -23.5684   19.3263 C   0  0  0  0  0  0  0  0  0  0  0  0
  -27.9630  -25.0800   19.4929 C   0  0  0  0  0  0  0  0  0  1  0  0
  -20.8971  -29.5939   21.9108 C   0  0  1  0  0  0  0  0  0  0  0  0
  -18.8433  -28.5498   18.9006 C   0  0  2  0  0  0  0  0  0  0  0  0
  -28.5750  -21.4661   18.0719 C   0  0  2  0  0  0  0  0  0  0  0  0
  -28.7227  -22.9926   18.2225 C   0  0  1  0  0  0  0  0  0  0  0  0
  -29.4724  -20.8985   16.9780 C   0  0  0  0  0  0  0  0  0  0  0  0
  -20.2191  -29.8458   23.2871 C   0  0  0  0  0  0  0  0  0  0  0  0
  -26.2469  -11.3637   20.1613 N   0  0  0  0  0  0  0  0  0  0  0  0
  -27.5397  -18.9165   18.5230 N   0  0  0  0  0  0  0  0  0  0  0  0
  -25.4059  -19.5370   17.7197 N   0  0  0  0  0  0  0  0  0  0  0  0
  -27.0061  -11.5765   19.0730 N   0  0  0  0  0  0  0  0  0  0  0  0
  -23.2164  -30.2591   21.3609 N   0  0  0  0  0  0  0  0  0  0  0  0
  -28.7108  -14.8589   20.0234 N   0  0  0  0  0  0  0  0  0  0  0  0
  -27.3756  -10.8361   16.8535 N   0  0  0  0  0  0  0  0  0  0  0  0
  -24.0066   -8.1918   18.2868 N   0  0  0  0  0  0  0  0  0  0  0  0
  -27.2003  -21.1134   17.7744 N   0  0  0  0  0  0  0  0  0  0  0  0
  -27.3000  -16.5376   19.1549 N   0  0  0  0  0  0  0  0  0  0  0  0
  -25.8236  -32.4807   22.6111 N   0  0  0  0  0  0  0  0  0  0  0  0
  -19.9648  -29.5099   20.7918 N   0  0  0  0  0  0  0  0  0  0  0  0
  -19.2705  -27.8392   17.6623 N   0  3  0  0  0  0  0  0  0  0  0  0
  -25.3848   -8.6549   16.5133 O   0  0  0  0  0  0  0  0  0  0  0  0
  -24.4748  -30.8122   23.5163 O   0  0  0  0  0  0  0  0  0  0  0  0
  -21.5031  -31.8384   21.4402 O   0  0  0  0  0  0  0  0  0  0  0  0
  -20.5739  -27.3780   20.1128 O   0  0  0  0  0  0  0  0  0  0  0  0
  -29.5162  -16.9959   19.6647 O   0  0  0  0  0  0  0  0  0  0  0  0
  -28.4689  -23.6454   16.9814 O   0  0  0  0  0  0  0  0  0  0  0  0
  -21.6219   -8.3331   23.3195 O   0  0  0  0  0  0  0  0  0  0  0  0
  -27.1186  -25.5521   20.5420 O   0  0  0  0  0  0  0  0  0  1  0  0
  -21.1221   -2.8536   23.6797 F   0  0  0  0  0  0  0  0  0  0  0  0
  -22.0384   -7.0256   25.7194 F   0  0  0  0  0  0  0  0  0  0  0  0
  -29.1515  -21.4181   15.7682 F   0  0  0  0  0  0  0  0  0  0  0  0
  -29.2907  -19.5562   16.8870 F   0  0  0  0  0  0  0  0  0  0  0  0
  -25.2378  -17.9273   18.1454 S   0  0  0  0  0  0  0  0  0  0  0  0
  1  2  1  0  0  0  0
  1  5  2  0  0  0  0
  2  6  2  0  0  0  0
  3  8  2  0  0  0  0
  3 15  1  0  0  0  0
  4  9  1  0  0  0  0
  4 15  2  0  0  0  0
  5 17  1  0  0  0  0
  6 19  1  0  0  0  0
  7 10  2  0  0  0  0
  7 18  1  0  0  0  0
  8 21  1  0  0  0  0
  9 21  2  0  0  0  0
 10 22  1  0  0  0  0
 11 12  2  0  0  0  0
 11 23  1  0  0  0  0
 12 24  1  0  0  0  0
 13 20  1  0  0  0  0
 13 22  2  0  0  0  0
 14 24  2  0  0  0  0
 14 25  1  0  0  0  0
 15 26  1  0  0  0  0
 16 26  1  0  0  0  0
 16 27  2  0  0  0  0
 16 30  1  0  0  0  0
 17 19  2  0  0  0  0
 17 35  1  0  0  0  0
 18 20  2  0  0  0  0
 18 36  1  0  0  0  0
 19 44  1  0  0  0  0
 20 37  1  0  0  0  0
 21 79  1  0  0  0  0
 22 80  1  0  0  0  0
 23 25  2  0  0  0  0
 23 79  1  0  0  0  0
 24 81  1  0  0  0  0
 25 82  1  0  0  0  0
 26 60  2  0  0  0  0
 27 63  1  0  0  0  0
 27 66  1  0  0  0  0
 28 61  1  0  0  0  0
 28 62  2  0  0  0  0
 28 68  1  0  0  0  0
 29 61  2  0  0  0  0
 29 69  1  0  0  0  0
 29 85  1  0  0  0  0
 30 67  1  0  0  0  0
 30 73  2  0  0  0  0
 31 45  1  0  0  0  0
 31 70  1  0  0  0  0
 31 74  2  0  0  0  0
 32 54  1  0  0  0  0
 32 64  1  0  0  0  0
 32 75  2  0  0  0  0
 33 55  1  0  0  0  0
 33 71  1  0  0  0  0
 33 76  2  0  0  0  0
 34 65  1  0  0  0  0
 34 69  1  0  0  0  0
 34 77  2  0  0  0  0
 35 38  1  0  0  0  0
 36 45  1  0  0  0  0
 37 64  1  0  0  0  0
 38 40  1  0  0  0  0
 39 41  1  0  0  0  0
 39 42  1  0  0  0  0
 40 44  1  0  0  0  0
 41 46  1  0  0  0  0
 42 65  1  0  0  0  0
 43 46  1  0  0  0  0
 43 65  1  0  0  0  0
 44 70  1  0  0  0  0
 45 64  1  0  0  0  0
 46 63  1  0  0  0  0
 47 55  1  0  0  0  0
 48 59  1  0  0  0  0
 49 59  1  0  0  0  0
 50 59  1  0  0  0  0
 51 72  1  0  0  0  0
 52 53  1  0  0  0  0
 52 57  1  0  0  0  0
 53 80  1  0  0  0  0
 54 59  1  0  0  0  0
 54 71  1  0  0  0  0
 55 72  1  0  0  0  0
 56 57  1  0  0  0  0
 56 58  1  0  0  0  0
 56 68  1  0  0  0  0
 57 78  1  0  0  0  0
 58 83  1  0  0  0  0
 58 84  1  0  0  0  0
 60 63  1  0  0  0  0
 62 85  1  0  0  0  0
M  CHG  1  72   1
M  ISO  4  34 100  53 101  69 100  80 101
M  END
> <Batch ID>
0188

> <Smiles>
CNC(C)C(=O)NC(C(=O)N1Cc2cc([101O:1][101CH2:1]CC(O)C(Nc3nsc([100NH:0][100C:0](=O)N4CCCC(n5nc(-c6ccc(Oc7ccc(F)cc7F)cc6)c(C(N)=O)c5N)C4)n3)C(F)F)ccc2CC1C(=O)NC1CCCc2ccccc21)C(C)(C)C

> <Shape>
0.289

> <Color>
0.093

> <Negative vol penalty>
0.000

$$$$

  -OEChem-04052305153D

 84 92  0     1  0  0  0  0  0999 V2000
  -35.1250  -30.5006   18.4193 C   0  0  0  0  0  0  0  0  0  0  0  0
  -35.6477  -29.2664   18.7920 C   0  0  0  0  0  0  0  0  0  0  0  0
  -23.2062   -9.8379   20.0053 C   0  0  0  0  0  0  0  0  0  0  0  0
  -23.9116   -9.9817   22.3116 C   0  0  0  0  0  0  0  0  0  0  0  0
  -33.8770  -30.9003   18.8956 C   0  0  0  0  0  0  0  0  0  0  0  0
  -34.9233  -28.4316   19.6421 C   0  0  0  0  0  0  0  0  0  0  0  0
  -34.7496  -22.3110   19.5223 C   0  0  0  0  0  0  0  0  0  0  0  0
  -22.5120   -8.6623   20.2910 C   0  0  0  0  0  0  0  0  0  0  0  0
  -23.2173   -8.8061   22.5973 C   0  0  0  0  0  0  0  0  0  0  0  0
  -35.4186  -21.3390   20.2648 C   0  0  0  0  0  0  0  0  0  0  0  0
  -19.5718   -7.7888   21.7141 C   0  0  0  0  0  0  0  0  0  0  0  0
  -18.2801   -7.6585   21.2040 C   0  0  0  0  0  0  0  0  0  0  0  0
  -31.1418  -16.8114   24.9724 C   0  0  0  0  0  0  0  0  0  0  0  0
  -30.4868  -15.9294   24.1202 C   0  0  0  0  0  0  0  0  0  0  0  0
  -33.5267  -21.1823   21.7532 C   0  0  0  0  0  0  0  0  0  0  0  0
  -18.9614   -5.6887   19.9821 C   0  0  0  0  0  0  0  0  0  0  0  0
  -23.9060  -10.4976   21.0157 C   0  0  0  0  0  0  0  0  0  0  0  0
  -24.1310  -13.0286   20.7899 C   0  0  0  0  0  0  0  0  0  0  0  0
  -33.1326  -30.0658   19.7442 C   0  0  0  0  0  0  0  0  0  0  0  0
  -33.4663  -22.7346   19.8967 C   0  0  0  0  0  0  0  0  0  0  0  0
  -33.6648  -28.8211   20.1312 C   0  0  0  0  0  0  0  0  0  0  0  0
  -32.8424  -22.1580   21.0123 C   0  0  0  0  0  0  0  0  0  0  0  0
  -22.5175   -8.1464   21.5869 C   0  0  0  0  0  0  0  0  0  0  0  0
  -34.8083  -20.7765   21.3821 C   0  0  0  0  0  0  0  0  0  0  0  0
  -20.5583   -6.8691   21.3582 C   0  0  0  0  0  0  0  0  0  0  0  0
  -17.9749   -6.6084   20.3380 C   0  0  0  0  0  0  0  0  0  0  0  0
  -32.4206  -17.2556   24.6550 C   0  0  0  0  0  0  0  0  0  0  0  0
  -20.2531   -5.8190   20.4922 C   0  0  0  0  0  0  0  0  0  0  0  0
  -24.6238  -11.7117   20.7211 C   0  0  0  0  0  0  0  0  0  0  0  0
  -31.1487  -15.5247   22.9722 C   0  0  0  0  0  0  0  0  0  0  0  0
  -32.9960  -16.7914   23.4832 C   0  0  0  0  0  0  0  0  0  0  0  0
  -25.1947  -13.8132   20.4165 C   0  0  0  0  0  0  0  0  0  0  0  0
  -22.8282  -13.5005   21.1585 C   0  0  0  0  0  0  0  0  0  0  0  0
  -32.1953  -25.5001   20.8133 C   0  0  0  0  0  0  0  0  0  0  0  0
  -29.4196  -23.8284   20.6623 C   0  0  0  0  0  0  0  0  0  0  0  0
  -35.0636  -16.9207   22.0494 C   0  0  0  0  0  0  0  0  0  0  0  0
  -27.8546  -20.7970   20.7542 C   0  0  0  0  0  0  0  0  0  0  0  0
  -30.9426  -14.0907   20.9112 C   0  0  0  0  0  0  0  0  0  0  0  0
  -31.8093  -30.5613   20.2714 C   0  0  0  0  0  0  0  0  0  0  0  0
  -32.7472  -23.7648   19.0697 C   0  0  0  0  0  0  0  0  0  0  0  0
  -31.4577  -22.5635   21.4443 C   0  0  0  0  0  0  0  0  0  0  0  0
  -30.9396  -29.4577   20.8681 C   0  0  0  0  0  0  0  0  0  0  0  0
  -29.3784  -13.0397   17.8903 C   0  0  0  0  0  0  0  0  0  0  0  0
  -31.7642  -28.5711   21.7959 C   0  0  0  0  0  0  0  0  0  0  0  0
  -27.9443  -12.7185   18.3174 C   0  0  0  0  0  0  0  0  0  0  0  0
  -30.3913  -12.6478   18.9647 C   0  0  0  0  0  0  0  0  0  0  0  0
  -28.6859  -12.8702   20.7286 C   0  0  0  0  0  0  0  0  0  0  0  0
  -32.8982  -27.8769   21.0318 C   0  0  1  0  0  0  0  0  0  0  0  0
  -31.6504  -24.4916   19.8419 C   0  0  1  0  0  0  0  0  0  0  0  0
  -27.6245  -13.3068   19.7056 C   0  0  2  0  0  0  0  0  0  0  0  0
  -37.4708  -16.7321   21.4026 C   0  0  0  0  0  0  0  0  0  0  0  0
  -25.5756  -19.7525   20.6421 C   0  0  0  0  0  0  0  0  0  0  0  0
  -28.8732  -24.7185   23.5292 C   0  0  0  0  0  0  0  0  0  0  0  0
  -27.1322  -22.9256   23.6801 C   0  0  0  0  0  0  0  0  0  0  0  0
  -26.8782  -24.7719   22.0221 C   0  0  0  0  0  0  0  0  0  0  0  0
  -28.5518  -19.2590   18.3237 C   0  0  0  0  0  0  0  0  0  0  0  0
  -36.3798  -18.9916   21.4091 C   0  0  0  0  0  0  0  0  0  1  0  0
  -28.6247  -22.9863   21.6308 C   0  0  1  0  0  0  0  0  0  0  0  0
  -36.4301  -17.6192   22.0848 C   0  0  1  0  0  0  0  0  0  0  0  0
  -26.8026  -20.1787   19.8512 C   0  0  2  0  0  0  0  0  0  0  0  0
  -27.9040  -23.8441   22.7088 C   0  0  0  0  0  0  0  0  0  0  0  0
  -25.9012  -11.6587   20.3343 N   0  0  0  0  0  0  0  0  0  0  0  0
  -32.3908  -15.9345   22.6305 N   0  0  0  0  0  0  0  0  0  0  0  0
  -26.2199  -12.9521   20.1565 N   0  0  0  0  0  0  0  0  0  0  0  0
  -30.7982  -23.5791   20.6069 N   0  0  0  0  0  0  0  0  0  0  0  0
  -30.0264  -13.2447   20.2513 N   0  0  0  0  0  0  0  0  0  0  0  0
  -25.3437  -15.1488   20.2884 N   0  0  0  0  0  0  0  0  0  0  0  0
  -21.8528  -12.5592   21.5147 N   0  0  0  0  0  0  0  0  0  0  0  0
  -34.2977  -17.2471   23.1654 N   0  0  0  0  0  0  0  0  0  0  0  0
  -30.4729  -14.6258   22.1102 N   0  0  0  0  0  0  0  0  0  0  0  0
  -32.3844  -26.7575   20.2720 N   0  0  0  0  0  0  0  0  0  0  0  0
  -27.7285  -22.1685   20.8205 N   0  0  0  0  0  0  0  0  0  0  0  0
  -27.3545  -18.9805   19.1579 N   0  3  0  0  0  0  0  0  0  0  0  0
  -22.5329  -14.7196   21.1557 O   0  0  0  0  0  0  0  0  0  0  0  0
  -32.4257  -25.1630   21.9687 O   0  0  0  0  0  0  0  0  0  0  0  0
  -28.8376  -24.6712   19.9748 O   0  0  0  0  0  0  0  0  0  0  0  0
  -34.7462  -16.1716   21.1301 O   0  0  0  0  0  0  0  0  0  0  0  0
  -28.7009  -20.1297   21.3449 O   0  0  0  0  0  0  0  0  0  0  0  0
  -32.0512  -14.3451   20.4334 O   0  0  0  0  0  0  0  0  0  0  0  0
  -21.8400   -6.9994   21.8660 O   0  0  0  0  0  0  0  0  0  0  0  0
  -35.4594  -19.8280   22.1089 O   0  0  0  0  0  0  0  0  0  1  0  0
  -16.7341   -6.4825   19.8495 F   0  0  0  0  0  0  0  0  0  0  0  0
  -33.0634  -18.1052   25.4666 F   0  0  0  0  0  0  0  0  0  0  0  0
  -21.1963   -4.9317   20.1476 F   0  0  0  0  0  0  0  0  0  0  0  0
  1  2  1  0  0  0  0
  1  5  2  0  0  0  0
  2  6  2  0  0  0  0
  3  8  2  0  0  0  0
  3 17  1  0  0  0  0
  4  9  1  0  0  0  0
  4 17  2  0  0  0  0
  5 19  1  0  0  0  0
  6 21  1  0  0  0  0
  7 10  2  0  0  0  0
  7 20  1  0  0  0  0
  8 23  1  0  0  0  0
  9 23  2  0  0  0  0
 10 24  1  0  0  0  0
 11 12  2  0  0  0  0
 11 25  1  0  0  0  0
 12 26  1  0  0  0  0
 13 14  2  0  0  0  0
 13 27  1  0  0  0  0
 14 30  1  0  0  0  0
 15 22  1  0  0  0  0
 15 24  2  0  0  0  0
 16 26  2  0  0  0  0
 16 28  1  0  0  0  0
 17 29  1  0  0  0  0
 18 29  1  0  0  0  0
 18 32  2  0  0  0  0
 18 33  1  0  0  0  0
 19 21  2  0  0  0  0
 19 39  1  0  0  0  0
 20 22  2  0  0  0  0
 20 40  1  0  0  0  0
 21 48  1  0  0  0  0
 22 41  1  0  0  0  0
 23 80  1  0  0  0  0
 24 81  1  0  0  0  0
 25 28  2  0  0  0  0
 25 80  1  0  0  0  0
 26 82  1  0  0  0  0
 27 31  2  0  0  0  0
 27 83  1  0  0  0  0
 28 84  1  0  0  0  0
 29 62  2  0  0  0  0
 30 63  2  0  0  0  0
 30 70  1  0  0  0  0
 31 63  1  0  0  0  0
 31 69  1  0  0  0  0
 32 64  1  0  0  0  0
 32 67  1  0  0  0  0
 33 68  1  0  0  0  0
 33 74  2  0  0  0  0
 34 49  1  0  0  0  0
 34 71  1  0  0  0  0
 34 75  2  0  0  0  0
 35 58  1  0  0  0  0
 35 65  1  0  0  0  0
 35 76  2  0  0  0  0
 36 59  1  0  0  0  0
 36 69  1  0  0  0  0
 36 77  2  0  0  0  0
 37 60  1  0  0  0  0
 37 72  1  0  0  0  0
 37 78  2  0  0  0  0
 38 66  1  0  0  0  0
 38 70  1  0  0  0  0
 38 79  2  0  0  0  0
 39 42  1  0  0  0  0
 40 49  1  0  0  0  0
 41 65  1  0  0  0  0
 42 44  1  0  0  0  0
 43 45  1  0  0  0  0
 43 46  1  0  0  0  0
 44 48  1  0  0  0  0
 45 50  1  0  0  0  0
 46 66  1  0  0  0  0
 47 50  1  0  0  0  0
 47 66  1  0  0  0  0
 48 71  1  0  0  0  0
 49 65  1  0  0  0  0
 50 64  1  0  0  0  0
 51 59  1  0  0  0  0
 52 60  1  0  0  0  0
 53 61  1  0  0  0  0
 54 61  1  0  0  0  0
 55 61  1  0  0  0  0
 56 73  1  0  0  0  0
 57 59  1  0  0  0  0
 57 81  1  0  0  0  0
 58 61  1  0  0  0  0
 58 72  1  0  0  0  0
 60 73  1  0  0  0  0
 62 64  1  0  0  0  0
M  CHG  1  73   1
M  ISO  4  38 100  57 101  70 100  81 101
M  END
> <Batch ID>
0188

> <Smiles>
CNC(C)C(=O)NC(C(=O)N1Cc2cc([101O:1][101CH2:1]C(C)C(=O)Nc3nc([100NH:0][100C:0](=O)N4CCCC(n5nc(-c6ccc(Oc7ccc(F)cc7F)cc6)c(C(N)=O)c5N)C4)ccc3F)ccc2CC1C(=O)NC1CCCc2ccccc21)C(C)(C)C

> <Shape>
0.198

> <Color>
0.180

> <Negative vol penalty>
0.000

$$$$

  -OEChem-04052305153D

 86 94  0     1  0  0  0  0  0999 V2000
  -15.7459  -26.6203   21.3261 C   0  0  0  0  0  0  0  0  0  0  0  0
  -16.8448  -26.7046   20.4772 C   0  0  0  0  0  0  0  0  0  0  0  0
  -25.1745  -13.5524   22.1663 C   0  0  0  0  0  0  0  0  0  0  0  0
  -26.1098  -13.8540   19.9592 C   0  0  0  0  0  0  0  0  0  0  0  0
  -15.7869  -27.2282   22.5801 C   0  0  0  0  0  0  0  0  0  0  0  0
  -17.9851  -27.3980   20.8815 C   0  0  0  0  0  0  0  0  0  0  0  0
  -23.7993  -26.0260   19.5330 C   0  0  0  0  0  0  0  0  0  0  0  0
  -24.2608  -12.6318   21.6534 C   0  0  0  0  0  0  0  0  0  0  0  0
  -25.1961  -12.9333   19.4463 C   0  0  0  0  0  0  0  0  0  0  0  0
  -24.6807  -26.5188   18.5717 C   0  0  0  0  0  0  0  0  0  0  0  0
  -24.2575   -9.3826   20.7176 C   0  0  0  0  0  0  0  0  0  0  0  0
  -24.0631   -8.1978   21.4276 C   0  0  0  0  0  0  0  0  0  0  0  0
  -25.6075  -28.0320   20.2058 C   0  0  0  0  0  0  0  0  0  0  0  0
  -21.7254   -8.7441   21.6990 C   0  0  0  0  0  0  0  0  0  0  0  0
  -29.1831  -21.2830   17.5264 C   0  0  0  0  0  0  0  0  0  0  0  0
  -26.0989  -14.1636   21.3193 C   0  0  0  0  0  0  0  0  0  0  0  0
  -28.3277  -14.8457   22.3560 C   0  0  0  0  0  0  0  0  0  0  0  0
  -16.9319  -27.9212   23.0039 C   0  0  0  0  0  0  0  0  0  0  0  0
  -23.8081  -26.5410   20.8373 C   0  0  0  0  0  0  0  0  0  0  0  0
  -18.0410  -28.0169   22.1419 C   0  0  0  0  0  0  0  0  0  0  0  0
  -24.7270  -27.5422   21.1825 C   0  0  0  0  0  0  0  0  0  0  0  0
  -24.2716  -12.3222   20.2934 C   0  0  0  0  0  0  0  0  0  0  0  0
  -25.5830  -27.5240   18.9072 C   0  0  0  0  0  0  0  0  0  0  0  0
  -23.1859  -10.2482   20.4983 C   0  0  0  0  0  0  0  0  0  0  0  0
  -22.7971   -7.8786   21.9183 C   0  0  0  0  0  0  0  0  0  0  0  0
  -21.9198   -9.9289   20.9890 C   0  0  0  0  0  0  0  0  0  0  0  0
  -27.0426  -15.1152   21.8485 C   0  0  0  0  0  0  0  0  0  0  0  0
  -28.7128  -21.8684   18.6832 C   0  0  0  0  0  0  0  0  0  0  0  0
  -28.8142  -16.0747   22.7292 C   0  0  0  0  0  0  0  0  0  0  0  0
  -29.4215  -23.6761   17.6635 C   0  0  0  0  0  0  0  0  0  0  0  0
  -29.0199  -13.5961   22.4791 C   0  0  0  0  0  0  0  0  0  0  0  0
  -21.6991  -28.0687   22.6599 C   0  0  0  0  0  0  0  0  0  0  0  0
  -30.4381  -26.0320   19.4602 C   0  0  0  0  0  0  0  0  0  0  0  0
  -23.9871  -27.7095   24.9312 C   0  0  0  0  0  0  0  0  0  0  0  0
  -27.2863  -27.2490   25.6727 C   0  0  0  0  0  0  0  0  0  0  0  0
  -27.6219  -21.6509   20.9435 C   0  0  0  0  0  0  0  0  0  0  0  0
  -16.9118  -28.6023   24.3493 C   0  0  0  0  0  0  0  0  0  0  0  0
  -22.8692  -25.9800   21.8698 C   0  0  0  0  0  0  0  0  0  0  0  0
  -24.7905  -28.1147   22.5742 C   0  0  0  0  0  0  0  0  0  0  0  0
  -18.2974  -28.9994   24.8518 C   0  0  0  0  0  0  0  0  0  0  0  0
  -27.3560  -20.3731   24.2561 C   0  0  0  0  0  0  0  0  0  0  0  0
  -19.0913  -29.6835   23.7434 C   0  0  0  0  0  0  0  0  0  0  0  0
  -27.3685  -18.8552   24.0613 C   0  0  0  0  0  0  0  0  0  0  0  0
  -26.5982  -21.0825   23.1353 C   0  0  0  0  0  0  0  0  0  0  0  0
  -27.0517  -19.2254   21.5815 C   0  0  0  0  0  0  0  0  0  0  0  0
  -19.3053  -28.7390   22.5544 C   0  0  1  0  0  0  0  0  0  0  0  0
  -22.6161  -26.9374   23.0303 C   0  0  1  0  0  0  0  0  0  0  0  0
  -27.8590  -18.4721   22.6513 C   0  0  2  0  0  0  0  0  0  0  0  0
  -31.2817  -26.8702   21.6915 C   0  0  0  0  0  0  0  0  0  0  0  0
  -28.8566  -27.0334   27.6183 C   0  0  0  0  0  0  0  0  0  0  0  0
  -30.7253  -27.8104   17.0313 C   0  0  0  0  0  0  0  0  0  0  0  0
  -23.8250  -30.7213   25.3927 C   0  0  0  0  0  0  0  0  0  0  0  0
  -26.0101  -30.5825   26.6069 C   0  0  0  0  0  0  0  0  0  0  0  0
  -24.0208  -29.3554   27.4784 C   0  0  0  0  0  0  0  0  0  0  0  0
  -28.1029  -24.5227   24.8606 C   0  0  0  0  0  0  0  0  0  0  0  0
  -30.2299  -27.0102   20.6059 C   0  0  0  0  0  0  0  0  0  0  0  0
  -28.2683  -27.4647   16.4720 C   0  0  0  0  0  0  0  0  0  0  0  0
  -26.8609  -27.1064   16.9454 C   0  0  0  0  0  0  0  0  0  1  0  0
  -29.4098  -26.0796   18.3334 C   0  0  1  0  0  0  0  0  0  0  0  0
  -25.1750  -28.5205   25.3897 C   0  0  1  0  0  0  0  0  0  0  0  0
  -27.9809  -26.2894   26.6220 C   0  0  2  0  0  0  0  0  0  0  0  0
  -29.3460  -27.4309   17.5830 C   0  0  1  0  0  0  0  0  0  0  0  0
  -24.7555  -29.7857   26.1901 C   0  0  0  0  0  0  0  0  0  0  0  0
  -26.7322  -16.4135   21.8938 N   0  0  0  0  0  0  0  0  0  0  0  0
  -28.8491  -23.2405   18.7638 N   0  0  0  0  0  0  0  0  0  0  0  0
  -27.8292  -16.9707   22.4343 N   0  0  0  0  0  0  0  0  0  0  0  0
  -23.8478  -27.5377   23.5467 N   0  0  0  0  0  0  0  0  0  0  0  0
  -27.1200  -20.6741   21.8293 N   0  0  0  0  0  0  0  0  0  0  0  0
  -29.9842  -16.4655   23.2776 N   0  0  0  0  0  0  0  0  0  0  0  0
  -28.3745  -12.4294   22.0470 N   0  0  0  0  0  0  0  0  0  0  0  0
  -28.1211  -21.1409   19.7455 N   0  0  0  0  0  0  0  0  0  0  0  0
  -29.7099  -25.0037   17.4086 N   0  0  0  0  0  0  0  0  0  0  0  0
  -20.3585  -27.7901   22.8459 N   0  0  0  0  0  0  0  0  0  0  0  0
  -26.0345  -27.6029   26.1298 N   0  0  0  0  0  0  0  0  0  0  0  0
  -28.8390  -25.3380   25.8608 N   0  3  0  0  0  0  0  0  0  0  0  0
  -30.1700  -13.5144   22.9732 O   0  0  0  0  0  0  0  0  0  0  0  0
  -22.1729  -29.1171   22.2382 O   0  0  0  0  0  0  0  0  0  0  0  0
  -31.3717  -25.2289   19.4507 O   0  0  0  0  0  0  0  0  0  0  0  0
  -23.2153  -27.2396   25.7710 O   0  0  0  0  0  0  0  0  0  0  0  0
  -27.8040  -27.6478   24.6318 O   0  0  0  0  0  0  0  0  0  0  0  0
  -27.6346  -22.8489   21.2381 O   0  0  0  0  0  0  0  0  0  0  0  0
  -23.3804  -11.4236   19.7925 O   0  0  0  0  0  0  0  0  0  0  0  0
  -26.4438  -28.0072   17.9706 O   0  0  0  0  0  0  0  0  0  1  0  0
  -22.6102   -6.7401   22.5988 F   0  0  0  0  0  0  0  0  0  0  0  0
  -20.8862  -10.7559   20.7804 F   0  0  0  0  0  0  0  0  0  0  0  0
  -29.8223  -22.4903   16.4895 S   0  0  0  0  0  0  0  0  0  0  0  0
  1  2  1  0  0  0  0
  1  5  2  0  0  0  0
  2  6  2  0  0  0  0
  3  8  2  0  0  0  0
  3 16  1  0  0  0  0
  4  9  1  0  0  0  0
  4 16  2  0  0  0  0
  5 18  1  0  0  0  0
  6 20  1  0  0  0  0
  7 10  2  0  0  0  0
  7 19  1  0  0  0  0
  8 22  1  0  0  0  0
  9 22  2  0  0  0  0
 10 23  1  0  0  0  0
 11 12  2  0  0  0  0
 11 24  1  0  0  0  0
 12 25  1  0  0  0  0
 13 21  1  0  0  0  0
 13 23  2  0  0  0  0
 14 25  2  0  0  0  0
 14 26  1  0  0  0  0
 15 28  2  0  0  0  0
 15 86  1  0  0  0  0
 16 27  1  0  0  0  0
 17 27  1  0  0  0  0
 17 29  2  0  0  0  0
 17 31  1  0  0  0  0
 18 20  2  0  0  0  0
 18 37  1  0  0  0  0
 19 21  2  0  0  0  0
 19 38  1  0  0  0  0
 20 46  1  0  0  0  0
 21 39  1  0  0  0  0
 22 82  1  0  0  0  0
 23 83  1  0  0  0  0
 24 26  2  0  0  0  0
 24 82  1  0  0  0  0
 25 84  1  0  0  0  0
 26 85  1  0  0  0  0
 27 64  2  0  0  0  0
 28 65  1  0  0  0  0
 28 71  1  0  0  0  0
 29 66  1  0  0  0  0
 29 69  1  0  0  0  0
 30 65  2  0  0  0  0
 30 72  1  0  0  0  0
 30 86  1  0  0  0  0
 31 70  1  0  0  0  0
 31 76  2  0  0  0  0
 32 47  1  0  0  0  0
 32 73  1  0  0  0  0
 32 77  2  0  0  0  0
 33 56  1  0  0  0  0
 33 59  1  0  0  0  0
 33 78  2  0  0  0  0
 34 60  1  0  0  0  0
 34 67  1  0  0  0  0
 34 79  2  0  0  0  0
 35 61  1  0  0  0  0
 35 74  1  0  0  0  0
 35 80  2  0  0  0  0
 36 68  1  0  0  0  0
 36 71  1  0  0  0  0
 36 81  2  0  0  0  0
 37 40  1  0  0  0  0
 38 47  1  0  0  0  0
 39 67  1  0  0  0  0
 40 42  1  0  0  0  0
 41 43  1  0  0  0  0
 41 44  1  0  0  0  0
 42 46  1  0  0  0  0
 43 48  1  0  0  0  0
 44 68  1  0  0  0  0
 45 48  1  0  0  0  0
 45 68  1  0  0  0  0
 46 73  1  0  0  0  0
 47 67  1  0  0  0  0
 48 66  1  0  0  0  0
 49 56  1  0  0  0  0
 50 61  1  0  0  0  0
 51 62  1  0  0  0  0
 52 63  1  0  0  0  0
 53 63  1  0  0  0  0
 54 63  1  0  0  0  0
 55 75  1  0  0  0  0
 57 58  1  0  0  0  0
 57 62  1  0  0  0  0
 58 83  1  0  0  0  0
 59 62  1  0  0  0  0
 59 72  1  0  0  0  0
 60 63  1  0  0  0  0
 60 74  1  0  0  0  0
 61 75  1  0  0  0  0
 64 66  1  0  0  0  0
M  CHG  1  75   1
M  ISO  4  36 100  58 101  71 100  83 101
M  END
> <Batch ID>
0188

> <Smiles>
CCC(=O)C(Nc1nc([100NH:0][100C:0](=O)N2CCCC(n3nc(-c4ccc(Oc5ccc(F)cc5F)cc4)c(C(N)=O)c3N)C2)cs1)C(C)C[101CH2:1][101O:1]c1ccc2c(c1)CN(C(=O)C(NC(=O)C(C)NC)C(C)(C)C)C(C(=O)NC1CCCc3ccccc31)C2

> <Shape>
0.255

> <Color>
0.071

> <Negative vol penalty>
0.000

$$$$

  -OEChem-04052305153D

 83 91  0     1  0  0  0  0  0999 V2000
  -27.5862  -20.0941   25.2795 C   0  0  0  0  0  0  0  0  0  0  0  0
  -27.7972  -20.9733   24.2221 C   0  0  0  0  0  0  0  0  0  0  0  0
  -24.1748  -12.4352   21.3372 C   0  0  0  0  0  0  0  0  0  0  0  0
  -26.5173  -12.2126   20.7892 C   0  0  0  0  0  0  0  0  0  0  0  0
  -26.2990  -19.9046   25.7807 C   0  0  0  0  0  0  0  0  0  0  0  0
  -26.7209  -21.6625   23.6646 C   0  0  0  0  0  0  0  0  0  0  0  0
  -27.7482  -26.5581   22.8748 C   0  0  0  0  0  0  0  0  0  0  0  0
  -24.0178  -11.0536   21.2275 C   0  0  0  0  0  0  0  0  0  0  0  0
  -26.3603  -10.8309   20.6796 C   0  0  0  0  0  0  0  0  0  0  0  0
  -28.5201  -26.8745   21.7578 C   0  0  0  0  0  0  0  0  0  0  0  0
  -24.6594   -8.3167   23.1066 C   0  0  0  0  0  0  0  0  0  0  0  0
  -23.9314   -7.6660   24.1026 C   0  0  0  0  0  0  0  0  0  0  0  0
  -26.5194  -27.4814   20.5546 C   0  0  0  0  0  0  0  0  0  0  0  0
  -22.3516   -6.8959   22.4447 C   0  0  0  0  0  0  0  0  0  0  0  0
  -29.8817  -21.6031   20.8706 C   0  0  0  0  0  0  0  0  0  0  0  0
  -25.4246  -13.0148   21.1180 C   0  0  0  0  0  0  0  0  0  0  0  0
  -25.9271  -15.1703   22.3865 C   0  0  0  0  0  0  0  0  0  0  0  0
  -25.2078  -20.5991   25.2353 C   0  0  0  0  0  0  0  0  0  0  0  0
  -26.3527  -26.6907   22.8364 C   0  0  0  0  0  0  0  0  0  0  0  0
  -25.4177  -21.4811   24.1581 C   0  0  0  0  0  0  0  0  0  0  0  0
  -25.7322  -27.1684   21.6733 C   0  0  0  0  0  0  0  0  0  0  0  0
  -25.1106  -10.2514   20.8987 C   0  0  0  0  0  0  0  0  0  0  0  0
  -27.9055  -27.3335   20.5965 C   0  0  0  0  0  0  0  0  0  0  0  0
  -24.2335   -8.2572   21.7796 C   0  0  0  0  0  0  0  0  0  0  0  0
  -22.7775   -6.9555   23.7717 C   0  0  0  0  0  0  0  0  0  0  0  0
  -23.0796   -7.5468   21.4487 C   0  0  0  0  0  0  0  0  0  0  0  0
  -25.5873  -14.4420   21.2306 C   0  0  0  0  0  0  0  0  0  0  0  0
  -29.0544  -21.5973   19.7671 C   0  0  0  0  0  0  0  0  0  0  0  0
  -25.9553  -16.4793   21.9715 C   0  0  0  0  0  0  0  0  0  0  0  0
  -29.8269  -23.6421   19.5892 C   0  0  0  0  0  0  0  0  0  0  0  0
  -26.1935  -14.7051   23.7162 C   0  0  0  0  0  0  0  0  0  0  0  0
  -30.0296  -25.0146   19.0529 C   0  0  0  0  0  0  0  0  0  0  0  0
  -23.9002  -24.6905   23.1335 C   0  0  0  0  0  0  0  0  0  0  0  0
  -22.1589  -27.4246   23.0127 C   0  0  0  0  0  0  0  0  0  0  0  0
  -21.9523  -30.6870   22.0325 C   0  0  0  0  0  0  0  0  0  0  0  0
  -27.4122  -20.3905   18.2861 C   0  0  0  0  0  0  0  0  0  0  0  0
  -23.8280  -20.3257   25.7794 C   0  0  0  0  0  0  0  0  0  0  0  0
  -25.5365  -26.3706   24.0586 C   0  0  0  0  0  0  0  0  0  0  0  0
  -24.2392  -27.3478   21.5874 C   0  0  0  0  0  0  0  0  0  0  0  0
  -22.7960  -21.3768   25.3789 C   0  0  0  0  0  0  0  0  0  0  0  0
  -24.4043  -18.5970   17.6435 C   0  0  0  0  0  0  0  0  0  0  0  0
  -22.9016  -21.6883   23.8894 C   0  0  0  0  0  0  0  0  0  0  0  0
  -24.4719  -17.4161   18.6146 C   0  0  0  0  0  0  0  0  0  0  0  0
  -25.7812  -18.9513   17.0847 C   0  0  0  0  0  0  0  0  0  0  0  0
  -26.8898  -17.9960   19.0666 C   0  0  0  0  0  0  0  0  0  0  0  0
  -24.2793  -22.2657   23.5429 C   0  0  1  0  0  0  0  0  0  0  0  0
  -24.0789  -26.0545   23.7378 C   0  0  1  0  0  0  0  0  0  0  0  0
  -25.5366  -17.6437   19.7055 C   0  0  2  0  0  0  0  0  0  0  0  0
  -20.3902  -32.6510   22.0399 C   0  0  0  0  0  0  0  0  0  0  0  0
  -32.4489  -27.5970   19.4109 C   0  0  0  0  0  0  0  0  0  0  0  0
  -30.0993  -29.5428   19.2250 C   0  0  0  0  0  0  0  0  0  0  0  0
  -20.5591  -26.1576   20.7444 C   0  0  0  0  0  0  0  0  0  0  0  0
  -19.6942  -28.4370   20.1746 C   0  0  0  0  0  0  0  0  0  0  0  0
  -19.1882  -27.4337   22.4017 C   0  0  0  0  0  0  0  0  0  0  0  0
  -23.8229  -32.3165   23.6464 C   0  0  0  0  0  0  0  0  0  0  0  0
  -21.5320  -28.2451   21.9114 C   0  0  1  0  0  0  0  0  0  0  0  0
  -21.5131  -31.9361   22.7751 C   0  0  2  0  0  0  0  0  0  0  0  0
  -31.0166  -27.1643   19.1174 C   0  0  2  0  0  0  0  0  0  0  0  0
  -29.9829  -28.1133   19.7406 C   0  0  2  0  0  0  0  0  0  1  0  0
  -20.2713  -27.5632   21.3087 C   0  0  0  0  0  0  0  0  0  0  0  0
  -25.4120  -15.2234   20.1617 N   0  0  0  0  0  0  0  0  0  0  0  0
  -29.0214  -22.7657   19.0314 N   0  0  0  0  0  0  0  0  0  0  0  0
  -30.8350  -25.8105   19.6578 N   0  0  0  0  0  0  0  0  0  0  0  0
  -25.6425  -16.4564   20.6442 N   0  0  0  0  0  0  0  0  0  0  0  0
  -23.4840  -27.0154   22.8066 N   0  0  0  0  0  0  0  0  0  0  0  0
  -26.7365  -19.1568   18.1755 N   0  0  0  0  0  0  0  0  0  0  0  0
  -26.2168  -17.6361   22.6163 N   0  0  0  0  0  0  0  0  0  0  0  0
  -26.1212  -13.3285   23.9696 N   0  0  0  0  0  0  0  0  0  0  0  0
  -29.3039  -25.3331   17.9229 N   0  0  0  0  0  0  0  0  0  0  0  0
  -28.2709  -20.4815   19.3811 N   0  0  0  0  0  0  0  0  0  0  0  0
  -24.3559  -23.6579   23.9308 N   0  0  0  0  0  0  0  0  0  0  0  0
  -21.2835  -29.5664   22.4777 N   0  0  0  0  0  0  0  0  0  0  0  0
  -22.6562  -32.8812   22.9204 N   0  3  0  0  0  0  0  0  0  0  0  0
  -26.4709  -15.4885   24.6558 O   0  0  0  0  0  0  0  0  0  0  0  0
  -23.3857  -24.5828   22.0266 O   0  0  0  0  0  0  0  0  0  0  0  0
  -21.4996  -27.1628   24.0219 O   0  0  0  0  0  0  0  0  0  0  0  0
  -22.8008  -30.7044   21.1436 O   0  0  0  0  0  0  0  0  0  0  0  0
  -27.2211  -21.3092   17.4851 O   0  0  0  0  0  0  0  0  0  0  0  0
  -24.9578   -8.9032   20.7918 O   0  0  0  0  0  0  0  0  0  0  0  0
  -28.6566  -27.6425   19.5046 O   0  0  0  0  0  0  0  0  0  1  0  0
  -22.0793   -6.3293   24.7280 F   0  0  0  0  0  0  0  0  0  0  0  0
  -22.6662   -7.4850   20.1755 F   0  0  0  0  0  0  0  0  0  0  0  0
  -30.6561  -23.1278   21.0009 S   0  0  0  0  0  0  0  0  0  0  0  0
  1  2  1  0  0  0  0
  1  5  2  0  0  0  0
  2  6  2  0  0  0  0
  3  8  2  0  0  0  0
  3 16  1  0  0  0  0
  4  9  1  0  0  0  0
  4 16  2  0  0  0  0
  5 18  1  0  0  0  0
  6 20  1  0  0  0  0
  7 10  2  0  0  0  0
  7 19  1  0  0  0  0
  8 22  1  0  0  0  0
  9 22  2  0  0  0  0
 10 23  1  0  0  0  0
 11 12  2  0  0  0  0
 11 24  1  0  0  0  0
 12 25  1  0  0  0  0
 13 21  1  0  0  0  0
 13 23  2  0  0  0  0
 14 25  2  0  0  0  0
 14 26  1  0  0  0  0
 15 28  2  0  0  0  0
 15 83  1  0  0  0  0
 16 27  1  0  0  0  0
 17 27  1  0  0  0  0
 17 29  2  0  0  0  0
 17 31  1  0  0  0  0
 18 20  2  0  0  0  0
 18 37  1  0  0  0  0
 19 21  2  0  0  0  0
 19 38  1  0  0  0  0
 20 46  1  0  0  0  0
 21 39  1  0  0  0  0
 22 79  1  0  0  0  0
 23 80  1  0  0  0  0
 24 26  2  0  0  0  0
 24 79  1  0  0  0  0
 25 81  1  0  0  0  0
 26 82  1  0  0  0  0
 27 61  2  0  0  0  0
 28 62  1  0  0  0  0
 28 70  1  0  0  0  0
 29 64  1  0  0  0  0
 29 67  1  0  0  0  0
 30 32  1  0  0  0  0
 30 62  2  0  0  0  0
 30 83  1  0  0  0  0
 31 68  1  0  0  0  0
 31 74  2  0  0  0  0
 32 63  2  0  0  0  0
 32 69  1  0  0  0  0
 33 47  1  0  0  0  0
 33 71  1  0  0  0  0
 33 75  2  0  0  0  0
 34 56  1  0  0  0  0
 34 65  1  0  0  0  0
 34 76  2  0  0  0  0
 35 57  1  0  0  0  0
 35 72  1  0  0  0  0
 35 77  2  0  0  0  0
 36 66  1  0  0  0  0
 36 70  1  0  0  0  0
 36 78  2  0  0  0  0
 37 40  1  0  0  0  0
 38 47  1  0  0  0  0
 39 65  1  0  0  0  0
 40 42  1  0  0  0  0
 41 43  1  0  0  0  0
 41 44  1  0  0  0  0
 42 46  1  0  0  0  0
 43 48  1  0  0  0  0
 44 66  1  0  0  0  0
 45 48  1  0  0  0  0
 45 66  1  0  0  0  0
 46 71  1  0  0  0  0
 47 65  1  0  0  0  0
 48 64  1  0  0  0  0
 49 57  1  0  0  0  0
 50 58  1  0  0  0  0
 51 59  1  0  0  0  0
 52 60  1  0  0  0  0
 53 60  1  0  0  0  0
 54 60  1  0  0  0  0
 55 73  1  0  0  0  0
 56 60  1  0  0  0  0
 56 72  1  0  0  0  0
 57 73  1  0  0  0  0
 58 59  1  0  0  0  0
 58 63  1  0  0  0  0
 59 80  1  0  0  0  0
 61 64  1  0  0  0  0
M  CHG  1  73   1
M  ISO  4  36 100  59 101  70 100  80 101
M  END
> <Batch ID>
0188

> <Smiles>
CNC(C)C(=O)NC(C(=O)N1Cc2cc([101O:1][101CH:1](C)C(C)NC(=N)c3nc([100NH:0][100C:0](=O)N4CCCC(n5nc(-c6ccc(Oc7ccc(F)cc7F)cc6)c(C(N)=O)c5N)C4)cs3)ccc2CC1C(=O)NC1CCCc2ccccc21)C(C)(C)C

> <Shape>
0.226

> <Color>
0.064

> <Negative vol penalty>
0.000

$$$$

  -OEChem-04052305153D

 82 90  0     1  0  0  0  0  0999 V2000
  -28.4724  -25.1566   15.9543 C   0  0  0  0  0  0  0  0  0  0  0  0
  -27.3121  -25.1743   16.7216 C   0  0  0  0  0  0  0  0  0  0  0  0
  -24.8232  -15.7298   21.6774 C   0  0  0  0  0  0  0  0  0  0  0  0
  -23.8646  -14.3042   23.3762 C   0  0  0  0  0  0  0  0  0  0  0  0
  -29.6381  -25.7461   16.4416 C   0  0  0  0  0  0  0  0  0  0  0  0
  -27.3171  -25.7807   17.9773 C   0  0  0  0  0  0  0  0  0  0  0  0
  -23.2511  -28.7012   18.7408 C   0  0  0  0  0  0  0  0  0  0  0  0
  -25.3449  -14.6091   21.0314 C   0  0  0  0  0  0  0  0  0  0  0  0
  -24.3863  -13.1835   22.7301 C   0  0  0  0  0  0  0  0  0  0  0  0
  -22.0570  -28.0583   19.0641 C   0  0  0  0  0  0  0  0  0  0  0  0
  -23.6149  -11.2689   20.0543 C   0  0  0  0  0  0  0  0  0  0  0  0
  -22.7771  -10.1649   19.8970 C   0  0  0  0  0  0  0  0  0  0  0  0
  -22.4119  -28.5827   21.3918 C   0  0  0  0  0  0  0  0  0  0  0  0
  -24.3192   -8.8128   21.1741 C   0  0  0  0  0  0  0  0  0  0  0  0
  -21.4356  -25.9615   24.3173 C   0  0  0  0  0  0  0  0  0  0  0  0
  -24.0830  -15.5773   22.8499 C   0  0  0  0  0  0  0  0  0  0  0  0
  -22.2857  -17.3291   23.3070 C   0  0  0  0  0  0  0  0  0  0  0  0
  -29.6549  -26.3685   17.6997 C   0  0  0  0  0  0  0  0  0  0  0  0
  -24.0413  -29.2812   19.7435 C   0  0  0  0  0  0  0  0  0  0  0  0
  -28.4846  -26.3780   18.4824 C   0  0  0  0  0  0  0  0  0  0  0  0
  -23.6143  -29.2347   21.0783 C   0  0  0  0  0  0  0  0  0  0  0  0
  -25.1265  -13.3359   21.5577 C   0  0  0  0  0  0  0  0  0  0  0  0
  -21.6387  -27.9964   20.3901 C   0  0  0  0  0  0  0  0  0  0  0  0
  -24.8049  -11.1449   20.7714 C   0  0  0  0  0  0  0  0  0  0  0  0
  -23.1292   -8.9368   20.4569 C   0  0  0  0  0  0  0  0  0  0  0  0
  -25.1570   -9.9168   21.3313 C   0  0  0  0  0  0  0  0  0  0  0  0
  -23.5443  -16.7347   23.5181 C   0  0  0  0  0  0  0  0  0  0  0  0
  -22.1696  -24.8232   24.5774 C   0  0  0  0  0  0  0  0  0  0  0  0
  -22.2556  -18.3887   24.1803 C   0  0  0  0  0  0  0  0  0  0  0  0
  -20.8232  -24.7702   22.5807 C   0  0  0  0  0  0  0  0  0  0  0  0
  -21.2376  -16.9566   22.4023 C   0  0  0  0  0  0  0  0  0  0  0  0
  -23.0921  -24.5145   25.7001 C   0  0  0  0  0  0  0  0  0  0  0  0
  -26.9881  -28.8026   20.8350 C   0  0  0  0  0  0  0  0  0  0  0  0
  -26.3389  -31.4373   22.6124 C   0  0  0  0  0  0  0  0  0  0  0  0
  -23.9930  -33.4565   24.0500 C   0  0  0  0  0  0  0  0  0  0  0  0
  -24.6133  -22.7813   26.5978 C   0  0  0  0  0  0  0  0  0  0  0  0
  -30.9514  -26.9509   18.2043 C   0  0  0  0  0  0  0  0  0  0  0  0
  -25.3134  -29.9944   19.3752 C   0  0  0  0  0  0  0  0  0  0  0  0
  -24.4162  -29.8593   22.1897 C   0  0  0  0  0  0  0  0  0  0  0  0
  -30.7733  -27.9014   19.3854 C   0  0  0  0  0  0  0  0  0  0  0  0
  -25.3686  -19.6174   27.9821 C   0  0  0  0  0  0  0  0  0  0  0  0
  -29.8394  -27.2912   20.4257 C   0  0  0  0  0  0  0  0  0  0  0  0
  -24.8512  -18.6309   26.9317 C   0  0  0  0  0  0  0  0  0  0  0  0
  -25.9892  -20.8570   27.3393 C   0  0  0  0  0  0  0  0  0  0  0  0
  -24.6251  -20.5574   25.3126 C   0  0  0  0  0  0  0  0  0  0  0  0
  -28.4437  -27.0478   19.8388 C   0  0  1  0  0  0  0  0  0  0  0  0
  -26.2958  -30.1025   20.5373 C   0  0  1  0  0  0  0  0  0  0  0  0
  -23.9277  -19.3247   25.9103 C   0  0  1  0  0  0  0  0  0  0  0  0
  -23.7677  -35.5117   25.4722 C   0  0  0  0  0  0  0  0  0  0  0  0
  -18.4030  -24.4011   19.7827 C   0  0  0  0  0  0  0  0  0  0  0  0
  -27.1263  -29.8167   25.0748 C   0  0  0  0  0  0  0  0  0  0  0  0
  -25.9990  -31.5482   26.4888 C   0  0  0  0  0  0  0  0  0  0  0  0
  -27.9529  -32.1771   25.0713 C   0  0  0  0  0  0  0  0  0  0  0  0
  -22.5112  -34.8999   21.9334 C   0  0  0  0  0  0  0  0  0  0  0  0
  -20.0701  -26.2855   19.8721 C   0  0  0  0  0  0  0  0  0  1  0  0
  -25.7300  -31.6870   23.9710 C   0  0  1  0  0  0  0  0  0  0  0  0
  -23.8291  -34.9656   24.0542 C   0  0  2  0  0  0  0  0  0  0  0  0
  -19.2789  -25.2618   20.6835 C   0  0  2  0  0  0  0  0  0  0  0  0
  -26.6877  -31.2937   25.1310 C   0  0  0  0  0  0  0  0  0  0  0  0
  -20.6633  -25.9331   23.1725 N   0  0  0  0  0  0  0  0  0  0  0  0
  -24.2618  -17.3645   24.4522 N   0  0  0  0  0  0  0  0  0  0  0  0
  -23.4515  -18.3656   24.8357 N   0  0  0  0  0  0  0  0  0  0  0  0
  -25.6557  -30.5397   21.7797 N   0  0  0  0  0  0  0  0  0  0  0  0
  -25.0486  -21.4603   26.3935 N   0  0  0  0  0  0  0  0  0  0  0  0
  -21.3231  -19.3286   24.4439 N   0  0  0  0  0  0  0  0  0  0  0  0
  -21.4331  -15.8416   21.5759 N   0  0  0  0  0  0  0  0  0  0  0  0
  -20.1954  -24.4018   21.4051 N   0  0  0  0  0  0  0  0  0  0  0  0
  -23.6832  -23.2513   25.6639 N   0  0  0  0  0  0  0  0  0  0  0  0
  -27.7014  -28.2881   19.7692 N   0  0  0  0  0  0  0  0  0  0  0  0
  -25.3197  -33.0870   23.9835 N   0  0  0  0  0  0  0  0  0  0  0  0
  -22.5757  -35.3525   23.3469 N   0  3  0  0  0  0  0  0  0  0  0  0
  -20.1662  -17.6034   22.3173 O   0  0  0  0  0  0  0  0  0  0  0  0
  -23.3084  -25.3740   26.5500 O   0  0  0  0  0  0  0  0  0  0  0  0
  -26.8840  -28.3041   21.9496 O   0  0  0  0  0  0  0  0  0  0  0  0
  -27.3783  -32.0228   22.2987 O   0  0  0  0  0  0  0  0  0  0  0  0
  -23.0396  -32.6828   24.1044 O   0  0  0  0  0  0  0  0  0  0  0  0
  -24.9906  -23.4702   27.5509 O   0  0  0  0  0  0  0  0  0  0  0  0
  -25.6353  -12.2421   20.9274 O   0  0  0  0  0  0  0  0  0  0  0  0
  -20.4739  -27.3689   20.7085 O   0  0  0  0  0  0  0  0  0  1  0  0
  -22.3239   -7.8770   20.3071 F   0  0  0  0  0  0  0  0  0  0  0  0
  -26.2984   -9.7918   22.0223 F   0  0  0  0  0  0  0  0  0  0  0  0
  -21.8875  -23.6630   23.3463 S   0  0  0  0  0  0  0  0  0  0  0  0
  1  2  1  0  0  0  0
  1  5  2  0  0  0  0
  2  6  2  0  0  0  0
  3  8  2  0  0  0  0
  3 16  1  0  0  0  0
  4  9  1  0  0  0  0
  4 16  2  0  0  0  0
  5 18  1  0  0  0  0
  6 20  1  0  0  0  0
  7 10  2  0  0  0  0
  7 19  1  0  0  0  0
  8 22  1  0  0  0  0
  9 22  2  0  0  0  0
 10 23  1  0  0  0  0
 11 12  2  0  0  0  0
 11 24  1  0  0  0  0
 12 25  1  0  0  0  0
 13 21  1  0  0  0  0
 13 23  2  0  0  0  0
 14 25  2  0  0  0  0
 14 26  1  0  0  0  0
 15 28  2  0  0  0  0
 15 60  1  0  0  0  0
 16 27  1  0  0  0  0
 17 27  1  0  0  0  0
 17 29  2  0  0  0  0
 17 31  1  0  0  0  0
 18 20  2  0  0  0  0
 18 37  1  0  0  0  0
 19 21  2  0  0  0  0
 19 38  1  0  0  0  0
 20 46  1  0  0  0  0
 21 39  1  0  0  0  0
 22 78  1  0  0  0  0
 23 79  1  0  0  0  0
 24 26  2  0  0  0  0
 24 78  1  0  0  0  0
 25 80  1  0  0  0  0
 26 81  1  0  0  0  0
 27 61  2  0  0  0  0
 28 32  1  0  0  0  0
 28 82  1  0  0  0  0
 29 62  1  0  0  0  0
 29 65  1  0  0  0  0
 30 60  2  0  0  0  0
 30 67  1  0  0  0  0
 30 82  1  0  0  0  0
 31 66  1  0  0  0  0
 31 72  2  0  0  0  0
 32 68  1  0  0  0  0
 32 73  2  0  0  0  0
 33 47  1  0  0  0  0
 33 69  1  0  0  0  0
 33 74  2  0  0  0  0
 34 56  1  0  0  0  0
 34 63  1  0  0  0  0
 34 75  2  0  0  0  0
 35 57  1  0  0  0  0
 35 70  1  0  0  0  0
 35 76  2  0  0  0  0
 36 64  1  0  0  0  0
 36 68  1  0  0  0  0
 36 77  2  0  0  0  0
 37 40  1  0  0  0  0
 38 47  1  0  0  0  0
 39 63  1  0  0  0  0
 40 42  1  0  0  0  0
 41 43  1  0  0  0  0
 41 44  1  0  0  0  0
 42 46  1  0  0  0  0
 43 48  1  0  0  0  0
 44 64  1  0  0  0  0
 45 48  1  0  0  0  0
 45 64  1  0  0  0  0
 46 69  1  0  0  0  0
 47 63  1  0  0  0  0
 48 62  1  0  0  0  0
 49 57  1  0  0  0  0
 50 58  1  0  0  0  0
 51 59  1  0  0  0  0
 52 59  1  0  0  0  0
 53 59  1  0  0  0  0
 54 71  1  0  0  0  0
 55 58  1  0  0  0  0
 55 79  1  0  0  0  0
 56 59  1  0  0  0  0
 56 70  1  0  0  0  0
 57 71  1  0  0  0  0
 58 67  1  0  0  0  0
 61 62  1  0  0  0  0
M  CHG  1  71   1
M  ISO  4  36 100  55 101  68 100  79 101
M  END
> <Batch ID>
0188

> <Smiles>
CNC(C)C(=O)NC(C(=O)N1Cc2cc([101O:1][101CH2:1]C(C)Nc3ncc(C(=O)[100NH:0][100C:0](=O)N4CCCC(n5nc(-c6ccc(Oc7ccc(F)cc7F)cc6)c(C(N)=O)c5N)C4)s3)ccc2CC1C(=O)NC1CCCc2ccccc21)C(C)(C)C

> <Shape>
0.226

> <Color>
0.066

> <Negative vol penalty>
0.000

$$$$

  -OEChem-04052305153D

 83 91  0     1  0  0  0  0  0999 V2000
  -25.1457  -34.7727   26.2409 C   0  0  0  0  0  0  0  0  0  0  0  0
  -25.8853  -33.7779   25.6095 C   0  0  0  0  0  0  0  0  0  0  0  0
  -24.4885  -10.3408   22.4742 C   0  0  0  0  0  0  0  0  0  0  0  0
  -24.5461  -11.8276   24.3776 C   0  0  0  0  0  0  0  0  0  0  0  0
  -23.7975  -34.5620   26.5271 C   0  0  0  0  0  0  0  0  0  0  0  0
  -25.2773  -32.5712   25.2648 C   0  0  0  0  0  0  0  0  0  0  0  0
  -26.4841  -31.0545   20.5863 C   0  0  0  0  0  0  0  0  0  0  0  0
  -24.0607   -9.3008   23.2994 C   0  0  0  0  0  0  0  0  0  0  0  0
  -24.1182  -10.7876   25.2029 C   0  0  0  0  0  0  0  0  0  0  0  0
  -27.7356  -30.4657   20.4108 C   0  0  0  0  0  0  0  0  0  0  0  0
  -21.1738   -8.2929   24.7427 C   0  0  0  0  0  0  0  0  0  0  0  0
  -20.1218   -7.4968   24.2898 C   0  0  0  0  0  0  0  0  0  0  0  0
  -26.7084  -28.2835   20.4546 C   0  0  0  0  0  0  0  0  0  0  0  0
  -21.5510   -5.5514   24.3894 C   0  0  0  0  0  0  0  0  0  0  0  0
  -29.9563  -21.6271   19.6907 C   0  0  0  0  0  0  0  0  0  0  0  0
  -24.7313  -11.6042   23.0133 C   0  0  0  0  0  0  0  0  0  0  0  0
  -24.3674  -13.5999   21.4665 C   0  0  0  0  0  0  0  0  0  0  0  0
  -23.1703  -33.3559   26.1771 C   0  0  0  0  0  0  0  0  0  0  0  0
  -25.3347  -30.2604   20.7084 C   0  0  0  0  0  0  0  0  0  0  0  0
  -23.9198  -32.3437   25.5478 C   0  0  0  0  0  0  0  0  0  0  0  0
  -25.4432  -28.8647   20.6290 C   0  0  0  0  0  0  0  0  0  0  0  0
  -23.8755   -9.5242   24.6637 C   0  0  0  0  0  0  0  0  0  0  0  0
  -27.8483  -29.0799   20.3478 C   0  0  0  0  0  0  0  0  0  0  0  0
  -22.4145   -7.7182   25.0189 C   0  0  0  0  0  0  0  0  0  0  0  0
  -20.3104   -6.1261   24.1131 C   0  0  0  0  0  0  0  0  0  0  0  0
  -22.6031   -6.3475   24.8423 C   0  0  0  0  0  0  0  0  0  0  0  0
  -25.1738  -12.6787   22.1614 C   0  0  0  0  0  0  0  0  0  0  0  0
  -25.2603  -14.4096   20.8081 C   0  0  0  0  0  0  0  0  0  0  0  0
  -30.0081  -22.1074   20.9824 C   0  0  0  0  0  0  0  0  0  0  0  0
  -29.3036  -19.8165   20.7421 C   0  0  0  0  0  0  0  0  0  0  0  0
  -22.9389  -13.7135   21.4204 C   0  0  0  0  0  0  0  0  0  0  0  0
  -23.1542  -29.8038   22.9757 C   0  0  0  0  0  0  0  0  0  0  0  0
  -29.9673  -17.4314   20.8500 C   0  0  0  0  0  0  0  0  0  0  0  0
  -21.7152  -28.0117   20.6866 C   0  0  0  0  0  0  0  0  0  0  0  0
  -30.7750  -24.5008   20.8146 C   0  0  0  0  0  0  0  0  0  0  0  0
  -22.0217  -26.1730   17.8279 C   0  0  0  0  0  0  0  0  0  0  0  0
  -21.7226  -33.1558   26.5495 C   0  0  0  0  0  0  0  0  0  0  0  0
  -23.9887  -30.9119   20.8705 C   0  0  0  0  0  0  0  0  0  0  0  0
  -24.2374  -27.9683   20.7342 C   0  0  0  0  0  0  0  0  0  0  0  0
  -21.0595  -31.9938   25.8143 C   0  0  0  0  0  0  0  0  0  0  0  0
  -30.2379  -13.9393   20.0940 C   0  0  0  0  0  0  0  0  0  0  0  0
  -21.9571  -30.7609   25.8450 C   0  0  0  0  0  0  0  0  0  0  0  0
  -28.8898  -13.3709   20.5353 C   0  0  0  0  0  0  0  0  0  0  0  0
  -30.6923  -15.0727   21.0083 C   0  0  0  0  0  0  0  0  0  0  0  0
  -28.3481  -15.6129   21.5865 C   0  0  0  0  0  0  0  0  0  0  0  0
  -23.2897  -31.0308   25.1360 C   0  0  1  0  0  0  0  0  0  0  0  0
  -22.9496  -29.9882   21.4986 C   0  0  1  0  0  0  0  0  0  0  0  0
  -27.8377  -14.4858   20.6714 C   0  0  2  0  0  0  0  0  0  0  0  0
  -32.5098  -25.6209   22.2742 C   0  0  0  0  0  0  0  0  0  0  0  0
  -20.6760  -24.7998   16.2152 C   0  0  0  0  0  0  0  0  0  0  0  0
  -21.6387  -25.7230   22.7030 C   0  0  0  0  0  0  0  0  0  0  0  0
  -21.1867  -24.1566   20.8029 C   0  0  0  0  0  0  0  0  0  0  0  0
  -19.5627  -25.9748   21.3314 C   0  0  0  0  0  0  0  0  0  0  0  0
  -22.6765  -27.9713   15.5704 C   0  0  0  0  0  0  0  0  0  0  0  0
  -28.8479  -18.4316   20.9931 C   0  0  0  0  0  0  0  0  0  0  0  0
  -30.7328  -27.0227   21.1073 C   0  0  0  0  0  0  0  0  0  0  0  0
  -29.2609  -27.2091   20.7482 C   0  0  0  0  0  0  0  0  0  1  0  0
  -21.7785  -26.5633   20.2657 C   0  0  1  0  0  0  0  0  0  0  0  0
  -31.0709  -25.6718   21.7606 C   0  0  1  0  0  0  0  0  0  0  0  0
  -21.2262  -26.1810   16.5350 C   0  0  2  0  0  0  0  0  0  0  0  0
  -21.0648  -25.6210   21.2757 C   0  0  0  0  0  0  0  0  0  0  0  0
  -29.5530  -20.3135   19.5509 N   0  0  0  0  0  0  0  0  0  0  0  0
  -26.4787  -12.8832   21.9628 N   0  0  0  0  0  0  0  0  0  0  0  0
  -26.4990  -13.9422   21.1356 N   0  0  0  0  0  0  0  0  0  0  0  0
  -22.9442  -28.6526   20.8983 N   0  0  0  0  0  0  0  0  0  0  0  0
  -29.6568  -16.1004   21.1292 N   0  0  0  0  0  0  0  0  0  0  0  0
  -25.0988  -15.4686   19.9866 N   0  0  0  0  0  0  0  0  0  0  0  0
  -22.1719  -12.7999   22.1563 N   0  0  0  0  0  0  0  0  0  0  0  0
  -30.3647  -23.3696   21.5140 N   0  0  0  0  0  0  0  0  0  0  0  0
  -23.1175  -30.9800   23.7000 N   0  0  0  0  0  0  0  0  0  0  0  0
  -21.2379  -26.5077   18.9118 N   0  0  0  0  0  0  0  0  0  0  0  0
  -22.0872  -26.6183   15.3998 N   0  3  0  0  0  0  0  0  0  0  0  0
  -22.3594  -14.5887   20.7336 O   0  0  0  0  0  0  0  0  0  0  0  0
  -23.3308  -28.6775   23.4253 O   0  0  0  0  0  0  0  0  0  0  0  0
  -31.0830  -17.8229   20.4977 O   0  0  0  0  0  0  0  0  0  0  0  0
  -20.6160  -28.5565   20.8156 O   0  0  0  0  0  0  0  0  0  0  0  0
  -30.9017  -24.6110   19.5983 O   0  0  0  0  0  0  0  0  0  0  0  0
  -23.2178  -25.8940   17.8724 O   0  0  0  0  0  0  0  0  0  0  0  0
  -23.4577   -8.5098   25.4693 O   0  0  0  0  0  0  0  0  0  0  0  0
  -29.0687  -28.5027   20.1772 O   0  0  0  0  0  0  0  0  0  1  0  0
  -19.2996   -5.3616   23.6797 F   0  0  0  0  0  0  0  0  0  0  0  0
  -23.7923   -5.7895   25.1071 F   0  0  0  0  0  0  0  0  0  0  0  0
  -29.5327  -20.8734   22.0745 S   0  0  0  0  0  0  0  0  0  0  0  0
  1  2  1  0  0  0  0
  1  5  2  0  0  0  0
  2  6  2  0  0  0  0
  3  8  2  0  0  0  0
  3 16  1  0  0  0  0
  4  9  1  0  0  0  0
  4 16  2  0  0  0  0
  5 18  1  0  0  0  0
  6 20  1  0  0  0  0
  7 10  2  0  0  0  0
  7 19  1  0  0  0  0
  8 22  1  0  0  0  0
  9 22  2  0  0  0  0
 10 23  1  0  0  0  0
 11 12  2  0  0  0  0
 11 24  1  0  0  0  0
 12 25  1  0  0  0  0
 13 21  1  0  0  0  0
 13 23  2  0  0  0  0
 14 25  2  0  0  0  0
 14 26  1  0  0  0  0
 15 29  2  0  0  0  0
 15 62  1  0  0  0  0
 16 27  1  0  0  0  0
 17 27  1  0  0  0  0
 17 28  2  0  0  0  0
 17 31  1  0  0  0  0
 18 20  2  0  0  0  0
 18 37  1  0  0  0  0
 19 21  2  0  0  0  0
 19 38  1  0  0  0  0
 20 46  1  0  0  0  0
 21 39  1  0  0  0  0
 22 79  1  0  0  0  0
 23 80  1  0  0  0  0
 24 26  2  0  0  0  0
 24 79  1  0  0  0  0
 25 81  1  0  0  0  0
 26 82  1  0  0  0  0
 27 63  2  0  0  0  0
 28 64  1  0  0  0  0
 28 67  1  0  0  0  0
 29 69  1  0  0  0  0
 29 83  1  0  0  0  0
 30 55  1  0  0  0  0
 30 62  2  0  0  0  0
 30 83  1  0  0  0  0
 31 68  1  0  0  0  0
 31 73  2  0  0  0  0
 32 47  1  0  0  0  0
 32 70  1  0  0  0  0
 32 74  2  0  0  0  0
 33 55  1  0  0  0  0
 33 66  1  0  0  0  0
 33 75  2  0  0  0  0
 34 58  1  0  0  0  0
 34 65  1  0  0  0  0
 34 76  2  0  0  0  0
 35 59  1  0  0  0  0
 35 69  1  0  0  0  0
 35 77  2  0  0  0  0
 36 60  1  0  0  0  0
 36 71  1  0  0  0  0
 36 78  2  0  0  0  0
 37 40  1  0  0  0  0
 38 47  1  0  0  0  0
 39 65  1  0  0  0  0
 40 42  1  0  0  0  0
 41 43  1  0  0  0  0
 41 44  1  0  0  0  0
 42 46  1  0  0  0  0
 43 48  1  0  0  0  0
 44 66  1  0  0  0  0
 45 48  1  0  0  0  0
 45 66  1  0  0  0  0
 46 70  1  0  0  0  0
 47 65  1  0  0  0  0
 48 64  1  0  0  0  0
 49 59  1  0  0  0  0
 50 60  1  0  0  0  0
 51 61  1  0  0  0  0
 52 61  1  0  0  0  0
 53 61  1  0  0  0  0
 54 72  1  0  0  0  0
 56 57  1  0  0  0  0
 56 59  1  0  0  0  0
 57 80  1  0  0  0  0
 58 61  1  0  0  0  0
 58 71  1  0  0  0  0
 60 72  1  0  0  0  0
 63 64  1  0  0  0  0
M  CHG  1  72   1
M  ISO  4  33 100  55 100  57 101  80 101
M  END
> <Batch ID>
0188

> <Smiles>
CNC(C)C(=O)NC(C(=O)N1Cc2cc([101O:1][101CH2:1]CC(C)C(=O)Nc3cnc([100CH2:0][100C:0](=O)N4CCCC(n5nc(-c6ccc(Oc7ccc(F)cc7F)cc6)c(C(N)=O)c5N)C4)s3)ccc2CC1C(=O)NC1CCCc2ccccc21)C(C)(C)C

> <Shape>
0.278

> <Color>
0.139

> <Negative vol penalty>
0.000

$$$$

  -OEChem-04052305153D

 84 92  0     1  0  0  0  0  0999 V2000
  -19.8923  -21.5217   20.9535 C   0  0  0  0  0  0  0  0  0  0  0  0
  -21.2540  -21.5226   20.6686 C   0  0  0  0  0  0  0  0  0  0  0  0
  -25.2073  -11.7479   24.2810 C   0  0  0  0  0  0  0  0  0  0  0  0
  -24.2121  -13.6819   25.3327 C   0  0  0  0  0  0  0  0  0  0  0  0
  -19.1741  -22.7164   20.9233 C   0  0  0  0  0  0  0  0  0  0  0  0
  -21.8981  -22.7181   20.3521 C   0  0  0  0  0  0  0  0  0  0  0  0
  -27.6428  -24.2932   21.7746 C   0  0  0  0  0  0  0  0  0  0  0  0
  -24.8588  -10.9686   25.3842 C   0  0  0  0  0  0  0  0  0  0  0  0
  -23.8635  -12.9027   26.4359 C   0  0  0  0  0  0  0  0  0  0  0  0
  -28.8317  -24.2613   21.0471 C   0  0  0  0  0  0  0  0  0  0  0  0
  -23.9118   -8.3912   27.7664 C   0  0  0  0  0  0  0  0  0  0  0  0
  -23.3457   -7.1397   27.5235 C   0  0  0  0  0  0  0  0  0  0  0  0
  -28.5318  -26.5835   20.4668 C   0  0  0  0  0  0  0  0  0  0  0  0
  -21.5215   -8.1943   26.3414 C   0  0  0  0  0  0  0  0  0  0  0  0
  -25.4870  -21.9527   17.9665 C   0  0  0  0  0  0  0  0  0  0  0  0
  -24.8840  -13.1045   24.2553 C   0  0  0  0  0  0  0  0  0  0  0  0
  -24.4737  -14.1420   21.9612 C   0  0  0  0  0  0  0  0  0  0  0  0
  -19.8118  -23.9286   20.6157 C   0  0  0  0  0  0  0  0  0  0  0  0
  -26.8826  -25.4695   21.8449 C   0  0  0  0  0  0  0  0  0  0  0  0
  -21.1876  -23.9300   20.3164 C   0  0  0  0  0  0  0  0  0  0  0  0
  -27.3350  -26.6284   21.1980 C   0  0  0  0  0  0  0  0  0  0  0  0
  -24.1869  -11.5460   26.4616 C   0  0  0  0  0  0  0  0  0  0  0  0
  -29.2749  -25.4058   20.3906 C   0  0  0  0  0  0  0  0  0  0  0  0
  -23.2828   -9.5442   27.2968 C   0  0  0  0  0  0  0  0  0  0  0  0
  -22.1506   -7.0413   26.8110 C   0  0  0  0  0  0  0  0  0  0  0  0
  -22.0876   -9.4458   26.5843 C   0  0  0  0  0  0  0  0  0  0  0  0
  -25.7364  -20.9219   18.8495 C   0  0  0  0  0  0  0  0  0  0  0  0
  -25.2443  -13.9101   23.1163 C   0  0  0  0  0  0  0  0  0  0  0  0
  -27.0567  -20.7550   19.2146 C   0  0  0  0  0  0  0  0  0  0  0  0
  -25.2543  -14.9656   21.1873 C   0  0  0  0  0  0  0  0  0  0  0  0
  -27.6923  -22.5000   17.9039 C   0  0  0  0  0  0  0  0  0  0  0  0
  -23.1689  -13.6564   21.6184 C   0  0  0  0  0  0  0  0  0  0  0  0
  -23.9501  -26.3022   20.9447 C   0  0  0  0  0  0  0  0  0  0  0  0
  -24.6798  -29.0598   22.4891 C   0  0  0  0  0  0  0  0  0  0  0  0
  -27.0882  -31.1935   23.6264 C   0  0  0  0  0  0  0  0  0  0  0  0
  -28.6195  -19.3650   20.6188 C   0  0  0  0  0  0  0  0  0  0  0  0
  -18.9842  -25.1877   20.5491 C   0  0  0  0  0  0  0  0  0  0  0  0
  -25.6162  -25.4949   22.6559 C   0  0  0  0  0  0  0  0  0  0  0  0
  -26.5660  -27.9221   21.2591 C   0  0  0  0  0  0  0  0  0  0  0  0
  -19.8178  -26.4664   20.5715 C   0  0  0  0  0  0  0  0  0  0  0  0
  -30.1113  -16.3072   21.6682 C   0  0  0  0  0  0  0  0  0  0  0  0
  -20.9886  -26.3575   19.5998 C   0  0  0  0  0  0  0  0  0  0  0  0
  -28.9147  -15.4300   22.0435 C   0  0  0  0  0  0  0  0  0  0  0  0
  -29.8828  -17.7698   22.0452 C   0  0  0  0  0  0  0  0  0  0  0  0
  -27.4403  -17.4782   21.9091 C   0  0  0  0  0  0  0  0  0  0  0  0
  -21.9270  -25.2102   19.9930 C   0  0  1  0  0  0  0  0  0  0  0  0
  -24.6588  -26.6054   22.2344 C   0  0  1  0  0  0  0  0  0  0  0  0
  -27.5972  -16.0074   21.4900 C   0  0  2  0  0  0  0  0  0  0  0  0
  -27.3771  -33.3836   24.8169 C   0  0  0  0  0  0  0  0  0  0  0  0
  -30.6852  -21.9994   16.9999 C   0  0  0  0  0  0  0  0  0  0  0  0
  -31.1858  -26.9158   17.9982 C   0  0  0  0  0  0  0  0  0  0  0  0
  -23.9128  -30.5455   19.9368 C   0  0  0  0  0  0  0  0  0  0  0  0
  -25.0976  -32.5594   20.8361 C   0  0  0  0  0  0  0  0  0  0  0  0
  -23.1275  -31.6280   22.0501 C   0  0  0  0  0  0  0  0  0  0  0  0
  -28.5530  -29.9187   25.8598 C   0  0  0  0  0  0  0  0  0  0  0  0
  -30.8541  -24.4697   17.4814 C   0  0  0  0  0  0  0  0  0  0  0  0
  -25.3195  -30.3690   22.0946 C   0  0  1  0  0  0  0  0  0  0  0  0
  -27.2783  -31.8738   24.9701 C   0  0  2  0  0  0  0  0  0  0  0  0
  -30.0932  -23.1682   17.7827 C   0  0  1  0  0  0  0  0  0  0  0  0
  -30.3496  -25.6754   18.2863 C   0  0  1  0  0  0  0  0  0  1  0  0
  -24.3781  -31.2508   21.2265 C   0  0  0  0  0  0  0  0  0  0  0  0
  -26.4445  -22.7642   17.4718 N   0  0  0  0  0  0  0  0  0  0  0  0
  -26.4239  -14.5357   23.0834 N   0  0  0  0  0  0  0  0  0  0  0  0
  -28.0640  -21.5286   18.7593 N   0  0  0  0  0  0  0  0  0  0  0  0
  -26.4005  -15.1687   21.8981 N   0  0  0  0  0  0  0  0  0  0  0  0
  -25.3307  -27.8946   22.0595 N   0  0  0  0  0  0  0  0  0  0  0  0
  -28.6185  -18.2495   21.4828 N   0  0  0  0  0  0  0  0  0  0  0  0
  -25.0653  -15.5284   19.9750 N   0  0  0  0  0  0  0  0  0  0  0  0
  -22.5070  -12.8203   22.5279 N   0  0  0  0  0  0  0  0  0  0  0  0
  -27.3636  -19.7093   20.1202 N   0  0  0  0  0  0  0  0  0  0  0  0
  -28.6995  -23.3147   17.4185 N   0  0  0  0  0  0  0  0  0  0  0  0
  -22.7685  -25.6034   21.1029 N   0  0  0  0  0  0  0  0  0  0  0  0
  -25.7542  -31.0012   23.3355 N   0  0  0  0  0  0  0  0  0  0  0  0
  -28.5242  -31.3856   25.6262 N   0  3  0  0  0  0  0  0  0  0  0  0
  -22.6136  -13.9419   20.5305 O   0  0  0  0  0  0  0  0  0  0  0  0
  -24.4382  -26.6759   19.8846 O   0  0  0  0  0  0  0  0  0  0  0  0
  -23.6447  -29.0704   23.1600 O   0  0  0  0  0  0  0  0  0  0  0  0
  -28.0289  -30.8688   22.9051 O   0  0  0  0  0  0  0  0  0  0  0  0
  -29.6618  -19.9535   20.3201 O   0  0  0  0  0  0  0  0  0  0  0  0
  -23.8464  -10.7859   27.5381 O   0  0  0  0  0  0  0  0  0  0  0  0
  -30.4346  -25.3772   19.6792 O   0  0  0  0  0  0  0  0  0  1  0  0
  -21.6079   -5.8393   26.5765 F   0  0  0  0  0  0  0  0  0  0  0  0
  -21.4793  -10.5499   26.1297 F   0  0  0  0  0  0  0  0  0  0  0  0
  -24.7530  -20.1429   19.3120 F   0  0  0  0  0  0  0  0  0  0  0  0
  1  2  1  0  0  0  0
  1  5  2  0  0  0  0
  2  6  2  0  0  0  0
  3  8  2  0  0  0  0
  3 16  1  0  0  0  0
  4  9  1  0  0  0  0
  4 16  2  0  0  0  0
  5 18  1  0  0  0  0
  6 20  1  0  0  0  0
  7 10  2  0  0  0  0
  7 19  1  0  0  0  0
  8 22  1  0  0  0  0
  9 22  2  0  0  0  0
 10 23  1  0  0  0  0
 11 12  2  0  0  0  0
 11 24  1  0  0  0  0
 12 25  1  0  0  0  0
 13 21  1  0  0  0  0
 13 23  2  0  0  0  0
 14 25  2  0  0  0  0
 14 26  1  0  0  0  0
 15 27  1  0  0  0  0
 15 62  2  0  0  0  0
 16 28  1  0  0  0  0
 17 28  1  0  0  0  0
 17 30  2  0  0  0  0
 17 32  1  0  0  0  0
 18 20  2  0  0  0  0
 18 37  1  0  0  0  0
 19 21  2  0  0  0  0
 19 38  1  0  0  0  0
 20 46  1  0  0  0  0
 21 39  1  0  0  0  0
 22 80  1  0  0  0  0
 23 81  1  0  0  0  0
 24 26  2  0  0  0  0
 24 80  1  0  0  0  0
 25 82  1  0  0  0  0
 26 83  1  0  0  0  0
 27 29  2  0  0  0  0
 27 84  1  0  0  0  0
 28 63  2  0  0  0  0
 29 64  1  0  0  0  0
 29 70  1  0  0  0  0
 30 65  1  0  0  0  0
 30 68  1  0  0  0  0
 31 62  1  0  0  0  0
 31 64  2  0  0  0  0
 31 71  1  0  0  0  0
 32 69  1  0  0  0  0
 32 75  2  0  0  0  0
 33 47  1  0  0  0  0
 33 72  1  0  0  0  0
 33 76  2  0  0  0  0
 34 57  1  0  0  0  0
 34 66  1  0  0  0  0
 34 77  2  0  0  0  0
 35 58  1  0  0  0  0
 35 73  1  0  0  0  0
 35 78  2  0  0  0  0
 36 67  1  0  0  0  0
 36 70  1  0  0  0  0
 36 79  2  0  0  0  0
 37 40  1  0  0  0  0
 38 47  1  0  0  0  0
 39 66  1  0  0  0  0
 40 42  1  0  0  0  0
 41 43  1  0  0  0  0
 41 44  1  0  0  0  0
 42 46  1  0  0  0  0
 43 48  1  0  0  0  0
 44 67  1  0  0  0  0
 45 48  1  0  0  0  0
 45 67  1  0  0  0  0
 46 72  1  0  0  0  0
 47 66  1  0  0  0  0
 48 65  1  0  0  0  0
 49 58  1  0  0  0  0
 50 59  1  0  0  0  0
 51 60  1  0  0  0  0
 52 61  1  0  0  0  0
 53 61  1  0  0  0  0
 54 61  1  0  0  0  0
 55 74  1  0  0  0  0
 56 59  1  0  0  0  0
 56 60  1  0  0  0  0
 57 61  1  0  0  0  0
 57 73  1  0  0  0  0
 58 74  1  0  0  0  0
 59 71  1  0  0  0  0
 60 81  1  0  0  0  0
 63 65  1  0  0  0  0
M  CHG  1  74   1
M  ISO  4  36 100  60 101  70 100  81 101
M  END
> <Batch ID>
0188

> <Smiles>
CNC(C)C(=O)NC(C(=O)N1Cc2cc([101O:1][101CH:1](C)CC(C)Nc3ncc(F)c([100NH:0][100C:0](=O)N4CCCC(n5nc(-c6ccc(Oc7ccc(F)cc7F)cc6)c(C(N)=O)c5N)C4)n3)ccc2CC1C(=O)NC1CCCc2ccccc21)C(C)(C)C

> <Shape>
0.209

> <Color>
0.096

> <Negative vol penalty>
0.000

$$$$

  -OEChem-04052305153D

 83 91  0     1  0  0  0  0  0999 V2000
  -26.3597  -31.3375   12.9351 C   0  0  0  0  0  0  0  0  0  0  0  0
  -26.0061  -29.9941   13.0099 C   0  0  0  0  0  0  0  0  0  0  0  0
  -23.1698   -9.8101   19.8748 C   0  0  0  0  0  0  0  0  0  0  0  0
  -23.5290   -9.8862   22.2628 C   0  0  0  0  0  0  0  0  0  0  0  0
  -27.6547  -31.7357   13.2642 C   0  0  0  0  0  0  0  0  0  0  0  0
  -26.9477  -29.0478   13.4127 C   0  0  0  0  0  0  0  0  0  0  0  0
  -25.0709  -25.7414   16.7578 C   0  0  0  0  0  0  0  0  0  0  0  0
  -22.3915   -8.6628   20.0285 C   0  0  0  0  0  0  0  0  0  0  0  0
  -22.7506   -8.7390   22.4164 C   0  0  0  0  0  0  0  0  0  0  0  0
  -24.2665  -24.7179   16.2587 C   0  0  0  0  0  0  0  0  0  0  0  0
  -23.1239   -5.4028   22.0142 C   0  0  0  0  0  0  0  0  0  0  0  0
  -23.6060   -4.4006   22.8561 C   0  0  0  0  0  0  0  0  0  0  0  0
  -26.1391  -23.2011   16.3679 C   0  0  0  0  0  0  0  0  0  0  0  0
  -21.6398   -4.6198   24.2429 C   0  0  0  0  0  0  0  0  0  0  0  0
  -23.7386  -10.4218   20.9920 C   0  0  0  0  0  0  0  0  0  0  0  0
  -24.1020  -12.9432   20.8578 C   0  0  0  0  0  0  0  0  0  0  0  0
  -28.6100  -30.7950   13.6805 C   0  0  0  0  0  0  0  0  0  0  0  0
  -26.4206  -25.5048   17.0560 C   0  0  0  0  0  0  0  0  0  0  0  0
  -28.2571  -29.4336   13.7463 C   0  0  0  0  0  0  0  0  0  0  0  0
  -26.9579  -24.2226   16.8731 C   0  0  0  0  0  0  0  0  0  0  0  0
  -22.1819   -8.1273   21.2992 C   0  0  0  0  0  0  0  0  0  0  0  0
  -24.8013  -23.4482   16.0610 C   0  0  0  0  0  0  0  0  0  0  0  0
  -21.8998   -6.0136   22.2867 C   0  0  0  0  0  0  0  0  0  0  0  0
  -22.8639   -4.0090   23.9704 C   0  0  0  0  0  0  0  0  0  0  0  0
  -21.1578   -5.6221   23.4010 C   0  0  0  0  0  0  0  0  0  0  0  0
  -24.5432  -11.6065   20.8339 C   0  0  0  0  0  0  0  0  0  0  0  0
  -28.3504  -17.5944   16.6297 C   0  0  0  0  0  0  0  0  0  0  0  0
  -28.4657  -18.9460   16.3808 C   0  0  0  0  0  0  0  0  0  0  0  0
  -25.2419  -13.6845   20.6635 C   0  0  0  0  0  0  0  0  0  0  0  0
  -26.3994  -18.6610   15.7032 C   0  0  0  0  0  0  0  0  0  0  0  0
  -29.3255  -16.6366   17.1807 C   0  0  0  0  0  0  0  0  0  0  0  0
  -22.7801  -13.4678   21.0395 C   0  0  0  0  0  0  0  0  0  0  0  0
  -29.1876  -26.6449   15.9847 C   0  0  0  0  0  0  0  0  0  0  0  0
  -30.4138  -24.8451   18.3888 C   0  0  0  0  0  0  0  0  0  0  0  0
  -30.0446  -22.1855   20.4952 C   0  0  0  0  0  0  0  0  0  0  0  0
  -29.9969  -14.5477   17.8713 C   0  0  0  0  0  0  0  0  0  0  0  0
  -30.0107  -31.2669   13.9805 C   0  0  0  0  0  0  0  0  0  0  0  0
  -27.2680  -26.6127   17.6188 C   0  0  0  0  0  0  0  0  0  0  0  0
  -28.3956  -23.9117   17.1967 C   0  0  0  0  0  0  0  0  0  0  0  0
  -30.8425  -30.2503   14.7582 C   0  0  0  0  0  0  0  0  0  0  0  0
  -30.1099  -12.3378   20.7189 C   0  0  0  0  0  0  0  0  0  0  0  0
  -30.6984  -28.8613   14.1443 C   0  0  0  0  0  0  0  0  0  0  0  0
  -28.6350  -12.0337   20.9809 C   0  0  0  0  0  0  0  0  0  0  0  0
  -30.3936  -12.4919   19.2278 C   0  0  0  0  0  0  0  0  0  0  0  0
  -28.0570  -13.2108   18.8129 C   0  0  0  0  0  0  0  0  0  0  0  0
  -29.2435  -28.3805   14.2028 C   0  0  1  0  0  0  0  0  0  0  0  0
  -28.7619  -26.3908   17.4031 C   0  0  1  0  0  0  0  0  0  0  0  0
  -27.7271  -13.0796   20.3097 C   0  0  1  0  0  0  0  0  0  0  0  0
  -29.6619  -19.7780   16.6265 C   0  0  0  0  0  0  0  0  0  0  0  0
  -31.2307  -20.9409   22.3232 C   0  0  0  0  0  0  0  0  0  0  0  0
  -23.5560  -20.0961   13.7896 C   0  0  0  0  0  0  0  0  0  0  0  0
  -23.1695  -20.5527   16.7836 C   0  0  0  0  0  0  0  0  0  0  0  0
  -32.2377  -23.5448   16.3169 C   0  0  0  0  0  0  0  0  0  0  0  0
  -32.6875  -21.7139   17.9641 C   0  0  0  0  0  0  0  0  0  0  0  0
  -33.3413  -24.0606   18.5010 C   0  0  0  0  0  0  0  0  0  0  0  0
  -27.8964  -22.7695   22.4453 C   0  0  0  0  0  0  0  0  0  0  0  0
  -30.8955  -23.4203   18.5189 C   0  0  1  0  0  0  0  0  0  0  0  0
  -30.2459  -22.0520   21.9939 C   0  0  2  0  0  0  0  0  0  0  0  0
  -24.7174  -20.2498   14.7692 C   0  0  1  0  0  0  0  0  0  0  0  0
  -24.3363  -21.1173   15.9805 C   0  0  1  0  0  0  0  0  0  1  0  0
  -32.2639  -23.1909   17.8172 C   0  0  0  0  0  0  0  0  0  0  0  0
  -25.8605  -11.5018   20.6395 N   0  0  0  0  0  0  0  0  0  0  0  0
  -27.3480  -19.5593   15.8492 N   0  0  0  0  0  0  0  0  0  0  0  0
  -29.0332  -15.3885   17.3481 N   0  0  0  0  0  0  0  0  0  0  0  0
  -26.2569  -12.7820   20.5395 N   0  0  0  0  0  0  0  0  0  0  0  0
  -29.1854  -25.0298   17.7387 N   0  0  0  0  0  0  0  0  0  0  0  0
  -29.4899  -13.4687   18.6185 N   0  0  0  0  0  0  0  0  0  0  0  0
  -25.4649  -15.0138   20.5883 N   0  0  0  0  0  0  0  0  0  0  0  0
  -21.7234  -12.5663   21.2264 N   0  0  0  0  0  0  0  0  0  0  0  0
  -25.1410  -18.9317   15.1984 N   0  0  0  0  0  0  0  0  0  0  0  0
  -28.9154  -27.9232   15.5361 N   0  0  0  0  0  0  0  0  0  0  0  0
  -30.8981  -23.1191   19.9464 N   0  0  0  0  0  0  0  0  0  0  0  0
  -28.9510  -21.7465   22.6653 N   0  3  0  0  0  0  0  0  0  0  0  0
  -22.5406  -14.6989   21.0197 O   0  0  0  0  0  0  0  0  0  0  0  0
  -29.7246  -25.7481   15.3452 O   0  0  0  0  0  0  0  0  0  0  0  0
  -31.0987  -25.7598   18.8533 O   0  0  0  0  0  0  0  0  0  0  0  0
  -29.2159  -21.5247   19.8729 O   0  0  0  0  0  0  0  0  0  0  0  0
  -31.2090  -14.7046   17.7064 O   0  0  0  0  0  0  0  0  0  0  0  0
  -21.4222   -7.0080   21.4496 O   0  0  0  0  0  0  0  0  0  0  0  0
  -24.0185  -22.4476   15.5733 O   0  0  0  0  0  0  0  0  0  1  0  0
  -23.3262   -3.0455   24.7778 F   0  0  0  0  0  0  0  0  0  0  0  0
  -19.9805   -6.2043   23.6673 F   0  0  0  0  0  0  0  0  0  0  0  0
  -26.7826  -17.0593   16.1856 S   0  0  0  0  0  0  0  0  0  0  0  0
  1  2  1  0  0  0  0
  1  5  2  0  0  0  0
  2  6  2  0  0  0  0
  3  8  2  0  0  0  0
  3 15  1  0  0  0  0
  4  9  1  0  0  0  0
  4 15  2  0  0  0  0
  5 17  1  0  0  0  0
  6 19  1  0  0  0  0
  7 10  2  0  0  0  0
  7 18  1  0  0  0  0
  8 21  1  0  0  0  0
  9 21  2  0  0  0  0
 10 22  1  0  0  0  0
 11 12  2  0  0  0  0
 11 23  1  0  0  0  0
 12 24  1  0  0  0  0
 13 20  1  0  0  0  0
 13 22  2  0  0  0  0
 14 24  2  0  0  0  0
 14 25  1  0  0  0  0
 15 26  1  0  0  0  0
 16 26  1  0  0  0  0
 16 29  2  0  0  0  0
 16 32  1  0  0  0  0
 17 19  2  0  0  0  0
 17 37  1  0  0  0  0
 18 20  2  0  0  0  0
 18 38  1  0  0  0  0
 19 46  1  0  0  0  0
 20 39  1  0  0  0  0
 21 79  1  0  0  0  0
 22 80  1  0  0  0  0
 23 25  2  0  0  0  0
 23 79  1  0  0  0  0
 24 81  1  0  0  0  0
 25 82  1  0  0  0  0
 26 62  2  0  0  0  0
 27 28  2  0  0  0  0
 27 31  1  0  0  0  0
 27 83  1  0  0  0  0
 28 49  1  0  0  0  0
 28 63  1  0  0  0  0
 29 65  1  0  0  0  0
 29 68  1  0  0  0  0
 30 63  2  0  0  0  0
 30 70  1  0  0  0  0
 30 83  1  0  0  0  0
 31 64  2  0  0  0  0
 32 69  1  0  0  0  0
 32 74  2  0  0  0  0
 33 47  1  0  0  0  0
 33 71  1  0  0  0  0
 33 75  2  0  0  0  0
 34 57  1  0  0  0  0
 34 66  1  0  0  0  0
 34 76  2  0  0  0  0
 35 58  1  0  0  0  0
 35 72  1  0  0  0  0
 35 77  2  0  0  0  0
 36 64  1  0  0  0  0
 36 67  1  0  0  0  0
 36 78  2  0  0  0  0
 37 40  1  0  0  0  0
 38 47  1  0  0  0  0
 39 66  1  0  0  0  0
 40 42  1  0  0  0  0
 41 43  1  0  0  0  0
 41 44  1  0  0  0  0
 42 46  1  0  0  0  0
 43 48  1  0  0  0  0
 44 67  1  0  0  0  0
 45 48  1  0  0  0  0
 45 67  1  0  0  0  0
 46 71  1  0  0  0  0
 47 66  1  0  0  0  0
 48 65  1  0  0  0  0
 50 58  1  0  0  0  0
 51 59  1  0  0  0  0
 52 60  1  0  0  0  0
 53 61  1  0  0  0  0
 54 61  1  0  0  0  0
 55 61  1  0  0  0  0
 56 73  1  0  0  0  0
 57 61  1  0  0  0  0
 57 72  1  0  0  0  0
 58 73  1  0  0  0  0
 59 60  1  0  0  0  0
 59 70  1  0  0  0  0
 60 80  1  0  0  0  0
 62 65  1  0  0  0  0
M  CHG  1  73   1
M  ISO  4  36 100  60 101  64 100  80 101
M  END
> <Batch ID>
0188

> <Smiles>
CNC(C)C(=O)NC(C(=O)N1Cc2cc([101O:1][101CH:1](C)C(C)Nc3nc(C)c(C=[100N:0][100C:0](=O)N4CCCC(n5nc(-c6ccc(Oc7ccc(F)cc7F)cc6)c(C(N)=O)c5N)C4)s3)ccc2CC1C(=O)NC1CCCc2ccccc21)C(C)(C)C

> <Shape>
0.203

> <Color>
0.194

> <Negative vol penalty>
0.000

$$$$

  -OEChem-04052305153D

 85 93  0     1  0  0  0  0  0999 V2000
  -34.0213  -27.9278   25.2209 C   0  0  0  0  0  0  0  0  0  0  0  0
  -33.8712  -26.5657   25.4607 C   0  0  0  0  0  0  0  0  0  0  0  0
  -23.1651   -9.8270   19.9743 C   0  0  0  0  0  0  0  0  0  0  0  0
  -23.5281  -10.0868   22.3487 C   0  0  0  0  0  0  0  0  0  0  0  0
  -33.0469  -28.6196   24.5026 C   0  0  0  0  0  0  0  0  0  0  0  0
  -32.7459  -25.8947   24.9831 C   0  0  0  0  0  0  0  0  0  0  0  0
  -33.8973  -21.4574   22.8316 C   0  0  0  0  0  0  0  0  0  0  0  0
  -22.3678   -8.7089   20.2184 C   0  0  0  0  0  0  0  0  0  0  0  0
  -22.7308   -8.9686   22.5929 C   0  0  0  0  0  0  0  0  0  0  0  0
  -34.1650  -20.3870   23.6839 C   0  0  0  0  0  0  0  0  0  0  0  0
  -23.0476   -5.6053   22.4574 C   0  0  0  0  0  0  0  0  0  0  0  0
  -23.5136   -4.6652   23.3764 C   0  0  0  0  0  0  0  0  0  0  0  0
  -31.9276  -19.5560   23.3330 C   0  0  0  0  0  0  0  0  0  0  0  0
  -21.5529   -5.0270   24.7409 C   0  0  0  0  0  0  0  0  0  0  0  0
  -23.7453  -10.5160   21.0394 C   0  0  0  0  0  0  0  0  0  0  0  0
  -24.1509  -13.0122   20.7052 C   0  0  0  0  0  0  0  0  0  0  0  0
  -31.9139  -27.9548   24.0078 C   0  0  0  0  0  0  0  0  0  0  0  0
  -32.6371  -21.5913   22.2312 C   0  0  0  0  0  0  0  0  0  0  0  0
  -31.7548  -26.5785   24.2587 C   0  0  0  0  0  0  0  0  0  0  0  0
  -31.6474  -20.6276   22.4716 C   0  0  0  0  0  0  0  0  0  0  0  0
  -22.1506   -8.2797   21.5277 C   0  0  0  0  0  0  0  0  0  0  0  0
  -33.1792  -19.4377   23.9370 C   0  0  0  0  0  0  0  0  0  0  0  0
  -21.8342   -6.2563   22.6801 C   0  0  0  0  0  0  0  0  0  0  0  0
  -22.7663   -4.3760   24.5182 C   0  0  0  0  0  0  0  0  0  0  0  0
  -21.0868   -5.9671   23.8218 C   0  0  0  0  0  0  0  0  0  0  0  0
  -24.5695  -11.6707   20.7878 C   0  0  0  0  0  0  0  0  0  0  0  0
  -32.9334  -13.5799   25.4654 C   0  0  0  0  0  0  0  0  0  0  0  0
  -25.3027  -13.7165   20.4529 C   0  0  0  0  0  0  0  0  0  0  0  0
  -31.8964  -13.4571   26.3663 C   0  0  0  0  0  0  0  0  0  0  0  0
  -31.3405  -13.0303   24.0617 C   0  0  0  0  0  0  0  0  0  0  0  0
  -22.8381  -13.5718   20.8442 C   0  0  0  0  0  0  0  0  0  0  0  0
  -30.3219  -23.7666   22.3370 C   0  0  0  0  0  0  0  0  0  0  0  0
  -29.0092  -21.9148   20.0197 C   0  0  0  0  0  0  0  0  0  0  0  0
  -28.7835  -18.8456   18.5447 C   0  0  0  0  0  0  0  0  0  0  0  0
  -31.0716  -12.6482   21.5862 C   0  0  0  0  0  0  0  0  0  0  0  0
  -30.8643  -28.7545   23.2774 C   0  0  0  0  0  0  0  0  0  0  0  0
  -32.3729  -22.7372   21.2933 C   0  0  0  0  0  0  0  0  0  0  0  0
  -30.2847  -20.7148   21.8358 C   0  0  0  0  0  0  0  0  0  0  0  0
  -29.8852  -27.8933   22.4836 C   0  0  0  0  0  0  0  0  0  0  0  0
  -29.6035  -13.2497   18.3987 C   0  0  0  0  0  0  0  0  0  0  0  0
  -29.3961  -26.7227   23.3305 C   0  0  0  0  0  0  0  0  0  0  0  0
  -28.1073  -13.0411   18.6435 C   0  0  0  0  0  0  0  0  0  0  0  0
  -30.4525  -12.2719   19.2092 C   0  0  0  0  0  0  0  0  0  0  0  0
  -28.6705  -12.0389   20.8942 C   0  0  0  0  0  0  0  0  0  0  0  0
  -30.5603  -25.8106   23.7357 C   0  0  1  0  0  0  0  0  0  0  0  0
  -30.8885  -23.0548   21.1413 C   0  0  1  0  0  0  0  0  0  0  0  0
  -27.7768  -13.0437   20.1490 C   0  0  2  0  0  0  0  0  0  0  0  0
  -27.5989  -17.6309   16.6957 C   0  0  0  0  0  0  0  0  0  0  0  0
  -26.4789  -21.7979   21.7210 C   0  0  0  0  0  0  0  0  0  0  0  0
  -25.7189  -19.8579   20.3328 C   0  0  0  0  0  0  0  0  0  0  0  0
  -26.0755  -22.0862   19.2697 C   0  0  0  0  0  0  0  0  0  0  0  0
  -32.9183  -18.3436   27.8437 C   0  0  0  0  0  0  0  0  0  0  0  0
  -35.3184  -17.6651   27.9375 C   0  0  0  0  0  0  0  0  0  0  0  0
  -31.3268  -18.2330   17.1607 C   0  0  0  0  0  0  0  0  0  0  0  0
  -34.3586  -13.9498   25.8032 C   0  0  0  0  0  0  0  0  0  0  0  0
  -33.6336  -16.2710   26.6359 C   0  0  0  0  0  0  0  0  0  0  0  0
  -34.3787  -18.6145   25.8184 C   0  0  0  0  0  0  0  0  0  1  0  0
  -28.0781  -20.7267   20.0001 C   0  0  1  0  0  0  0  0  0  0  0  0
  -28.8372  -18.4217   17.0880 C   0  0  2  0  0  0  0  0  0  0  0  0
  -34.6201  -15.4655   25.7650 C   0  0  2  0  0  0  0  0  0  0  0  0
  -26.6128  -21.1163   20.3446 C   0  0  0  0  0  0  0  0  0  0  0  0
  -34.0726  -17.7143   27.0311 C   0  0  0  0  0  0  0  0  0  0  0  0
  -25.8847  -11.5287   20.6028 N   0  0  0  0  0  0  0  0  0  0  0  0
  -32.6166  -13.3351   24.1435 N   0  0  0  0  0  0  0  0  0  0  0  0
  -26.3023  -12.7901   20.4014 N   0  0  0  0  0  0  0  0  0  0  0  0
  -30.0729  -21.8569   20.9313 N   0  0  0  0  0  0  0  0  0  0  0  0
  -30.0870  -12.3327   20.6261 N   0  0  0  0  0  0  0  0  0  0  0  0
  -25.5479  -15.0317   20.2723 N   0  0  0  0  0  0  0  0  0  0  0  0
  -21.7666  -12.7059   21.1019 N   0  0  0  0  0  0  0  0  0  0  0  0
  -30.6000  -12.7089   22.8971 N   0  0  0  0  0  0  0  0  0  0  0  0
  -30.9480  -24.9636   22.6281 N   0  0  0  0  0  0  0  0  0  0  0  0
  -28.2387  -20.1038   18.6907 N   0  0  0  0  0  0  0  0  0  0  0  0
  -34.4570  -15.8926   24.3380 N   0  3  0  0  0  0  0  0  0  0  0  0
  -30.0358  -17.5716   16.8398 N   0  3  0  0  0  0  0  0  0  0  0  0
  -22.6192  -14.8013   20.7265 O   0  0  0  0  0  0  0  0  0  0  0  0
  -29.3849  -23.2677   22.9493 O   0  0  0  0  0  0  0  0  0  0  0  0
  -28.8045  -22.8563   19.2494 O   0  0  0  0  0  0  0  0  0  0  0  0
  -29.1814  -18.1305   19.4616 O   0  0  0  0  0  0  0  0  0  0  0  0
  -32.2409  -12.8764   21.2658 O   0  0  0  0  0  0  0  0  0  0  0  0
  -21.3725   -7.1888   21.7664 O   0  0  0  0  0  0  0  0  0  0  0  0
  -33.4376  -18.3922   24.7689 O   0  0  0  0  0  0  0  0  0  1  0  0
  -23.2132   -3.4721   25.3998 F   0  0  0  0  0  0  0  0  0  0  0  0
  -19.9198   -6.5884   24.0406 F   0  0  0  0  0  0  0  0  0  0  0  0
  -31.9900  -13.6507   27.6844 F   0  0  0  0  0  0  0  0  0  0  0  0
  -30.4613  -13.0196   25.5354 S   0  0  0  0  0  0  0  0  0  0  0  0
  1  2  1  0  0  0  0
  1  5  2  0  0  0  0
  2  6  2  0  0  0  0
  3  8  2  0  0  0  0
  3 15  1  0  0  0  0
  4  9  1  0  0  0  0
  4 15  2  0  0  0  0
  5 17  1  0  0  0  0
  6 19  1  0  0  0  0
  7 10  2  0  0  0  0
  7 18  1  0  0  0  0
  8 21  1  0  0  0  0
  9 21  2  0  0  0  0
 10 22  1  0  0  0  0
 11 12  2  0  0  0  0
 11 23  1  0  0  0  0
 12 24  1  0  0  0  0
 13 20  1  0  0  0  0
 13 22  2  0  0  0  0
 14 24  2  0  0  0  0
 14 25  1  0  0  0  0
 15 26  1  0  0  0  0
 16 26  1  0  0  0  0
 16 28  2  0  0  0  0
 16 31  1  0  0  0  0
 17 19  2  0  0  0  0
 17 36  1  0  0  0  0
 18 20  2  0  0  0  0
 18 37  1  0  0  0  0
 19 45  1  0  0  0  0
 20 38  1  0  0  0  0
 21 80  1  0  0  0  0
 22 81  1  0  0  0  0
 23 25  2  0  0  0  0
 23 80  1  0  0  0  0
 24 82  1  0  0  0  0
 25 83  1  0  0  0  0
 26 63  2  0  0  0  0
 27 29  2  0  0  0  0
 27 55  1  0  0  0  0
 27 64  1  0  0  0  0
 28 65  1  0  0  0  0
 28 68  1  0  0  0  0
 29 84  1  0  0  0  0
 29 85  1  0  0  0  0
 30 64  2  0  0  0  0
 30 70  1  0  0  0  0
 30 85  1  0  0  0  0
 31 69  1  0  0  0  0
 31 75  2  0  0  0  0
 32 46  1  0  0  0  0
 32 71  1  0  0  0  0
 32 76  2  0  0  0  0
 33 58  1  0  0  0  0
 33 66  1  0  0  0  0
 33 77  2  0  0  0  0
 34 59  1  0  0  0  0
 34 72  1  0  0  0  0
 34 78  2  0  0  0  0
 35 67  1  0  0  0  0
 35 70  1  0  0  0  0
 35 79  2  0  0  0  0
 36 39  1  0  0  0  0
 37 46  1  0  0  0  0
 38 66  1  0  0  0  0
 39 41  1  0  0  0  0
 40 42  1  0  0  0  0
 40 43  1  0  0  0  0
 41 45  1  0  0  0  0
 42 47  1  0  0  0  0
 43 67  1  0  0  0  0
 44 47  1  0  0  0  0
 44 67  1  0  0  0  0
 45 71  1  0  0  0  0
 46 66  1  0  0  0  0
 47 65  1  0  0  0  0
 48 59  1  0  0  0  0
 49 61  1  0  0  0  0
 50 61  1  0  0  0  0
 51 61  1  0  0  0  0
 52 62  1  0  0  0  0
 53 62  1  0  0  0  0
 54 74  1  0  0  0  0
 55 60  1  0  0  0  0
 56 60  1  0  0  0  0
 56 62  1  0  0  0  0
 57 62  1  0  0  0  0
 57 81  1  0  0  0  0
 58 61  1  0  0  0  0
 58 72  1  0  0  0  0
 59 74  1  0  0  0  0
 60 73  1  0  0  0  0
 63 65  1  0  0  0  0
M  CHG  2  73   1  74   1
M  ISO  4  35 100  57 101  70 100  81 101
M  END
> <Batch ID>
0188

> <Smiles>
CNC(C)C(=O)NC(C(=O)N1Cc2cc([101O:1][101CH2:1]C(C)(C)CC(N)Cc3nc([100NH:0][100C:0](=O)N4CCCC(n5nc(-c6ccc(Oc7ccc(F)cc7F)cc6)c(C(N)=O)c5N)C4)sc3F)ccc2CC1C(=O)NC1CCCc2ccccc21)C(C)(C)C

> <Shape>
0.204

> <Color>
0.194

> <Negative vol penalty>
0.000

$$$$

  -OEChem-04052305153D

 86 94  0     1  0  0  0  0  0999 V2000
  -27.8286  -10.2032   21.3021 C   0  0  0  0  0  0  0  0  0  0  0  0
  -28.4868  -11.3813   20.9639 C   0  0  0  0  0  0  0  0  0  0  0  0
  -23.1759  -26.8207   22.4212 C   0  0  0  0  0  0  0  0  0  0  0  0
  -22.1440  -28.1817   20.7124 C   0  0  0  0  0  0  0  0  0  0  0  0
  -26.4362  -10.1469   21.2592 C   0  0  0  0  0  0  0  0  0  0  0  0
  -27.7527  -12.5035   20.5814 C   0  0  0  0  0  0  0  0  0  0  0  0
  -29.1227  -18.3626   21.7216 C   0  0  0  0  0  0  0  0  0  0  0  0
  -21.9393  -26.6710   23.0488 C   0  0  0  0  0  0  0  0  0  0  0  0
  -20.9073  -28.0320   21.3401 C   0  0  0  0  0  0  0  0  0  0  0  0
  -29.7313  -19.3511   20.9493 C   0  0  0  0  0  0  0  0  0  0  0  0
  -19.2876  -29.3490   23.9995 C   0  0  0  0  0  0  0  0  0  0  0  0
  -18.4958  -30.4872   24.1512 C   0  0  0  0  0  0  0  0  0  0  0  0
  -27.5583  -20.1745   20.3018 C   0  0  0  0  0  0  0  0  0  0  0  0
  -16.7510  -29.4479   22.8426 C   0  0  0  0  0  0  0  0  0  0  0  0
  -33.8585  -26.0053   19.2868 C   0  0  0  0  0  0  0  0  0  0  0  0
  -23.2783  -27.5761   21.2530 C   0  0  0  0  0  0  0  0  0  0  0  0
  -25.1103  -26.9040   19.6100 C   0  0  0  0  0  0  0  0  0  0  0  0
  -25.6844  -11.2719   20.8853 C   0  0  0  0  0  0  0  0  0  0  0  0
  -27.7251  -18.2658   21.7812 C   0  0  0  0  0  0  0  0  0  0  0  0
  -26.3490  -12.4618   20.5321 C   0  0  0  0  0  0  0  0  0  0  0  0
  -26.9344  -19.1855   21.0776 C   0  0  0  0  0  0  0  0  0  0  0  0
  -20.8050  -27.2766   22.5083 C   0  0  0  0  0  0  0  0  0  0  0  0
  -28.9490  -20.2554   20.2369 C   0  0  0  0  0  0  0  0  0  0  0  0
  -18.8111  -28.2602   23.2693 C   0  0  0  0  0  0  0  0  0  0  0  0
  -17.2275  -30.5367   23.5728 C   0  0  0  0  0  0  0  0  0  0  0  0
  -17.5428  -28.3096   22.6909 C   0  0  0  0  0  0  0  0  0  0  0  0
  -24.5556  -27.7316   20.6045 C   0  0  0  0  0  0  0  0  0  0  0  0
  -32.7063  -26.6242   19.7246 C   0  0  0  0  0  0  0  0  0  0  0  0
  -26.3275  -27.4745   19.3281 C   0  0  0  0  0  0  0  0  0  0  0  0
  -31.9177  -24.5920   19.4833 C   0  0  0  0  0  0  0  0  0  0  0  0
  -24.5734  -25.7249   18.9958 C   0  0  0  0  0  0  0  0  0  0  0  0
  -32.6234  -28.0672   20.0676 C   0  0  0  0  0  0  0  0  0  0  0  0
  -25.5933  -16.0522   20.9692 C   0  0  0  0  0  0  0  0  0  0  0  0
  -29.5747  -23.7033   21.3862 C   0  0  0  0  0  0  0  0  0  0  0  0
  -23.5108  -18.0948   22.3881 C   0  0  0  0  0  0  0  0  0  0  0  0
  -22.7879  -21.2867   23.3556 C   0  0  0  0  0  0  0  0  0  0  0  0
  -31.0923  -29.8220   20.9045 C   0  0  0  0  0  0  0  0  0  0  0  0
  -24.1832  -11.1488   20.8081 C   0  0  0  0  0  0  0  0  0  0  0  0
  -27.0840  -17.2105   22.6402 C   0  0  0  0  0  0  0  0  0  0  0  0
  -25.4298  -19.1369   21.1245 C   0  0  0  0  0  0  0  0  0  0  0  0
  -23.4637  -12.4941   20.7537 C   0  0  0  0  0  0  0  0  0  0  0  0
  -28.2720  -31.9439   20.7054 C   0  0  0  0  0  0  0  0  0  0  0  0
  -24.1338  -13.4172   19.7409 C   0  0  0  0  0  0  0  0  0  0  0  0
  -27.0971  -30.9714   20.5713 C   0  0  0  0  0  0  0  0  0  0  0  0
  -29.3440  -31.4112   21.6551 C   0  0  0  0  0  0  0  0  0  0  0  0
  -28.6513  -29.0891   21.2238 C   0  0  0  0  0  0  0  0  0  0  0  0
  -25.5867  -13.7077   20.1361 C   0  0  1  0  0  0  0  0  0  0  0  0
  -25.6545  -16.8843   22.2188 C   0  0  1  0  0  0  0  0  0  0  0  0
  -27.5777  -29.5481   20.2238 C   0  0  1  0  0  0  0  0  0  0  0  0
  -28.4740  -24.5982   23.4804 C   0  0  0  0  0  0  0  0  0  0  0  0
  -20.9944  -22.6526   24.4579 C   0  0  0  0  0  0  0  0  0  0  0  0
  -28.4930  -22.6052   17.8456 C   0  0  0  0  0  0  0  0  0  0  0  0
  -21.8679  -18.0068   19.8184 C   0  0  0  0  0  0  0  0  0  0  0  0
  -20.6635  -20.0576   20.6006 C   0  0  0  0  0  0  0  0  0  0  0  0
  -20.5175  -17.9472   21.9226 C   0  0  0  0  0  0  0  0  0  0  0  0
  -24.5855  -22.0708   25.5721 C   0  0  0  0  0  0  0  0  0  0  0  0
  -28.4532  -24.5544   21.9628 C   0  0  0  0  0  0  0  0  0  0  0  0
  -29.6479  -23.6284   19.8639 C   0  0  2  0  0  0  0  0  0  0  0  0
  -22.6759  -19.2638   21.9239 C   0  0  1  0  0  0  0  0  0  0  0  0
  -22.2683  -21.8486   24.6666 C   0  0  2  0  0  0  0  0  0  0  0  0
  -28.8298  -22.4481   19.3238 C   0  0  2  0  0  0  0  0  0  1  0  0
  -21.4595  -18.8188   21.0638 C   0  0  0  0  0  0  0  0  0  0  0  0
  -25.3548  -28.7502   20.9325 N   0  0  0  0  0  0  0  0  0  0  0  0
  -31.5923  -25.8154   19.8375 N   0  0  0  0  0  0  0  0  0  0  0  0
  -26.4242  -28.5664   20.1396 N   0  0  0  0  0  0  0  0  0  0  0  0
  -24.8501  -18.0830   21.9734 N   0  0  0  0  0  0  0  0  0  0  0  0
  -29.7519  -30.0642   21.2521 N   0  0  0  0  0  0  0  0  0  0  0  0
  -27.3139  -27.1436   18.4679 N   0  0  0  0  0  0  0  0  0  0  0  0
  -23.3096  -25.2761   19.4026 N   0  0  0  0  0  0  0  0  0  0  0  0
  -31.0393  -23.5234   19.4766 N   0  0  0  0  0  0  0  0  0  0  0  0
  -31.3720  -28.5141   20.4929 N   0  0  0  0  0  0  0  0  0  0  0  0
  -25.6350  -14.6900   21.1978 N   0  0  0  0  0  0  0  0  0  0  0  0
  -22.3173  -20.0114   23.1243 N   0  0  0  0  0  0  0  0  0  0  0  0
  -23.2888  -22.7383   25.2895 N   0  3  0  0  0  0  0  0  0  0  0  0
  -25.2030  -25.0789   18.1241 O   0  0  0  0  0  0  0  0  0  0  0  0
  -33.6367  -28.7574   19.9990 O   0  0  0  0  0  0  0  0  0  0  0  0
  -25.5127  -16.6050   19.8786 O   0  0  0  0  0  0  0  0  0  0  0  0
  -30.3662  -23.0937   22.1060 O   0  0  0  0  0  0  0  0  0  0  0  0
  -22.9955  -17.2279   23.0985 O   0  0  0  0  0  0  0  0  0  0  0  0
  -23.5335  -21.9175   22.6094 O   0  0  0  0  0  0  0  0  0  0  0  0
  -31.9578  -30.7029   20.9223 O   0  0  0  0  0  0  0  0  0  0  0  0
  -19.5981  -27.1305   23.1203 O   0  0  0  0  0  0  0  0  0  0  0  0
  -29.5404  -21.2207   19.4818 O   0  0  0  0  0  0  0  0  0  1  0  0
  -16.4666  -31.6292   23.7198 F   0  0  0  0  0  0  0  0  0  0  0  0
  -17.0792  -27.2662   21.9893 F   0  0  0  0  0  0  0  0  0  0  0  0
  -33.5465  -24.3428   19.0038 S   0  0  0  0  0  0  0  0  0  0  0  0
  1  2  1  0  0  0  0
  1  5  2  0  0  0  0
  2  6  2  0  0  0  0
  3  8  2  0  0  0  0
  3 16  1  0  0  0  0
  4  9  1  0  0  0  0
  4 16  2  0  0  0  0
  5 18  1  0  0  0  0
  6 20  1  0  0  0  0
  7 10  2  0  0  0  0
  7 19  1  0  0  0  0
  8 22  1  0  0  0  0
  9 22  2  0  0  0  0
 10 23  1  0  0  0  0
 11 12  2  0  0  0  0
 11 24  1  0  0  0  0
 12 25  1  0  0  0  0
 13 21  1  0  0  0  0
 13 23  2  0  0  0  0
 14 25  2  0  0  0  0
 14 26  1  0  0  0  0
 15 28  2  0  0  0  0
 15 86  1  0  0  0  0
 16 27  1  0  0  0  0
 17 27  1  0  0  0  0
 17 29  2  0  0  0  0
 17 31  1  0  0  0  0
 18 20  2  0  0  0  0
 18 38  1  0  0  0  0
 19 21  2  0  0  0  0
 19 39  1  0  0  0  0
 20 47  1  0  0  0  0
 21 40  1  0  0  0  0
 22 82  1  0  0  0  0
 23 83  1  0  0  0  0
 24 26  2  0  0  0  0
 24 82  1  0  0  0  0
 25 84  1  0  0  0  0
 26 85  1  0  0  0  0
 27 63  2  0  0  0  0
 28 32  1  0  0  0  0
 28 64  1  0  0  0  0
 29 65  1  0  0  0  0
 29 68  1  0  0  0  0
 30 64  2  0  0  0  0
 30 70  1  0  0  0  0
 30 86  1  0  0  0  0
 31 69  1  0  0  0  0
 31 75  2  0  0  0  0
 32 71  1  0  0  0  0
 32 76  2  0  0  0  0
 33 48  1  0  0  0  0
 33 72  1  0  0  0  0
 33 77  2  0  0  0  0
 34 57  1  0  0  0  0
 34 58  1  0  0  0  0
 34 78  2  0  0  0  0
 35 59  1  0  0  0  0
 35 66  1  0  0  0  0
 35 79  2  0  0  0  0
 36 60  1  0  0  0  0
 36 73  1  0  0  0  0
 36 80  2  0  0  0  0
 37 67  1  0  0  0  0
 37 71  1  0  0  0  0
 37 81  2  0  0  0  0
 38 41  1  0  0  0  0
 39 48  1  0  0  0  0
 40 66  1  0  0  0  0
 41 43  1  0  0  0  0
 42 44  1  0  0  0  0
 42 45  1  0  0  0  0
 43 47  1  0  0  0  0
 44 49  1  0  0  0  0
 45 67  1  0  0  0  0
 46 49  1  0  0  0  0
 46 67  1  0  0  0  0
 47 72  1  0  0  0  0
 48 66  1  0  0  0  0
 49 65  1  0  0  0  0
 50 57  1  0  0  0  0
 51 60  1  0  0  0  0
 52 61  1  0  0  0  0
 53 62  1  0  0  0  0
 54 62  1  0  0  0  0
 55 62  1  0  0  0  0
 56 74  1  0  0  0  0
 58 61  1  0  0  0  0
 58 70  1  0  0  0  0
 59 62  1  0  0  0  0
 59 73  1  0  0  0  0
 60 74  1  0  0  0  0
 61 83  1  0  0  0  0
 63 65  1  0  0  0  0
M  CHG  1  74   1
M  ISO  4  37 100  61 101  71 100  83 101
M  END
> <Batch ID>
0188

> <Smiles>
CCC(=O)C(Nc1nc(C(=O)[100NH:0][100C:0](=O)N2CCCC(n3nc(-c4ccc(Oc5ccc(F)cc5F)cc4)c(C(N)=O)c3N)C2)cs1)[101CH:1](C)[101O:1]c1ccc2c(c1)CN(C(=O)C(NC(=O)C(C)NC)C(C)(C)C)C(C(=O)NC1CCCc3ccccc31)C2

> <Shape>
0.236

> <Color>
0.068

> <Negative vol penalty>
0.000

$$$$

  -OEChem-04052305153D

 84 92  0     1  0  0  0  0  0999 V2000
  -30.4014  -27.1603   10.8132 C   0  0  0  0  0  0  0  0  0  0  0  0
  -31.0410  -26.1734   11.5565 C   0  0  0  0  0  0  0  0  0  0  0  0
  -23.0049   -9.8858   19.9746 C   0  0  0  0  0  0  0  0  0  0  0  0
  -23.7333   -9.9279   22.2779 C   0  0  0  0  0  0  0  0  0  0  0  0
  -30.2330  -28.4361   11.3496 C   0  0  0  0  0  0  0  0  0  0  0  0
  -31.5136  -26.4622   12.8362 C   0  0  0  0  0  0  0  0  0  0  0  0
  -31.6767  -22.6708   17.6430 C   0  0  0  0  0  0  0  0  0  0  0  0
  -22.2416   -8.7482   20.2368 C   0  0  0  0  0  0  0  0  0  0  0  0
  -22.9698   -8.7903   22.5400 C   0  0  0  0  0  0  0  0  0  0  0  0
  -32.6965  -21.8936   18.1904 C   0  0  0  0  0  0  0  0  0  0  0  0
  -23.2216   -5.4542   22.0523 C   0  0  0  0  0  0  0  0  0  0  0  0
  -23.8126   -4.4350   22.7989 C   0  0  0  0  0  0  0  0  0  0  0  0
  -33.1653  -23.6423   19.7845 C   0  0  0  0  0  0  0  0  0  0  0  0
  -31.8081  -17.4832   21.7119 C   0  0  0  0  0  0  0  0  0  0  0  0
  -22.0906   -4.6659   24.4777 C   0  0  0  0  0  0  0  0  0  0  0  0
  -23.7509  -10.4756   20.9952 C   0  0  0  0  0  0  0  0  0  0  0  0
  -24.1298  -12.9929   20.8302 C   0  0  0  0  0  0  0  0  0  0  0  0
  -30.6951  -28.7380   12.6403 C   0  0  0  0  0  0  0  0  0  0  0  0
  -31.4003  -23.9463   18.1561 C   0  0  0  0  0  0  0  0  0  0  0  0
  -31.3523  -27.7437   13.3898 C   0  0  0  0  0  0  0  0  0  0  0  0
  -32.1398  -24.4327   19.2435 C   0  0  0  0  0  0  0  0  0  0  0  0
  -31.9050  -18.7538   22.3493 C   0  0  0  0  0  0  0  0  0  0  0  0
  -22.2240   -8.2005   21.5195 C   0  0  0  0  0  0  0  0  0  0  0  0
  -33.4429  -22.3804   19.2594 C   0  0  0  0  0  0  0  0  0  0  0  0
  -22.0650   -6.0794   22.5184 C   0  0  0  0  0  0  0  0  0  0  0  0
  -23.2471   -4.0408   24.0115 C   0  0  0  0  0  0  0  0  0  0  0  0
  -21.4995   -5.6852   23.7311 C   0  0  0  0  0  0  0  0  0  0  0  0
  -24.5401  -11.6504   20.7248 C   0  0  0  0  0  0  0  0  0  0  0  0
  -30.7524  -19.0809   23.0291 C   0  0  0  0  0  0  0  0  0  0  0  0
  -25.2373  -13.7199   20.4676 C   0  0  0  0  0  0  0  0  0  0  0  0
  -30.5851  -16.8874   21.9290 C   0  0  0  0  0  0  0  0  0  0  0  0
  -22.8611  -13.5345   21.2211 C   0  0  0  0  0  0  0  0  0  0  0  0
  -31.4777  -26.9003   16.9851 C   0  0  0  0  0  0  0  0  0  0  0  0
  -30.1739  -27.6554   19.8578 C   0  0  0  0  0  0  0  0  0  0  0  0
  -29.7150  -26.8315   23.1376 C   0  0  0  0  0  0  0  0  0  0  0  0
  -34.2500  -19.3517   21.6419 C   0  0  0  0  0  0  0  0  0  0  0  0
  -30.7148  -14.6931   20.6984 C   0  0  0  0  0  0  0  0  0  0  0  0
  -30.5321  -30.1447   13.1592 C   0  0  0  0  0  0  0  0  0  0  0  0
  -30.2793  -24.7613   17.5717 C   0  0  0  0  0  0  0  0  0  0  0  0
  -31.8694  -25.7872   19.8441 C   0  0  0  0  0  0  0  0  0  0  0  0
  -30.7287  -30.2639   14.6683 C   0  0  0  0  0  0  0  0  0  0  0  0
  -29.5991  -12.2484   18.3626 C   0  0  0  0  0  0  0  0  0  0  0  0
  -31.9792  -29.5073   15.1052 C   0  0  0  0  0  0  0  0  0  0  0  0
  -28.1497  -11.9853   18.7776 C   0  0  0  0  0  0  0  0  0  0  0  0
  -30.5008  -12.4883   19.5722 C   0  0  0  0  0  0  0  0  0  0  0  0
  -28.5854  -13.2663   20.9121 C   0  0  0  0  0  0  0  0  0  0  0  0
  -31.8567  -28.0113   14.7913 C   0  0  1  0  0  0  0  0  0  0  0  0
  -30.4240  -26.2560   17.8407 C   0  0  1  0  0  0  0  0  0  0  0  0
  -27.6265  -13.0832   19.7244 C   0  0  2  0  0  0  0  0  0  0  0  0
  -30.4463  -20.2985   23.8145 C   0  0  0  0  0  0  0  0  0  0  0  0
  -28.6363  -27.6631   25.2453 C   0  0  0  0  0  0  0  0  0  0  0  0
  -36.5731  -20.1423   21.0626 C   0  0  0  0  0  0  0  0  0  0  0  0
  -35.5756  -20.7385   23.3001 C   0  0  0  0  0  0  0  0  0  0  0  0
  -32.4208  -29.6908   20.2018 C   0  0  0  0  0  0  0  0  0  0  0  0
  -31.8637  -29.7896   22.6407 C   0  0  0  0  0  0  0  0  0  0  0  0
  -30.1698  -30.4860   20.9470 C   0  0  0  0  0  0  0  0  0  0  0  0
  -27.9614  -24.4541   23.3157 C   0  0  0  0  0  0  0  0  0  0  0  0
  -34.7162  -21.8037   21.1835 C   0  0  0  0  0  0  0  0  0  1  0  0
  -30.7199  -28.0327   21.2136 C   0  0  1  0  0  0  0  0  0  0  0  0
  -28.4686  -26.8011   24.0037 C   0  0  2  0  0  0  0  0  0  0  0  0
  -35.2767  -20.5040   21.8087 C   0  0  0  0  0  0  0  0  0  0  0  0
  -31.3002  -29.4750   21.2385 C   0  0  0  0  0  0  0  0  0  0  0  0
  -25.8091  -11.5288   20.3263 N   0  0  0  0  0  0  0  0  0  0  0  0
  -26.2058  -12.8043   20.1780 N   0  0  0  0  0  0  0  0  0  0  0  0
  -30.7672  -26.5489   19.2338 N   0  0  0  0  0  0  0  0  0  0  0  0
  -29.9444  -13.5440   20.4213 N   0  0  0  0  0  0  0  0  0  0  0  0
  -25.4674  -15.0466   20.3714 N   0  0  0  0  0  0  0  0  0  0  0  0
  -21.8319  -12.6462   21.5620 N   0  0  0  0  0  0  0  0  0  0  0  0
  -33.0459  -19.5916   22.2977 N   0  0  0  0  0  0  0  0  0  0  0  0
  -30.0694  -15.6430   21.4893 N   0  0  0  0  0  0  0  0  0  0  0  0
  -31.0115  -27.3577   15.7674 N   0  0  0  0  0  0  0  0  0  0  0  0
  -29.6384  -27.8073   22.1664 N   0  0  0  0  0  0  0  0  0  0  0  0
  -28.1726  -25.4061   24.4365 N   0  3  0  0  0  0  0  0  0  0  0  0
  -22.6414  -14.7691   21.2509 O   0  0  0  0  0  0  0  0  0  0  0  0
  -32.6283  -26.9782   17.3997 O   0  0  0  0  0  0  0  0  0  0  0  0
  -29.2500  -28.3138   19.3733 O   0  0  0  0  0  0  0  0  0  0  0  0
  -30.6634  -26.0686   23.3081 O   0  0  0  0  0  0  0  0  0  0  0  0
  -34.5270  -18.3447   20.9929 O   0  0  0  0  0  0  0  0  0  0  0  0
  -31.8525  -14.8369   20.2434 O   0  0  0  0  0  0  0  0  0  0  0  0
  -21.4790   -7.0906   21.7757 O   0  0  0  0  0  0  0  0  0  0  0  0
  -34.4393  -21.6241   19.7952 O   0  0  0  0  0  0  0  0  0  1  0  0
  -23.8140   -3.0610   24.7276 F   0  0  0  0  0  0  0  0  0  0  0  0
  -20.3878   -6.2813   24.1834 F   0  0  0  0  0  0  0  0  0  0  0  0
  -29.5601  -17.8588   22.8975 S   0  0  0  0  0  0  0  0  0  0  0  0
  1  2  1  0  0  0  0
  1  5  2  0  0  0  0
  2  6  2  0  0  0  0
  3  8  2  0  0  0  0
  3 16  1  0  0  0  0
  4  9  1  0  0  0  0
  4 16  2  0  0  0  0
  5 18  1  0  0  0  0
  6 20  1  0  0  0  0
  7 10  2  0  0  0  0
  7 19  1  0  0  0  0
  8 23  1  0  0  0  0
  9 23  2  0  0  0  0
 10 24  1  0  0  0  0
 11 12  2  0  0  0  0
 11 25  1  0  0  0  0
 12 26  1  0  0  0  0
 13 21  1  0  0  0  0
 13 24  2  0  0  0  0
 14 22  1  0  0  0  0
 14 31  2  0  0  0  0
 15 26  2  0  0  0  0
 15 27  1  0  0  0  0
 16 28  1  0  0  0  0
 17 28  1  0  0  0  0
 17 30  2  0  0  0  0
 17 32  1  0  0  0  0
 18 20  2  0  0  0  0
 18 38  1  0  0  0  0
 19 21  2  0  0  0  0
 19 39  1  0  0  0  0
 20 47  1  0  0  0  0
 21 40  1  0  0  0  0
 22 29  2  0  0  0  0
 22 69  1  0  0  0  0
 23 80  1  0  0  0  0
 24 81  1  0  0  0  0
 25 27  2  0  0  0  0
 25 80  1  0  0  0  0
 26 82  1  0  0  0  0
 27 83  1  0  0  0  0
 28 63  2  0  0  0  0
 29 50  1  0  0  0  0
 29 84  1  0  0  0  0
 30 64  1  0  0  0  0
 30 67  1  0  0  0  0
 31 70  1  0  0  0  0
 31 84  1  0  0  0  0
 32 68  1  0  0  0  0
 32 74  2  0  0  0  0
 33 48  1  0  0  0  0
 33 71  1  0  0  0  0
 33 75  2  0  0  0  0
 34 59  1  0  0  0  0
 34 65  1  0  0  0  0
 34 76  2  0  0  0  0
 35 60  1  0  0  0  0
 35 72  1  0  0  0  0
 35 77  2  0  0  0  0
 36 61  1  0  0  0  0
 36 69  1  0  0  0  0
 36 78  2  0  0  0  0
 37 66  1  0  0  0  0
 37 70  1  0  0  0  0
 37 79  2  0  0  0  0
 38 41  1  0  0  0  0
 39 48  1  0  0  0  0
 40 65  1  0  0  0  0
 41 43  1  0  0  0  0
 42 44  1  0  0  0  0
 42 45  1  0  0  0  0
 43 47  1  0  0  0  0
 44 49  1  0  0  0  0
 45 66  1  0  0  0  0
 46 49  1  0  0  0  0
 46 66  1  0  0  0  0
 47 71  1  0  0  0  0
 48 65  1  0  0  0  0
 49 64  1  0  0  0  0
 51 60  1  0  0  0  0
 52 61  1  0  0  0  0
 53 61  1  0  0  0  0
 54 62  1  0  0  0  0
 55 62  1  0  0  0  0
 56 62  1  0  0  0  0
 57 73  1  0  0  0  0
 58 61  1  0  0  0  0
 58 81  1  0  0  0  0
 59 62  1  0  0  0  0
 59 72  1  0  0  0  0
 60 73  1  0  0  0  0
 63 64  1  0  0  0  0
M  CHG  1  73   1
M  ISO  4  37 100  58 101  70 100  81 101
M  END
> <Batch ID>
0188

> <Smiles>
CNC(C)C(=O)NC(C(=O)N1Cc2cc([101O:1][101CH2:1]C(C)(C)C(=O)Nc3cc([100NH:0][100C:0](=O)N4CCCC(n5nc(-c6ccc(Oc7ccc(F)cc7F)cc6)c(C(N)=O)c5N)C4)sc3C)ccc2CC1C(=O)NC1CCCc2ccccc21)C(C)(C)C

> <Shape>
0.232

> <Color>
0.194

> <Negative vol penalty>
0.000

$$$$

  -OEChem-04052305153D

 85 93  0     1  0  0  0  0  0999 V2000
  -19.3080  -31.2276   22.7224 C   0  0  0  0  0  0  0  0  0  0  0  0
  -20.6571  -30.8964   22.7974 C   0  0  0  0  0  0  0  0  0  0  0  0
  -26.5686  -13.0082   20.8858 C   0  0  0  0  0  0  0  0  0  0  0  0
  -25.0066  -14.8230   20.5637 C   0  0  0  0  0  0  0  0  0  0  0  0
  -18.3477  -30.2203   22.6382 C   0  0  0  0  0  0  0  0  0  0  0  0
  -21.0466  -29.5575   22.7894 C   0  0  0  0  0  0  0  0  0  0  0  0
  -24.9759  -28.6959   19.7131 C   0  0  0  0  0  0  0  0  0  0  0  0
  -25.5433  -12.2178   21.4050 C   0  0  0  0  0  0  0  0  0  0  0  0
  -23.9812  -14.0326   21.0829 C   0  0  0  0  0  0  0  0  0  0  0  0
  -26.2401  -29.0534   20.1796 C   0  0  0  0  0  0  0  0  0  0  0  0
  -23.2629   -9.5990   22.4805 C   0  0  0  0  0  0  0  0  0  0  0  0
  -23.1735   -8.2794   22.0375 C   0  0  0  0  0  0  0  0  0  0  0  0
  -26.6684  -26.7526   20.7646 C   0  0  0  0  0  0  0  0  0  0  0  0
  -22.8765   -9.0607   19.7706 C   0  0  0  0  0  0  0  0  0  0  0  0
  -31.8916  -23.8274   19.2445 C   0  0  0  0  0  0  0  0  0  0  0  0
  -26.3003  -14.3108   20.4651 C   0  0  0  0  0  0  0  0  0  0  0  0
  -27.7553  -15.2301   18.5822 C   0  0  0  0  0  0  0  0  0  0  0  0
  -18.7263  -28.8686   22.6194 C   0  0  0  0  0  0  0  0  0  0  0  0
  -24.5435  -27.3635   19.7790 C   0  0  0  0  0  0  0  0  0  0  0  0
  -20.0904  -28.5311   22.7062 C   0  0  0  0  0  0  0  0  0  0  0  0
  -25.3992  -26.3803   20.2959 C   0  0  0  0  0  0  0  0  0  0  0  0
  -24.2496  -12.7300   21.5036 C   0  0  0  0  0  0  0  0  0  0  0  0
  -27.0855  -28.0822   20.7081 C   0  0  0  0  0  0  0  0  0  0  0  0
  -23.1590  -10.6495   21.5686 C   0  0  0  0  0  0  0  0  0  0  0  0
  -22.9803   -8.0103   20.6825 C   0  0  0  0  0  0  0  0  0  0  0  0
  -22.9659  -10.3803   20.2137 C   0  0  0  0  0  0  0  0  0  0  0  0
  -27.3591  -15.1279   19.9292 C   0  0  0  0  0  0  0  0  0  0  0  0
  -31.6814  -23.2724   20.4894 C   0  0  0  0  0  0  0  0  0  0  0  0
  -28.7944  -16.1282   18.5971 C   0  0  0  0  0  0  0  0  0  0  0  0
  -31.2624  -25.6378   20.3106 C   0  0  0  0  0  0  0  0  0  0  0  0
  -27.2309  -14.5721   17.4213 C   0  0  0  0  0  0  0  0  0  0  0  0
  -22.1693  -25.8459   21.2499 C   0  0  0  0  0  0  0  0  0  0  0  0
  -30.8583  -20.9482   20.2662 C   0  0  0  0  0  0  0  0  0  0  0  0
  -23.2465  -23.3119   19.5351 C   0  0  0  0  0  0  0  0  0  0  0  0
  -30.9049  -28.0829   19.8194 C   0  0  0  0  0  0  0  0  0  0  0  0
  -25.8342  -21.8208   17.8835 C   0  0  0  0  0  0  0  0  0  0  0  0
  -17.6493  -27.8137   22.5749 C   0  0  0  0  0  0  0  0  0  0  0  0
  -23.1871  -26.9897   19.2470 C   0  0  0  0  0  0  0  0  0  0  0  0
  -24.9904  -24.9326   20.3702 C   0  0  0  0  0  0  0  0  0  0  0  0
  -18.1681  -26.4294   22.1943 C   0  0  0  0  0  0  0  0  0  0  0  0
  -31.4089  -18.0901   22.4469 C   0  0  0  0  0  0  0  0  0  0  0  0
  -19.4291  -26.0959   22.9852 C   0  0  0  0  0  0  0  0  0  0  0  0
  -30.4075  -17.0808   21.8867 C   0  0  0  0  0  0  0  0  0  0  0  0
  -30.8721  -19.5168   22.3669 C   0  0  0  0  0  0  0  0  0  0  0  0
  -29.4522  -18.9190   20.4302 C   0  0  0  0  0  0  0  0  0  0  0  0
  -20.5540  -27.0909   22.6753 C   0  0  1  0  0  0  0  0  0  0  0  0
  -22.6523  -25.6880   19.8359 C   0  0  1  0  0  0  0  0  0  0  0  0
  -29.9680  -17.4707   20.4645 C   0  0  2  0  0  0  0  0  0  0  0  0
  -31.1815  -30.5617   19.9858 C   0  0  0  0  0  0  0  0  0  0  0  0
  -26.4224  -19.7358   16.6171 C   0  0  0  0  0  0  0  0  0  0  0  0
  -34.3308  -22.0677   21.5038 C   0  0  0  0  0  0  0  0  0  0  0  0
  -23.4237  -21.7693   22.1617 C   0  0  0  0  0  0  0  0  0  0  0  0
  -24.8732  -20.0920   20.9983 C   0  0  0  0  0  0  0  0  0  0  0  0
  -22.5252  -20.4506   20.2361 C   0  0  0  0  0  0  0  0  0  0  0  0
  -26.4355  -23.3474   15.4204 C   0  0  0  0  0  0  0  0  0  0  0  0
  -28.9568  -29.5398   20.5356 C   0  0  0  0  0  0  0  0  0  1  0  0
  -31.8377  -21.8759   20.9399 C   0  0  1  0  0  0  0  0  0  0  0  0
  -24.2660  -22.2222   19.7635 C   0  0  1  0  0  0  0  0  0  0  0  0
  -30.4742  -29.3445   20.5805 C   0  0  1  0  0  0  0  0  0  0  0  0
  -25.9123  -21.1649   16.5167 C   0  0  2  0  0  0  0  0  0  0  0  0
  -33.2588  -21.2701   20.7788 C   0  0  1  0  0  0  0  0  0  0  0  0
  -23.7793  -21.1610   20.7904 C   0  0  0  0  0  0  0  0  0  0  0  0
  -31.6514  -25.1835   19.1399 N   0  0  0  0  0  0  0  0  0  0  0  0
  -28.0873  -15.8994   20.7408 N   0  0  0  0  0  0  0  0  0  0  0  0
  -28.9515  -16.4948   19.9013 N   0  0  0  0  0  0  0  0  0  0  0  0
  -23.6521  -24.6181   19.8432 N   0  0  0  0  0  0  0  0  0  0  0  0
  -30.4386  -19.8399   21.0023 N   0  0  0  0  0  0  0  0  0  0  0  0
  -29.5799  -16.6321   17.6216 N   0  0  0  0  0  0  0  0  0  0  0  0
  -26.1621  -13.6802   17.5845 N   0  0  0  0  0  0  0  0  0  0  0  0
  -30.9129  -26.9663   20.6512 N   0  0  0  0  0  0  0  0  0  0  0  0
  -21.1644  -26.7825   21.3998 N   0  0  0  0  0  0  0  0  0  0  0  0
  -24.5840  -21.6784   18.4476 N   0  0  0  0  0  0  0  0  0  0  0  0
  -26.8305  -21.9302   15.6267 N   0  3  0  0  0  0  0  0  0  0  0  0
  -27.7069  -14.7567   16.2755 O   0  0  0  0  0  0  0  0  0  0  0  0
  -22.6701  -25.1671   22.1388 O   0  0  0  0  0  0  0  0  0  0  0  0
  -30.4809  -21.2011   19.1192 O   0  0  0  0  0  0  0  0  0  0  0  0
  -22.1337  -23.0158   19.0927 O   0  0  0  0  0  0  0  0  0  0  0  0
  -31.2023  -28.1183   18.6289 O   0  0  0  0  0  0  0  0  0  0  0  0
  -26.7878  -22.3982   18.4008 O   0  0  0  0  0  0  0  0  0  0  0  0
  -23.2488  -11.9590   22.0100 O   0  0  0  0  0  0  0  0  0  0  0  0
  -28.3197  -28.4286   21.1647 O   0  0  0  0  0  0  0  0  0  1  0  0
  -22.8960   -6.7430   20.2570 F   0  0  0  0  0  0  0  0  0  0  0  0
  -22.8665  -11.3852   19.3328 F   0  0  0  0  0  0  0  0  0  0  0  0
  -33.5820  -21.2320   19.4562 F   0  0  0  0  0  0  0  0  0  0  0  0
  -31.1638  -24.4891   21.5817 S   0  0  0  0  0  0  0  0  0  0  0  0
  1  2  1  0  0  0  0
  1  5  2  0  0  0  0
  2  6  2  0  0  0  0
  3  8  2  0  0  0  0
  3 16  1  0  0  0  0
  4  9  1  0  0  0  0
  4 16  2  0  0  0  0
  5 18  1  0  0  0  0
  6 20  1  0  0  0  0
  7 10  2  0  0  0  0
  7 19  1  0  0  0  0
  8 22  1  0  0  0  0
  9 22  2  0  0  0  0
 10 23  1  0  0  0  0
 11 12  2  0  0  0  0
 11 24  1  0  0  0  0
 12 25  1  0  0  0  0
 13 21  1  0  0  0  0
 13 23  2  0  0  0  0
 14 25  2  0  0  0  0
 14 26  1  0  0  0  0
 15 28  2  0  0  0  0
 15 63  1  0  0  0  0
 16 27  1  0  0  0  0
 17 27  1  0  0  0  0
 17 29  2  0  0  0  0
 17 31  1  0  0  0  0
 18 20  2  0  0  0  0
 18 37  1  0  0  0  0
 19 21  2  0  0  0  0
 19 38  1  0  0  0  0
 20 46  1  0  0  0  0
 21 39  1  0  0  0  0
 22 80  1  0  0  0  0
 23 81  1  0  0  0  0
 24 26  2  0  0  0  0
 24 80  1  0  0  0  0
 25 82  1  0  0  0  0
 26 83  1  0  0  0  0
 27 64  2  0  0  0  0
 28 57  1  0  0  0  0
 28 85  1  0  0  0  0
 29 65  1  0  0  0  0
 29 68  1  0  0  0  0
 30 63  2  0  0  0  0
 30 70  1  0  0  0  0
 30 85  1  0  0  0  0
 31 69  1  0  0  0  0
 31 74  2  0  0  0  0
 32 47  1  0  0  0  0
 32 71  1  0  0  0  0
 32 75  2  0  0  0  0
 33 57  1  0  0  0  0
 33 67  1  0  0  0  0
 33 76  2  0  0  0  0
 34 58  1  0  0  0  0
 34 66  1  0  0  0  0
 34 77  2  0  0  0  0
 35 59  1  0  0  0  0
 35 70  1  0  0  0  0
 35 78  2  0  0  0  0
 36 60  1  0  0  0  0
 36 72  1  0  0  0  0
 36 79  2  0  0  0  0
 37 40  1  0  0  0  0
 38 47  1  0  0  0  0
 39 66  1  0  0  0  0
 40 42  1  0  0  0  0
 41 43  1  0  0  0  0
 41 44  1  0  0  0  0
 42 46  1  0  0  0  0
 43 48  1  0  0  0  0
 44 67  1  0  0  0  0
 45 48  1  0  0  0  0
 45 67  1  0  0  0  0
 46 71  1  0  0  0  0
 47 66  1  0  0  0  0
 48 65  1  0  0  0  0
 49 59  1  0  0  0  0
 50 60  1  0  0  0  0
 51 61  1  0  0  0  0
 52 62  1  0  0  0  0
 53 62  1  0  0  0  0
 54 62  1  0  0  0  0
 55 73  1  0  0  0  0
 56 59  1  0  0  0  0
 56 81  1  0  0  0  0
 57 61  1  0  0  0  0
 58 62  1  0  0  0  0
 58 72  1  0  0  0  0
 60 73  1  0  0  0  0
 61 84  1  0  0  0  0
 64 65  1  0  0  0  0
M  CHG  1  73   1
M  ISO  4  33 100  56 101  57 100  81 101
M  END
> <Batch ID>
0188

> <Smiles>
CNC(C)C(=O)NC(C(=O)N1Cc2cc([101O:1][101CH2:1]C(C)C(=O)Nc3ncc([100CH:0](C(C)F)[100C:0](=O)N4CCCC(n5nc(-c6ccc(Oc7ccc(F)cc7F)cc6)c(C(N)=O)c5N)C4)s3)ccc2CC1C(=O)NC1CCCc2ccccc21)C(C)(C)C

> <Shape>
0.244

> <Color>
0.067

> <Negative vol penalty>
0.000

$$$$

  -OEChem-04052305153D

 84 92  0     1  0  0  0  0  0999 V2000
  -24.4068  -18.1274   23.0999 C   0  0  0  0  0  0  0  0  0  0  0  0
  -25.2606  -18.7848   22.2200 C   0  0  0  0  0  0  0  0  0  0  0  0
  -23.2870   -9.8426   19.8621 C   0  0  0  0  0  0  0  0  0  0  0  0
  -23.7427   -9.9031   22.2340 C   0  0  0  0  0  0  0  0  0  0  0  0
  -23.1674  -18.6839   23.4133 C   0  0  0  0  0  0  0  0  0  0  0  0
  -24.8751  -19.9986   21.6522 C   0  0  0  0  0  0  0  0  0  0  0  0
  -28.5814  -23.4484   21.7397 C   0  0  0  0  0  0  0  0  0  0  0  0
  -22.5615   -8.6634   20.0315 C   0  0  0  0  0  0  0  0  0  0  0  0
  -23.0171   -8.7240   22.4034 C   0  0  0  0  0  0  0  0  0  0  0  0
  -29.5865  -23.3275   20.7811 C   0  0  0  0  0  0  0  0  0  0  0  0
  -19.4826   -7.7652   21.1023 C   0  0  0  0  0  0  0  0  0  0  0  0
  -18.2522   -7.6622   20.4533 C   0  0  0  0  0  0  0  0  0  0  0  0
  -28.5241  -25.0432   19.4594 C   0  0  0  0  0  0  0  0  0  0  0  0
  -19.0520   -5.7295   19.2441 C   0  0  0  0  0  0  0  0  0  0  0  0
  -23.8777  -10.4624   20.9633 C   0  0  0  0  0  0  0  0  0  0  0  0
  -24.1358  -12.9978   20.8499 C   0  0  0  0  0  0  0  0  0  0  0  0
  -22.7705  -19.9099   22.8565 C   0  0  0  0  0  0  0  0  0  0  0  0
  -27.5324  -24.3615   21.5597 C   0  0  0  0  0  0  0  0  0  0  0  0
  -23.6287  -20.5714   21.9574 C   0  0  0  0  0  0  0  0  0  0  0  0
  -27.5083  -25.1756   20.4183 C   0  0  0  0  0  0  0  0  0  0  0  0
  -22.4265   -8.1041   21.3022 C   0  0  0  0  0  0  0  0  0  0  0  0
  -29.5565  -24.1229   19.6394 C   0  0  0  0  0  0  0  0  0  0  0  0
  -20.4977   -6.8505   20.8222 C   0  0  0  0  0  0  0  0  0  0  0  0
  -18.0369   -6.6443   19.5242 C   0  0  0  0  0  0  0  0  0  0  0  0
  -20.2824   -5.8326   19.8931 C   0  0  0  0  0  0  0  0  0  0  0  0
  -24.6278  -11.6802   20.7888 C   0  0  0  0  0  0  0  0  0  0  0  0
  -28.0173  -17.8668   16.5155 C   0  0  0  0  0  0  0  0  0  0  0  0
  -25.2365  -13.7863   20.6192 C   0  0  0  0  0  0  0  0  0  0  0  0
  -28.2070  -19.2195   16.3247 C   0  0  0  0  0  0  0  0  0  0  0  0
  -26.0127  -18.3817   15.7900 C   0  0  0  0  0  0  0  0  0  0  0  0
  -29.0515  -16.9419   17.0123 C   0  0  0  0  0  0  0  0  0  0  0  0
  -22.8031  -13.4670   21.0935 C   0  0  0  0  0  0  0  0  0  0  0  0
  -24.3767  -24.1225   21.2624 C   0  0  0  0  0  0  0  0  0  0  0  0
  -24.5136  -27.3621   21.3563 C   0  0  0  0  0  0  0  0  0  0  0  0
  -26.3445  -30.1999   20.8653 C   0  0  0  0  0  0  0  0  0  0  0  0
  -29.8328  -14.8729   17.6450 C   0  0  0  0  0  0  0  0  0  0  0  0
  -21.4016  -20.4488   23.1886 C   0  0  0  0  0  0  0  0  0  0  0  0
  -26.4702  -24.4988   22.6158 C   0  0  0  0  0  0  0  0  0  0  0  0
  -26.4151  -26.1856   20.1876 C   0  0  0  0  0  0  0  0  0  0  0  0
  -21.2251  -21.9233   22.8349 C   0  0  0  0  0  0  0  0  0  0  0  0
  -30.1517  -12.6341   20.4540 C   0  0  0  0  0  0  0  0  0  0  0  0
  -21.7558  -22.2031   21.4325 C   0  0  0  0  0  0  0  0  0  0  0  0
  -28.7022  -12.2682   20.7725 C   0  0  0  0  0  0  0  0  0  0  0  0
  -30.3665  -12.8179   18.9548 C   0  0  0  0  0  0  0  0  0  0  0  0
  -27.9881  -13.4482   18.6471 C   0  0  0  0  0  0  0  0  0  0  0  0
  -23.2566  -21.9021   21.3403 C   0  0  1  0  0  0  0  0  0  0  0  0
  -25.1721  -25.0977   22.0834 C   0  0  1  0  0  0  0  0  0  0  0  0
  -27.7265  -13.2854   20.1542 C   0  0  1  0  0  0  0  0  0  0  0  0
  -26.1736  -32.7005   20.9889 C   0  0  0  0  0  0  0  0  0  0  0  0
  -22.9249  -27.3798   18.7513 C   0  0  0  0  0  0  0  0  0  0  0  0
  -23.5996  -29.7703   18.4374 C   0  0  0  0  0  0  0  0  0  0  0  0
  -22.2245  -29.1134   20.4123 C   0  0  0  0  0  0  0  0  0  0  0  0
  -28.4740  -30.3602   22.9143 C   0  0  0  0  0  0  0  0  0  0  0  0
  -31.0296  -23.4261   16.4295 C   0  0  0  0  0  0  0  0  0  0  0  0
  -29.4408  -21.3881   16.3114 C   0  0  0  0  0  0  0  0  0  0  0  0
  -30.1774  -24.2875   17.3496 C   0  0  0  0  0  0  0  0  0  1  0  0
  -24.6643  -28.4560   20.3269 C   0  0  1  0  0  0  0  0  0  0  0  0
  -26.5502  -31.4286   21.7327 C   0  0  2  0  0  0  0  0  0  0  0  0
  -30.8372  -21.9203   16.6378 C   0  0  1  0  0  0  0  0  0  0  0  0
  -23.3730  -28.6596   19.4851 C   0  0  0  0  0  0  0  0  0  0  0  0
  -25.9389  -11.6304   20.5387 N   0  0  0  0  0  0  0  0  0  0  0  0
  -26.7596  -17.3847   16.2098 N   0  0  0  0  0  0  0  0  0  0  0  0
  -28.8157  -15.6811   17.1740 N   0  0  0  0  0  0  0  0  0  0  0  0
  -26.2801  -12.9266   20.4405 N   0  0  0  0  0  0  0  0  0  0  0  0
  -25.3959  -26.2780   21.2460 N   0  0  0  0  0  0  0  0  0  0  0  0
  -29.4004  -13.7654   18.3973 N   0  0  0  0  0  0  0  0  0  0  0  0
  -25.4038  -15.1243   20.5536 N   0  0  0  0  0  0  0  0  0  0  0  0
  -24.7147  -18.2573   15.4051 N   0  0  0  0  0  0  0  0  0  0  0  0
  -21.7914  -12.5219   21.3112 N   0  0  0  0  0  0  0  0  0  0  0  0
  -29.3527  -19.9652   16.5471 N   0  0  0  0  0  0  0  0  0  0  0  0
  -24.0244  -22.9716   21.9412 N   0  0  0  0  0  0  0  0  0  0  0  0
  -25.0968  -29.6443   21.0544 N   0  0  0  0  0  0  0  0  0  0  0  0
  -27.9765  -31.5340   22.1517 N   0  3  0  0  0  0  0  0  0  0  0  0
  -22.5148  -14.6878   21.1011 O   0  0  0  0  0  0  0  0  0  0  0  0
  -24.1017  -24.3947   20.0997 O   0  0  0  0  0  0  0  0  0  0  0  0
  -23.6498  -27.4690   22.2303 O   0  0  0  0  0  0  0  0  0  0  0  0
  -27.2033  -29.7776   20.0941 O   0  0  0  0  0  0  0  0  0  0  0  0
  -31.0299  -15.0801   17.4323 O   0  0  0  0  0  0  0  0  0  0  0  0
  -31.7840  -21.2149   15.8330 O   0  0  0  0  0  0  0  0  0  0  0  0
  -21.7183   -6.9536   21.4680 O   0  0  0  0  0  0  0  0  0  0  0  0
  -30.5360  -24.0064   18.7019 O   0  0  0  0  0  0  0  0  0  1  0  0
  -16.8549   -6.5446   18.9022 F   0  0  0  0  0  0  0  0  0  0  0  0
  -21.2534   -4.9501   19.6207 F   0  0  0  0  0  0  0  0  0  0  0  0
  -26.7590  -19.9261   15.7372 S   0  0  0  0  0  0  0  0  0  0  0  0
  1  2  1  0  0  0  0
  1  5  2  0  0  0  0
  2  6  2  0  0  0  0
  3  8  2  0  0  0  0
  3 15  1  0  0  0  0
  4  9  1  0  0  0  0
  4 15  2  0  0  0  0
  5 17  1  0  0  0  0
  6 19  1  0  0  0  0
  7 10  2  0  0  0  0
  7 18  1  0  0  0  0
  8 21  1  0  0  0  0
  9 21  2  0  0  0  0
 10 22  1  0  0  0  0
 11 12  2  0  0  0  0
 11 23  1  0  0  0  0
 12 24  1  0  0  0  0
 13 20  1  0  0  0  0
 13 22  2  0  0  0  0
 14 24  2  0  0  0  0
 14 25  1  0  0  0  0
 15 26  1  0  0  0  0
 16 26  1  0  0  0  0
 16 28  2  0  0  0  0
 16 32  1  0  0  0  0
 17 19  2  0  0  0  0
 17 37  1  0  0  0  0
 18 20  2  0  0  0  0
 18 38  1  0  0  0  0
 19 46  1  0  0  0  0
 20 39  1  0  0  0  0
 21 80  1  0  0  0  0
 22 81  1  0  0  0  0
 23 25  2  0  0  0  0
 23 80  1  0  0  0  0
 24 82  1  0  0  0  0
 25 83  1  0  0  0  0
 26 61  2  0  0  0  0
 27 29  2  0  0  0  0
 27 31  1  0  0  0  0
 27 62  1  0  0  0  0
 28 64  1  0  0  0  0
 28 67  1  0  0  0  0
 29 70  1  0  0  0  0
 29 84  1  0  0  0  0
 30 62  2  0  0  0  0
 30 68  1  0  0  0  0
 30 84  1  0  0  0  0
 31 63  2  0  0  0  0
 32 69  1  0  0  0  0
 32 74  2  0  0  0  0
 33 47  1  0  0  0  0
 33 71  1  0  0  0  0
 33 75  2  0  0  0  0
 34 57  1  0  0  0  0
 34 65  1  0  0  0  0
 34 76  2  0  0  0  0
 35 58  1  0  0  0  0
 35 72  1  0  0  0  0
 35 77  2  0  0  0  0
 36 63  1  0  0  0  0
 36 66  1  0  0  0  0
 36 78  2  0  0  0  0
 37 40  1  0  0  0  0
 38 47  1  0  0  0  0
 39 65  1  0  0  0  0
 40 42  1  0  0  0  0
 41 43  1  0  0  0  0
 41 44  1  0  0  0  0
 42 46  1  0  0  0  0
 43 48  1  0  0  0  0
 44 66  1  0  0  0  0
 45 48  1  0  0  0  0
 45 66  1  0  0  0  0
 46 71  1  0  0  0  0
 47 65  1  0  0  0  0
 48 64  1  0  0  0  0
 49 58  1  0  0  0  0
 50 60  1  0  0  0  0
 51 60  1  0  0  0  0
 52 60  1  0  0  0  0
 53 73  1  0  0  0  0
 54 56  1  0  0  0  0
 54 59  1  0  0  0  0
 55 59  1  0  0  0  0
 55 70  1  0  0  0  0
 56 81  1  0  0  0  0
 57 60  1  0  0  0  0
 57 72  1  0  0  0  0
 58 73  1  0  0  0  0
 59 79  1  0  0  0  0
 61 64  1  0  0  0  0
M  CHG  1  73   1
M  ISO  4  36 100  56 101  63 100  81 101
M  END
> <Batch ID>
0188

> <Smiles>
CNC(C)C(=O)NC(C(=O)N1Cc2cc([101O:1][101CH2:1]CC(O)CNc3sc(N)nc3C=[100N:0][100C:0](=O)N3CCCC(n4nc(-c5ccc(Oc6ccc(F)cc6F)cc5)c(C(N)=O)c4N)C3)ccc2CC1C(=O)NC1CCCc2ccccc21)C(C)(C)C

> <Shape>
0.218

> <Color>
0.159

> <Negative vol penalty>
0.000

$$$$

  -OEChem-04052305153D

 87 95  0     1  0  0  0  0  0999 V2000
  -36.3111  -31.6288   20.3295 C   0  0  0  0  0  0  0  0  0  0  0  0
  -35.6910  -31.2078   21.5015 C   0  0  0  0  0  0  0  0  0  0  0  0
  -23.4616   -9.6882   19.8483 C   0  0  0  0  0  0  0  0  0  0  0  0
  -24.3720   -9.4463   22.0731 C   0  0  0  0  0  0  0  0  0  0  0  0
  -35.7189  -31.3647   19.0952 C   0  0  0  0  0  0  0  0  0  0  0  0
  -34.4776  -30.5235   21.4400 C   0  0  0  0  0  0  0  0  0  0  0  0
  -33.8060  -23.9090   24.2128 C   0  0  0  0  0  0  0  0  0  0  0  0
  -22.9939   -8.3750   19.8969 C   0  0  0  0  0  0  0  0  0  0  0  0
  -23.9043   -8.1331   22.1217 C   0  0  0  0  0  0  0  0  0  0  0  0
  -33.5405  -22.7277   24.9058 C   0  0  0  0  0  0  0  0  0  0  0  0
  -20.9660   -6.5559   22.6686 C   0  0  0  0  0  0  0  0  0  0  0  0
  -20.3231   -6.1413   23.8349 C   0  0  0  0  0  0  0  0  0  0  0  0
  -31.2727  -22.7322   24.0662 C   0  0  0  0  0  0  0  0  0  0  0  0
  -21.9908   -4.4204   24.1425 C   0  0  0  0  0  0  0  0  0  0  0  0
  -24.1507  -10.2238   20.9364 C   0  0  0  0  0  0  0  0  0  0  0  0
  -23.9512  -12.7419   21.2927 C   0  0  0  0  0  0  0  0  0  0  0  0
  -34.5024  -30.6683   19.0180 C   0  0  0  0  0  0  0  0  0  0  0  0
  -32.8092  -24.4988   23.4305 C   0  0  0  0  0  0  0  0  0  0  0  0
  -33.8679  -30.2510   20.2035 C   0  0  0  0  0  0  0  0  0  0  0  0
  -31.5366  -23.9087   23.3598 C   0  0  0  0  0  0  0  0  0  0  0  0
  -23.2152   -7.5974   21.0336 C   0  0  0  0  0  0  0  0  0  0  0  0
  -32.2770  -22.1409   24.8329 C   0  0  0  0  0  0  0  0  0  0  0  0
  -22.1213   -5.9027   22.2391 C   0  0  0  0  0  0  0  0  0  0  0  0
  -20.8355   -5.0736   24.5719 C   0  0  0  0  0  0  0  0  0  0  0  0
  -22.6337   -4.8350   22.9761 C   0  0  0  0  0  0  0  0  0  0  0  0
  -24.6346  -11.5801   20.8866 C   0  0  0  0  0  0  0  0  0  0  0  0
  -31.2172  -13.9615   24.4705 C   0  0  0  0  0  0  0  0  0  0  0  0
  -24.8339  -13.7643   21.0436 C   0  0  0  0  0  0  0  0  0  0  0  0
  -31.2594  -14.2485   23.1222 C   0  0  0  0  0  0  0  0  0  0  0  0
  -32.4951  -15.7421   24.5522 C   0  0  0  0  0  0  0  0  0  0  0  0
  -22.6361  -12.8843   21.8459 C   0  0  0  0  0  0  0  0  0  0  0  0
  -31.8438  -27.3025   21.1321 C   0  0  0  0  0  0  0  0  0  0  0  0
  -30.5826  -24.7463   19.9981 C   0  0  0  0  0  0  0  0  0  0  0  0
  -29.7221  -21.6508   18.8517 C   0  0  0  0  0  0  0  0  0  0  0  0
  -30.7918  -14.0104   20.6583 C   0  0  0  0  0  0  0  0  0  0  0  0
  -33.8770  -30.4477   17.6634 C   0  0  0  0  0  0  0  0  0  0  0  0
  -33.0320  -25.8042   22.7163 C   0  0  0  0  0  0  0  0  0  0  0  0
  -30.4847  -24.5971   22.5336 C   0  0  0  0  0  0  0  0  0  0  0  0
  -32.7777  -29.3885   17.6654 C   0  0  0  0  0  0  0  0  0  0  0  0
  -28.4543  -14.9635   18.1473 C   0  0  0  0  0  0  0  0  0  0  0  0
  -31.8266  -29.6083   18.8375 C   0  0  0  0  0  0  0  0  0  0  0  0
  -27.1459  -14.3148   18.6050 C   0  0  0  0  0  0  0  0  0  0  0  0
  -29.6618  -14.0767   18.4461 C   0  0  0  0  0  0  0  0  0  0  0  0
  -28.4637  -12.9782   20.2973 C   0  0  0  0  0  0  0  0  0  0  0  0
  -32.5635  -29.4842   20.1766 C   0  0  1  0  0  0  0  0  0  0  0  0
  -32.2902  -25.8899   21.3704 C   0  0  1  0  0  0  0  0  0  0  0  0
  -27.2257  -13.8625   20.0762 C   0  0  2  0  0  0  0  0  0  0  0  0
  -28.5227  -20.5126   16.9640 C   0  0  0  0  0  0  0  0  0  0  0  0
  -34.7794  -16.7515   24.4653 C   0  0  0  0  0  0  0  0  0  0  0  0
  -33.5883  -16.8157   26.6354 C   0  0  0  0  0  0  0  0  0  0  0  0
  -27.9056  -25.5513   21.2186 C   0  0  0  0  0  0  0  0  0  0  0  0
  -26.8401  -23.6829   19.9372 C   0  0  0  0  0  0  0  0  0  0  0  0
  -27.9550  -25.5521   18.7182 C   0  0  0  0  0  0  0  0  0  0  0  0
  -32.1632  -20.1967   18.0237 C   0  0  0  0  0  0  0  0  0  0  0  0
  -32.8072  -18.2946   24.7324 C   0  0  0  0  0  0  0  0  0  0  0  0
  -31.0586  -20.1011   24.9437 C   0  0  0  0  0  0  0  0  0  1  0  0
  -29.3705  -23.8515   19.9415 C   0  0  1  0  0  0  0  0  0  0  0  0
  -29.8634  -21.0078   17.4838 C   0  0  2  0  0  0  0  0  0  0  0  0
  -31.4285  -18.6639   25.3084 C   0  0  1  0  0  0  0  0  0  0  0  0
  -30.4930  -12.8370   25.0975 C   0  0  0  0  0  0  0  0  0  0  0  0
  -33.3712  -16.8811   25.1041 C   0  0  0  0  0  0  0  0  0  0  0  0
  -28.0393  -24.6543   19.9718 C   0  0  0  0  0  0  0  0  0  0  0  0
  -25.8571  -11.8393   20.4150 N   0  0  0  0  0  0  0  0  0  0  0  0
  -31.9256  -14.8166   25.2920 N   0  0  0  0  0  0  0  0  0  0  0  0
  -25.9488  -13.1757   20.5233 N   0  0  0  0  0  0  0  0  0  0  0  0
  -31.0696  -25.0720   21.2699 N   0  0  0  0  0  0  0  0  0  0  0  0
  -29.6739  -13.6910   19.8588 N   0  0  0  0  0  0  0  0  0  0  0  0
  -24.7574  -15.1004   21.2209 N   0  0  0  0  0  0  0  0  0  0  0  0
  -21.8628  -11.7309   22.0361 N   0  0  0  0  0  0  0  0  0  0  0  0
  -30.6759  -13.6227   21.9928 N   0  0  0  0  0  0  0  0  0  0  0  0
  -32.7873  -28.0922   20.5032 N   0  0  0  0  0  0  0  0  0  0  0  0
  -29.5363  -23.0139   18.7586 N   0  0  0  0  0  0  0  0  0  0  0  0
  -30.7987  -19.8494   17.5501 N   0  3  0  0  0  0  0  0  0  0  0  0
  -22.1545  -14.0028   22.1468 O   0  0  0  0  0  0  0  0  0  0  0  0
  -30.7250  -27.6512   21.4906 O   0  0  0  0  0  0  0  0  0  0  0  0
  -31.0829  -25.1516   18.9451 O   0  0  0  0  0  0  0  0  0  0  0  0
  -29.7680  -21.0076   19.8980 O   0  0  0  0  0  0  0  0  0  0  0  0
  -31.7677  -14.6097   20.1995 O   0  0  0  0  0  0  0  0  0  0  0  0
  -30.4315  -17.7976   24.7737 O   0  0  0  0  0  0  0  0  0  0  0  0
  -22.7588   -6.3160   21.0814 O   0  0  0  0  0  0  0  0  0  0  0  0
  -32.0259  -20.9853   25.5083 O   0  0  0  0  0  0  0  0  0  1  0  0
  -20.2188   -4.6765   25.6928 F   0  0  0  0  0  0  0  0  0  0  0  0
  -23.7439   -4.2044   22.5692 F   0  0  0  0  0  0  0  0  0  0  0  0
  -29.8185  -12.0383   24.2093 F   0  0  0  0  0  0  0  0  0  0  0  0
  -31.2966  -11.9716   25.7952 F   0  0  0  0  0  0  0  0  0  0  0  0
  -29.5438  -13.2425   25.9990 F   0  0  0  0  0  0  0  0  0  0  0  0
  -32.2205  -15.6447   22.8610 S   0  0  0  0  0  0  0  0  0  0  0  0
  1  2  1  0  0  0  0
  1  5  2  0  0  0  0
  2  6  2  0  0  0  0
  3  8  2  0  0  0  0
  3 15  1  0  0  0  0
  4  9  1  0  0  0  0
  4 15  2  0  0  0  0
  5 17  1  0  0  0  0
  6 19  1  0  0  0  0
  7 10  2  0  0  0  0
  7 18  1  0  0  0  0
  8 21  1  0  0  0  0
  9 21  2  0  0  0  0
 10 22  1  0  0  0  0
 11 12  2  0  0  0  0
 11 23  1  0  0  0  0
 12 24  1  0  0  0  0
 13 20  1  0  0  0  0
 13 22  2  0  0  0  0
 14 24  2  0  0  0  0
 14 25  1  0  0  0  0
 15 26  1  0  0  0  0
 16 26  1  0  0  0  0
 16 28  2  0  0  0  0
 16 31  1  0  0  0  0
 17 19  2  0  0  0  0
 17 36  1  0  0  0  0
 18 20  2  0  0  0  0
 18 37  1  0  0  0  0
 19 45  1  0  0  0  0
 20 38  1  0  0  0  0
 21 80  1  0  0  0  0
 22 81  1  0  0  0  0
 23 25  2  0  0  0  0
 23 80  1  0  0  0  0
 24 82  1  0  0  0  0
 25 83  1  0  0  0  0
 26 63  2  0  0  0  0
 27 29  2  0  0  0  0
 27 60  1  0  0  0  0
 27 64  1  0  0  0  0
 28 65  1  0  0  0  0
 28 68  1  0  0  0  0
 29 70  1  0  0  0  0
 29 87  1  0  0  0  0
 30 61  1  0  0  0  0
 30 64  2  0  0  0  0
 30 87  1  0  0  0  0
 31 69  1  0  0  0  0
 31 74  2  0  0  0  0
 32 46  1  0  0  0  0
 32 71  1  0  0  0  0
 32 75  2  0  0  0  0
 33 57  1  0  0  0  0
 33 66  1  0  0  0  0
 33 76  2  0  0  0  0
 34 58  1  0  0  0  0
 34 72  1  0  0  0  0
 34 77  2  0  0  0  0
 35 67  1  0  0  0  0
 35 70  1  0  0  0  0
 35 78  2  0  0  0  0
 36 39  1  0  0  0  0
 37 46  1  0  0  0  0
 38 66  1  0  0  0  0
 39 41  1  0  0  0  0
 40 42  1  0  0  0  0
 40 43  1  0  0  0  0
 41 45  1  0  0  0  0
 42 47  1  0  0  0  0
 43 67  1  0  0  0  0
 44 47  1  0  0  0  0
 44 67  1  0  0  0  0
 45 71  1  0  0  0  0
 46 66  1  0  0  0  0
 47 65  1  0  0  0  0
 48 58  1  0  0  0  0
 49 61  1  0  0  0  0
 50 61  1  0  0  0  0
 51 62  1  0  0  0  0
 52 62  1  0  0  0  0
 53 62  1  0  0  0  0
 54 73  1  0  0  0  0
 55 59  1  0  0  0  0
 55 61  1  0  0  0  0
 56 59  1  0  0  0  0
 56 81  1  0  0  0  0
 57 62  1  0  0  0  0
 57 72  1  0  0  0  0
 58 73  1  0  0  0  0
 59 79  1  0  0  0  0
 60 84  1  0  0  0  0
 60 85  1  0  0  0  0
 60 86  1  0  0  0  0
 63 65  1  0  0  0  0
M  CHG  1  73   1
M  ISO  4  35 100  56 101  70 100  81 101
M  END
> <Batch ID>
0188

> <Smiles>
CNC(C)C(=O)NC(C(=O)N1Cc2cc([101O:1][101CH2:1]C(O)CC(C)(C)c3nc(C(F)(F)F)c([100NH:0][100C:0](=O)N4CCCC(n5nc(-c6ccc(Oc7ccc(F)cc7F)cc6)c(C(N)=O)c5N)C4)s3)ccc2CC1C(=O)NC1CCCc2ccccc21)C(C)(C)C

> <Shape>
0.196

> <Color>
0.138

> <Negative vol penalty>
0.000

$$$$

  -OEChem-04052305153D

 84 92  0     1  0  0  0  0  0999 V2000
  -34.5915  -15.5042   21.4086 C   0  0  0  0  0  0  0  0  0  0  0  0
  -33.5184  -16.3398   21.1160 C   0  0  0  0  0  0  0  0  0  0  0  0
  -26.3463  -29.6120   23.1766 C   0  0  0  0  0  0  0  0  0  0  0  0
  -25.8837  -31.2147   21.4289 C   0  0  0  0  0  0  0  0  0  0  0  0
  -34.5384  -14.1552   21.0600 C   0  0  0  0  0  0  0  0  0  0  0  0
  -32.3919  -15.8272   20.4736 C   0  0  0  0  0  0  0  0  0  0  0  0
  -28.0664  -17.4167   22.5731 C   0  0  0  0  0  0  0  0  0  0  0  0
  -26.5497  -30.6554   24.0797 C   0  0  0  0  0  0  0  0  0  0  0  0
  -26.0870  -32.2581   22.3320 C   0  0  0  0  0  0  0  0  0  0  0  0
  -27.6458  -18.7094   22.2636 C   0  0  0  0  0  0  0  0  0  0  0  0
  -24.3592  -33.7829   24.8039 C   0  0  0  0  0  0  0  0  0  0  0  0
  -23.4373  -34.8297   24.8006 C   0  0  0  0  0  0  0  0  0  0  0  0
  -26.0988  -17.8119   20.6447 C   0  0  0  0  0  0  0  0  0  0  0  0
  -25.2053  -36.3851   24.2606 C   0  0  0  0  0  0  0  0  0  0  0  0
  -30.8329  -21.7417   16.6864 C   0  0  0  0  0  0  0  0  0  0  0  0
  -26.0134  -29.8916   21.8512 C   0  0  0  0  0  0  0  0  0  0  0  0
  -24.5910  -28.1573   20.6361 C   0  0  0  0  0  0  0  0  0  0  0  0
  -33.4067  -13.6237   20.4217 C   0  0  0  0  0  0  0  0  0  0  0  0
  -27.5133  -16.3107   21.9119 C   0  0  0  0  0  0  0  0  0  0  0  0
  -32.3242  -14.4702   20.1149 C   0  0  0  0  0  0  0  0  0  0  0  0
  -26.5124  -16.5061   20.9495 C   0  0  0  0  0  0  0  0  0  0  0  0
  -26.4200  -31.9784   23.6574 C   0  0  0  0  0  0  0  0  0  0  0  0
  -26.6639  -18.9074   21.2972 C   0  0  0  0  0  0  0  0  0  0  0  0
  -25.7042  -34.0373   24.5356 C   0  0  0  0  0  0  0  0  0  0  0  0
  -23.8603  -36.1308   24.5290 C   0  0  0  0  0  0  0  0  0  0  0  0
  -26.1272  -35.3383   24.2639 C   0  0  0  0  0  0  0  0  0  0  0  0
  -25.8038  -28.8142   20.9177 C   0  0  0  0  0  0  0  0  0  0  0  0
  -30.3025  -22.7933   17.4040 C   0  0  0  0  0  0  0  0  0  0  0  0
  -24.9204  -27.2198   19.6879 C   0  0  0  0  0  0  0  0  0  0  0  0
  -28.4568  -21.6557   17.0732 C   0  0  0  0  0  0  0  0  0  0  0  0
  -23.2835  -28.3751   21.1826 C   0  0  0  0  0  0  0  0  0  0  0  0
  -28.6576  -14.0209   20.0275 C   0  0  0  0  0  0  0  0  0  0  0  0
  -25.6485  -12.8388   20.2915 C   0  0  0  0  0  0  0  0  0  0  0  0
  -22.3456  -13.4345   20.9104 C   0  0  0  0  0  0  0  0  0  0  0  0
  -30.5387  -24.9617   18.6386 C   0  0  0  0  0  0  0  0  0  0  0  0
  -33.4147  -12.1695   20.0218 C   0  0  0  0  0  0  0  0  0  0  0  0
  -27.9588  -14.9211   22.2763 C   0  0  0  0  0  0  0  0  0  0  0  0
  -25.8723  -15.3509   20.2254 C   0  0  0  0  0  0  0  0  0  0  0  0
  -32.0306  -11.6243   19.6796 C   0  0  0  0  0  0  0  0  0  0  0  0
  -28.3430  -26.8230   16.2720 C   0  0  0  0  0  0  0  0  0  0  0  0
  -31.2892  -12.5892   18.7598 C   0  0  0  0  0  0  0  0  0  0  0  0
  -27.1005  -27.1752   17.0922 C   0  0  0  0  0  0  0  0  0  0  0  0
  -28.9710  -25.5041   16.7077 C   0  0  0  0  0  0  0  0  0  0  0  0
  -28.5603  -26.3888   19.0153 C   0  0  0  0  0  0  0  0  0  0  0  0
  -31.0746  -13.9460   19.4412 C   0  0  1  0  0  0  0  0  0  0  0  0
  -27.6939  -13.9003   21.1739 C   0  0  1  0  0  0  0  0  0  0  0  0
  -27.1235  -26.5706   18.5085 C   0  0  1  0  0  0  0  0  0  0  0  0
  -33.0445  -22.8960   19.0238 C   0  0  0  0  0  0  0  0  0  0  0  0
  -20.1213  -12.2775   21.0159 C   0  0  0  0  0  0  0  0  0  0  0  0
  -24.7454  -21.7159   17.1402 C   0  0  0  0  0  0  0  0  0  0  0  0
  -25.5428  -12.7690   17.2429 C   0  0  0  0  0  0  0  0  0  0  0  0
  -23.0556  -12.5320   17.4039 C   0  0  0  0  0  0  0  0  0  0  0  0
  -24.5393  -10.7733   18.3675 C   0  0  0  0  0  0  0  0  0  0  0  0
  -21.9917  -14.1247   23.7665 C   0  0  0  0  0  0  0  0  0  0  0  0
  -32.5429  -23.7604   17.8848 C   0  0  0  0  0  0  0  0  0  0  0  0
  -25.8000  -20.3994   19.6591 C   0  0  0  0  0  0  0  0  0  1  0  0
  -24.3599  -13.0140   19.5247 C   0  0  1  0  0  0  0  0  0  0  0  0
  -21.3438  -12.7240   21.8026 C   0  0  2  0  0  0  0  0  0  0  0  0
  -26.0945  -22.0769   17.7570 C   0  0  1  0  0  0  0  0  0  0  0  0
  -26.1155  -21.8446   19.2768 C   0  0  1  0  0  0  0  0  0  0  0  0
  -24.3877  -12.2942   18.1468 C   0  0  0  0  0  0  0  0  0  0  0  0
  -26.8273  -28.3346   20.2062 N   0  0  0  0  0  0  0  0  0  0  0  0
  -28.9401  -22.7459   17.6264 N   0  0  0  0  0  0  0  0  0  0  0  0
  -26.2585  -27.3662   19.4681 N   0  0  0  0  0  0  0  0  0  0  0  0
  -26.3462  -14.0118   20.6123 N   0  0  0  0  0  0  0  0  0  0  0  0
  -29.3517  -25.5279   18.1305 N   0  0  0  0  0  0  0  0  0  0  0  0
  -24.1932  -26.2926   19.0292 N   0  0  0  0  0  0  0  0  0  0  0  0
  -23.1212  -29.3790   22.1471 N   0  0  0  0  0  0  0  0  0  0  0  0
  -27.1233  -21.2920   17.1039 N   0  0  0  0  0  0  0  0  0  0  0  0
  -29.9829  -13.8690   20.3882 N   0  0  0  0  0  0  0  0  0  0  0  0
  -23.2926  -12.5649   20.4121 N   0  0  0  0  0  0  0  0  0  0  0  0
  -31.0880  -23.8922   17.9070 N   0  0  0  0  0  0  0  0  0  0  0  0
  -20.8933  -13.6282   22.8982 N   0  3  0  0  0  0  0  0  0  0  0  0
  -22.2917  -27.6886   20.8381 O   0  0  0  0  0  0  0  0  0  0  0  0
  -28.2304  -14.2345   18.8990 O   0  0  0  0  0  0  0  0  0  0  0  0
  -26.0185  -11.7034   20.6007 O   0  0  0  0  0  0  0  0  0  0  0  0
  -22.2912  -14.6397   20.6757 O   0  0  0  0  0  0  0  0  0  0  0  0
  -31.1033  -25.4216   19.6386 O   0  0  0  0  0  0  0  0  0  0  0  0
  -25.1716  -22.7108   19.9091 O   0  0  0  0  0  0  0  0  0  0  0  0
  -26.6181  -32.9968   24.5384 O   0  0  0  0  0  0  0  0  0  0  0  0
  -26.2520  -20.1681   20.9927 O   0  0  0  0  0  0  0  0  0  1  0  0
  -22.9747  -37.1356   24.5243 F   0  0  0  0  0  0  0  0  0  0  0  0
  -27.4179  -35.5887   24.0042 F   0  0  0  0  0  0  0  0  0  0  0  0
  -29.5846  -20.6420   16.2696 S   0  0  0  0  0  0  0  0  0  0  0  0
  1  2  1  0  0  0  0
  1  5  2  0  0  0  0
  2  6  2  0  0  0  0
  3  8  2  0  0  0  0
  3 16  1  0  0  0  0
  4  9  1  0  0  0  0
  4 16  2  0  0  0  0
  5 18  1  0  0  0  0
  6 20  1  0  0  0  0
  7 10  2  0  0  0  0
  7 19  1  0  0  0  0
  8 22  1  0  0  0  0
  9 22  2  0  0  0  0
 10 23  1  0  0  0  0
 11 12  2  0  0  0  0
 11 24  1  0  0  0  0
 12 25  1  0  0  0  0
 13 21  1  0  0  0  0
 13 23  2  0  0  0  0
 14 25  2  0  0  0  0
 14 26  1  0  0  0  0
 15 28  2  0  0  0  0
 15 84  1  0  0  0  0
 16 27  1  0  0  0  0
 17 27  1  0  0  0  0
 17 29  2  0  0  0  0
 17 31  1  0  0  0  0
 18 20  2  0  0  0  0
 18 36  1  0  0  0  0
 19 21  2  0  0  0  0
 19 37  1  0  0  0  0
 20 45  1  0  0  0  0
 21 38  1  0  0  0  0
 22 80  1  0  0  0  0
 23 81  1  0  0  0  0
 24 26  2  0  0  0  0
 24 80  1  0  0  0  0
 25 82  1  0  0  0  0
 26 83  1  0  0  0  0
 27 62  2  0  0  0  0
 28 63  1  0  0  0  0
 28 72  1  0  0  0  0
 29 64  1  0  0  0  0
 29 67  1  0  0  0  0
 30 63  2  0  0  0  0
 30 69  1  0  0  0  0
 30 84  1  0  0  0  0
 31 68  1  0  0  0  0
 31 74  2  0  0  0  0
 32 46  1  0  0  0  0
 32 70  1  0  0  0  0
 32 75  2  0  0  0  0
 33 57  1  0  0  0  0
 33 65  1  0  0  0  0
 33 76  2  0  0  0  0
 34 58  1  0  0  0  0
 34 71  1  0  0  0  0
 34 77  2  0  0  0  0
 35 66  1  0  0  0  0
 35 72  1  0  0  0  0
 35 78  2  0  0  0  0
 36 39  1  0  0  0  0
 37 46  1  0  0  0  0
 38 65  1  0  0  0  0
 39 41  1  0  0  0  0
 40 42  1  0  0  0  0
 40 43  1  0  0  0  0
 41 45  1  0  0  0  0
 42 47  1  0  0  0  0
 43 66  1  0  0  0  0
 44 47  1  0  0  0  0
 44 66  1  0  0  0  0
 45 70  1  0  0  0  0
 46 65  1  0  0  0  0
 47 64  1  0  0  0  0
 48 55  1  0  0  0  0
 49 58  1  0  0  0  0
 50 59  1  0  0  0  0
 51 61  1  0  0  0  0
 52 61  1  0  0  0  0
 53 61  1  0  0  0  0
 54 73  1  0  0  0  0
 55 72  1  0  0  0  0
 56 60  1  0  0  0  0
 56 81  1  0  0  0  0
 57 61  1  0  0  0  0
 57 71  1  0  0  0  0
 58 73  1  0  0  0  0
 59 60  1  0  0  0  0
 59 69  1  0  0  0  0
 60 79  1  0  0  0  0
 62 64  1  0  0  0  0
M  CHG  1  73   1
M  ISO  4  35 100  56 101  72 100  81 101
M  END
> <Batch ID>
0188

> <Smiles>
CC[100N:0](c1csc(NC(C)C(O)[101CH2:1][101O:1]c2ccc3c(c2)CN(C(=O)C(NC(=O)C(C)NC)C(C)(C)C)C(C(=O)NC2CCCc4ccccc42)C3)n1)[100C:0](=O)N1CCCC(n2nc(-c3ccc(Oc4ccc(F)cc4F)cc3)c(C(N)=O)c2N)C1

> <Shape>
0.270

> <Color>
0.075

> <Negative vol penalty>
0.000

$$$$

  -OEChem-04052305153D

 86 94  0     1  0  0  0  0  0999 V2000
  -19.3700  -15.6471   34.0582 C   0  0  0  0  0  0  0  0  0  0  0  0
  -20.2275  -15.9568   33.0073 C   0  0  0  0  0  0  0  0  0  0  0  0
  -23.2884   -9.7996   19.9126 C   0  0  0  0  0  0  0  0  0  0  0  0
  -23.7387   -9.9398   22.2821 C   0  0  0  0  0  0  0  0  0  0  0  0
  -19.7777  -14.7555   35.0494 C   0  0  0  0  0  0  0  0  0  0  0  0
  -21.4937  -15.3757   32.9478 C   0  0  0  0  0  0  0  0  0  0  0  0
  -22.6521  -13.7134   28.3067 C   0  0  0  0  0  0  0  0  0  0  0  0
  -22.5620   -8.6271   20.1200 C   0  0  0  0  0  0  0  0  0  0  0  0
  -23.0122   -8.7673   22.4895 C   0  0  0  0  0  0  0  0  0  0  0  0
  -23.0532  -14.6659   27.3709 C   0  0  0  0  0  0  0  0  0  0  0  0
  -19.7651   -7.8564   22.7060 C   0  0  0  0  0  0  0  0  0  0  0  0
  -18.8625   -7.8345   23.7692 C   0  0  0  0  0  0  0  0  0  0  0  0
  -25.3577  -14.0675   27.7584 C   0  0  0  0  0  0  0  0  0  0  0  0
  -20.0679   -5.9871   24.7546 C   0  0  0  0  0  0  0  0  0  0  0  0
  -23.8769  -10.4560   20.9936 C   0  0  0  0  0  0  0  0  0  0  0  0
  -24.1364  -12.9860   20.7955 C   0  0  0  0  0  0  0  0  0  0  0  0
  -21.0458  -14.1558   34.9969 C   0  0  0  0  0  0  0  0  0  0  0  0
  -23.6031  -12.9371   28.9845 C   0  0  0  0  0  0  0  0  0  0  0  0
  -21.9192  -14.4762   33.9400 C   0  0  0  0  0  0  0  0  0  0  0  0
  -24.9660  -13.1041   28.7005 C   0  0  0  0  0  0  0  0  0  0  0  0
  -22.4238   -8.1110   21.4084 C   0  0  0  0  0  0  0  0  0  0  0  0
  -24.4063  -14.8451   27.0987 C   0  0  0  0  0  0  0  0  0  0  0  0
  -20.8191   -6.9435   22.6670 C   0  0  0  0  0  0  0  0  0  0  0  0
  -19.0139   -6.8999   24.7935 C   0  0  0  0  0  0  0  0  0  0  0  0
  -20.9705   -6.0089   23.6914 C   0  0  0  0  0  0  0  0  0  0  0  0
  -24.6279  -11.6669   20.7800 C   0  0  0  0  0  0  0  0  0  0  0  0
  -31.2183  -14.2910   24.5740 C   0  0  0  0  0  0  0  0  0  0  0  0
  -25.2380  -13.7659   20.5409 C   0  0  0  0  0  0  0  0  0  0  0  0
  -32.0262  -15.2479   25.1518 C   0  0  0  0  0  0  0  0  0  0  0  0
  -29.6593  -15.5174   25.5097 C   0  0  0  0  0  0  0  0  0  0  0  0
  -22.8033  -13.4636   21.0201 C   0  0  0  0  0  0  0  0  0  0  0  0
  -24.4440  -12.5728   32.0281 C   0  0  0  0  0  0  0  0  0  0  0  0
  -26.3335  -10.2291   30.8201 C   0  0  0  0  0  0  0  0  0  0  0  0
  -28.0039   -8.9512   28.1324 C   0  0  0  0  0  0  0  0  0  0  0  0
  -27.1500  -15.5359   25.7144 C   0  0  0  0  0  0  0  0  0  0  0  0
  -31.1087  -12.9225   21.3617 C   0  0  0  0  0  0  0  0  0  0  0  0
  -21.4601  -13.2343   36.1167 C   0  0  0  0  0  0  0  0  0  0  0  0
  -23.1528  -11.8953   29.9715 C   0  0  0  0  0  0  0  0  0  0  0  0
  -26.0255  -12.2819   29.3860 C   0  0  0  0  0  0  0  0  0  0  0  0
  -22.6753  -12.3741   35.7797 C   0  0  0  0  0  0  0  0  0  0  0  0
  -29.4605  -13.6625   18.2937 C   0  0  0  0  0  0  0  0  0  0  0  0
  -23.7709  -13.2236   35.1435 C   0  0  0  0  0  0  0  0  0  0  0  0
  -27.9908  -13.3540   18.5844 C   0  0  0  0  0  0  0  0  0  0  0  0
  -30.3936  -12.6830   19.0021 C   0  0  0  0  0  0  0  0  0  0  0  0
  -28.7066  -12.2534   20.7465 C   0  0  0  0  0  0  0  0  0  0  0  0
  -23.2911  -13.8473   33.8273 C   0  0  1  0  0  0  0  0  0  0  0  0
  -24.2353  -11.5184   30.9782 C   0  0  1  0  0  0  0  0  0  0  0  0
  -27.7288  -13.2487   20.0989 C   0  0  2  0  0  0  0  0  0  0  0  0
  -29.4910   -7.0442   27.4620 C   0  0  0  0  0  0  0  0  0  0  0  0
  -26.0483  -17.8011   25.8358 C   0  0  0  0  0  0  0  0  0  0  0  0
  -30.7168  -11.3308   25.3547 C   0  0  0  0  0  0  0  0  0  0  0  0
  -32.4382  -10.6967   23.6653 C   0  0  0  0  0  0  0  0  0  0  0  0
  -28.6836  -11.5688   32.2314 C   0  0  0  0  0  0  0  0  0  0  0  0
  -30.2262  -10.2255   30.7878 C   0  0  0  0  0  0  0  0  0  0  0  0
  -28.6739   -9.0714   32.3629 C   0  0  0  0  0  0  0  0  0  0  0  0
  -26.0492   -7.9768   26.1353 C   0  0  0  0  0  0  0  0  0  0  0  0
  -31.6701  -13.1358   23.7697 C   0  0  1  0  0  0  0  0  0  0  0  0
  -27.7422  -10.1627   30.2814 C   0  0  1  0  0  0  0  0  0  0  0  0
  -28.0592   -7.5484   27.5547 C   0  0  2  0  0  0  0  0  0  0  0  0
  -26.0748  -16.3840   26.3889 C   0  0  1  0  0  0  0  0  0  1  0  0
  -31.9503  -11.8240   24.5848 C   0  0  0  0  0  0  0  0  0  0  0  0
  -28.8119  -10.2741   31.4042 C   0  0  0  0  0  0  0  0  0  0  0  0
  -25.9396  -11.6083   20.5347 N   0  0  0  0  0  0  0  0  0  0  0  0
  -29.8609  -14.4436   24.7785 N   0  0  0  0  0  0  0  0  0  0  0  0
  -26.2816  -12.9003   20.3937 N   0  0  0  0  0  0  0  0  0  0  0  0
  -25.5354  -11.2806   30.3476 N   0  0  0  0  0  0  0  0  0  0  0  0
  -30.0940  -12.6313   20.4351 N   0  0  0  0  0  0  0  0  0  0  0  0
  -25.4060  -15.1008   20.4307 N   0  0  0  0  0  0  0  0  0  0  0  0
  -33.3778  -15.3369   25.1101 N   0  0  0  0  0  0  0  0  0  0  0  0
  -21.7907  -12.5267   21.2672 N   0  0  0  0  0  0  0  0  0  0  0  0
  -28.4229  -16.0428   25.9547 N   0  0  0  0  0  0  0  0  0  0  0  0
  -23.3121  -12.8646   32.7651 N   0  0  0  0  0  0  0  0  0  0  0  0
  -27.8226   -8.9339   29.4992 N   0  0  0  0  0  0  0  0  0  0  0  0
  -30.7388  -12.8568   22.6994 N   0  0  0  0  0  0  0  0  0  0  0  0
  -27.4640   -7.5270   26.1886 N   0  3  0  0  0  0  0  0  0  0  0  0
  -22.5155  -14.6841   20.9860 O   0  0  0  0  0  0  0  0  0  0  0  0
  -25.5504  -13.0826   32.1609 O   0  0  0  0  0  0  0  0  0  0  0  0
  -25.9529   -9.3751   31.6248 O   0  0  0  0  0  0  0  0  0  0  0  0
  -28.1144   -9.9612   27.4409 O   0  0  0  0  0  0  0  0  0  0  0  0
  -26.8578  -14.5335   25.0686 O   0  0  0  0  0  0  0  0  0  0  0  0
  -32.2578  -13.2243   21.0218 O   0  0  0  0  0  0  0  0  0  0  0  0
  -21.7148   -6.9670   21.6112 O   0  0  0  0  0  0  0  0  0  0  0  0
  -24.8005  -15.7745   26.1863 O   0  0  0  0  0  0  0  0  0  1  0  0
  -18.1480   -6.8801   25.8153 F   0  0  0  0  0  0  0  0  0  0  0  0
  -21.9818   -5.1302   23.6600 F   0  0  0  0  0  0  0  0  0  0  0  0
  -31.0574  -16.3912   25.9858 S   0  0  0  0  0  0  0  0  0  0  0  0
  1  2  1  0  0  0  0
  1  5  2  0  0  0  0
  2  6  2  0  0  0  0
  3  8  2  0  0  0  0
  3 15  1  0  0  0  0
  4  9  1  0  0  0  0
  4 15  2  0  0  0  0
  5 17  1  0  0  0  0
  6 19  1  0  0  0  0
  7 10  2  0  0  0  0
  7 18  1  0  0  0  0
  8 21  1  0  0  0  0
  9 21  2  0  0  0  0
 10 22  1  0  0  0  0
 11 12  2  0  0  0  0
 11 23  1  0  0  0  0
 12 24  1  0  0  0  0
 13 20  1  0  0  0  0
 13 22  2  0  0  0  0
 14 24  2  0  0  0  0
 14 25  1  0  0  0  0
 15 26  1  0  0  0  0
 16 26  1  0  0  0  0
 16 28  2  0  0  0  0
 16 31  1  0  0  0  0
 17 19  2  0  0  0  0
 17 37  1  0  0  0  0
 18 20  2  0  0  0  0
 18 38  1  0  0  0  0
 19 46  1  0  0  0  0
 20 39  1  0  0  0  0
 21 82  1  0  0  0  0
 22 83  1  0  0  0  0
 23 25  2  0  0  0  0
 23 82  1  0  0  0  0
 24 84  1  0  0  0  0
 25 85  1  0  0  0  0
 26 63  2  0  0  0  0
 27 29  2  0  0  0  0
 27 57  1  0  0  0  0
 27 64  1  0  0  0  0
 28 65  1  0  0  0  0
 28 68  1  0  0  0  0
 29 69  1  0  0  0  0
 29 86  1  0  0  0  0
 30 64  2  0  0  0  0
 30 71  1  0  0  0  0
 30 86  1  0  0  0  0
 31 70  1  0  0  0  0
 31 76  2  0  0  0  0
 32 47  1  0  0  0  0
 32 72  1  0  0  0  0
 32 77  2  0  0  0  0
 33 58  1  0  0  0  0
 33 66  1  0  0  0  0
 33 78  2  0  0  0  0
 34 59  1  0  0  0  0
 34 73  1  0  0  0  0
 34 79  2  0  0  0  0
 35 60  1  0  0  0  0
 35 71  1  0  0  0  0
 35 80  2  0  0  0  0
 36 67  1  0  0  0  0
 36 74  1  0  0  0  0
 36 81  2  0  0  0  0
 37 40  1  0  0  0  0
 38 47  1  0  0  0  0
 39 66  1  0  0  0  0
 40 42  1  0  0  0  0
 41 43  1  0  0  0  0
 41 44  1  0  0  0  0
 42 46  1  0  0  0  0
 43 48  1  0  0  0  0
 44 67  1  0  0  0  0
 45 48  1  0  0  0  0
 45 67  1  0  0  0  0
 46 72  1  0  0  0  0
 47 66  1  0  0  0  0
 48 65  1  0  0  0  0
 49 59  1  0  0  0  0
 50 60  1  0  0  0  0
 51 61  1  0  0  0  0
 52 61  1  0  0  0  0
 53 62  1  0  0  0  0
 54 62  1  0  0  0  0
 55 62  1  0  0  0  0
 56 75  1  0  0  0  0
 57 61  1  0  0  0  0
 57 74  1  0  0  0  0
 58 62  1  0  0  0  0
 58 73  1  0  0  0  0
 59 75  1  0  0  0  0
 60 83  1  0  0  0  0
 63 65  1  0  0  0  0
M  CHG  1  75   1
M  ISO  4  36 100  60 101  74 100  83 101
M  END
> <Batch ID>
0188

> <Smiles>
CNC(C)C(=O)NC(C(=O)N1Cc2cc([101O:1][101CH:1](C)C(=O)Nc3nc(C([100NH:0][100C:0](=O)N4CCCC(n5nc(-c6ccc(Oc7ccc(F)cc7F)cc6)c(C(N)=O)c5N)C4)C(C)C)c(N)s3)ccc2CC1C(=O)NC1CCCc2ccccc21)C(C)(C)C

> <Shape>
0.133

> <Color>
0.161

> <Negative vol penalty>
0.000

$$$$

  -OEChem-04052305153D

 82 90  0     1  0  0  0  0  0999 V2000
  -24.4753  -24.8977   16.7634 C   0  0  0  0  0  0  0  0  0  0  0  0
  -23.5220  -25.3815   17.6537 C   0  0  0  0  0  0  0  0  0  0  0  0
  -27.2053  -16.3470   21.6716 C   0  0  0  0  0  0  0  0  0  0  0  0
  -25.8494  -16.9684   19.7710 C   0  0  0  0  0  0  0  0  0  0  0  0
  -25.8321  -25.0547   17.0435 C   0  0  0  0  0  0  0  0  0  0  0  0
  -23.9249  -26.0216   18.8252 C   0  0  0  0  0  0  0  0  0  0  0  0
  -21.2984  -30.2563   19.7272 C   0  0  0  0  0  0  0  0  0  0  0  0
  -27.0635  -15.0014   21.3329 C   0  0  0  0  0  0  0  0  0  0  0  0
  -25.7077  -15.6228   19.4322 C   0  0  0  0  0  0  0  0  0  0  0  0
  -20.0169  -30.1101   20.2564 C   0  0  0  0  0  0  0  0  0  0  0  0
  -28.4006  -12.8399   19.1029 C   0  0  0  0  0  0  0  0  0  0  0  0
  -29.5426  -12.0397   19.1348 C   0  0  0  0  0  0  0  0  0  0  0  0
  -20.8737  -30.6139   22.4545 C   0  0  0  0  0  0  0  0  0  0  0  0
  -28.5028  -10.6219   20.7919 C   0  0  0  0  0  0  0  0  0  0  0  0
  -26.5982  -17.3306   20.8907 C   0  0  0  0  0  0  0  0  0  0  0  0
  -27.7515  -19.6045   20.8102 C   0  0  0  0  0  0  0  0  0  0  0  0
  -26.2519  -25.7056   18.2143 C   0  0  0  0  0  0  0  0  0  0  0  0
  -22.3809  -30.5722   20.5607 C   0  0  0  0  0  0  0  0  0  0  0  0
  -25.2886  -26.1862   19.1218 C   0  0  0  0  0  0  0  0  0  0  0  0
  -22.1675  -30.7660   21.9330 C   0  0  0  0  0  0  0  0  0  0  0  0
  -26.3148  -14.6393   20.2132 C   0  0  0  0  0  0  0  0  0  0  0  0
  -19.8048  -30.2861   21.6207 C   0  0  0  0  0  0  0  0  0  0  0  0
  -27.3098  -12.5313   19.9155 C   0  0  0  0  0  0  0  0  0  0  0  0
  -29.5937  -10.9306   19.9792 C   0  0  0  0  0  0  0  0  0  0  0  0
  -27.3608  -11.4222   20.7600 C   0  0  0  0  0  0  0  0  0  0  0  0
  -26.7438  -18.7207   21.2405 C   0  0  0  0  0  0  0  0  0  0  0  0
  -27.4446  -20.7973   21.4181 C   0  0  0  0  0  0  0  0  0  0  0  0
  -21.0603  -23.8283   21.3958 C   0  0  0  0  0  0  0  0  0  0  0  0
  -19.5395  -25.3790   21.2607 C   0  0  0  0  0  0  0  0  0  0  0  0
  -28.8654  -19.3684   19.9389 C   0  0  0  0  0  0  0  0  0  0  0  0
  -25.1011  -29.1288   21.3487 C   0  0  0  0  0  0  0  0  0  0  0  0
  -25.6856  -31.9247   22.8861 C   0  0  0  0  0  0  0  0  0  0  0  0
  -18.3446  -27.0823   22.6802 C   0  0  0  0  0  0  0  0  0  0  0  0
  -24.4350  -34.7405   24.3537 C   0  0  0  0  0  0  0  0  0  0  0  0
  -22.3421  -23.1471   23.4547 C   0  0  0  0  0  0  0  0  0  0  0  0
  -27.7297  -25.8097   18.4971 C   0  0  0  0  0  0  0  0  0  0  0  0
  -23.7525  -30.7526   19.9702 C   0  0  0  0  0  0  0  0  0  0  0  0
  -23.2925  -31.1260   22.8674 C   0  0  0  0  0  0  0  0  0  0  0  0
  -28.0725  -26.8315   19.5780 C   0  0  0  0  0  0  0  0  0  0  0  0
  -25.3168  -22.5710   25.3246 C   0  0  0  0  0  0  0  0  0  0  0  0
  -27.1493  -26.6661   20.7811 C   0  0  0  0  0  0  0  0  0  0  0  0
  -26.1147  -21.6034   24.4475 C   0  0  0  0  0  0  0  0  0  0  0  0
  -23.8168  -22.2886   25.2612 C   0  0  0  0  0  0  0  0  0  0  0  0
  -24.0492  -21.2707   23.0298 C   0  0  0  0  0  0  0  0  0  0  0  0
  -25.6862  -26.9081   20.3910 C   0  0  1  0  0  0  0  0  0  0  0  0
  -24.8713  -30.5700   20.9911 C   0  0  1  0  0  0  0  0  0  0  0  0
  -25.5596  -21.5571   23.0104 C   0  0  2  0  0  0  0  0  0  0  0  0
  -25.1563  -36.8220   25.5555 C   0  0  0  0  0  0  0  0  0  0  0  0
  -16.4653  -29.9996   20.9771 C   0  0  0  0  0  0  0  0  0  0  0  0
  -26.2122  -30.2850   25.4049 C   0  0  0  0  0  0  0  0  0  0  0  0
  -25.9846  -32.3910   26.7394 C   0  0  0  0  0  0  0  0  0  0  0  0
  -27.8019  -32.1815   25.0434 C   0  0  0  0  0  0  0  0  0  0  0  0
  -23.2554  -36.4880   22.2766 C   0  0  0  0  0  0  0  0  0  0  0  0
  -17.2685  -28.1444   22.4770 C   0  0  0  0  0  0  0  0  0  0  0  0
  -25.4111  -32.4614   24.2702 C   0  0  1  0  0  0  0  0  0  0  0  0
  -24.8119  -36.2039   24.2094 C   0  0  2  0  0  0  0  0  0  0  0  0
  -17.6786  -29.2297   21.4815 C   0  0  2  0  0  0  0  0  0  1  0  0
  -26.3314  -31.8210   25.3474 C   0  0  0  0  0  0  0  0  0  0  0  0
  -25.8627  -19.3024   22.0586 N   0  0  0  0  0  0  0  0  0  0  0  0
  -20.3593  -24.7901   22.1034 N   0  0  0  0  0  0  0  0  0  0  0  0
  -20.8407  -23.6434   20.0942 N   0  0  0  0  0  0  0  0  0  0  0  0
  -26.3158  -20.5645   22.1474 N   0  0  0  0  0  0  0  0  0  0  0  0
  -24.6163  -31.2851   22.2432 N   0  0  0  0  0  0  0  0  0  0  0  0
  -23.3612  -22.2639   23.8695 N   0  0  0  0  0  0  0  0  0  0  0  0
  -28.0329  -22.0122   21.3946 N   0  0  0  0  0  0  0  0  0  0  0  0
  -29.0327  -18.0850   19.4010 N   0  0  0  0  0  0  0  0  0  0  0  0
  -22.0148  -23.0554   22.1023 N   0  0  0  0  0  0  0  0  0  0  0  0
  -18.6100  -26.4226   21.4831 N   0  0  0  0  0  0  0  0  0  0  0  0
  -25.4230  -28.3261   20.2709 N   0  0  0  0  0  0  0  0  0  0  0  0
  -25.5232  -33.9128   24.1748 N   0  0  0  0  0  0  0  0  0  0  0  0
  -23.6829  -36.9733   23.6140 N   0  3  0  0  0  0  0  0  0  0  0  0
  -29.6974  -20.2645   19.6591 O   0  0  0  0  0  0  0  0  0  0  0  0
  -24.9957  -28.7718   22.5162 O   0  0  0  0  0  0  0  0  0  0  0  0
  -26.8055  -32.0739   22.3908 O   0  0  0  0  0  0  0  0  0  0  0  0
  -18.8681  -26.8827   23.7712 O   0  0  0  0  0  0  0  0  0  0  0  0
  -23.2905  -34.3690   24.6039 O   0  0  0  0  0  0  0  0  0  0  0  0
  -21.8187  -23.9463   24.2352 O   0  0  0  0  0  0  0  0  0  0  0  0
  -26.1764  -13.3263   19.8822 O   0  0  0  0  0  0  0  0  0  0  0  0
  -18.5551  -30.1433   22.1399 O   0  0  0  0  0  0  0  0  0  1  0  0
  -30.6898  -10.1613   20.0086 F   0  0  0  0  0  0  0  0  0  0  0  0
  -26.3155  -11.1200   21.5422 F   0  0  0  0  0  0  0  0  0  0  0  0
  -19.6568  -24.7473   19.6694 S   0  0  0  0  0  0  0  0  0  0  0  0
  1  2  1  0  0  0  0
  1  5  2  0  0  0  0
  2  6  2  0  0  0  0
  3  8  2  0  0  0  0
  3 15  1  0  0  0  0
  4  9  1  0  0  0  0
  4 15  2  0  0  0  0
  5 17  1  0  0  0  0
  6 19  1  0  0  0  0
  7 10  2  0  0  0  0
  7 18  1  0  0  0  0
  8 21  1  0  0  0  0
  9 21  2  0  0  0  0
 10 22  1  0  0  0  0
 11 12  2  0  0  0  0
 11 23  1  0  0  0  0
 12 24  1  0  0  0  0
 13 20  1  0  0  0  0
 13 22  2  0  0  0  0
 14 24  2  0  0  0  0
 14 25  1  0  0  0  0
 15 26  1  0  0  0  0
 16 26  1  0  0  0  0
 16 27  2  0  0  0  0
 16 30  1  0  0  0  0
 17 19  2  0  0  0  0
 17 36  1  0  0  0  0
 18 20  2  0  0  0  0
 18 37  1  0  0  0  0
 19 45  1  0  0  0  0
 20 38  1  0  0  0  0
 21 78  1  0  0  0  0
 22 79  1  0  0  0  0
 23 25  2  0  0  0  0
 23 78  1  0  0  0  0
 24 80  1  0  0  0  0
 25 81  1  0  0  0  0
 26 59  2  0  0  0  0
 27 62  1  0  0  0  0
 27 65  1  0  0  0  0
 28 60  1  0  0  0  0
 28 61  2  0  0  0  0
 28 67  1  0  0  0  0
 29 60  2  0  0  0  0
 29 68  1  0  0  0  0
 29 82  1  0  0  0  0
 30 66  1  0  0  0  0
 30 72  2  0  0  0  0
 31 46  1  0  0  0  0
 31 69  1  0  0  0  0
 31 73  2  0  0  0  0
 32 55  1  0  0  0  0
 32 63  1  0  0  0  0
 32 74  2  0  0  0  0
 33 54  1  0  0  0  0
 33 68  1  0  0  0  0
 33 75  2  0  0  0  0
 34 56  1  0  0  0  0
 34 70  1  0  0  0  0
 34 76  2  0  0  0  0
 35 64  1  0  0  0  0
 35 67  1  0  0  0  0
 35 77  2  0  0  0  0
 36 39  1  0  0  0  0
 37 46  1  0  0  0  0
 38 63  1  0  0  0  0
 39 41  1  0  0  0  0
 40 42  1  0  0  0  0
 40 43  1  0  0  0  0
 41 45  1  0  0  0  0
 42 47  1  0  0  0  0
 43 64  1  0  0  0  0
 44 47  1  0  0  0  0
 44 64  1  0  0  0  0
 45 69  1  0  0  0  0
 46 63  1  0  0  0  0
 47 62  1  0  0  0  0
 48 56  1  0  0  0  0
 49 57  1  0  0  0  0
 50 58  1  0  0  0  0
 51 58  1  0  0  0  0
 52 58  1  0  0  0  0
 53 71  1  0  0  0  0
 54 57  1  0  0  0  0
 55 58  1  0  0  0  0
 55 70  1  0  0  0  0
 56 71  1  0  0  0  0
 57 79  1  0  0  0  0
 59 62  1  0  0  0  0
 61 82  1  0  0  0  0
M  CHG  1  71   1
M  ISO  4  35 100  57 101  67 100  79 101
M  END
> <Batch ID>
0188

> <Smiles>
CNC(C)C(=O)NC(C(=O)N1Cc2cc([101O:1][101CH:1](C)CC(=O)Nc3nc([100NH:0][100C:0](=O)N4CCCC(n5nc(-c6ccc(Oc7ccc(F)cc7F)cc6)c(C(N)=O)c5N)C4)ns3)ccc2CC1C(=O)NC1CCCc2ccccc21)C(C)(C)C

> <Shape>
0.289

> <Color>
0.057

> <Negative vol penalty>
0.000

$$$$

  -OEChem-04052305153D

 82 90  0     1  0  0  0  0  0999 V2000
  -30.4177  -34.2839   17.7289 C   0  0  0  0  0  0  0  0  0  0  0  0
  -30.2449  -33.0045   18.2472 C   0  0  0  0  0  0  0  0  0  0  0  0
  -21.9743  -10.1051   22.4141 C   0  0  0  0  0  0  0  0  0  0  0  0
  -23.6552   -9.8448   20.6983 C   0  0  0  0  0  0  0  0  0  0  0  0
  -29.7919  -35.3714   18.3367 C   0  0  0  0  0  0  0  0  0  0  0  0
  -29.4470  -32.8120   19.3745 C   0  0  0  0  0  0  0  0  0  0  0  0
  -26.3269  -28.8525   18.8933 C   0  0  0  0  0  0  0  0  0  0  0  0
  -21.6402   -8.7564   22.2914 C   0  0  0  0  0  0  0  0  0  0  0  0
  -23.3211   -8.4960   20.5756 C   0  0  0  0  0  0  0  0  0  0  0  0
  -26.8757  -27.5837   19.0741 C   0  0  0  0  0  0  0  0  0  0  0  0
  -22.8736   -5.7810   23.3203 C   0  0  0  0  0  0  0  0  0  0  0  0
  -22.7042   -5.0459   24.4935 C   0  0  0  0  0  0  0  0  0  0  0  0
  -25.9983  -27.5309   21.3205 C   0  0  0  0  0  0  0  0  0  0  0  0
  -20.4237   -4.5608   23.8603 C   0  0  0  0  0  0  0  0  0  0  0  0
  -22.9818  -10.6493   21.6175 C   0  0  0  0  0  0  0  0  0  0  0  0
  -24.2905  -12.6054   22.6016 C   0  0  0  0  0  0  0  0  0  0  0  0
  -28.9781  -35.1910   19.4663 C   0  0  0  0  0  0  0  0  0  0  0  0
  -25.6177  -29.4756   19.9302 C   0  0  0  0  0  0  0  0  0  0  0  0
  -28.8108  -33.8984   19.9988 C   0  0  0  0  0  0  0  0  0  0  0  0
  -25.4392  -28.8065   21.1495 C   0  0  0  0  0  0  0  0  0  0  0  0
  -22.3136   -7.9519   21.3722 C   0  0  0  0  0  0  0  0  0  0  0  0
  -26.7140  -26.9239   20.2888 C   0  0  0  0  0  0  0  0  0  0  0  0
  -21.8180   -5.9062   22.4171 C   0  0  0  0  0  0  0  0  0  0  0  0
  -21.4793   -4.4357   24.7635 C   0  0  0  0  0  0  0  0  0  0  0  0
  -20.5931   -5.2961   22.6871 C   0  0  0  0  0  0  0  0  0  0  0  0
  -27.5619  -19.0021   19.7659 C   0  0  0  0  0  0  0  0  0  0  0  0
  -23.3270  -12.0425   21.7433 C   0  0  0  0  0  0  0  0  0  0  0  0
  -26.2567  -19.1572   19.2616 C   0  0  0  0  0  0  0  0  0  0  0  0
  -24.2358  -13.9531   22.3423 C   0  0  0  0  0  0  0  0  0  0  0  0
  -28.1537  -20.2258   19.5689 C   0  0  0  0  0  0  0  0  0  0  0  0
  -25.1575  -11.9671   23.5484 C   0  0  0  0  0  0  0  0  0  0  0  0
  -26.0011  -32.1358   21.6273 C   0  0  0  0  0  0  0  0  0  0  0  0
  -23.0998  -31.3232   22.8292 C   0  0  0  0  0  0  0  0  0  0  0  0
  -20.8113  -28.8734   23.4681 C   0  0  0  0  0  0  0  0  0  0  0  0
  -23.9694  -18.2203   18.7754 C   0  0  0  0  0  0  0  0  0  0  0  0
  -28.3604  -36.4032   20.1171 C   0  0  0  0  0  0  0  0  0  0  0  0
  -25.0090  -30.8333   19.7102 C   0  0  0  0  0  0  0  0  0  0  0  0
  -24.6691  -29.4235   22.2873 C   0  0  0  0  0  0  0  0  0  0  0  0
  -27.2294  -36.0650   21.0850 C   0  0  0  0  0  0  0  0  0  0  0  0
  -20.8963  -16.6604   19.6701 C   0  0  0  0  0  0  0  0  0  0  0  0
  -27.6395  -34.9204   22.0062 C   0  0  0  0  0  0  0  0  0  0  0  0
  -21.3340  -15.3662   20.3598 C   0  0  0  0  0  0  0  0  0  0  0  0
  -21.8122  -17.0176   18.5008 C   0  0  0  0  0  0  0  0  0  0  0  0
  -23.6810  -15.7740   19.5158 C   0  0  0  0  0  0  0  0  0  0  0  0
  -27.9330  -33.6460   21.2054 C   0  0  1  0  0  0  0  0  0  0  0  0
  -24.7457  -31.5878   21.0097 C   0  0  1  0  0  0  0  0  0  0  0  0
  -22.8270  -15.4076   20.7406 C   0  0  2  0  0  0  0  0  0  0  0  0
  -18.5506  -28.5088   24.4944 C   0  0  0  0  0  0  0  0  0  0  0  0
  -24.3302  -31.5445   25.6125 C   0  0  0  0  0  0  0  0  0  0  0  0
  -22.3644  -30.2776   26.5062 C   0  0  0  0  0  0  0  0  0  0  0  0
  -22.0252  -32.4938   25.4125 C   0  0  0  0  0  0  0  0  0  0  0  0
  -19.6809  -27.8966   20.9134 C   0  0  0  0  0  0  0  0  0  0  0  0
  -27.3452  -22.4497   18.5567 C   0  0  0  0  0  0  0  0  0  0  0  0
  -27.3658  -24.8550   19.3137 C   0  0  0  0  0  0  0  0  0  1  0  0
  -22.6199  -30.4886   23.9920 C   0  0  1  0  0  0  0  0  0  0  0  0
  -19.3166  -28.8000   23.2134 C   0  0  2  0  0  0  0  0  0  0  0  0
  -27.2587  -23.4016   19.7479 C   0  0  1  0  0  0  0  0  0  0  0  0
  -22.8512  -31.1900   25.3602 C   0  0  0  0  0  0  0  0  0  0  0  0
  -22.7055  -12.9578   20.9949 N   0  0  0  0  0  0  0  0  0  0  0  0
  -26.0320  -20.3828   18.7807 N   0  0  0  0  0  0  0  0  0  0  0  0
  -23.2798  -14.1094   21.3822 N   0  0  0  0  0  0  0  0  0  0  0  0
  -27.2039  -21.0091   18.9819 N   0  0  0  0  0  0  0  0  0  0  0  0
  -24.0984  -30.7552   22.0255 N   0  0  0  0  0  0  0  0  0  0  0  0
  -23.2100  -17.0421   18.9372 N   0  0  0  0  0  0  0  0  0  0  0  0
  -24.9125  -15.0078   22.8443 N   0  0  0  0  0  0  0  0  0  0  0  0
  -29.3896  -20.6895   19.8457 N   0  0  0  0  0  0  0  0  0  0  0  0
  -25.0840  -10.5746   23.6887 N   0  0  0  0  0  0  0  0  0  0  0  0
  -25.2753  -18.1352   19.2568 N   0  0  0  0  0  0  0  0  0  0  0  0
  -26.6987  -33.0031   20.8084 N   0  0  0  0  0  0  0  0  0  0  0  0
  -21.2246  -30.1656   23.7144 N   0  0  0  0  0  0  0  0  0  0  0  0
  -19.0113  -27.7242   22.2283 N   0  3  0  0  0  0  0  0  0  0  0  0
  -25.9617  -12.6143   24.2611 O   0  0  0  0  0  0  0  0  0  0  0  0
  -26.3129  -31.7980   22.7632 O   0  0  0  0  0  0  0  0  0  0  0  0
  -22.6017  -32.4352   22.6367 O   0  0  0  0  0  0  0  0  0  0  0  0
  -21.5389  -27.8830   23.4541 O   0  0  0  0  0  0  0  0  0  0  0  0
  -23.4877  -19.2390   18.2732 O   0  0  0  0  0  0  0  0  0  0  0  0
  -21.9880   -6.6358   21.2524 O   0  0  0  0  0  0  0  0  0  0  0  0
  -27.2492  -25.6856   20.4682 O   0  0  0  0  0  0  0  0  0  1  0  0
  -21.3173   -3.7285   25.8894 F   0  0  0  0  0  0  0  0  0  0  0  0
  -19.5757   -5.4118   21.8226 F   0  0  0  0  0  0  0  0  0  0  0  0
  -28.1046  -17.9179   20.3104 F   0  0  0  0  0  0  0  0  0  0  0  0
  -26.0373  -23.2377   20.3373 F   0  0  0  0  0  0  0  0  0  0  0  0
  1  2  1  0  0  0  0
  1  5  2  0  0  0  0
  2  6  2  0  0  0  0
  3  8  2  0  0  0  0
  3 15  1  0  0  0  0
  4  9  1  0  0  0  0
  4 15  2  0  0  0  0
  5 17  1  0  0  0  0
  6 19  1  0  0  0  0
  7 10  2  0  0  0  0
  7 18  1  0  0  0  0
  8 21  1  0  0  0  0
  9 21  2  0  0  0  0
 10 22  1  0  0  0  0
 11 12  2  0  0  0  0
 11 23  1  0  0  0  0
 12 24  1  0  0  0  0
 13 20  1  0  0  0  0
 13 22  2  0  0  0  0
 14 24  2  0  0  0  0
 14 25  1  0  0  0  0
 15 27  1  0  0  0  0
 16 27  1  0  0  0  0
 16 29  2  0  0  0  0
 16 31  1  0  0  0  0
 17 19  2  0  0  0  0
 17 36  1  0  0  0  0
 18 20  2  0  0  0  0
 18 37  1  0  0  0  0
 19 45  1  0  0  0  0
 20 38  1  0  0  0  0
 21 77  1  0  0  0  0
 22 78  1  0  0  0  0
 23 25  2  0  0  0  0
 23 77  1  0  0  0  0
 24 79  1  0  0  0  0
 25 80  1  0  0  0  0
 26 28  1  0  0  0  0
 26 30  2  0  0  0  0
 26 81  1  0  0  0  0
 27 59  2  0  0  0  0
 28 60  2  0  0  0  0
 28 68  1  0  0  0  0
 29 61  1  0  0  0  0
 29 65  1  0  0  0  0
 30 62  1  0  0  0  0
 30 66  1  0  0  0  0
 31 67  1  0  0  0  0
 31 72  2  0  0  0  0
 32 46  1  0  0  0  0
 32 69  1  0  0  0  0
 32 73  2  0  0  0  0
 33 55  1  0  0  0  0
 33 63  1  0  0  0  0
 33 74  2  0  0  0  0
 34 56  1  0  0  0  0
 34 70  1  0  0  0  0
 34 75  2  0  0  0  0
 35 64  1  0  0  0  0
 35 68  1  0  0  0  0
 35 76  2  0  0  0  0
 36 39  1  0  0  0  0
 37 46  1  0  0  0  0
 38 63  1  0  0  0  0
 39 41  1  0  0  0  0
 40 42  1  0  0  0  0
 40 43  1  0  0  0  0
 41 45  1  0  0  0  0
 42 47  1  0  0  0  0
 43 64  1  0  0  0  0
 44 47  1  0  0  0  0
 44 64  1  0  0  0  0
 45 69  1  0  0  0  0
 46 63  1  0  0  0  0
 47 61  1  0  0  0  0
 48 56  1  0  0  0  0
 49 58  1  0  0  0  0
 50 58  1  0  0  0  0
 51 58  1  0  0  0  0
 52 71  1  0  0  0  0
 53 57  1  0  0  0  0
 53 62  1  0  0  0  0
 54 57  1  0  0  0  0
 54 78  1  0  0  0  0
 55 58  1  0  0  0  0
 55 70  1  0  0  0  0
 56 71  1  0  0  0  0
 57 82  1  0  0  0  0
 59 61  1  0  0  0  0
 60 62  1  0  0  0  0
M  CHG  1  71   1
M  ISO  4  35 100  54 101  68 100  78 101
M  END
> <Batch ID>
0188

> <Smiles>
CNC(C)C(=O)NC(C(=O)N1Cc2cc([101O:1][101CH2:1]C(F)Cn3nc([100NH:0][100C:0](=O)N4CCCC(n5nc(-c6ccc(Oc7ccc(F)cc7F)cc6)c(C(N)=O)c5N)C4)c(F)c3N)ccc2CC1C(=O)NC1CCCc2ccccc21)C(C)(C)C

> <Shape>
0.228

> <Color>
0.111

> <Negative vol penalty>
0.000

$$$$

  -OEChem-04052305153D

 83 91  0     1  0  0  0  0  0999 V2000
  -29.8999  -25.0874   17.5407 C   0  0  0  0  0  0  0  0  0  0  0  0
  -28.5220  -25.2787   17.5354 C   0  0  0  0  0  0  0  0  0  0  0  0
  -26.2571  -13.7276   20.0904 C   0  0  0  0  0  0  0  0  0  0  0  0
  -23.8447  -13.7243   20.2233 C   0  0  0  0  0  0  0  0  0  0  0  0
  -30.6458  -25.4302   18.6677 C   0  0  0  0  0  0  0  0  0  0  0  0
  -27.8889  -25.8121   18.6575 C   0  0  0  0  0  0  0  0  0  0  0  0
  -23.0209  -29.5275   18.7201 C   0  0  0  0  0  0  0  0  0  0  0  0
  -26.2999  -12.5502   20.8370 C   0  0  0  0  0  0  0  0  0  0  0  0
  -23.8875  -12.5468   20.9699 C   0  0  0  0  0  0  0  0  0  0  0  0
  -21.6618  -29.2895   18.9201 C   0  0  0  0  0  0  0  0  0  0  0  0
  -23.3444   -9.3448   22.6039 C   0  0  0  0  0  0  0  0  0  0  0  0
  -22.4520   -8.3279   22.2644 C   0  0  0  0  0  0  0  0  0  0  0  0
  -21.9086  -29.8722   21.2479 C   0  0  0  0  0  0  0  0  0  0  0  0
  -23.4121   -8.2248   20.0498 C   0  0  0  0  0  0  0  0  0  0  0  0
  -19.5069  -20.9092   20.5522 C   0  0  0  0  0  0  0  0  0  0  0  0
  -25.0295  -14.3147   19.7835 C   0  0  0  0  0  0  0  0  0  0  0  0
  -24.9072  -15.6478   17.6120 C   0  0  0  0  0  0  0  0  0  0  0  0
  -30.0229  -25.9770   19.8006 C   0  0  0  0  0  0  0  0  0  0  0  0
  -23.8376  -29.9298   19.7866 C   0  0  0  0  0  0  0  0  0  0  0  0
  -28.6270  -26.1613   19.8012 C   0  0  0  0  0  0  0  0  0  0  0  0
  -23.2773  -30.1172   21.0582 C   0  0  0  0  0  0  0  0  0  0  0  0
  -25.1151  -11.9598   21.2768 C   0  0  0  0  0  0  0  0  0  0  0  0
  -21.1061  -29.4591   20.1848 C   0  0  0  0  0  0  0  0  0  0  0  0
  -24.2706   -9.8017   21.6663 C   0  0  0  0  0  0  0  0  0  0  0  0
  -22.4859   -7.7679   20.9874 C   0  0  0  0  0  0  0  0  0  0  0  0
  -24.3045   -9.2417   20.3893 C   0  0  0  0  0  0  0  0  0  0  0  0
  -24.9847  -15.5313   19.0128 C   0  0  0  0  0  0  0  0  0  0  0  0
  -20.6798  -21.6247   20.6718 C   0  0  0  0  0  0  0  0  0  0  0  0
  -24.8917  -17.0015   17.3804 C   0  0  0  0  0  0  0  0  0  0  0  0
  -19.2589  -23.2722   20.9486 C   0  0  0  0  0  0  0  0  0  0  0  0
  -24.8538  -14.6238   16.6098 C   0  0  0  0  0  0  0  0  0  0  0  0
  -26.3725  -28.7003   21.2585 C   0  0  0  0  0  0  0  0  0  0  0  0
  -26.3578  -31.5433   22.8203 C   0  0  0  0  0  0  0  0  0  0  0  0
  -24.5859  -34.2682   23.8608 C   0  0  0  0  0  0  0  0  0  0  0  0
  -19.3165  -25.7525   21.3613 C   0  0  0  0  0  0  0  0  0  0  0  0
  -23.1982  -21.6881   20.6778 C   0  0  0  0  0  0  0  0  0  0  0  0
  -30.8646  -26.2882   21.0127 C   0  0  0  0  0  0  0  0  0  0  0  0
  -25.2965  -30.2083   19.5485 C   0  0  0  0  0  0  0  0  0  0  0  0
  -24.1069  -30.5673   22.2319 C   0  0  0  0  0  0  0  0  0  0  0  0
  -30.1669  -27.1965   22.0219 C   0  0  0  0  0  0  0  0  0  0  0  0
  -26.4141  -21.1385   19.2519 C   0  0  0  0  0  0  0  0  0  0  0  0
  -28.7415  -26.7166   22.2759 C   0  0  0  0  0  0  0  0  0  0  0  0
  -26.4032  -19.6501   18.8957 C   0  0  0  0  0  0  0  0  0  0  0  0
  -25.6651  -21.4155   20.5542 C   0  0  0  0  0  0  0  0  0  0  0  0
  -24.2860  -19.3965   20.2522 C   0  0  0  0  0  0  0  0  0  0  0  0
  -27.9072  -26.7603   20.9900 C   0  0  1  0  0  0  0  0  0  0  0  0
  -26.1371  -30.1175   20.8183 C   0  0  1  0  0  0  0  0  0  0  0  0
  -24.9727  -19.0767   18.9144 C   0  0  2  0  0  0  0  0  0  0  0  0
  -24.8373  -36.4066   25.1496 C   0  0  0  0  0  0  0  0  0  0  0  0
  -26.3578  -29.9663   25.4323 C   0  0  0  0  0  0  0  0  0  0  0  0
  -25.6577  -32.0590   26.6148 C   0  0  0  0  0  0  0  0  0  0  0  0
  -27.8490  -31.9739   25.4258 C   0  0  0  0  0  0  0  0  0  0  0  0
  -23.8378  -35.9069   21.5127 C   0  0  0  0  0  0  0  0  0  0  0  0
  -17.9700  -27.6160   20.2711 C   0  0  0  0  0  0  0  0  0  0  0  0
  -19.1612  -28.2453   19.5523 C   0  0  0  0  0  0  0  0  0  1  0  0
  -25.7112  -32.0681   24.0795 C   0  0  1  0  0  0  0  0  0  0  0  0
  -24.8822  -35.7546   23.7764 C   0  0  2  0  0  0  0  0  0  0  0  0
  -18.3348  -26.8929   21.5703 C   0  0  2  0  0  0  0  0  0  0  0  0
  -26.3784  -31.5065   25.3666 C   0  0  0  0  0  0  0  0  0  0  0  0
  -25.0164  -16.7165   19.6278 N   0  0  0  0  0  0  0  0  0  0  0  0
  -20.5396  -22.9799   20.8987 N   0  0  0  0  0  0  0  0  0  0  0  0
  -24.9586  -17.5906   18.6087 N   0  0  0  0  0  0  0  0  0  0  0  0
  -25.5295  -30.8207   21.9499 N   0  0  0  0  0  0  0  0  0  0  0  0
  -24.3166  -20.8470   20.4974 N   0  0  0  0  0  0  0  0  0  0  0  0
  -24.8276  -17.7335   16.2479 N   0  0  0  0  0  0  0  0  0  0  0  0
  -24.8791  -13.2843   17.0212 N   0  0  0  0  0  0  0  0  0  0  0  0
  -21.9673  -21.0417   20.5701 N   0  0  0  0  0  0  0  0  0  0  0  0
  -18.6684  -24.5406   21.1602 N   0  0  0  0  0  0  0  0  0  0  0  0
  -27.4945  -28.1171   20.7012 N   0  0  0  0  0  0  0  0  0  0  0  0
  -25.7403  -33.5231   23.9774 N   0  0  0  0  0  0  0  0  0  0  0  0
  -23.8847  -36.4328   22.9013 N   0  3  0  0  0  0  0  0  0  0  0  0
  -24.8024  -14.8890   15.3848 O   0  0  0  0  0  0  0  0  0  0  0  0
  -25.5947  -28.1753   22.0466 O   0  0  0  0  0  0  0  0  0  0  0  0
  -27.5520  -31.7725   22.6130 O   0  0  0  0  0  0  0  0  0  0  0  0
  -23.4444  -33.8137   23.8303 O   0  0  0  0  0  0  0  0  0  0  0  0
  -20.5259  -25.9602   21.3948 O   0  0  0  0  0  0  0  0  0  0  0  0
  -23.3227  -22.8981   20.8836 O   0  0  0  0  0  0  0  0  0  0  0  0
  -25.1564  -10.8107   22.0051 O   0  0  0  0  0  0  0  0  0  0  0  0
  -19.7799  -29.2269   20.3830 O   0  0  0  0  0  0  0  0  0  1  0  0
  -21.6299   -6.7904   20.6620 F   0  0  0  0  0  0  0  0  0  0  0  0
  -25.1928   -9.6756   19.4846 F   0  0  0  0  0  0  0  0  0  0  0  0
  -18.8381  -27.8011   22.4535 F   0  0  0  0  0  0  0  0  0  0  0  0
  -18.1678  -21.9656   20.7313 S   0  0  0  0  0  0  0  0  0  0  0  0
  1  2  1  0  0  0  0
  1  5  2  0  0  0  0
  2  6  2  0  0  0  0
  3  8  2  0  0  0  0
  3 16  1  0  0  0  0
  4  9  1  0  0  0  0
  4 16  2  0  0  0  0
  5 18  1  0  0  0  0
  6 20  1  0  0  0  0
  7 10  2  0  0  0  0
  7 19  1  0  0  0  0
  8 22  1  0  0  0  0
  9 22  2  0  0  0  0
 10 23  1  0  0  0  0
 11 12  2  0  0  0  0
 11 24  1  0  0  0  0
 12 25  1  0  0  0  0
 13 21  1  0  0  0  0
 13 23  2  0  0  0  0
 14 25  2  0  0  0  0
 14 26  1  0  0  0  0
 15 28  2  0  0  0  0
 15 83  1  0  0  0  0
 16 27  1  0  0  0  0
 17 27  1  0  0  0  0
 17 29  2  0  0  0  0
 17 31  1  0  0  0  0
 18 20  2  0  0  0  0
 18 37  1  0  0  0  0
 19 21  2  0  0  0  0
 19 38  1  0  0  0  0
 20 46  1  0  0  0  0
 21 39  1  0  0  0  0
 22 78  1  0  0  0  0
 23 79  1  0  0  0  0
 24 26  2  0  0  0  0
 24 78  1  0  0  0  0
 25 80  1  0  0  0  0
 26 81  1  0  0  0  0
 27 60  2  0  0  0  0
 28 61  1  0  0  0  0
 28 67  1  0  0  0  0
 29 62  1  0  0  0  0
 29 65  1  0  0  0  0
 30 61  2  0  0  0  0
 30 68  1  0  0  0  0
 30 83  1  0  0  0  0
 31 66  1  0  0  0  0
 31 72  2  0  0  0  0
 32 47  1  0  0  0  0
 32 69  1  0  0  0  0
 32 73  2  0  0  0  0
 33 56  1  0  0  0  0
 33 63  1  0  0  0  0
 33 74  2  0  0  0  0
 34 57  1  0  0  0  0
 34 70  1  0  0  0  0
 34 75  2  0  0  0  0
 35 58  1  0  0  0  0
 35 68  1  0  0  0  0
 35 76  2  0  0  0  0
 36 64  1  0  0  0  0
 36 67  1  0  0  0  0
 36 77  2  0  0  0  0
 37 40  1  0  0  0  0
 38 47  1  0  0  0  0
 39 63  1  0  0  0  0
 40 42  1  0  0  0  0
 41 43  1  0  0  0  0
 41 44  1  0  0  0  0
 42 46  1  0  0  0  0
 43 48  1  0  0  0  0
 44 64  1  0  0  0  0
 45 48  1  0  0  0  0
 45 64  1  0  0  0  0
 46 69  1  0  0  0  0
 47 63  1  0  0  0  0
 48 62  1  0  0  0  0
 49 57  1  0  0  0  0
 50 59  1  0  0  0  0
 51 59  1  0  0  0  0
 52 59  1  0  0  0  0
 53 71  1  0  0  0  0
 54 55  1  0  0  0  0
 54 58  1  0  0  0  0
 55 79  1  0  0  0  0
 56 59  1  0  0  0  0
 56 70  1  0  0  0  0
 57 71  1  0  0  0  0
 58 82  1  0  0  0  0
 60 62  1  0  0  0  0
M  CHG  1  71   1
M  ISO  4  36 100  55 101  67 100  79 101
M  END
> <Batch ID>
0188

> <Smiles>
CNC(C)C(=O)NC(C(=O)N1Cc2cc([101O:1][101CH2:1]CC(F)C(=O)Nc3nc([100NH:0][100C:0](=O)N4CCCC(n5nc(-c6ccc(Oc7ccc(F)cc7F)cc6)c(C(N)=O)c5N)C4)cs3)ccc2CC1C(=O)NC1CCCc2ccccc21)C(C)(C)C

> <Shape>
0.294

> <Color>
0.082

> <Negative vol penalty>
0.000

$$$$

  -OEChem-04052305153D

 85 93  0     1  0  0  0  0  0999 V2000
  -27.6718  -23.9713   21.3815 C   0  0  0  0  0  0  0  0  0  0  0  0
  -26.7503  -23.1107   20.7935 C   0  0  0  0  0  0  0  0  0  0  0  0
  -23.6343  -30.0627   21.2724 C   0  0  0  0  0  0  0  0  0  0  0  0
  -23.2453  -27.8402   22.1362 C   0  0  0  0  0  0  0  0  0  0  0  0
  -29.0052  -23.5836   21.5059 C   0  0  0  0  0  0  0  0  0  0  0  0
  -27.1621  -21.8622   20.3286 C   0  0  0  0  0  0  0  0  0  0  0  0
  -23.9762  -18.1519   21.6433 C   0  0  0  0  0  0  0  0  0  0  0  0
  -22.5010  -30.5219   21.9434 C   0  0  0  0  0  0  0  0  0  0  0  0
  -22.1119  -28.2994   22.8073 C   0  0  0  0  0  0  0  0  0  0  0  0
  -22.8001  -18.0310   20.9046 C   0  0  0  0  0  0  0  0  0  0  0  0
  -18.9039  -29.0534   22.0518 C   0  0  0  0  0  0  0  0  0  0  0  0
  -17.7469  -28.2781   21.9754 C   0  0  0  0  0  0  0  0  0  0  0  0
  -23.7877  -16.2312   19.6379 C   0  0  0  0  0  0  0  0  0  0  0  0
  -23.8851  -20.6679   15.1670 C   0  0  0  0  0  0  0  0  0  0  0  0
  -17.7534  -28.0313   24.3787 C   0  0  0  0  0  0  0  0  0  0  0  0
  -22.0467  -21.3456   13.9166 C   0  0  0  0  0  0  0  0  0  0  0  0
  -24.0064  -28.7218   21.3687 C   0  0  0  0  0  0  0  0  0  0  0  0
  -26.4962  -28.2055   21.1641 C   0  0  0  0  0  0  0  0  0  0  0  0
  -29.4316  -22.3258   21.0510 C   0  0  0  0  0  0  0  0  0  0  0  0
  -25.0727  -17.3192   21.3771 C   0  0  0  0  0  0  0  0  0  0  0  0
  -28.5028  -21.4578   20.4458 C   0  0  0  0  0  0  0  0  0  0  0  0
  -24.9758  -16.3418   20.3764 C   0  0  0  0  0  0  0  0  0  0  0  0
  -22.4736  -20.5923   14.9881 C   0  0  0  0  0  0  0  0  0  0  0  0
  -21.7398  -29.6403   22.7109 C   0  0  0  0  0  0  0  0  0  0  0  0
  -22.7066  -17.0725   19.8998 C   0  0  0  0  0  0  0  0  0  0  0  0
  -19.4858  -29.3176   23.2917 C   0  0  0  0  0  0  0  0  0  0  0  0
  -17.1716  -27.7671   23.1388 C   0  0  0  0  0  0  0  0  0  0  0  0
  -18.9105  -28.8066   24.4552 C   0  0  0  0  0  0  0  0  0  0  0  0
  -25.1767  -28.2467   20.6753 C   0  0  0  0  0  0  0  0  0  0  0  0
  -27.2288  -27.6747   20.1306 C   0  0  0  0  0  0  0  0  0  0  0  0
  -24.4834  -21.4759   14.2251 C   0  0  0  0  0  0  0  0  0  0  0  0
  -27.0135  -28.6107   22.4384 C   0  0  0  0  0  0  0  0  0  0  0  0
  -28.0632  -17.7893   20.4077 C   0  0  0  0  0  0  0  0  0  0  0  0
  -28.3321  -14.6053   20.9663 C   0  0  0  0  0  0  0  0  0  0  0  0
  -21.9209  -19.0498   16.9011 C   0  0  0  0  0  0  0  0  0  0  0  0
  -26.7912  -11.5736   21.2518 C   0  0  0  0  0  0  0  0  0  0  0  0
  -25.7618  -24.0962   15.6833 C   0  0  0  0  0  0  0  0  0  0  0  0
  -30.8928  -21.9700   21.1644 C   0  0  0  0  0  0  0  0  0  0  0  0
  -26.3249  -17.4444   22.2009 C   0  0  0  0  0  0  0  0  0  0  0  0
  -26.1172  -15.4098   20.0650 C   0  0  0  0  0  0  0  0  0  0  0  0
  -31.1725  -20.4800   20.9854 C   0  0  0  0  0  0  0  0  0  0  0  0
  -27.2876  -27.3488   15.3590 C   0  0  0  0  0  0  0  0  0  0  0  0
  -30.4219  -19.9378   19.7733 C   0  0  0  0  0  0  0  0  0  0  0  0
  -27.0357  -27.9446   16.7449 C   0  0  0  0  0  0  0  0  0  0  0  0
  -26.1041  -26.5056   14.8911 C   0  0  0  0  0  0  0  0  0  0  0  0
  -25.4561  -26.0208   17.2201 C   0  0  0  0  0  0  0  0  0  0  0  0
  -28.9060  -20.0855   19.9516 C   0  0  1  0  0  0  0  0  0  0  0  0
  -27.5599  -16.8876   21.4992 C   0  0  1  0  0  0  0  0  0  0  0  0
  -26.6329  -26.8552   17.7557 C   0  0  2  0  0  0  0  0  0  0  0  0
  -27.2780   -9.1486   21.6757 C   0  0  0  0  0  0  0  0  0  0  0  0
  -19.4126  -17.9200   19.6168 C   0  0  0  0  0  0  0  0  0  0  0  0
  -29.3872  -14.3216   18.1174 C   0  0  0  0  0  0  0  0  0  0  0  0
  -28.9536  -11.8609   18.2761 C   0  0  0  0  0  0  0  0  0  0  0  0
  -30.5913  -12.9391   19.8183 C   0  0  0  0  0  0  0  0  0  0  0  0
  -25.1245  -11.5469   23.6973 C   0  0  0  0  0  0  0  0  0  0  0  0
  -20.6675  -18.4104   17.4904 C   0  0  0  0  0  0  0  0  0  0  0  0
  -28.1194  -13.3546   20.1480 C   0  0  1  0  0  0  0  0  0  0  0  0
  -26.9015  -10.4825   22.3015 C   0  0  2  0  0  0  0  0  0  0  0  0
  -20.7837  -18.1356   18.9898 C   0  0  2  0  0  0  0  0  0  1  0  0
  -29.2419  -13.1378   19.0943 C   0  0  0  0  0  0  0  0  0  0  0  0
  -25.0739  -27.7795   19.4283 N   0  0  0  0  0  0  0  0  0  0  0  0
  -26.3383  -27.4397   19.1247 N   0  0  0  0  0  0  0  0  0  0  0  0
  -27.3226  -15.5756   20.8938 N   0  0  0  0  0  0  0  0  0  0  0  0
  -25.7728  -25.4849   15.8920 N   0  0  0  0  0  0  0  0  0  0  0  0
  -28.5414  -27.3908   19.9933 N   0  0  0  0  0  0  0  0  0  0  0  0
  -26.1228  -29.1353   23.3849 N   0  0  0  0  0  0  0  0  0  0  0  0
  -21.5941  -19.8388   15.8014 N   0  0  0  0  0  0  0  0  0  0  0  0
  -28.3990  -19.0591   20.8370 N   0  0  0  0  0  0  0  0  0  0  0  0
  -27.9772  -12.2611   21.1032 N   0  0  0  0  0  0  0  0  0  0  0  0
  -26.1148  -23.6086   14.3777 N   0  0  0  0  0  0  0  0  0  0  0  0
  -25.6037  -10.3172   23.0152 N   0  3  0  0  0  0  0  0  0  0  0  0
  -28.2322  -28.5259   22.7232 O   0  0  0  0  0  0  0  0  0  0  0  0
  -28.1424  -17.3640   19.2612 O   0  0  0  0  0  0  0  0  0  0  0  0
  -29.3528  -14.7141   21.6503 O   0  0  0  0  0  0  0  0  0  0  0  0
  -23.0362  -18.8588   17.3742 O   0  0  0  0  0  0  0  0  0  0  0  0
  -25.7575  -11.7916   20.6237 O   0  0  0  0  0  0  0  0  0  0  0  0
  -25.4715  -23.3014   16.5783 O   0  0  0  0  0  0  0  0  0  0  0  0
  -26.9747  -21.2228   14.8810 O   0  0  0  0  0  0  0  0  0  0  0  0
  -26.4165  -21.8481   12.5060 O   0  0  0  0  0  0  0  0  0  0  0  0
  -20.6340  -30.0881   23.3660 O   0  0  0  0  0  0  0  0  0  0  0  0
  -21.5600  -16.9529   19.1768 O   0  0  0  0  0  0  0  0  0  1  0  0
  -16.0597  -27.0239   23.0654 F   0  0  0  0  0  0  0  0  0  0  0  0
  -19.4643  -29.0580   25.6493 F   0  0  0  0  0  0  0  0  0  0  0  0
  -23.3451  -22.1394   13.1314 S   0  0  0  0  0  0  0  0  0  0  0  0
  -26.1594  -21.9526   13.9294 S   0  0  0  0  0  0  0  0  0  0  0  0
  1  2  1  0  0  0  0
  1  5  2  0  0  0  0
  2  6  2  0  0  0  0
  3  8  2  0  0  0  0
  3 17  1  0  0  0  0
  4  9  1  0  0  0  0
  4 17  2  0  0  0  0
  5 19  1  0  0  0  0
  6 21  1  0  0  0  0
  7 10  2  0  0  0  0
  7 20  1  0  0  0  0
  8 24  1  0  0  0  0
  9 24  2  0  0  0  0
 10 25  1  0  0  0  0
 11 12  2  0  0  0  0
 11 26  1  0  0  0  0
 12 27  1  0  0  0  0
 13 22  1  0  0  0  0
 13 25  2  0  0  0  0
 14 23  1  0  0  0  0
 14 31  2  0  0  0  0
 15 27  2  0  0  0  0
 15 28  1  0  0  0  0
 16 23  2  0  0  0  0
 16 84  1  0  0  0  0
 17 29  1  0  0  0  0
 18 29  1  0  0  0  0
 18 30  2  0  0  0  0
 18 32  1  0  0  0  0
 19 21  2  0  0  0  0
 19 38  1  0  0  0  0
 20 22  2  0  0  0  0
 20 39  1  0  0  0  0
 21 47  1  0  0  0  0
 22 40  1  0  0  0  0
 23 67  1  0  0  0  0
 24 80  1  0  0  0  0
 25 81  1  0  0  0  0
 26 28  2  0  0  0  0
 26 80  1  0  0  0  0
 27 82  1  0  0  0  0
 28 83  1  0  0  0  0
 29 61  2  0  0  0  0
 30 62  1  0  0  0  0
 30 65  1  0  0  0  0
 31 84  1  0  0  0  0
 31 85  1  0  0  0  0
 32 66  1  0  0  0  0
 32 72  2  0  0  0  0
 33 48  1  0  0  0  0
 33 68  1  0  0  0  0
 33 73  2  0  0  0  0
 34 57  1  0  0  0  0
 34 63  1  0  0  0  0
 34 74  2  0  0  0  0
 35 56  1  0  0  0  0
 35 67  1  0  0  0  0
 35 75  2  0  0  0  0
 36 58  1  0  0  0  0
 36 69  1  0  0  0  0
 36 76  2  0  0  0  0
 37 64  1  0  0  0  0
 37 70  1  0  0  0  0
 37 77  2  0  0  0  0
 38 41  1  0  0  0  0
 39 48  1  0  0  0  0
 40 63  1  0  0  0  0
 41 43  1  0  0  0  0
 42 44  1  0  0  0  0
 42 45  1  0  0  0  0
 43 47  1  0  0  0  0
 44 49  1  0  0  0  0
 45 64  1  0  0  0  0
 46 49  1  0  0  0  0
 46 64  1  0  0  0  0
 47 68  1  0  0  0  0
 48 63  1  0  0  0  0
 49 62  1  0  0  0  0
 50 58  1  0  0  0  0
 51 59  1  0  0  0  0
 52 60  1  0  0  0  0
 53 60  1  0  0  0  0
 54 60  1  0  0  0  0
 55 71  1  0  0  0  0
 56 59  1  0  0  0  0
 57 60  1  0  0  0  0
 57 69  1  0  0  0  0
 58 71  1  0  0  0  0
 59 81  1  0  0  0  0
 61 62  1  0  0  0  0
 70 85  1  0  0  0  0
 78 85  2  0  0  0  0
 79 85  2  0  0  0  0
M  CHG  1  71   1
M  ISO  4  37 100  59 101  70 100  81 101
M  END
> <Batch ID>
0188

> <Smiles>
CNC(C)C(=O)NC(C(=O)N1Cc2cc([101O:1][101CH:1](C)CC(=O)Nc3csc(S(=O)(=O)[100NH:0][100C:0](=O)N4CCCC(n5nc(-c6ccc(Oc7ccc(F)cc7F)cc6)c(C(N)=O)c5N)C4)c3)ccc2CC1C(=O)NC1CCCc2ccccc21)C(C)(C)C

> <Shape>
0.224

> <Color>
0.053

> <Negative vol penalty>
0.000

$$$$

  -OEChem-04052305153D

 83 91  0     1  0  0  0  0  0999 V2000
  -30.5899  -22.3114   25.2713 C   0  0  0  0  0  0  0  0  0  0  0  0
  -30.5289  -22.2087   23.8853 C   0  0  0  0  0  0  0  0  0  0  0  0
  -23.0573   -9.8421   20.0209 C   0  0  0  0  0  0  0  0  0  0  0  0
  -23.7121  -10.0226   22.3395 C   0  0  0  0  0  0  0  0  0  0  0  0
  -30.0096  -23.4039   25.9144 C   0  0  0  0  0  0  0  0  0  0  0  0
  -29.8866  -23.1980   23.1415 C   0  0  0  0  0  0  0  0  0  0  0  0
  -32.5392  -24.5885   19.0580 C   0  0  0  0  0  0  0  0  0  0  0  0
  -22.3066   -8.7056   20.3215 C   0  0  0  0  0  0  0  0  0  0  0  0
  -22.9613   -8.8861   22.6400 C   0  0  0  0  0  0  0  0  0  0  0  0
  -32.4973  -23.7402   17.9523 C   0  0  0  0  0  0  0  0  0  0  0  0
  -23.2879   -5.5341   22.3429 C   0  0  0  0  0  0  0  0  0  0  0  0
  -23.8734   -4.5684   23.1615 C   0  0  0  0  0  0  0  0  0  0  0  0
  -30.8577  -25.1771   16.9197 C   0  0  0  0  0  0  0  0  0  0  0  0
  -22.0956   -4.8559   24.7721 C   0  0  0  0  0  0  0  0  0  0  0  0
  -23.7602  -10.5006   21.0300 C   0  0  0  0  0  0  0  0  0  0  0  0
  -24.0990  -13.0122   20.7396 C   0  0  0  0  0  0  0  0  0  0  0  0
  -29.3682  -24.4120   25.1775 C   0  0  0  0  0  0  0  0  0  0  0  0
  -31.7312  -25.7335   19.1076 C   0  0  0  0  0  0  0  0  0  0  0  0
  -29.2960  -24.3043   23.7755 C   0  0  0  0  0  0  0  0  0  0  0  0
  -30.8931  -26.0396   18.0260 C   0  0  0  0  0  0  0  0  0  0  0  0
  -22.2585   -8.2276   21.6310 C   0  0  0  0  0  0  0  0  0  0  0  0
  -31.6543  -24.0329   16.8842 C   0  0  0  0  0  0  0  0  0  0  0  0
  -22.1063   -6.1608   22.7389 C   0  0  0  0  0  0  0  0  0  0  0  0
  -23.2773   -4.2293   24.3761 C   0  0  0  0  0  0  0  0  0  0  0  0
  -21.5101   -5.8217   23.9535 C   0  0  0  0  0  0  0  0  0  0  0  0
  -24.5364  -11.6743   20.7201 C   0  0  0  0  0  0  0  0  0  0  0  0
  -29.4269  -18.8350   20.4155 C   0  0  0  0  0  0  0  0  0  0  0  0
  -30.5197  -18.0649   20.7543 C   0  0  0  0  0  0  0  0  0  0  0  0
  -25.2041  -13.7401   20.3717 C   0  0  0  0  0  0  0  0  0  0  0  0
  -30.8422  -19.5964   18.9232 C   0  0  0  0  0  0  0  0  0  0  0  0
  -22.8091  -13.5491   21.0616 C   0  0  0  0  0  0  0  0  0  0  0  0
  -29.3901  -26.7464   21.0042 C   0  0  0  0  0  0  0  0  0  0  0  0
  -29.6507  -29.4503   19.2311 C   0  0  0  0  0  0  0  0  0  0  0  0
  -30.5995  -30.9097   16.2957 C   0  0  0  0  0  0  0  0  0  0  0  0
  -30.8768  -21.2836   17.0548 C   0  0  0  0  0  0  0  0  0  0  0  0
  -30.6704  -14.8061   20.7315 C   0  0  0  0  0  0  0  0  0  0  0  0
  -28.7144  -25.5501   25.9204 C   0  0  0  0  0  0  0  0  0  0  0  0
  -31.8078  -26.6526   20.2958 C   0  0  0  0  0  0  0  0  0  0  0  0
  -30.0208  -27.2674   18.0213 C   0  0  0  0  0  0  0  0  0  0  0  0
  -28.3791  -26.7449   25.0315 C   0  0  0  0  0  0  0  0  0  0  0  0
  -29.6501  -12.2452   18.4782 C   0  0  0  0  0  0  0  0  0  0  0  0
  -27.7024  -26.2805   23.7458 C   0  0  0  0  0  0  0  0  0  0  0  0
  -28.1954  -11.9747   18.8664 C   0  0  0  0  0  0  0  0  0  0  0  0
  -30.5110  -12.5597   19.6997 C   0  0  0  0  0  0  0  0  0  0  0  0
  -28.5458  -13.3783   20.9414 C   0  0  0  0  0  0  0  0  0  0  0  0
  -28.6297  -25.3697   22.9322 C   0  0  1  0  0  0  0  0  0  0  0  0
  -30.5618  -27.5166   20.4642 C   0  0  1  0  0  0  0  0  0  0  0  0
  -27.6268  -13.1112   19.7371 C   0  0  2  0  0  0  0  0  0  0  0  0
  -28.1023  -18.7999   21.0684 C   0  0  0  0  0  0  0  0  0  0  0  0
  -30.6535  -33.1295   15.1266 C   0  0  0  0  0  0  0  0  0  0  0  0
  -31.7923  -21.0690   14.7149 C   0  0  0  0  0  0  0  0  0  0  0  0
  -26.6544  -29.2382   18.6953 C   0  0  0  0  0  0  0  0  0  0  0  0
  -26.9466  -30.8633   16.8133 C   0  0  0  0  0  0  0  0  0  0  0  0
  -27.4711  -31.5576   19.1512 C   0  0  0  0  0  0  0  0  0  0  0  0
  -33.5509  -30.8564   16.0827 C   0  0  0  0  0  0  0  0  0  0  0  0
  -30.6730  -17.0422   21.8082 C   0  0  0  0  0  0  0  0  0  0  0  0
  -29.0214  -29.9575   17.9561 C   0  0  1  0  0  0  0  0  0  0  0  0
  -31.4186  -32.1551   16.0086 C   0  0  2  0  0  0  0  0  0  0  0  0
  -31.8754  -21.8229   16.0339 C   0  0  1  0  0  0  0  0  0  1  0  0
  -27.5383  -30.3799   18.1546 C   0  0  0  0  0  0  0  0  0  0  0  0
  -25.8192  -11.5562   20.3675 N   0  0  0  0  0  0  0  0  0  0  0  0
  -29.6101  -19.7140   19.3660 N   0  0  0  0  0  0  0  0  0  0  0  0
  -26.1975  -12.8293   20.1620 N   0  0  0  0  0  0  0  0  0  0  0  0
  -30.1265  -28.1316   19.2086 N   0  0  0  0  0  0  0  0  0  0  0  0
  -29.9174  -13.6470   20.4817 N   0  0  0  0  0  0  0  0  0  0  0  0
  -25.4134  -15.0640   20.2102 N   0  0  0  0  0  0  0  0  0  0  0  0
  -21.7859  -12.6606   21.4190 N   0  0  0  0  0  0  0  0  0  0  0  0
  -31.4511  -20.3064   17.8611 N   0  0  0  0  0  0  0  0  0  0  0  0
  -29.6226  -26.1556   22.2315 N   0  0  0  0  0  0  0  0  0  0  0  0
  -29.8873  -31.0265   17.4706 N   0  0  0  0  0  0  0  0  0  0  0  0
  -30.0306  -15.7904   21.4749 N   0  0  0  0  0  0  0  0  0  0  0  0
  -32.6879  -31.7923   15.3170 N   0  3  0  0  0  0  0  0  0  0  0  0
  -22.5666  -14.7791   21.0173 O   0  0  0  0  0  0  0  0  0  0  0  0
  -28.3515  -26.6934   20.3560 O   0  0  0  0  0  0  0  0  0  0  0  0
  -29.7242  -30.1990   20.2087 O   0  0  0  0  0  0  0  0  0  0  0  0
  -30.5894  -29.9326   15.5503 O   0  0  0  0  0  0  0  0  0  0  0  0
  -29.7293  -21.7162   17.1125 O   0  0  0  0  0  0  0  0  0  0  0  0
  -31.8252  -14.9552   20.3179 O   0  0  0  0  0  0  0  0  0  0  0  0
  -21.5258   -7.1188   21.9246 O   0  0  0  0  0  0  0  0  0  0  0  0
  -31.6110  -23.2063   15.8041 O   0  0  0  0  0  0  0  0  0  1  0  0
  -23.8388   -3.3008   25.1615 F   0  0  0  0  0  0  0  0  0  0  0  0
  -20.3743   -6.4194   24.3387 F   0  0  0  0  0  0  0  0  0  0  0  0
  -31.8351  -18.4472   19.7223 S   0  0  0  0  0  0  0  0  0  0  0  0
  1  2  1  0  0  0  0
  1  5  2  0  0  0  0
  2  6  2  0  0  0  0
  3  8  2  0  0  0  0
  3 15  1  0  0  0  0
  4  9  1  0  0  0  0
  4 15  2  0  0  0  0
  5 17  1  0  0  0  0
  6 19  1  0  0  0  0
  7 10  2  0  0  0  0
  7 18  1  0  0  0  0
  8 21  1  0  0  0  0
  9 21  2  0  0  0  0
 10 22  1  0  0  0  0
 11 12  2  0  0  0  0
 11 23  1  0  0  0  0
 12 24  1  0  0  0  0
 13 20  1  0  0  0  0
 13 22  2  0  0  0  0
 14 24  2  0  0  0  0
 14 25  1  0  0  0  0
 15 26  1  0  0  0  0
 16 26  1  0  0  0  0
 16 29  2  0  0  0  0
 16 31  1  0  0  0  0
 17 19  2  0  0  0  0
 17 37  1  0  0  0  0
 18 20  2  0  0  0  0
 18 38  1  0  0  0  0
 19 46  1  0  0  0  0
 20 39  1  0  0  0  0
 21 79  1  0  0  0  0
 22 80  1  0  0  0  0
 23 25  2  0  0  0  0
 23 79  1  0  0  0  0
 24 81  1  0  0  0  0
 25 82  1  0  0  0  0
 26 61  2  0  0  0  0
 27 28  2  0  0  0  0
 27 49  1  0  0  0  0
 27 62  1  0  0  0  0
 28 56  1  0  0  0  0
 28 83  1  0  0  0  0
 29 63  1  0  0  0  0
 29 66  1  0  0  0  0
 30 62  2  0  0  0  0
 30 68  1  0  0  0  0
 30 83  1  0  0  0  0
 31 67  1  0  0  0  0
 31 73  2  0  0  0  0
 32 47  1  0  0  0  0
 32 69  1  0  0  0  0
 32 74  2  0  0  0  0
 33 57  1  0  0  0  0
 33 64  1  0  0  0  0
 33 75  2  0  0  0  0
 34 58  1  0  0  0  0
 34 70  1  0  0  0  0
 34 76  2  0  0  0  0
 35 59  1  0  0  0  0
 35 68  1  0  0  0  0
 35 77  2  0  0  0  0
 36 65  1  0  0  0  0
 36 71  1  0  0  0  0
 36 78  2  0  0  0  0
 37 40  1  0  0  0  0
 38 47  1  0  0  0  0
 39 64  1  0  0  0  0
 40 42  1  0  0  0  0
 41 43  1  0  0  0  0
 41 44  1  0  0  0  0
 42 46  1  0  0  0  0
 43 48  1  0  0  0  0
 44 65  1  0  0  0  0
 45 48  1  0  0  0  0
 45 65  1  0  0  0  0
 46 69  1  0  0  0  0
 47 64  1  0  0  0  0
 48 63  1  0  0  0  0
 50 58  1  0  0  0  0
 51 59  1  0  0  0  0
 52 60  1  0  0  0  0
 53 60  1  0  0  0  0
 54 60  1  0  0  0  0
 55 72  1  0  0  0  0
 56 71  1  0  0  0  0
 57 60  1  0  0  0  0
 57 70  1  0  0  0  0
 58 72  1  0  0  0  0
 59 80  1  0  0  0  0
 61 63  1  0  0  0  0
M  CHG  1  72   1
M  ISO  4  36 100  59 101  71 100  80 101
M  END
> <Batch ID>
0188

> <Smiles>
CNC(C)C(=O)NC(C(=O)N1Cc2cc([101O:1][101CH:1](C)C(=O)Nc3nc(C)c(C[100NH:0][100C:0](=O)N4CCCC(n5nc(-c6ccc(Oc7ccc(F)cc7F)cc6)c(C(N)=O)c5N)C4)s3)ccc2CC1C(=O)NC1CCCc2ccccc21)C(C)(C)C

> <Shape>
0.256

> <Color>
0.223

> <Negative vol penalty>
0.000

$$$$

  -OEChem-04052305153D

 87 95  0     1  0  0  0  0  0999 V2000
  -28.2110  -20.6064    8.8623 C   0  0  0  0  0  0  0  0  0  0  0  0
  -29.0930  -20.3641    9.9105 C   0  0  0  0  0  0  0  0  0  0  0  0
  -23.0048   -9.7980   20.1479 C   0  0  0  0  0  0  0  0  0  0  0  0
  -23.6937  -10.0785   22.4466 C   0  0  0  0  0  0  0  0  0  0  0  0
  -27.8219  -21.9124    8.5679 C   0  0  0  0  0  0  0  0  0  0  0  0
  -29.5873  -21.4281   10.6644 C   0  0  0  0  0  0  0  0  0  0  0  0
  -29.4887  -20.4942   15.6406 C   0  0  0  0  0  0  0  0  0  0  0  0
  -22.2416   -8.6887   20.5120 C   0  0  0  0  0  0  0  0  0  0  0  0
  -22.9304   -8.9692   22.8107 C   0  0  0  0  0  0  0  0  0  0  0  0
  -30.4918  -19.6736   16.1545 C   0  0  0  0  0  0  0  0  0  0  0  0
  -21.4505   -5.9961   24.2872 C   0  0  0  0  0  0  0  0  0  0  0  0
  -22.0313   -5.0633   25.1463 C   0  0  0  0  0  0  0  0  0  0  0  0
  -31.6875  -21.6242   16.9191 C   0  0  0  0  0  0  0  0  0  0  0  0
  -23.7850   -4.6685   23.5321 C   0  0  0  0  0  0  0  0  0  0  0  0
  -23.7309  -10.4929   21.1152 C   0  0  0  0  0  0  0  0  0  0  0  0
  -24.1026  -12.9825   20.7009 C   0  0  0  0  0  0  0  0  0  0  0  0
  -28.3041  -22.9920    9.3246 C   0  0  0  0  0  0  0  0  0  0  0  0
  -29.5829  -21.8889   15.7528 C   0  0  0  0  0  0  0  0  0  0  0  0
  -29.2053  -22.7499   10.3790 C   0  0  0  0  0  0  0  0  0  0  0  0
  -30.6830  -22.4602   16.4081 C   0  0  0  0  0  0  0  0  0  0  0  0
  -22.2044   -8.2743   21.8433 C   0  0  0  0  0  0  0  0  0  0  0  0
  -31.5929  -20.2386   16.7913 C   0  0  0  0  0  0  0  0  0  0  0  0
  -22.0369   -6.2651   23.0505 C   0  0  0  0  0  0  0  0  0  0  0  0
  -23.1985   -4.3995   24.7688 C   0  0  0  0  0  0  0  0  0  0  0  0
  -23.2042   -5.6013   22.6730 C   0  0  0  0  0  0  0  0  0  0  0  0
  -24.5200  -11.6385   20.7396 C   0  0  0  0  0  0  0  0  0  0  0  0
  -30.6368  -19.2769   22.2983 C   0  0  0  0  0  0  0  0  0  0  0  0
  -31.7573  -18.8134   21.6412 C   0  0  0  0  0  0  0  0  0  0  0  0
  -25.2132  -13.6750   20.2844 C   0  0  0  0  0  0  0  0  0  0  0  0
  -30.5118  -17.0157   21.4774 C   0  0  0  0  0  0  0  0  0  0  0  0
  -22.8252  -13.5537   21.0135 C   0  0  0  0  0  0  0  0  0  0  0  0
  -29.7629  -24.2982   13.6872 C   0  0  0  0  0  0  0  0  0  0  0  0
  -29.5230  -26.1045   16.3709 C   0  0  0  0  0  0  0  0  0  0  0  0
  -29.9543  -26.3481   19.7475 C   0  0  0  0  0  0  0  0  0  0  0  0
  -30.6820  -14.6979   20.5053 C   0  0  0  0  0  0  0  0  0  0  0  0
  -27.8919  -24.3906    8.9387 C   0  0  0  0  0  0  0  0  0  0  0  0
  -28.4793  -22.7591   15.2168 C   0  0  0  0  0  0  0  0  0  0  0  0
  -30.8216  -23.9509   16.5725 C   0  0  0  0  0  0  0  0  0  0  0  0
  -28.1686  -25.4283   10.0235 C   0  0  0  0  0  0  0  0  0  0  0  0
  -29.6160  -12.0218   18.4126 C   0  0  0  0  0  0  0  0  0  0  0  0
  -29.5768  -25.2531   10.5831 C   0  0  0  0  0  0  0  0  0  0  0  0
  -28.1608  -11.7941   18.8283 C   0  0  0  0  0  0  0  0  0  0  0  0
  -30.4960  -12.3887   19.6062 C   0  0  0  0  0  0  0  0  0  0  0  0
  -28.5550  -13.2882   20.8281 C   0  0  0  0  0  0  0  0  0  0  0  0
  -29.7438  -23.8754   11.2354 C   0  0  1  0  0  0  0  0  0  0  0  0
  -28.9300  -24.1887   14.9331 C   0  0  1  0  0  0  0  0  0  0  0  0
  -27.6172  -12.9796   19.6496 C   0  0  2  0  0  0  0  0  0  0  0  0
  -29.7068  -27.9612   21.6537 C   0  0  0  0  0  0  0  0  0  0  0  0
  -32.0576  -27.5480   15.4753 C   0  0  0  0  0  0  0  0  0  0  0  0
  -32.2863  -28.4435   17.8021 C   0  0  0  0  0  0  0  0  0  0  0  0
  -30.2902  -29.0382   16.4292 C   0  0  0  0  0  0  0  0  0  0  0  0
  -34.6065  -17.8421   21.5057 C   0  0  0  0  0  0  0  0  0  0  0  0
  -35.1371  -20.1789   20.7832 C   0  0  0  0  0  0  0  0  0  0  0  0
  -27.9881  -24.6098   21.1155 C   0  0  0  0  0  0  0  0  0  0  0  0
  -33.2818  -19.9204   18.4351 C   0  0  0  0  0  0  0  0  0  1  0  0
  -30.5052  -26.6948   17.3536 C   0  0  1  0  0  0  0  0  0  0  0  0
  -29.0393  -26.8594   20.8456 C   0  0  2  0  0  0  0  0  0  0  0  0
  -33.7140  -18.7353   19.2925 C   0  0  2  0  0  0  0  0  0  0  0  0
  -30.3669  -20.5899   22.9196 C   0  0  0  0  0  0  0  0  0  0  0  0
  -31.2835  -27.9031   16.7604 C   0  0  0  0  0  0  0  0  0  0  0  0
  -34.0758  -19.0694   20.7554 C   0  0  0  0  0  0  0  0  0  0  0  0
  -25.7960  -11.4842   20.3766 N   0  0  0  0  0  0  0  0  0  0  0  0
  -31.6876  -17.5169   21.1701 N   0  0  0  0  0  0  0  0  0  0  0  0
  -26.1901  -12.7402   20.1057 N   0  0  0  0  0  0  0  0  0  0  0  0
  -29.7196  -24.7598   16.0261 N   0  0  0  0  0  0  0  0  0  0  0  0
  -29.9210  -13.5221   20.3340 N   0  0  0  0  0  0  0  0  0  0  0  0
  -25.4396  -14.9863   20.0573 N   0  0  0  0  0  0  0  0  0  0  0  0
  -21.7940  -12.6990   21.4261 N   0  0  0  0  0  0  0  0  0  0  0  0
  -32.8981  -19.5660   21.4476 N   0  0  0  0  0  0  0  0  0  0  0  0
  -30.0194  -15.7197   21.1846 N   0  0  0  0  0  0  0  0  0  0  0  0
  -29.1250  -23.8572   12.5435 N   0  0  0  0  0  0  0  0  0  0  0  0
  -29.7410  -27.0086   18.5561 N   0  0  0  0  0  0  0  0  0  0  0  0
  -28.6740  -25.7517   21.7732 N   0  3  0  0  0  0  0  0  0  0  0  0
  -22.6002  -14.7837   20.9137 O   0  0  0  0  0  0  0  0  0  0  0  0
  -30.8994  -24.7508   13.7581 O   0  0  0  0  0  0  0  0  0  0  0  0
  -28.6105  -26.8085   15.9311 O   0  0  0  0  0  0  0  0  0  0  0  0
  -30.7786  -25.4548   19.9295 O   0  0  0  0  0  0  0  0  0  0  0  0
  -31.8267  -14.8011   20.0569 O   0  0  0  0  0  0  0  0  0  0  0  0
  -21.4596   -7.1921   22.1990 O   0  0  0  0  0  0  0  0  0  0  0  0
  -32.5737  -19.4399   17.2931 O   0  0  0  0  0  0  0  0  0  1  0  0
  -23.7570   -3.5048   25.5946 F   0  0  0  0  0  0  0  0  0  0  0  0
  -23.7728   -5.8564   21.4866 F   0  0  0  0  0  0  0  0  0  0  0  0
  -34.8190  -18.1916   18.6941 F   0  0  0  0  0  0  0  0  0  0  0  0
  -31.4043  -21.4819   22.8203 F   0  0  0  0  0  0  0  0  0  0  0  0
  -29.2919  -21.2529   22.3848 F   0  0  0  0  0  0  0  0  0  0  0  0
  -30.0995  -20.5069   24.2610 F   0  0  0  0  0  0  0  0  0  0  0  0
  -29.4404  -18.0485   22.3320 S   0  0  0  0  0  0  0  0  0  0  0  0
  1  2  1  0  0  0  0
  1  5  2  0  0  0  0
  2  6  2  0  0  0  0
  3  8  2  0  0  0  0
  3 15  1  0  0  0  0
  4  9  1  0  0  0  0
  4 15  2  0  0  0  0
  5 17  1  0  0  0  0
  6 19  1  0  0  0  0
  7 10  2  0  0  0  0
  7 18  1  0  0  0  0
  8 21  1  0  0  0  0
  9 21  2  0  0  0  0
 10 22  1  0  0  0  0
 11 12  2  0  0  0  0
 11 23  1  0  0  0  0
 12 24  1  0  0  0  0
 13 20  1  0  0  0  0
 13 22  2  0  0  0  0
 14 24  2  0  0  0  0
 14 25  1  0  0  0  0
 15 26  1  0  0  0  0
 16 26  1  0  0  0  0
 16 29  2  0  0  0  0
 16 31  1  0  0  0  0
 17 19  2  0  0  0  0
 17 36  1  0  0  0  0
 18 20  2  0  0  0  0
 18 37  1  0  0  0  0
 19 45  1  0  0  0  0
 20 38  1  0  0  0  0
 21 79  1  0  0  0  0
 22 80  1  0  0  0  0
 23 25  2  0  0  0  0
 23 79  1  0  0  0  0
 24 81  1  0  0  0  0
 25 82  1  0  0  0  0
 26 62  2  0  0  0  0
 27 28  2  0  0  0  0
 27 59  1  0  0  0  0
 27 87  1  0  0  0  0
 28 63  1  0  0  0  0
 28 69  1  0  0  0  0
 29 64  1  0  0  0  0
 29 67  1  0  0  0  0
 30 63  2  0  0  0  0
 30 70  1  0  0  0  0
 30 87  1  0  0  0  0
 31 68  1  0  0  0  0
 31 74  2  0  0  0  0
 32 46  1  0  0  0  0
 32 71  1  0  0  0  0
 32 75  2  0  0  0  0
 33 56  1  0  0  0  0
 33 65  1  0  0  0  0
 33 76  2  0  0  0  0
 34 57  1  0  0  0  0
 34 72  1  0  0  0  0
 34 77  2  0  0  0  0
 35 66  1  0  0  0  0
 35 70  1  0  0  0  0
 35 78  2  0  0  0  0
 36 39  1  0  0  0  0
 37 46  1  0  0  0  0
 38 65  1  0  0  0  0
 39 41  1  0  0  0  0
 40 42  1  0  0  0  0
 40 43  1  0  0  0  0
 41 45  1  0  0  0  0
 42 47  1  0  0  0  0
 43 66  1  0  0  0  0
 44 47  1  0  0  0  0
 44 66  1  0  0  0  0
 45 71  1  0  0  0  0
 46 65  1  0  0  0  0
 47 64  1  0  0  0  0
 48 57  1  0  0  0  0
 49 60  1  0  0  0  0
 50 60  1  0  0  0  0
 51 60  1  0  0  0  0
 52 61  1  0  0  0  0
 53 61  1  0  0  0  0
 54 73  1  0  0  0  0
 55 58  1  0  0  0  0
 55 80  1  0  0  0  0
 56 60  1  0  0  0  0
 56 72  1  0  0  0  0
 57 73  1  0  0  0  0
 58 61  1  0  0  0  0
 58 83  1  0  0  0  0
 59 84  1  0  0  0  0
 59 85  1  0  0  0  0
 59 86  1  0  0  0  0
 61 69  1  0  0  0  0
 62 64  1  0  0  0  0
M  CHG  1  73   1
M  ISO  4  35 100  55 101  70 100  80 101
M  END
> <Batch ID>
0188

> <Smiles>
CNC(C)C(=O)NC(C(=O)N1Cc2cc([101O:1][101CH2:1]C(F)C(C)(C)Nc3nc([100NH:0][100C:0](=O)N4CCCC(n5nc(-c6ccc(Oc7ccc(F)cc7F)cc6)c(C(N)=O)c5N)C4)sc3C(F)(F)F)ccc2CC1C(=O)NC1CCCc2ccccc21)C(C)(C)C

> <Shape>
0.220

> <Color>
0.201

> <Negative vol penalty>
0.000

$$$$

  -OEChem-04052305153D

 88 96  0     1  0  0  0  0  0999 V2000
  -30.5529  -21.2075   21.4091 C   0  0  0  0  0  0  0  0  0  0  0  0
  -29.1955  -21.3688   21.6673 C   0  0  0  0  0  0  0  0  0  0  0  0
  -29.7199  -27.5389   20.9308 C   0  0  0  0  0  0  0  0  0  0  0  0
  -27.9906  -26.9726   19.3416 C   0  0  0  0  0  0  0  0  0  0  0  0
  -30.9906  -20.1383   20.6285 C   0  0  0  0  0  0  0  0  0  0  0  0
  -28.2747  -20.4616   21.1442 C   0  0  0  0  0  0  0  0  0  0  0  0
  -24.8070  -19.0329   24.5469 C   0  0  0  0  0  0  0  0  0  0  0  0
  -30.3688  -26.3358   20.6534 C   0  0  0  0  0  0  0  0  0  0  0  0
  -28.6395  -25.7695   19.0641 C   0  0  0  0  0  0  0  0  0  0  0  0
  -23.7680  -19.9246   24.8101 C   0  0  0  0  0  0  0  0  0  0  0  0
  -31.2840  -24.7321   17.2336 C   0  0  0  0  0  0  0  0  0  0  0  0
  -31.4152  -24.3619   15.8953 C   0  0  0  0  0  0  0  0  0  0  0  0
  -22.3210  -18.6594   23.3525 C   0  0  0  0  0  0  0  0  0  0  0  0
  -30.1617  -22.3429   16.3309 C   0  0  0  0  0  0  0  0  0  0  0  0
  -18.1210  -26.7902   23.2451 C   0  0  0  0  0  0  0  0  0  0  0  0
  -28.5307  -27.8573   20.2749 C   0  0  0  0  0  0  0  0  0  0  0  0
  -28.0481  -30.3363   19.9155 C   0  0  0  0  0  0  0  0  0  0  0  0
  -30.0756  -19.2121   20.1036 C   0  0  0  0  0  0  0  0  0  0  0  0
  -24.6136  -17.9522   23.6746 C   0  0  0  0  0  0  0  0  0  0  0  0
  -28.7004  -19.3799   20.3548 C   0  0  0  0  0  0  0  0  0  0  0  0
  -23.3584  -17.7539   23.0819 C   0  0  0  0  0  0  0  0  0  0  0  0
  -19.0610  -26.2687   22.3837 C   0  0  0  0  0  0  0  0  0  0  0  0
  -29.8286  -25.4511   19.7201 C   0  0  0  0  0  0  0  0  0  0  0  0
  -22.5257  -19.7396   24.2106 C   0  0  0  0  0  0  0  0  0  0  0  0
  -30.5917  -23.9077   18.1207 C   0  0  0  0  0  0  0  0  0  0  0  0
  -30.8540  -23.1673   15.4439 C   0  0  0  0  0  0  0  0  0  0  0  0
  -30.0305  -22.7132   17.6693 C   0  0  0  0  0  0  0  0  0  0  0  0
  -19.9159  -27.2763   21.8508 C   0  0  0  0  0  0  0  0  0  0  0  0
  -27.8597  -29.0998   20.5614 C   0  0  0  0  0  0  0  0  0  0  0  0
  -19.5966  -28.5297   22.3252 C   0  0  0  0  0  0  0  0  0  0  0  0
  -27.1820  -31.1916   20.5519 C   0  0  0  0  0  0  0  0  0  0  0  0
  -28.9272  -30.6811   18.8367 C   0  0  0  0  0  0  0  0  0  0  0  0
  -25.8875  -17.0483   20.9062 C   0  0  0  0  0  0  0  0  0  0  0  0
  -19.9532  -22.1989   23.5061 C   0  0  0  0  0  0  0  0  0  0  0  0
  -16.9471  -23.9822   21.8964 C   0  0  0  0  0  0  0  0  0  0  0  0
  -24.0689  -14.4041   21.3785 C   0  0  0  0  0  0  0  0  0  0  0  0
  -21.3392  -12.9924   22.8627 C   0  0  0  0  0  0  0  0  0  0  0  0
  -22.0923  -30.3286   23.5852 C   0  0  0  0  0  0  0  0  0  0  0  0
  -30.5918  -18.0993   19.2261 C   0  0  0  0  0  0  0  0  0  0  0  0
  -25.7366  -16.9840   23.4220 C   0  0  0  0  0  0  0  0  0  0  0  0
  -23.0933  -16.5978   22.1537 C   0  0  0  0  0  0  0  0  0  0  0  0
  -29.5860  -16.9695   19.0204 C   0  0  0  0  0  0  0  0  0  0  0  0
  -25.0535  -31.9058   24.7769 C   0  0  0  0  0  0  0  0  0  0  0  0
  -28.2103  -17.5345   18.6813 C   0  0  0  0  0  0  0  0  0  0  0  0
  -26.1255  -31.4771   23.7734 C   0  0  0  0  0  0  0  0  0  0  0  0
  -24.0455  -30.7887   25.0377 C   0  0  0  0  0  0  0  0  0  0  0  0
  -24.4875  -29.7994   22.8241 C   0  0  0  0  0  0  0  0  0  0  0  0
  -27.6732  -18.4027   19.8256 C   0  0  1  0  0  0  0  0  0  0  0  0
  -25.5777  -16.2122   22.1156 C   0  0  1  0  0  0  0  0  0  0  0  0
  -25.4949  -30.9118   22.4865 C   0  0  2  0  0  0  0  0  0  0  0  0
  -14.4327  -23.7070   21.9146 C   0  0  0  0  0  0  0  0  0  0  0  0
  -20.0899  -10.8225   23.0306 C   0  0  0  0  0  0  0  0  0  0  0  0
  -22.8974  -14.8662   18.5993 C   0  0  0  0  0  0  0  0  0  0  0  0
  -21.0394  -13.2986   19.1980 C   0  0  0  0  0  0  0  0  0  0  0  0
  -23.3932  -12.4749   19.1379 C   0  0  0  0  0  0  0  0  0  0  0  0
  -21.7863  -12.8273   25.7836 C   0  0  0  0  0  0  0  0  0  0  0  0
  -20.2400  -29.8239   22.0124 C   0  0  0  0  0  0  0  0  0  0  0  0
  -18.9008  -22.5229   22.4549 C   0  0  0  0  0  0  0  0  0  0  0  0
  -15.7169  -23.6349   22.7211 C   0  0  0  0  0  0  0  0  0  0  0  0
  -20.5492  -20.8066   23.4289 C   0  0  0  0  0  0  0  0  0  1  0  0
  -18.2834  -23.9101   22.6238 C   0  0  1  0  0  0  0  0  0  0  0  0
  -22.6603  -13.9970   21.0189 C   0  0  1  0  0  0  0  0  0  0  0  0
  -21.1715  -11.7000   23.6412 C   0  0  2  0  0  0  0  0  0  0  0  0
  -22.5028  -13.6822   19.5044 C   0  0  0  0  0  0  0  0  0  0  0  0
  -26.9458  -29.1598   21.5337 N   0  0  0  0  0  0  0  0  0  0  0  0
  -26.5523  -30.4445   21.5035 N   0  0  0  0  0  0  0  0  0  0  0  0
  -24.2249  -15.6822   21.9333 N   0  0  0  0  0  0  0  0  0  0  0  0
  -23.4834  -30.2979   23.7771 N   0  0  0  0  0  0  0  0  0  0  0  0
  -26.9054  -32.5023   20.3848 N   0  0  0  0  0  0  0  0  0  0  0  0
  -29.7495  -29.6813   18.2993 N   0  0  0  0  0  0  0  0  0  0  0  0
  -19.1592  -24.9237   22.0748 N   0  0  0  0  0  0  0  0  0  0  0  0
  -27.1666  -17.5710   20.8961 N   0  0  0  0  0  0  0  0  0  0  0  0
  -22.3196  -12.8846   21.8991 N   0  0  0  0  0  0  0  0  0  0  0  0
  -21.6433  -29.8508   22.3601 N   0  0  0  0  0  0  0  0  0  0  0  0
  -20.7984  -11.9912   25.0543 N   0  3  0  0  0  0  0  0  0  0  0  0
  -28.9939  -31.8452   18.3742 O   0  0  0  0  0  0  0  0  0  0  0  0
  -25.0300  -17.2062   20.0451 O   0  0  0  0  0  0  0  0  0  0  0  0
  -20.3023  -23.0048   24.3672 O   0  0  0  0  0  0  0  0  0  0  0  0
  -16.8714  -24.2860   20.7056 O   0  0  0  0  0  0  0  0  0  0  0  0
  -24.9956  -13.6142   21.1813 O   0  0  0  0  0  0  0  0  0  0  0  0
  -20.6652  -13.9958   23.0845 O   0  0  0  0  0  0  0  0  0  0  0  0
  -21.3088  -30.7555   24.4402 O   0  0  0  0  0  0  0  0  0  0  0  0
  -30.4617  -24.2770   19.4490 O   0  0  0  0  0  0  0  0  0  0  0  0
  -21.5100  -20.6088   24.4653 O   0  0  0  0  0  0  0  0  0  1  0  0
  -30.9788  -22.8127   14.1582 F   0  0  0  0  0  0  0  0  0  0  0  0
  -29.3633  -21.9177   18.5165 F   0  0  0  0  0  0  0  0  0  0  0  0
  -20.9093  -27.0360   20.9917 F   0  0  0  0  0  0  0  0  0  0  0  0
  -18.2712  -28.4881   23.4086 S   0  0  0  0  0  0  0  0  0  0  0  0
  1  2  1  0  0  0  0
  1  5  2  0  0  0  0
  2  6  2  0  0  0  0
  3  8  2  0  0  0  0
  3 16  1  0  0  0  0
  4  9  1  0  0  0  0
  4 16  2  0  0  0  0
  5 18  1  0  0  0  0
  6 20  1  0  0  0  0
  7 10  2  0  0  0  0
  7 19  1  0  0  0  0
  8 23  1  0  0  0  0
  9 23  2  0  0  0  0
 10 24  1  0  0  0  0
 11 12  2  0  0  0  0
 11 25  1  0  0  0  0
 12 26  1  0  0  0  0
 13 21  1  0  0  0  0
 13 24  2  0  0  0  0
 14 26  2  0  0  0  0
 14 27  1  0  0  0  0
 15 22  2  0  0  0  0
 15 88  1  0  0  0  0
 16 29  1  0  0  0  0
 17 29  1  0  0  0  0
 17 31  2  0  0  0  0
 17 32  1  0  0  0  0
 18 20  2  0  0  0  0
 18 39  1  0  0  0  0
 19 21  2  0  0  0  0
 19 40  1  0  0  0  0
 20 48  1  0  0  0  0
 21 41  1  0  0  0  0
 22 28  1  0  0  0  0
 22 71  1  0  0  0  0
 23 83  1  0  0  0  0
 24 84  1  0  0  0  0
 25 27  2  0  0  0  0
 25 83  1  0  0  0  0
 26 85  1  0  0  0  0
 27 86  1  0  0  0  0
 28 30  2  0  0  0  0
 28 87  1  0  0  0  0
 29 65  2  0  0  0  0
 30 57  1  0  0  0  0
 30 88  1  0  0  0  0
 31 66  1  0  0  0  0
 31 69  1  0  0  0  0
 32 70  1  0  0  0  0
 32 76  2  0  0  0  0
 33 49  1  0  0  0  0
 33 72  1  0  0  0  0
 33 77  2  0  0  0  0
 34 58  1  0  0  0  0
 34 60  1  0  0  0  0
 34 78  2  0  0  0  0
 35 59  1  0  0  0  0
 35 61  1  0  0  0  0
 35 79  2  0  0  0  0
 36 62  1  0  0  0  0
 36 67  1  0  0  0  0
 36 80  2  0  0  0  0
 37 63  1  0  0  0  0
 37 73  1  0  0  0  0
 37 81  2  0  0  0  0
 38 68  1  0  0  0  0
 38 74  1  0  0  0  0
 38 82  2  0  0  0  0
 39 42  1  0  0  0  0
 40 49  1  0  0  0  0
 41 67  1  0  0  0  0
 42 44  1  0  0  0  0
 43 45  1  0  0  0  0
 43 46  1  0  0  0  0
 44 48  1  0  0  0  0
 45 50  1  0  0  0  0
 46 68  1  0  0  0  0
 47 50  1  0  0  0  0
 47 68  1  0  0  0  0
 48 72  1  0  0  0  0
 49 67  1  0  0  0  0
 50 66  1  0  0  0  0
 51 59  1  0  0  0  0
 52 63  1  0  0  0  0
 53 64  1  0  0  0  0
 54 64  1  0  0  0  0
 55 64  1  0  0  0  0
 56 75  1  0  0  0  0
 57 74  1  0  0  0  0
 58 61  1  0  0  0  0
 60 84  1  0  0  0  0
 61 71  1  0  0  0  0
 62 64  1  0  0  0  0
 62 73  1  0  0  0  0
 63 75  1  0  0  0  0
 65 66  1  0  0  0  0
M  CHG  1  75   1
M  ISO  4  38 100  60 101  74 100  84 101
M  END
> <Batch ID>
0188

> <Smiles>
CCC(=O)C(CC(=O)[101CH2:1][101O:1]c1ccc2c(c1)CN(C(=O)C(NC(=O)C(C)NC)C(C)(C)C)C(C(=O)NC1CCCc3ccccc31)C2)Nc1csc(C[100NH:0][100C:0](=O)N2CCCC(n3nc(-c4ccc(Oc5ccc(F)cc5F)cc4)c(C(N)=O)c3N)C2)c1F

> <Shape>
0.245

> <Color>
0.053

> <Negative vol penalty>
0.000

$$$$

  -OEChem-04052305153D

 84 92  0     1  0  0  0  0  0999 V2000
  -22.0063  -22.7241   22.0251 C   0  0  0  0  0  0  0  0  0  0  0  0
  -23.3135  -23.1845   22.1457 C   0  0  0  0  0  0  0  0  0  0  0  0
  -23.4519  -14.5495   20.6566 C   0  0  0  0  0  0  0  0  0  0  0  0
  -24.9021  -14.9693   22.5428 C   0  0  0  0  0  0  0  0  0  0  0  0
  -20.9986  -23.5921   21.6065 C   0  0  0  0  0  0  0  0  0  0  0  0
  -23.6141  -24.5129   21.8468 C   0  0  0  0  0  0  0  0  0  0  0  0
  -26.6413  -26.6446   25.3018 C   0  0  0  0  0  0  0  0  0  0  0  0
  -23.0783  -13.3275   21.2157 C   0  0  0  0  0  0  0  0  0  0  0  0
  -24.5285  -13.7473   23.1021 C   0  0  0  0  0  0  0  0  0  0  0  0
  -27.9983  -26.3311   25.2395 C   0  0  0  0  0  0  0  0  0  0  0  0
  -22.0168   -9.9330   21.9738 C   0  0  0  0  0  0  0  0  0  0  0  0
  -21.9756   -8.8197   21.1346 C   0  0  0  0  0  0  0  0  0  0  0  0
  -28.4238  -28.4230   24.1161 C   0  0  0  0  0  0  0  0  0  0  0  0
  -24.3257   -9.0989   20.6486 C   0  0  0  0  0  0  0  0  0  0  0  0
  -30.5325  -23.7807   18.8676 C   0  0  0  0  0  0  0  0  0  0  0  0
  -24.3639  -15.3704   21.3201 C   0  0  0  0  0  0  0  0  0  0  0  0
  -24.1331  -17.8823   20.9396 C   0  0  0  0  0  0  0  0  0  0  0  0
  -21.2852  -24.9343   21.3117 C   0  0  0  0  0  0  0  0  0  0  0  0
  -26.1629  -27.8468   24.7611 C   0  0  0  0  0  0  0  0  0  0  0  0
  -22.6095  -25.3993   21.4227 C   0  0  0  0  0  0  0  0  0  0  0  0
  -27.0606  -28.7506   24.1751 C   0  0  0  0  0  0  0  0  0  0  0  0
  -23.6166  -12.9264   22.4385 C   0  0  0  0  0  0  0  0  0  0  0  0
  -28.8894  -27.2191   24.6440 C   0  0  0  0  0  0  0  0  0  0  0  0
  -23.2125  -10.6294   22.1504 C   0  0  0  0  0  0  0  0  0  0  0  0
  -23.1300   -8.4026   20.4720 C   0  0  0  0  0  0  0  0  0  0  0  0
  -24.3669  -10.2123   21.4878 C   0  0  0  0  0  0  0  0  0  0  0  0
  -24.7506  -16.6326   20.7427 C   0  0  0  0  0  0  0  0  0  0  0  0
  -24.8724  -18.7543   20.1783 C   0  0  0  0  0  0  0  0  0  0  0  0
  -29.6173  -22.9743   19.5113 C   0  0  0  0  0  0  0  0  0  0  0  0
  -29.7654  -25.2410   20.3130 C   0  0  0  0  0  0  0  0  0  0  0  0
  -22.9933  -18.2244   21.7392 C   0  0  0  0  0  0  0  0  0  0  0  0
  -24.1267  -28.6103   22.4428 C   0  0  0  0  0  0  0  0  0  0  0  0
  -24.6197  -31.6247   23.5350 C   0  0  0  0  0  0  0  0  0  0  0  0
  -26.6507  -33.8097   25.1926 C   0  0  0  0  0  0  0  0  0  0  0  0
  -29.7674  -20.7204   18.3959 C   0  0  0  0  0  0  0  0  0  0  0  0
  -20.1712  -25.8228   20.8174 C   0  0  0  0  0  0  0  0  0  0  0  0
  -24.7000  -28.1823   24.8603 C   0  0  0  0  0  0  0  0  0  0  0  0
  -26.6006  -30.0635   23.5980 C   0  0  0  0  0  0  0  0  0  0  0  0
  -20.5056  -27.3109   20.8804 C   0  0  0  0  0  0  0  0  0  0  0  0
  -28.4486  -17.8782   16.7048 C   0  0  0  0  0  0  0  0  0  0  0  0
  -21.8981  -27.5696   20.3139 C   0  0  0  0  0  0  0  0  0  0  0  0
  -27.3182  -17.4036   17.6208 C   0  0  0  0  0  0  0  0  0  0  0  0
  -29.6406  -18.4055   17.5016 C   0  0  0  0  0  0  0  0  0  0  0  0
  -28.1858  -18.9636   19.4098 C   0  0  0  0  0  0  0  0  0  0  0  0
  -22.9706  -26.8398   21.1315 C   0  0  1  0  0  0  0  0  0  0  0  0
  -24.2488  -29.2016   23.8187 C   0  0  1  0  0  0  0  0  0  0  0  0
  -26.9371  -18.4839   18.6519 C   0  0  2  0  0  0  0  0  0  0  0  0
  -26.8017  -36.2147   25.8930 C   0  0  0  0  0  0  0  0  0  0  0  0
  -31.2681  -24.7770   24.8448 C   0  0  0  0  0  0  0  0  0  0  0  0
  -25.3314  -32.4108   20.6739 C   0  0  0  0  0  0  0  0  0  0  0  0
  -26.3649  -34.5034   21.5800 C   0  0  0  0  0  0  0  0  0  0  0  0
  -23.9269  -34.0807   21.8959 C   0  0  0  0  0  0  0  0  0  0  0  0
  -26.7318  -33.0895   28.0620 C   0  0  0  0  0  0  0  0  0  0  0  0
  -27.6514  -27.3536   19.9877 C   0  0  0  0  0  0  0  0  0  0  0  0
  -31.4963  -26.0898   22.7047 C   0  0  0  0  0  0  0  0  0  0  0  0
  -29.5679  -26.5331   21.0724 C   0  0  1  0  0  0  0  0  0  0  0  0
  -25.6014  -32.7280   23.2220 C   0  0  1  0  0  0  0  0  0  0  0  0
  -26.3636  -34.8146   26.2936 C   0  0  2  0  0  0  0  0  0  0  0  0
  -30.5759  -25.7279   23.8769 C   0  0  2  0  0  0  0  0  0  1  0  0
  -30.8417  -27.0801   21.7349 C   0  0  2  0  0  0  0  0  0  0  0  0
  -25.3148  -33.4052   21.8520 C   0  0  0  0  0  0  0  0  0  0  0  0
  -30.6185  -25.0809   19.3257 N   0  0  0  0  0  0  0  0  0  0  0  0
  -25.8012  -16.7003   19.9207 N   0  0  0  0  0  0  0  0  0  0  0  0
  -25.8495  -18.0031   19.5942 N   0  0  0  0  0  0  0  0  0  0  0  0
  -25.1598  -30.3432   23.7135 N   0  0  0  0  0  0  0  0  0  0  0  0
  -29.2043  -19.4281   18.4549 N   0  0  0  0  0  0  0  0  0  0  0  0
  -24.7754  -20.0827   19.9581 N   0  0  0  0  0  0  0  0  0  0  0  0
  -22.3517  -17.2065   22.4580 N   0  0  0  0  0  0  0  0  0  0  0  0
  -29.2514  -21.6174   19.3308 N   0  0  0  0  0  0  0  0  0  0  0  0
  -23.2409  -27.5529   22.3615 N   0  0  0  0  0  0  0  0  0  0  0  0
  -25.5652  -33.6413   24.3591 N   0  0  0  0  0  0  0  0  0  0  0  0
  -27.0845  -34.4356   27.5417 N   0  3  0  0  0  0  0  0  0  0  0  0
  -22.5467  -19.3949   21.8011 O   0  0  0  0  0  0  0  0  0  0  0  0
  -24.7861  -29.0797   21.5228 O   0  0  0  0  0  0  0  0  0  0  0  0
  -23.4187  -31.8914   23.6250 O   0  0  0  0  0  0  0  0  0  0  0  0
  -27.7311  -33.2347   25.0807 O   0  0  0  0  0  0  0  0  0  0  0  0
  -30.6233  -21.0178   17.5587 O   0  0  0  0  0  0  0  0  0  0  0  0
  -23.2520  -11.7341   22.9845 O   0  0  0  0  0  0  0  0  0  0  0  0
  -30.2144  -26.9152   24.5812 O   0  0  0  0  0  0  0  0  0  1  0  0
  -29.0476  -27.5172   20.1764 O   0  0  0  0  0  0  0  0  0  0  0  0
  -23.0906   -7.3325   19.6673 F   0  0  0  0  0  0  0  0  0  0  0  0
  -25.5188  -10.8765   21.6545 F   0  0  0  0  0  0  0  0  0  0  0  0
  -31.7412  -27.4050   20.7638 F   0  0  0  0  0  0  0  0  0  0  0  0
  -28.8280  -23.8694   20.7430 S   0  0  0  0  0  0  0  0  0  0  0  0
  1  2  1  0  0  0  0
  1  5  2  0  0  0  0
  2  6  2  0  0  0  0
  3  8  2  0  0  0  0
  3 16  1  0  0  0  0
  4  9  1  0  0  0  0
  4 16  2  0  0  0  0
  5 18  1  0  0  0  0
  6 20  1  0  0  0  0
  7 10  2  0  0  0  0
  7 19  1  0  0  0  0
  8 22  1  0  0  0  0
  9 22  2  0  0  0  0
 10 23  1  0  0  0  0
 11 12  2  0  0  0  0
 11 24  1  0  0  0  0
 12 25  1  0  0  0  0
 13 21  1  0  0  0  0
 13 23  2  0  0  0  0
 14 25  2  0  0  0  0
 14 26  1  0  0  0  0
 15 29  2  0  0  0  0
 15 62  1  0  0  0  0
 16 27  1  0  0  0  0
 17 27  1  0  0  0  0
 17 28  2  0  0  0  0
 17 31  1  0  0  0  0
 18 20  2  0  0  0  0
 18 36  1  0  0  0  0
 19 21  2  0  0  0  0
 19 37  1  0  0  0  0
 20 45  1  0  0  0  0
 21 38  1  0  0  0  0
 22 78  1  0  0  0  0
 23 79  1  0  0  0  0
 24 26  2  0  0  0  0
 24 78  1  0  0  0  0
 25 81  1  0  0  0  0
 26 82  1  0  0  0  0
 27 63  2  0  0  0  0
 28 64  1  0  0  0  0
 28 67  1  0  0  0  0
 29 69  1  0  0  0  0
 29 84  1  0  0  0  0
 30 56  1  0  0  0  0
 30 62  2  0  0  0  0
 30 84  1  0  0  0  0
 31 68  1  0  0  0  0
 31 73  2  0  0  0  0
 32 46  1  0  0  0  0
 32 70  1  0  0  0  0
 32 74  2  0  0  0  0
 33 57  1  0  0  0  0
 33 65  1  0  0  0  0
 33 75  2  0  0  0  0
 34 58  1  0  0  0  0
 34 71  1  0  0  0  0
 34 76  2  0  0  0  0
 35 66  1  0  0  0  0
 35 69  1  0  0  0  0
 35 77  2  0  0  0  0
 36 39  1  0  0  0  0
 37 46  1  0  0  0  0
 38 65  1  0  0  0  0
 39 41  1  0  0  0  0
 40 42  1  0  0  0  0
 40 43  1  0  0  0  0
 41 45  1  0  0  0  0
 42 47  1  0  0  0  0
 43 66  1  0  0  0  0
 44 47  1  0  0  0  0
 44 66  1  0  0  0  0
 45 70  1  0  0  0  0
 46 65  1  0  0  0  0
 47 64  1  0  0  0  0
 48 58  1  0  0  0  0
 49 59  1  0  0  0  0
 50 61  1  0  0  0  0
 51 61  1  0  0  0  0
 52 61  1  0  0  0  0
 53 72  1  0  0  0  0
 54 80  1  0  0  0  0
 55 59  1  0  0  0  0
 55 60  1  0  0  0  0
 56 60  1  0  0  0  0
 56 80  1  0  0  0  0
 57 61  1  0  0  0  0
 57 71  1  0  0  0  0
 58 72  1  0  0  0  0
 59 79  1  0  0  0  0
 60 83  1  0  0  0  0
 63 64  1  0  0  0  0
M  CHG  1  72   1
M  ISO  4  35 100  59 101  69 100  79 101
M  END
> <Batch ID>
0188

> <Smiles>
CNC(C)C(=O)NC(C(=O)N1Cc2cc([101O:1][101CH:1](C)CC(F)C(OC)c3ncc([100NH:0][100C:0](=O)N4CCCC(n5nc(-c6ccc(Oc7ccc(F)cc7F)cc6)c(C(N)=O)c5N)C4)s3)ccc2CC1C(=O)NC1CCCc2ccccc21)C(C)(C)C

> <Shape>
0.222

> <Color>
0.079

> <Negative vol penalty>
0.000

$$$$

  -OEChem-04052305153D

 85 93  0     1  0  0  0  0  0999 V2000
  -23.5776  -18.4803   20.6791 C   0  0  0  0  0  0  0  0  0  0  0  0
  -24.4081  -19.5569   20.3848 C   0  0  0  0  0  0  0  0  0  0  0  0
  -26.4380  -12.5642   21.5659 C   0  0  0  0  0  0  0  0  0  0  0  0
  -25.7074  -13.5372   19.4787 C   0  0  0  0  0  0  0  0  0  0  0  0
  -22.1929  -18.6379   20.6384 C   0  0  0  0  0  0  0  0  0  0  0  0
  -23.8541  -20.7917   20.0486 C   0  0  0  0  0  0  0  0  0  0  0  0
  -26.1351  -24.6506   22.4047 C   0  0  0  0  0  0  0  0  0  0  0  0
  -25.2395  -11.8562   21.6554 C   0  0  0  0  0  0  0  0  0  0  0  0
  -24.5089  -12.8292   19.5682 C   0  0  0  0  0  0  0  0  0  0  0  0
  -27.3631  -25.0710   21.8957 C   0  0  0  0  0  0  0  0  0  0  0  0
  -23.8889   -9.0645   20.3081 C   0  0  0  0  0  0  0  0  0  0  0  0
  -23.9566   -7.7181   20.6658 C   0  0  0  0  0  0  0  0  0  0  0  0
  -26.2629  -26.8955   20.7645 C   0  0  0  0  0  0  0  0  0  0  0  0
  -22.5909   -8.1654   22.6080 C   0  0  0  0  0  0  0  0  0  0  0  0
  -27.9470  -21.3361   17.3073 C   0  0  0  0  0  0  0  0  0  0  0  0
  -26.6719  -13.4048   20.4776 C   0  0  0  0  0  0  0  0  0  0  0  0
  -29.1032  -13.7141   19.7698 C   0  0  0  0  0  0  0  0  0  0  0  0
  -21.6218  -19.8777   20.3109 C   0  0  0  0  0  0  0  0  0  0  0  0
  -24.9583  -25.3442   22.0879 C   0  0  0  0  0  0  0  0  0  0  0  0
  -22.4605  -20.9657   20.0021 C   0  0  0  0  0  0  0  0  0  0  0  0
  -25.0215  -26.4834   21.2728 C   0  0  0  0  0  0  0  0  0  0  0  0
  -24.2750  -11.9887   20.6566 C   0  0  0  0  0  0  0  0  0  0  0  0
  -27.4268  -26.1919   21.0732 C   0  0  0  0  0  0  0  0  0  0  0  0
  -23.1723   -9.9615   21.1003 C   0  0  0  0  0  0  0  0  0  0  0  0
  -23.3076   -7.2685   21.8158 C   0  0  0  0  0  0  0  0  0  0  0  0
  -22.5233   -9.5119   22.2503 C   0  0  0  0  0  0  0  0  0  0  0  0
  -27.9095  -14.1368   20.3849 C   0  0  0  0  0  0  0  0  0  0  0  0
  -28.5105  -21.5320   18.5508 C   0  0  0  0  0  0  0  0  0  0  0  0
  -29.9730  -14.7612   19.9525 C   0  0  0  0  0  0  0  0  0  0  0  0
  -28.7435  -23.5641   17.7595 C   0  0  0  0  0  0  0  0  0  0  0  0
  -29.3992  -12.4849   19.0937 C   0  0  0  0  0  0  0  0  0  0  0  0
  -22.2579  -24.6094   20.5808 C   0  0  0  0  0  0  0  0  0  0  0  0
  -21.3660  -27.5729   21.5528 C   0  0  0  0  0  0  0  0  0  0  0  0
  -22.3030  -30.7043   22.5340 C   0  0  0  0  0  0  0  0  0  0  0  0
  -29.1841  -20.6231   20.8017 C   0  0  0  0  0  0  0  0  0  0  0  0
  -20.1196  -19.9872   20.2337 C   0  0  0  0  0  0  0  0  0  0  0  0
  -23.6451  -24.8936   22.6666 C   0  0  0  0  0  0  0  0  0  0  0  0
  -23.7899  -27.2749   20.9193 C   0  0  0  0  0  0  0  0  0  0  0  0
  -19.6130  -21.4273   20.2339 C   0  0  0  0  0  0  0  0  0  0  0  0
  -30.9080  -18.3724   22.9558 C   0  0  0  0  0  0  0  0  0  0  0  0
  -20.4184  -22.2765   19.2556 C   0  0  0  0  0  0  0  0  0  0  0  0
  -30.4480  -16.9922   22.4810 C   0  0  0  0  0  0  0  0  0  0  0  0
  -29.7818  -19.4020   22.8818 C   0  0  0  0  0  0  0  0  0  0  0  0
  -28.6582  -18.1232   21.1010 C   0  0  0  0  0  0  0  0  0  0  0  0
  -21.8975  -22.3273   19.6572 C   0  0  1  0  0  0  0  0  0  0  0  0
  -22.4413  -25.3734   21.8616 C   0  0  1  0  0  0  0  0  0  0  0  0
  -29.7761  -17.0677   21.0959 C   0  0  2  0  0  0  0  0  0  0  0  0
  -21.3489  -32.9197   23.2264 C   0  0  0  0  0  0  0  0  0  0  0  0
  -20.6817  -28.1849   18.6430 C   0  0  0  0  0  0  0  0  0  0  0  0
  -20.6555  -30.6178   19.2337 C   0  0  0  0  0  0  0  0  0  0  0  0
  -19.0326  -29.0577   20.3083 C   0  0  0  0  0  0  0  0  0  0  0  0
  -32.0298  -23.7285   18.2092 C   0  0  0  0  0  0  0  0  0  0  0  0
  -32.6465  -26.1339   18.0313 C   0  0  0  0  0  0  0  0  0  0  0  0
  -31.4562  -25.0135   16.1454 C   0  0  0  0  0  0  0  0  0  0  0  0
  -23.5855  -30.5552   25.1970 C   0  0  0  0  0  0  0  0  0  0  0  0
  -28.6084  -27.2625   19.3087 C   0  0  0  0  0  0  0  0  0  1  0  0
  -21.4695  -28.9637   20.9751 C   0  0  1  0  0  0  0  0  0  0  0  0
  -21.8610  -31.5687   23.7011 C   0  0  2  0  0  0  0  0  0  0  0  0
  -30.2041  -25.4885   18.3829 C   0  0  2  0  0  0  0  0  0  0  0  0
  -29.9379  -26.9973   18.5961 C   0  0  1  0  0  0  0  0  0  0  0  0
  -20.4829  -29.1902   19.7949 C   0  0  0  0  0  0  0  0  0  0  0  0
  -31.5533  -25.1023   17.6798 C   0  0  0  0  0  0  0  0  0  0  0  0
  -28.0085  -15.3572   20.9186 N   0  0  0  0  0  0  0  0  0  0  0  0
  -28.9681  -22.8088   18.8117 N   0  0  0  0  0  0  0  0  0  0  0  0
  -29.2748  -15.7103   20.6395 N   0  0  0  0  0  0  0  0  0  0  0  0
  -22.5287  -26.7908   21.5045 N   0  0  0  0  0  0  0  0  0  0  0  0
  -29.1956  -19.4206   21.5398 N   0  0  0  0  0  0  0  0  0  0  0  0
  -31.2594  -14.9534   19.5910 N   0  0  0  0  0  0  0  0  0  0  0  0
  -28.3907  -11.5164   18.9961 N   0  0  0  0  0  0  0  0  0  0  0  0
  -28.6308  -20.5116   19.5265 N   0  0  0  0  0  0  0  0  0  0  0  0
  -29.0764  -24.9003   17.6765 N   0  0  0  0  0  0  0  0  0  0  0  0
  -22.0915  -23.2489   20.7561 N   0  0  0  0  0  0  0  0  0  0  0  0
  -21.2864  -29.8843   22.0920 N   0  0  0  0  0  0  0  0  0  0  0  0
  -22.9992  -31.7992   24.6351 N   0  3  0  0  0  0  0  0  0  0  0  0
  -30.5295  -12.2456   18.6054 O   0  0  0  0  0  0  0  0  0  0  0  0
  -22.2652  -25.2101   19.5127 O   0  0  0  0  0  0  0  0  0  0  0  0
  -20.2950  -27.1968   22.0358 O   0  0  0  0  0  0  0  0  0  0  0  0
  -23.4355  -30.7545   22.0593 O   0  0  0  0  0  0  0  0  0  0  0  0
  -29.6569  -21.6680   21.2561 O   0  0  0  0  0  0  0  0  0  0  0  0
  -29.9298  -27.7029   17.3568 O   0  0  0  0  0  0  0  0  0  0  0  0
  -23.1055  -11.2978   20.7434 O   0  0  0  0  0  0  0  0  0  0  0  0
  -28.6240  -26.6040   20.5746 O   0  0  0  0  0  0  0  0  0  1  0  0
  -23.3714   -5.9751   22.1583 F   0  0  0  0  0  0  0  0  0  0  0  0
  -21.8324  -10.3687   23.0147 F   0  0  0  0  0  0  0  0  0  0  0  0
  -27.9847  -22.8039   16.4210 S   0  0  0  0  0  0  0  0  0  0  0  0
  1  2  1  0  0  0  0
  1  5  2  0  0  0  0
  2  6  2  0  0  0  0
  3  8  2  0  0  0  0
  3 16  1  0  0  0  0
  4  9  1  0  0  0  0
  4 16  2  0  0  0  0
  5 18  1  0  0  0  0
  6 20  1  0  0  0  0
  7 10  2  0  0  0  0
  7 19  1  0  0  0  0
  8 22  1  0  0  0  0
  9 22  2  0  0  0  0
 10 23  1  0  0  0  0
 11 12  2  0  0  0  0
 11 24  1  0  0  0  0
 12 25  1  0  0  0  0
 13 21  1  0  0  0  0
 13 23  2  0  0  0  0
 14 25  2  0  0  0  0
 14 26  1  0  0  0  0
 15 28  2  0  0  0  0
 15 85  1  0  0  0  0
 16 27  1  0  0  0  0
 17 27  1  0  0  0  0
 17 29  2  0  0  0  0
 17 31  1  0  0  0  0
 18 20  2  0  0  0  0
 18 36  1  0  0  0  0
 19 21  2  0  0  0  0
 19 37  1  0  0  0  0
 20 45  1  0  0  0  0
 21 38  1  0  0  0  0
 22 81  1  0  0  0  0
 23 82  1  0  0  0  0
 24 26  2  0  0  0  0
 24 81  1  0  0  0  0
 25 83  1  0  0  0  0
 26 84  1  0  0  0  0
 27 63  2  0  0  0  0
 28 64  1  0  0  0  0
 28 70  1  0  0  0  0
 29 65  1  0  0  0  0
 29 68  1  0  0  0  0
 30 64  2  0  0  0  0
 30 71  1  0  0  0  0
 30 85  1  0  0  0  0
 31 69  1  0  0  0  0
 31 75  2  0  0  0  0
 32 46  1  0  0  0  0
 32 72  1  0  0  0  0
 32 76  2  0  0  0  0
 33 57  1  0  0  0  0
 33 66  1  0  0  0  0
 33 77  2  0  0  0  0
 34 58  1  0  0  0  0
 34 73  1  0  0  0  0
 34 78  2  0  0  0  0
 35 67  1  0  0  0  0
 35 70  1  0  0  0  0
 35 79  2  0  0  0  0
 36 39  1  0  0  0  0
 37 46  1  0  0  0  0
 38 66  1  0  0  0  0
 39 41  1  0  0  0  0
 40 42  1  0  0  0  0
 40 43  1  0  0  0  0
 41 45  1  0  0  0  0
 42 47  1  0  0  0  0
 43 67  1  0  0  0  0
 44 47  1  0  0  0  0
 44 67  1  0  0  0  0
 45 72  1  0  0  0  0
 46 66  1  0  0  0  0
 47 65  1  0  0  0  0
 48 58  1  0  0  0  0
 49 61  1  0  0  0  0
 50 61  1  0  0  0  0
 51 61  1  0  0  0  0
 52 62  1  0  0  0  0
 53 62  1  0  0  0  0
 54 62  1  0  0  0  0
 55 74  1  0  0  0  0
 56 60  1  0  0  0  0
 56 82  1  0  0  0  0
 57 61  1  0  0  0  0
 57 73  1  0  0  0  0
 58 74  1  0  0  0  0
 59 60  1  0  0  0  0
 59 62  1  0  0  0  0
 59 71  1  0  0  0  0
 60 80  1  0  0  0  0
 63 65  1  0  0  0  0
M  CHG  1  74   1
M  ISO  4  35 100  56 101  70 100  82 101
M  END
> <Batch ID>
0188

> <Smiles>
CNC(C)C(=O)NC(C(=O)N1Cc2cc([101O:1][101CH2:1]C(O)C(Nc3nc([100NH:0][100C:0](=O)N4CCCC(n5nc(-c6ccc(Oc7ccc(F)cc7F)cc6)c(C(N)=O)c5N)C4)cs3)C(C)(C)C)ccc2CC1C(=O)NC1CCCc2ccccc21)C(C)(C)C

> <Shape>
0.253

> <Color>
0.083

> <Negative vol penalty>
0.000

$$$$

  -OEChem-04052305153D

 83 91  0     1  0  0  0  0  0999 V2000
  -21.8936  -11.6423   20.7130 C   0  0  0  0  0  0  0  0  0  0  0  0
  -21.7791  -12.9644   21.1303 C   0  0  0  0  0  0  0  0  0  0  0  0
  -18.4578  -25.5173   29.2467 C   0  0  0  0  0  0  0  0  0  0  0  0
  -24.7735  -27.0293   19.3356 C   0  0  0  0  0  0  0  0  0  0  0  0
  -25.1823  -25.4985   21.1595 C   0  0  0  0  0  0  0  0  0  0  0  0
  -23.1512  -11.1039   20.4436 C   0  0  0  0  0  0  0  0  0  0  0  0
  -22.9223  -13.7487   21.2797 C   0  0  0  0  0  0  0  0  0  0  0  0
  -22.3753  -18.3772   19.2991 C   0  0  0  0  0  0  0  0  0  0  0  0
  -26.1479  -27.2056   19.1755 C   0  0  0  0  0  0  0  0  0  0  0  0
  -26.5567  -25.6748   20.9994 C   0  0  0  0  0  0  0  0  0  0  0  0
  -21.6495  -19.3064   20.0430 C   0  0  0  0  0  0  0  0  0  0  0  0
  -30.1638  -25.9979   21.3068 C   0  0  0  0  0  0  0  0  0  0  0  0
  -30.9309  -26.1912   22.4556 C   0  0  0  0  0  0  0  0  0  0  0  0
  -18.2902  -26.4278   28.1744 C   0  0  0  0  0  0  0  0  0  0  0  0
  -23.7122  -20.2861   20.8207 C   0  0  0  0  0  0  0  0  0  0  0  0
  -29.6540  -28.1755   22.9745 C   0  0  0  0  0  0  0  0  0  0  0  0
  -19.4736  -24.6545   28.8988 C   0  0  0  0  0  0  0  0  0  0  0  0
  -24.2907  -26.1758   20.3277 C   0  0  0  0  0  0  0  0  0  0  0  0
  -22.0585  -25.0299   19.8675 C   0  0  0  0  0  0  0  0  0  0  0  0
  -24.3096  -11.8849   20.5804 C   0  0  0  0  0  0  0  0  0  0  0  0
  -23.7774  -18.3886   19.3190 C   0  0  0  0  0  0  0  0  0  0  0  0
  -24.1967  -13.2199   21.0132 C   0  0  0  0  0  0  0  0  0  0  0  0
  -24.4535  -19.3575   20.0741 C   0  0  0  0  0  0  0  0  0  0  0  0
  -27.0395  -26.5283   20.0073 C   0  0  0  0  0  0  0  0  0  0  0  0
  -22.3178  -20.2592   20.8063 C   0  0  0  0  0  0  0  0  0  0  0  0
  -29.1418  -26.8935   20.9917 C   0  0  0  0  0  0  0  0  0  0  0  0
  -30.6760  -27.2799   23.2895 C   0  0  0  0  0  0  0  0  0  0  0  0
  -28.8869  -27.9823   21.8256 C   0  0  0  0  0  0  0  0  0  0  0  0
  -22.8711  -25.9938   20.4940 C   0  0  0  0  0  0  0  0  0  0  0  0
  -19.2085  -26.0935   27.2036 C   0  0  0  0  0  0  0  0  0  0  0  0
  -20.7981  -25.2737   20.3557 C   0  0  0  0  0  0  0  0  0  0  0  0
  -22.4115  -24.0058   18.9282 C   0  0  0  0  0  0  0  0  0  0  0  0
  -26.0245  -16.3352   20.2344 C   0  0  0  0  0  0  0  0  0  0  0  0
  -28.0199  -18.5490   18.9537 C   0  0  0  0  0  0  0  0  0  0  0  0
  -29.0766  -21.9391   18.3149 C   0  0  0  0  0  0  0  0  0  0  0  0
  -18.7858  -27.7887   25.3887 C   0  0  0  0  0  0  0  0  0  0  0  0
  -25.6510  -11.2450   20.3233 C   0  0  0  0  0  0  0  0  0  0  0  0
  -24.5458  -17.3963   18.4898 C   0  0  0  0  0  0  0  0  0  0  0  0
  -25.9576  -19.4251   20.1133 C   0  0  0  0  0  0  0  0  0  0  0  0
  -26.7829  -12.2537   20.1454 C   0  0  0  0  0  0  0  0  0  0  0  0
  -18.0618  -28.8164   22.0575 C   0  0  0  0  0  0  0  0  0  0  0  0
  -26.7239  -13.3199   21.2347 C   0  0  0  0  0  0  0  0  0  0  0  0
  -19.1353  -28.1166   21.2208 C   0  0  0  0  0  0  0  0  0  0  0  0
  -18.6069  -29.2784   23.4078 C   0  0  0  0  0  0  0  0  0  0  0  0
  -20.3477  -27.5358   23.3609 C   0  0  0  0  0  0  0  0  0  0  0  0
  -25.4115  -14.1098   21.1631 C   0  0  1  0  0  0  0  0  0  0  0  0
  -25.9701  -17.1756   18.9900 C   0  0  1  0  0  0  0  0  0  0  0  0
  -19.8291  -26.9950   22.0184 C   0  0  2  0  0  0  0  0  0  0  0  0
  -30.9956  -22.8220   16.9601 C   0  0  0  0  0  0  0  0  0  0  0  0
  -29.5166  -18.5556   21.6126 C   0  0  0  0  0  0  0  0  0  0  0  0
  -30.6012  -20.7022   20.9172 C   0  0  0  0  0  0  0  0  0  0  0  0
  -30.9845  -18.6257   19.5891 C   0  0  0  0  0  0  0  0  0  0  0  0
  -27.2893  -23.6325   16.6726 C   0  0  0  0  0  0  0  0  0  0  0  0
  -21.6490  -22.9481   24.8210 C   0  0  0  0  0  0  0  0  0  0  0  0
  -21.0321  -24.3112   26.9126 C   0  0  0  0  0  0  0  0  0  0  0  0
  -22.2157  -21.6486   22.7337 C   0  0  0  0  0  0  0  0  0  1  0  0
  -28.7343  -19.7728   19.4743 C   0  0  1  0  0  0  0  0  0  0  0  0
  -29.5050  -22.5212   16.9799 C   0  0  2  0  0  0  0  0  0  0  0  0
  -21.1168  -22.0162   23.7262 C   0  0  1  0  0  0  0  0  0  0  0  0
  -20.5570  -23.3513   25.8169 C   0  0  1  0  0  0  0  0  0  0  0  0
  -29.9308  -19.4118   20.3993 C   0  0  0  0  0  0  0  0  0  0  0  0
  -22.1846  -26.7906   21.3173 N   0  0  0  0  0  0  0  0  0  0  0  0
  -19.9222  -25.0140   27.6547 N   0  0  0  0  0  0  0  0  0  0  0  0
  -20.9272  -26.3279   21.2114 N   0  0  0  0  0  0  0  0  0  0  0  0
  -26.6642  -18.4294   19.2907 N   0  0  0  0  0  0  0  0  0  0  0  0
  -19.2460  -28.1623   24.1083 N   0  0  0  0  0  0  0  0  0  0  0  0
  -19.6030  -24.6871   20.1322 N   0  0  0  0  0  0  0  0  0  0  0  0
  -23.7516  -23.8944   18.5334 N   0  0  0  0  0  0  0  0  0  0  0  0
  -19.4479  -26.6934   25.9425 N   0  0  0  0  0  0  0  0  0  0  0  0
  -25.4637  -15.0805   20.0909 N   0  0  0  0  0  0  0  0  0  0  0  0
  -29.1014  -20.5605   18.3025 N   0  0  0  0  0  0  0  0  0  0  0  0
  -28.7665  -23.7862   16.7055 N   0  3  0  0  0  0  0  0  0  0  0  0
  -21.5608  -23.2234   18.4407 O   0  0  0  0  0  0  0  0  0  0  0  0
  -26.5387  -16.7909   21.2491 O   0  0  0  0  0  0  0  0  0  0  0  0
  -28.6400  -17.7331   18.2672 O   0  0  0  0  0  0  0  0  0  0  0  0
  -28.7559  -22.6375   19.2739 O   0  0  0  0  0  0  0  0  0  0  0  0
  -17.8535  -28.3786   25.9408 O   0  0  0  0  0  0  0  0  0  0  0  0
  -20.6331  -20.8194   24.3359 O   0  0  0  0  0  0  0  0  0  0  0  0
  -28.3806  -26.6999   19.8512 O   0  0  0  0  0  0  0  0  0  0  0  0
  -21.6118  -21.1669   21.5339 O   0  0  0  0  0  0  0  0  0  1  0  0
  -31.4117  -27.4645   24.3935 F   0  0  0  0  0  0  0  0  0  0  0  0
  -27.9057  -28.8453   21.5287 F   0  0  0  0  0  0  0  0  0  0  0  0
  -19.5352  -23.9355   25.1306 F   0  0  0  0  0  0  0  0  0  0  0  0
  1  2  1  0  0  0  0
  1  6  2  0  0  0  0
  2  7  2  0  0  0  0
  3 14  1  0  0  0  0
  3 17  2  0  0  0  0
  4  9  2  0  0  0  0
  4 18  1  0  0  0  0
  5 10  1  0  0  0  0
  5 18  2  0  0  0  0
  6 20  1  0  0  0  0
  7 22  1  0  0  0  0
  8 11  2  0  0  0  0
  8 21  1  0  0  0  0
  9 24  1  0  0  0  0
 10 24  2  0  0  0  0
 11 25  1  0  0  0  0
 12 13  2  0  0  0  0
 12 26  1  0  0  0  0
 13 27  1  0  0  0  0
 14 30  2  0  0  0  0
 15 23  1  0  0  0  0
 15 25  2  0  0  0  0
 16 27  2  0  0  0  0
 16 28  1  0  0  0  0
 17 63  1  0  0  0  0
 18 29  1  0  0  0  0
 19 29  1  0  0  0  0
 19 31  2  0  0  0  0
 19 32  1  0  0  0  0
 20 22  2  0  0  0  0
 20 37  1  0  0  0  0
 21 23  2  0  0  0  0
 21 38  1  0  0  0  0
 22 46  1  0  0  0  0
 23 39  1  0  0  0  0
 24 79  1  0  0  0  0
 25 80  1  0  0  0  0
 26 28  2  0  0  0  0
 26 79  1  0  0  0  0
 27 81  1  0  0  0  0
 28 82  1  0  0  0  0
 29 62  2  0  0  0  0
 30 63  1  0  0  0  0
 30 69  1  0  0  0  0
 31 64  1  0  0  0  0
 31 67  1  0  0  0  0
 32 68  1  0  0  0  0
 32 73  2  0  0  0  0
 33 47  1  0  0  0  0
 33 70  1  0  0  0  0
 33 74  2  0  0  0  0
 34 57  1  0  0  0  0
 34 65  1  0  0  0  0
 34 75  2  0  0  0  0
 35 58  1  0  0  0  0
 35 71  1  0  0  0  0
 35 76  2  0  0  0  0
 36 66  1  0  0  0  0
 36 69  1  0  0  0  0
 36 77  2  0  0  0  0
 37 40  1  0  0  0  0
 38 47  1  0  0  0  0
 39 65  1  0  0  0  0
 40 42  1  0  0  0  0
 41 43  1  0  0  0  0
 41 44  1  0  0  0  0
 42 46  1  0  0  0  0
 43 48  1  0  0  0  0
 44 66  1  0  0  0  0
 45 48  1  0  0  0  0
 45 66  1  0  0  0  0
 46 70  1  0  0  0  0
 47 65  1  0  0  0  0
 48 64  1  0  0  0  0
 49 58  1  0  0  0  0
 50 61  1  0  0  0  0
 51 61  1  0  0  0  0
 52 61  1  0  0  0  0
 53 72  1  0  0  0  0
 54 59  1  0  0  0  0
 54 60  1  0  0  0  0
 55 60  1  0  0  0  0
 55 63  1  0  0  0  0
 56 59  1  0  0  0  0
 56 80  1  0  0  0  0
 57 61  1  0  0  0  0
 57 71  1  0  0  0  0
 58 72  1  0  0  0  0
 59 78  1  0  0  0  0
 60 83  1  0  0  0  0
 62 64  1  0  0  0  0
M  CHG  1  72   1
M  ISO  4  36 100  56 101  69 100  80 101
M  END
> <Batch ID>
0188

> <Smiles>
CNC(C)C(=O)NC(C(=O)N1Cc2cc([101O:1][101CH2:1]C(O)CC(F)Cn3cccc3[100NH:0][100C:0](=O)N3CCCC(n4nc(-c5ccc(Oc6ccc(F)cc6F)cc5)c(C(N)=O)c4N)C3)ccc2CC1C(=O)NC1CCCc2ccccc21)C(C)(C)C

> <Shape>
0.198

> <Color>
0.083

> <Negative vol penalty>
0.000

$$$$

  -OEChem-04052305153D

 88 96  0     1  0  0  0  0  0999 V2000
  -16.6536  -18.1003   19.5001 C   0  0  0  0  0  0  0  0  0  0  0  0
  -17.9733  -17.6965   19.3246 C   0  0  0  0  0  0  0  0  0  0  0  0
  -27.0856  -28.7123   19.2019 C   0  0  0  0  0  0  0  0  0  0  0  0
  -25.7955  -27.5251   20.8641 C   0  0  0  0  0  0  0  0  0  0  0  0
  -16.3757  -19.3591   20.0311 C   0  0  0  0  0  0  0  0  0  0  0  0
  -19.0159  -18.5519   19.6790 C   0  0  0  0  0  0  0  0  0  0  0  0
  -22.6891  -16.1823   22.2359 C   0  0  0  0  0  0  0  0  0  0  0  0
  -26.2219  -29.8021   19.3098 C   0  0  0  0  0  0  0  0  0  0  0  0
  -24.9317  -28.6150   20.9721 C   0  0  0  0  0  0  0  0  0  0  0  0
  -23.5837  -15.4101   21.4961 C   0  0  0  0  0  0  0  0  0  0  0  0
  -24.9187  -31.6415   22.4757 C   0  0  0  0  0  0  0  0  0  0  0  0
  -24.5555  -32.0540   23.7576 C   0  0  0  0  0  0  0  0  0  0  0  0
  -25.1925  -17.2057   21.5788 C   0  0  0  0  0  0  0  0  0  0  0  0
  -22.2340  -31.6376   23.2338 C   0  0  0  0  0  0  0  0  0  0  0  0
  -31.1384  -17.3767   21.9924 C   0  0  0  0  0  0  0  0  0  0  0  0
  -26.8724  -27.5737   19.9790 C   0  0  0  0  0  0  0  0  0  0  0  0
  -28.9363  -26.2142   20.6113 C   0  0  0  0  0  0  0  0  0  0  0  0
  -17.4154  -20.2266   20.4012 C   0  0  0  0  0  0  0  0  0  0  0  0
  -23.0359  -17.4783   22.6440 C   0  0  0  0  0  0  0  0  0  0  0  0
  -18.7516  -19.8241   20.2142 C   0  0  0  0  0  0  0  0  0  0  0  0
  -24.3015  -17.9913   22.3258 C   0  0  0  0  0  0  0  0  0  0  0  0
  -25.1449  -29.7535   20.1949 C   0  0  0  0  0  0  0  0  0  0  0  0
  -24.8345  -15.9229   21.1650 C   0  0  0  0  0  0  0  0  0  0  0  0
  -23.9396  -31.2270   21.5728 C   0  0  0  0  0  0  0  0  0  0  0  0
  -23.2131  -32.0521   24.1367 C   0  0  0  0  0  0  0  0  0  0  0  0
  -22.5973  -31.2250   21.9518 C   0  0  0  0  0  0  0  0  0  0  0  0
  -27.7640  -26.4473   19.8675 C   0  0  0  0  0  0  0  0  0  0  0  0
  -30.8617  -16.7414   20.7999 C   0  0  0  0  0  0  0  0  0  0  0  0
  -29.4156  -25.0198   20.1314 C   0  0  0  0  0  0  0  0  0  0  0  0
  -29.8994  -18.6666   20.3788 C   0  0  0  0  0  0  0  0  0  0  0  0
  -29.5382  -27.0065   21.6436 C   0  0  0  0  0  0  0  0  0  0  0  0
  -21.8891  -20.3892   22.0823 C   0  0  0  0  0  0  0  0  0  0  0  0
  -24.0903  -21.2603   24.3001 C   0  0  0  0  0  0  0  0  0  0  0  0
  -27.0147  -20.5556   25.9120 C   0  0  0  0  0  0  0  0  0  0  0  0
  -30.0583  -13.3247   19.6278 C   0  0  0  0  0  0  0  0  0  0  0  0
  -28.6221  -19.7555   18.5002 C   0  0  0  0  0  0  0  0  0  0  0  0
  -17.0657  -21.5962   20.9270 C   0  0  0  0  0  0  0  0  0  0  0  0
  -22.0698  -18.2883   23.4643 C   0  0  0  0  0  0  0  0  0  0  0  0
  -24.7300  -19.3692   22.7573 C   0  0  0  0  0  0  0  0  0  0  0  0
  -18.2287  -22.2956   21.6260 C   0  0  0  0  0  0  0  0  0  0  0  0
  -28.0424  -22.3065   16.0849 C   0  0  0  0  0  0  0  0  0  0  0  0
  -19.5002  -22.1804   20.7914 C   0  0  0  0  0  0  0  0  0  0  0  0
  -28.0147  -23.5921   16.9149 C   0  0  0  0  0  0  0  0  0  0  0  0
  -27.4043  -21.1360   16.8309 C   0  0  0  0  0  0  0  0  0  0  0  0
  -27.9132  -22.1758   19.0056 C   0  0  0  0  0  0  0  0  0  0  0  0
  -19.9100  -20.7140   20.6097 C   0  0  1  0  0  0  0  0  0  0  0  0
  -22.3321  -19.7892   23.3867 C   0  0  1  0  0  0  0  0  0  0  0  0
  -28.6031  -23.3674   18.3216 C   0  0  2  0  0  0  0  0  0  0  0  0
  -32.6391  -15.2690   19.7680 C   0  0  0  0  0  0  0  0  0  0  0  0
  -28.5788  -21.4738   27.6463 C   0  0  0  0  0  0  0  0  0  0  0  0
  -29.3327  -13.2188   17.2273 C   0  0  0  0  0  0  0  0  0  0  0  0
  -28.8583  -11.2982   18.7353 C   0  0  0  0  0  0  0  0  0  0  0  0
  -25.1543  -23.2748   22.2704 C   0  0  0  0  0  0  0  0  0  0  0  0
  -27.2329  -23.4647   23.6530 C   0  0  0  0  0  0  0  0  0  0  0  0
  -25.0301  -24.1262   24.6186 C   0  0  0  0  0  0  0  0  0  0  0  0
  -26.6230  -18.2104   27.6741 C   0  0  0  0  0  0  0  0  0  0  0  0
  -27.5728  -13.4757   19.0095 C   0  0  0  0  0  0  0  0  0  0  0  0
  -25.6336  -13.7553   20.6002 C   0  0  0  0  0  0  0  0  0  1  0  0
  -31.2669  -15.3293   20.4360 C   0  0  2  0  0  0  0  0  0  0  0  0
  -25.5410  -21.6762   24.2606 C   0  0  1  0  0  0  0  0  0  0  0  0
  -27.3824  -20.5722   27.3847 C   0  0  2  0  0  0  0  0  0  0  0  0
  -27.0129  -13.1426   20.3966 C   0  0  2  0  0  0  0  0  0  0  0  0
  -28.9477  -12.8357   18.6715 C   0  0  0  0  0  0  0  0  0  0  0  0
  -25.7311  -23.1102   23.6907 C   0  0  0  0  0  0  0  0  0  0  0  0
  -27.5138  -25.4788   18.9824 N   0  0  0  0  0  0  0  0  0  0  0  0
  -30.1509  -17.4793   19.8736 N   0  0  0  0  0  0  0  0  0  0  0  0
  -28.5356  -24.6256   19.1668 N   0  0  0  0  0  0  0  0  0  0  0  0
  -23.7478  -20.1248   23.5522 N   0  0  0  0  0  0  0  0  0  0  0  0
  -28.0146  -20.9808   18.1532 N   0  0  0  0  0  0  0  0  0  0  0  0
  -30.4997  -24.2789   20.4447 N   0  0  0  0  0  0  0  0  0  0  0  0
  -28.9147  -28.2055   22.0149 N   0  0  0  0  0  0  0  0  0  0  0  0
  -29.1974  -19.7365   19.7703 N   0  0  0  0  0  0  0  0  0  0  0  0
  -20.5457  -20.2144   21.8101 N   0  0  0  0  0  0  0  0  0  0  0  0
  -30.2697  -14.6953   19.6065 N   0  0  0  0  0  0  0  0  0  0  0  0
  -26.0535  -21.4986   25.6149 N   0  0  0  0  0  0  0  0  0  0  0  0
  -27.7195  -19.1971   27.8499 N   0  3  0  0  0  0  0  0  0  0  0  0
  -30.6064  -26.6695   22.2083 O   0  0  0  0  0  0  0  0  0  0  0  0
  -22.7055  -20.9690   21.3758 O   0  0  0  0  0  0  0  0  0  0  0  0
  -23.2918  -21.9144   24.9755 O   0  0  0  0  0  0  0  0  0  0  0  0
  -27.5313  -19.7859   25.1051 O   0  0  0  0  0  0  0  0  0  0  0  0
  -30.6941  -12.5508   20.3445 O   0  0  0  0  0  0  0  0  0  0  0  0
  -28.6551  -18.8028   17.7171 O   0  0  0  0  0  0  0  0  0  0  0  0
  -24.3020  -30.8169   20.3007 O   0  0  0  0  0  0  0  0  0  0  0  0
  -25.7093  -15.1716   20.4425 O   0  0  0  0  0  0  0  0  0  1  0  0
  -22.8645  -32.4468   25.3683 F   0  0  0  0  0  0  0  0  0  0  0  0
  -21.6523  -30.8268   21.0891 F   0  0  0  0  0  0  0  0  0  0  0  0
  -27.8378  -13.6714   21.3445 F   0  0  0  0  0  0  0  0  0  0  0  0
  -30.4887  -18.9637   21.9629 S   0  0  0  0  0  0  0  0  0  0  0  0
  1  2  1  0  0  0  0
  1  5  2  0  0  0  0
  2  6  2  0  0  0  0
  3  8  2  0  0  0  0
  3 16  1  0  0  0  0
  4  9  1  0  0  0  0
  4 16  2  0  0  0  0
  5 18  1  0  0  0  0
  6 20  1  0  0  0  0
  7 10  2  0  0  0  0
  7 19  1  0  0  0  0
  8 22  1  0  0  0  0
  9 22  2  0  0  0  0
 10 23  1  0  0  0  0
 11 12  2  0  0  0  0
 11 24  1  0  0  0  0
 12 25  1  0  0  0  0
 13 21  1  0  0  0  0
 13 23  2  0  0  0  0
 14 25  2  0  0  0  0
 14 26  1  0  0  0  0
 15 28  2  0  0  0  0
 15 88  1  0  0  0  0
 16 27  1  0  0  0  0
 17 27  1  0  0  0  0
 17 29  2  0  0  0  0
 17 31  1  0  0  0  0
 18 20  2  0  0  0  0
 18 37  1  0  0  0  0
 19 21  2  0  0  0  0
 19 38  1  0  0  0  0
 20 46  1  0  0  0  0
 21 39  1  0  0  0  0
 22 83  1  0  0  0  0
 23 84  1  0  0  0  0
 24 26  2  0  0  0  0
 24 83  1  0  0  0  0
 25 85  1  0  0  0  0
 26 86  1  0  0  0  0
 27 65  2  0  0  0  0
 28 59  1  0  0  0  0
 28 66  1  0  0  0  0
 29 67  1  0  0  0  0
 29 70  1  0  0  0  0
 30 66  2  0  0  0  0
 30 72  1  0  0  0  0
 30 88  1  0  0  0  0
 31 71  1  0  0  0  0
 31 77  2  0  0  0  0
 32 47  1  0  0  0  0
 32 73  1  0  0  0  0
 32 78  2  0  0  0  0
 33 60  1  0  0  0  0
 33 68  1  0  0  0  0
 33 79  2  0  0  0  0
 34 61  1  0  0  0  0
 34 75  1  0  0  0  0
 34 80  2  0  0  0  0
 35 63  1  0  0  0  0
 35 74  1  0  0  0  0
 35 81  2  0  0  0  0
 36 69  1  0  0  0  0
 36 72  1  0  0  0  0
 36 82  2  0  0  0  0
 37 40  1  0  0  0  0
 38 47  1  0  0  0  0
 39 68  1  0  0  0  0
 40 42  1  0  0  0  0
 41 43  1  0  0  0  0
 41 44  1  0  0  0  0
 42 46  1  0  0  0  0
 43 48  1  0  0  0  0
 44 69  1  0  0  0  0
 45 48  1  0  0  0  0
 45 69  1  0  0  0  0
 46 73  1  0  0  0  0
 47 68  1  0  0  0  0
 48 67  1  0  0  0  0
 49 59  1  0  0  0  0
 50 61  1  0  0  0  0
 51 63  1  0  0  0  0
 52 63  1  0  0  0  0
 53 64  1  0  0  0  0
 54 64  1  0  0  0  0
 55 64  1  0  0  0  0
 56 76  1  0  0  0  0
 57 62  1  0  0  0  0
 57 63  1  0  0  0  0
 58 62  1  0  0  0  0
 58 84  1  0  0  0  0
 59 74  1  0  0  0  0
 60 64  1  0  0  0  0
 60 75  1  0  0  0  0
 61 76  1  0  0  0  0
 62 87  1  0  0  0  0
 65 67  1  0  0  0  0
M  CHG  1  76   1
M  ISO  4  36 100  58 101  72 100  84 101
M  END
> <Batch ID>
0188

> <Smiles>
CNC(C)C(=O)NC(C(=O)N1Cc2cc([101O:1][101CH2:1]C(F)CC(C)(C)C(=O)NC(C)c3csc([100NH:0][100C:0](=O)N4CCCC(n5nc(-c6ccc(Oc7ccc(F)cc7F)cc6)c(C(N)=O)c5N)C4)n3)ccc2CC1C(=O)NC1CCCc2ccccc21)C(C)(C)C

> <Shape>
0.216

> <Color>
0.051

> <Negative vol penalty>
0.000

$$$$

  -OEChem-04052305153D

 89 97  0     1  0  0  0  0  0999 V2000
  -28.7867  -36.6026   21.8179 C   0  0  0  0  0  0  0  0  0  0  0  0
  -28.8631  -35.4401   21.0575 C   0  0  0  0  0  0  0  0  0  0  0  0
  -24.2231   -8.9408   20.5642 C   0  0  0  0  0  0  0  0  0  0  0  0
  -22.9126  -10.8150   21.3434 C   0  0  0  0  0  0  0  0  0  0  0  0
  -28.3644  -36.5396   23.1451 C   0  0  0  0  0  0  0  0  0  0  0  0
  -28.5182  -34.2136   21.6243 C   0  0  0  0  0  0  0  0  0  0  0  0
  -25.8132  -29.4908   18.8165 C   0  0  0  0  0  0  0  0  0  0  0  0
  -23.2092   -8.0679   20.9586 C   0  0  0  0  0  0  0  0  0  0  0  0
  -21.8986   -9.9420   21.7378 C   0  0  0  0  0  0  0  0  0  0  0  0
  -26.3171  -28.3134   18.2656 C   0  0  0  0  0  0  0  0  0  0  0  0
  -22.1007   -6.6741   23.8314 C   0  0  0  0  0  0  0  0  0  0  0  0
  -22.4720   -5.5209   24.5228 C   0  0  0  0  0  0  0  0  0  0  0  0
  -25.8159  -27.1464   20.3164 C   0  0  0  0  0  0  0  0  0  0  0  0
  -21.4910   -4.1619   22.7827 C   0  0  0  0  0  0  0  0  0  0  0  0
  -29.3537  -20.6263   21.3079 C   0  0  0  0  0  0  0  0  0  0  0  0
  -24.0748  -10.3144   20.7567 C   0  0  0  0  0  0  0  0  0  0  0  0
  -25.2677  -11.8400   19.0962 C   0  0  0  0  0  0  0  0  0  0  0  0
  -28.0050  -35.3130   23.7256 C   0  0  0  0  0  0  0  0  0  0  0  0
  -25.3160  -29.5074   20.1276 C   0  0  0  0  0  0  0  0  0  0  0  0
  -28.0920  -34.1339   22.9610 C   0  0  0  0  0  0  0  0  0  0  0  0
  -25.3039  -28.3247   20.8808 C   0  0  0  0  0  0  0  0  0  0  0  0
  -28.5967  -20.4064   20.1782 C   0  0  0  0  0  0  0  0  0  0  0  0
  -28.3776  -19.0183   19.9426 C   0  0  0  0  0  0  0  0  0  0  0  0
  -22.0470   -8.5685   21.5454 C   0  0  0  0  0  0  0  0  0  0  0  0
  -26.3212  -27.1416   19.0165 C   0  0  0  0  0  0  0  0  0  0  0  0
  -21.4245   -6.5712   22.6157 C   0  0  0  0  0  0  0  0  0  0  0  0
  -22.1671   -4.2648   23.9984 C   0  0  0  0  0  0  0  0  0  0  0  0
  -21.1197   -5.3151   22.0914 C   0  0  0  0  0  0  0  0  0  0  0  0
  -25.1220  -11.2166   20.3500 C   0  0  0  0  0  0  0  0  0  0  0  0
  -26.4115  -12.5908   19.2168 C   0  0  0  0  0  0  0  0  0  0  0  0
  -28.9757  -18.2301   20.9012 C   0  0  0  0  0  0  0  0  0  0  0  0
  -24.4427  -11.7487   17.9271 C   0  0  0  0  0  0  0  0  0  0  0  0
  -26.1092  -31.0198   22.8085 C   0  0  0  0  0  0  0  0  0  0  0  0
  -26.5856  -21.7772   19.5046 C   0  0  0  0  0  0  0  0  0  0  0  0
  -23.4041  -29.6276   23.9339 C   0  0  0  0  0  0  0  0  0  0  0  0
  -21.1255  -27.0996   23.6805 C   0  0  0  0  0  0  0  0  0  0  0  0
  -29.6531  -16.1046   22.0714 C   0  0  0  0  0  0  0  0  0  0  0  0
  -27.5996  -35.2884   25.1781 C   0  0  0  0  0  0  0  0  0  0  0  0
  -24.7513  -30.7795   20.6979 C   0  0  0  0  0  0  0  0  0  0  0  0
  -24.7627  -28.2848   22.2858 C   0  0  0  0  0  0  0  0  0  0  0  0
  -26.8940  -33.9995   25.5918 C   0  0  0  0  0  0  0  0  0  0  0  0
  -29.9537  -12.6393   22.8324 C   0  0  0  0  0  0  0  0  0  0  0  0
  -27.6505  -32.7841   25.0654 C   0  0  0  0  0  0  0  0  0  0  0  0
  -28.7355  -12.0116   22.1512 C   0  0  0  0  0  0  0  0  0  0  0  0
  -29.6318  -14.0143   23.4151 C   0  0  0  0  0  0  0  0  0  0  0  0
  -27.8081  -14.3346   21.7900 C   0  0  0  0  0  0  0  0  0  0  0  0
  -27.7028  -32.7880   23.5329 C   0  0  1  0  0  0  0  0  0  0  0  0
  -24.7431  -30.7984   22.2234 C   0  0  1  0  0  0  0  0  0  0  0  0
  -28.1006  -12.9768   21.1310 C   0  0  2  0  0  0  0  0  0  0  0  0
  -19.0462  -26.2058   24.7645 C   0  0  0  0  0  0  0  0  0  0  0  0
  -25.5927  -24.1613   16.5840 C   0  0  0  0  0  0  0  0  0  0  0  0
  -25.0815  -28.5109   26.2250 C   0  0  0  0  0  0  0  0  0  0  0  0
  -23.2240  -26.9034   26.7089 C   0  0  0  0  0  0  0  0  0  0  0  0
  -22.8274  -29.3588   26.8993 C   0  0  0  0  0  0  0  0  0  0  0  0
  -19.5444  -27.4488   21.2032 C   0  0  0  0  0  0  0  0  0  0  0  0
  -23.7876  -21.1710   18.5413 C   0  0  0  0  0  0  0  0  0  0  0  0
  -28.0684  -21.5129   19.3030 C   0  0  0  0  0  0  0  0  0  0  0  0
  -26.2438  -24.7659   18.9406 C   0  0  0  0  0  0  0  0  0  1  0  0
  -25.8188  -22.3287   18.3026 C   0  0  2  0  0  0  0  0  0  0  0  0
  -23.0772  -28.3175   24.6090 C   0  0  1  0  0  0  0  0  0  0  0  0
  -19.6075  -27.1084   23.6768 C   0  0  2  0  0  0  0  0  0  0  0  0
  -26.3470  -23.6990   17.8392 C   0  0  1  0  0  0  0  0  0  0  0  0
  -27.5969  -18.4832   18.7991 C   0  0  0  0  0  0  0  0  0  0  0  0
  -23.5646  -28.2735   26.0848 C   0  0  0  0  0  0  0  0  0  0  0  0
  -26.0956  -11.5429   21.2042 N   0  0  0  0  0  0  0  0  0  0  0  0
  -26.8640  -12.3794   20.4860 N   0  0  0  0  0  0  0  0  0  0  0  0
  -24.2273  -29.5557   22.8013 N   0  0  0  0  0  0  0  0  0  0  0  0
  -29.0376  -14.8757   22.3905 N   0  0  0  0  0  0  0  0  0  0  0  0
  -27.0644  -13.4044   18.3600 N   0  0  0  0  0  0  0  0  0  0  0  0
  -23.3046  -10.9322   17.9745 N   0  0  0  0  0  0  0  0  0  0  0  0
  -29.0165  -16.8227   21.0596 N   0  0  0  0  0  0  0  0  0  0  0  0
  -26.4376  -32.3507   22.9829 N   0  0  0  0  0  0  0  0  0  0  0  0
  -21.6403  -28.1228   24.4482 N   0  0  0  0  0  0  0  0  0  0  0  0
  -19.0900  -26.6368   22.3612 N   0  3  0  0  0  0  0  0  0  0  0  0
  -24.7161  -12.3598   16.8663 O   0  0  0  0  0  0  0  0  0  0  0  0
  -26.8126  -30.0546   23.0829 O   0  0  0  0  0  0  0  0  0  0  0  0
  -26.0213  -21.5576   20.5772 O   0  0  0  0  0  0  0  0  0  0  0  0
  -22.9401  -30.6754   24.3904 O   0  0  0  0  0  0  0  0  0  0  0  0
  -21.7883  -26.2660   23.0670 O   0  0  0  0  0  0  0  0  0  0  0  0
  -30.6854  -16.4787   22.6339 O   0  0  0  0  0  0  0  0  0  0  0  0
  -21.0573   -7.7170   21.9302 O   0  0  0  0  0  0  0  0  0  0  0  0
  -26.8131  -25.9912   18.4814 O   0  0  0  0  0  0  0  0  0  1  0  0
  -24.4432  -22.4287   18.6400 O   0  0  0  0  0  0  0  0  0  0  0  0
  -22.5251   -3.1575   24.6617 F   0  0  0  0  0  0  0  0  0  0  0  0
  -20.4713   -5.2099   20.9233 F   0  0  0  0  0  0  0  0  0  0  0  0
  -27.0932  -19.4496   17.9708 F   0  0  0  0  0  0  0  0  0  0  0  0
  -28.3147  -17.6574   17.9767 F   0  0  0  0  0  0  0  0  0  0  0  0
  -26.5139  -17.7464   19.1925 F   0  0  0  0  0  0  0  0  0  0  0  0
  -29.7970  -19.1630   22.0791 S   0  0  0  0  0  0  0  0  0  0  0  0
  1  2  1  0  0  0  0
  1  5  2  0  0  0  0
  2  6  2  0  0  0  0
  3  8  2  0  0  0  0
  3 16  1  0  0  0  0
  4  9  1  0  0  0  0
  4 16  2  0  0  0  0
  5 18  1  0  0  0  0
  6 20  1  0  0  0  0
  7 10  2  0  0  0  0
  7 19  1  0  0  0  0
  8 24  1  0  0  0  0
  9 24  2  0  0  0  0
 10 25  1  0  0  0  0
 11 12  2  0  0  0  0
 11 26  1  0  0  0  0
 12 27  1  0  0  0  0
 13 21  1  0  0  0  0
 13 25  2  0  0  0  0
 14 27  2  0  0  0  0
 14 28  1  0  0  0  0
 15 22  2  0  0  0  0
 15 89  1  0  0  0  0
 16 29  1  0  0  0  0
 17 29  1  0  0  0  0
 17 30  2  0  0  0  0
 17 32  1  0  0  0  0
 18 20  2  0  0  0  0
 18 38  1  0  0  0  0
 19 21  2  0  0  0  0
 19 39  1  0  0  0  0
 20 47  1  0  0  0  0
 21 40  1  0  0  0  0
 22 23  1  0  0  0  0
 22 57  1  0  0  0  0
 23 31  2  0  0  0  0
 23 63  1  0  0  0  0
 24 81  1  0  0  0  0
 25 82  1  0  0  0  0
 26 28  2  0  0  0  0
 26 81  1  0  0  0  0
 27 84  1  0  0  0  0
 28 85  1  0  0  0  0
 29 65  2  0  0  0  0
 30 66  1  0  0  0  0
 30 69  1  0  0  0  0
 31 71  1  0  0  0  0
 31 89  1  0  0  0  0
 32 70  1  0  0  0  0
 32 75  2  0  0  0  0
 33 48  1  0  0  0  0
 33 72  1  0  0  0  0
 33 76  2  0  0  0  0
 34 57  1  0  0  0  0
 34 59  1  0  0  0  0
 34 77  2  0  0  0  0
 35 60  1  0  0  0  0
 35 67  1  0  0  0  0
 35 78  2  0  0  0  0
 36 61  1  0  0  0  0
 36 73  1  0  0  0  0
 36 79  2  0  0  0  0
 37 68  1  0  0  0  0
 37 71  1  0  0  0  0
 37 80  2  0  0  0  0
 38 41  1  0  0  0  0
 39 48  1  0  0  0  0
 40 67  1  0  0  0  0
 41 43  1  0  0  0  0
 42 44  1  0  0  0  0
 42 45  1  0  0  0  0
 43 47  1  0  0  0  0
 44 49  1  0  0  0  0
 45 68  1  0  0  0  0
 46 49  1  0  0  0  0
 46 68  1  0  0  0  0
 47 72  1  0  0  0  0
 48 67  1  0  0  0  0
 49 66  1  0  0  0  0
 50 61  1  0  0  0  0
 51 62  1  0  0  0  0
 52 64  1  0  0  0  0
 53 64  1  0  0  0  0
 54 64  1  0  0  0  0
 55 74  1  0  0  0  0
 56 83  1  0  0  0  0
 58 62  1  0  0  0  0
 58 82  1  0  0  0  0
 59 62  1  0  0  0  0
 59 83  1  0  0  0  0
 60 64  1  0  0  0  0
 60 73  1  0  0  0  0
 61 74  1  0  0  0  0
 63 86  1  0  0  0  0
 63 87  1  0  0  0  0
 63 88  1  0  0  0  0
 65 66  1  0  0  0  0
M  CHG  1  74   1
M  ISO  4  37 100  58 101  71 100  82 101
M  END
> <Batch ID>
0188

> <Smiles>
CNC(C)C(=O)NC(C(=O)N1Cc2cc([101O:1][101CH2:1]C(C)C(OC)C(=O)Cc3csc([100NH:0][100C:0](=O)N4CCCC(n5nc(-c6ccc(Oc7ccc(F)cc7F)cc6)c(C(N)=O)c5N)C4)c3C(F)(F)F)ccc2CC1C(=O)NC1CCCc2ccccc21)C(C)(C)C

> <Shape>
0.301

> <Color>
0.082

> <Negative vol penalty>
0.000

$$$$

  -OEChem-04052305153D

 83 91  0     1  0  0  0  0  0999 V2000
  -22.9981  -20.2699   23.1243 C   0  0  0  0  0  0  0  0  0  0  0  0
  -23.8233  -21.1177   22.3923 C   0  0  0  0  0  0  0  0  0  0  0  0
  -24.2357  -12.5764   21.6075 C   0  0  0  0  0  0  0  0  0  0  0  0
  -26.3572  -12.2832   20.4893 C   0  0  0  0  0  0  0  0  0  0  0  0
  -21.7058  -20.6734   23.4573 C   0  0  0  0  0  0  0  0  0  0  0  0
  -23.3561  -22.3690   21.9920 C   0  0  0  0  0  0  0  0  0  0  0  0
  -26.7504  -26.0475   22.7622 C   0  0  0  0  0  0  0  0  0  0  0  0
  -23.9726  -11.2140   21.4655 C   0  0  0  0  0  0  0  0  0  0  0  0
  -26.0941  -10.9207   20.3474 C   0  0  0  0  0  0  0  0  0  0  0  0
  -27.7951  -26.1521   21.8449 C   0  0  0  0  0  0  0  0  0  0  0  0
  -24.8820   -8.3304   22.9791 C   0  0  0  0  0  0  0  0  0  0  0  0
  -24.3788   -7.6485   24.0870 C   0  0  0  0  0  0  0  0  0  0  0  0
  -26.6377  -27.9583   20.7417 C   0  0  0  0  0  0  0  0  0  0  0  0
  -22.4001   -7.0653   22.8294 C   0  0  0  0  0  0  0  0  0  0  0  0
  -25.4280  -13.1110   21.1193 C   0  0  0  0  0  0  0  0  0  0  0  0
  -26.3540  -15.1510   22.3394 C   0  0  0  0  0  0  0  0  0  0  0  0
  -21.2259  -21.9342   23.0692 C   0  0  0  0  0  0  0  0  0  0  0  0
  -25.6346  -26.8917   22.6694 C   0  0  0  0  0  0  0  0  0  0  0  0
  -22.0557  -22.7892   22.3190 C   0  0  0  0  0  0  0  0  0  0  0  0
  -25.5813  -27.8641   21.6606 C   0  0  0  0  0  0  0  0  0  0  0  0
  -24.9018  -10.3861   20.8355 C   0  0  0  0  0  0  0  0  0  0  0  0
  -27.7376  -27.1056   20.8327 C   0  0  0  0  0  0  0  0  0  0  0  0
  -24.1442   -8.3798   21.7964 C   0  0  0  0  0  0  0  0  0  0  0  0
  -23.1379   -7.0159   24.0122 C   0  0  0  0  0  0  0  0  0  0  0  0
  -22.9033   -7.7472   21.7215 C   0  0  0  0  0  0  0  0  0  0  0  0
  -25.7001  -14.5184   21.2651 C   0  0  0  0  0  0  0  0  0  0  0  0
  -29.1398  -21.5882   19.3816 C   0  0  0  0  0  0  0  0  0  0  0  0
  -26.3608  -16.4822   22.0014 C   0  0  0  0  0  0  0  0  0  0  0  0
  -30.2126  -21.4957   20.2434 C   0  0  0  0  0  0  0  0  0  0  0  0
  -29.9506  -23.6087   19.1170 C   0  0  0  0  0  0  0  0  0  0  0  0
  -26.9060  -14.5858   23.5359 C   0  0  0  0  0  0  0  0  0  0  0  0
  -22.5230  -26.4523   22.1911 C   0  0  0  0  0  0  0  0  0  0  0  0
  -22.3806  -29.6412   22.7678 C   0  0  0  0  0  0  0  0  0  0  0  0
  -23.9798  -32.6561   22.7876 C   0  0  0  0  0  0  0  0  0  0  0  0
  -27.1168  -20.5607   18.2870 C   0  0  0  0  0  0  0  0  0  0  0  0
  -19.8053  -22.3072   23.4119 C   0  0  0  0  0  0  0  0  0  0  0  0
  -24.5282  -26.7840   23.6827 C   0  0  0  0  0  0  0  0  0  0  0  0
  -24.4149  -28.8080   21.5297 C   0  0  0  0  0  0  0  0  0  0  0  0
  -19.5166  -23.7996   23.2715 C   0  0  0  0  0  0  0  0  0  0  0  0
  -23.9390  -18.9551   18.3079 C   0  0  0  0  0  0  0  0  0  0  0  0
  -20.0704  -24.3286   21.9523 C   0  0  0  0  0  0  0  0  0  0  0  0
  -24.1677  -17.7098   19.1675 C   0  0  0  0  0  0  0  0  0  0  0  0
  -25.1583  -19.2822   17.4477 C   0  0  0  0  0  0  0  0  0  0  0  0
  -26.6538  -18.1459   19.0418 C   0  0  0  0  0  0  0  0  0  0  0  0
  -21.5936  -24.1642   21.8878 C   0  0  1  0  0  0  0  0  0  0  0  0
  -23.2033  -27.3522   23.1836 C   0  0  1  0  0  0  0  0  0  0  0  0
  -25.4770  -17.8143   19.9739 C   0  0  2  0  0  0  0  0  0  0  0  0
  -23.5927  -35.0881   23.2702 C   0  0  0  0  0  0  0  0  0  0  0  0
  -20.8883  -29.9263   20.1217 C   0  0  0  0  0  0  0  0  0  0  0  0
  -21.3680  -32.3825   20.1958 C   0  0  0  0  0  0  0  0  0  0  0  0
  -19.9854  -31.3289   21.9850 C   0  0  0  0  0  0  0  0  0  0  0  0
  -26.0149  -32.6729   24.9363 C   0  0  0  0  0  0  0  0  0  0  0  0
  -28.4220  -27.6621   18.6242 C   0  0  0  0  0  0  0  0  0  1  0  0
  -22.4737  -30.8863   21.9192 C   0  0  1  0  0  0  0  0  0  0  0  0
  -24.0498  -33.7523   23.8354 C   0  0  2  0  0  0  0  0  0  0  0  0
  -29.3832  -27.0270   17.6249 C   0  0  2  0  0  0  0  0  0  0  0  0
  -29.3008  -25.4992   17.6090 C   0  0  2  0  0  0  0  0  0  0  0  0
  -21.2001  -31.1121   21.0565 C   0  0  0  0  0  0  0  0  0  0  0  0
  -25.3190  -15.3772   20.3158 N   0  0  0  0  0  0  0  0  0  0  0  0
  -28.9877  -22.7993   18.7351 N   0  0  0  0  0  0  0  0  0  0  0  0
  -25.7346  -16.5630   20.7924 N   0  0  0  0  0  0  0  0  0  0  0  0
  -23.3552  -28.6591   22.5408 N   0  0  0  0  0  0  0  0  0  0  0  0
  -26.3604  -19.3697   18.2796 N   0  0  0  0  0  0  0  0  0  0  0  0
  -26.8411  -17.5799   22.6234 N   0  0  0  0  0  0  0  0  0  0  0  0
  -26.8132  -13.2002   23.7248 N   0  0  0  0  0  0  0  0  0  0  0  0
  -28.2194  -20.5383   19.1405 N   0  0  0  0  0  0  0  0  0  0  0  0
  -30.1028  -24.9100   18.6637 N   0  0  0  0  0  0  0  0  0  0  0  0
  -22.2463  -25.1880   22.6754 N   0  0  0  0  0  0  0  0  0  0  0  0
  -22.7780  -31.9817   22.8335 N   0  0  0  0  0  0  0  0  0  0  0  0
  -25.4464  -33.9054   24.3323 N   0  3  0  0  0  0  0  0  0  0  0  0
  -27.4503  -15.2907   24.4193 O   0  0  0  0  0  0  0  0  0  0  0  0
  -22.2666  -26.8742   21.0695 O   0  0  0  0  0  0  0  0  0  0  0  0
  -21.4808  -29.5467   23.6062 O   0  0  0  0  0  0  0  0  0  0  0  0
  -24.8978  -32.4239   22.0041 O   0  0  0  0  0  0  0  0  0  0  0  0
  -26.7938  -21.5389   17.6082 O   0  0  0  0  0  0  0  0  0  0  0  0
  -30.7123  -27.4314   17.9592 O   0  0  0  0  0  0  0  0  0  0  0  0
  -24.6455   -9.0566   20.6971 O   0  0  0  0  0  0  0  0  0  0  0  0
  -28.7556  -27.2094   19.9357 O   0  0  0  0  0  0  0  0  0  1  0  0
  -22.6556   -6.3598   25.0756 F   0  0  0  0  0  0  0  0  0  0  0  0
  -22.1905   -7.7902   20.5875 F   0  0  0  0  0  0  0  0  0  0  0  0
  -29.7625  -25.0704   16.3997 F   0  0  0  0  0  0  0  0  0  0  0  0
  -31.0740  -22.9787   20.2510 S   0  0  0  0  0  0  0  0  0  0  0  0
  -30.7276  -20.1864   21.2159 Cl  0  0  0  0  0  0  0  0  0  0  0  0
  1  2  1  0  0  0  0
  1  5  2  0  0  0  0
  2  6  2  0  0  0  0
  3  8  2  0  0  0  0
  3 15  1  0  0  0  0
  4  9  1  0  0  0  0
  4 15  2  0  0  0  0
  5 17  1  0  0  0  0
  6 19  1  0  0  0  0
  7 10  2  0  0  0  0
  7 18  1  0  0  0  0
  8 21  1  0  0  0  0
  9 21  2  0  0  0  0
 10 22  1  0  0  0  0
 11 12  2  0  0  0  0
 11 23  1  0  0  0  0
 12 24  1  0  0  0  0
 13 20  1  0  0  0  0
 13 22  2  0  0  0  0
 14 24  2  0  0  0  0
 14 25  1  0  0  0  0
 15 26  1  0  0  0  0
 16 26  1  0  0  0  0
 16 28  2  0  0  0  0
 16 31  1  0  0  0  0
 17 19  2  0  0  0  0
 17 36  1  0  0  0  0
 18 20  2  0  0  0  0
 18 37  1  0  0  0  0
 19 45  1  0  0  0  0
 20 38  1  0  0  0  0
 21 77  1  0  0  0  0
 22 78  1  0  0  0  0
 23 25  2  0  0  0  0
 23 77  1  0  0  0  0
 24 79  1  0  0  0  0
 25 80  1  0  0  0  0
 26 59  2  0  0  0  0
 27 29  2  0  0  0  0
 27 60  1  0  0  0  0
 27 66  1  0  0  0  0
 28 61  1  0  0  0  0
 28 64  1  0  0  0  0
 29 82  1  0  0  0  0
 29 83  1  0  0  0  0
 30 60  2  0  0  0  0
 30 67  1  0  0  0  0
 30 82  1  0  0  0  0
 31 65  1  0  0  0  0
 31 71  2  0  0  0  0
 32 46  1  0  0  0  0
 32 68  1  0  0  0  0
 32 72  2  0  0  0  0
 33 54  1  0  0  0  0
 33 62  1  0  0  0  0
 33 73  2  0  0  0  0
 34 55  1  0  0  0  0
 34 69  1  0  0  0  0
 34 74  2  0  0  0  0
 35 63  1  0  0  0  0
 35 66  1  0  0  0  0
 35 75  2  0  0  0  0
 36 39  1  0  0  0  0
 37 46  1  0  0  0  0
 38 62  1  0  0  0  0
 39 41  1  0  0  0  0
 40 42  1  0  0  0  0
 40 43  1  0  0  0  0
 41 45  1  0  0  0  0
 42 47  1  0  0  0  0
 43 63  1  0  0  0  0
 44 47  1  0  0  0  0
 44 63  1  0  0  0  0
 45 68  1  0  0  0  0
 46 62  1  0  0  0  0
 47 61  1  0  0  0  0
 48 55  1  0  0  0  0
 49 58  1  0  0  0  0
 50 58  1  0  0  0  0
 51 58  1  0  0  0  0
 52 70  1  0  0  0  0
 53 56  1  0  0  0  0
 53 78  1  0  0  0  0
 54 58  1  0  0  0  0
 54 69  1  0  0  0  0
 55 70  1  0  0  0  0
 56 57  1  0  0  0  0
 56 76  1  0  0  0  0
 57 67  1  0  0  0  0
 57 81  1  0  0  0  0
 59 61  1  0  0  0  0
M  CHG  1  70   1
M  ISO  4  35 100  53 101  66 100  78 101
M  END
> <Batch ID>
0188

> <Smiles>
CNC(C)C(=O)NC(C(=O)N1Cc2cc([101O:1][101CH2:1]C(O)C(F)Nc3nc([100NH:0][100C:0](=O)N4CCCC(n5nc(-c6ccc(Oc7ccc(F)cc7F)cc6)c(C(N)=O)c5N)C4)c(Cl)s3)ccc2CC1C(=O)NC1CCCc2ccccc21)C(C)(C)C

> <Shape>
0.224

> <Color>
0.074

> <Negative vol penalty>
0.000

$$$$

  -OEChem-04052305153D

 83 90  0     1  0  0  0  0  0999 V2000
  -31.4781  -10.6483   33.4528 C   0  0  0  0  0  0  0  0  0  0  0  0
  -31.0489  -11.4759   32.4202 C   0  0  0  0  0  0  0  0  0  0  0  0
  -23.1902   -9.8190   19.9317 C   0  0  0  0  0  0  0  0  0  0  0  0
  -23.5684   -9.9992   22.3111 C   0  0  0  0  0  0  0  0  0  0  0  0
  -30.8358   -9.4324   33.6829 C   0  0  0  0  0  0  0  0  0  0  0  0
  -29.9779  -11.0874   31.6162 C   0  0  0  0  0  0  0  0  0  0  0  0
  -26.6857  -14.8508   30.8140 C   0  0  0  0  0  0  0  0  0  0  0  0
  -22.4240   -8.6723   20.1403 C   0  0  0  0  0  0  0  0  0  0  0  0
  -22.8021   -8.8525   22.5198 C   0  0  0  0  0  0  0  0  0  0  0  0
  -27.0369  -15.8133   29.8685 C   0  0  0  0  0  0  0  0  0  0  0  0
  -23.2035   -5.5059   22.2554 C   0  0  0  0  0  0  0  0  0  0  0  0
  -23.7020   -4.5445   23.1345 C   0  0  0  0  0  0  0  0  0  0  0  0
  -25.6226  -14.7257   28.2449 C   0  0  0  0  0  0  0  0  0  0  0  0
  -21.7453   -4.8042   24.5279 C   0  0  0  0  0  0  0  0  0  0  0  0
  -23.7624  -10.4825   21.0171 C   0  0  0  0  0  0  0  0  0  0  0  0
  -24.1009  -12.9992   20.7736 C   0  0  0  0  0  0  0  0  0  0  0  0
  -29.7502   -9.0332   32.8875 C   0  0  0  0  0  0  0  0  0  0  0  0
  -25.8073  -13.8105   30.4782 C   0  0  0  0  0  0  0  0  0  0  0  0
  -29.3214   -9.8643   31.8350 C   0  0  0  0  0  0  0  0  0  0  0  0
  -25.2598  -13.7528   29.1887 C   0  0  0  0  0  0  0  0  0  0  0  0
  -22.2299   -8.1890   21.4343 C   0  0  0  0  0  0  0  0  0  0  0  0
  -26.5077  -15.7492   28.5829 C   0  0  0  0  0  0  0  0  0  0  0  0
  -21.9760   -6.1165   22.5125 C   0  0  0  0  0  0  0  0  0  0  0  0
  -22.9729   -4.1937   24.2708 C   0  0  0  0  0  0  0  0  0  0  0  0
  -21.2469   -5.7657   23.6487 C   0  0  0  0  0  0  0  0  0  0  0  0
  -24.5545  -11.6668   20.8022 C   0  0  0  0  0  0  0  0  0  0  0  0
  -25.2320  -13.7420   20.5384 C   0  0  0  0  0  0  0  0  0  0  0  0
  -22.7756  -13.5190   20.9444 C   0  0  0  0  0  0  0  0  0  0  0  0
  -26.0256  -10.6417   30.3563 C   0  0  0  0  0  0  0  0  0  0  0  0
  -32.2924  -11.7438   24.4095 C   0  0  0  0  0  0  0  0  0  0  0  0
  -22.8473  -10.8361   29.7374 C   0  0  0  0  0  0  0  0  0  0  0  0
  -30.4342  -15.0725   24.9876 C   0  0  0  0  0  0  0  0  0  0  0  0
  -20.2305  -12.6919   28.5732 C   0  0  0  0  0  0  0  0  0  0  0  0
  -31.0469  -12.7524   21.5677 C   0  0  0  0  0  0  0  0  0  0  0  0
  -29.1178   -7.6883   33.1443 C   0  0  0  0  0  0  0  0  0  0  0  0
  -25.4175  -12.7954   31.5174 C   0  0  0  0  0  0  0  0  0  0  0  0
  -24.2968  -12.6678   28.7839 C   0  0  0  0  0  0  0  0  0  0  0  0
  -27.7512   -7.5219   32.4848 C   0  0  0  0  0  0  0  0  0  0  0  0
  -29.5195  -13.4700   18.4326 C   0  0  0  0  0  0  0  0  0  0  0  0
  -27.7958   -7.9987   31.0365 C   0  0  0  0  0  0  0  0  0  0  0  0
  -28.0329  -13.2094   18.6818 C   0  0  0  0  0  0  0  0  0  0  0  0
  -30.4009  -12.4806   19.1917 C   0  0  0  0  0  0  0  0  0  0  0  0
  -28.6473  -12.1375   20.8891 C   0  0  0  0  0  0  0  0  0  0  0  0
  -28.1473   -9.4892   30.9570 C   0  0  1  0  0  0  0  0  0  0  0  0
  -24.9158  -11.4864   30.9154 C   0  0  1  0  0  0  0  0  0  0  0  0
  -27.7198  -13.1453   20.1888 C   0  0  2  0  0  0  0  0  0  0  0  0
  -33.7191  -11.8594   24.8854 C   0  0  0  0  0  0  0  0  0  0  0  0
  -17.7592  -12.5678   28.1556 C   0  0  0  0  0  0  0  0  0  0  0  0
  -23.3550   -9.1415   27.2513 C   0  0  0  0  0  0  0  0  0  0  0  0
  -21.1073   -9.8422   26.3998 C   0  0  0  0  0  0  0  0  0  0  0  0
  -21.2854   -8.5392   28.5195 C   0  0  0  0  0  0  0  0  0  0  0  0
  -19.6833  -14.9067   30.4585 C   0  0  0  0  0  0  0  0  0  0  0  0
  -30.7911  -13.6063   25.1798 C   0  0  0  0  0  0  0  0  0  0  0  0
  -29.2805  -16.9440   26.1330 C   0  0  0  0  0  0  0  0  0  0  0  0
  -26.8594  -16.2776   26.2909 C   0  0  0  0  0  0  0  0  0  1  0  0
  -31.5370  -13.0034   23.9876 C   0  0  2  0  0  0  0  0  0  0  0  0
  -22.0068  -10.9622   28.4897 C   0  0  1  0  0  0  0  0  0  0  0  0
  -18.8485  -12.9537   29.1441 C   0  0  2  0  0  0  0  0  0  0  0  0
  -27.8877  -17.1090   25.5324 C   0  0  1  0  0  0  0  0  0  0  0  0
  -21.9583   -9.6407   27.6718 C   0  0  0  0  0  0  0  0  0  0  0  0
  -25.8710  -11.5659   20.6011 N   0  0  0  0  0  0  0  0  0  0  0  0
  -26.2545  -12.8443   20.4438 N   0  0  0  0  0  0  0  0  0  0  0  0
  -23.9513  -11.6949   29.8335 N   0  0  0  0  0  0  0  0  0  0  0  0
  -30.0543  -12.4693   20.6150 N   0  0  0  0  0  0  0  0  0  0  0  0
  -25.4419  -15.0689   20.4053 N   0  0  0  0  0  0  0  0  0  0  0  0
  -21.7291  -12.6166   21.1784 N   0  0  0  0  0  0  0  0  0  0  0  0
  -26.9926  -10.2988   31.2819 N   0  0  0  0  0  0  0  0  0  0  0  0
  -29.7259  -15.5766   26.0720 N   0  0  0  0  0  0  0  0  0  0  0  0
  -20.7003  -11.4441   28.9246 N   0  0  0  0  0  0  0  0  0  0  0  0
  -30.6326  -12.7269   22.8938 N   0  0  0  0  0  0  0  0  0  0  0  0
  -18.6907  -14.3976   29.4774 N   0  3  0  0  0  0  0  0  0  0  0  0
  -22.5243  -14.7460   20.8749 O   0  0  0  0  0  0  0  0  0  0  0  0
  -26.0052  -10.3234   29.1732 O   0  0  0  0  0  0  0  0  0  0  0  0
  -31.7410  -10.6404   24.3759 O   0  0  0  0  0  0  0  0  0  0  0  0
  -22.5316  -10.0111   30.5984 O   0  0  0  0  0  0  0  0  0  0  0  0
  -30.7473  -15.7212   23.9929 O   0  0  0  0  0  0  0  0  0  0  0  0
  -20.8316  -13.5110   27.8815 O   0  0  0  0  0  0  0  0  0  0  0  0
  -32.2145  -13.0142   21.2591 O   0  0  0  0  0  0  0  0  0  0  0  0
  -27.4973  -18.4801   25.6295 O   0  0  0  0  0  0  0  0  0  0  0  0
  -21.4822   -7.0702   21.6383 O   0  0  0  0  0  0  0  0  0  0  0  0
  -26.8494  -16.6870   27.6579 O   0  0  0  0  0  0  0  0  0  1  0  0
  -23.4509   -3.2693   25.1141 F   0  0  0  0  0  0  0  0  0  0  0  0
  -20.0665   -6.3479   23.9003 F   0  0  0  0  0  0  0  0  0  0  0  0
  1  2  1  0  0  0  0
  1  5  2  0  0  0  0
  2  6  2  0  0  0  0
  3  8  2  0  0  0  0
  3 15  1  0  0  0  0
  4  9  1  0  0  0  0
  4 15  2  0  0  0  0
  5 17  1  0  0  0  0
  6 19  1  0  0  0  0
  7 10  2  0  0  0  0
  7 18  1  0  0  0  0
  8 21  1  0  0  0  0
  9 21  2  0  0  0  0
 10 22  1  0  0  0  0
 11 12  2  0  0  0  0
 11 23  1  0  0  0  0
 12 24  1  0  0  0  0
 13 20  1  0  0  0  0
 13 22  2  0  0  0  0
 14 24  2  0  0  0  0
 14 25  1  0  0  0  0
 15 26  1  0  0  0  0
 16 26  1  0  0  0  0
 16 27  2  0  0  0  0
 16 28  1  0  0  0  0
 17 19  2  0  0  0  0
 17 35  1  0  0  0  0
 18 20  2  0  0  0  0
 18 36  1  0  0  0  0
 19 44  1  0  0  0  0
 20 37  1  0  0  0  0
 21 80  1  0  0  0  0
 22 81  1  0  0  0  0
 23 25  2  0  0  0  0
 23 80  1  0  0  0  0
 24 82  1  0  0  0  0
 25 83  1  0  0  0  0
 26 61  2  0  0  0  0
 27 62  1  0  0  0  0
 27 65  1  0  0  0  0
 28 66  1  0  0  0  0
 28 72  2  0  0  0  0
 29 45  1  0  0  0  0
 29 67  1  0  0  0  0
 29 73  2  0  0  0  0
 30 47  1  0  0  0  0
 30 56  1  0  0  0  0
 30 74  2  0  0  0  0
 31 57  1  0  0  0  0
 31 63  1  0  0  0  0
 31 75  2  0  0  0  0
 32 53  1  0  0  0  0
 32 68  1  0  0  0  0
 32 76  2  0  0  0  0
 33 58  1  0  0  0  0
 33 69  1  0  0  0  0
 33 77  2  0  0  0  0
 34 64  1  0  0  0  0
 34 70  1  0  0  0  0
 34 78  2  0  0  0  0
 35 38  1  0  0  0  0
 36 45  1  0  0  0  0
 37 63  1  0  0  0  0
 38 40  1  0  0  0  0
 39 41  1  0  0  0  0
 39 42  1  0  0  0  0
 40 44  1  0  0  0  0
 41 46  1  0  0  0  0
 42 64  1  0  0  0  0
 43 46  1  0  0  0  0
 43 64  1  0  0  0  0
 44 67  1  0  0  0  0
 45 63  1  0  0  0  0
 46 62  1  0  0  0  0
 48 58  1  0  0  0  0
 49 60  1  0  0  0  0
 50 60  1  0  0  0  0
 51 60  1  0  0  0  0
 52 71  1  0  0  0  0
 53 56  1  0  0  0  0
 54 59  1  0  0  0  0
 54 68  1  0  0  0  0
 55 59  1  0  0  0  0
 55 81  1  0  0  0  0
 56 70  1  0  0  0  0
 57 60  1  0  0  0  0
 57 69  1  0  0  0  0
 58 71  1  0  0  0  0
 59 79  1  0  0  0  0
 61 62  1  0  0  0  0
M  CHG  1  71   1
M  ISO  4  34 100  55 101  70 100  81 101
M  END
> <Batch ID>
0188

> <Smiles>
CNC(C)C(=O)NC(C(=O)N1Cc2cc([101O:1][101CH2:1]C(O)CNC(=O)CC([100NH:0][100C:0](=O)N3CCCC(n4nc(-c5ccc(Oc6ccc(F)cc6F)cc5)c(C(N)=O)c4N)C3)C(C)=O)ccc2CC1C(=O)NC1CCCc2ccccc21)C(C)(C)C

> <Shape>
0.143

> <Color>
0.175

> <Negative vol penalty>
0.000

$$$$

  -OEChem-04052305153D

 86 94  0     1  0  0  0  0  0999 V2000
  -17.1868  -25.7491   23.3160 C   0  0  0  0  0  0  0  0  0  0  0  0
  -18.1918  -25.7474   22.3541 C   0  0  0  0  0  0  0  0  0  0  0  0
  -30.0811  -13.1221   17.9687 C   0  0  0  0  0  0  0  0  0  0  0  0
  -31.0078  -11.6987   19.6869 C   0  0  0  0  0  0  0  0  0  0  0  0
  -16.8298  -26.9398   23.9475 C   0  0  0  0  0  0  0  0  0  0  0  0
  -18.8397  -26.9368   22.0222 C   0  0  0  0  0  0  0  0  0  0  0  0
  -23.8641  -26.3890   21.7051 C   0  0  0  0  0  0  0  0  0  0  0  0
  -30.9653  -12.5752   17.0388 C   0  0  0  0  0  0  0  0  0  0  0  0
  -31.8919  -11.1517   18.7570 C   0  0  0  0  0  0  0  0  0  0  0  0
  -24.3685  -25.7995   20.5467 C   0  0  0  0  0  0  0  0  0  0  0  0
  -34.1485   -9.1231   16.7543 C   0  0  0  0  0  0  0  0  0  0  0  0
  -34.3094   -7.7376   16.7483 C   0  0  0  0  0  0  0  0  0  0  0  0
  -24.9235  -27.9830   19.6844 C   0  0  0  0  0  0  0  0  0  0  0  0
  -31.9561   -7.4663   16.2738 C   0  0  0  0  0  0  0  0  0  0  0  0
  -27.2679  -21.2939   20.1139 C   0  0  0  0  0  0  0  0  0  0  0  0
  -30.1024  -12.6839   19.2928 C   0  0  0  0  0  0  0  0  0  0  0  0
  -27.8973  -12.7897   20.5710 C   0  0  0  0  0  0  0  0  0  0  0  0
  -17.4803  -28.1426   23.6302 C   0  0  0  0  0  0  0  0  0  0  0  0
  -23.8757  -27.7829   21.8575 C   0  0  0  0  0  0  0  0  0  0  0  0
  -18.4902  -28.1449   22.6491 C   0  0  0  0  0  0  0  0  0  0  0  0
  -24.4210  -28.5875   20.8468 C   0  0  0  0  0  0  0  0  0  0  0  0
  -31.8706  -11.5900   17.4329 C   0  0  0  0  0  0  0  0  0  0  0  0
  -24.8956  -26.5966   19.5349 C   0  0  0  0  0  0  0  0  0  0  0  0
  -32.8913   -9.6802   16.5201 C   0  0  0  0  0  0  0  0  0  0  0  0
  -33.2132   -6.9092   16.5080 C   0  0  0  0  0  0  0  0  0  0  0  0
  -31.7951   -8.8518   16.2798 C   0  0  0  0  0  0  0  0  0  0  0  0
  -29.1898  -13.2488   20.2541 C   0  0  0  0  0  0  0  0  0  0  0  0
  -28.2921  -20.9449   21.0400 C   0  0  0  0  0  0  0  0  0  0  0  0
  -27.4503  -13.6604   21.5346 C   0  0  0  0  0  0  0  0  0  0  0  0
  -27.5489  -22.5121   19.5343 C   0  0  0  0  0  0  0  0  0  0  0  0
  -27.1661  -11.6757   20.0418 C   0  0  0  0  0  0  0  0  0  0  0  0
  -21.6450  -30.0189   22.2156 C   0  0  0  0  0  0  0  0  0  0  0  0
  -24.2103  -31.9577   22.6429 C   0  0  0  0  0  0  0  0  0  0  0  0
  -25.6707  -23.0051   17.9296 C   0  0  0  0  0  0  0  0  0  0  0  0
  -27.5292  -32.5343   22.0957 C   0  0  0  0  0  0  0  0  0  0  0  0
  -29.2699  -19.3774   22.7079 C   0  0  0  0  0  0  0  0  0  0  0  0
  -17.0273  -29.4129   24.3054 C   0  0  0  0  0  0  0  0  0  0  0  0
  -23.3522  -28.4017   23.1245 C   0  0  0  0  0  0  0  0  0  0  0  0
  -24.4753  -30.0876   20.9702 C   0  0  0  0  0  0  0  0  0  0  0  0
  -18.0202  -30.5640   24.1662 C   0  0  0  0  0  0  0  0  0  0  0  0
  -29.0130  -16.5210   25.0285 C   0  0  0  0  0  0  0  0  0  0  0  0
  -18.5012  -30.6826   22.7235 C   0  0  0  0  0  0  0  0  0  0  0  0
  -28.9847  -15.3185   24.0866 C   0  0  0  0  0  0  0  0  0  0  0  0
  -29.8020  -17.6855   24.4375 C   0  0  0  0  0  0  0  0  0  0  0  0
  -29.3043  -16.9008   22.1425 C   0  0  0  0  0  0  0  0  0  0  0  0
  -19.2333  -29.4104   22.2798 C   0  0  1  0  0  0  0  0  0  0  0  0
  -22.9450  -29.8619   22.9525 C   0  0  1  0  0  0  0  0  0  0  0  0
  -28.4805  -15.7262   22.6914 C   0  0  1  0  0  0  0  0  0  0  0  0
  -29.3339  -34.2219   22.5343 C   0  0  0  0  0  0  0  0  0  0  0  0
  -23.0626  -33.7497   20.4562 C   0  0  0  0  0  0  0  0  0  0  0  0
  -25.3048  -34.8491   20.2772 C   0  0  0  0  0  0  0  0  0  0  0  0
  -24.0224  -34.9760   22.4131 C   0  0  0  0  0  0  0  0  0  0  0  0
  -22.6781  -25.4400   15.8292 C   0  0  0  0  0  0  0  0  0  0  0  0
  -24.6812  -26.9485   15.7133 C   0  0  0  0  0  0  0  0  0  0  0  0
  -27.0113  -18.9269   21.7777 C   0  0  0  0  0  0  0  0  0  0  0  0
  -29.1316  -30.5894   23.6477 C   0  0  0  0  0  0  0  0  0  0  0  0
  -25.2966  -24.1253   16.9614 C   0  0  0  0  0  0  0  0  0  0  0  0
  -25.0876  -32.7856   21.7352 C   0  0  1  0  0  0  0  0  0  0  0  0
  -28.6453  -32.9608   23.0322 C   0  0  2  0  0  0  0  0  0  0  0  0
  -24.4833  -25.2416   17.6245 C   0  0  2  0  0  0  0  0  0  1  0  0
  -24.3667  -34.0620   21.2169 C   0  0  0  0  0  0  0  0  0  0  0  0
  -23.7468  -26.1712   16.6382 C   0  0  0  0  0  0  0  0  0  0  0  0
  -29.5410  -14.3276   20.9590 N   0  0  0  0  0  0  0  0  0  0  0  0
  -29.2987  -21.8030   21.1871 N   0  0  0  0  0  0  0  0  0  0  0  0
  -28.4626  -14.5536   21.7285 N   0  0  0  0  0  0  0  0  0  0  0  0
  -23.9455  -30.6457   22.2253 N   0  0  0  0  0  0  0  0  0  0  0  0
  -29.3326  -18.0231   23.0931 N   0  0  0  0  0  0  0  0  0  0  0  0
  -26.2939  -13.7416   22.2265 N   0  0  0  0  0  0  0  0  0  0  0  0
  -27.7739  -10.8845   19.0574 N   0  0  0  0  0  0  0  0  0  0  0  0
  -26.8721  -23.2970   18.5707 N   0  0  0  0  0  0  0  0  0  0  0  0
  -20.5758  -29.3854   22.8197 N   0  0  0  0  0  0  0  0  0  0  0  0
  -26.3116  -33.0527   22.4829 N   0  0  0  0  0  0  0  0  0  0  0  0
  -28.2491  -19.7133   21.7924 N   0  0  0  0  0  0  0  0  0  0  0  0
  -29.6665  -31.8814   23.1462 N   0  3  0  0  0  0  0  0  0  0  0  0
  -26.0018  -11.4001   20.4185 O   0  0  0  0  0  0  0  0  0  0  0  0
  -21.6140  -30.6681   21.1767 O   0  0  0  0  0  0  0  0  0  0  0  0
  -23.7818  -32.4544   23.6876 O   0  0  0  0  0  0  0  0  0  0  0  0
  -24.9731  -22.0073   18.0771 O   0  0  0  0  0  0  0  0  0  0  0  0
  -27.7192  -31.8164   21.1164 O   0  0  0  0  0  0  0  0  0  0  0  0
  -30.0456  -20.2233   23.1687 O   0  0  0  0  0  0  0  0  0  0  0  0
  -32.7334  -11.0560   16.5256 O   0  0  0  0  0  0  0  0  0  0  0  0
  -25.3880  -26.0238   18.4030 O   0  0  0  0  0  0  0  0  0  1  0  0
  -33.3682   -5.5787   16.5007 F   0  0  0  0  0  0  0  0  0  0  0  0
  -30.5852   -9.3813   16.0530 F   0  0  0  0  0  0  0  0  0  0  0  0
  -23.0836  -27.1015   17.4001 F   0  0  0  0  0  0  0  0  0  0  0  0
  -29.0248  -23.0954   20.1787 S   0  0  0  0  0  0  0  0  0  0  0  0
  1  2  1  0  0  0  0
  1  5  2  0  0  0  0
  2  6  2  0  0  0  0
  3  8  2  0  0  0  0
  3 16  1  0  0  0  0
  4  9  1  0  0  0  0
  4 16  2  0  0  0  0
  5 18  1  0  0  0  0
  6 20  1  0  0  0  0
  7 10  2  0  0  0  0
  7 19  1  0  0  0  0
  8 22  1  0  0  0  0
  9 22  2  0  0  0  0
 10 23  1  0  0  0  0
 11 12  2  0  0  0  0
 11 24  1  0  0  0  0
 12 25  1  0  0  0  0
 13 21  1  0  0  0  0
 13 23  2  0  0  0  0
 14 25  2  0  0  0  0
 14 26  1  0  0  0  0
 15 28  1  0  0  0  0
 15 30  2  0  0  0  0
 16 27  1  0  0  0  0
 17 27  1  0  0  0  0
 17 29  2  0  0  0  0
 17 31  1  0  0  0  0
 18 20  2  0  0  0  0
 18 37  1  0  0  0  0
 19 21  2  0  0  0  0
 19 38  1  0  0  0  0
 20 46  1  0  0  0  0
 21 39  1  0  0  0  0
 22 81  1  0  0  0  0
 23 82  1  0  0  0  0
 24 26  2  0  0  0  0
 24 81  1  0  0  0  0
 25 83  1  0  0  0  0
 26 84  1  0  0  0  0
 27 63  2  0  0  0  0
 28 64  2  0  0  0  0
 28 73  1  0  0  0  0
 29 65  1  0  0  0  0
 29 68  1  0  0  0  0
 30 70  1  0  0  0  0
 30 86  1  0  0  0  0
 31 69  1  0  0  0  0
 31 75  2  0  0  0  0
 32 47  1  0  0  0  0
 32 71  1  0  0  0  0
 32 76  2  0  0  0  0
 33 58  1  0  0  0  0
 33 66  1  0  0  0  0
 33 77  2  0  0  0  0
 34 57  1  0  0  0  0
 34 70  1  0  0  0  0
 34 78  2  0  0  0  0
 35 59  1  0  0  0  0
 35 72  1  0  0  0  0
 35 79  2  0  0  0  0
 36 67  1  0  0  0  0
 36 73  1  0  0  0  0
 36 80  2  0  0  0  0
 37 40  1  0  0  0  0
 38 47  1  0  0  0  0
 39 66  1  0  0  0  0
 40 42  1  0  0  0  0
 41 43  1  0  0  0  0
 41 44  1  0  0  0  0
 42 46  1  0  0  0  0
 43 48  1  0  0  0  0
 44 67  1  0  0  0  0
 45 48  1  0  0  0  0
 45 67  1  0  0  0  0
 46 71  1  0  0  0  0
 47 66  1  0  0  0  0
 48 65  1  0  0  0  0
 49 59  1  0  0  0  0
 50 61  1  0  0  0  0
 51 61  1  0  0  0  0
 52 61  1  0  0  0  0
 53 62  1  0  0  0  0
 54 62  1  0  0  0  0
 55 73  1  0  0  0  0
 56 74  1  0  0  0  0
 57 60  1  0  0  0  0
 58 61  1  0  0  0  0
 58 72  1  0  0  0  0
 59 74  1  0  0  0  0
 60 62  1  0  0  0  0
 60 82  1  0  0  0  0
 62 85  1  0  0  0  0
 63 65  1  0  0  0  0
 64 86  1  0  0  0  0
M  CHG  1  74   1
M  ISO  4  36 100  60 101  73 100  82 101
M  END
> <Batch ID>
0188

> <Smiles>
CNC(C)C(=O)NC(C(=O)N1Cc2cc([101O:1][101CH:1](CC(=O)Nc3cc([100N:0](C)[100C:0](=O)N4CCCC(n5nc(-c6ccc(Oc7ccc(F)cc7F)cc6)c(C(N)=O)c5N)C4)ns3)C(C)(C)F)ccc2CC1C(=O)NC1CCCc2ccccc21)C(C)(C)C

> <Shape>
0.236

> <Color>
0.061

> <Negative vol penalty>
0.000

$$$$

  -OEChem-04052305153D

 84 92  0     1  0  0  0  0  0999 V2000
  -29.1484  -36.0252   19.4999 C   0  0  0  0  0  0  0  0  0  0  0  0
  -29.2876  -34.6657   19.7603 C   0  0  0  0  0  0  0  0  0  0  0  0
  -23.8878   -8.8115   20.4806 C   0  0  0  0  0  0  0  0  0  0  0  0
  -23.1187  -10.8083   21.6025 C   0  0  0  0  0  0  0  0  0  0  0  0
  -28.1419  -36.7552   20.1307 C   0  0  0  0  0  0  0  0  0  0  0  0
  -28.4209  -34.0356   20.6526 C   0  0  0  0  0  0  0  0  0  0  0  0
  -26.7339  -29.5899   18.9106 C   0  0  0  0  0  0  0  0  0  0  0  0
  -23.1020   -8.0320   21.3293 C   0  0  0  0  0  0  0  0  0  0  0  0
  -22.3329  -10.0287   22.4512 C   0  0  0  0  0  0  0  0  0  0  0  0
  -27.6015  -28.5019   18.9962 C   0  0  0  0  0  0  0  0  0  0  0  0
  -19.8466   -7.1624   21.6102 C   0  0  0  0  0  0  0  0  0  0  0  0
  -19.0919   -6.1390   21.0368 C   0  0  0  0  0  0  0  0  0  0  0  0
  -26.4473  -27.7449   20.9746 C   0  0  0  0  0  0  0  0  0  0  0  0
  -20.2630   -4.5167   22.3909 C   0  0  0  0  0  0  0  0  0  0  0  0
  -23.8962  -10.1997   20.6172 C   0  0  0  0  0  0  0  0  0  0  0  0
  -24.3321  -11.5572   18.5018 C   0  0  0  0  0  0  0  0  0  0  0  0
  -27.2563  -36.1317   21.0238 C   0  0  0  0  0  0  0  0  0  0  0  0
  -25.7217  -29.7698   19.8643 C   0  0  0  0  0  0  0  0  0  0  0  0
  -27.4024  -34.7582   21.2970 C   0  0  0  0  0  0  0  0  0  0  0  0
  -25.5666  -28.8347   20.8974 C   0  0  0  0  0  0  0  0  0  0  0  0
  -22.3245   -8.6405   22.3146 C   0  0  0  0  0  0  0  0  0  0  0  0
  -27.4601  -27.5808   20.0300 C   0  0  0  0  0  0  0  0  0  0  0  0
  -20.8095   -6.8629   22.5739 C   0  0  0  0  0  0  0  0  0  0  0  0
  -19.3001   -4.8162   21.4272 C   0  0  0  0  0  0  0  0  0  0  0  0
  -21.0177   -5.5401   22.9643 C   0  0  0  0  0  0  0  0  0  0  0  0
  -24.7082  -11.0055   19.7412 C   0  0  0  0  0  0  0  0  0  0  0  0
  -27.8331  -18.5556   17.4342 C   0  0  0  0  0  0  0  0  0  0  0  0
  -25.4497  -12.2302   18.0722 C   0  0  0  0  0  0  0  0  0  0  0  0
  -28.7321  -17.7474   18.0982 C   0  0  0  0  0  0  0  0  0  0  0  0
  -29.2529  -20.0992   18.0758 C   0  0  0  0  0  0  0  0  0  0  0  0
  -23.0840  -11.4694   17.8016 C   0  0  0  0  0  0  0  0  0  0  0  0
  -29.8641  -21.4413   18.2551 C   0  0  0  0  0  0  0  0  0  0  0  0
  -25.0312  -32.0146   22.0062 C   0  0  0  0  0  0  0  0  0  0  0  0
  -29.1025  -24.5229   18.9970 C   0  0  0  0  0  0  0  0  0  0  0  0
  -22.3558  -30.2314   22.4364 C   0  0  0  0  0  0  0  0  0  0  0  0
  -20.8317  -27.1880   22.1887 C   0  0  0  0  0  0  0  0  0  0  0  0
  -29.7501  -15.6369   19.0231 C   0  0  0  0  0  0  0  0  0  0  0  0
  -26.2137  -36.9720   21.7177 C   0  0  0  0  0  0  0  0  0  0  0  0
  -24.7772  -30.9341   19.7426 C   0  0  0  0  0  0  0  0  0  0  0  0
  -24.4833  -28.9714   21.9349 C   0  0  0  0  0  0  0  0  0  0  0  0
  -25.1009  -36.1509   22.3640 C   0  0  0  0  0  0  0  0  0  0  0  0
  -30.1944  -12.1988   19.8352 C   0  0  0  0  0  0  0  0  0  0  0  0
  -25.6876  -34.9863   23.1553 C   0  0  0  0  0  0  0  0  0  0  0  0
  -28.7758  -11.6273   19.7812 C   0  0  0  0  0  0  0  0  0  0  0  0
  -30.2126  -13.6190   20.3977 C   0  0  0  0  0  0  0  0  0  0  0  0
  -27.8859  -13.9904   19.6784 C   0  0  0  0  0  0  0  0  0  0  0  0
  -26.4662  -34.0338   22.2398 C   0  0  1  0  0  0  0  0  0  0  0  0
  -24.1058  -31.2994   21.0629 C   0  0  1  0  0  0  0  0  0  0  0  0
  -27.8092  -12.5857   19.0582 C   0  0  2  0  0  0  0  0  0  0  0  0
  -26.6027  -18.1083   16.7490 C   0  0  0  0  0  0  0  0  0  0  0  0
  -18.6533  -26.0322   22.6533 C   0  0  0  0  0  0  0  0  0  0  0  0
  -23.0243  -30.1734   25.4129 C   0  0  0  0  0  0  0  0  0  0  0  0
  -21.4128  -28.2742   25.6666 C   0  0  0  0  0  0  0  0  0  0  0  0
  -20.6000  -30.5026   24.8944 C   0  0  0  0  0  0  0  0  0  0  0  0
  -20.4477  -26.5128   19.3329 C   0  0  0  0  0  0  0  0  0  0  0  0
  -29.6545  -23.8618   17.7521 C   0  0  0  0  0  0  0  0  0  0  0  0
  -28.8396  -26.0119   18.8934 C   0  0  0  0  0  0  0  0  0  1  0  0
  -21.9747  -29.0731   23.3263 C   0  0  1  0  0  0  0  0  0  0  0  0
  -19.4840  -26.7795   21.6218 C   0  0  2  0  0  0  0  0  0  0  0  0
  -21.7747  -29.5040   24.8068 C   0  0  0  0  0  0  0  0  0  0  0  0
  -25.9665  -11.3021   20.0770 N   0  0  0  0  0  0  0  0  0  0  0  0
  -28.1299  -19.9045   17.4206 N   0  0  0  0  0  0  0  0  0  0  0  0
  -26.3908  -12.0474   19.0423 N   0  0  0  0  0  0  0  0  0  0  0  0
  -23.5888  -30.1300   21.7766 N   0  0  0  0  0  0  0  0  0  0  0  0
  -29.2764  -14.4710   19.6611 N   0  0  0  0  0  0  0  0  0  0  0  0
  -25.7094  -12.9544   16.9629 N   0  0  0  0  0  0  0  0  0  0  0  0
  -22.0403  -10.7385   18.3855 N   0  0  0  0  0  0  0  0  0  0  0  0
  -28.7748  -16.3496   18.3264 N   0  0  0  0  0  0  0  0  0  0  0  0
  -29.1796  -22.5119   17.6853 N   0  0  0  0  0  0  0  0  0  0  0  0
  -25.5553  -33.1881   21.4985 N   0  0  0  0  0  0  0  0  0  0  0  0
  -20.7985  -28.4608   22.7181 N   0  0  0  0  0  0  0  0  0  0  0  0
  -19.6673  -25.8956   20.4360 N   0  3  0  0  0  0  0  0  0  0  0  0
  -22.9050  -12.0090   16.6835 O   0  0  0  0  0  0  0  0  0  0  0  0
  -30.9267  -21.5403   18.8632 O   0  0  0  0  0  0  0  0  0  0  0  0
  -25.2521  -31.5379   23.1133 O   0  0  0  0  0  0  0  0  0  0  0  0
  -28.9267  -23.9050   20.0468 O   0  0  0  0  0  0  0  0  0  0  0  0
  -21.5846  -31.1877   22.3250 O   0  0  0  0  0  0  0  0  0  0  0  0
  -21.8145  -26.4503   22.1676 O   0  0  0  0  0  0  0  0  0  0  0  0
  -30.9390  -15.9632   19.0671 O   0  0  0  0  0  0  0  0  0  0  0  0
  -21.5574   -7.8801   23.1428 O   0  0  0  0  0  0  0  0  0  0  0  0
  -28.3059  -26.5182   20.1162 O   0  0  0  0  0  0  0  0  0  1  0  0
  -18.5742   -3.8337   20.8776 F   0  0  0  0  0  0  0  0  0  0  0  0
  -21.9405   -5.2463   23.8905 F   0  0  0  0  0  0  0  0  0  0  0  0
  -30.0055  -18.7044   18.7337 S   0  0  0  0  0  0  0  0  0  0  0  0
  1  2  1  0  0  0  0
  1  5  2  0  0  0  0
  2  6  2  0  0  0  0
  3  8  2  0  0  0  0
  3 15  1  0  0  0  0
  4  9  1  0  0  0  0
  4 15  2  0  0  0  0
  5 17  1  0  0  0  0
  6 19  1  0  0  0  0
  7 10  2  0  0  0  0
  7 18  1  0  0  0  0
  8 21  1  0  0  0  0
  9 21  2  0  0  0  0
 10 22  1  0  0  0  0
 11 12  2  0  0  0  0
 11 23  1  0  0  0  0
 12 24  1  0  0  0  0
 13 20  1  0  0  0  0
 13 22  2  0  0  0  0
 14 24  2  0  0  0  0
 14 25  1  0  0  0  0
 15 26  1  0  0  0  0
 16 26  1  0  0  0  0
 16 28  2  0  0  0  0
 16 31  1  0  0  0  0
 17 19  2  0  0  0  0
 17 38  1  0  0  0  0
 18 20  2  0  0  0  0
 18 39  1  0  0  0  0
 19 47  1  0  0  0  0
 20 40  1  0  0  0  0
 21 80  1  0  0  0  0
 22 81  1  0  0  0  0
 23 25  2  0  0  0  0
 23 80  1  0  0  0  0
 24 82  1  0  0  0  0
 25 83  1  0  0  0  0
 26 61  2  0  0  0  0
 27 29  2  0  0  0  0
 27 50  1  0  0  0  0
 27 62  1  0  0  0  0
 28 63  1  0  0  0  0
 28 66  1  0  0  0  0
 29 68  1  0  0  0  0
 29 84  1  0  0  0  0
 30 32  1  0  0  0  0
 30 62  2  0  0  0  0
 30 84  1  0  0  0  0
 31 67  1  0  0  0  0
 31 73  2  0  0  0  0
 32 69  1  0  0  0  0
 32 74  2  0  0  0  0
 33 48  1  0  0  0  0
 33 70  1  0  0  0  0
 33 75  2  0  0  0  0
 34 56  1  0  0  0  0
 34 57  1  0  0  0  0
 34 76  2  0  0  0  0
 35 58  1  0  0  0  0
 35 64  1  0  0  0  0
 35 77  2  0  0  0  0
 36 59  1  0  0  0  0
 36 71  1  0  0  0  0
 36 78  2  0  0  0  0
 37 65  1  0  0  0  0
 37 68  1  0  0  0  0
 37 79  2  0  0  0  0
 38 41  1  0  0  0  0
 39 48  1  0  0  0  0
 40 64  1  0  0  0  0
 41 43  1  0  0  0  0
 42 44  1  0  0  0  0
 42 45  1  0  0  0  0
 43 47  1  0  0  0  0
 44 49  1  0  0  0  0
 45 65  1  0  0  0  0
 46 49  1  0  0  0  0
 46 65  1  0  0  0  0
 47 70  1  0  0  0  0
 48 64  1  0  0  0  0
 49 63  1  0  0  0  0
 51 59  1  0  0  0  0
 52 60  1  0  0  0  0
 53 60  1  0  0  0  0
 54 60  1  0  0  0  0
 55 72  1  0  0  0  0
 56 69  1  0  0  0  0
 57 81  1  0  0  0  0
 58 60  1  0  0  0  0
 58 71  1  0  0  0  0
 59 72  1  0  0  0  0
 61 63  1  0  0  0  0
M  CHG  1  72   1
M  ISO  4  37 100  57 101  68 100  81 101
M  END
> <Batch ID>
0188

> <Smiles>
CNC(C)C(=O)NC(C(=O)N1Cc2cc([101O:1][101CH2:1]C(=O)CNC(=O)c3nc(C)c([100NH:0][100C:0](=O)N4CCCC(n5nc(-c6ccc(Oc7ccc(F)cc7F)cc6)c(C(N)=O)c5N)C4)s3)ccc2CC1C(=O)NC1CCCc2ccccc21)C(C)(C)C

> <Shape>
0.295

> <Color>
0.104

> <Negative vol penalty>
0.000

$$$$

  -OEChem-04052305153D

 86 94  0     1  0  0  0  0  0999 V2000
  -28.3565  -23.6299   17.6778 C   0  0  0  0  0  0  0  0  0  0  0  0
  -27.1611  -23.8870   18.3412 C   0  0  0  0  0  0  0  0  0  0  0  0
  -27.6884  -15.0686   20.3023 C   0  0  0  0  0  0  0  0  0  0  0  0
  -25.3108  -15.4833   20.4123 C   0  0  0  0  0  0  0  0  0  0  0  0
  -29.5386  -24.2238   18.1183 C   0  0  0  0  0  0  0  0  0  0  0  0
  -27.1471  -24.7374   19.4463 C   0  0  0  0  0  0  0  0  0  0  0  0
  -23.3025  -28.0308   19.3147 C   0  0  0  0  0  0  0  0  0  0  0  0
  -27.4516  -13.6953   20.3607 C   0  0  0  0  0  0  0  0  0  0  0  0
  -25.0740  -14.1099   20.4707 C   0  0  0  0  0  0  0  0  0  0  0  0
  -22.0429  -27.5539   19.6749 C   0  0  0  0  0  0  0  0  0  0  0  0
  -25.2077  -11.6553   22.7919 C   0  0  0  0  0  0  0  0  0  0  0  0
  -24.2849  -11.1962   23.7317 C   0  0  0  0  0  0  0  0  0  0  0  0
  -22.3108  -28.5207   21.8687 C   0  0  0  0  0  0  0  0  0  0  0  0
  -22.9377  -10.2664   21.9546 C   0  0  0  0  0  0  0  0  0  0  0  0
  -26.6180  -15.9627   20.3281 C   0  0  0  0  0  0  0  0  0  0  0  0
  -26.9478  -18.1813   19.1131 C   0  0  0  0  0  0  0  0  0  0  0  0
  -29.5375  -25.0895   19.2233 C   0  0  0  0  0  0  0  0  0  0  0  0
  -24.0816  -28.7481   20.2339 C   0  0  0  0  0  0  0  0  0  0  0  0
  -28.3304  -25.3424   19.9027 C   0  0  0  0  0  0  0  0  0  0  0  0
  -23.5789  -29.0079   21.5169 C   0  0  0  0  0  0  0  0  0  0  0  0
  -26.1445  -13.2159   20.4449 C   0  0  0  0  0  0  0  0  0  0  0  0
  -21.5481  -27.7963   20.9530 C   0  0  0  0  0  0  0  0  0  0  0  0
  -24.9955  -11.4201   21.4334 C   0  0  0  0  0  0  0  0  0  0  0  0
  -23.1499  -10.5018   23.3131 C   0  0  0  0  0  0  0  0  0  0  0  0
  -23.8606  -10.7256   21.0148 C   0  0  0  0  0  0  0  0  0  0  0  0
  -26.8619  -17.3815   20.2683 C   0  0  0  0  0  0  0  0  0  0  0  0
  -27.1897  -19.4469   19.5889 C   0  0  0  0  0  0  0  0  0  0  0  0
  -22.7086  -24.6108   25.6599 C   0  0  0  0  0  0  0  0  0  0  0  0
  -23.7840  -23.2187   24.2663 C   0  0  0  0  0  0  0  0  0  0  0  0
  -21.8049  -24.0942   23.6715 C   0  0  0  0  0  0  0  0  0  0  0  0
  -26.8202  -17.8133   17.7332 C   0  0  0  0  0  0  0  0  0  0  0  0
  -26.9132  -28.2990   21.6065 C   0  0  0  0  0  0  0  0  0  0  0  0
  -26.3884  -31.2825   22.7664 C   0  0  0  0  0  0  0  0  0  0  0  0
  -24.1429  -33.7144   23.5974 C   0  0  0  0  0  0  0  0  0  0  0  0
  -26.0056  -22.1501   24.7846 C   0  0  0  0  0  0  0  0  0  0  0  0
  -30.8481  -25.6708   19.6914 C   0  0  0  0  0  0  0  0  0  0  0  0
  -25.4271  -29.2788   19.8211 C   0  0  0  0  0  0  0  0  0  0  0  0
  -24.3673  -29.7903   22.5341 C   0  0  0  0  0  0  0  0  0  0  0  0
  -30.6847  -26.8546   20.6413 C   0  0  0  0  0  0  0  0  0  0  0  0
  -29.2058  -21.7383   23.2792 C   0  0  0  0  0  0  0  0  0  0  0  0
  -29.6470  -26.5391   21.7139 C   0  0  0  0  0  0  0  0  0  0  0  0
  -28.9744  -20.6514   22.2270 C   0  0  0  0  0  0  0  0  0  0  0  0
  -28.3881  -21.4859   24.5447 C   0  0  0  0  0  0  0  0  0  0  0  0
  -26.7190  -20.1956   23.2724 C   0  0  0  0  0  0  0  0  0  0  0  0
  -28.2705  -26.2786   21.0902 C   0  0  1  0  0  0  0  0  0  0  0  0
  -26.3492  -29.5550   21.0047 C   0  0  1  0  0  0  0  0  0  0  0  0
  -27.4719  -20.4415   21.9547 C   0  0  2  0  0  0  0  0  0  0  0  0
  -24.0113  -36.0294   24.5571 C   0  0  0  0  0  0  0  0  0  0  0  0
  -26.9005  -30.1532   25.5543 C   0  0  0  0  0  0  0  0  0  0  0  0
  -25.8448  -32.2139   26.5069 C   0  0  0  0  0  0  0  0  0  0  0  0
  -27.9198  -32.3981   25.1346 C   0  0  0  0  0  0  0  0  0  0  0  0
  -22.9060  -34.7908   21.1336 C   0  0  0  0  0  0  0  0  0  0  0  0
  -19.8735  -26.1299   20.6796 C   0  0  0  0  0  0  0  0  0  1  0  0
  -25.7281  -31.8491   24.0001 C   0  0  1  0  0  0  0  0  0  0  0  0
  -24.1054  -35.1997   23.2860 C   0  0  2  0  0  0  0  0  0  0  0  0
  -19.6058  -25.0444   22.9740 C   0  0  1  0  0  0  0  0  0  0  0  0
  -18.9348  -25.3945   21.6353 C   0  0  2  0  0  0  0  0  0  0  0  0
  -18.6653  -24.3086   23.9217 C   0  0  0  0  0  0  0  0  0  0  0  0
  -26.5840  -31.6371   25.2807 C   0  0  0  0  0  0  0  0  0  0  0  0
  -27.0353  -18.0802   21.3933 N   0  0  0  0  0  0  0  0  0  0  0  0
  -23.7933  -23.8465   25.4530 N   0  0  0  0  0  0  0  0  0  0  0  0
  -21.6773  -24.7828   24.8172 N   0  0  0  0  0  0  0  0  0  0  0  0
  -22.8270  -23.2943   23.3274 N   0  0  0  0  0  0  0  0  0  0  0  0
  -27.2326  -19.3325   20.9473 N   0  0  0  0  0  0  0  0  0  0  0  0
  -25.6800  -30.2828   22.0848 N   0  0  0  0  0  0  0  0  0  0  0  0
  -26.9745  -21.3007   24.2096 N   0  0  0  0  0  0  0  0  0  0  0  0
  -27.3677  -20.6352   18.9736 N   0  0  0  0  0  0  0  0  0  0  0  0
  -22.6480  -25.3053   26.8875 N   0  0  0  0  0  0  0  0  0  0  0  0
  -26.5722  -16.4699   17.4202 N   0  0  0  0  0  0  0  0  0  0  0  0
  -24.8958  -22.3900   23.9751 N   0  0  0  0  0  0  0  0  0  0  0  0
  -20.7800  -24.2215   22.7534 N   0  0  0  0  0  0  0  0  0  0  0  0
  -27.6391  -27.5270   20.7196 N   0  0  0  0  0  0  0  0  0  0  0  0
  -25.4359  -33.2469   23.7013 N   0  0  0  0  0  0  0  0  0  0  0  0
  -22.9296  -35.5195   22.4279 N   0  3  0  0  0  0  0  0  0  0  0  0
  -26.9395  -18.6481   16.8046 O   0  0  0  0  0  0  0  0  0  0  0  0
  -26.7064  -28.0496   22.7883 O   0  0  0  0  0  0  0  0  0  0  0  0
  -27.4888  -31.7162   22.4162 O   0  0  0  0  0  0  0  0  0  0  0  0
  -23.1268  -33.0375   23.7383 O   0  0  0  0  0  0  0  0  0  0  0  0
  -26.1624  -22.6511   25.9010 O   0  0  0  0  0  0  0  0  0  0  0  0
  -18.4640  -24.2051   21.0002 O   0  0  0  0  0  0  0  0  0  0  0  0
  -25.9130  -11.8758   20.5017 O   0  0  0  0  0  0  0  0  0  0  0  0
  -20.3193  -27.3313   21.3074 O   0  0  0  0  0  0  0  0  0  1  0  0
  -22.2646  -10.0596   24.2158 F   0  0  0  0  0  0  0  0  0  0  0  0
  -23.6519  -10.4955   19.7112 F   0  0  0  0  0  0  0  0  0  0  0  0
  -18.2677  -23.1262   23.3919 F   0  0  0  0  0  0  0  0  0  0  0  0
  -19.3147  -24.0194   25.0783 F   0  0  0  0  0  0  0  0  0  0  0  0
  1  2  1  0  0  0  0
  1  5  2  0  0  0  0
  2  6  2  0  0  0  0
  3  8  2  0  0  0  0
  3 15  1  0  0  0  0
  4  9  1  0  0  0  0
  4 15  2  0  0  0  0
  5 17  1  0  0  0  0
  6 19  1  0  0  0  0
  7 10  2  0  0  0  0
  7 18  1  0  0  0  0
  8 21  1  0  0  0  0
  9 21  2  0  0  0  0
 10 22  1  0  0  0  0
 11 12  2  0  0  0  0
 11 23  1  0  0  0  0
 12 24  1  0  0  0  0
 13 20  1  0  0  0  0
 13 22  2  0  0  0  0
 14 24  2  0  0  0  0
 14 25  1  0  0  0  0
 15 26  1  0  0  0  0
 16 26  1  0  0  0  0
 16 27  2  0  0  0  0
 16 31  1  0  0  0  0
 17 19  2  0  0  0  0
 17 36  1  0  0  0  0
 18 20  2  0  0  0  0
 18 37  1  0  0  0  0
 19 45  1  0  0  0  0
 20 38  1  0  0  0  0
 21 81  1  0  0  0  0
 22 82  1  0  0  0  0
 23 25  2  0  0  0  0
 23 81  1  0  0  0  0
 24 83  1  0  0  0  0
 25 84  1  0  0  0  0
 26 60  2  0  0  0  0
 27 64  1  0  0  0  0
 27 67  1  0  0  0  0
 28 61  1  0  0  0  0
 28 62  2  0  0  0  0
 28 68  1  0  0  0  0
 29 61  2  0  0  0  0
 29 63  1  0  0  0  0
 29 70  1  0  0  0  0
 30 62  1  0  0  0  0
 30 63  2  0  0  0  0
 30 71  1  0  0  0  0
 31 69  1  0  0  0  0
 31 75  2  0  0  0  0
 32 46  1  0  0  0  0
 32 72  1  0  0  0  0
 32 76  2  0  0  0  0
 33 54  1  0  0  0  0
 33 65  1  0  0  0  0
 33 77  2  0  0  0  0
 34 55  1  0  0  0  0
 34 73  1  0  0  0  0
 34 78  2  0  0  0  0
 35 66  1  0  0  0  0
 35 70  1  0  0  0  0
 35 79  2  0  0  0  0
 36 39  1  0  0  0  0
 37 46  1  0  0  0  0
 38 65  1  0  0  0  0
 39 41  1  0  0  0  0
 40 42  1  0  0  0  0
 40 43  1  0  0  0  0
 41 45  1  0  0  0  0
 42 47  1  0  0  0  0
 43 66  1  0  0  0  0
 44 47  1  0  0  0  0
 44 66  1  0  0  0  0
 45 72  1  0  0  0  0
 46 65  1  0  0  0  0
 47 64  1  0  0  0  0
 48 55  1  0  0  0  0
 49 59  1  0  0  0  0
 50 59  1  0  0  0  0
 51 59  1  0  0  0  0
 52 74  1  0  0  0  0
 53 57  1  0  0  0  0
 53 82  1  0  0  0  0
 54 59  1  0  0  0  0
 54 73  1  0  0  0  0
 55 74  1  0  0  0  0
 56 57  1  0  0  0  0
 56 58  1  0  0  0  0
 56 71  1  0  0  0  0
 57 80  1  0  0  0  0
 58 85  1  0  0  0  0
 58 86  1  0  0  0  0
 60 64  1  0  0  0  0
M  CHG  1  74   1
M  ISO  4  35 100  53 101  70 100  82 101
M  END
> <Batch ID>
0188

> <Smiles>
CNC(C)C(=O)NC(C(=O)N1Cc2cc([101O:1][101CH2:1]C(O)C(Nc3nc(N)nc([100NH:0][100C:0](=O)N4CCCC(n5nc(-c6ccc(Oc7ccc(F)cc7F)cc6)c(C(N)=O)c5N)C4)n3)C(F)F)ccc2CC1C(=O)NC1CCCc2ccccc21)C(C)(C)C

> <Shape>
0.264

> <Color>
0.057

> <Negative vol penalty>
0.000

$$$$

  -OEChem-04052305153D

 84 92  0     1  0  0  0  0  0999 V2000
  -18.1157  -31.4558   20.9190 C   0  0  0  0  0  0  0  0  0  0  0  0
  -19.4929  -31.3430   20.7577 C   0  0  0  0  0  0  0  0  0  0  0  0
  -26.5147  -12.5915   21.7963 C   0  0  0  0  0  0  0  0  0  0  0  0
  -25.8459  -13.5056   19.6622 C   0  0  0  0  0  0  0  0  0  0  0  0
  -17.4090  -30.4564   21.5866 C   0  0  0  0  0  0  0  0  0  0  0  0
  -20.1644  -30.2312   21.2651 C   0  0  0  0  0  0  0  0  0  0  0  0
  -25.0362  -27.4402   18.8193 C   0  0  0  0  0  0  0  0  0  0  0  0
  -25.2868  -11.9382   21.9013 C   0  0  0  0  0  0  0  0  0  0  0  0
  -24.6180  -12.8522   19.7671 C   0  0  0  0  0  0  0  0  0  0  0  0
  -26.4010  -27.5267   19.0906 C   0  0  0  0  0  0  0  0  0  0  0  0
  -22.1869  -10.3194   22.8983 C   0  0  0  0  0  0  0  0  0  0  0  0
  -21.5205  -10.3806   24.1221 C   0  0  0  0  0  0  0  0  0  0  0  0
  -26.2342  -25.5883   20.5167 C   0  0  0  0  0  0  0  0  0  0  0  0
  -21.4388  -12.7896   23.9572 C   0  0  0  0  0  0  0  0  0  0  0  0
  -26.7942  -13.3753   20.6768 C   0  0  0  0  0  0  0  0  0  0  0  0
  -29.2431  -13.5537   19.9849 C   0  0  0  0  0  0  0  0  0  0  0  0
  -18.0708  -29.3271   22.0939 C   0  0  0  0  0  0  0  0  0  0  0  0
  -24.2567  -26.4320   19.4043 C   0  0  0  0  0  0  0  0  0  0  0  0
  -19.4660  -29.2164   21.9413 C   0  0  0  0  0  0  0  0  0  0  0  0
  -24.8602  -25.4897   20.2493 C   0  0  0  0  0  0  0  0  0  0  0  0
  -24.3385  -12.0685   20.8867 C   0  0  0  0  0  0  0  0  0  0  0  0
  -26.9996  -26.6024   19.9416 C   0  0  0  0  0  0  0  0  0  0  0  0
  -22.4793  -11.4933   22.2039 C   0  0  0  0  0  0  0  0  0  0  0  0
  -21.1464  -11.6157   24.6516 C   0  0  0  0  0  0  0  0  0  0  0  0
  -22.1053  -12.7284   22.7333 C   0  0  0  0  0  0  0  0  0  0  0  0
  -28.0622  -14.0509   20.5681 C   0  0  0  0  0  0  0  0  0  0  0  0
  -30.1542  -14.5706   20.1340 C   0  0  0  0  0  0  0  0  0  0  0  0
  -28.3889  -21.9442   16.3623 C   0  0  0  0  0  0  0  0  0  0  0  0
  -28.9898  -21.3315   18.4360 C   0  0  0  0  0  0  0  0  0  0  0  0
  -29.4111  -23.4146   17.7150 C   0  0  0  0  0  0  0  0  0  0  0  0
  -29.4940  -12.2860   19.3638 C   0  0  0  0  0  0  0  0  0  0  0  0
  -21.7718  -26.3831   21.3860 C   0  0  0  0  0  0  0  0  0  0  0  0
  -21.8431  -23.1983   20.7740 C   0  0  0  0  0  0  0  0  0  0  0  0
  -23.6526  -20.4767   19.7916 C   0  0  0  0  0  0  0  0  0  0  0  0
  -29.6030  -20.4906   20.7302 C   0  0  0  0  0  0  0  0  0  0  0  0
  -17.2711  -28.2957   22.8498 C   0  0  0  0  0  0  0  0  0  0  0  0
  -22.7909  -26.3363   19.0805 C   0  0  0  0  0  0  0  0  0  0  0  0
  -24.0715  -24.3760   20.8866 C   0  0  0  0  0  0  0  0  0  0  0  0
  -18.0038  -26.9686   23.0293 C   0  0  0  0  0  0  0  0  0  0  0  0
  -31.2102  -18.2628   22.9953 C   0  0  0  0  0  0  0  0  0  0  0  0
  -19.4365  -27.2085   23.4947 C   0  0  0  0  0  0  0  0  0  0  0  0
  -30.6975  -16.8841   22.5730 C   0  0  0  0  0  0  0  0  0  0  0  0
  -30.1288  -19.3341   22.8658 C   0  0  0  0  0  0  0  0  0  0  0  0
  -28.9701  -18.0294   21.1268 C   0  0  0  0  0  0  0  0  0  0  0  0
  -20.2265  -28.0135   22.4559 C   0  0  1  0  0  0  0  0  0  0  0  0
  -21.9938  -25.5777   20.1371 C   0  0  1  0  0  0  0  0  0  0  0  0
  -30.0428  -16.9292   21.1784 C   0  0  2  0  0  0  0  0  0  0  0  0
  -23.4478  -18.0025   19.4257 C   0  0  0  0  0  0  0  0  0  0  0  0
  -31.9617  -24.5200   19.2279 C   0  0  0  0  0  0  0  0  0  0  0  0
  -21.9300  -22.7476   23.7905 C   0  0  0  0  0  0  0  0  0  0  0  0
  -22.6724  -20.3979   23.3478 C   0  0  0  0  0  0  0  0  0  0  0  0
  -20.4418  -21.1719   22.5427 C   0  0  0  0  0  0  0  0  0  0  0  0
  -24.3224  -20.7286   16.9198 C   0  0  0  0  0  0  0  0  0  0  0  0
  -29.1661  -27.2297   19.1874 C   0  0  0  0  0  0  0  0  0  1  0  0
  -22.5328  -22.0061   21.3920 C   0  0  1  0  0  0  0  0  0  0  0  0
  -23.3554  -19.3790   18.7859 C   0  0  2  0  0  0  0  0  0  0  0  0
  -30.5442  -25.0818   19.1855 C   0  0  1  0  0  0  0  0  0  0  0  0
  -30.5507  -26.6085   19.3104 C   0  0  1  0  0  0  0  0  0  0  0  0
  -21.9090  -21.6029   22.7579 C   0  0  0  0  0  0  0  0  0  0  0  0
  -28.2070  -15.2875   21.0518 N   0  0  0  0  0  0  0  0  0  0  0  0
  -28.4155  -20.9636   17.2794 N   0  0  0  0  0  0  0  0  0  0  0  0
  -28.8659  -23.1909   16.5085 N   0  0  0  0  0  0  0  0  0  0  0  0
  -29.5085  -22.5357   18.7255 N   0  0  0  0  0  0  0  0  0  0  0  0
  -29.4897  -15.5758   20.7729 N   0  0  0  0  0  0  0  0  0  0  0  0
  -22.6405  -24.3284   20.5440 N   0  0  0  0  0  0  0  0  0  0  0  0
  -29.5570  -19.3207   21.5176 N   0  0  0  0  0  0  0  0  0  0  0  0
  -31.4510  -14.6941   19.7797 N   0  0  0  0  0  0  0  0  0  0  0  0
  -27.7973  -21.6325   15.1190 N   0  0  0  0  0  0  0  0  0  0  0  0
  -28.4470  -11.3569   19.2948 N   0  0  0  0  0  0  0  0  0  0  0  0
  -29.0579  -20.3487   19.4545 N   0  0  0  0  0  0  0  0  0  0  0  0
  -29.9252  -24.6790   17.9397 N   0  0  0  0  0  0  0  0  0  0  0  0
  -20.6309  -27.1621   21.3576 N   0  0  0  0  0  0  0  0  0  0  0  0
  -22.5020  -20.9500   20.3860 N   0  0  0  0  0  0  0  0  0  0  0  0
  -24.3234  -19.4373   17.6543 N   0  3  0  0  0  0  0  0  0  0  0  0
  -30.6181  -11.9798   18.8989 O   0  0  0  0  0  0  0  0  0  0  0  0
  -22.5754  -26.3026   22.3077 O   0  0  0  0  0  0  0  0  0  0  0  0
  -20.6428  -23.1270   20.4987 O   0  0  0  0  0  0  0  0  0  0  0  0
  -24.7918  -20.8719   20.0290 O   0  0  0  0  0  0  0  0  0  0  0  0
  -30.1145  -21.5333   21.1463 O   0  0  0  0  0  0  0  0  0  0  0  0
  -23.1403  -11.4309   20.9886 O   0  0  0  0  0  0  0  0  0  0  0  0
  -28.3315  -26.6849   20.2086 O   0  0  0  0  0  0  0  0  0  1  0  0
  -20.5051  -11.6742   25.8261 F   0  0  0  0  0  0  0  0  0  0  0  0
  -22.3824  -13.8595   22.0703 F   0  0  0  0  0  0  0  0  0  0  0  0
  -31.3325  -27.1264   18.3179 F   0  0  0  0  0  0  0  0  0  0  0  0
  1  2  1  0  0  0  0
  1  5  2  0  0  0  0
  2  6  2  0  0  0  0
  3  8  2  0  0  0  0
  3 15  1  0  0  0  0
  4  9  1  0  0  0  0
  4 15  2  0  0  0  0
  5 17  1  0  0  0  0
  6 19  1  0  0  0  0
  7 10  2  0  0  0  0
  7 18  1  0  0  0  0
  8 21  1  0  0  0  0
  9 21  2  0  0  0  0
 10 22  1  0  0  0  0
 11 12  2  0  0  0  0
 11 23  1  0  0  0  0
 12 24  1  0  0  0  0
 13 20  1  0  0  0  0
 13 22  2  0  0  0  0
 14 24  2  0  0  0  0
 14 25  1  0  0  0  0
 15 26  1  0  0  0  0
 16 26  1  0  0  0  0
 16 27  2  0  0  0  0
 16 31  1  0  0  0  0
 17 19  2  0  0  0  0
 17 36  1  0  0  0  0
 18 20  2  0  0  0  0
 18 37  1  0  0  0  0
 19 45  1  0  0  0  0
 20 38  1  0  0  0  0
 21 80  1  0  0  0  0
 22 81  1  0  0  0  0
 23 25  2  0  0  0  0
 23 80  1  0  0  0  0
 24 82  1  0  0  0  0
 25 83  1  0  0  0  0
 26 60  2  0  0  0  0
 27 64  1  0  0  0  0
 27 67  1  0  0  0  0
 28 61  1  0  0  0  0
 28 62  2  0  0  0  0
 28 68  1  0  0  0  0
 29 61  2  0  0  0  0
 29 63  1  0  0  0  0
 29 70  1  0  0  0  0
 30 62  1  0  0  0  0
 30 63  2  0  0  0  0
 30 71  1  0  0  0  0
 31 69  1  0  0  0  0
 31 75  2  0  0  0  0
 32 46  1  0  0  0  0
 32 72  1  0  0  0  0
 32 76  2  0  0  0  0
 33 55  1  0  0  0  0
 33 65  1  0  0  0  0
 33 77  2  0  0  0  0
 34 56  1  0  0  0  0
 34 73  1  0  0  0  0
 34 78  2  0  0  0  0
 35 66  1  0  0  0  0
 35 70  1  0  0  0  0
 35 79  2  0  0  0  0
 36 39  1  0  0  0  0
 37 46  1  0  0  0  0
 38 65  1  0  0  0  0
 39 41  1  0  0  0  0
 40 42  1  0  0  0  0
 40 43  1  0  0  0  0
 41 45  1  0  0  0  0
 42 47  1  0  0  0  0
 43 66  1  0  0  0  0
 44 47  1  0  0  0  0
 44 66  1  0  0  0  0
 45 72  1  0  0  0  0
 46 65  1  0  0  0  0
 47 64  1  0  0  0  0
 48 56  1  0  0  0  0
 49 57  1  0  0  0  0
 50 59  1  0  0  0  0
 51 59  1  0  0  0  0
 52 59  1  0  0  0  0
 53 74  1  0  0  0  0
 54 58  1  0  0  0  0
 54 81  1  0  0  0  0
 55 59  1  0  0  0  0
 55 73  1  0  0  0  0
 56 74  1  0  0  0  0
 57 58  1  0  0  0  0
 57 71  1  0  0  0  0
 58 84  1  0  0  0  0
 60 64  1  0  0  0  0
M  CHG  1  74   1
M  ISO  4  35 100  54 101  70 100  81 101
M  END
> <Batch ID>
0188

> <Smiles>
CNC(C)C(=O)NC(C(=O)N1Cc2cc([101O:1][101CH2:1]C(F)C(C)Nc3nc(N)nc([100NH:0][100C:0](=O)N4CCCC(n5nc(-c6ccc(Oc7ccc(F)cc7F)cc6)c(C(N)=O)c5N)C4)n3)ccc2CC1C(=O)NC1CCCc2ccccc21)C(C)(C)C

> <Shape>
0.258

> <Color>
0.070

> <Negative vol penalty>
0.000

$$$$

  -OEChem-04052305153D

 82 90  0     1  0  0  0  0  0999 V2000
  -22.1629  -30.4304   23.1607 C   0  0  0  0  0  0  0  0  0  0  0  0
  -21.7871  -29.1308   22.8361 C   0  0  0  0  0  0  0  0  0  0  0  0
  -24.2493  -13.7276   24.0671 C   0  0  0  0  0  0  0  0  0  0  0  0
  -23.4393  -15.3788   22.5004 C   0  0  0  0  0  0  0  0  0  0  0  0
  -23.3156  -30.9815   22.6025 C   0  0  0  0  0  0  0  0  0  0  0  0
  -22.5632  -28.3820   21.9521 C   0  0  0  0  0  0  0  0  0  0  0  0
  -23.5552  -22.3414   22.1328 C   0  0  0  0  0  0  0  0  0  0  0  0
  -23.6921  -14.4532   25.1200 C   0  0  0  0  0  0  0  0  0  0  0  0
  -22.8820  -16.1044   23.5533 C   0  0  0  0  0  0  0  0  0  0  0  0
  -22.9774  -21.2750   21.4452 C   0  0  0  0  0  0  0  0  0  0  0  0
  -21.5561  -18.5781   25.8626 C   0  0  0  0  0  0  0  0  0  0  0  0
  -21.7477  -19.9597   25.8707 C   0  0  0  0  0  0  0  0  0  0  0  0
  -24.7798  -21.3394   19.8431 C   0  0  0  0  0  0  0  0  0  0  0  0
  -24.1394  -19.6275   25.9520 C   0  0  0  0  0  0  0  0  0  0  0  0
  -27.5193  -17.6069   14.2550 C   0  0  0  0  0  0  0  0  0  0  0  0
  -24.1229  -14.1904   22.7573 C   0  0  0  0  0  0  0  0  0  0  0  0
  -24.0814  -12.4247   20.9166 C   0  0  0  0  0  0  0  0  0  0  0  0
  -24.1114  -30.2357   21.7188 C   0  0  0  0  0  0  0  0  0  0  0  0
  -24.7458  -22.9229   21.6737 C   0  0  0  0  0  0  0  0  0  0  0  0
  -23.7268  -28.9242   21.3805 C   0  0  0  0  0  0  0  0  0  0  0  0
  -25.3719  -22.4114   20.5281 C   0  0  0  0  0  0  0  0  0  0  0  0
  -23.0084  -15.6416   24.8631 C   0  0  0  0  0  0  0  0  0  0  0  0
  -23.5882  -20.7757   20.2985 C   0  0  0  0  0  0  0  0  0  0  0  0
  -22.6562  -17.7212   25.8992 C   0  0  0  0  0  0  0  0  0  0  0  0
  -23.0394  -20.4844   25.9154 C   0  0  0  0  0  0  0  0  0  0  0  0
  -23.9478  -18.2459   25.9439 C   0  0  0  0  0  0  0  0  0  0  0  0
  -24.6988  -13.4416   21.6693 C   0  0  0  0  0  0  0  0  0  0  0  0
  -27.8416  -17.2512   15.5480 C   0  0  0  0  0  0  0  0  0  0  0  0
  -25.0395  -12.0375   20.0118 C   0  0  0  0  0  0  0  0  0  0  0  0
  -25.9681  -18.3158   15.9561 C   0  0  0  0  0  0  0  0  0  0  0  0
  -22.7600  -11.8791   21.0254 C   0  0  0  0  0  0  0  0  0  0  0  0
  -25.5803  -25.8130   20.6468 C   0  0  0  0  0  0  0  0  0  0  0  0
  -28.5575  -24.5251   20.6432 C   0  0  0  0  0  0  0  0  0  0  0  0
  -30.5028  -21.7253   20.4890 C   0  0  0  0  0  0  0  0  0  0  0  0
  -24.5402  -18.9164   17.9409 C   0  0  0  0  0  0  0  0  0  0  0  0
  -29.7806  -14.8278   17.6481 C   0  0  0  0  0  0  0  0  0  0  0  0
  -25.3228  -30.8906   21.1039 C   0  0  0  0  0  0  0  0  0  0  0  0
  -25.3704  -24.0552   22.4419 C   0  0  0  0  0  0  0  0  0  0  0  0
  -26.6618  -22.9872   20.0054 C   0  0  0  0  0  0  0  0  0  0  0  0
  -26.2936  -29.8996   20.4669 C   0  0  0  0  0  0  0  0  0  0  0  0
  -29.7853  -11.7678   19.4683 C   0  0  0  0  0  0  0  0  0  0  0  0
  -25.5394  -28.8937   19.6031 C   0  0  0  0  0  0  0  0  0  0  0  0
  -28.4265  -11.7581   20.1709 C   0  0  0  0  0  0  0  0  0  0  0  0
  -30.3731  -13.1754   19.3959 C   0  0  0  0  0  0  0  0  0  0  0  0
  -28.1244  -14.1784   19.5006 C   0  0  0  0  0  0  0  0  0  0  0  0
  -24.5561  -28.0716   20.4448 C   0  0  1  0  0  0  0  0  0  0  0  0
  -26.3121  -24.9047   21.5939 C   0  0  1  0  0  0  0  0  0  0  0  0
  -27.4659  -12.7890   19.5483 C   0  0  2  0  0  0  0  0  0  0  0  0
  -32.9028  -20.9928   20.4703 C   0  0  0  0  0  0  0  0  0  0  0  0
  -22.0514  -19.0166   17.5465 C   0  0  0  0  0  0  0  0  0  0  0  0
  -28.8061  -25.4220   17.7374 C   0  0  0  0  0  0  0  0  0  0  0  0
  -30.7574  -23.8717   17.4987 C   0  0  0  0  0  0  0  0  0  0  0  0
  -30.8640  -25.7681   19.1157 C   0  0  0  0  0  0  0  0  0  0  0  0
  -30.1645  -20.1576   22.9763 C   0  0  0  0  0  0  0  0  0  0  0  0
  -29.0361  -16.4875   15.9598 C   0  0  0  0  0  0  0  0  0  0  0  0
  -29.3970  -23.7760   19.6367 C   0  0  1  0  0  0  0  0  0  0  0  0
  -31.6803  -21.2692   21.3315 C   0  0  2  0  0  0  0  0  0  0  0  0
  -23.2465  -19.6785   18.2164 C   0  0  1  0  0  0  0  0  0  1  0  0
  -29.9308  -24.6996   18.5056 C   0  0  0  0  0  0  0  0  0  0  0  0
  -25.9522  -13.6849   21.2770 N   0  0  0  0  0  0  0  0  0  0  0  0
  -26.9535  -17.6572   16.5248 N   0  0  0  0  0  0  0  0  0  0  0  0
  -26.1301  -12.8154   20.2678 N   0  0  0  0  0  0  0  0  0  0  0  0
  -27.2301  -24.0974   20.7878 N   0  0  0  0  0  0  0  0  0  0  0  0
  -29.4130  -14.1040   18.7944 N   0  0  0  0  0  0  0  0  0  0  0  0
  -25.0470  -11.1108   19.0301 N   0  0  0  0  0  0  0  0  0  0  0  0
  -21.9043  -12.3921   22.0097 N   0  0  0  0  0  0  0  0  0  0  0  0
  -24.8452  -18.9057   16.5838 N   0  0  0  0  0  0  0  0  0  0  0  0
  -25.2591  -27.0450   21.1840 N   0  0  0  0  0  0  0  0  0  0  0  0
  -30.4413  -23.0998   20.3988 N   0  0  0  0  0  0  0  0  0  0  0  0
  -28.8095  -15.6809   17.1383 N   0  0  0  0  0  0  0  0  0  0  0  0
  -31.3354  -20.0228   22.0721 N   0  3  0  0  0  0  0  0  0  0  0  0
  -22.3559  -10.9523   20.2829 O   0  0  0  0  0  0  0  0  0  0  0  0
  -25.3271  -25.4254   19.5122 O   0  0  0  0  0  0  0  0  0  0  0  0
  -29.0629  -25.4508   21.2828 O   0  0  0  0  0  0  0  0  0  0  0  0
  -29.7183  -20.9406   19.9604 O   0  0  0  0  0  0  0  0  0  0  0  0
  -25.1898  -18.4145   18.8536 O   0  0  0  0  0  0  0  0  0  0  0  0
  -30.8900  -14.7178   17.1152 O   0  0  0  0  0  0  0  0  0  0  0  0
  -22.4643  -16.3498   25.8902 O   0  0  0  0  0  0  0  0  0  0  0  0
  -23.0260  -19.7353   19.6251 O   0  0  0  0  0  0  0  0  0  1  0  0
  -23.2233  -21.8112   25.9217 F   0  0  0  0  0  0  0  0  0  0  0  0
  -25.0085  -17.4277   25.9780 F   0  0  0  0  0  0  0  0  0  0  0  0
  -26.0455  -18.4839   14.2501 S   0  0  0  0  0  0  0  0  0  0  0  0
  1  2  1  0  0  0  0
  1  5  2  0  0  0  0
  2  6  2  0  0  0  0
  3  8  2  0  0  0  0
  3 16  1  0  0  0  0
  4  9  1  0  0  0  0
  4 16  2  0  0  0  0
  5 18  1  0  0  0  0
  6 20  1  0  0  0  0
  7 10  2  0  0  0  0
  7 19  1  0  0  0  0
  8 22  1  0  0  0  0
  9 22  2  0  0  0  0
 10 23  1  0  0  0  0
 11 12  2  0  0  0  0
 11 24  1  0  0  0  0
 12 25  1  0  0  0  0
 13 21  1  0  0  0  0
 13 23  2  0  0  0  0
 14 25  2  0  0  0  0
 14 26  1  0  0  0  0
 15 28  2  0  0  0  0
 15 82  1  0  0  0  0
 16 27  1  0  0  0  0
 17 27  1  0  0  0  0
 17 29  2  0  0  0  0
 17 31  1  0  0  0  0
 18 20  2  0  0  0  0
 18 37  1  0  0  0  0
 19 21  2  0  0  0  0
 19 38  1  0  0  0  0
 20 46  1  0  0  0  0
 21 39  1  0  0  0  0
 22 78  1  0  0  0  0
 23 79  1  0  0  0  0
 24 26  2  0  0  0  0
 24 78  1  0  0  0  0
 25 80  1  0  0  0  0
 26 81  1  0  0  0  0
 27 60  2  0  0  0  0
 28 55  1  0  0  0  0
 28 61  1  0  0  0  0
 29 62  1  0  0  0  0
 29 65  1  0  0  0  0
 30 61  2  0  0  0  0
 30 67  1  0  0  0  0
 30 82  1  0  0  0  0
 31 66  1  0  0  0  0
 31 72  2  0  0  0  0
 32 47  1  0  0  0  0
 32 68  1  0  0  0  0
 32 73  2  0  0  0  0
 33 56  1  0  0  0  0
 33 63  1  0  0  0  0
 33 74  2  0  0  0  0
 34 57  1  0  0  0  0
 34 69  1  0  0  0  0
 34 75  2  0  0  0  0
 35 58  1  0  0  0  0
 35 67  1  0  0  0  0
 35 76  2  0  0  0  0
 36 64  1  0  0  0  0
 36 70  1  0  0  0  0
 36 77  2  0  0  0  0
 37 40  1  0  0  0  0
 38 47  1  0  0  0  0
 39 63  1  0  0  0  0
 40 42  1  0  0  0  0
 41 43  1  0  0  0  0
 41 44  1  0  0  0  0
 42 46  1  0  0  0  0
 43 48  1  0  0  0  0
 44 64  1  0  0  0  0
 45 48  1  0  0  0  0
 45 64  1  0  0  0  0
 46 68  1  0  0  0  0
 47 63  1  0  0  0  0
 48 62  1  0  0  0  0
 49 57  1  0  0  0  0
 50 58  1  0  0  0  0
 51 59  1  0  0  0  0
 52 59  1  0  0  0  0
 53 59  1  0  0  0  0
 54 71  1  0  0  0  0
 55 70  1  0  0  0  0
 56 59  1  0  0  0  0
 56 69  1  0  0  0  0
 57 71  1  0  0  0  0
 58 79  1  0  0  0  0
 60 62  1  0  0  0  0
M  CHG  1  71   1
M  ISO  4  36 100  58 101  70 100  79 101
M  END
> <Batch ID>
0188

> <Smiles>
CNC(C)C(=O)NC(C(=O)N1Cc2cc([101O:1][101CH:1](C)C(=O)Nc3nc(C[100NH:0][100C:0](=O)N4CCCC(n5nc(-c6ccc(Oc7ccc(F)cc7F)cc6)c(C(N)=O)c5N)C4)cs3)ccc2CC1C(=O)NC1CCCc2ccccc21)C(C)(C)C

> <Shape>
0.185

> <Color>
0.078

> <Negative vol penalty>
0.000

$$$$

  -OEChem-04052305153D

 86 94  0     1  0  0  0  0  0999 V2000
  -26.9539  -23.1202   18.7780 C   0  0  0  0  0  0  0  0  0  0  0  0
  -25.7791  -23.7892   19.1059 C   0  0  0  0  0  0  0  0  0  0  0  0
  -25.6053  -13.6370   21.2471 C   0  0  0  0  0  0  0  0  0  0  0  0
  -25.5161  -13.8655   18.8436 C   0  0  0  0  0  0  0  0  0  0  0  0
  -28.1196  -23.3647   19.5028 C   0  0  0  0  0  0  0  0  0  0  0  0
  -25.7690  -24.7025   20.1596 C   0  0  0  0  0  0  0  0  0  0  0  0
  -23.3235  -28.9821   18.9979 C   0  0  0  0  0  0  0  0  0  0  0  0
  -25.4317  -12.2587   21.1225 C   0  0  0  0  0  0  0  0  0  0  0  0
  -25.3426  -12.4871   18.7190 C   0  0  0  0  0  0  0  0  0  0  0  0
  -21.9300  -28.9465   19.0249 C   0  0  0  0  0  0  0  0  0  0  0  0
  -24.6518   -8.7223   21.4537 C   0  0  0  0  0  0  0  0  0  0  0  0
  -23.7386   -8.1024   22.3066 C   0  0  0  0  0  0  0  0  0  0  0  0
  -20.0442  -24.4414   22.6177 C   0  0  0  0  0  0  0  0  0  0  0  0
  -21.9517  -29.9858   21.2018 C   0  0  0  0  0  0  0  0  0  0  0  0
  -18.8857  -26.0348   24.0164 C   0  0  0  0  0  0  0  0  0  0  0  0
  -21.9691   -9.4871   21.4185 C   0  0  0  0  0  0  0  0  0  0  0  0
  -25.6474  -14.4405   20.1076 C   0  0  0  0  0  0  0  0  0  0  0  0
  -20.4220  -23.7214   23.7510 C   0  0  0  0  0  0  0  0  0  0  0  0
  -27.0442  -16.5699   20.2574 C   0  0  0  0  0  0  0  0  0  0  0  0
  -28.1262  -24.2886   20.5597 C   0  0  0  0  0  0  0  0  0  0  0  0
  -24.0431  -29.5107   20.0792 C   0  0  0  0  0  0  0  0  0  0  0  0
  -26.9356  -24.9587   20.9000 C   0  0  0  0  0  0  0  0  0  0  0  0
  -23.3542  -30.0293   21.1849 C   0  0  0  0  0  0  0  0  0  0  0  0
  -20.0317  -24.1579   25.0170 C   0  0  0  0  0  0  0  0  0  0  0  0
  -19.2760  -25.5982   22.7504 C   0  0  0  0  0  0  0  0  0  0  0  0
  -19.2635  -25.3147   25.1497 C   0  0  0  0  0  0  0  0  0  0  0  0
  -25.3004  -11.6837   19.8585 C   0  0  0  0  0  0  0  0  0  0  0  0
  -21.2440  -29.4458   20.1282 C   0  0  0  0  0  0  0  0  0  0  0  0
  -24.2236   -9.7247   20.5832 C   0  0  0  0  0  0  0  0  0  0  0  0
  -22.3973   -8.4847   22.2890 C   0  0  0  0  0  0  0  0  0  0  0  0
  -22.8823  -10.1071   20.5656 C   0  0  0  0  0  0  0  0  0  0  0  0
  -25.8261  -15.8645   20.2357 C   0  0  0  0  0  0  0  0  0  0  0  0
  -26.6765  -17.8860   20.3953 C   0  0  0  0  0  0  0  0  0  0  0  0
  -21.2242  -22.5174   23.5763 C   0  0  0  0  0  0  0  0  0  0  0  0
  -20.8630  -21.4367   22.8552 C   0  0  0  0  0  0  0  0  0  0  0  0
  -28.3880  -16.0793   20.1613 C   0  0  0  0  0  0  0  0  0  0  0  0
  -21.7940  -20.2939   22.7652 C   0  0  0  0  0  0  0  0  0  0  0  0
  -26.1637  -28.3513   22.1437 C   0  0  0  0  0  0  0  0  0  0  0  0
  -26.3501  -31.4475   23.0932 C   0  0  0  0  0  0  0  0  0  0  0  0
  -24.8635  -34.5134   23.2855 C   0  0  0  0  0  0  0  0  0  0  0  0
  -18.1347  -27.4923   21.5519 C   0  0  0  0  0  0  0  0  0  0  0  0
  -29.3991  -24.4846   21.3445 C   0  0  0  0  0  0  0  0  0  0  0  0
  -25.5451  -29.5662   20.0230 C   0  0  0  0  0  0  0  0  0  0  0  0
  -24.0793  -30.6259   22.3625 C   0  0  0  0  0  0  0  0  0  0  0  0
  -29.3956  -25.7450   22.2058 C   0  0  0  0  0  0  0  0  0  0  0  0
  -23.1265  -20.9156   19.4082 C   0  0  0  0  0  0  0  0  0  0  0  0
  -28.0843  -25.8614   22.9764 C   0  0  0  0  0  0  0  0  0  0  0  0
  -24.0516  -19.7144   19.2323 C   0  0  0  0  0  0  0  0  0  0  0  0
  -21.8858  -20.5665   20.2288 C   0  0  0  0  0  0  0  0  0  0  0  0
  -23.1249  -18.7534   21.3766 C   0  0  0  0  0  0  0  0  0  0  0  0
  -26.8908  -25.9750   22.0204 C   0  0  1  0  0  0  0  0  0  0  0  0
  -26.1916  -29.6576   21.4018 C   0  0  1  0  0  0  0  0  0  0  0  0
  -24.4027  -19.0938   20.5938 C   0  0  1  0  0  0  0  0  0  0  0  0
  -20.4322  -23.3898   26.2394 C   0  0  0  0  0  0  0  0  0  0  0  0
  -25.2463  -36.8375   24.1513 C   0  0  0  0  0  0  0  0  0  0  0  0
  -25.7855  -30.4805   25.9315 C   0  0  0  0  0  0  0  0  0  0  0  0
  -25.2421  -32.8439   26.5540 C   0  0  0  0  0  0  0  0  0  0  0  0
  -27.5351  -32.2597   25.7642 C   0  0  0  0  0  0  0  0  0  0  0  0
  -24.6684  -35.6809   20.5730 C   0  0  0  0  0  0  0  0  0  0  0  0
  -19.2454  -28.3499   19.4496 C   0  0  0  0  0  0  0  0  0  1  0  0
  -25.6262  -32.3003   24.1069 C   0  0  1  0  0  0  0  0  0  0  0  0
  -25.3766  -35.9040   22.9578 C   0  0  2  0  0  0  0  0  0  0  0  0
  -17.9347  -27.9770   20.1263 C   0  0  2  0  0  0  0  0  0  0  0  0
  -26.0333  -31.9581   25.5680 C   0  0  0  0  0  0  0  0  0  0  0  0
  -24.7640  -16.6661   20.3508 N   0  0  0  0  0  0  0  0  0  0  0  0
  -25.3135  -17.8888   20.4462 N   0  0  0  0  0  0  0  0  0  0  0  0
  -22.2456  -19.9213   21.5004 N   0  0  0  0  0  0  0  0  0  0  0  0
  -25.5480  -30.6517   22.2631 N   0  0  0  0  0  0  0  0  0  0  0  0
  -18.8576  -25.7732   26.4226 N   0  0  0  0  0  0  0  0  0  0  0  0
  -27.3892  -19.0296   20.4769 N   0  0  0  0  0  0  0  0  0  0  0  0
  -28.5870  -14.6988   20.0235 N   0  0  0  0  0  0  0  0  0  0  0  0
  -18.8922  -26.3290   21.6011 N   0  0  0  0  0  0  0  0  0  0  0  0
  -26.7985  -27.3161   21.4843 N   0  0  0  0  0  0  0  0  0  0  0  0
  -25.8750  -33.6865   23.7264 N   0  0  0  0  0  0  0  0  0  0  0  0
  -24.6083  -36.4850   21.8207 N   0  3  0  0  0  0  0  0  0  0  0  0
  -29.3834  -16.8409   20.2132 O   0  0  0  0  0  0  0  0  0  0  0  0
  -22.1116  -19.7351   23.8166 O   0  0  0  0  0  0  0  0  0  0  0  0
  -25.6087  -28.2877   23.2344 O   0  0  0  0  0  0  0  0  0  0  0  0
  -27.5815  -31.4914   23.0351 O   0  0  0  0  0  0  0  0  0  0  0  0
  -23.6827  -34.1938   23.1662 O   0  0  0  0  0  0  0  0  0  0  0  0
  -17.6411  -28.1071   22.4930 O   0  0  0  0  0  0  0  0  0  0  0  0
  -25.1313  -10.3387   19.7365 O   0  0  0  0  0  0  0  0  0  0  0  0
  -19.8839  -29.4118   20.1574 O   0  0  0  0  0  0  0  0  0  1  0  0
  -21.5202   -7.8883   23.1070 F   0  0  0  0  0  0  0  0  0  0  0  0
  -22.4649  -11.0686   19.7308 F   0  0  0  0  0  0  0  0  0  0  0  0
  -17.1211  -29.0719   20.1052 F   0  0  0  0  0  0  0  0  0  0  0  0
  1  2  1  0  0  0  0
  1  5  2  0  0  0  0
  2  6  2  0  0  0  0
  3  8  2  0  0  0  0
  3 17  1  0  0  0  0
  4  9  1  0  0  0  0
  4 17  2  0  0  0  0
  5 20  1  0  0  0  0
  6 22  1  0  0  0  0
  7 10  2  0  0  0  0
  7 21  1  0  0  0  0
  8 27  1  0  0  0  0
  9 27  2  0  0  0  0
 10 28  1  0  0  0  0
 11 12  2  0  0  0  0
 11 29  1  0  0  0  0
 12 30  1  0  0  0  0
 13 18  1  0  0  0  0
 13 25  2  0  0  0  0
 14 23  1  0  0  0  0
 14 28  2  0  0  0  0
 15 25  1  0  0  0  0
 15 26  2  0  0  0  0
 16 30  2  0  0  0  0
 16 31  1  0  0  0  0
 17 32  1  0  0  0  0
 18 24  2  0  0  0  0
 18 34  1  0  0  0  0
 19 32  1  0  0  0  0
 19 33  2  0  0  0  0
 19 36  1  0  0  0  0
 20 22  2  0  0  0  0
 20 42  1  0  0  0  0
 21 23  2  0  0  0  0
 21 43  1  0  0  0  0
 22 51  1  0  0  0  0
 23 44  1  0  0  0  0
 24 26  1  0  0  0  0
 24 54  1  0  0  0  0
 25 72  1  0  0  0  0
 26 69  1  0  0  0  0
 27 82  1  0  0  0  0
 28 83  1  0  0  0  0
 29 31  2  0  0  0  0
 29 82  1  0  0  0  0
 30 84  1  0  0  0  0
 31 85  1  0  0  0  0
 32 65  2  0  0  0  0
 33 66  1  0  0  0  0
 33 70  1  0  0  0  0
 34 35  2  0  0  0  0
 35 37  1  0  0  0  0
 36 71  1  0  0  0  0
 36 76  2  0  0  0  0
 37 67  1  0  0  0  0
 37 77  2  0  0  0  0
 38 52  1  0  0  0  0
 38 73  1  0  0  0  0
 38 78  2  0  0  0  0
 39 61  1  0  0  0  0
 39 68  1  0  0  0  0
 39 79  2  0  0  0  0
 40 62  1  0  0  0  0
 40 74  1  0  0  0  0
 40 80  2  0  0  0  0
 41 63  1  0  0  0  0
 41 72  1  0  0  0  0
 41 81  2  0  0  0  0
 42 45  1  0  0  0  0
 43 52  1  0  0  0  0
 44 68  1  0  0  0  0
 45 47  1  0  0  0  0
 46 48  1  0  0  0  0
 46 49  1  0  0  0  0
 47 51  1  0  0  0  0
 48 53  1  0  0  0  0
 49 67  1  0  0  0  0
 50 53  1  0  0  0  0
 50 67  1  0  0  0  0
 51 73  1  0  0  0  0
 52 68  1  0  0  0  0
 53 66  1  0  0  0  0
 55 62  1  0  0  0  0
 56 64  1  0  0  0  0
 57 64  1  0  0  0  0
 58 64  1  0  0  0  0
 59 75  1  0  0  0  0
 60 63  1  0  0  0  0
 60 83  1  0  0  0  0
 61 64  1  0  0  0  0
 61 74  1  0  0  0  0
 62 75  1  0  0  0  0
 63 86  1  0  0  0  0
 65 66  1  0  0  0  0
M  CHG  1  75   1
M  ISO  4  35 100  37 100  60 101  83 101
M  END
> <Batch ID>
0188

> <Smiles>
CNC(C)C(=O)NC(C(=O)N1Cc2cc([101O:1][101CH2:1]C(F)C(=O)Nc3cc(N)c(C)c(C=[100CH:0][100C:0](=O)N4CCCC(n5nc(-c6ccc(Oc7ccc(F)cc7F)cc6)c(C(N)=O)c5N)C4)c3)ccc2CC1C(=O)NC1CCCc2ccccc21)C(C)(C)C

> <Shape>
0.265

> <Color>
0.072

> <Negative vol penalty>
0.000

$$$$

  -OEChem-04052305153D

 86 94  0     1  0  0  0  0  0999 V2000
  -16.7282  -30.6445   23.4992 C   0  0  0  0  0  0  0  0  0  0  0  0
  -17.9198  -31.2888   23.8161 C   0  0  0  0  0  0  0  0  0  0  0  0
  -24.3116  -13.9360   19.0242 C   0  0  0  0  0  0  0  0  0  0  0  0
  -25.2531  -14.8980   21.0304 C   0  0  0  0  0  0  0  0  0  0  0  0
  -16.7400  -29.2984   23.1363 C   0  0  0  0  0  0  0  0  0  0  0  0
  -19.1239  -30.5869   23.7714 C   0  0  0  0  0  0  0  0  0  0  0  0
  -26.0750  -31.5138   22.3087 C   0  0  0  0  0  0  0  0  0  0  0  0
  -24.5783  -12.6569   19.5122 C   0  0  0  0  0  0  0  0  0  0  0  0
  -25.5198  -13.6188   21.5186 C   0  0  0  0  0  0  0  0  0  0  0  0
  -27.3323  -31.2927   22.8690 C   0  0  0  0  0  0  0  0  0  0  0  0
  -23.2094  -10.5007   21.7280 C   0  0  0  0  0  0  0  0  0  0  0  0
  -22.2055   -9.5395   21.6102 C   0  0  0  0  0  0  0  0  0  0  0  0
  -27.2406  -28.9913   22.1516 C   0  0  0  0  0  0  0  0  0  0  0  0
  -28.7394  -24.1535   21.2058 C   0  0  0  0  0  0  0  0  0  0  0  0
  -23.6763   -8.1676   20.2715 C   0  0  0  0  0  0  0  0  0  0  0  0
  -30.2692  -24.4322   19.4062 C   0  0  0  0  0  0  0  0  0  0  0  0
  -24.6490  -15.0566   19.7832 C   0  0  0  0  0  0  0  0  0  0  0  0
  -23.2011  -17.1331   19.4681 C   0  0  0  0  0  0  0  0  0  0  0  0
  -17.9460  -28.5822   23.0777 C   0  0  0  0  0  0  0  0  0  0  0  0
  -25.3851  -30.4708   21.6741 C   0  0  0  0  0  0  0  0  0  0  0  0
  -19.1517  -29.2296   23.4086 C   0  0  0  0  0  0  0  0  0  0  0  0
  -25.9758  -29.2024   21.5818 C   0  0  0  0  0  0  0  0  0  0  0  0
  -29.8192  -24.8336   20.6537 C   0  0  0  0  0  0  0  0  0  0  0  0
  -25.1824  -12.4983   20.7595 C   0  0  0  0  0  0  0  0  0  0  0  0
  -27.9141  -30.0306   22.7931 C   0  0  0  0  0  0  0  0  0  0  0  0
  -24.4467  -10.2954   21.1176 C   0  0  0  0  0  0  0  0  0  0  0  0
  -22.4389   -8.3729   20.8820 C   0  0  0  0  0  0  0  0  0  0  0  0
  -28.1510  -23.1076   20.5036 C   0  0  0  0  0  0  0  0  0  0  0  0
  -24.6802   -9.1288   20.3894 C   0  0  0  0  0  0  0  0  0  0  0  0
  -24.3743  -16.3782   19.2793 C   0  0  0  0  0  0  0  0  0  0  0  0
  -28.6756  -22.7836   19.2627 C   0  0  0  0  0  0  0  0  0  0  0  0
  -23.4365  -18.3074   18.7957 C   0  0  0  0  0  0  0  0  0  0  0  0
  -22.0056  -16.8025   20.1872 C   0  0  0  0  0  0  0  0  0  0  0  0
  -22.6256  -28.9751   22.1756 C   0  0  0  0  0  0  0  0  0  0  0  0
  -23.3487  -27.5240   19.3660 C   0  0  0  0  0  0  0  0  0  0  0  0
  -25.7438  -26.5736   17.1284 C   0  0  0  0  0  0  0  0  0  0  0  0
  -30.1004  -26.4130   22.5906 C   0  0  0  0  0  0  0  0  0  0  0  0
  -28.4324  -21.2240   17.2994 C   0  0  0  0  0  0  0  0  0  0  0  0
  -17.9033  -27.1162   22.7259 C   0  0  0  0  0  0  0  0  0  0  0  0
  -24.0412  -30.7323   21.0513 C   0  0  0  0  0  0  0  0  0  0  0  0
  -25.2854  -28.0543   20.8935 C   0  0  0  0  0  0  0  0  0  0  0  0
  -19.2643  -26.5426   22.3398 C   0  0  0  0  0  0  0  0  0  0  0  0
  -25.8964  -20.0685   15.0834 C   0  0  0  0  0  0  0  0  0  0  0  0
  -20.3314  -26.9826   23.3371 C   0  0  0  0  0  0  0  0  0  0  0  0
  -25.1078  -19.0643   15.9270 C   0  0  0  0  0  0  0  0  0  0  0  0
  -27.3917  -20.0180   15.3922 C   0  0  0  0  0  0  0  0  0  0  0  0
  -26.9488  -19.1535   17.6561 C   0  0  0  0  0  0  0  0  0  0  0  0
  -20.4809  -28.5087   23.3477 C   0  0  1  0  0  0  0  0  0  0  0  0
  -23.2057  -29.4674   20.8800 C   0  0  1  0  0  0  0  0  0  0  0  0
  -25.4297  -19.2128   17.4270 C   0  0  2  0  0  0  0  0  0  0  0  0
  -26.0337  -25.3705   14.9453 C   0  0  0  0  0  0  0  0  0  0  0  0
  -28.9546  -29.4913   25.7097 C   0  0  0  0  0  0  0  0  0  0  0  0
  -22.9590  -24.8532   20.7890 C   0  0  0  0  0  0  0  0  0  0  0  0
  -24.1590  -23.7461   18.8910 C   0  0  0  0  0  0  0  0  0  0  0  0
  -22.0142  -24.9502   18.4755 C   0  0  0  0  0  0  0  0  0  0  0  0
  -26.8737  -28.9765   15.8212 C   0  0  0  0  0  0  0  0  0  0  0  0
  -30.6219  -28.1831   24.3448 C   0  0  0  0  0  0  0  0  0  0  0  0
  -24.1068  -26.2803   18.9692 C   0  0  1  0  0  0  0  0  0  0  0  0
  -25.8266  -26.7178   15.6194 C   0  0  2  0  0  0  0  0  0  0  0  0
  -31.0032  -27.5657   22.9954 C   0  0  2  0  0  0  0  0  0  0  0  0
  -29.2279  -28.8250   24.3668 C   0  0  2  0  0  0  0  0  0  1  0  0
  -23.3222  -24.9784   19.2959 C   0  0  0  0  0  0  0  0  0  0  0  0
  -29.7233  -23.4212   18.6940 N   0  0  0  0  0  0  0  0  0  0  0  0
  -25.2870  -17.0190   18.5443 N   0  0  0  0  0  0  0  0  0  0  0  0
  -24.6874  -18.1889   18.2653 N   0  0  0  0  0  0  0  0  0  0  0  0
  -23.9703  -28.3585   20.3057 N   0  0  0  0  0  0  0  0  0  0  0  0
  -27.6205  -20.1695   16.8308 N   0  0  0  0  0  0  0  0  0  0  0  0
  -22.6933  -19.4193   18.6122 N   0  0  0  0  0  0  0  0  0  0  0  0
  -21.9302  -15.5543   20.8202 N   0  0  0  0  0  0  0  0  0  0  0  0
  -30.4384  -25.9023   21.3440 N   0  0  0  0  0  0  0  0  0  0  0  0
  -28.0714  -21.7162   18.5532 N   0  0  0  0  0  0  0  0  0  0  0  0
  -21.2442  -28.9498   22.1999 N   0  0  0  0  0  0  0  0  0  0  0  0
  -24.4405  -26.4386   17.5578 N   0  0  0  0  0  0  0  0  0  0  0  0
  -26.9606  -27.6096   15.2457 N   0  3  0  0  0  0  0  0  0  0  0  0
  -21.0265  -17.5840   20.2523 O   0  0  0  0  0  0  0  0  0  0  0  0
  -23.3757  -28.6413   23.0853 O   0  0  0  0  0  0  0  0  0  0  0  0
  -22.2488  -27.7505   18.8555 O   0  0  0  0  0  0  0  0  0  0  0  0
  -26.7364  -26.5765   17.8532 O   0  0  0  0  0  0  0  0  0  0  0  0
  -29.1925  -26.0457   23.3308 O   0  0  0  0  0  0  0  0  0  0  0  0
  -29.3614  -21.6764   16.6255 O   0  0  0  0  0  0  0  0  0  0  0  0
  -25.4426  -11.2503   21.2362 O   0  0  0  0  0  0  0  0  0  0  0  0
  -29.1410  -29.8119   23.3397 O   0  0  0  0  0  0  0  0  0  1  0  0
  -21.4753   -7.4493   20.7701 F   0  0  0  0  0  0  0  0  0  0  0  0
  -27.1122  -22.4419   21.0242 F   0  0  0  0  0  0  0  0  0  0  0  0
  -25.8672   -8.9255   19.8017 F   0  0  0  0  0  0  0  0  0  0  0  0
  -30.9883  -28.5418   22.0440 F   0  0  0  0  0  0  0  0  0  0  0  0
  1  2  1  0  0  0  0
  1  5  2  0  0  0  0
  2  6  2  0  0  0  0
  3  8  2  0  0  0  0
  3 17  1  0  0  0  0
  4  9  1  0  0  0  0
  4 17  2  0  0  0  0
  5 19  1  0  0  0  0
  6 21  1  0  0  0  0
  7 10  2  0  0  0  0
  7 20  1  0  0  0  0
  8 24  1  0  0  0  0
  9 24  2  0  0  0  0
 10 25  1  0  0  0  0
 11 12  2  0  0  0  0
 11 26  1  0  0  0  0
 12 27  1  0  0  0  0
 13 22  1  0  0  0  0
 13 25  2  0  0  0  0
 14 23  2  0  0  0  0
 14 28  1  0  0  0  0
 15 27  2  0  0  0  0
 15 29  1  0  0  0  0
 16 23  1  0  0  0  0
 16 63  2  0  0  0  0
 17 30  1  0  0  0  0
 18 30  1  0  0  0  0
 18 32  2  0  0  0  0
 18 33  1  0  0  0  0
 19 21  2  0  0  0  0
 19 39  1  0  0  0  0
 20 22  2  0  0  0  0
 20 40  1  0  0  0  0
 21 48  1  0  0  0  0
 22 41  1  0  0  0  0
 23 70  1  0  0  0  0
 24 81  1  0  0  0  0
 25 82  1  0  0  0  0
 26 29  2  0  0  0  0
 26 81  1  0  0  0  0
 27 83  1  0  0  0  0
 28 31  2  0  0  0  0
 28 84  1  0  0  0  0
 29 85  1  0  0  0  0
 30 64  2  0  0  0  0
 31 63  1  0  0  0  0
 31 71  1  0  0  0  0
 32 65  1  0  0  0  0
 32 68  1  0  0  0  0
 33 69  1  0  0  0  0
 33 75  2  0  0  0  0
 34 49  1  0  0  0  0
 34 72  1  0  0  0  0
 34 76  2  0  0  0  0
 35 58  1  0  0  0  0
 35 66  1  0  0  0  0
 35 77  2  0  0  0  0
 36 59  1  0  0  0  0
 36 73  1  0  0  0  0
 36 78  2  0  0  0  0
 37 60  1  0  0  0  0
 37 70  1  0  0  0  0
 37 79  2  0  0  0  0
 38 67  1  0  0  0  0
 38 71  1  0  0  0  0
 38 80  2  0  0  0  0
 39 42  1  0  0  0  0
 40 49  1  0  0  0  0
 41 66  1  0  0  0  0
 42 44  1  0  0  0  0
 43 45  1  0  0  0  0
 43 46  1  0  0  0  0
 44 48  1  0  0  0  0
 45 50  1  0  0  0  0
 46 67  1  0  0  0  0
 47 50  1  0  0  0  0
 47 67  1  0  0  0  0
 48 72  1  0  0  0  0
 49 66  1  0  0  0  0
 50 65  1  0  0  0  0
 51 59  1  0  0  0  0
 52 61  1  0  0  0  0
 53 62  1  0  0  0  0
 54 62  1  0  0  0  0
 55 62  1  0  0  0  0
 56 74  1  0  0  0  0
 57 60  1  0  0  0  0
 57 61  1  0  0  0  0
 58 62  1  0  0  0  0
 58 73  1  0  0  0  0
 59 74  1  0  0  0  0
 60 86  1  0  0  0  0
 61 82  1  0  0  0  0
 64 65  1  0  0  0  0
M  CHG  1  74   1
M  ISO  4  38 100  61 101  71 100  82 101
M  END
> <Batch ID>
0188

> <Smiles>
CNC(C)C(=O)NC(C(=O)N1Cc2cc([101O:1][101CH:1](C)CC(F)C(=O)Nc3cnc([100NH:0][100C:0](=O)N4CCCC(n5nc(-c6ccc(Oc7ccc(F)cc7F)cc6)c(C(N)=O)c5N)C4)c(F)c3)ccc2CC1C(=O)NC1CCCc2ccccc21)C(C)(C)C

> <Shape>
0.247

> <Color>
0.114

> <Negative vol penalty>
0.000

$$$$

  -OEChem-04052305153D

 87 95  0     1  0  0  0  0  0999 V2000
  -18.9477  -29.3463   19.2142 C   0  0  0  0  0  0  0  0  0  0  0  0
  -20.3299  -29.2664   19.3503 C   0  0  0  0  0  0  0  0  0  0  0  0
  -22.8657  -12.9013   20.9904 C   0  0  0  0  0  0  0  0  0  0  0  0
  -23.6697  -13.9918   22.9907 C   0  0  0  0  0  0  0  0  0  0  0  0
  -18.1203  -28.9174   20.2512 C   0  0  0  0  0  0  0  0  0  0  0  0
  -20.8856  -28.7585   20.5241 C   0  0  0  0  0  0  0  0  0  0  0  0
  -24.6594  -25.5005   19.6357 C   0  0  0  0  0  0  0  0  0  0  0  0
  -22.2796  -11.9039   21.7697 C   0  0  0  0  0  0  0  0  0  0  0  0
  -23.0835  -12.9945   23.7700 C   0  0  0  0  0  0  0  0  0  0  0  0
  -25.8981  -26.0396   19.2911 C   0  0  0  0  0  0  0  0  0  0  0  0
  -20.8780   -8.8764   23.2165 C   0  0  0  0  0  0  0  0  0  0  0  0
  -21.0503   -7.5519   22.8144 C   0  0  0  0  0  0  0  0  0  0  0  0
  -26.6578  -25.7284   21.5594 C   0  0  0  0  0  0  0  0  0  0  0  0
  -23.4446   -7.8007   23.0205 C   0  0  0  0  0  0  0  0  0  0  0  0
  -30.8318  -21.4191   18.9156 C   0  0  0  0  0  0  0  0  0  0  0  0
  -23.5608  -13.9452   21.6009 C   0  0  0  0  0  0  0  0  0  0  0  0
  -23.5775  -16.1826   20.3755 C   0  0  0  0  0  0  0  0  0  0  0  0
  -18.6660  -28.3950   21.4344 C   0  0  0  0  0  0  0  0  0  0  0  0
  -24.4065  -25.0807   20.9495 C   0  0  0  0  0  0  0  0  0  0  0  0
  -20.0647  -28.3234   21.5784 C   0  0  0  0  0  0  0  0  0  0  0  0
  -25.4159  -25.1819   21.9175 C   0  0  0  0  0  0  0  0  0  0  0  0
  -22.3884  -11.9505   23.1595 C   0  0  0  0  0  0  0  0  0  0  0  0
  -26.8965  -26.1563   20.2537 C   0  0  0  0  0  0  0  0  0  0  0  0
  -21.9891   -9.6631   23.5205 C   0  0  0  0  0  0  0  0  0  0  0  0
  -22.3335   -7.0140   22.7165 C   0  0  0  0  0  0  0  0  0  0  0  0
  -23.2723   -9.1252   23.4226 C   0  0  0  0  0  0  0  0  0  0  0  0
  -24.1670  -14.9755   20.7964 C   0  0  0  0  0  0  0  0  0  0  0  0
  -24.5575  -16.8061   19.6426 C   0  0  0  0  0  0  0  0  0  0  0  0
  -29.9849  -20.7551   19.7782 C   0  0  0  0  0  0  0  0  0  0  0  0
  -30.3672  -23.0826   20.2672 C   0  0  0  0  0  0  0  0  0  0  0  0
  -22.2616  -16.6945   20.6247 C   0  0  0  0  0  0  0  0  0  0  0  0
  -30.6007  -26.6668   21.4062 C   0  0  0  0  0  0  0  0  0  0  0  0
  -30.8785  -26.5709   22.7226 C   0  0  0  0  0  0  0  0  0  0  0  0
  -30.9544  -25.5113   20.5192 C   0  0  0  0  0  0  0  0  0  0  0  0
  -22.3583  -25.9389   23.2237 C   0  0  0  0  0  0  0  0  0  0  0  0
  -23.6231  -23.3905   24.7819 C   0  0  0  0  0  0  0  0  0  0  0  0
  -26.2534  -21.2533   25.1828 C   0  0  0  0  0  0  0  0  0  0  0  0
  -29.8500  -18.3850   18.9351 C   0  0  0  0  0  0  0  0  0  0  0  0
  -17.7321  -27.9878   22.5466 C   0  0  0  0  0  0  0  0  0  0  0  0
  -23.0740  -24.4766   21.2988 C   0  0  0  0  0  0  0  0  0  0  0  0
  -25.2016  -24.7270   23.3372 C   0  0  0  0  0  0  0  0  0  0  0  0
  -18.3944  -27.1142   23.6088 C   0  0  0  0  0  0  0  0  0  0  0  0
  -28.9973  -15.0760   17.9347 C   0  0  0  0  0  0  0  0  0  0  0  0
  -19.7416  -27.7007   24.0184 C   0  0  0  0  0  0  0  0  0  0  0  0
  -27.6161  -14.8542   18.5554 C   0  0  0  0  0  0  0  0  0  0  0  0
  -29.9028  -15.9022   18.8465 C   0  0  0  0  0  0  0  0  0  0  0  0
  -27.9509  -16.9559   19.9183 C   0  0  0  0  0  0  0  0  0  0  0  0
  -20.7049  -27.7553   22.8265 C   0  0  1  0  0  0  0  0  0  0  0  0
  -22.7538  -24.5563   22.7883 C   0  0  1  0  0  0  0  0  0  0  0  0
  -26.9817  -16.1838   19.0083 C   0  0  2  0  0  0  0  0  0  0  0  0
  -31.7438  -28.6131   23.8971 C   0  0  0  0  0  0  0  0  0  0  0  0
  -27.0096  -19.2969   26.5604 C   0  0  0  0  0  0  0  0  0  0  0  0
  -27.9915  -29.0729   19.8617 C   0  0  0  0  0  0  0  0  0  0  0  0
  -24.1856  -25.2614   27.1257 C   0  0  0  0  0  0  0  0  0  0  0  0
  -25.7493  -23.5330   28.0398 C   0  0  0  0  0  0  0  0  0  0  0  0
  -23.3257  -23.0047   27.7754 C   0  0  0  0  0  0  0  0  0  0  0  0
  -26.4748  -19.5125   22.7996 C   0  0  0  0  0  0  0  0  0  0  0  0
  -30.0483  -27.8830   20.7002 C   0  0  0  0  0  0  0  0  0  0  0  0
  -30.5820  -27.6428   23.7422 C   0  0  0  0  0  0  0  0  0  0  0  0
  -24.7872  -23.1810   25.7200 C   0  0  1  0  0  0  0  0  0  0  0  0
  -26.3154  -19.7398   25.2819 C   0  0  2  0  0  0  0  0  0  0  0  0
  -28.5173  -27.8585   20.6167 C   0  0  2  0  0  0  0  0  0  1  0  0
  -24.5156  -23.7555   27.1390 C   0  0  0  0  0  0  0  0  0  0  0  0
  -31.0519  -22.7539   19.1942 N   0  0  0  0  0  0  0  0  0  0  0  0
  -25.4241  -14.8382   20.3665 N   0  0  0  0  0  0  0  0  0  0  0  0
  -25.6325  -15.9671   19.6678 N   0  0  0  0  0  0  0  0  0  0  0  0
  -23.8799  -24.1490   23.6310 N   0  0  0  0  0  0  0  0  0  0  0  0
  -29.2376  -17.1489   19.2314 N   0  0  0  0  0  0  0  0  0  0  0  0
  -24.5960  -17.9847   18.9854 N   0  0  0  0  0  0  0  0  0  0  0  0
  -21.3807  -15.9253   21.3972 N   0  0  0  0  0  0  0  0  0  0  0  0
  -29.5276  -19.4146   19.8187 N   0  0  0  0  0  0  0  0  0  0  0  0
  -30.3040  -24.3467   20.8999 N   0  0  0  0  0  0  0  0  0  0  0  0
  -21.2556  -26.4436   22.5612 N   0  0  0  0  0  0  0  0  0  0  0  0
  -25.0758  -21.7511   25.6994 N   0  0  0  0  0  0  0  0  0  0  0  0
  -27.0615  -19.1749   24.1221 N   0  3  0  0  0  0  0  0  0  0  0  0
  -21.8728  -17.7937   20.1620 O   0  0  0  0  0  0  0  0  0  0  0  0
  -31.7092  -25.6890   19.5699 O   0  0  0  0  0  0  0  0  0  0  0  0
  -23.0047  -26.5054   24.0972 O   0  0  0  0  0  0  0  0  0  0  0  0
  -22.5281  -22.8933   25.0565 O   0  0  0  0  0  0  0  0  0  0  0  0
  -27.1605  -21.9269   24.6991 O   0  0  0  0  0  0  0  0  0  0  0  0
  -30.5832  -18.5272   17.9532 O   0  0  0  0  0  0  0  0  0  0  0  0
  -31.4600  -25.4233   23.2410 O   0  0  0  0  0  0  0  0  0  0  0  0
  -21.8164  -10.9776   23.9203 O   0  0  0  0  0  0  0  0  0  0  0  0
  -28.1063  -26.6828   19.9202 O   0  0  0  0  0  0  0  0  0  1  0  0
  -22.4987   -5.7416   22.3319 F   0  0  0  0  0  0  0  0  0  0  0  0
  -24.3435   -9.8757   23.7145 F   0  0  0  0  0  0  0  0  0  0  0  0
  -29.4375  -21.8357   20.9923 S   0  0  0  0  0  0  0  0  0  0  0  0
  1  2  1  0  0  0  0
  1  5  2  0  0  0  0
  2  6  2  0  0  0  0
  3  8  2  0  0  0  0
  3 16  1  0  0  0  0
  4  9  1  0  0  0  0
  4 16  2  0  0  0  0
  5 18  1  0  0  0  0
  6 20  1  0  0  0  0
  7 10  2  0  0  0  0
  7 19  1  0  0  0  0
  8 22  1  0  0  0  0
  9 22  2  0  0  0  0
 10 23  1  0  0  0  0
 11 12  2  0  0  0  0
 11 24  1  0  0  0  0
 12 25  1  0  0  0  0
 13 21  1  0  0  0  0
 13 23  2  0  0  0  0
 14 25  2  0  0  0  0
 14 26  1  0  0  0  0
 15 29  2  0  0  0  0
 15 64  1  0  0  0  0
 16 27  1  0  0  0  0
 17 27  1  0  0  0  0
 17 28  2  0  0  0  0
 17 31  1  0  0  0  0
 18 20  2  0  0  0  0
 18 39  1  0  0  0  0
 19 21  2  0  0  0  0
 19 40  1  0  0  0  0
 20 48  1  0  0  0  0
 21 41  1  0  0  0  0
 22 83  1  0  0  0  0
 23 84  1  0  0  0  0
 24 26  2  0  0  0  0
 24 83  1  0  0  0  0
 25 85  1  0  0  0  0
 26 86  1  0  0  0  0
 27 65  2  0  0  0  0
 28 66  1  0  0  0  0
 28 69  1  0  0  0  0
 29 71  1  0  0  0  0
 29 87  1  0  0  0  0
 30 64  2  0  0  0  0
 30 72  1  0  0  0  0
 30 87  1  0  0  0  0
 31 70  1  0  0  0  0
 31 76  2  0  0  0  0
 32 33  2  0  0  0  0
 32 34  1  0  0  0  0
 32 58  1  0  0  0  0
 33 59  1  0  0  0  0
 33 82  1  0  0  0  0
 34 72  1  0  0  0  0
 34 77  2  0  0  0  0
 35 49  1  0  0  0  0
 35 73  1  0  0  0  0
 35 78  2  0  0  0  0
 36 60  1  0  0  0  0
 36 67  1  0  0  0  0
 36 79  2  0  0  0  0
 37 61  1  0  0  0  0
 37 74  1  0  0  0  0
 37 80  2  0  0  0  0
 38 68  1  0  0  0  0
 38 71  1  0  0  0  0
 38 81  2  0  0  0  0
 39 42  1  0  0  0  0
 40 49  1  0  0  0  0
 41 67  1  0  0  0  0
 42 44  1  0  0  0  0
 43 45  1  0  0  0  0
 43 46  1  0  0  0  0
 44 48  1  0  0  0  0
 45 50  1  0  0  0  0
 46 68  1  0  0  0  0
 47 50  1  0  0  0  0
 47 68  1  0  0  0  0
 48 73  1  0  0  0  0
 49 67  1  0  0  0  0
 50 66  1  0  0  0  0
 51 59  1  0  0  0  0
 52 61  1  0  0  0  0
 53 62  1  0  0  0  0
 54 63  1  0  0  0  0
 55 63  1  0  0  0  0
 56 63  1  0  0  0  0
 57 75  1  0  0  0  0
 58 62  1  0  0  0  0
 60 63  1  0  0  0  0
 60 74  1  0  0  0  0
 61 75  1  0  0  0  0
 62 84  1  0  0  0  0
 65 66  1  0  0  0  0
M  CHG  1  75   1
M  ISO  4  38 100  62 101  71 100  84 101
M  END
> <Batch ID>
0188

> <Smiles>
CCC(=O)C(C[101CH:1](C)[101O:1]c1ccc2c(c1)CN(C(=O)C(NC(=O)C(C)NC)C(C)(C)C)C(C(=O)NC1CCCc3ccccc31)C2)C(=O)Nc1ncc([100NH:0][100C:0](=O)N2CCCC(n3nc(-c4ccc(Oc5ccc(F)cc5F)cc4)c(C(N)=O)c3N)C2)s1

> <Shape>
0.194

> <Color>
0.056

> <Negative vol penalty>
0.000

$$$$

  -OEChem-04052305153D

 84 92  0     1  0  0  0  0  0999 V2000
  -27.0259  -22.3133   19.3852 C   0  0  0  0  0  0  0  0  0  0  0  0
  -25.8759  -22.8802   19.9252 C   0  0  0  0  0  0  0  0  0  0  0  0
  -26.2937  -13.0862   18.7997 C   0  0  0  0  0  0  0  0  0  0  0  0
  -23.9997  -13.5389   19.4075 C   0  0  0  0  0  0  0  0  0  0  0  0
  -28.2809  -22.7733   19.7819 C   0  0  0  0  0  0  0  0  0  0  0  0
  -25.9803  -23.9068   20.8631 C   0  0  0  0  0  0  0  0  0  0  0  0
  -22.7674  -27.7118   19.9441 C   0  0  0  0  0  0  0  0  0  0  0  0
  -26.0311  -11.7166   18.8283 C   0  0  0  0  0  0  0  0  0  0  0  0
  -23.7370  -12.1693   19.4361 C   0  0  0  0  0  0  0  0  0  0  0  0
  -21.4354  -27.5228   20.3099 C   0  0  0  0  0  0  0  0  0  0  0  0
  -22.5523   -8.7835   20.0212 C   0  0  0  0  0  0  0  0  0  0  0  0
  -21.8184   -8.2864   21.0982 C   0  0  0  0  0  0  0  0  0  0  0  0
  -21.8090  -28.8127   22.3139 C   0  0  0  0  0  0  0  0  0  0  0  0
  -23.5177   -9.0790   22.6219 C   0  0  0  0  0  0  0  0  0  0  0  0
  -22.3878  -23.9220   23.3237 C   0  0  0  0  0  0  0  0  0  0  0  0
  -25.2781  -13.9974   19.0893 C   0  0  0  0  0  0  0  0  0  0  0  0
  -25.4275  -16.2787   17.9577 C   0  0  0  0  0  0  0  0  0  0  0  0
  -28.4005  -23.8127   20.7179 C   0  0  0  0  0  0  0  0  0  0  0  0
  -23.6345  -28.4447   20.7673 C   0  0  0  0  0  0  0  0  0  0  0  0
  -27.2381  -24.3803   21.2737 C   0  0  0  0  0  0  0  0  0  0  0  0
  -23.1509  -29.0117   21.9550 C   0  0  0  0  0  0  0  0  0  0  0  0
  -24.7527  -11.2582   19.1465 C   0  0  0  0  0  0  0  0  0  0  0  0
  -20.9568  -28.0708   21.4964 C   0  0  0  0  0  0  0  0  0  0  0  0
  -23.7689   -9.4282   20.2445 C   0  0  0  0  0  0  0  0  0  0  0  0
  -22.3011   -8.4342   22.3986 C   0  0  0  0  0  0  0  0  0  0  0  0
  -24.2516   -9.5760   21.5448 C   0  0  0  0  0  0  0  0  0  0  0  0
  -25.5489  -15.4123   19.0605 C   0  0  0  0  0  0  0  0  0  0  0  0
  -21.4133  -23.4779   22.4546 C   0  0  0  0  0  0  0  0  0  0  0  0
  -25.7983  -17.5083   18.4446 C   0  0  0  0  0  0  0  0  0  0  0  0
  -23.3172  -22.0275   22.7262 C   0  0  0  0  0  0  0  0  0  0  0  0
  -25.0162  -15.9973   16.6133 C   0  0  0  0  0  0  0  0  0  0  0  0
  -20.1282  -24.1068   22.0544 C   0  0  0  0  0  0  0  0  0  0  0  0
  -26.3091  -27.7892   22.3549 C   0  0  0  0  0  0  0  0  0  0  0  0
  -26.2776  -30.9783   22.9472 C   0  0  0  0  0  0  0  0  0  0  0  0
  -24.4653  -33.8577   23.2146 C   0  0  0  0  0  0  0  0  0  0  0  0
  -25.4182  -20.7295   23.2237 C   0  0  0  0  0  0  0  0  0  0  0  0
  -29.7792  -24.2442   21.1512 C   0  0  0  0  0  0  0  0  0  0  0  0
  -25.0618  -28.6620   20.3453 C   0  0  0  0  0  0  0  0  0  0  0  0
  -24.0359  -29.8239   22.8637 C   0  0  0  0  0  0  0  0  0  0  0  0
  -29.7981  -25.5907   21.8702 C   0  0  0  0  0  0  0  0  0  0  0  0
  -28.4370  -19.0670   22.3293 C   0  0  0  0  0  0  0  0  0  0  0  0
  -28.6939  -25.6504   22.9209 C   0  0  0  0  0  0  0  0  0  0  0  0
  -27.9899  -18.0393   21.2872 C   0  0  0  0  0  0  0  0  0  0  0  0
  -27.3978  -19.2423   23.4352 C   0  0  0  0  0  0  0  0  0  0  0  0
  -25.5915  -18.5158   21.9256 C   0  0  0  0  0  0  0  0  0  0  0  0
  -27.3099  -25.5126   22.2751 C   0  0  1  0  0  0  0  0  0  0  0  0
  -25.9865  -28.9913   21.5131 C   0  0  1  0  0  0  0  0  0  0  0  0
  -26.5769  -18.3525   20.7570 C   0  0  2  0  0  0  0  0  0  0  0  0
  -24.7107  -36.2974   23.7485 C   0  0  0  0  0  0  0  0  0  0  0  0
  -16.8524  -27.6480   23.1780 C   0  0  0  0  0  0  0  0  0  0  0  0
  -17.1112  -24.6329   23.1197 C   0  0  0  0  0  0  0  0  0  0  0  0
  -26.5140  -30.3030   25.9133 C   0  0  0  0  0  0  0  0  0  0  0  0
  -25.8057  -32.6477   26.4322 C   0  0  0  0  0  0  0  0  0  0  0  0
  -27.9164  -32.2350   25.1683 C   0  0  0  0  0  0  0  0  0  0  0  0
  -23.4978  -34.6602   20.5353 C   0  0  0  0  0  0  0  0  0  0  0  0
  -19.3683  -27.8554   23.2532 C   0  0  0  0  0  0  0  0  0  1  0  0
  -25.6932  -31.8599   24.0243 C   0  0  1  0  0  0  0  0  0  0  0  0
  -24.6931  -35.2476   22.6483 C   0  0  2  0  0  0  0  0  0  0  0  0
  -18.1691  -26.9319   23.5165 C   0  0  2  0  0  0  0  0  0  0  0  0
  -18.2635  -25.5751   22.7775 C   0  0  1  0  0  0  0  0  0  0  0  0
  -26.4659  -31.7445   25.3686 C   0  0  0  0  0  0  0  0  0  0  0  0
  -23.4801  -23.0914   23.4810 N   0  0  0  0  0  0  0  0  0  0  0  0
  -25.9646  -16.0383   20.1648 N   0  0  0  0  0  0  0  0  0  0  0  0
  -26.1076  -17.3112   19.7582 N   0  0  0  0  0  0  0  0  0  0  0  0
  -25.4252  -30.0029   22.4107 N   0  0  0  0  0  0  0  0  0  0  0  0
  -26.0852  -19.5411   22.8584 N   0  0  0  0  0  0  0  0  0  0  0  0
  -25.8868  -18.7281   17.8729 N   0  0  0  0  0  0  0  0  0  0  0  0
  -24.6694  -14.6803   16.2825 N   0  0  0  0  0  0  0  0  0  0  0  0
  -24.1929  -20.9223   22.5866 N   0  0  0  0  0  0  0  0  0  0  0  0
  -19.5274  -24.9140   23.0076 N   0  0  0  0  0  0  0  0  0  0  0  0
  -26.9136  -26.7603   21.6581 N   0  0  0  0  0  0  0  0  0  0  0  0
  -25.6549  -33.2094   23.4711 N   0  0  0  0  0  0  0  0  0  0  0  0
  -23.6131  -35.5969   21.6826 N   0  3  0  0  0  0  0  0  0  0  0  0
  -24.9737  -16.8843   15.7273 O   0  0  0  0  0  0  0  0  0  0  0  0
  -19.6660  -23.8712   20.9411 O   0  0  0  0  0  0  0  0  0  0  0  0
  -26.0316  -27.7953   23.5484 O   0  0  0  0  0  0  0  0  0  0  0  0
  -27.4452  -31.1535   22.5897 O   0  0  0  0  0  0  0  0  0  0  0  0
  -23.3442  -33.3949   23.4133 O   0  0  0  0  0  0  0  0  0  0  0  0
  -25.9113  -21.5316   24.0210 O   0  0  0  0  0  0  0  0  0  0  0  0
  -24.4960   -9.9218   19.1743 O   0  0  0  0  0  0  0  0  0  0  0  0
  -19.6572  -27.8874   21.8561 O   0  0  0  0  0  0  0  0  0  1  0  0
  -21.5955   -7.9582   23.4328 F   0  0  0  0  0  0  0  0  0  0  0  0
  -25.4192  -10.1955   21.7657 F   0  0  0  0  0  0  0  0  0  0  0  0
  -21.8737  -21.9607   21.8007 S   0  0  0  0  0  0  0  0  0  0  0  0
  1  2  1  0  0  0  0
  1  5  2  0  0  0  0
  2  6  2  0  0  0  0
  3  8  2  0  0  0  0
  3 16  1  0  0  0  0
  4  9  1  0  0  0  0
  4 16  2  0  0  0  0
  5 18  1  0  0  0  0
  6 20  1  0  0  0  0
  7 10  2  0  0  0  0
  7 19  1  0  0  0  0
  8 22  1  0  0  0  0
  9 22  2  0  0  0  0
 10 23  1  0  0  0  0
 11 12  2  0  0  0  0
 11 24  1  0  0  0  0
 12 25  1  0  0  0  0
 13 21  1  0  0  0  0
 13 23  2  0  0  0  0
 14 25  2  0  0  0  0
 14 26  1  0  0  0  0
 15 28  2  0  0  0  0
 15 62  1  0  0  0  0
 16 27  1  0  0  0  0
 17 27  1  0  0  0  0
 17 29  2  0  0  0  0
 17 31  1  0  0  0  0
 18 20  2  0  0  0  0
 18 37  1  0  0  0  0
 19 21  2  0  0  0  0
 19 38  1  0  0  0  0
 20 46  1  0  0  0  0
 21 39  1  0  0  0  0
 22 80  1  0  0  0  0
 23 81  1  0  0  0  0
 24 26  2  0  0  0  0
 24 80  1  0  0  0  0
 25 82  1  0  0  0  0
 26 83  1  0  0  0  0
 27 63  2  0  0  0  0
 28 32  1  0  0  0  0
 28 84  1  0  0  0  0
 29 64  1  0  0  0  0
 29 67  1  0  0  0  0
 30 62  2  0  0  0  0
 30 69  1  0  0  0  0
 30 84  1  0  0  0  0
 31 68  1  0  0  0  0
 31 74  2  0  0  0  0
 32 70  1  0  0  0  0
 32 75  2  0  0  0  0
 33 47  1  0  0  0  0
 33 71  1  0  0  0  0
 33 76  2  0  0  0  0
 34 57  1  0  0  0  0
 34 65  1  0  0  0  0
 34 77  2  0  0  0  0
 35 58  1  0  0  0  0
 35 72  1  0  0  0  0
 35 78  2  0  0  0  0
 36 66  1  0  0  0  0
 36 69  1  0  0  0  0
 36 79  2  0  0  0  0
 37 40  1  0  0  0  0
 38 47  1  0  0  0  0
 39 65  1  0  0  0  0
 40 42  1  0  0  0  0
 41 43  1  0  0  0  0
 41 44  1  0  0  0  0
 42 46  1  0  0  0  0
 43 48  1  0  0  0  0
 44 66  1  0  0  0  0
 45 48  1  0  0  0  0
 45 66  1  0  0  0  0
 46 71  1  0  0  0  0
 47 65  1  0  0  0  0
 48 64  1  0  0  0  0
 49 58  1  0  0  0  0
 50 59  1  0  0  0  0
 51 60  1  0  0  0  0
 52 61  1  0  0  0  0
 53 61  1  0  0  0  0
 54 61  1  0  0  0  0
 55 73  1  0  0  0  0
 56 59  1  0  0  0  0
 56 81  1  0  0  0  0
 57 61  1  0  0  0  0
 57 72  1  0  0  0  0
 58 73  1  0  0  0  0
 59 60  1  0  0  0  0
 60 70  1  0  0  0  0
 63 64  1  0  0  0  0
M  CHG  1  73   1
M  ISO  4  36 100  56 101  69 100  81 101
M  END
> <Batch ID>
0188

> <Smiles>
CNC(C)C(=O)NC(C(=O)N1Cc2cc([101O:1][101CH2:1]C(C)C(C)NC(=O)c3cnc([100NH:0][100C:0](=O)N4CCCC(n5nc(-c6ccc(Oc7ccc(F)cc7F)cc6)c(C(N)=O)c5N)C4)s3)ccc2CC1C(=O)NC1CCCc2ccccc21)C(C)(C)C

> <Shape>
0.229

> <Color>
0.053

> <Negative vol penalty>
0.000

$$$$

  -OEChem-04052305153D

 83 91  0     1  0  0  0  0  0999 V2000
  -26.6316  -30.4215   22.1655 C   0  0  0  0  0  0  0  0  0  0  0  0
  -26.8994  -29.4600   23.1345 C   0  0  0  0  0  0  0  0  0  0  0  0
  -23.0781   -9.8605   19.9435 C   0  0  0  0  0  0  0  0  0  0  0  0
  -23.8348   -9.8772   22.2379 C   0  0  0  0  0  0  0  0  0  0  0  0
  -27.2886  -30.3731   20.9367 C   0  0  0  0  0  0  0  0  0  0  0  0
  -27.8238  -28.4487   22.8749 C   0  0  0  0  0  0  0  0  0  0  0  0
  -31.6479  -25.8389   26.8837 C   0  0  0  0  0  0  0  0  0  0  0  0
  -22.3356   -8.7071   20.1967 C   0  0  0  0  0  0  0  0  0  0  0  0
  -23.0923   -8.7238   22.4911 C   0  0  0  0  0  0  0  0  0  0  0  0
  -31.5820  -24.6466   27.6033 C   0  0  0  0  0  0  0  0  0  0  0  0
  -19.8646   -7.9232   23.0922 C   0  0  0  0  0  0  0  0  0  0  0  0
  -19.1061   -7.8864   24.2622 C   0  0  0  0  0  0  0  0  0  0  0  0
  -32.9064  -23.5566   25.9070 C   0  0  0  0  0  0  0  0  0  0  0  0
  -20.3495   -5.9537   25.0075 C   0  0  0  0  0  0  0  0  0  0  0  0
  -31.7971  -18.7405   22.2328 C   0  0  0  0  0  0  0  0  0  0  0  0
  -23.8277  -10.4455   20.9641 C   0  0  0  0  0  0  0  0  0  0  0  0
  -24.1658  -12.9707   20.8352 C   0  0  0  0  0  0  0  0  0  0  0  0
  -28.2287  -29.3664   20.6655 C   0  0  0  0  0  0  0  0  0  0  0  0
  -32.3355  -25.8963   25.6629 C   0  0  0  0  0  0  0  0  0  0  0  0
  -28.4931  -28.3861   21.6409 C   0  0  0  0  0  0  0  0  0  0  0  0
  -32.9817  -24.7515   25.1751 C   0  0  0  0  0  0  0  0  0  0  0  0
  -22.3427   -8.1388   21.4705 C   0  0  0  0  0  0  0  0  0  0  0  0
  -32.2088  -23.5045   27.1136 C   0  0  0  0  0  0  0  0  0  0  0  0
  -20.8655   -6.9752   22.8798 C   0  0  0  0  0  0  0  0  0  0  0  0
  -19.3486   -6.9017   25.2199 C   0  0  0  0  0  0  0  0  0  0  0  0
  -21.1080   -5.9904   23.8375 C   0  0  0  0  0  0  0  0  0  0  0  0
  -24.5953  -11.6366   20.7030 C   0  0  0  0  0  0  0  0  0  0  0  0
  -30.6940  -19.1085   22.9743 C   0  0  0  0  0  0  0  0  0  0  0  0
  -25.2573  -13.7205   20.4706 C   0  0  0  0  0  0  0  0  0  0  0  0
  -30.5621  -16.9605   21.8919 C   0  0  0  0  0  0  0  0  0  0  0  0
  -22.8939  -13.4861   21.2504 C   0  0  0  0  0  0  0  0  0  0  0  0
  -31.5187  -26.5236   22.6557 C   0  0  0  0  0  0  0  0  0  0  0  0
  -34.7184  -26.3347   22.1576 C   0  0  0  0  0  0  0  0  0  0  0  0
  -37.7446  -25.1364   23.1839 C   0  0  0  0  0  0  0  0  0  0  0  0
  -31.0362  -21.1211   26.0647 C   0  0  0  0  0  0  0  0  0  0  0  0
  -30.7216  -14.7752   20.6489 C   0  0  0  0  0  0  0  0  0  0  0  0
  -28.8788  -29.3277   19.3052 C   0  0  0  0  0  0  0  0  0  0  0  0
  -32.4199  -27.1969   24.9120 C   0  0  0  0  0  0  0  0  0  0  0  0
  -33.7499  -24.7657   23.8797 C   0  0  0  0  0  0  0  0  0  0  0  0
  -30.1205  -28.4415   19.2486 C   0  0  0  0  0  0  0  0  0  0  0  0
  -29.6141  -12.3510   18.2880 C   0  0  0  0  0  0  0  0  0  0  0  0
  -29.8504  -27.1004   19.9233 C   0  0  0  0  0  0  0  0  0  0  0  0
  -28.1744  -12.0588   18.7167 C   0  0  0  0  0  0  0  0  0  0  0  0
  -30.5273  -12.5856   19.4900 C   0  0  0  0  0  0  0  0  0  0  0  0
  -28.6173  -13.3122   20.8660 C   0  0  0  0  0  0  0  0  0  0  0  0
  -29.5075  -27.2879   21.4061 C   0  0  1  0  0  0  0  0  0  0  0  0
  -32.7129  -27.0111   23.4263 C   0  0  1  0  0  0  0  0  0  0  0  0
  -27.6464  -13.1331   19.6876 C   0  0  2  0  0  0  0  0  0  0  0  0
  -30.4789  -21.6268   22.9118 C   0  0  0  0  0  0  0  0  0  0  0  0
  -40.1731  -25.1178   22.5520 C   0  0  0  0  0  0  0  0  0  0  0  0
  -32.1142  -19.9412   28.0120 C   0  0  0  0  0  0  0  0  0  0  0  0
  -34.1306  -24.2926   19.9679 C   0  0  0  0  0  0  0  0  0  0  0  0
  -36.5423  -23.6243   20.0404 C   0  0  0  0  0  0  0  0  0  0  0  0
  -35.9134  -25.9508   19.3966 C   0  0  0  0  0  0  0  0  0  0  0  0
  -38.5293  -26.4805   25.7011 C   0  0  0  0  0  0  0  0  0  0  0  0
  -30.4408  -20.3675   23.7751 C   0  0  2  0  0  0  0  0  0  0  0  0
  -35.6824  -25.2267   21.8079 C   0  0  1  0  0  0  0  0  0  0  0  0
  -39.0903  -25.8165   23.3595 C   0  0  2  0  0  0  0  0  0  0  0  0
  -32.1865  -21.1269   27.0620 C   0  0  2  0  0  0  0  0  0  1  0  0
  -35.5511  -24.7725   20.3267 C   0  0  0  0  0  0  0  0  0  0  0  0
  -31.7235  -17.5090   21.6117 N   0  0  0  0  0  0  0  0  0  0  0  0
  -25.8609  -11.5412   20.2868 N   0  0  0  0  0  0  0  0  0  0  0  0
  -26.2360  -12.8249   20.1542 N   0  0  0  0  0  0  0  0  0  0  0  0
  -33.7982  -26.0596   23.1789 N   0  0  0  0  0  0  0  0  0  0  0  0
  -29.9655  -13.6188   20.3629 N   0  0  0  0  0  0  0  0  0  0  0  0
  -25.4657  -15.0521   20.3929 N   0  0  0  0  0  0  0  0  0  0  0  0
  -21.8830  -12.5766   21.5897 N   0  0  0  0  0  0  0  0  0  0  0  0
  -30.0718  -15.7022   21.4631 N   0  0  0  0  0  0  0  0  0  0  0  0
  -30.7082  -27.5345   22.1753 N   0  0  0  0  0  0  0  0  0  0  0  0
  -31.3640  -20.4805   24.8798 N   0  0  0  0  0  0  0  0  0  0  0  0
  -37.0101  -25.7118   22.1687 N   0  0  0  0  0  0  0  0  0  0  0  0
  -39.4930  -25.8053   24.7943 N   0  3  0  0  0  0  0  0  0  0  0  0
  -22.6557  -14.7166   21.3029 O   0  0  0  0  0  0  0  0  0  0  0  0
  -31.3461  -25.3196   22.5067 O   0  0  0  0  0  0  0  0  0  0  0  0
  -34.7844  -27.4072   21.5518 O   0  0  0  0  0  0  0  0  0  0  0  0
  -37.3827  -24.1870   23.8756 O   0  0  0  0  0  0  0  0  0  0  0  0
  -29.9531  -21.6509   26.3036 O   0  0  0  0  0  0  0  0  0  0  0  0
  -31.8511  -14.9439   20.1822 O   0  0  0  0  0  0  0  0  0  0  0  0
  -21.6182   -7.0135   21.7180 O   0  0  0  0  0  0  0  0  0  0  0  0
  -32.1455  -22.3392   27.8137 O   0  0  0  0  0  0  0  0  0  1  0  0
  -18.6212   -6.8674   26.3441 F   0  0  0  0  0  0  0  0  0  0  0  0
  -22.0690   -5.0777   23.6395 F   0  0  0  0  0  0  0  0  0  0  0  0
  -29.5095  -17.8707   22.8962 S   0  0  0  0  0  0  0  0  0  0  0  0
  1  2  1  0  0  0  0
  1  5  2  0  0  0  0
  2  6  2  0  0  0  0
  3  8  2  0  0  0  0
  3 16  1  0  0  0  0
  4  9  1  0  0  0  0
  4 16  2  0  0  0  0
  5 18  1  0  0  0  0
  6 20  1  0  0  0  0
  7 10  2  0  0  0  0
  7 19  1  0  0  0  0
  8 22  1  0  0  0  0
  9 22  2  0  0  0  0
 10 23  1  0  0  0  0
 11 12  2  0  0  0  0
 11 24  1  0  0  0  0
 12 25  1  0  0  0  0
 13 21  1  0  0  0  0
 13 23  2  0  0  0  0
 14 25  2  0  0  0  0
 14 26  1  0  0  0  0
 15 28  2  0  0  0  0
 15 61  1  0  0  0  0
 16 27  1  0  0  0  0
 17 27  1  0  0  0  0
 17 29  2  0  0  0  0
 17 31  1  0  0  0  0
 18 20  2  0  0  0  0
 18 37  1  0  0  0  0
 19 21  2  0  0  0  0
 19 38  1  0  0  0  0
 20 46  1  0  0  0  0
 21 39  1  0  0  0  0
 22 79  1  0  0  0  0
 23 80  1  0  0  0  0
 24 26  2  0  0  0  0
 24 79  1  0  0  0  0
 25 81  1  0  0  0  0
 26 82  1  0  0  0  0
 27 62  2  0  0  0  0
 28 56  1  0  0  0  0
 28 83  1  0  0  0  0
 29 63  1  0  0  0  0
 29 66  1  0  0  0  0
 30 61  2  0  0  0  0
 30 68  1  0  0  0  0
 30 83  1  0  0  0  0
 31 67  1  0  0  0  0
 31 73  2  0  0  0  0
 32 47  1  0  0  0  0
 32 69  1  0  0  0  0
 32 74  2  0  0  0  0
 33 57  1  0  0  0  0
 33 64  1  0  0  0  0
 33 75  2  0  0  0  0
 34 58  1  0  0  0  0
 34 71  1  0  0  0  0
 34 76  2  0  0  0  0
 35 59  1  0  0  0  0
 35 70  1  0  0  0  0
 35 77  2  0  0  0  0
 36 65  1  0  0  0  0
 36 68  1  0  0  0  0
 36 78  2  0  0  0  0
 37 40  1  0  0  0  0
 38 47  1  0  0  0  0
 39 64  1  0  0  0  0
 40 42  1  0  0  0  0
 41 43  1  0  0  0  0
 41 44  1  0  0  0  0
 42 46  1  0  0  0  0
 43 48  1  0  0  0  0
 44 65  1  0  0  0  0
 45 48  1  0  0  0  0
 45 65  1  0  0  0  0
 46 69  1  0  0  0  0
 47 64  1  0  0  0  0
 48 63  1  0  0  0  0
 49 56  1  0  0  0  0
 50 58  1  0  0  0  0
 51 59  1  0  0  0  0
 52 60  1  0  0  0  0
 53 60  1  0  0  0  0
 54 60  1  0  0  0  0
 55 72  1  0  0  0  0
 56 70  1  0  0  0  0
 57 60  1  0  0  0  0
 57 71  1  0  0  0  0
 58 72  1  0  0  0  0
 59 80  1  0  0  0  0
 62 63  1  0  0  0  0
M  CHG  1  72   1
M  ISO  4  36 100  59 101  68 100  80 101
M  END
> <Batch ID>
0188

> <Smiles>
CNC(C)C(=O)NC(C(=O)N1Cc2cc([101O:1][101CH:1](C)C(=O)NC(C)c3cnc([100NH:0][100C:0](=O)N4CCCC(n5nc(-c6ccc(Oc7ccc(F)cc7F)cc6)c(C(N)=O)c5N)C4)s3)ccc2CC1C(=O)NC1CCCc2ccccc21)C(C)(C)C

> <Shape>
0.219

> <Color>
0.188

> <Negative vol penalty>
0.000

$$$$

  -OEChem-04052305153D

 89 97  0     1  0  0  0  0  0999 V2000
  -31.9455  -27.5744   16.5281 C   0  0  0  0  0  0  0  0  0  0  0  0
  -32.5629  -26.8720   17.5581 C   0  0  0  0  0  0  0  0  0  0  0  0
  -22.9999   -9.8936   19.9807 C   0  0  0  0  0  0  0  0  0  0  0  0
  -23.7294   -9.9435   22.2834 C   0  0  0  0  0  0  0  0  0  0  0  0
  -30.7195  -28.2002   16.7497 C   0  0  0  0  0  0  0  0  0  0  0  0
  -31.9549  -26.7959   18.8107 C   0  0  0  0  0  0  0  0  0  0  0  0
  -31.2305  -22.3813   24.4057 C   0  0  0  0  0  0  0  0  0  0  0  0
  -22.2351   -8.7580   20.2476 C   0  0  0  0  0  0  0  0  0  0  0  0
  -22.9645   -8.8079   22.5504 C   0  0  0  0  0  0  0  0  0  0  0  0
  -31.3834  -22.3647   25.7913 C   0  0  0  0  0  0  0  0  0  0  0  0
  -21.4886   -5.7124   23.7540 C   0  0  0  0  0  0  0  0  0  0  0  0
  -22.0771   -4.6966   24.5073 C   0  0  0  0  0  0  0  0  0  0  0  0
  -29.2272  -23.4182   26.0359 C   0  0  0  0  0  0  0  0  0  0  0  0
  -23.8005   -4.4526   22.8318 C   0  0  0  0  0  0  0  0  0  0  0  0
  -29.0377  -17.8973   25.1909 C   0  0  0  0  0  0  0  0  0  0  0  0
  -23.7471  -10.4862   20.9987 C   0  0  0  0  0  0  0  0  0  0  0  0
  -24.1294  -13.0024   20.8239 C   0  0  0  0  0  0  0  0  0  0  0  0
  -30.0916  -28.1236   18.0029 C   0  0  0  0  0  0  0  0  0  0  0  0
  -30.0777  -22.9274   23.8233 C   0  0  0  0  0  0  0  0  0  0  0  0
  -30.7200  -27.4223   19.0497 C   0  0  0  0  0  0  0  0  0  0  0  0
  -29.0610  -23.4383   24.6426 C   0  0  0  0  0  0  0  0  0  0  0  0
  -31.1228  -17.9994   24.1690 C   0  0  0  0  0  0  0  0  0  0  0  0
  -30.3428  -18.3196   25.3176 C   0  0  0  0  0  0  0  0  0  0  0  0
  -22.2173   -8.2152   21.5324 C   0  0  0  0  0  0  0  0  0  0  0  0
  -30.3830  -22.8858   26.6066 C   0  0  0  0  0  0  0  0  0  0  0  0
  -22.0560   -6.0982   22.5396 C   0  0  0  0  0  0  0  0  0  0  0  0
  -23.2331   -4.0667   24.0462 C   0  0  0  0  0  0  0  0  0  0  0  0
  -23.2119   -5.4683   22.0785 C   0  0  0  0  0  0  0  0  0  0  0  0
  -24.5378  -11.6589   20.7235 C   0  0  0  0  0  0  0  0  0  0  0  0
  -30.3841  -17.3444   23.2082 C   0  0  0  0  0  0  0  0  0  0  0  0
  -25.2377  -13.7264   20.4580 C   0  0  0  0  0  0  0  0  0  0  0  0
  -22.8616  -13.5471   21.2133 C   0  0  0  0  0  0  0  0  0  0  0  0
  -29.4929  -25.3533   21.8544 C   0  0  0  0  0  0  0  0  0  0  0  0
  -26.4719  -24.1739   21.9252 C   0  0  0  0  0  0  0  0  0  0  0  0
  -30.0997  -19.3213   27.6154 C   0  0  0  0  0  0  0  0  0  0  0  0
  -24.1120  -22.3501   23.5838 C   0  0  0  0  0  0  0  0  0  0  0  0
  -30.7336  -14.6666   20.6969 C   0  0  0  0  0  0  0  0  0  0  0  0
  -28.7893  -28.8560   18.2084 C   0  0  0  0  0  0  0  0  0  0  0  0
  -29.9162  -22.9135   22.3279 C   0  0  0  0  0  0  0  0  0  0  0  0
  -27.7950  -24.0174   24.0678 C   0  0  0  0  0  0  0  0  0  0  0  0
  -28.0314  -28.4124   19.4570 C   0  0  0  0  0  0  0  0  0  0  0  0
  -29.5910  -12.2436   18.3516 C   0  0  0  0  0  0  0  0  0  0  0  0
  -28.9743  -28.3317   20.6533 C   0  0  0  0  0  0  0  0  0  0  0  0
  -28.1436  -11.9820   18.7717 C   0  0  0  0  0  0  0  0  0  0  0  0
  -30.4955  -12.4790   19.5593 C   0  0  0  0  0  0  0  0  0  0  0  0
  -28.5870  -13.2714   20.9024 C   0  0  0  0  0  0  0  0  0  0  0  0
  -30.0801  -27.2962   20.4153 C   0  0  1  0  0  0  0  0  0  0  0  0
  -28.9284  -23.9612   21.8239 C   0  0  1  0  0  0  0  0  0  0  0  0
  -27.6260  -13.0837   19.7160 C   0  0  2  0  0  0  0  0  0  0  0  0
  -30.6587  -17.8861   20.7602 C   0  0  0  0  0  0  0  0  0  0  0  0
  -21.7251  -21.5948   23.4104 C   0  0  0  0  0  0  0  0  0  0  0  0
  -28.8379  -23.1272   29.6413 C   0  0  0  0  0  0  0  0  0  0  0  0
  -25.5330  -26.9689   22.7104 C   0  0  0  0  0  0  0  0  0  0  0  0
  -23.3599  -25.9593   23.4360 C   0  0  0  0  0  0  0  0  0  0  0  0
  -24.0696  -25.8050   21.0496 C   0  0  0  0  0  0  0  0  0  0  0  0
  -24.8942  -19.4958   23.5765 C   0  0  0  0  0  0  0  0  0  0  0  0
  -30.9931  -20.0408   28.6185 C   0  0  0  0  0  0  0  0  0  0  0  0
  -30.2456  -21.0405   29.5051 C   0  0  0  0  0  0  0  0  0  0  0  0
  -30.8163  -16.8447   21.8836 C   0  0  2  0  0  0  0  0  0  0  0  0
  -25.2547  -24.4033   22.7882 C   0  0  1  0  0  0  0  0  0  0  0  0
  -23.1767  -21.2498   23.1157 C   0  0  2  0  0  0  0  0  0  0  0  0
  -29.5518  -22.1544   28.7114 C   0  0  2  0  0  0  0  0  0  1  0  0
  -32.5629  -18.3290   24.0228 C   0  0  0  0  0  0  0  0  0  0  0  0
  -24.5789  -25.7750   22.5071 C   0  0  0  0  0  0  0  0  0  0  0  0
  -25.8065  -11.5341   20.3248 N   0  0  0  0  0  0  0  0  0  0  0  0
  -26.2048  -12.8084   20.1714 N   0  0  0  0  0  0  0  0  0  0  0  0
  -27.6868  -23.9869   22.5998 N   0  0  0  0  0  0  0  0  0  0  0  0
  -29.9492  -13.5364   20.4133 N   0  0  0  0  0  0  0  0  0  0  0  0
  -25.4696  -15.0525   20.3566 N   0  0  0  0  0  0  0  0  0  0  0  0
  -21.8314  -12.6616   21.5581 N   0  0  0  0  0  0  0  0  0  0  0  0
  -30.8179  -18.9903   26.4697 N   0  0  0  0  0  0  0  0  0  0  0  0
  -29.5694  -25.9567   20.6136 N   0  0  0  0  0  0  0  0  0  0  0  0
  -24.3823  -23.2530   22.5775 N   0  0  0  0  0  0  0  0  0  0  0  0
  -30.1377  -15.6241   21.5086 N   0  0  0  0  0  0  0  0  0  0  0  0
  -23.5030  -19.9667   23.7999 N   0  3  0  0  0  0  0  0  0  0  0  0
  -22.6437  -14.7822   21.2384 O   0  0  0  0  0  0  0  0  0  0  0  0
  -29.8325  -25.8443   22.9246 O   0  0  0  0  0  0  0  0  0  0  0  0
  -26.3482  -24.1541   20.6981 O   0  0  0  0  0  0  0  0  0  0  0  0
  -28.9218  -19.0742   27.8518 O   0  0  0  0  0  0  0  0  0  0  0  0
  -24.5552  -22.4052   24.7288 O   0  0  0  0  0  0  0  0  0  0  0  0
  -31.8780  -14.8141   20.2548 O   0  0  0  0  0  0  0  0  0  0  0  0
  -21.4709   -7.1074   21.7932 O   0  0  0  0  0  0  0  0  0  0  0  0
  -30.5299  -22.8714   27.9594 O   0  0  0  0  0  0  0  0  0  1  0  0
  -23.7990   -3.0924   24.7705 F   0  0  0  0  0  0  0  0  0  0  0  0
  -23.7623   -5.8355   20.9131 F   0  0  0  0  0  0  0  0  0  0  0  0
  -33.0952  -18.9796   25.1031 F   0  0  0  0  0  0  0  0  0  0  0  0
  -33.3657  -17.2351   23.8431 F   0  0  0  0  0  0  0  0  0  0  0  0
  -32.8168  -19.1415   22.9525 F   0  0  0  0  0  0  0  0  0  0  0  0
  -28.7571  -17.1183   23.6920 S   0  0  0  0  0  0  0  0  0  0  0  0
  1  2  1  0  0  0  0
  1  5  2  0  0  0  0
  2  6  2  0  0  0  0
  3  8  2  0  0  0  0
  3 16  1  0  0  0  0
  4  9  1  0  0  0  0
  4 16  2  0  0  0  0
  5 18  1  0  0  0  0
  6 20  1  0  0  0  0
  7 10  2  0  0  0  0
  7 19  1  0  0  0  0
  8 24  1  0  0  0  0
  9 24  2  0  0  0  0
 10 25  1  0  0  0  0
 11 12  2  0  0  0  0
 11 26  1  0  0  0  0
 12 27  1  0  0  0  0
 13 21  1  0  0  0  0
 13 25  2  0  0  0  0
 14 27  2  0  0  0  0
 14 28  1  0  0  0  0
 15 23  2  0  0  0  0
 15 89  1  0  0  0  0
 16 29  1  0  0  0  0
 17 29  1  0  0  0  0
 17 31  2  0  0  0  0
 17 32  1  0  0  0  0
 18 20  2  0  0  0  0
 18 38  1  0  0  0  0
 19 21  2  0  0  0  0
 19 39  1  0  0  0  0
 20 47  1  0  0  0  0
 21 40  1  0  0  0  0
 22 23  1  0  0  0  0
 22 30  2  0  0  0  0
 22 63  1  0  0  0  0
 23 71  1  0  0  0  0
 24 82  1  0  0  0  0
 25 83  1  0  0  0  0
 26 28  2  0  0  0  0
 26 82  1  0  0  0  0
 27 84  1  0  0  0  0
 28 85  1  0  0  0  0
 29 65  2  0  0  0  0
 30 59  1  0  0  0  0
 30 89  1  0  0  0  0
 31 66  1  0  0  0  0
 31 69  1  0  0  0  0
 32 70  1  0  0  0  0
 32 76  2  0  0  0  0
 33 48  1  0  0  0  0
 33 72  1  0  0  0  0
 33 77  2  0  0  0  0
 34 60  1  0  0  0  0
 34 67  1  0  0  0  0
 34 78  2  0  0  0  0
 35 57  1  0  0  0  0
 35 71  1  0  0  0  0
 35 79  2  0  0  0  0
 36 61  1  0  0  0  0
 36 73  1  0  0  0  0
 36 80  2  0  0  0  0
 37 68  1  0  0  0  0
 37 74  1  0  0  0  0
 37 81  2  0  0  0  0
 38 41  1  0  0  0  0
 39 48  1  0  0  0  0
 40 67  1  0  0  0  0
 41 43  1  0  0  0  0
 42 44  1  0  0  0  0
 42 45  1  0  0  0  0
 43 47  1  0  0  0  0
 44 49  1  0  0  0  0
 45 68  1  0  0  0  0
 46 49  1  0  0  0  0
 46 68  1  0  0  0  0
 47 72  1  0  0  0  0
 48 67  1  0  0  0  0
 49 66  1  0  0  0  0
 50 59  1  0  0  0  0
 51 61  1  0  0  0  0
 52 62  1  0  0  0  0
 53 64  1  0  0  0  0
 54 64  1  0  0  0  0
 55 64  1  0  0  0  0
 56 75  1  0  0  0  0
 57 58  1  0  0  0  0
 58 62  1  0  0  0  0
 59 74  1  0  0  0  0
 60 64  1  0  0  0  0
 60 73  1  0  0  0  0
 61 75  1  0  0  0  0
 62 83  1  0  0  0  0
 63 86  1  0  0  0  0
 63 87  1  0  0  0  0
 63 88  1  0  0  0  0
 65 66  1  0  0  0  0
M  CHG  1  75   1
M  ISO  4  37 100  62 101  74 100  83 101
M  END
> <Batch ID>
0188

> <Smiles>
CNC(C)C(=O)NC(C(=O)N1Cc2cc([101O:1][101CH:1](C)CCC(=O)Nc3csc(C(C)[100NH:0][100C:0](=O)N4CCCC(n5nc(-c6ccc(Oc7ccc(F)cc7F)cc6)c(C(N)=O)c5N)C4)c3C(F)(F)F)ccc2CC1C(=O)NC1CCCc2ccccc21)C(C)(C)C

> <Shape>
0.215

> <Color>
0.197

> <Negative vol penalty>
0.000

$$$$

  -OEChem-04052305153D

 85 93  0     1  0  0  0  0  0999 V2000
  -32.0968  -15.5976   12.9246 C   0  0  0  0  0  0  0  0  0  0  0  0
  -32.1528  -15.2634   14.2739 C   0  0  0  0  0  0  0  0  0  0  0  0
  -27.6023  -29.0943   20.4070 C   0  0  0  0  0  0  0  0  0  0  0  0
  -25.5679  -27.7912   20.3997 C   0  0  0  0  0  0  0  0  0  0  0  0
  -31.1445  -16.5102   12.4727 C   0  0  0  0  0  0  0  0  0  0  0  0
  -31.2573  -15.8426   15.1723 C   0  0  0  0  0  0  0  0  0  0  0  0
  -29.2768  -12.4691   18.3882 C   0  0  0  0  0  0  0  0  0  0  0  0
  -26.8733  -30.2345   20.0692 C   0  0  0  0  0  0  0  0  0  0  0  0
  -24.8388  -28.9314   20.0620 C   0  0  0  0  0  0  0  0  0  0  0  0
  -30.0751  -12.0633   19.4568 C   0  0  0  0  0  0  0  0  0  0  0  0
  -22.3930  -31.5726   19.5512 C   0  0  0  0  0  0  0  0  0  0  0  0
  -21.2019  -31.8085   20.2375 C   0  0  0  0  0  0  0  0  0  0  0  0
  -28.8957  -13.5866   20.9086 C   0  0  0  0  0  0  0  0  0  0  0  0
  -29.9873  -17.7178   23.4314 C   0  0  0  0  0  0  0  0  0  0  0  0
  -22.4203  -31.8974   22.3219 C   0  0  0  0  0  0  0  0  0  0  0  0
  -26.9496  -27.8727   20.5722 C   0  0  0  0  0  0  0  0  0  0  0  0
  -27.9974  -26.2260   22.2149 C   0  0  0  0  0  0  0  0  0  0  0  0
  -30.2306  -17.0935   13.3644 C   0  0  0  0  0  0  0  0  0  0  0  0
  -28.2876  -13.4462   18.5697 C   0  0  0  0  0  0  0  0  0  0  0  0
  -30.2928  -16.7648   14.7321 C   0  0  0  0  0  0  0  0  0  0  0  0
  -28.0845  -14.0012   19.8413 C   0  0  0  0  0  0  0  0  0  0  0  0
  -29.1588  -18.7106   22.8330 C   0  0  0  0  0  0  0  0  0  0  0  0
  -25.4915  -30.1531   19.8967 C   0  0  0  0  0  0  0  0  0  0  0  0
  -29.8866  -12.6241   20.7166 C   0  0  0  0  0  0  0  0  0  0  0  0
  -23.5979  -31.4990   20.2502 C   0  0  0  0  0  0  0  0  0  0  0  0
  -21.2155  -31.9709   21.6228 C   0  0  0  0  0  0  0  0  0  0  0  0
  -23.6115  -31.6614   21.6355 C   0  0  0  0  0  0  0  0  0  0  0  0
  -27.7023  -26.6944   20.9205 C   0  0  0  0  0  0  0  0  0  0  0  0
  -28.7295  -25.0826   22.0076 C   0  0  0  0  0  0  0  0  0  0  0  0
  -31.0202  -17.3379   22.6029 C   0  0  0  0  0  0  0  0  0  0  0  0
  -29.5902  -19.0519   21.5700 C   0  0  0  0  0  0  0  0  0  0  0  0
  -27.6415  -26.7754   23.4905 C   0  0  0  0  0  0  0  0  0  0  0  0
  -27.7612  -16.3511   17.3915 C   0  0  0  0  0  0  0  0  0  0  0  0
  -24.9835  -16.0944   19.0472 C   0  0  0  0  0  0  0  0  0  0  0  0
  -23.2688  -14.6565   21.6237 C   0  0  0  0  0  0  0  0  0  0  0  0
  -29.5855  -20.2600   19.3594 C   0  0  0  0  0  0  0  0  0  0  0  0
  -29.2498  -18.1106   12.8368 C   0  0  0  0  0  0  0  0  0  0  0  0
  -27.4169  -13.8537   17.4129 C   0  0  0  0  0  0  0  0  0  0  0  0
  -27.0225  -15.0390   20.0932 C   0  0  0  0  0  0  0  0  0  0  0  0
  -28.0942  -18.3954   13.7927 C   0  0  0  0  0  0  0  0  0  0  0  0
  -30.7937  -23.2138   17.7805 C   0  0  0  0  0  0  0  0  0  0  0  0
  -28.6146  -18.6089   15.2106 C   0  0  0  0  0  0  0  0  0  0  0  0
  -30.1214  -24.3441   18.5632 C   0  0  0  0  0  0  0  0  0  0  0  0
  -29.8687  -22.0090   17.6170 C   0  0  0  0  0  0  0  0  0  0  0  0
  -28.6190  -22.6260   19.6484 C   0  0  0  0  0  0  0  0  0  0  0  0
  -29.3224  -17.3530   15.7334 C   0  0  1  0  0  0  0  0  0  0  0  0
  -26.7832  -15.2291   17.5974 C   0  0  1  0  0  0  0  0  0  0  0  0
  -29.5347  -23.8361   19.8948 C   0  0  2  0  0  0  0  0  0  0  0  0
  -27.9737  -19.3002   23.5014 C   0  0  0  0  0  0  0  0  0  0  0  0
  -21.0268  -14.6747   22.7510 C   0  0  0  0  0  0  0  0  0  0  0  0
  -32.6344  -16.5871   25.2091 C   0  0  0  0  0  0  0  0  0  0  0  0
  -30.3314  -12.6802   24.0880 C   0  0  0  0  0  0  0  0  0  0  0  0
  -25.6770  -18.7510   20.3782 C   0  0  0  0  0  0  0  0  0  0  0  0
  -23.9520  -18.2480   22.1217 C   0  0  0  0  0  0  0  0  0  0  0  0
  -23.2730  -18.5027   19.7349 C   0  0  0  0  0  0  0  0  0  0  0  0
  -22.8143  -11.7944   21.0233 C   0  0  0  0  0  0  0  0  0  0  0  0
  -32.4292  -13.4438   22.8458 C   0  0  0  0  0  0  0  0  0  0  0  0
  -24.5394  -16.4344   20.4494 C   0  0  1  0  0  0  0  0  0  0  0  0
  -21.8924  -14.0191   21.6862 C   0  0  2  0  0  0  0  0  0  0  0  0
  -32.0659  -15.6654   24.1310 C   0  0  2  0  0  0  0  0  0  0  0  0
  -30.9194  -13.1950   22.7814 C   0  0  1  0  0  0  0  0  0  1  0  0
  -32.9086  -14.3885   23.9585 C   0  0  2  0  0  0  0  0  0  0  0  0
  -24.3817  -17.9659   20.6662 C   0  0  0  0  0  0  0  0  0  0  0  0
  -28.2059  -25.9125   19.9619 N   0  0  0  0  0  0  0  0  0  0  0  0
  -28.8250  -24.9412   20.6545 N   0  0  0  0  0  0  0  0  0  0  0  0
  -26.2010  -15.4091   18.9289 N   0  0  0  0  0  0  0  0  0  0  0  0
  -29.3546  -21.5806   18.9197 N   0  0  0  0  0  0  0  0  0  0  0  0
  -29.2946  -24.1943   22.8527 N   0  0  0  0  0  0  0  0  0  0  0  0
  -26.8863  -27.9557   23.5225 N   0  0  0  0  0  0  0  0  0  0  0  0
  -29.0781  -19.9773   20.6271 N   0  0  0  0  0  0  0  0  0  0  0  0
  -31.9961  -16.3994   22.8832 N   0  0  0  0  0  0  0  0  0  0  0  0
  -28.3528  -16.3597   16.1428 N   0  0  0  0  0  0  0  0  0  0  0  0
  -23.3210  -15.6685   20.6886 N   0  0  0  0  0  0  0  0  0  0  0  0
  -22.0078  -12.5674   22.0026 N   0  3  0  0  0  0  0  0  0  0  0  0
  -27.9970  -26.2446   24.5701 O   0  0  0  0  0  0  0  0  0  0  0  0
  -27.9629  -17.1507   18.2979 O   0  0  0  0  0  0  0  0  0  0  0  0
  -24.2728  -16.4185   18.0924 O   0  0  0  0  0  0  0  0  0  0  0  0
  -24.2030  -14.2955   22.3361 O   0  0  0  0  0  0  0  0  0  0  0  0
  -30.2128  -19.4482   18.6741 O   0  0  0  0  0  0  0  0  0  0  0  0
  -34.2652  -14.7519   23.6854 O   0  0  0  0  0  0  0  0  0  0  0  0
  -24.7798  -31.2655   19.5674 O   0  0  0  0  0  0  0  0  0  0  0  0
  -30.6649  -12.2303   21.7611 O   0  0  0  0  0  0  0  0  0  1  0  0
  -20.0717  -32.1990   22.2815 F   0  0  0  0  0  0  0  0  0  0  0  0
  -24.7661  -31.5930   22.3124 F   0  0  0  0  0  0  0  0  0  0  0  0
  -30.9885  -18.1768   21.1104 S   0  0  0  0  0  0  0  0  0  0  0  0
  1  2  1  0  0  0  0
  1  5  2  0  0  0  0
  2  6  2  0  0  0  0
  3  8  2  0  0  0  0
  3 16  1  0  0  0  0
  4  9  1  0  0  0  0
  4 16  2  0  0  0  0
  5 18  1  0  0  0  0
  6 20  1  0  0  0  0
  7 10  2  0  0  0  0
  7 19  1  0  0  0  0
  8 23  1  0  0  0  0
  9 23  2  0  0  0  0
 10 24  1  0  0  0  0
 11 12  2  0  0  0  0
 11 25  1  0  0  0  0
 12 26  1  0  0  0  0
 13 21  1  0  0  0  0
 13 24  2  0  0  0  0
 14 22  1  0  0  0  0
 14 30  2  0  0  0  0
 15 26  2  0  0  0  0
 15 27  1  0  0  0  0
 16 28  1  0  0  0  0
 17 28  1  0  0  0  0
 17 29  2  0  0  0  0
 17 32  1  0  0  0  0
 18 20  2  0  0  0  0
 18 37  1  0  0  0  0
 19 21  2  0  0  0  0
 19 38  1  0  0  0  0
 20 46  1  0  0  0  0
 21 39  1  0  0  0  0
 22 31  2  0  0  0  0
 22 49  1  0  0  0  0
 23 81  1  0  0  0  0
 24 82  1  0  0  0  0
 25 27  2  0  0  0  0
 25 81  1  0  0  0  0
 26 83  1  0  0  0  0
 27 84  1  0  0  0  0
 28 64  2  0  0  0  0
 29 65  1  0  0  0  0
 29 68  1  0  0  0  0
 30 71  1  0  0  0  0
 30 85  1  0  0  0  0
 31 70  1  0  0  0  0
 31 85  1  0  0  0  0
 32 69  1  0  0  0  0
 32 75  2  0  0  0  0
 33 47  1  0  0  0  0
 33 72  1  0  0  0  0
 33 76  2  0  0  0  0
 34 58  1  0  0  0  0
 34 66  1  0  0  0  0
 34 77  2  0  0  0  0
 35 59  1  0  0  0  0
 35 73  1  0  0  0  0
 35 78  2  0  0  0  0
 36 67  1  0  0  0  0
 36 70  1  0  0  0  0
 36 79  2  0  0  0  0
 37 40  1  0  0  0  0
 38 47  1  0  0  0  0
 39 66  1  0  0  0  0
 40 42  1  0  0  0  0
 41 43  1  0  0  0  0
 41 44  1  0  0  0  0
 42 46  1  0  0  0  0
 43 48  1  0  0  0  0
 44 67  1  0  0  0  0
 45 48  1  0  0  0  0
 45 67  1  0  0  0  0
 46 72  1  0  0  0  0
 47 66  1  0  0  0  0
 48 65  1  0  0  0  0
 50 59  1  0  0  0  0
 51 60  1  0  0  0  0
 52 61  1  0  0  0  0
 53 63  1  0  0  0  0
 54 63  1  0  0  0  0
 55 63  1  0  0  0  0
 56 74  1  0  0  0  0
 57 61  1  0  0  0  0
 57 62  1  0  0  0  0
 58 63  1  0  0  0  0
 58 73  1  0  0  0  0
 59 74  1  0  0  0  0
 60 62  1  0  0  0  0
 60 71  1  0  0  0  0
 61 82  1  0  0  0  0
 62 80  1  0  0  0  0
 64 65  1  0  0  0  0
M  CHG  1  74   1
M  ISO  4  36 100  61 101  70 100  82 101
M  END
> <Batch ID>
0188

> <Smiles>
CNC(C)C(=O)NC(C(=O)N1Cc2cc([101O:1][101CH:1](C)CC(O)C(C)Nc3cc(C)c([100NH:0][100C:0](=O)N4CCCC(n5nc(-c6ccc(Oc7ccc(F)cc7F)cc6)c(C(N)=O)c5N)C4)s3)ccc2CC1C(=O)NC1CCCc2ccccc21)C(C)(C)C

> <Shape>
0.215

> <Color>
0.055

> <Negative vol penalty>
0.000

$$$$

  -OEChem-04052305153D

 85 93  0     1  0  0  0  0  0999 V2000
  -29.5924  -33.0640   24.8928 C   0  0  0  0  0  0  0  0  0  0  0  0
  -29.3531  -31.7048   24.7171 C   0  0  0  0  0  0  0  0  0  0  0  0
  -22.9423   -9.9609   19.9805 C   0  0  0  0  0  0  0  0  0  0  0  0
  -23.7181   -9.9183   22.2681 C   0  0  0  0  0  0  0  0  0  0  0  0
  -28.5709  -33.9854   24.6660 C   0  0  0  0  0  0  0  0  0  0  0  0
  -28.0919  -31.2662   24.3156 C   0  0  0  0  0  0  0  0  0  0  0  0
  -28.3244  -27.7557   20.6732 C   0  0  0  0  0  0  0  0  0  0  0  0
  -22.1508   -8.8394   20.2280 C   0  0  0  0  0  0  0  0  0  0  0  0
  -22.9265   -8.7968   22.5157 C   0  0  0  0  0  0  0  0  0  0  0  0
  -28.6449  -26.4556   21.0614 C   0  0  0  0  0  0  0  0  0  0  0  0
  -23.0687   -5.4694   21.9333 C   0  0  0  0  0  0  0  0  0  0  0  0
  -23.6441   -4.4132   22.6395 C   0  0  0  0  0  0  0  0  0  0  0  0
  -26.3089  -25.8600   20.9741 C   0  0  0  0  0  0  0  0  0  0  0  0
  -21.9641   -4.6483   24.3598 C   0  0  0  0  0  0  0  0  0  0  0  0
  -30.1730  -17.6031   22.7778 C   0  0  0  0  0  0  0  0  0  0  0  0
  -23.7260  -10.5004   21.0005 C   0  0  0  0  0  0  0  0  0  0  0  0
  -24.1765  -13.0091   20.8954 C   0  0  0  0  0  0  0  0  0  0  0  0
  -27.2992  -33.5587   24.2521 C   0  0  0  0  0  0  0  0  0  0  0  0
  -26.9903  -28.1212   20.4426 C   0  0  0  0  0  0  0  0  0  0  0  0
  -27.0520  -32.1827   24.0843 C   0  0  0  0  0  0  0  0  0  0  0  0
  -25.9743  -27.1647   20.5805 C   0  0  0  0  0  0  0  0  0  0  0  0
  -22.1428   -8.2574   21.4956 C   0  0  0  0  0  0  0  0  0  0  0  0
  -27.6368  -25.5083   21.2148 C   0  0  0  0  0  0  0  0  0  0  0  0
  -21.9410   -6.1152   22.4403 C   0  0  0  0  0  0  0  0  0  0  0  0
  -23.0918   -4.0026   23.8528 C   0  0  0  0  0  0  0  0  0  0  0  0
  -21.3887   -5.7046   23.6536 C   0  0  0  0  0  0  0  0  0  0  0  0
  -24.5443  -11.6586   20.7453 C   0  0  0  0  0  0  0  0  0  0  0  0
  -25.2976  -13.7130   20.5292 C   0  0  0  0  0  0  0  0  0  0  0  0
  -30.7660  -16.6813   21.9620 C   0  0  0  0  0  0  0  0  0  0  0  0
  -32.2048  -18.3321   22.2869 C   0  0  0  0  0  0  0  0  0  0  0  0
  -22.9327  -13.5766   21.3273 C   0  0  0  0  0  0  0  0  0  0  0  0
  -24.9807  -30.2125   21.7433 C   0  0  0  0  0  0  0  0  0  0  0  0
  -23.0466  -29.2748   19.3138 C   0  0  0  0  0  0  0  0  0  0  0  0
  -22.2142  -26.8752   17.0343 C   0  0  0  0  0  0  0  0  0  0  0  0
  -29.7286  -20.1075   24.4626 C   0  0  0  0  0  0  0  0  0  0  0  0
  -30.8052  -14.5188   20.6704 C   0  0  0  0  0  0  0  0  0  0  0  0
  -26.2132  -34.5883   24.0650 C   0  0  0  0  0  0  0  0  0  0  0  0
  -26.6638  -29.5207   19.9985 C   0  0  0  0  0  0  0  0  0  0  0  0
  -24.5286  -27.5011   20.3254 C   0  0  0  0  0  0  0  0  0  0  0  0
  -25.0114  -34.0702   23.2792 C   0  0  0  0  0  0  0  0  0  0  0  0
  -29.5700  -12.1729   18.2938 C   0  0  0  0  0  0  0  0  0  0  0  0
  -24.5832  -32.7017   23.7995 C   0  0  0  0  0  0  0  0  0  0  0  0
  -28.1221  -11.9411   18.7321 C   0  0  0  0  0  0  0  0  0  0  0  0
  -30.5027  -12.3530   19.4902 C   0  0  0  0  0  0  0  0  0  0  0  0
  -28.6390  -13.1496   20.8906 C   0  0  0  0  0  0  0  0  0  0  0  0
  -25.7042  -31.6699   23.6257 C   0  0  1  0  0  0  0  0  0  0  0  0
  -25.2200  -29.9184   20.2894 C   0  0  1  0  0  0  0  0  0  0  0  0
  -27.6512  -13.0274   19.7189 C   0  0  2  0  0  0  0  0  0  0  0  0
  -33.4342  -19.1598   22.2164 C   0  0  0  0  0  0  0  0  0  0  0  0
  -20.5645  -26.3794   15.2095 C   0  0  0  0  0  0  0  0  0  0  0  0
  -20.9096  -28.6833   21.4098 C   0  0  0  0  0  0  0  0  0  0  0  0
  -19.6907  -27.3373   19.6861 C   0  0  0  0  0  0  0  0  0  0  0  0
  -20.0560  -29.7791   19.3301 C   0  0  0  0  0  0  0  0  0  0  0  0
  -24.3520  -26.6733   14.9976 C   0  0  0  0  0  0  0  0  0  0  0  0
  -28.8957  -22.8432   23.3006 C   0  0  0  0  0  0  0  0  0  0  0  0
  -30.0903  -22.6141   24.2284 C   0  0  0  0  0  0  0  0  0  0  0  0
  -29.0967  -24.0710   22.4226 C   0  0  0  0  0  0  0  0  0  1  0  0
  -22.0126  -28.1907   19.1279 C   0  0  1  0  0  0  0  0  0  0  0  0
  -21.9313  -26.9555   15.5450 C   0  0  2  0  0  0  0  0  0  0  0  0
  -29.8809  -21.4374   25.1813 C   0  0  1  0  0  0  0  0  0  0  0  0
  -20.6942  -28.4914   19.8953 C   0  0  0  0  0  0  0  0  0  0  0  0
  -25.8008  -11.5109   20.3169 N   0  0  0  0  0  0  0  0  0  0  0  0
  -31.0859  -18.6133   22.9625 N   0  0  0  0  0  0  0  0  0  0  0  0
  -26.2322  -12.7778   20.1947 N   0  0  0  0  0  0  0  0  0  0  0  0
  -32.0220  -17.1582   21.6737 N   0  3  0  0  0  0  0  0  0  0  0  0
  -24.2594  -28.8844   19.8992 N   0  0  0  0  0  0  0  0  0  0  0  0
  -29.9954  -13.4008   20.3788 N   0  0  0  0  0  0  0  0  0  0  0  0
  -25.5652  -15.0346   20.4638 N   0  0  0  0  0  0  0  0  0  0  0  0
  -21.8846  -12.7098   21.6658 N   0  0  0  0  0  0  0  0  0  0  0  0
  -30.2046  -15.4651   21.5000 N   0  0  0  0  0  0  0  0  0  0  0  0
  -25.7728  -31.2250   22.2503 N   0  0  0  0  0  0  0  0  0  0  0  0
  -21.8427  -28.0312   17.6878 N   0  0  0  0  0  0  0  0  0  0  0  0
  -30.8701  -19.7715   23.7463 N   0  0  0  0  0  0  0  0  0  0  0  0
  -22.9616  -26.1972   14.7805 N   0  3  0  0  0  0  0  0  0  0  0  0
  -22.7506  -14.8159   21.3949 O   0  0  0  0  0  0  0  0  0  0  0  0
  -24.1386  -29.5696   22.3592 O   0  0  0  0  0  0  0  0  0  0  0  0
  -22.7905  -30.4242   18.9464 O   0  0  0  0  0  0  0  0  0  0  0  0
  -22.7113  -25.8846   17.5655 O   0  0  0  0  0  0  0  0  0  0  0  0
  -28.6903  -19.4609   24.5660 O   0  0  0  0  0  0  0  0  0  0  0  0
  -31.9372  -14.6416   20.1956 O   0  0  0  0  0  0  0  0  0  0  0  0
  -21.3704   -7.1632   21.7375 O   0  0  0  0  0  0  0  0  0  0  0  0
  -27.9468  -24.2387   21.5943 O   0  0  0  0  0  0  0  0  0  1  0  0
  -23.6436   -2.9872   24.5301 F   0  0  0  0  0  0  0  0  0  0  0  0
  -20.3047   -6.3203   24.1451 F   0  0  0  0  0  0  0  0  0  0  0  0
  -28.7832  -21.6950   25.9487 F   0  0  0  0  0  0  0  0  0  0  0  0
  1  2  1  0  0  0  0
  1  5  2  0  0  0  0
  2  6  2  0  0  0  0
  3  8  2  0  0  0  0
  3 16  1  0  0  0  0
  4  9  1  0  0  0  0
  4 16  2  0  0  0  0
  5 18  1  0  0  0  0
  6 20  1  0  0  0  0
  7 10  2  0  0  0  0
  7 19  1  0  0  0  0
  8 22  1  0  0  0  0
  9 22  2  0  0  0  0
 10 23  1  0  0  0  0
 11 12  2  0  0  0  0
 11 24  1  0  0  0  0
 12 25  1  0  0  0  0
 13 21  1  0  0  0  0
 13 23  2  0  0  0  0
 14 25  2  0  0  0  0
 14 26  1  0  0  0  0
 15 29  2  0  0  0  0
 15 63  1  0  0  0  0
 16 27  1  0  0  0  0
 17 27  1  0  0  0  0
 17 28  2  0  0  0  0
 17 31  1  0  0  0  0
 18 20  2  0  0  0  0
 18 37  1  0  0  0  0
 19 21  2  0  0  0  0
 19 38  1  0  0  0  0
 20 46  1  0  0  0  0
 21 39  1  0  0  0  0
 22 81  1  0  0  0  0
 23 82  1  0  0  0  0
 24 26  2  0  0  0  0
 24 81  1  0  0  0  0
 25 83  1  0  0  0  0
 26 84  1  0  0  0  0
 27 62  2  0  0  0  0
 28 64  1  0  0  0  0
 28 68  1  0  0  0  0
 29 65  1  0  0  0  0
 29 70  1  0  0  0  0
 30 49  1  0  0  0  0
 30 63  1  0  0  0  0
 30 65  2  0  0  0  0
 31 69  1  0  0  0  0
 31 75  2  0  0  0  0
 32 47  1  0  0  0  0
 32 71  1  0  0  0  0
 32 76  2  0  0  0  0
 33 58  1  0  0  0  0
 33 66  1  0  0  0  0
 33 77  2  0  0  0  0
 34 59  1  0  0  0  0
 34 72  1  0  0  0  0
 34 78  2  0  0  0  0
 35 60  1  0  0  0  0
 35 73  1  0  0  0  0
 35 79  2  0  0  0  0
 36 67  1  0  0  0  0
 36 70  1  0  0  0  0
 36 80  2  0  0  0  0
 37 40  1  0  0  0  0
 38 47  1  0  0  0  0
 39 66  1  0  0  0  0
 40 42  1  0  0  0  0
 41 43  1  0  0  0  0
 41 44  1  0  0  0  0
 42 46  1  0  0  0  0
 43 48  1  0  0  0  0
 44 67  1  0  0  0  0
 45 48  1  0  0  0  0
 45 67  1  0  0  0  0
 46 71  1  0  0  0  0
 47 66  1  0  0  0  0
 48 64  1  0  0  0  0
 50 59  1  0  0  0  0
 51 61  1  0  0  0  0
 52 61  1  0  0  0  0
 53 61  1  0  0  0  0
 54 74  1  0  0  0  0
 55 56  1  0  0  0  0
 55 57  1  0  0  0  0
 56 60  1  0  0  0  0
 57 82  1  0  0  0  0
 58 61  1  0  0  0  0
 58 72  1  0  0  0  0
 59 74  1  0  0  0  0
 60 85  1  0  0  0  0
 62 64  1  0  0  0  0
 63 73  1  0  0  0  0
M  CHG  2  65   1  74   1
M  ISO  4  36 100  57 101  70 100  82 101
M  END
> <Batch ID>
0188

> <Smiles>
CNC(C)C(=O)NC(C(=O)N1Cc2cc([101O:1][101CH2:1]CCC(F)C(=O)Nn3cc([100NH:0][100C:0](=O)N4CCCC(n5nc(-c6ccc(Oc7ccc(F)cc7F)cc6)c(C(N)=O)c5N)C4)nc3C)ccc2CC1C(=O)NC1CCCc2ccccc21)C(C)(C)C

> <Shape>
0.334

> <Color>
0.209

> <Negative vol penalty>
0.000

$$$$

  -OEChem-04052305153D

 84 92  0     1  0  0  0  0  0999 V2000
  -17.0896  -31.2261   20.5747 C   0  0  0  0  0  0  0  0  0  0  0  0
  -18.4072  -31.5452   20.2623 C   0  0  0  0  0  0  0  0  0  0  0  0
  -26.0089  -15.0884   20.9198 C   0  0  0  0  0  0  0  0  0  0  0  0
  -27.7876  -14.4505   19.4143 C   0  0  0  0  0  0  0  0  0  0  0  0
  -16.8081  -30.4640   21.7078 C   0  0  0  0  0  0  0  0  0  0  0  0
  -19.4440  -31.1033   21.0834 C   0  0  0  0  0  0  0  0  0  0  0  0
  -25.0662  -29.4219   19.3315 C   0  0  0  0  0  0  0  0  0  0  0  0
  -25.6400  -13.7496   21.0512 C   0  0  0  0  0  0  0  0  0  0  0  0
  -27.4187  -13.1118   19.5457 C   0  0  0  0  0  0  0  0  0  0  0  0
  -26.2863  -30.0964   19.3207 C   0  0  0  0  0  0  0  0  0  0  0  0
  -23.9140  -11.4555   19.2673 C   0  0  0  0  0  0  0  0  0  0  0  0
  -22.5555  -11.1481   19.1934 C   0  0  0  0  0  0  0  0  0  0  0  0
  -26.8482  -29.1018   21.4454 C   0  0  0  0  0  0  0  0  0  0  0  0
  -22.6425  -10.2266   21.4251 C   0  0  0  0  0  0  0  0  0  0  0  0
  -29.8491  -26.5757   17.3994 C   0  0  0  0  0  0  0  0  0  0  0  0
  -27.0827  -15.4389   20.1013 C   0  0  0  0  0  0  0  0  0  0  0  0
  -28.3878  -17.5308   20.7555 C   0  0  0  0  0  0  0  0  0  0  0  0
  -17.8426  -30.0044   22.5380 C   0  0  0  0  0  0  0  0  0  0  0  0
  -24.7227  -28.5893   20.4064 C   0  0  0  0  0  0  0  0  0  0  0  0
  -19.1759  -30.3355   22.2294 C   0  0  0  0  0  0  0  0  0  0  0  0
  -25.6242  -28.4158   21.4662 C   0  0  0  0  0  0  0  0  0  0  0  0
  -26.3449  -12.7613   20.3641 C   0  0  0  0  0  0  0  0  0  0  0  0
  -27.1763  -29.9387   20.3791 C   0  0  0  0  0  0  0  0  0  0  0  0
  -24.6369  -11.1484   20.4201 C   0  0  0  0  0  0  0  0  0  0  0  0
  -21.9197  -10.5337   20.2722 C   0  0  0  0  0  0  0  0  0  0  0  0
  -24.0011  -10.5340   21.4990 C   0  0  0  0  0  0  0  0  0  0  0  0
  -27.4639  -16.8217   19.9647 C   0  0  0  0  0  0  0  0  0  0  0  0
  -30.5788  -24.4418   17.0208 C   0  0  0  0  0  0  0  0  0  0  0  0
  -30.3193  -26.5071   18.6924 C   0  0  0  0  0  0  0  0  0  0  0  0
  -31.0497  -24.3733   18.3135 C   0  0  0  0  0  0  0  0  0  0  0  0
  -28.3934  -18.7974   20.2242 C   0  0  0  0  0  0  0  0  0  0  0  0
  -29.1709  -17.0846   21.8705 C   0  0  0  0  0  0  0  0  0  0  0  0
  -22.4063  -28.5770   22.5831 C   0  0  0  0  0  0  0  0  0  0  0  0
  -23.7116  -25.7189   23.3891 C   0  0  0  0  0  0  0  0  0  0  0  0
  -26.4503  -23.6827   23.3931 C   0  0  0  0  0  0  0  0  0  0  0  0
  -29.5525  -28.8476   19.2149 C   0  0  0  0  0  0  0  0  0  0  0  0
  -28.4892  -22.2289   15.8241 C   0  0  0  0  0  0  0  0  0  0  0  0
  -17.4858  -29.2236   23.7780 C   0  0  0  0  0  0  0  0  0  0  0  0
  -23.4142  -27.8478   20.3903 C   0  0  0  0  0  0  0  0  0  0  0  0
  -25.3117  -27.5176   22.6342 C   0  0  0  0  0  0  0  0  0  0  0  0
  -18.6690  -28.4779   24.3897 C   0  0  0  0  0  0  0  0  0  0  0  0
  -25.3206  -20.9612   16.8386 C   0  0  0  0  0  0  0  0  0  0  0  0
  -19.8884  -29.3902   24.4754 C   0  0  0  0  0  0  0  0  0  0  0  0
  -25.6721  -19.8263   17.8022 C   0  0  0  0  0  0  0  0  0  0  0  0
  -26.3154  -21.0493   15.6835 C   0  0  0  0  0  0  0  0  0  0  0  0
  -28.0813  -20.0113   17.0538 C   0  0  0  0  0  0  0  0  0  0  0  0
  -20.3297  -29.8536   23.0818 C   0  0  1  0  0  0  0  0  0  0  0  0
  -22.9482  -27.4279   21.7809 C   0  0  1  0  0  0  0  0  0  0  0  0
  -27.1384  -19.9182   18.2656 C   0  0  2  0  0  0  0  0  0  0  0  0
  -27.7998  -21.5959   23.7418 C   0  0  0  0  0  0  0  0  0  0  0  0
  -30.7704  -30.7077   20.4050 C   0  0  0  0  0  0  0  0  0  0  0  0
  -23.9005  -26.7543   26.2530 C   0  0  0  0  0  0  0  0  0  0  0  0
  -25.4998  -24.8924   26.7467 C   0  0  0  0  0  0  0  0  0  0  0  0
  -23.1611  -24.3737   26.0510 C   0  0  0  0  0  0  0  0  0  0  0  0
  -25.7550  -22.6457   20.7098 C   0  0  0  0  0  0  0  0  0  0  0  0
  -30.7149  -23.2981   16.0733 C   0  0  0  0  0  0  0  0  0  0  0  0
  -24.7938  -25.2680   24.3402 C   0  0  1  0  0  0  0  0  0  0  0  0
  -26.6205  -22.2225   23.0143 C   0  0  2  0  0  0  0  0  0  0  0  0
  -29.5502  -29.7988   20.4089 C   0  0  1  0  0  0  0  0  0  1  0  0
  -24.3442  -25.3406   25.8268 C   0  0  0  0  0  0  0  0  0  0  0  0
  -29.9704  -25.5443   16.5404 N   0  0  0  0  0  0  0  0  0  0  0  0
  -26.9218  -17.5751   19.0043 N   0  0  0  0  0  0  0  0  0  0  0  0
  -30.9281  -25.4047   19.1726 N   0  0  0  0  0  0  0  0  0  0  0  0
  -27.5069  -18.7710   19.1881 N   0  0  0  0  0  0  0  0  0  0  0  0
  -24.0171  -26.8191   22.5753 N   0  0  0  0  0  0  0  0  0  0  0  0
  -27.6870  -21.1357   16.1907 N   0  0  0  0  0  0  0  0  0  0  0  0
  -31.6799  -23.1895   18.7577 N   0  0  0  0  0  0  0  0  0  0  0  0
  -29.0702  -19.9200   20.5470 N   0  0  0  0  0  0  0  0  0  0  0  0
  -29.0436  -15.7521   22.2858 N   0  0  0  0  0  0  0  0  0  0  0  0
  -30.1513  -27.6331   19.5331 N   0  0  0  0  0  0  0  0  0  0  0  0
  -21.0543  -28.7996   22.4047 N   0  0  0  0  0  0  0  0  0  0  0  0
  -25.1937  -23.9354   23.9013 N   0  0  0  0  0  0  0  0  0  0  0  0
  -29.7738  -22.2368   16.3538 N   0  0  0  0  0  0  0  0  0  0  0  0
  -26.8494  -22.0912   21.5476 N   0  3  0  0  0  0  0  0  0  0  0  0
  -29.9480  -17.8494   22.4908 O   0  0  0  0  0  0  0  0  0  0  0  0
  -23.1589  -29.2136   23.3111 O   0  0  0  0  0  0  0  0  0  0  0  0
  -22.6376  -25.1127   23.3638 O   0  0  0  0  0  0  0  0  0  0  0  0
  -27.3442  -24.5150   23.2557 O   0  0  0  0  0  0  0  0  0  0  0  0
  -29.0549  -29.1733   18.1409 O   0  0  0  0  0  0  0  0  0  0  0  0
  -28.0884  -23.1337   15.0841 O   0  0  0  0  0  0  0  0  0  0  0  0
  -25.9854  -11.4549   20.4923 O   0  0  0  0  0  0  0  0  0  0  0  0
  -28.3675  -30.5965   20.3714 O   0  0  0  0  0  0  0  0  0  1  0  0
  -20.6147  -10.2400   20.2017 F   0  0  0  0  0  0  0  0  0  0  0  0
  -24.6900  -10.2376   22.6096 F   0  0  0  0  0  0  0  0  0  0  0  0
  1  2  1  0  0  0  0
  1  5  2  0  0  0  0
  2  6  2  0  0  0  0
  3  8  2  0  0  0  0
  3 16  1  0  0  0  0
  4  9  1  0  0  0  0
  4 16  2  0  0  0  0
  5 18  1  0  0  0  0
  6 20  1  0  0  0  0
  7 10  2  0  0  0  0
  7 19  1  0  0  0  0
  8 22  1  0  0  0  0
  9 22  2  0  0  0  0
 10 23  1  0  0  0  0
 11 12  2  0  0  0  0
 11 24  1  0  0  0  0
 12 25  1  0  0  0  0
 13 21  1  0  0  0  0
 13 23  2  0  0  0  0
 14 25  2  0  0  0  0
 14 26  1  0  0  0  0
 15 29  1  0  0  0  0
 15 61  2  0  0  0  0
 16 27  1  0  0  0  0
 17 27  1  0  0  0  0
 17 31  2  0  0  0  0
 17 32  1  0  0  0  0
 18 20  2  0  0  0  0
 18 38  1  0  0  0  0
 19 21  2  0  0  0  0
 19 39  1  0  0  0  0
 20 47  1  0  0  0  0
 21 40  1  0  0  0  0
 22 81  1  0  0  0  0
 23 82  1  0  0  0  0
 24 26  2  0  0  0  0
 24 81  1  0  0  0  0
 25 83  1  0  0  0  0
 26 84  1  0  0  0  0
 27 62  2  0  0  0  0
 28 30  2  0  0  0  0
 28 56  1  0  0  0  0
 28 61  1  0  0  0  0
 29 63  2  0  0  0  0
 29 70  1  0  0  0  0
 30 63  1  0  0  0  0
 30 67  1  0  0  0  0
 31 64  1  0  0  0  0
 31 68  1  0  0  0  0
 32 69  1  0  0  0  0
 32 75  2  0  0  0  0
 33 48  1  0  0  0  0
 33 71  1  0  0  0  0
 33 76  2  0  0  0  0
 34 57  1  0  0  0  0
 34 65  1  0  0  0  0
 34 77  2  0  0  0  0
 35 58  1  0  0  0  0
 35 72  1  0  0  0  0
 35 78  2  0  0  0  0
 36 59  1  0  0  0  0
 36 70  1  0  0  0  0
 36 79  2  0  0  0  0
 37 66  1  0  0  0  0
 37 73  1  0  0  0  0
 37 80  2  0  0  0  0
 38 41  1  0  0  0  0
 39 48  1  0  0  0  0
 40 65  1  0  0  0  0
 41 43  1  0  0  0  0
 42 44  1  0  0  0  0
 42 45  1  0  0  0  0
 43 47  1  0  0  0  0
 44 49  1  0  0  0  0
 45 66  1  0  0  0  0
 46 49  1  0  0  0  0
 46 66  1  0  0  0  0
 47 71  1  0  0  0  0
 48 65  1  0  0  0  0
 49 64  1  0  0  0  0
 50 58  1  0  0  0  0
 51 59  1  0  0  0  0
 52 60  1  0  0  0  0
 53 60  1  0  0  0  0
 54 60  1  0  0  0  0
 55 74  1  0  0  0  0
 56 73  1  0  0  0  0
 57 60  1  0  0  0  0
 57 72  1  0  0  0  0
 58 74  1  0  0  0  0
 59 82  1  0  0  0  0
 62 64  1  0  0  0  0
M  CHG  1  74   1
M  ISO  4  37 100  59 101  73 100  82 101
M  END
> <Batch ID>
0188

> <Smiles>
CNC(C)C(=O)NC(C(=O)N1Cc2cc([101O:1][101CH:1](C)C(=O)Nc3cnc(C[100NH:0][100C:0](=O)N4CCCC(n5nc(-c6ccc(Oc7ccc(F)cc7F)cc6)c(C(N)=O)c5N)C4)c(N)n3)ccc2CC1C(=O)NC1CCCc2ccccc21)C(C)(C)C

> <Shape>
0.227

> <Color>
0.083

> <Negative vol penalty>
0.000

$$$$

  -OEChem-04052305153D

 78 85  0     1  0  0  0  0  0999 V2000
  -21.3691  -14.4280   25.6133 C   0  0  0  0  0  0  0  0  0  0  0  0
  -22.3139  -15.2985   25.0795 C   0  0  0  0  0  0  0  0  0  0  0  0
  -22.9984   -9.8968   19.9864 C   0  0  0  0  0  0  0  0  0  0  0  0
  -23.7584   -9.9382   22.2794 C   0  0  0  0  0  0  0  0  0  0  0  0
  -20.1656  -14.9268   26.1101 C   0  0  0  0  0  0  0  0  0  0  0  0
  -22.0554  -16.6682   25.0411 C   0  0  0  0  0  0  0  0  0  0  0  0
  -26.0212  -19.4366   26.5422 C   0  0  0  0  0  0  0  0  0  0  0  0
  -22.2400   -8.7582   20.2583 C   0  0  0  0  0  0  0  0  0  0  0  0
  -22.9999   -8.7996   22.5513 C   0  0  0  0  0  0  0  0  0  0  0  0
  -27.0572  -19.6139   25.6262 C   0  0  0  0  0  0  0  0  0  0  0  0
  -23.2486   -5.4640   22.0579 C   0  0  0  0  0  0  0  0  0  0  0  0
  -23.8510   -4.4450   22.7955 C   0  0  0  0  0  0  0  0  0  0  0  0
  -26.2010  -21.8046   25.0909 C   0  0  0  0  0  0  0  0  0  0  0  0
  -22.1520   -4.6729   24.4980 C   0  0  0  0  0  0  0  0  0  0  0  0
  -23.7577  -10.4868   20.9969 C   0  0  0  0  0  0  0  0  0  0  0  0
  -24.1316  -13.0046   20.8285 C   0  0  0  0  0  0  0  0  0  0  0  0
  -19.8962  -16.3043   26.0867 C   0  0  0  0  0  0  0  0  0  0  0  0
  -25.0594  -20.4393   26.7318 C   0  0  0  0  0  0  0  0  0  0  0  0
  -20.8466  -17.1857   25.5369 C   0  0  0  0  0  0  0  0  0  0  0  0
  -25.1552  -21.6387   26.0118 C   0  0  0  0  0  0  0  0  0  0  0  0
  -22.2407   -8.2096   21.5407 C   0  0  0  0  0  0  0  0  0  0  0  0
  -27.1456  -20.7968   24.8983 C   0  0  0  0  0  0  0  0  0  0  0  0
  -22.0979   -6.0876   22.5403 C   0  0  0  0  0  0  0  0  0  0  0  0
  -23.3028   -4.0494   24.0156 C   0  0  0  0  0  0  0  0  0  0  0  0
  -21.5496   -5.6921   23.7604 C   0  0  0  0  0  0  0  0  0  0  0  0
  -24.5419  -11.6626   20.7165 C   0  0  0  0  0  0  0  0  0  0  0  0
  -25.2332  -13.7330   20.4511 C   0  0  0  0  0  0  0  0  0  0  0  0
  -22.8678  -13.5445   21.2372 C   0  0  0  0  0  0  0  0  0  0  0  0
  -21.9123  -20.6336   26.3301 C   0  0  0  0  0  0  0  0  0  0  0  0
  -30.7495  -14.6209   20.7193 C   0  0  0  0  0  0  0  0  0  0  0  0
  -22.3072  -23.5403   27.7149 C   0  0  0  0  0  0  0  0  0  0  0  0
  -24.3835  -26.1551   28.4210 C   0  0  0  0  0  0  0  0  0  0  0  0
  -31.0606  -16.7751   21.9908 C   0  0  0  0  0  0  0  0  0  0  0  0
  -18.5614  -16.7916   26.5922 C   0  0  0  0  0  0  0  0  0  0  0  0
  -23.9634  -20.2435   27.7432 C   0  0  0  0  0  0  0  0  0  0  0  0
  -24.1597  -22.7542   26.1932 C   0  0  0  0  0  0  0  0  0  0  0  0
  -18.5221  -18.2946   26.8568 C   0  0  0  0  0  0  0  0  0  0  0  0
  -29.5555  -12.2919   18.2719 C   0  0  0  0  0  0  0  0  0  0  0  0
  -19.1391  -19.0584   25.6894 C   0  0  0  0  0  0  0  0  0  0  0  0
  -28.1213  -12.0078   18.7163 C   0  0  0  0  0  0  0  0  0  0  0  0
  -30.4785  -12.5058   19.4674 C   0  0  0  0  0  0  0  0  0  0  0  0
  -28.5847  -13.2914   20.8523 C   0  0  0  0  0  0  0  0  0  0  0  0
  -20.6132  -18.6805   25.5004 C   0  0  1  0  0  0  0  0  0  0  0  0
  -22.7447  -21.1230   27.4814 C   0  0  1  0  0  0  0  0  0  0  0  0
  -27.6130  -13.0996   19.6745 C   0  0  2  0  0  0  0  0  0  0  0  0
  -24.4105  -28.4042   29.5338 C   0  0  0  0  0  0  0  0  0  0  0  0
  -30.9013  -21.5205   23.1607 C   0  0  0  0  0  0  0  0  0  0  0  0
  -20.8494  -24.7409   25.3184 C   0  0  0  0  0  0  0  0  0  0  0  0
  -21.7300  -26.9848   25.9952 C   0  0  0  0  0  0  0  0  0  0  0  0
  -20.2147  -25.7277   27.5270 C   0  0  0  0  0  0  0  0  0  0  0  0
  -26.4202  -25.2877   30.3852 C   0  0  0  0  0  0  0  0  0  0  0  0
  -30.1341  -15.6408   21.6441 C   0  0  0  0  0  0  0  0  0  0  0  0
  -29.0895  -19.9029   23.8601 C   0  0  0  0  0  0  0  0  0  1  0  0
  -31.0721  -19.0711   22.5601 C   0  0  0  0  0  0  0  0  0  0  0  0
  -22.5944  -24.9342   27.2114 C   0  0  1  0  0  0  0  0  0  0  0  0
  -24.6472  -26.9123   29.7100 C   0  0  2  0  0  0  0  0  0  0  0  0
  -30.1243  -20.2524   22.7867 C   0  0  2  0  0  0  0  0  0  0  0  0
  -21.3649  -25.5753   26.5079 C   0  0  0  0  0  0  0  0  0  0  0  0
  -25.8054  -11.5427   20.3004 N   0  0  0  0  0  0  0  0  0  0  0  0
  -26.1986  -12.8187   20.1476 N   0  0  0  0  0  0  0  0  0  0  0  0
  -23.1027  -22.5125   27.1891 N   0  0  0  0  0  0  0  0  0  0  0  0
  -29.9495  -13.5344   20.3649 N   0  0  0  0  0  0  0  0  0  0  0  0
  -25.4605  -15.0601   20.3526 N   0  0  0  0  0  0  0  0  0  0  0  0
  -21.8444  -12.6549   21.5916 N   0  0  0  0  0  0  0  0  0  0  0  0
  -21.4362  -19.3460   26.4874 N   0  0  0  0  0  0  0  0  0  0  0  0
  -23.0873  -25.6890   28.3585 N   0  0  0  0  0  0  0  0  0  0  0  0
  -26.0561  -26.7088   30.1513 N   0  3  0  0  0  0  0  0  0  0  0  0
  -22.6472  -14.7788   21.2708 O   0  0  0  0  0  0  0  0  0  0  0  0
  -21.7152  -21.3703   25.3709 O   0  0  0  0  0  0  0  0  0  0  0  0
  -31.9056  -14.7882   20.3225 O   0  0  0  0  0  0  0  0  0  0  0  0
  -21.4147  -23.3707   28.5494 O   0  0  0  0  0  0  0  0  0  0  0  0
  -25.2404  -25.9964   27.5544 O   0  0  0  0  0  0  0  0  0  0  0  0
  -32.2794  -16.6889   22.0541 O   0  0  0  0  0  0  0  0  0  0  0  0
  -21.5005   -7.0987   21.8064 O   0  0  0  0  0  0  0  0  0  0  0  0
  -28.1554  -20.9722   24.0031 O   0  0  0  0  0  0  0  0  0  1  0  0
  -30.3273  -17.9089   22.2206 O   0  0  0  0  0  0  0  0  0  0  0  0
  -23.8805   -3.0697   24.7231 F   0  0  0  0  0  0  0  0  0  0  0  0
  -20.4436   -6.2866   24.2284 F   0  0  0  0  0  0  0  0  0  0  0  0
  1  2  1  0  0  0  0
  1  5  2  0  0  0  0
  2  6  2  0  0  0  0
  3  8  2  0  0  0  0
  3 15  1  0  0  0  0
  4  9  1  0  0  0  0
  4 15  2  0  0  0  0
  5 17  1  0  0  0  0
  6 19  1  0  0  0  0
  7 10  2  0  0  0  0
  7 18  1  0  0  0  0
  8 21  1  0  0  0  0
  9 21  2  0  0  0  0
 10 22  1  0  0  0  0
 11 12  2  0  0  0  0
 11 23  1  0  0  0  0
 12 24  1  0  0  0  0
 13 20  1  0  0  0  0
 13 22  2  0  0  0  0
 14 24  2  0  0  0  0
 14 25  1  0  0  0  0
 15 26  1  0  0  0  0
 16 26  1  0  0  0  0
 16 27  2  0  0  0  0
 16 28  1  0  0  0  0
 17 19  2  0  0  0  0
 17 34  1  0  0  0  0
 18 20  2  0  0  0  0
 18 35  1  0  0  0  0
 19 43  1  0  0  0  0
 20 36  1  0  0  0  0
 21 74  1  0  0  0  0
 22 75  1  0  0  0  0
 23 25  2  0  0  0  0
 23 74  1  0  0  0  0
 24 77  1  0  0  0  0
 25 78  1  0  0  0  0
 26 59  2  0  0  0  0
 27 60  1  0  0  0  0
 27 63  1  0  0  0  0
 28 64  1  0  0  0  0
 28 68  2  0  0  0  0
 29 44  1  0  0  0  0
 29 65  1  0  0  0  0
 29 69  2  0  0  0  0
 30 52  1  0  0  0  0
 30 62  1  0  0  0  0
 30 70  2  0  0  0  0
 31 55  1  0  0  0  0
 31 61  1  0  0  0  0
 31 71  2  0  0  0  0
 32 56  1  0  0  0  0
 32 66  1  0  0  0  0
 32 72  2  0  0  0  0
 33 52  1  0  0  0  0
 33 73  2  0  0  0  0
 33 76  1  0  0  0  0
 34 37  1  0  0  0  0
 35 44  1  0  0  0  0
 36 61  1  0  0  0  0
 37 39  1  0  0  0  0
 38 40  1  0  0  0  0
 38 41  1  0  0  0  0
 39 43  1  0  0  0  0
 40 45  1  0  0  0  0
 41 62  1  0  0  0  0
 42 45  1  0  0  0  0
 42 62  1  0  0  0  0
 43 65  1  0  0  0  0
 44 61  1  0  0  0  0
 45 60  1  0  0  0  0
 46 56  1  0  0  0  0
 47 57  1  0  0  0  0
 48 58  1  0  0  0  0
 49 58  1  0  0  0  0
 50 58  1  0  0  0  0
 51 67  1  0  0  0  0
 53 57  1  0  0  0  0
 53 75  1  0  0  0  0
 54 57  1  0  0  0  0
 54 76  1  0  0  0  0
 55 58  1  0  0  0  0
 55 66  1  0  0  0  0
 56 67  1  0  0  0  0
 59 60  1  0  0  0  0
M  CHG  1  67   1
M  ISO  4  30 100  52 100  53 101  75 101
M  END
> <Batch ID>
0188

> <Smiles>
CNC(C)C(=O)NC(C(=O)N1Cc2cc([101O:1][101CH2:1]C(C)COC(=O)[100CH2:0][100C:0](=O)N3CCCC(n4nc(-c5ccc(Oc6ccc(F)cc6F)cc5)c(C(N)=O)c4N)C3)ccc2CC1C(=O)NC1CCCc2ccccc21)C(C)(C)C

> <Shape>
0.180

> <Color>
0.200

> <Negative vol penalty>
0.000

$$$$

  -OEChem-04052305153D

 85 93  0     1  0  0  0  0  0999 V2000
  -31.0561  -14.8364   12.3961 C   0  0  0  0  0  0  0  0  0  0  0  0
  -31.2319  -14.6215   13.7592 C   0  0  0  0  0  0  0  0  0  0  0  0
  -26.6445  -28.6176   18.9490 C   0  0  0  0  0  0  0  0  0  0  0  0
  -26.1318  -27.3240   20.9240 C   0  0  0  0  0  0  0  0  0  0  0  0
  -29.9946  -15.6205   11.9464 C   0  0  0  0  0  0  0  0  0  0  0  0
  -30.3469  -15.1915   14.6737 C   0  0  0  0  0  0  0  0  0  0  0  0
  -28.9082  -11.9341   18.2743 C   0  0  0  0  0  0  0  0  0  0  0  0
  -25.5270  -29.4187   19.1835 C   0  0  0  0  0  0  0  0  0  0  0  0
  -25.0143  -28.1251   21.1586 C   0  0  0  0  0  0  0  0  0  0  0  0
  -29.8097  -11.6905   19.3096 C   0  0  0  0  0  0  0  0  0  0  0  0
  -24.3690  -31.1815   22.4479 C   0  0  0  0  0  0  0  0  0  0  0  0
  -24.1551  -31.6268   23.7523 C   0  0  0  0  0  0  0  0  0  0  0  0
  -28.5902  -13.2185   20.7229 C   0  0  0  0  0  0  0  0  0  0  0  0
  -22.0176  -30.5011   23.7860 C   0  0  0  0  0  0  0  0  0  0  0  0
  -29.3279  -18.7529   21.8204 C   0  0  0  0  0  0  0  0  0  0  0  0
  -26.9469  -27.5702   19.8192 C   0  0  0  0  0  0  0  0  0  0  0  0
  -29.4099  -26.9481   20.0521 C   0  0  0  0  0  0  0  0  0  0  0  0
  -29.0904  -16.1925   12.8552 C   0  0  0  0  0  0  0  0  0  0  0  0
  -27.8455  -12.8316   18.4523 C   0  0  0  0  0  0  0  0  0  0  0  0
  -29.2731  -15.9851   14.2358 C   0  0  0  0  0  0  0  0  0  0  0  0
  -27.6752  -13.4698   19.6891 C   0  0  0  0  0  0  0  0  0  0  0  0
  -24.7119  -29.1725   20.2883 C   0  0  0  0  0  0  0  0  0  0  0  0
  -29.6524  -12.3349   20.5332 C   0  0  0  0  0  0  0  0  0  0  0  0
  -23.4072  -30.3961   21.8125 C   0  0  0  0  0  0  0  0  0  0  0  0
  -22.9794  -31.2866   24.4214 C   0  0  0  0  0  0  0  0  0  0  0  0
  -22.2316  -30.0558   22.4815 C   0  0  0  0  0  0  0  0  0  0  0  0
  -28.1008  -26.7420   19.5771 C   0  0  0  0  0  0  0  0  0  0  0  0
  -29.6885  -18.9217   20.5000 C   0  0  0  0  0  0  0  0  0  0  0  0
  -30.1285  -25.8918   19.5478 C   0  0  0  0  0  0  0  0  0  0  0  0
  -30.7496  -17.0432   20.8939 C   0  0  0  0  0  0  0  0  0  0  0  0
  -29.9299  -28.0003   20.8758 C   0  0  0  0  0  0  0  0  0  0  0  0
  -26.9719  -15.5708   17.0969 C   0  0  0  0  0  0  0  0  0  0  0  0
  -32.6899  -13.7512   22.4588 C   0  0  0  0  0  0  0  0  0  0  0  0
  -24.3456  -15.2074   18.9658 C   0  0  0  0  0  0  0  0  0  0  0  0
  -22.9468  -13.8418   21.7632 C   0  0  0  0  0  0  0  0  0  0  0  0
  -29.5833  -20.2636   18.3705 C   0  0  0  0  0  0  0  0  0  0  0  0
  -27.9858  -17.0716   12.3244 C   0  0  0  0  0  0  0  0  0  0  0  0
  -26.8663  -13.0631   17.3344 C   0  0  0  0  0  0  0  0  0  0  0  0
  -26.5391  -14.4269   19.9378 C   0  0  0  0  0  0  0  0  0  0  0  0
  -26.8739  -17.3313   13.3375 C   0  0  0  0  0  0  0  0  0  0  0  0
  -29.5017  -22.7243   15.7984 C   0  0  0  0  0  0  0  0  0  0  0  0
  -27.4640  -17.7067   14.6932 C   0  0  0  0  0  0  0  0  0  0  0  0
  -29.2602  -24.0322   16.5555 C   0  0  0  0  0  0  0  0  0  0  0  0
  -28.7393  -21.5577   16.4242 C   0  0  0  0  0  0  0  0  0  0  0  0
  -28.7253  -22.6755   18.6195 C   0  0  0  0  0  0  0  0  0  0  0  0
  -28.3196  -16.5661   15.2574 C   0  0  1  0  0  0  0  0  0  0  0  0
  -26.1195  -14.3876   17.4589 C   0  0  1  0  0  0  0  0  0  0  0  0
  -29.5238  -23.8665   18.0650 C   0  0  2  0  0  0  0  0  0  0  0  0
  -32.5573  -11.5316   23.5905 C   0  0  0  0  0  0  0  0  0  0  0  0
  -20.7920  -13.7549   23.0465 C   0  0  0  0  0  0  0  0  0  0  0  0
  -24.8721  -18.0160   20.0355 C   0  0  0  0  0  0  0  0  0  0  0  0
  -23.3204  -17.5086   21.9337 C   0  0  0  0  0  0  0  0  0  0  0  0
  -22.4651  -17.5035   19.5904 C   0  0  0  0  0  0  0  0  0  0  0  0
  -22.7251  -10.9108   21.4183 C   0  0  0  0  0  0  0  0  0  0  0  0
  -33.8629  -16.8594   20.5503 C   0  0  0  0  0  0  0  0  0  0  0  0
  -31.6020  -15.8254   20.6908 C   0  0  0  0  0  0  0  0  0  0  0  0
  -33.5812  -14.6192   21.6011 C   0  0  0  0  0  0  0  0  0  0  0  0
  -31.8697  -11.7667   21.1788 C   0  0  0  0  0  0  0  0  0  1  0  0
  -32.8293  -12.2418   22.2678 C   0  0  1  0  0  0  0  0  0  0  0  0
  -23.9646  -15.6217   20.3666 C   0  0  1  0  0  0  0  0  0  0  0  0
  -21.6436  -13.0925   21.9747 C   0  0  2  0  0  0  0  0  0  0  0  0
  -23.6782  -17.1459   20.4765 C   0  0  0  0  0  0  0  0  0  0  0  0
  -27.9914  -25.6414   18.8283 N   0  0  0  0  0  0  0  0  0  0  0  0
  -30.5040  -17.9426   19.9671 N   0  0  0  0  0  0  0  0  0  0  0  0
  -29.2408  -25.1465   18.8290 N   0  0  0  0  0  0  0  0  0  0  0  0
  -25.6117  -14.6251   18.8117 N   0  0  0  0  0  0  0  0  0  0  0  0
  -29.0416  -21.4596   17.8538 N   0  0  0  0  0  0  0  0  0  0  0  0
  -31.4267  -25.5372   19.6534 N   0  0  0  0  0  0  0  0  0  0  0  0
  -29.0542  -29.0063   21.3065 N   0  0  0  0  0  0  0  0  0  0  0  0
  -29.2671  -20.0172   19.7061 N   0  0  0  0  0  0  0  0  0  0  0  0
  -27.4767  -15.5282   15.8113 N   0  0  0  0  0  0  0  0  0  0  0  0
  -22.8420  -14.7734   20.7521 N   0  0  0  0  0  0  0  0  0  0  0  0
  -21.9156  -11.6879   22.3919 N   0  3  0  0  0  0  0  0  0  0  0  0
  -32.9610  -15.9402   21.3376 N   0  3  1  0  0  0  0  0  0  0  0  0
  -31.1387  -28.0558   21.2060 O   0  0  0  0  0  0  0  0  0  0  0  0
  -27.1567  -16.4575   17.9224 O   0  0  0  0  0  0  0  0  0  0  0  0
  -31.8797  -14.2282   23.2538 O   0  0  0  0  0  0  0  0  0  0  0  0
  -23.5463  -15.3871   18.0436 O   0  0  0  0  0  0  0  0  0  0  0  0
  -23.9556  -13.6252   22.4309 O   0  0  0  0  0  0  0  0  0  0  0  0
  -30.2990  -19.5270   17.6871 O   0  0  0  0  0  0  0  0  0  0  0  0
  -23.6215  -29.9541   20.5177 O   0  0  0  0  0  0  0  0  0  0  0  0
  -30.5313  -12.0995   21.5452 O   0  0  0  0  0  0  0  0  0  1  0  0
  -22.7747  -31.7130   25.6745 F   0  0  0  0  0  0  0  0  0  0  0  0
  -21.3045  -29.3005   21.8767 F   0  0  0  0  0  0  0  0  0  0  0  0
  -30.0312  -17.3120   22.4291 S   0  0  0  0  0  0  0  0  0  0  0  0
  1  2  1  0  0  0  0
  1  5  2  0  0  0  0
  2  6  2  0  0  0  0
  3  8  2  0  0  0  0
  3 16  1  0  0  0  0
  4  9  1  0  0  0  0
  4 16  2  0  0  0  0
  5 18  1  0  0  0  0
  6 20  1  0  0  0  0
  7 10  2  0  0  0  0
  7 19  1  0  0  0  0
  8 22  1  0  0  0  0
  9 22  2  0  0  0  0
 10 23  1  0  0  0  0
 11 12  2  0  0  0  0
 11 24  1  0  0  0  0
 12 25  1  0  0  0  0
 13 21  1  0  0  0  0
 13 23  2  0  0  0  0
 14 25  2  0  0  0  0
 14 26  1  0  0  0  0
 15 28  2  0  0  0  0
 15 85  1  0  0  0  0
 16 27  1  0  0  0  0
 17 27  1  0  0  0  0
 17 29  2  0  0  0  0
 17 31  1  0  0  0  0
 18 20  2  0  0  0  0
 18 37  1  0  0  0  0
 19 21  2  0  0  0  0
 19 38  1  0  0  0  0
 20 46  1  0  0  0  0
 21 39  1  0  0  0  0
 22 81  1  0  0  0  0
 23 82  1  0  0  0  0
 24 26  2  0  0  0  0
 24 81  1  0  0  0  0
 25 83  1  0  0  0  0
 26 84  1  0  0  0  0
 27 63  2  0  0  0  0
 28 64  1  0  0  0  0
 28 70  1  0  0  0  0
 29 65  1  0  0  0  0
 29 68  1  0  0  0  0
 30 56  1  0  0  0  0
 30 64  2  0  0  0  0
 30 85  1  0  0  0  0
 31 69  1  0  0  0  0
 31 75  2  0  0  0  0
 32 47  1  0  0  0  0
 32 71  1  0  0  0  0
 32 76  2  0  0  0  0
 33 57  1  0  0  0  0
 33 59  1  0  0  0  0
 33 77  2  0  0  0  0
 34 60  1  0  0  0  0
 34 66  1  0  0  0  0
 34 78  2  0  0  0  0
 35 61  1  0  0  0  0
 35 72  1  0  0  0  0
 35 79  2  0  0  0  0
 36 67  1  0  0  0  0
 36 70  1  0  0  0  0
 36 80  2  0  0  0  0
 37 40  1  0  0  0  0
 38 47  1  0  0  0  0
 39 66  1  0  0  0  0
 40 42  1  0  0  0  0
 41 43  1  0  0  0  0
 41 44  1  0  0  0  0
 42 46  1  0  0  0  0
 43 48  1  0  0  0  0
 44 67  1  0  0  0  0
 45 48  1  0  0  0  0
 45 67  1  0  0  0  0
 46 71  1  0  0  0  0
 47 66  1  0  0  0  0
 48 65  1  0  0  0  0
 49 59  1  0  0  0  0
 50 61  1  0  0  0  0
 51 62  1  0  0  0  0
 52 62  1  0  0  0  0
 53 62  1  0  0  0  0
 54 73  1  0  0  0  0
 55 74  1  0  0  0  0
 56 74  1  0  0  0  0
 57 74  1  0  0  0  0
 58 59  1  0  0  0  0
 58 82  1  0  0  0  0
 60 62  1  0  0  0  0
 60 72  1  0  0  0  0
 61 73  1  0  0  0  0
 63 65  1  0  0  0  0
M  CHG  2  73   1  74   1
M  ISO  4  36 100  58 101  70 100  82 101
M  END
> <Batch ID>
0188

> <Smiles>
CNC(C)C(=O)NC(C(=O)N1Cc2cc([101O:1][101CH2:1]C(C)C(=O)CN(C)Cc3nc([100NH:0][100C:0](=O)N4CCCC(n5nc(-c6ccc(Oc7ccc(F)cc7F)cc6)c(C(N)=O)c5N)C4)cs3)ccc2CC1C(=O)NC1CCCc2ccccc21)C(C)(C)C

> <Shape>
0.263

> <Color>
0.066

> <Negative vol penalty>
0.000

$$$$

  -OEChem-04052305153D

 84 92  0     1  0  0  0  0  0999 V2000
  -25.3194  -19.9123   16.8746 C   0  0  0  0  0  0  0  0  0  0  0  0
  -24.7169  -21.0780   17.3367 C   0  0  0  0  0  0  0  0  0  0  0  0
  -25.0368  -16.7778   23.3346 C   0  0  0  0  0  0  0  0  0  0  0  0
  -25.8344  -18.1556   21.5173 C   0  0  0  0  0  0  0  0  0  0  0  0
  -26.5530  -19.5153   17.3890 C   0  0  0  0  0  0  0  0  0  0  0  0
  -25.3472  -21.8469   18.3144 C   0  0  0  0  0  0  0  0  0  0  0  0
  -25.2389  -27.9478   18.8369 C   0  0  0  0  0  0  0  0  0  0  0  0
  -25.4629  -15.6361   22.6561 C   0  0  0  0  0  0  0  0  0  0  0  0
  -26.2606  -17.0139   20.8387 C   0  0  0  0  0  0  0  0  0  0  0  0
  -24.4802  -28.8080   19.6293 C   0  0  0  0  0  0  0  0  0  0  0  0
  -24.3693  -13.6973   20.1125 C   0  0  0  0  0  0  0  0  0  0  0  0
  -23.4980  -12.6092   20.0656 C   0  0  0  0  0  0  0  0  0  0  0  0
  -26.2669  -28.8829   21.2483 C   0  0  0  0  0  0  0  0  0  0  0  0
  -25.1422  -11.2439   21.1924 C   0  0  0  0  0  0  0  0  0  0  0  0
  -25.2225  -18.0376   22.7653 C   0  0  0  0  0  0  0  0  0  0  0  0
  -25.5243  -19.9912   24.3777 C   0  0  0  0  0  0  0  0  0  0  0  0
  -27.2033  -20.2849   18.3666 C   0  0  0  0  0  0  0  0  0  0  0  0
  -26.5152  -27.5393   19.2501 C   0  0  0  0  0  0  0  0  0  0  0  0
  -26.5900  -21.4592   18.8434 C   0  0  0  0  0  0  0  0  0  0  0  0
  -27.0409  -28.0195   20.4580 C   0  0  0  0  0  0  0  0  0  0  0  0
  -26.0748  -15.7541   21.4081 C   0  0  0  0  0  0  0  0  0  0  0  0
  -24.9929  -29.2735   20.8366 C   0  0  0  0  0  0  0  0  0  0  0  0
  -25.6272  -13.5587   20.6993 C   0  0  0  0  0  0  0  0  0  0  0  0
  -23.8843  -11.3825   20.6056 C   0  0  0  0  0  0  0  0  0  0  0  0
  -26.0136  -12.3321   21.2393 C   0  0  0  0  0  0  0  0  0  0  0  0
  -17.9543  -27.3867   22.5828 C   0  0  0  0  0  0  0  0  0  0  0  0
  -24.7821  -19.2173   23.4655 C   0  0  0  0  0  0  0  0  0  0  0  0
  -18.9122  -26.5815   22.0012 C   0  0  0  0  0  0  0  0  0  0  0  0
  -18.4197  -28.5589   23.1429 C   0  0  0  0  0  0  0  0  0  0  0  0
  -24.6642  -20.9923   24.7580 C   0  0  0  0  0  0  0  0  0  0  0  0
  -20.5540  -28.0571   22.5431 C   0  0  0  0  0  0  0  0  0  0  0  0
  -26.8707  -19.8205   24.8398 C   0  0  0  0  0  0  0  0  0  0  0  0
  -27.8561  -24.7461   19.9596 C   0  0  0  0  0  0  0  0  0  0  0  0
  -30.5539  -26.5355   20.1662 C   0  0  0  0  0  0  0  0  0  0  0  0
  -31.9654  -29.6009   20.6733 C   0  0  0  0  0  0  0  0  0  0  0  0
  -20.0498  -23.4623   22.0265 C   0  0  0  0  0  0  0  0  0  0  0  0
  -28.5134  -19.7904   18.9267 C   0  0  0  0  0  0  0  0  0  0  0  0
  -27.3318  -26.6322   18.3711 C   0  0  0  0  0  0  0  0  0  0  0  0
  -28.4139  -27.6271   20.9370 C   0  0  0  0  0  0  0  0  0  0  0  0
  -29.2914  -20.8591   19.6902 C   0  0  0  0  0  0  0  0  0  0  0  0
  -19.9995  -21.9171   25.2987 C   0  0  0  0  0  0  0  0  0  0  0  0
  -28.3701  -21.6085   20.6475 C   0  0  0  0  0  0  0  0  0  0  0  0
  -21.3043  -21.1190   25.2782 C   0  0  0  0  0  0  0  0  0  0  0  0
  -19.3213  -21.9030   23.9319 C   0  0  0  0  0  0  0  0  0  0  0  0
  -21.4836  -21.5910   22.7913 C   0  0  0  0  0  0  0  0  0  0  0  0
  -27.2541  -22.3330   19.8853 C   0  0  1  0  0  0  0  0  0  0  0  0
  -28.4118  -25.8729   19.1355 C   0  0  1  0  0  0  0  0  0  0  0  0
  -22.2289  -21.5858   24.1383 C   0  0  2  0  0  0  0  0  0  0  0  0
  -34.1951  -30.7429   20.8208 C   0  0  0  0  0  0  0  0  0  0  0  0
  -24.5700  -30.6377   23.9130 C   0  0  0  0  0  0  0  0  0  0  0  0
  -30.9633  -25.3701   22.9562 C   0  0  0  0  0  0  0  0  0  0  0  0
  -32.6051  -27.2060   23.4061 C   0  0  0  0  0  0  0  0  0  0  0  0
  -33.0481  -25.5571   21.5875 C   0  0  0  0  0  0  0  0  0  0  0  0
  -31.3480  -31.3578   18.3731 C   0  0  0  0  0  0  0  0  0  0  0  0
  -18.5080  -25.2920   21.3690 C   0  0  0  0  0  0  0  0  0  0  0  0
  -22.4170  -29.6209   23.0997 C   0  0  0  0  0  0  0  0  0  0  0  0
  -31.2467  -27.3019   21.2668 C   0  0  1  0  0  0  0  0  0  0  0  0
  -33.0409  -30.3533   19.9105 C   0  0  2  0  0  0  0  0  0  0  0  0
  -23.9337  -29.6664   22.9294 C   0  0  1  0  0  0  0  0  0  1  0  0
  -31.9391  -26.3648   22.2963 C   0  0  0  0  0  0  0  0  0  0  0  0
  -23.5457  -19.6864   23.2778 N   0  0  0  0  0  0  0  0  0  0  0  0
  -20.2258  -26.8870   21.9632 N   0  0  0  0  0  0  0  0  0  0  0  0
  -19.7177  -28.9269   23.1412 N   0  0  0  0  0  0  0  0  0  0  0  0
  -23.5042  -20.7658   24.0773 N   0  0  0  0  0  0  0  0  0  0  0  0
  -29.1711  -26.7332   20.0453 N   0  0  0  0  0  0  0  0  0  0  0  0
  -20.2488  -22.3759   22.8945 N   0  0  0  0  0  0  0  0  0  0  0  0
  -17.4703  -29.4166   23.7506 N   0  0  0  0  0  0  0  0  0  0  0  0
  -24.7945  -22.0353   25.6051 N   0  0  0  0  0  0  0  0  0  0  0  0
  -27.6142  -18.7393   24.3473 N   0  0  0  0  0  0  0  0  0  0  0  0
  -21.8950  -28.4025   22.5235 N   0  0  0  0  0  0  0  0  0  0  0  0
  -27.7605  -23.5464   19.2806 N   0  0  0  0  0  0  0  0  0  0  0  0
  -32.1517  -28.2364   20.6064 N   0  0  0  0  0  0  0  0  0  0  0  0
  -18.8520  -24.1487   22.1848 N   0  0  0  0  0  0  0  0  0  0  0  0
  -32.4770  -31.5948   19.3091 N   0  3  0  0  0  0  0  0  0  0  0  0
  -27.3935  -20.5942   25.6775 O   0  0  0  0  0  0  0  0  0  0  0  0
  -27.5391  -24.9496   21.1257 O   0  0  0  0  0  0  0  0  0  0  0  0
  -31.2164  -25.7943   19.4358 O   0  0  0  0  0  0  0  0  0  0  0  0
  -31.0536  -30.1673   21.2719 O   0  0  0  0  0  0  0  0  0  0  0  0
  -20.8808  -23.7995   21.1763 O   0  0  0  0  0  0  0  0  0  0  0  0
  -26.4909  -14.6402   20.7458 O   0  0  0  0  0  0  0  0  0  0  0  0
  -24.2541  -30.1127   21.6124 O   0  0  0  0  0  0  0  0  0  1  0  0
  -23.0468  -10.3380   20.5619 F   0  0  0  0  0  0  0  0  0  0  0  0
  -27.2203  -12.1932   21.8054 F   0  0  0  0  0  0  0  0  0  0  0  0
  -16.6597  -27.0487   22.5999 F   0  0  0  0  0  0  0  0  0  0  0  0
  1  2  1  0  0  0  0
  1  5  2  0  0  0  0
  2  6  2  0  0  0  0
  3  8  2  0  0  0  0
  3 15  1  0  0  0  0
  4  9  1  0  0  0  0
  4 15  2  0  0  0  0
  5 17  1  0  0  0  0
  6 19  1  0  0  0  0
  7 10  2  0  0  0  0
  7 18  1  0  0  0  0
  8 21  1  0  0  0  0
  9 21  2  0  0  0  0
 10 22  1  0  0  0  0
 11 12  2  0  0  0  0
 11 23  1  0  0  0  0
 12 24  1  0  0  0  0
 13 20  1  0  0  0  0
 13 22  2  0  0  0  0
 14 24  2  0  0  0  0
 14 25  1  0  0  0  0
 15 27  1  0  0  0  0
 16 27  1  0  0  0  0
 16 30  2  0  0  0  0
 16 32  1  0  0  0  0
 17 19  2  0  0  0  0
 17 37  1  0  0  0  0
 18 20  2  0  0  0  0
 18 38  1  0  0  0  0
 19 46  1  0  0  0  0
 20 39  1  0  0  0  0
 21 80  1  0  0  0  0
 22 81  1  0  0  0  0
 23 25  2  0  0  0  0
 23 80  1  0  0  0  0
 24 82  1  0  0  0  0
 25 83  1  0  0  0  0
 26 28  2  0  0  0  0
 26 29  1  0  0  0  0
 26 84  1  0  0  0  0
 27 61  2  0  0  0  0
 28 55  1  0  0  0  0
 28 62  1  0  0  0  0
 29 63  2  0  0  0  0
 29 67  1  0  0  0  0
 30 64  1  0  0  0  0
 30 68  1  0  0  0  0
 31 62  2  0  0  0  0
 31 63  1  0  0  0  0
 31 70  1  0  0  0  0
 32 69  1  0  0  0  0
 32 75  2  0  0  0  0
 33 47  1  0  0  0  0
 33 71  1  0  0  0  0
 33 76  2  0  0  0  0
 34 57  1  0  0  0  0
 34 65  1  0  0  0  0
 34 77  2  0  0  0  0
 35 58  1  0  0  0  0
 35 72  1  0  0  0  0
 35 78  2  0  0  0  0
 36 66  1  0  0  0  0
 36 73  1  0  0  0  0
 36 79  2  0  0  0  0
 37 40  1  0  0  0  0
 38 47  1  0  0  0  0
 39 65  1  0  0  0  0
 40 42  1  0  0  0  0
 41 43  1  0  0  0  0
 41 44  1  0  0  0  0
 42 46  1  0  0  0  0
 43 48  1  0  0  0  0
 44 66  1  0  0  0  0
 45 48  1  0  0  0  0
 45 66  1  0  0  0  0
 46 71  1  0  0  0  0
 47 65  1  0  0  0  0
 48 64  1  0  0  0  0
 49 58  1  0  0  0  0
 50 59  1  0  0  0  0
 51 60  1  0  0  0  0
 52 60  1  0  0  0  0
 53 60  1  0  0  0  0
 54 74  1  0  0  0  0
 55 73  1  0  0  0  0
 56 59  1  0  0  0  0
 56 70  1  0  0  0  0
 57 60  1  0  0  0  0
 57 72  1  0  0  0  0
 58 74  1  0  0  0  0
 59 81  1  0  0  0  0
 61 64  1  0  0  0  0
M  CHG  1  74   1
M  ISO  4  36 100  59 101  73 100  81 101
M  END
> <Batch ID>
0188

> <Smiles>
CNC(C)C(=O)NC(C(=O)N1Cc2cc([101O:1][101CH:1](C)CNc3nc(N)c(F)c(C[100NH:0][100C:0](=O)N4CCCC(n5nc(-c6ccc(Oc7ccc(F)cc7F)cc6)c(C(N)=O)c5N)C4)n3)ccc2CC1C(=O)NC1CCCc2ccccc21)C(C)(C)C

> <Shape>
0.227

> <Color>
0.070

> <Negative vol penalty>
0.000

$$$$

  -OEChem-04052305153D

 86 94  0     1  0  0  0  0  0999 V2000
  -25.9281  -15.4548   11.6583 C   0  0  0  0  0  0  0  0  0  0  0  0
  -26.8473  -15.4428   12.7026 C   0  0  0  0  0  0  0  0  0  0  0  0
  -22.0443  -27.3016   20.9417 C   0  0  0  0  0  0  0  0  0  0  0  0
  -22.8091  -25.8867   22.7446 C   0  0  0  0  0  0  0  0  0  0  0  0
  -24.5977  -15.7902   11.9061 C   0  0  0  0  0  0  0  0  0  0  0  0
  -26.4368  -15.7672   13.9951 C   0  0  0  0  0  0  0  0  0  0  0  0
  -28.5278  -13.3765   19.2312 C   0  0  0  0  0  0  0  0  0  0  0  0
  -20.7746  -27.3486   21.5173 C   0  0  0  0  0  0  0  0  0  0  0  0
  -21.5395  -25.9338   23.3202 C   0  0  0  0  0  0  0  0  0  0  0  0
  -29.4674  -13.8256   20.1581 C   0  0  0  0  0  0  0  0  0  0  0  0
  -19.2473  -28.9861   24.0508 C   0  0  0  0  0  0  0  0  0  0  0  0
  -18.6147  -30.2271   24.1248 C   0  0  0  0  0  0  0  0  0  0  0  0
  -27.6906  -14.7508   21.5020 C   0  0  0  0  0  0  0  0  0  0  0  0
  -16.7963  -29.3803   22.7781 C   0  0  0  0  0  0  0  0  0  0  0  0
  -23.0616  -26.5705   21.5553 C   0  0  0  0  0  0  0  0  0  0  0  0
  -25.4468  -27.4008   21.1961 C   0  0  0  0  0  0  0  0  0  0  0  0
  -24.1686  -16.1096   13.2040 C   0  0  0  0  0  0  0  0  0  0  0  0
  -27.1610  -13.6211   19.4277 C   0  0  0  0  0  0  0  0  0  0  0  0
  -25.0996  -16.1086   14.2602 C   0  0  0  0  0  0  0  0  0  0  0  0
  -26.7355  -14.3015   20.5774 C   0  0  0  0  0  0  0  0  0  0  0  0
  -20.5222  -26.6648   22.7065 C   0  0  0  0  0  0  0  0  0  0  0  0
  -29.0492  -14.5154   21.2923 C   0  0  0  0  0  0  0  0  0  0  0  0
  -18.6545  -27.9423   23.3404 C   0  0  0  0  0  0  0  0  0  0  0  0
  -17.3892  -30.4242   23.4884 C   0  0  0  0  0  0  0  0  0  0  0  0
  -17.4290  -28.1394   22.7041 C   0  0  0  0  0  0  0  0  0  0  0  0
  -24.3732  -26.5211   20.9610 C   0  0  0  0  0  0  0  0  0  0  0  0
  -29.5330  -18.7262   21.7346 C   0  0  0  0  0  0  0  0  0  0  0  0
  -29.8623  -18.4553   20.4230 C   0  0  0  0  0  0  0  0  0  0  0  0
  -26.4591  -26.9284   20.3970 C   0  0  0  0  0  0  0  0  0  0  0  0
  -28.5609  -20.1880   20.0851 C   0  0  0  0  0  0  0  0  0  0  0  0
  -25.5223  -28.5428   22.0597 C   0  0  0  0  0  0  0  0  0  0  0  0
  -29.9954  -17.9809   22.9226 C   0  0  0  0  0  0  0  0  0  0  0  0
  -24.9182  -15.2213   17.8425 C   0  0  0  0  0  0  0  0  0  0  0  0
  -22.9615  -13.9264   20.0823 C   0  0  0  0  0  0  0  0  0  0  0  0
  -22.6157  -12.5902   23.2035 C   0  0  0  0  0  0  0  0  0  0  0  0
  -27.6997  -21.5368   18.1395 C   0  0  0  0  0  0  0  0  0  0  0  0
  -22.7304  -16.5117   13.4147 C   0  0  0  0  0  0  0  0  0  0  0  0
  -26.1580  -13.1067   18.4318 C   0  0  0  0  0  0  0  0  0  0  0  0
  -25.2782  -14.5720   20.8450 C   0  0  0  0  0  0  0  0  0  0  0  0
  -22.2967  -16.4787   14.8779 C   0  0  0  0  0  0  0  0  0  0  0  0
  -27.2019  -24.5491   16.3079 C   0  0  0  0  0  0  0  0  0  0  0  0
  -23.3399  -17.1582   15.7593 C   0  0  0  0  0  0  0  0  0  0  0  0
  -26.5232  -25.4788   17.3165 C   0  0  0  0  0  0  0  0  0  0  0  0
  -26.7368  -23.1028   16.4675 C   0  0  0  0  0  0  0  0  0  0  0  0
  -26.1761  -23.4888   18.8352 C   0  0  0  0  0  0  0  0  0  0  0  0
  -24.6874  -16.4305   15.6802 C   0  0  1  0  0  0  0  0  0  0  0  0
  -24.8326  -13.8609   18.4747 C   0  0  1  0  0  0  0  0  0  0  0  0
  -26.6612  -24.9455   18.7560 C   0  0  2  0  0  0  0  0  0  0  0  0
  -20.8881  -11.6583   24.7670 C   0  0  0  0  0  0  0  0  0  0  0  0
  -30.6342  -13.1566   23.6337 C   0  0  0  0  0  0  0  0  0  0  0  0
  -21.9789  -16.7531   20.6775 C   0  0  0  0  0  0  0  0  0  0  0  0
  -21.0120  -15.8909   22.8200 C   0  0  0  0  0  0  0  0  0  0  0  0
  -20.1844  -15.0116   20.6372 C   0  0  0  0  0  0  0  0  0  0  0  0
  -28.1064  -16.1373   25.5259 C   0  0  0  0  0  0  0  0  0  0  0  0
  -30.1052  -17.6076   25.8759 C   0  0  0  0  0  0  0  0  0  0  0  0
  -23.9536   -9.9519   23.2949 C   0  0  0  0  0  0  0  0  0  0  0  0
  -30.3846  -15.5015   24.5258 C   0  0  0  0  0  0  0  0  0  0  0  0
  -22.4821  -14.3421   21.4521 C   0  0  1  0  0  0  0  0  0  0  0  0
  -21.9123  -11.3360   23.6900 C   0  0  2  0  0  0  0  0  0  0  0  0
  -29.8489  -14.4595   23.5313 C   0  0  1  0  0  0  0  0  0  1  0  0
  -21.4420  -15.4962   21.3910 C   0  0  0  0  0  0  0  0  0  0  0  0
  -29.4128  -16.6383   24.9112 C   0  0  0  0  0  0  0  0  0  0  0  0
  -24.6752  -25.5625   20.0812 N   0  0  0  0  0  0  0  0  0  0  0  0
  -29.3055  -19.2922   19.4757 N   0  0  0  0  0  0  0  0  0  0  0  0
  -25.9501  -25.8372   19.7565 N   0  0  0  0  0  0  0  0  0  0  0  0
  -24.3363  -14.0545   19.8387 N   0  0  0  0  0  0  0  0  0  0  0  0
  -26.9012  -22.6648   17.8553 N   0  0  0  0  0  0  0  0  0  0  0  0
  -30.6766  -17.4424   20.0393 N   0  0  0  0  0  0  0  0  0  0  0  0
  -27.7261  -27.3442   20.1868 N   0  0  0  0  0  0  0  0  0  0  0  0
  -24.3904  -28.8887   22.8104 N   0  0  0  0  0  0  0  0  0  0  0  0
  -31.3065  -17.9216   23.1559 N   0  0  0  0  0  0  0  0  0  0  0  0
  -27.8089  -21.2348   19.4965 N   0  0  0  0  0  0  0  0  0  0  0  0
  -24.6604  -15.2280   16.4849 N   0  0  0  0  0  0  0  0  0  0  0  0
  -21.9919  -13.1295   22.0984 N   0  0  0  0  0  0  0  0  0  0  0  0
  -29.0766  -17.4037   23.6995 N   0  3  0  0  0  0  0  0  0  0  0  0
  -22.9005  -10.3736   24.2541 N   0  3  0  0  0  0  0  0  0  0  0  0
  -26.5573  -29.2456   22.1503 O   0  0  0  0  0  0  0  0  0  0  0  0
  -25.1961  -16.1931   18.5353 O   0  0  0  0  0  0  0  0  0  0  0  0
  -22.1473  -13.4969   19.2612 O   0  0  0  0  0  0  0  0  0  0  0  0
  -23.6160  -13.0479   23.7514 O   0  0  0  0  0  0  0  0  0  0  0  0
  -28.2685  -20.9028   17.2470 O   0  0  0  0  0  0  0  0  0  0  0  0
  -19.2834  -26.7106   23.2686 O   0  0  0  0  0  0  0  0  0  0  0  0
  -29.9643  -14.9555   22.1982 O   0  0  0  0  0  0  0  0  0  1  0  0
  -16.7810  -31.6154   23.5608 F   0  0  0  0  0  0  0  0  0  0  0  0
  -16.8540  -27.1400   22.0211 F   0  0  0  0  0  0  0  0  0  0  0  0
  -28.4858  -20.0830   21.7964 S   0  0  0  0  0  0  0  0  0  0  0  0
  1  2  1  0  0  0  0
  1  5  2  0  0  0  0
  2  6  2  0  0  0  0
  3  8  2  0  0  0  0
  3 15  1  0  0  0  0
  4  9  1  0  0  0  0
  4 15  2  0  0  0  0
  5 17  1  0  0  0  0
  6 19  1  0  0  0  0
  7 10  2  0  0  0  0
  7 18  1  0  0  0  0
  8 21  1  0  0  0  0
  9 21  2  0  0  0  0
 10 22  1  0  0  0  0
 11 12  2  0  0  0  0
 11 23  1  0  0  0  0
 12 24  1  0  0  0  0
 13 20  1  0  0  0  0
 13 22  2  0  0  0  0
 14 24  2  0  0  0  0
 14 25  1  0  0  0  0
 15 26  1  0  0  0  0
 16 26  1  0  0  0  0
 16 29  2  0  0  0  0
 16 31  1  0  0  0  0
 17 19  2  0  0  0  0
 17 37  1  0  0  0  0
 18 20  2  0  0  0  0
 18 38  1  0  0  0  0
 19 46  1  0  0  0  0
 20 39  1  0  0  0  0
 21 82  1  0  0  0  0
 22 83  1  0  0  0  0
 23 25  2  0  0  0  0
 23 82  1  0  0  0  0
 24 84  1  0  0  0  0
 25 85  1  0  0  0  0
 26 63  2  0  0  0  0
 27 28  2  0  0  0  0
 27 32  1  0  0  0  0
 27 86  1  0  0  0  0
 28 64  1  0  0  0  0
 28 68  1  0  0  0  0
 29 65  1  0  0  0  0
 29 69  1  0  0  0  0
 30 64  2  0  0  0  0
 30 72  1  0  0  0  0
 30 86  1  0  0  0  0
 31 70  1  0  0  0  0
 31 77  2  0  0  0  0
 32 71  1  0  0  0  0
 32 75  2  0  0  0  0
 33 47  1  0  0  0  0
 33 73  1  0  0  0  0
 33 78  2  0  0  0  0
 34 58  1  0  0  0  0
 34 66  1  0  0  0  0
 34 79  2  0  0  0  0
 35 59  1  0  0  0  0
 35 74  1  0  0  0  0
 35 80  2  0  0  0  0
 36 67  1  0  0  0  0
 36 72  1  0  0  0  0
 36 81  2  0  0  0  0
 37 40  1  0  0  0  0
 38 47  1  0  0  0  0
 39 66  1  0  0  0  0
 40 42  1  0  0  0  0
 41 43  1  0  0  0  0
 41 44  1  0  0  0  0
 42 46  1  0  0  0  0
 43 48  1  0  0  0  0
 44 67  1  0  0  0  0
 45 48  1  0  0  0  0
 45 67  1  0  0  0  0
 46 73  1  0  0  0  0
 47 66  1  0  0  0  0
 48 65  1  0  0  0  0
 49 59  1  0  0  0  0
 50 60  1  0  0  0  0
 51 61  1  0  0  0  0
 52 61  1  0  0  0  0
 53 61  1  0  0  0  0
 54 62  1  0  0  0  0
 55 62  1  0  0  0  0
 56 76  1  0  0  0  0
 57 60  1  0  0  0  0
 57 62  1  0  0  0  0
 58 61  1  0  0  0  0
 58 74  1  0  0  0  0
 59 76  1  0  0  0  0
 60 83  1  0  0  0  0
 62 75  1  0  0  0  0
 63 65  1  0  0  0  0
M  CHG  2  75   1  76   1
M  ISO  4  36 100  60 101  72 100  83 101
M  END
> <Batch ID>
0188

> <Smiles>
CNC(C)C(=O)NC(C(=O)N1Cc2cc([101O:1][101CH:1](C)CC(C)(C)NC(=N)c3sc([100NH:0][100C:0](=O)N4CCCC(n5nc(-c6ccc(Oc7ccc(F)cc7F)cc6)c(C(N)=O)c5N)C4)nc3N)ccc2CC1C(=O)NC1CCCc2ccccc21)C(C)(C)C

> <Shape>
0.213

> <Color>
0.061

> <Negative vol penalty>
0.000

$$$$

  -OEChem-04052305153D

 88 96  0     1  0  0  0  0  0999 V2000
  -19.2644  -24.3838   21.3592 C   0  0  0  0  0  0  0  0  0  0  0  0
  -20.2895  -24.9167   20.5843 C   0  0  0  0  0  0  0  0  0  0  0  0
  -31.0940  -16.0693   12.9112 C   0  0  0  0  0  0  0  0  0  0  0  0
  -32.8398  -17.7310   12.7438 C   0  0  0  0  0  0  0  0  0  0  0  0
  -18.5175  -25.2155   22.1925 C   0  0  0  0  0  0  0  0  0  0  0  0
  -20.5677  -26.2819   20.6414 C   0  0  0  0  0  0  0  0  0  0  0  0
  -25.5300  -27.2419   20.9552 C   0  0  0  0  0  0  0  0  0  0  0  0
  -31.1866  -15.8338   11.5395 C   0  0  0  0  0  0  0  0  0  0  0  0
  -32.9324  -17.4955   11.3721 C   0  0  0  0  0  0  0  0  0  0  0  0
  -26.2725  -27.1472   19.7790 C   0  0  0  0  0  0  0  0  0  0  0  0
  -33.2185  -14.1384    9.4347 C   0  0  0  0  0  0  0  0  0  0  0  0
  -33.2335  -12.8117    9.0044 C   0  0  0  0  0  0  0  0  0  0  0  0
  -26.1989  -29.5471   19.5464 C   0  0  0  0  0  0  0  0  0  0  0  0
  -31.2310  -13.2083    7.7121 C   0  0  0  0  0  0  0  0  0  0  0  0
  -31.9206  -17.0179   13.5133 C   0  0  0  0  0  0  0  0  0  0  0  0
  -32.5405  -16.6138   15.9547 C   0  0  0  0  0  0  0  0  0  0  0  0
  -18.7930  -26.5900   22.2672 C   0  0  0  0  0  0  0  0  0  0  0  0
  -25.1064  -28.4912   21.4309 C   0  0  0  0  0  0  0  0  0  0  0  0
  -19.8229  -27.1330   21.4755 C   0  0  0  0  0  0  0  0  0  0  0  0
  -25.4533  -29.6552   20.7303 C   0  0  0  0  0  0  0  0  0  0  0  0
  -32.1058  -16.5469   10.7699 C   0  0  0  0  0  0  0  0  0  0  0  0
  -26.6046  -28.2997   19.0728 C   0  0  0  0  0  0  0  0  0  0  0  0
  -32.2097  -15.0001    9.0039 C   0  0  0  0  0  0  0  0  0  0  0  0
  -32.2398  -12.3467    8.1430 C   0  0  0  0  0  0  0  0  0  0  0  0
  -31.2160  -14.5350    8.1425 C   0  0  0  0  0  0  0  0  0  0  0  0
  -31.8250  -17.2621   14.9302 C   0  0  0  0  0  0  0  0  0  0  0  0
  -32.1600  -26.1326   19.0136 C   0  0  0  0  0  0  0  0  0  0  0  0
  -32.0924  -17.2024   17.1119 C   0  0  0  0  0  0  0  0  0  0  0  0
  -33.2958  -25.9041   18.2655 C   0  0  0  0  0  0  0  0  0  0  0  0
  -31.6243  -24.1712   18.1915 C   0  0  0  0  0  0  0  0  0  0  0  0
  -33.5225  -15.5727   15.8680 C   0  0  0  0  0  0  0  0  0  0  0  0
  -22.2819  -29.8465   21.9686 C   0  0  0  0  0  0  0  0  0  0  0  0
  -24.0985  -32.2268   23.2162 C   0  0  0  0  0  0  0  0  0  0  0  0
  -27.1158  -33.8181   23.3196 C   0  0  0  0  0  0  0  0  0  0  0  0
  -29.7034  -22.5460   18.3138 C   0  0  0  0  0  0  0  0  0  0  0  0
  -17.9276  -27.4570   23.1469 C   0  0  0  0  0  0  0  0  0  0  0  0
  -24.3289  -28.5786   22.7155 C   0  0  0  0  0  0  0  0  0  0  0  0
  -25.0401  -31.0220   21.2094 C   0  0  0  0  0  0  0  0  0  0  0  0
  -18.5310  -28.8301   23.4314 C   0  0  0  0  0  0  0  0  0  0  0  0
  -28.2426  -19.3650   18.9657 C   0  0  0  0  0  0  0  0  0  0  0  0
  -19.0568  -29.4590   22.1450 C   0  0  0  0  0  0  0  0  0  0  0  0
  -29.0646  -18.4049   18.1027 C   0  0  0  0  0  0  0  0  0  0  0  0
  -28.0297  -20.7097   18.2727 C   0  0  0  0  0  0  0  0  0  0  0  0
  -30.0775  -20.4056   16.9373 C   0  0  0  0  0  0  0  0  0  0  0  0
  -20.1711  -28.6047   21.5286 C   0  0  1  0  0  0  0  0  0  0  0  0
  -23.5109  -29.8610   22.8329 C   0  0  1  0  0  0  0  0  0  0  0  0
  -30.3735  -19.0605   17.6206 C   0  0  2  0  0  0  0  0  0  0  0  0
  -28.2854  -35.7545   24.4058 C   0  0  0  0  0  0  0  0  0  0  0  0
  -27.8402  -26.2380   16.6473 C   0  0  0  0  0  0  0  0  0  0  0  0
  -22.6227  -34.1528   21.3662 C   0  0  0  0  0  0  0  0  0  0  0  0
  -24.4315  -35.8322   21.7860 C   0  0  0  0  0  0  0  0  0  0  0  0
  -23.0194  -35.0236   23.6768 C   0  0  0  0  0  0  0  0  0  0  0  0
  -31.1788  -27.9037   22.5712 C   0  0  0  0  0  0  0  0  0  0  0  0
  -29.2659  -29.2270   21.6542 C   0  0  0  0  0  0  0  0  0  0  0  0
  -31.6045  -29.9192   21.1569 C   0  0  0  0  0  0  0  0  0  0  0  0
  -29.1161  -32.0462   24.5915 C   0  0  0  0  0  0  0  0  0  0  0  0
  -29.6642  -27.6684   17.6316 C   0  0  0  0  0  0  0  0  0  0  0  0
  -24.7463  -33.4760   22.6693 C   0  0  1  0  0  0  0  0  0  0  0  0
  -27.9783  -34.2671   24.4853 C   0  0  2  0  0  0  0  0  0  0  0  0
  -30.6485  -27.8370   20.0317 C   0  0  2  0  0  0  0  0  0  0  0  0
  -28.2473  -27.1216   17.8200 C   0  0  1  0  0  0  0  0  0  1  0  0
  -30.1647  -28.5755   18.7668 C   0  0  1  0  0  0  0  0  0  0  0  0
  -23.7113  -34.5954   22.3642 C   0  0  0  0  0  0  0  0  0  0  0  0
  -30.6848  -28.6941   21.3450 C   0  0  0  0  0  0  0  0  0  0  0  0
  -30.9859  -18.1912   15.3956 N   0  0  0  0  0  0  0  0  0  0  0  0
  -31.2002  -25.1402   18.9720 N   0  0  0  0  0  0  0  0  0  0  0  0
  -31.1713  -18.1311   16.7253 N   0  0  0  0  0  0  0  0  0  0  0  0
  -24.2759  -31.0548   22.4673 N   0  0  0  0  0  0  0  0  0  0  0  0
  -29.3130  -21.2728   17.8474 N   0  0  0  0  0  0  0  0  0  0  0  0
  -32.4003  -17.0110   18.4123 N   0  0  0  0  0  0  0  0  0  0  0  0
  -33.8665  -15.0826   14.6008 N   0  0  0  0  0  0  0  0  0  0  0  0
  -31.9612  -27.2714   19.7680 N   0  0  0  0  0  0  0  0  0  0  0  0
  -30.9573  -22.9634   17.8688 N   0  0  0  0  0  0  0  0  0  0  0  0
  -21.4148  -28.8056   22.2410 N   0  0  0  0  0  0  0  0  0  0  0  0
  -25.7734  -33.8582   23.6323 N   0  0  0  0  0  0  0  0  0  0  0  0
  -29.2681  -33.5207   24.4931 N   0  3  0  0  0  0  0  0  0  0  0  0
  -34.0665  -15.0800   16.8853 O   0  0  0  0  0  0  0  0  0  0  0  0
  -22.1307  -30.7162   21.1186 O   0  0  0  0  0  0  0  0  0  0  0  0
  -23.4646  -32.2872   24.2726 O   0  0  0  0  0  0  0  0  0  0  0  0
  -27.5856  -33.4703   22.2385 O   0  0  0  0  0  0  0  0  0  0  0  0
  -28.9906  -23.2048   19.0753 O   0  0  0  0  0  0  0  0  0  0  0  0
  -32.1966  -16.3171    9.4314 O   0  0  0  0  0  0  0  0  0  0  0  0
  -27.3332  -28.2094   17.9169 O   0  0  0  0  0  0  0  0  0  1  0  0
  -32.2552  -11.0730    7.7286 F   0  0  0  0  0  0  0  0  0  0  0  0
  -30.2450  -15.3584    7.7243 F   0  0  0  0  0  0  0  0  0  0  0  0
  -34.3399  -26.7315   18.1664 F   0  0  0  0  0  0  0  0  0  0  0  0
  -31.1989  -29.3064   18.2563 F   0  0  0  0  0  0  0  0  0  0  0  0
  -33.1688  -24.3873   17.4753 S   0  0  0  0  0  0  0  0  0  0  0  0
  1  2  1  0  0  0  0
  1  5  2  0  0  0  0
  2  6  2  0  0  0  0
  3  8  2  0  0  0  0
  3 15  1  0  0  0  0
  4  9  1  0  0  0  0
  4 15  2  0  0  0  0
  5 17  1  0  0  0  0
  6 19  1  0  0  0  0
  7 10  2  0  0  0  0
  7 18  1  0  0  0  0
  8 21  1  0  0  0  0
  9 21  2  0  0  0  0
 10 22  1  0  0  0  0
 11 12  2  0  0  0  0
 11 23  1  0  0  0  0
 12 24  1  0  0  0  0
 13 20  1  0  0  0  0
 13 22  2  0  0  0  0
 14 24  2  0  0  0  0
 14 25  1  0  0  0  0
 15 26  1  0  0  0  0
 16 26  1  0  0  0  0
 16 28  2  0  0  0  0
 16 31  1  0  0  0  0
 17 19  2  0  0  0  0
 17 36  1  0  0  0  0
 18 20  2  0  0  0  0
 18 37  1  0  0  0  0
 19 45  1  0  0  0  0
 20 38  1  0  0  0  0
 21 82  1  0  0  0  0
 22 83  1  0  0  0  0
 23 25  2  0  0  0  0
 23 82  1  0  0  0  0
 24 84  1  0  0  0  0
 25 85  1  0  0  0  0
 26 65  2  0  0  0  0
 27 29  2  0  0  0  0
 27 66  1  0  0  0  0
 27 72  1  0  0  0  0
 28 67  1  0  0  0  0
 28 70  1  0  0  0  0
 29 86  1  0  0  0  0
 29 88  1  0  0  0  0
 30 66  2  0  0  0  0
 30 73  1  0  0  0  0
 30 88  1  0  0  0  0
 31 71  1  0  0  0  0
 31 77  2  0  0  0  0
 32 46  1  0  0  0  0
 32 74  1  0  0  0  0
 32 78  2  0  0  0  0
 33 58  1  0  0  0  0
 33 68  1  0  0  0  0
 33 79  2  0  0  0  0
 34 59  1  0  0  0  0
 34 75  1  0  0  0  0
 34 80  2  0  0  0  0
 35 69  1  0  0  0  0
 35 73  1  0  0  0  0
 35 81  2  0  0  0  0
 36 39  1  0  0  0  0
 37 46  1  0  0  0  0
 38 68  1  0  0  0  0
 39 41  1  0  0  0  0
 40 42  1  0  0  0  0
 40 43  1  0  0  0  0
 41 45  1  0  0  0  0
 42 47  1  0  0  0  0
 43 69  1  0  0  0  0
 44 47  1  0  0  0  0
 44 69  1  0  0  0  0
 45 74  1  0  0  0  0
 46 68  1  0  0  0  0
 47 67  1  0  0  0  0
 48 59  1  0  0  0  0
 49 61  1  0  0  0  0
 50 63  1  0  0  0  0
 51 63  1  0  0  0  0
 52 63  1  0  0  0  0
 53 64  1  0  0  0  0
 54 64  1  0  0  0  0
 55 64  1  0  0  0  0
 56 76  1  0  0  0  0
 57 61  1  0  0  0  0
 57 62  1  0  0  0  0
 58 63  1  0  0  0  0
 58 75  1  0  0  0  0
 59 76  1  0  0  0  0
 60 62  1  0  0  0  0
 60 64  1  0  0  0  0
 60 72  1  0  0  0  0
 61 83  1  0  0  0  0
 62 87  1  0  0  0  0
 65 67  1  0  0  0  0
M  CHG  1  76   1
M  ISO  4  35 100  61 101  73 100  83 101
M  END
> <Batch ID>
0188

> <Smiles>
CNC(C)C(=O)NC(C(=O)N1Cc2cc([101O:1][101CH:1](C)CC(F)C(Nc3nc([100NH:0][100C:0](=O)N4CCCC(n5nc(-c6ccc(Oc7ccc(F)cc7F)cc6)c(C(N)=O)c5N)C4)sc3F)C(C)(C)C)ccc2CC1C(=O)NC1CCCc2ccccc21)C(C)(C)C

> <Shape>
0.205

> <Color>
0.115

> <Negative vol penalty>
0.000

$$$$

  -OEChem-04052305153D

 84 92  0     1  0  0  0  0  0999 V2000
  -34.8945  -17.2999   19.8664 C   0  0  0  0  0  0  0  0  0  0  0  0
  -34.2787  -18.5391   20.0008 C   0  0  0  0  0  0  0  0  0  0  0  0
  -23.0748   -9.8671   19.9442 C   0  0  0  0  0  0  0  0  0  0  0  0
  -23.8381   -9.8773   22.2365 C   0  0  0  0  0  0  0  0  0  0  0  0
  -35.1969  -16.5495   21.0007 C   0  0  0  0  0  0  0  0  0  0  0  0
  -33.9759  -19.0336   21.2699 C   0  0  0  0  0  0  0  0  0  0  0  0
  -32.2863  -23.6469   21.5264 C   0  0  0  0  0  0  0  0  0  0  0  0
  -22.3321   -8.7138   20.1966 C   0  0  0  0  0  0  0  0  0  0  0  0
  -23.0952   -8.7239   22.4889 C   0  0  0  0  0  0  0  0  0  0  0  0
  -31.0071  -24.0057   21.1037 C   0  0  0  0  0  0  0  0  0  0  0  0
  -21.1140   -5.9871   23.8315 C   0  0  0  0  0  0  0  0  0  0  0  0
  -20.3595   -5.9444   25.0039 C   0  0  0  0  0  0  0  0  0  0  0  0
  -30.2833  -24.1096   23.4025 C   0  0  0  0  0  0  0  0  0  0  0  0
  -19.1126   -7.8800   24.2719 C   0  0  0  0  0  0  0  0  0  0  0  0
  -29.0414  -18.1509   23.1680 C   0  0  0  0  0  0  0  0  0  0  0  0
  -23.8279  -10.4489   20.9642 C   0  0  0  0  0  0  0  0  0  0  0  0
  -24.1679  -12.9741   20.8407 C   0  0  0  0  0  0  0  0  0  0  0  0
  -34.8860  -17.0302   22.2834 C   0  0  0  0  0  0  0  0  0  0  0  0
  -32.5713  -23.5060   22.8921 C   0  0  0  0  0  0  0  0  0  0  0  0
  -34.2949  -18.3018   22.4281 C   0  0  0  0  0  0  0  0  0  0  0  0
  -31.5676  -23.7515   23.8400 C   0  0  0  0  0  0  0  0  0  0  0  0
  -29.8645  -18.0288   22.0702 C   0  0  0  0  0  0  0  0  0  0  0  0
  -22.3423   -8.1422   21.4689 C   0  0  0  0  0  0  0  0  0  0  0  0
  -30.0046  -24.2343   22.0417 C   0  0  0  0  0  0  0  0  0  0  0  0
  -20.8679   -6.9763   22.8794 C   0  0  0  0  0  0  0  0  0  0  0  0
  -19.3587   -6.8908   25.2241 C   0  0  0  0  0  0  0  0  0  0  0  0
  -19.8672   -7.9227   23.0995 C   0  0  0  0  0  0  0  0  0  0  0  0
  -29.6951  -19.1050   21.1519 C   0  0  0  0  0  0  0  0  0  0  0  0
  -24.5958  -11.6399   20.7040 C   0  0  0  0  0  0  0  0  0  0  0  0
  -25.2591  -13.7238   20.4750 C   0  0  0  0  0  0  0  0  0  0  0  0
  -28.7486  -20.0086   21.5827 C   0  0  0  0  0  0  0  0  0  0  0  0
  -22.8977  -13.4896   21.2609 C   0  0  0  0  0  0  0  0  0  0  0  0
  -33.5190  -21.1072   24.7499 C   0  0  0  0  0  0  0  0  0  0  0  0
  -33.6972  -23.4357   27.0013 C   0  0  0  0  0  0  0  0  0  0  0  0
  -27.2970  -22.0659   21.5148 C   0  0  0  0  0  0  0  0  0  0  0  0
  -32.6583  -26.4988   28.0898 C   0  0  0  0  0  0  0  0  0  0  0  0
  -30.7424  -14.7466   20.6543 C   0  0  0  0  0  0  0  0  0  0  0  0
  -35.2425  -16.1801   23.4772 C   0  0  0  0  0  0  0  0  0  0  0  0
  -33.9633  -23.1444   23.3328 C   0  0  0  0  0  0  0  0  0  0  0  0
  -31.8275  -23.6333   25.3188 C   0  0  0  0  0  0  0  0  0  0  0  0
  -34.4879  -16.5823   24.7402 C   0  0  0  0  0  0  0  0  0  0  0  0
  -29.6029  -12.3586   18.2719 C   0  0  0  0  0  0  0  0  0  0  0  0
  -34.5921  -18.0853   24.9515 C   0  0  0  0  0  0  0  0  0  0  0  0
  -28.1663  -12.0645   18.7073 C   0  0  0  0  0  0  0  0  0  0  0  0
  -30.5216  -12.5814   19.4712 C   0  0  0  0  0  0  0  0  0  0  0  0
  -28.6214  -13.3129   20.8597 C   0  0  0  0  0  0  0  0  0  0  0  0
  -33.9284  -18.8465   23.7968 C   0  0  1  0  0  0  0  0  0  0  0  0
  -34.0072  -22.5280   24.7276 C   0  0  1  0  0  0  0  0  0  0  0  0
  -27.6457  -13.1363   19.6837 C   0  0  2  0  0  0  0  0  0  0  0  0
  -32.9508  -28.1200   29.9828 C   0  0  0  0  0  0  0  0  0  0  0  0
  -28.0410  -25.2800   19.4534 C   0  0  0  0  0  0  0  0  0  0  0  0
  -31.9227  -21.6908   28.7667 C   0  0  0  0  0  0  0  0  0  0  0  0
  -31.4779  -23.7030   30.1885 C   0  0  0  0  0  0  0  0  0  0  0  0
  -33.8013  -22.8217   29.9695 C   0  0  0  0  0  0  0  0  0  0  0  0
  -33.7184  -28.5921   26.2863 C   0  0  0  0  0  0  0  0  0  0  0  0
  -30.8087  -16.8987   21.8886 C   0  0  0  0  0  0  0  0  0  0  0  0
  -27.0731  -23.2409   20.5678 C   0  0  0  0  0  0  0  0  0  0  0  0
  -32.7409  -24.0205   28.0124 C   0  0  1  0  0  0  0  0  0  0  0  0
  -33.4307  -27.7010   28.6019 C   0  0  2  0  0  0  0  0  0  0  0  0
  -28.3263  -24.0921   20.3627 C   0  0  2  0  0  0  0  0  0  1  0  0
  -32.4800  -23.0594   29.2064 C   0  0  0  0  0  0  0  0  0  0  0  0
  -25.8601  -11.5444   20.2840 N   0  0  0  0  0  0  0  0  0  0  0  0
  -26.2360  -12.8281   20.1536 N   0  0  0  0  0  0  0  0  0  0  0  0
  -33.2028  -23.2712   25.6996 N   0  0  0  0  0  0  0  0  0  0  0  0
  -29.9717  -13.6106   20.3568 N   0  0  0  0  0  0  0  0  0  0  0  0
  -25.4685  -15.0554   20.4002 N   0  0  0  0  0  0  0  0  0  0  0  0
  -21.8869  -12.5801   21.6007 N   0  0  0  0  0  0  0  0  0  0  0  0
  -28.2644  -21.2052   21.0028 N   0  0  0  0  0  0  0  0  0  0  0  0
  -34.2291  -20.2553   23.9255 N   0  0  0  0  0  0  0  0  0  0  0  0
  -33.2943  -25.3145   28.3968 N   0  0  0  0  0  0  0  0  0  0  0  0
  -30.1439  -15.6761   21.4961 N   0  0  0  0  0  0  0  0  0  0  0  0
  -33.2640  -28.8566   27.6758 N   0  3  0  0  0  0  0  0  0  0  0  0
  -22.6607  -14.7201   21.3172 O   0  0  0  0  0  0  0  0  0  0  0  0
  -32.5694  -20.8057   25.4634 O   0  0  0  0  0  0  0  0  0  0  0  0
  -34.8429  -23.1424   27.3517 O   0  0  0  0  0  0  0  0  0  0  0  0
  -26.6805  -21.9493   22.5686 O   0  0  0  0  0  0  0  0  0  0  0  0
  -31.5950  -26.5999   27.4818 O   0  0  0  0  0  0  0  0  0  0  0  0
  -31.8776  -14.9223   20.1988 O   0  0  0  0  0  0  0  0  0  0  0  0
  -21.6174   -7.0169   21.7156 O   0  0  0  0  0  0  0  0  0  0  0  0
  -28.7549  -24.5839   21.6319 O   0  0  0  0  0  0  0  0  0  1  0  0
  -18.6332   -6.8487   26.3492 F   0  0  0  0  0  0  0  0  0  0  0  0
  -19.6254   -8.8747   22.1879 F   0  0  0  0  0  0  0  0  0  0  0  0
  -28.0692  -19.5584   23.0887 S   0  0  0  0  0  0  0  0  0  0  0  0
  -30.5762  -19.2384   19.6877 Cl  0  0  0  0  0  0  0  0  0  0  0  0
  1  2  1  0  0  0  0
  1  5  2  0  0  0  0
  2  6  2  0  0  0  0
  3  8  2  0  0  0  0
  3 16  1  0  0  0  0
  4  9  1  0  0  0  0
  4 16  2  0  0  0  0
  5 18  1  0  0  0  0
  6 20  1  0  0  0  0
  7 10  2  0  0  0  0
  7 19  1  0  0  0  0
  8 23  1  0  0  0  0
  9 23  2  0  0  0  0
 10 24  1  0  0  0  0
 11 12  2  0  0  0  0
 11 25  1  0  0  0  0
 12 26  1  0  0  0  0
 13 21  1  0  0  0  0
 13 24  2  0  0  0  0
 14 26  2  0  0  0  0
 14 27  1  0  0  0  0
 15 22  2  0  0  0  0
 15 83  1  0  0  0  0
 16 29  1  0  0  0  0
 17 29  1  0  0  0  0
 17 30  2  0  0  0  0
 17 32  1  0  0  0  0
 18 20  2  0  0  0  0
 18 38  1  0  0  0  0
 19 21  2  0  0  0  0
 19 39  1  0  0  0  0
 20 47  1  0  0  0  0
 21 40  1  0  0  0  0
 22 28  1  0  0  0  0
 22 56  1  0  0  0  0
 23 79  1  0  0  0  0
 24 80  1  0  0  0  0
 25 27  2  0  0  0  0
 25 79  1  0  0  0  0
 26 81  1  0  0  0  0
 27 82  1  0  0  0  0
 28 31  2  0  0  0  0
 28 84  1  0  0  0  0
 29 62  2  0  0  0  0
 30 63  1  0  0  0  0
 30 66  1  0  0  0  0
 31 68  1  0  0  0  0
 31 83  1  0  0  0  0
 32 67  1  0  0  0  0
 32 73  2  0  0  0  0
 33 48  1  0  0  0  0
 33 69  1  0  0  0  0
 33 74  2  0  0  0  0
 34 58  1  0  0  0  0
 34 64  1  0  0  0  0
 34 75  2  0  0  0  0
 35 57  1  0  0  0  0
 35 68  1  0  0  0  0
 35 76  2  0  0  0  0
 36 59  1  0  0  0  0
 36 70  1  0  0  0  0
 36 77  2  0  0  0  0
 37 65  1  0  0  0  0
 37 71  1  0  0  0  0
 37 78  2  0  0  0  0
 38 41  1  0  0  0  0
 39 48  1  0  0  0  0
 40 64  1  0  0  0  0
 41 43  1  0  0  0  0
 42 44  1  0  0  0  0
 42 45  1  0  0  0  0
 43 47  1  0  0  0  0
 44 49  1  0  0  0  0
 45 65  1  0  0  0  0
 46 49  1  0  0  0  0
 46 65  1  0  0  0  0
 47 69  1  0  0  0  0
 48 64  1  0  0  0  0
 49 63  1  0  0  0  0
 50 59  1  0  0  0  0
 51 60  1  0  0  0  0
 52 61  1  0  0  0  0
 53 61  1  0  0  0  0
 54 61  1  0  0  0  0
 55 72  1  0  0  0  0
 56 71  1  0  0  0  0
 57 60  1  0  0  0  0
 58 61  1  0  0  0  0
 58 70  1  0  0  0  0
 59 72  1  0  0  0  0
 60 80  1  0  0  0  0
 62 63  1  0  0  0  0
M  CHG  1  72   1
M  ISO  4  37 100  60 101  71 100  80 101
M  END
> <Batch ID>
0188

> <Smiles>
CNC(C)C(=O)NC(C(=O)N1Cc2cc([101O:1][101CH:1](C)CC(=O)Nc3scc(C[100NH:0][100C:0](=O)N4CCCC(n5nc(-c6ccc(Oc7ccc(F)cc7F)cc6)c(C(N)=O)c5N)C4)c3Cl)ccc2CC1C(=O)NC1CCCc2ccccc21)C(C)(C)C

> <Shape>
0.198

> <Color>
0.191

> <Negative vol penalty>
0.000

$$$$

  -OEChem-04052305153D

 81 89  0     1  0  0  0  0  0999 V2000
  -26.6922  -34.2546   14.5180 C   0  0  0  0  0  0  0  0  0  0  0  0
  -26.4547  -32.9282   14.8638 C   0  0  0  0  0  0  0  0  0  0  0  0
  -24.5653   -9.2315   21.5983 C   0  0  0  0  0  0  0  0  0  0  0  0
  -24.1651  -10.7657   23.4213 C   0  0  0  0  0  0  0  0  0  0  0  0
  -27.2198  -35.1358   15.4609 C   0  0  0  0  0  0  0  0  0  0  0  0
  -26.7457  -32.4819   16.1524 C   0  0  0  0  0  0  0  0  0  0  0  0
  -23.6697  -28.2799   19.3754 C   0  0  0  0  0  0  0  0  0  0  0  0
  -24.1551   -8.1685   22.4029 C   0  0  0  0  0  0  0  0  0  0  0  0
  -23.7549   -9.7027   24.2259 C   0  0  0  0  0  0  0  0  0  0  0  0
  -23.8913  -26.9216   19.5983 C   0  0  0  0  0  0  0  0  0  0  0  0
  -21.2378   -6.8379   23.4760 C   0  0  0  0  0  0  0  0  0  0  0  0
  -20.3681   -5.9008   22.9183 C   0  0  0  0  0  0  0  0  0  0  0  0
  -24.9912  -27.4488   21.6796 C   0  0  0  0  0  0  0  0  0  0  0  0
  -21.9974   -4.1590   23.3042 C   0  0  0  0  0  0  0  0  0  0  0  0
  -28.3489  -21.0395   19.0735 C   0  0  0  0  0  0  0  0  0  0  0  0
  -24.5703  -10.5302   22.1076 C   0  0  0  0  0  0  0  0  0  0  0  0
  -24.1886  -12.4187   20.4356 C   0  0  0  0  0  0  0  0  0  0  0  0
  -27.5083  -34.7025   16.7646 C   0  0  0  0  0  0  0  0  0  0  0  0
  -24.1176  -29.2352   20.2991 C   0  0  0  0  0  0  0  0  0  0  0  0
  -27.2789  -33.3578   17.1132 C   0  0  0  0  0  0  0  0  0  0  0  0
  -24.7718  -28.8184   21.4673 C   0  0  0  0  0  0  0  0  0  0  0  0
  -23.7499   -8.4041   23.7166 C   0  0  0  0  0  0  0  0  0  0  0  0
  -24.5547  -26.5061   20.7491 C   0  0  0  0  0  0  0  0  0  0  0  0
  -22.4873   -6.4356   23.9478 C   0  0  0  0  0  0  0  0  0  0  0  0
  -20.7478   -4.5614   22.8324 C   0  0  0  0  0  0  0  0  0  0  0  0
  -22.8671   -5.0962   23.8619 C   0  0  0  0  0  0  0  0  0  0  0  0
  -24.9945  -11.6286   21.2771 C   0  0  0  0  0  0  0  0  0  0  0  0
  -26.9766  -21.1103   19.1913 C   0  0  0  0  0  0  0  0  0  0  0  0
  -25.0599  -13.3180   19.8712 C   0  0  0  0  0  0  0  0  0  0  0  0
  -27.9704  -18.9902   19.7570 C   0  0  0  0  0  0  0  0  0  0  0  0
  -22.7785  -12.3462   20.1864 C   0  0  0  0  0  0  0  0  0  0  0  0
  -26.1722  -31.6586   20.2021 C   0  0  0  0  0  0  0  0  0  0  0  0
  -25.0507  -32.2199   23.1936 C   0  0  0  0  0  0  0  0  0  0  0  0
  -23.5628  -30.9904   26.0081 C   0  0  0  0  0  0  0  0  0  0  0  0
  -29.2938  -16.9112   20.2792 C   0  0  0  0  0  0  0  0  0  0  0  0
  -28.1218  -35.6801   17.7355 C   0  0  0  0  0  0  0  0  0  0  0  0
  -23.8471  -30.6948   20.0570 C   0  0  0  0  0  0  0  0  0  0  0  0
  -25.2545  -29.8028   22.5000 C   0  0  0  0  0  0  0  0  0  0  0  0
  -28.0521  -35.2198   19.1893 C   0  0  0  0  0  0  0  0  0  0  0  0
  -30.1194  -13.4680   19.9047 C   0  0  0  0  0  0  0  0  0  0  0  0
  -28.4869  -33.7626   19.3092 C   0  0  0  0  0  0  0  0  0  0  0  0
  -28.7934  -12.7475   20.1592 C   0  0  0  0  0  0  0  0  0  0  0  0
  -30.2814  -14.6921   20.8041 C   0  0  0  0  0  0  0  0  0  0  0  0
  -27.8381  -14.9237   21.0185 C   0  0  0  0  0  0  0  0  0  0  0  0
  -27.5583  -32.8420   18.5082 C   0  0  1  0  0  0  0  0  0  0  0  0
  -24.8010  -31.6130   20.8148 C   0  0  1  0  0  0  0  0  0  0  0  0
  -27.6006  -13.7213   20.0904 C   0  0  2  0  0  0  0  0  0  0  0  0
  -22.8110  -31.6803   28.3007 C   0  0  0  0  0  0  0  0  0  0  0  0
  -27.9479  -32.1886   24.1504 C   0  0  0  0  0  0  0  0  0  0  0  0
  -27.0990  -31.9263   26.4911 C   0  0  0  0  0  0  0  0  0  0  0  0
  -26.5281  -33.9709   25.1810 C   0  0  0  0  0  0  0  0  0  0  0  0
  -20.7431  -30.3170   25.4126 C   0  0  0  0  0  0  0  0  0  0  0  0
  -24.9287  -24.3491   19.8199 C   0  0  0  0  0  0  0  0  0  1  0  0
  -26.0414  -22.2665   18.9256 C   0  0  1  0  0  0  0  0  0  0  0  0
  -25.4370  -31.7703   24.5820 C   0  0  1  0  0  0  0  0  0  0  0  0
  -22.4069  -31.5084   26.8447 C   0  0  2  0  0  0  0  0  0  0  0  0
  -25.8278  -23.1607   20.1553 C   0  0  1  0  0  0  0  0  0  0  0  0
  -26.7457  -32.4454   25.0809 C   0  0  0  0  0  0  0  0  0  0  0  0
  -28.9206  -19.8247   19.3979 N   0  0  0  0  0  0  0  0  0  0  0  0
  -26.2790  -11.9938   21.2525 N   0  0  0  0  0  0  0  0  0  0  0  0
  -26.2869  -13.0232   20.3885 N   0  0  0  0  0  0  0  0  0  0  0  0
  -24.9718  -31.2192   22.2148 N   0  0  0  0  0  0  0  0  0  0  0  0
  -29.1162  -15.5711   20.6834 N   0  0  0  0  0  0  0  0  0  0  0  0
  -24.8885  -14.3242   18.9877 N   0  0  0  0  0  0  0  0  0  0  0  0
  -22.0326  -11.3623   20.8497 N   0  0  0  0  0  0  0  0  0  0  0  0
  -28.1111  -17.6415   20.1682 N   0  0  0  0  0  0  0  0  0  0  0  0
  -26.3202  -32.6250   19.2255 N   0  0  0  0  0  0  0  0  0  0  0  0
  -24.2758  -32.0190   25.4295 N   0  0  0  0  0  0  0  0  0  0  0  0
  -21.2583  -30.5608   26.7845 N   0  3  0  0  0  0  0  0  0  0  0  0
  -22.2000  -13.1201   19.3865 O   0  0  0  0  0  0  0  0  0  0  0  0
  -27.0326  -30.8759   20.5878 O   0  0  0  0  0  0  0  0  0  0  0  0
  -24.8204  -33.4140   22.9869 O   0  0  0  0  0  0  0  0  0  0  0  0
  -23.8109  -29.7931   25.8835 O   0  0  0  0  0  0  0  0  0  0  0  0
  -30.4102  -17.3689   20.0220 O   0  0  0  0  0  0  0  0  0  0  0  0
  -27.0821  -23.6851   20.5955 O   0  0  0  0  0  0  0  0  0  0  0  0
  -23.3493   -7.3670   24.5019 O   0  0  0  0  0  0  0  0  0  0  0  0
  -24.7729  -25.1809   20.9689 O   0  0  0  0  0  0  0  0  0  1  0  0
  -19.9119   -3.6613   22.2982 F   0  0  0  0  0  0  0  0  0  0  0  0
  -24.0657   -4.7035   24.3145 F   0  0  0  0  0  0  0  0  0  0  0  0
  -26.4636  -23.0582   17.8940 F   0  0  0  0  0  0  0  0  0  0  0  0
  -26.3665  -19.5997   19.7274 S   0  0  0  0  0  0  0  0  0  0  0  0
  1  2  1  0  0  0  0
  1  5  2  0  0  0  0
  2  6  2  0  0  0  0
  3  8  2  0  0  0  0
  3 16  1  0  0  0  0
  4  9  1  0  0  0  0
  4 16  2  0  0  0  0
  5 18  1  0  0  0  0
  6 20  1  0  0  0  0
  7 10  2  0  0  0  0
  7 19  1  0  0  0  0
  8 22  1  0  0  0  0
  9 22  2  0  0  0  0
 10 23  1  0  0  0  0
 11 12  2  0  0  0  0
 11 24  1  0  0  0  0
 12 25  1  0  0  0  0
 13 21  1  0  0  0  0
 13 23  2  0  0  0  0
 14 25  2  0  0  0  0
 14 26  1  0  0  0  0
 15 28  2  0  0  0  0
 15 59  1  0  0  0  0
 16 27  1  0  0  0  0
 17 27  1  0  0  0  0
 17 29  2  0  0  0  0
 17 31  1  0  0  0  0
 18 20  2  0  0  0  0
 18 36  1  0  0  0  0
 19 21  2  0  0  0  0
 19 37  1  0  0  0  0
 20 45  1  0  0  0  0
 21 38  1  0  0  0  0
 22 76  1  0  0  0  0
 23 77  1  0  0  0  0
 24 26  2  0  0  0  0
 24 76  1  0  0  0  0
 25 78  1  0  0  0  0
 26 79  1  0  0  0  0
 27 60  2  0  0  0  0
 28 54  1  0  0  0  0
 28 81  1  0  0  0  0
 29 61  1  0  0  0  0
 29 64  1  0  0  0  0
 30 59  2  0  0  0  0
 30 66  1  0  0  0  0
 30 81  1  0  0  0  0
 31 65  1  0  0  0  0
 31 70  2  0  0  0  0
 32 46  1  0  0  0  0
 32 67  1  0  0  0  0
 32 71  2  0  0  0  0
 33 55  1  0  0  0  0
 33 62  1  0  0  0  0
 33 72  2  0  0  0  0
 34 56  1  0  0  0  0
 34 68  1  0  0  0  0
 34 73  2  0  0  0  0
 35 63  1  0  0  0  0
 35 66  1  0  0  0  0
 35 74  2  0  0  0  0
 36 39  1  0  0  0  0
 37 46  1  0  0  0  0
 38 62  1  0  0  0  0
 39 41  1  0  0  0  0
 40 42  1  0  0  0  0
 40 43  1  0  0  0  0
 41 45  1  0  0  0  0
 42 47  1  0  0  0  0
 43 63  1  0  0  0  0
 44 47  1  0  0  0  0
 44 63  1  0  0  0  0
 45 67  1  0  0  0  0
 46 62  1  0  0  0  0
 47 61  1  0  0  0  0
 48 56  1  0  0  0  0
 49 58  1  0  0  0  0
 50 58  1  0  0  0  0
 51 58  1  0  0  0  0
 52 69  1  0  0  0  0
 53 57  1  0  0  0  0
 53 77  1  0  0  0  0
 54 57  1  0  0  0  0
 54 80  1  0  0  0  0
 55 58  1  0  0  0  0
 55 68  1  0  0  0  0
 56 69  1  0  0  0  0
 57 75  1  0  0  0  0
 60 61  1  0  0  0  0
M  CHG  1  69   1
M  ISO  4  35 100  53 101  66 100  77 101
M  END
> <Batch ID>
0188

> <Smiles>
CNC(C)C(=O)NC(C(=O)N1Cc2cc([101O:1][101CH2:1]C(O)C(F)c3cnc([100NH:0][100C:0](=O)N4CCCC(n5nc(-c6ccc(Oc7ccc(F)cc7F)cc6)c(C(N)=O)c5N)C4)s3)ccc2CC1C(=O)NC1CCCc2ccccc21)C(C)(C)C

> <Shape>
0.261

> <Color>
0.098

> <Negative vol penalty>
0.000

$$$$

  -OEChem-04052305153D

 81 89  0     1  0  0  0  0  0999 V2000
  -28.1485  -24.0420   17.2000 C   0  0  0  0  0  0  0  0  0  0  0  0
  -26.9771  -24.2572   17.9189 C   0  0  0  0  0  0  0  0  0  0  0  0
  -24.6317  -14.3044   20.6101 C   0  0  0  0  0  0  0  0  0  0  0  0
  -22.4406  -15.2560   20.9714 C   0  0  0  0  0  0  0  0  0  0  0  0
  -29.3426  -24.6228   17.6252 C   0  0  0  0  0  0  0  0  0  0  0  0
  -26.9993  -25.0524   19.0642 C   0  0  0  0  0  0  0  0  0  0  0  0
  -23.1331  -28.3186   19.2365 C   0  0  0  0  0  0  0  0  0  0  0  0
  -24.2241  -13.1274   21.2379 C   0  0  0  0  0  0  0  0  0  0  0  0
  -22.0330  -14.0790   21.5991 C   0  0  0  0  0  0  0  0  0  0  0  0
  -21.8907  -27.8150   19.6191 C   0  0  0  0  0  0  0  0  0  0  0  0
  -23.6498   -9.7395   22.4243 C   0  0  0  0  0  0  0  0  0  0  0  0
  -23.9886   -8.5301   21.8176 C   0  0  0  0  0  0  0  0  0  0  0  0
  -22.2344  -28.6755   21.8463 C   0  0  0  0  0  0  0  0  0  0  0  0
  -22.7505   -9.1728   19.8450 C   0  0  0  0  0  0  0  0  0  0  0  0
  -23.0728  -24.9537   22.8923 C   0  0  0  0  0  0  0  0  0  0  0  0
  -21.4559  -23.5402   22.4205 C   0  0  0  0  0  0  0  0  0  0  0  0
  -23.7400  -15.3687   20.4769 C   0  0  0  0  0  0  0  0  0  0  0  0
  -24.0687  -16.8940   18.4587 C   0  0  0  0  0  0  0  0  0  0  0  0
  -29.3775  -25.4334   18.7708 C   0  0  0  0  0  0  0  0  0  0  0  0
  -23.9417  -28.9962   20.1604 C   0  0  0  0  0  0  0  0  0  0  0  0
  -28.1952  -25.6435   19.5058 C   0  0  0  0  0  0  0  0  0  0  0  0
  -23.4856  -29.1891   21.4722 C   0  0  0  0  0  0  0  0  0  0  0  0
  -22.8253  -23.6329   22.4728 C   0  0  0  0  0  0  0  0  0  0  0  0
  -22.9247  -13.0146   21.7324 C   0  0  0  0  0  0  0  0  0  0  0  0
  -21.4423  -27.9909   20.9249 C   0  0  0  0  0  0  0  0  0  0  0  0
  -22.8613  -10.6656   21.7414 C   0  0  0  0  0  0  0  0  0  0  0  0
  -23.5389   -8.2467   20.5280 C   0  0  0  0  0  0  0  0  0  0  0  0
  -22.4117  -10.3822   20.4518 C   0  0  0  0  0  0  0  0  0  0  0  0
  -24.1607  -16.5850   19.8291 C   0  0  0  0  0  0  0  0  0  0  0  0
  -24.5991  -18.1567   18.3550 C   0  0  0  0  0  0  0  0  0  0  0  0
  -23.5501  -16.1097   17.3763 C   0  0  0  0  0  0  0  0  0  0  0  0
  -26.8250  -28.5023   21.4038 C   0  0  0  0  0  0  0  0  0  0  0  0
  -26.3262  -31.4215   22.7275 C   0  0  0  0  0  0  0  0  0  0  0  0
  -24.0989  -33.7925   23.7592 C   0  0  0  0  0  0  0  0  0  0  0  0
  -25.1450  -22.6847   22.2156 C   0  0  0  0  0  0  0  0  0  0  0  0
  -30.7012  -26.0012   19.2181 C   0  0  0  0  0  0  0  0  0  0  0  0
  -25.2677  -29.5567   19.7248 C   0  0  0  0  0  0  0  0  0  0  0  0
  -24.3066  -29.9269   22.4968 C   0  0  0  0  0  0  0  0  0  0  0  0
  -30.5664  -27.1359   20.2304 C   0  0  0  0  0  0  0  0  0  0  0  0
  -27.7767  -21.0668   20.4453 C   0  0  0  0  0  0  0  0  0  0  0  0
  -29.5712  -26.7604   21.3237 C   0  0  0  0  0  0  0  0  0  0  0  0
  -27.1379  -19.7648   19.9565 C   0  0  0  0  0  0  0  0  0  0  0  0
  -27.2729  -21.4596   21.8330 C   0  0  0  0  0  0  0  0  0  0  0  0
  -25.1732  -20.2204   21.4795 C   0  0  0  0  0  0  0  0  0  0  0  0
  -28.1740  -26.5201   20.7392 C   0  0  1  0  0  0  0  0  0  0  0  0
  -26.2316  -29.7818   20.8857 C   0  0  1  0  0  0  0  0  0  0  0  0
  -25.6009  -19.8181   20.0586 C   0  0  2  0  0  0  0  0  0  0  0  0
  -23.9895  -36.0567   24.8356 C   0  0  0  0  0  0  0  0  0  0  0  0
  -26.9483  -30.1613   25.4357 C   0  0  0  0  0  0  0  0  0  0  0  0
  -25.9167  -32.1647   26.5267 C   0  0  0  0  0  0  0  0  0  0  0  0
  -27.9381  -32.4318   25.0895 C   0  0  0  0  0  0  0  0  0  0  0  0
  -18.3768  -24.2226   20.8864 C   0  0  0  0  0  0  0  0  0  0  0  0
  -22.7649  -34.9785   21.3985 C   0  0  0  0  0  0  0  0  0  0  0  0
  -19.5347  -25.1715   22.9025 C   0  0  0  0  0  0  0  0  0  0  0  0
  -19.7686  -26.3270   20.6319 C   0  0  0  0  0  0  0  0  0  1  0  0
  -25.7090  -31.9220   24.0110 C   0  0  1  0  0  0  0  0  0  0  0  0
  -24.0411  -35.2909   23.5227 C   0  0  2  0  0  0  0  0  0  0  0  0
  -26.6132  -31.6543   25.2472 C   0  0  0  0  0  0  0  0  0  0  0  0
  -18.8618  -25.5091   21.5574 C   0  0  1  0  0  0  0  0  0  0  0  0
  -21.9507  -25.6501   23.0921 N   0  0  0  0  0  0  0  0  0  0  0  0
  -24.7068  -17.5719   20.5446 N   0  0  0  0  0  0  0  0  0  0  0  0
  -20.9849  -24.7636   22.7968 N   0  0  0  0  0  0  0  0  0  0  0  0
  -24.9627  -18.5133   19.6203 N   0  0  0  0  0  0  0  0  0  0  0  0
  -25.5988  -30.4508   22.0242 N   0  0  0  0  0  0  0  0  0  0  0  0
  -25.8089  -21.4937   21.8529 N   0  0  0  0  0  0  0  0  0  0  0  0
  -24.7854  -18.9856   17.3060 N   0  0  0  0  0  0  0  0  0  0  0  0
  -23.0434  -14.8338   17.6585 N   0  0  0  0  0  0  0  0  0  0  0  0
  -23.7535  -22.6070   22.1667 N   0  0  0  0  0  0  0  0  0  0  0  0
  -27.5219  -27.7802   20.4539 N   0  0  0  0  0  0  0  0  0  0  0  0
  -25.3976  -33.3304   23.7922 N   0  0  0  0  0  0  0  0  0  0  0  0
  -22.8324  -35.6432   22.7253 N   0  3  0  0  0  0  0  0  0  0  0  0
  -23.5516  -16.5214   16.1914 O   0  0  0  0  0  0  0  0  0  0  0  0
  -26.6638  -28.1939   22.5788 O   0  0  0  0  0  0  0  0  0  0  0  0
  -27.4102  -31.8802   22.3586 O   0  0  0  0  0  0  0  0  0  0  0  0
  -23.0928  -33.1017   23.9040 O   0  0  0  0  0  0  0  0  0  0  0  0
  -25.7655  -23.7069   22.5189 O   0  0  0  0  0  0  0  0  0  0  0  0
  -22.5265  -11.8662   22.3448 O   0  0  0  0  0  0  0  0  0  0  0  0
  -20.2303  -27.4997   21.3011 O   0  0  0  0  0  0  0  0  0  1  0  0
  -23.8656   -7.0859   19.9449 F   0  0  0  0  0  0  0  0  0  0  0  0
  -21.6548  -11.2685   19.7902 F   0  0  0  0  0  0  0  0  0  0  0  0
  -17.7485  -26.2606   21.8165 F   0  0  0  0  0  0  0  0  0  0  0  0
  1  2  1  0  0  0  0
  1  5  2  0  0  0  0
  2  6  2  0  0  0  0
  3  8  2  0  0  0  0
  3 17  1  0  0  0  0
  4  9  1  0  0  0  0
  4 17  2  0  0  0  0
  5 19  1  0  0  0  0
  6 21  1  0  0  0  0
  7 10  2  0  0  0  0
  7 20  1  0  0  0  0
  8 24  1  0  0  0  0
  9 24  2  0  0  0  0
 10 25  1  0  0  0  0
 11 12  2  0  0  0  0
 11 26  1  0  0  0  0
 12 27  1  0  0  0  0
 13 22  1  0  0  0  0
 13 25  2  0  0  0  0
 14 27  2  0  0  0  0
 14 28  1  0  0  0  0
 15 23  1  0  0  0  0
 15 60  2  0  0  0  0
 16 23  2  0  0  0  0
 16 62  1  0  0  0  0
 17 29  1  0  0  0  0
 18 29  1  0  0  0  0
 18 30  2  0  0  0  0
 18 31  1  0  0  0  0
 19 21  2  0  0  0  0
 19 36  1  0  0  0  0
 20 22  2  0  0  0  0
 20 37  1  0  0  0  0
 21 45  1  0  0  0  0
 22 38  1  0  0  0  0
 23 68  1  0  0  0  0
 24 77  1  0  0  0  0
 25 78  1  0  0  0  0
 26 28  2  0  0  0  0
 26 77  1  0  0  0  0
 27 79  1  0  0  0  0
 28 80  1  0  0  0  0
 29 61  2  0  0  0  0
 30 63  1  0  0  0  0
 30 66  1  0  0  0  0
 31 67  1  0  0  0  0
 31 72  2  0  0  0  0
 32 46  1  0  0  0  0
 32 69  1  0  0  0  0
 32 73  2  0  0  0  0
 33 56  1  0  0  0  0
 33 64  1  0  0  0  0
 33 74  2  0  0  0  0
 34 57  1  0  0  0  0
 34 70  1  0  0  0  0
 34 75  2  0  0  0  0
 35 65  1  0  0  0  0
 35 68  1  0  0  0  0
 35 76  2  0  0  0  0
 36 39  1  0  0  0  0
 37 46  1  0  0  0  0
 38 64  1  0  0  0  0
 39 41  1  0  0  0  0
 40 42  1  0  0  0  0
 40 43  1  0  0  0  0
 41 45  1  0  0  0  0
 42 47  1  0  0  0  0
 43 65  1  0  0  0  0
 44 47  1  0  0  0  0
 44 65  1  0  0  0  0
 45 69  1  0  0  0  0
 46 64  1  0  0  0  0
 47 63  1  0  0  0  0
 48 57  1  0  0  0  0
 49 58  1  0  0  0  0
 50 58  1  0  0  0  0
 51 58  1  0  0  0  0
 52 59  1  0  0  0  0
 53 71  1  0  0  0  0
 54 59  1  0  0  0  0
 54 62  1  0  0  0  0
 55 59  1  0  0  0  0
 55 78  1  0  0  0  0
 56 58  1  0  0  0  0
 56 70  1  0  0  0  0
 57 71  1  0  0  0  0
 59 81  1  0  0  0  0
 60 62  1  0  0  0  0
 61 63  1  0  0  0  0
M  CHG  1  71   1
M  ISO  4  35 100  55 101  68 100  78 101
M  END
> <Batch ID>
0188

> <Smiles>
CNC(C)C(=O)NC(C(=O)N1Cc2cc([101O:1][101CH2:1]C(C)(F)Cn3cc([100NH:0][100C:0](=O)N4CCCC(n5nc(-c6ccc(Oc7ccc(F)cc7F)cc6)c(C(N)=O)c5N)C4)cn3)ccc2CC1C(=O)NC1CCCc2ccccc21)C(C)(C)C

> <Shape>
0.285

> <Color>
0.069

> <Negative vol penalty>
0.000

$$$$

  -OEChem-04052305153D

 83 91  0     1  0  0  0  0  0999 V2000
  -31.2294  -20.6407   12.5124 C   0  0  0  0  0  0  0  0  0  0  0  0
  -30.6689  -20.4923   13.7770 C   0  0  0  0  0  0  0  0  0  0  0  0
  -23.0070   -9.8881   19.9756 C   0  0  0  0  0  0  0  0  0  0  0  0
  -23.7343   -9.9352   22.2790 C   0  0  0  0  0  0  0  0  0  0  0  0
  -32.2814  -21.5348   12.3180 C   0  0  0  0  0  0  0  0  0  0  0  0
  -31.1609  -21.2371   14.8483 C   0  0  0  0  0  0  0  0  0  0  0  0
  -27.9487  -23.4821   19.5544 C   0  0  0  0  0  0  0  0  0  0  0  0
  -22.2444   -8.7504   20.2396 C   0  0  0  0  0  0  0  0  0  0  0  0
  -22.9717   -8.7975   22.5431 C   0  0  0  0  0  0  0  0  0  0  0  0
  -27.7500  -23.0262   20.8569 C   0  0  0  0  0  0  0  0  0  0  0  0
  -23.2262   -5.4607   22.0619 C   0  0  0  0  0  0  0  0  0  0  0  0
  -23.8178   -4.4434   22.8107 C   0  0  0  0  0  0  0  0  0  0  0  0
  -29.5314  -24.4604   21.6243 C   0  0  0  0  0  0  0  0  0  0  0  0
  -22.0948   -4.6762   24.4883 C   0  0  0  0  0  0  0  0  0  0  0  0
  -23.7521  -10.4805   20.9953 C   0  0  0  0  0  0  0  0  0  0  0  0
  -24.1291  -12.9977   20.8257 C   0  0  0  0  0  0  0  0  0  0  0  0
  -32.7801  -22.2981   13.3855 C   0  0  0  0  0  0  0  0  0  0  0  0
  -28.9492  -24.4241   19.2749 C   0  0  0  0  0  0  0  0  0  0  0  0
  -32.2214  -22.1413   14.6683 C   0  0  0  0  0  0  0  0  0  0  0  0
  -29.7390  -24.9286   20.3179 C   0  0  0  0  0  0  0  0  0  0  0  0
  -22.2267   -8.2052   21.5233 C   0  0  0  0  0  0  0  0  0  0  0  0
  -28.5433  -23.5131   21.8916 C   0  0  0  0  0  0  0  0  0  0  0  0
  -22.0690   -6.0859   22.5263 C   0  0  0  0  0  0  0  0  0  0  0  0
  -23.2521   -4.0511   24.0239 C   0  0  0  0  0  0  0  0  0  0  0  0
  -21.5033   -5.6936   23.7395 C   0  0  0  0  0  0  0  0  0  0  0  0
  -24.5405  -11.6553   20.7230 C   0  0  0  0  0  0  0  0  0  0  0  0
  -31.8267  -18.6800   22.2195 C   0  0  0  0  0  0  0  0  0  0  0  0
  -25.2362  -13.7249   20.4621 C   0  0  0  0  0  0  0  0  0  0  0  0
  -30.7197  -19.0776   22.9396 C   0  0  0  0  0  0  0  0  0  0  0  0
  -30.5697  -16.9123   21.8948 C   0  0  0  0  0  0  0  0  0  0  0  0
  -22.8598  -13.5390   21.2149 C   0  0  0  0  0  0  0  0  0  0  0  0
  -31.5777  -24.4412   17.4876 C   0  0  0  0  0  0  0  0  0  0  0  0
  -31.6620  -27.5720   18.3322 C   0  0  0  0  0  0  0  0  0  0  0  0
  -30.7565  -29.9988   20.5544 C   0  0  0  0  0  0  0  0  0  0  0  0
  -29.2667  -20.5457   24.3786 C   0  0  0  0  0  0  0  0  0  0  0  0
  -30.7128  -14.7027   20.6933 C   0  0  0  0  0  0  0  0  0  0  0  0
  -33.9499  -23.2170   13.1366 C   0  0  0  0  0  0  0  0  0  0  0  0
  -29.1331  -24.9257   17.8689 C   0  0  0  0  0  0  0  0  0  0  0  0
  -30.8131  -25.9559   20.0737 C   0  0  0  0  0  0  0  0  0  0  0  0
  -34.1648  -24.2436   14.2458 C   0  0  0  0  0  0  0  0  0  0  0  0
  -29.6000  -12.2527   18.3617 C   0  0  0  0  0  0  0  0  0  0  0  0
  -34.0918  -23.5739   15.6144 C   0  0  0  0  0  0  0  0  0  0  0  0
  -28.1507  -11.9893   18.7766 C   0  0  0  0  0  0  0  0  0  0  0  0
  -30.5010  -12.4957   19.5713 C   0  0  0  0  0  0  0  0  0  0  0  0
  -28.5845  -13.2748   20.9089 C   0  0  0  0  0  0  0  0  0  0  0  0
  -32.7111  -22.9496   15.8502 C   0  0  1  0  0  0  0  0  0  0  0  0
  -30.5226  -25.5031   17.6174 C   0  0  1  0  0  0  0  0  0  0  0  0
  -27.6262  -13.0886   19.7212 C   0  0  2  0  0  0  0  0  0  0  0  0
  -33.0708  -19.4559   22.0390 C   0  0  0  0  0  0  0  0  0  0  0  0
  -31.0056  -32.4562   20.9976 C   0  0  0  0  0  0  0  0  0  0  0  0
  -34.5198  -27.1063   19.2945 C   0  0  0  0  0  0  0  0  0  0  0  0
  -34.3721  -29.2634   20.5569 C   0  0  0  0  0  0  0  0  0  0  0  0
  -34.1689  -29.2589   18.0707 C   0  0  0  0  0  0  0  0  0  0  0  0
  -27.8355  -30.4435   20.3849 C   0  0  0  0  0  0  0  0  0  0  0  0
  -29.4926  -23.0421   24.0207 C   0  0  0  0  0  0  0  0  0  1  0  0
  -32.2675  -28.3561   19.4713 C   0  0  1  0  0  0  0  0  0  0  0  0
  -30.1522  -31.3764   20.3507 C   0  0  2  0  0  0  0  0  0  0  0  0
  -29.3475  -21.9196   25.0426 C   0  0  1  0  0  0  0  0  0  0  0  0
  -33.8132  -28.4754   19.3530 C   0  0  0  0  0  0  0  0  0  0  0  0
  -25.8098  -11.5340   20.3252 N   0  0  0  0  0  0  0  0  0  0  0  0
  -31.7426  -17.4385   21.6200 N   0  0  0  0  0  0  0  0  0  0  0  0
  -26.2055  -12.8094   20.1747 N   0  0  0  0  0  0  0  0  0  0  0  0
  -30.9585  -26.4104   18.6809 N   0  0  0  0  0  0  0  0  0  0  0  0
  -29.9434  -13.5525   20.4181 N   0  0  0  0  0  0  0  0  0  0  0  0
  -25.4653  -15.0516   20.3634 N   0  0  0  0  0  0  0  0  0  0  0  0
  -21.8312  -12.6507   21.5571 N   0  0  0  0  0  0  0  0  0  0  0  0
  -30.4303  -20.2507   23.6764 N   0  0  0  0  0  0  0  0  0  0  0  0
  -30.0663  -15.6537   21.4822 N   0  0  0  0  0  0  0  0  0  0  0  0
  -31.7475  -23.9714   16.1993 N   0  0  0  0  0  0  0  0  0  0  0  0
  -31.5699  -29.6371   19.5014 N   0  0  0  0  0  0  0  0  0  0  0  0
  -28.7873  -31.4365   20.9461 N   0  3  0  0  0  0  0  0  0  0  0  0
  -22.6392  -14.7736   21.2422 O   0  0  0  0  0  0  0  0  0  0  0  0
  -32.1933  -24.0763   18.4824 O   0  0  0  0  0  0  0  0  0  0  0  0
  -31.8017  -27.9792   17.1762 O   0  0  0  0  0  0  0  0  0  0  0  0
  -30.5325  -29.3137   21.5499 O   0  0  0  0  0  0  0  0  0  0  0  0
  -28.2738  -19.8350   24.5064 O   0  0  0  0  0  0  0  0  0  0  0  0
  -31.8506  -14.8465   20.2385 O   0  0  0  0  0  0  0  0  0  0  0  0
  -28.1733  -22.1483   25.8053 O   0  0  0  0  0  0  0  0  0  0  0  0
  -21.4824   -7.0952   21.7814 O   0  0  0  0  0  0  0  0  0  0  0  0
  -28.3519  -23.0693   23.1637 O   0  0  0  0  0  0  0  0  0  1  0  0
  -23.8193   -3.0731   24.7421 F   0  0  0  0  0  0  0  0  0  0  0  0
  -20.3909   -6.2897   24.1902 F   0  0  0  0  0  0  0  0  0  0  0  0
  -29.5179  -17.8561   22.8685 S   0  0  0  0  0  0  0  0  0  0  0  0
  1  2  1  0  0  0  0
  1  5  2  0  0  0  0
  2  6  2  0  0  0  0
  3  8  2  0  0  0  0
  3 15  1  0  0  0  0
  4  9  1  0  0  0  0
  4 15  2  0  0  0  0
  5 17  1  0  0  0  0
  6 19  1  0  0  0  0
  7 10  2  0  0  0  0
  7 18  1  0  0  0  0
  8 21  1  0  0  0  0
  9 21  2  0  0  0  0
 10 22  1  0  0  0  0
 11 12  2  0  0  0  0
 11 23  1  0  0  0  0
 12 24  1  0  0  0  0
 13 20  1  0  0  0  0
 13 22  2  0  0  0  0
 14 24  2  0  0  0  0
 14 25  1  0  0  0  0
 15 26  1  0  0  0  0
 16 26  1  0  0  0  0
 16 28  2  0  0  0  0
 16 31  1  0  0  0  0
 17 19  2  0  0  0  0
 17 37  1  0  0  0  0
 18 20  2  0  0  0  0
 18 38  1  0  0  0  0
 19 46  1  0  0  0  0
 20 39  1  0  0  0  0
 21 79  1  0  0  0  0
 22 80  1  0  0  0  0
 23 25  2  0  0  0  0
 23 79  1  0  0  0  0
 24 81  1  0  0  0  0
 25 82  1  0  0  0  0
 26 60  2  0  0  0  0
 27 29  2  0  0  0  0
 27 49  1  0  0  0  0
 27 61  1  0  0  0  0
 28 62  1  0  0  0  0
 28 65  1  0  0  0  0
 29 67  1  0  0  0  0
 29 83  1  0  0  0  0
 30 61  2  0  0  0  0
 30 68  1  0  0  0  0
 30 83  1  0  0  0  0
 31 66  1  0  0  0  0
 31 72  2  0  0  0  0
 32 47  1  0  0  0  0
 32 69  1  0  0  0  0
 32 73  2  0  0  0  0
 33 56  1  0  0  0  0
 33 63  1  0  0  0  0
 33 74  2  0  0  0  0
 34 57  1  0  0  0  0
 34 70  1  0  0  0  0
 34 75  2  0  0  0  0
 35 58  1  0  0  0  0
 35 67  1  0  0  0  0
 35 76  2  0  0  0  0
 36 64  1  0  0  0  0
 36 68  1  0  0  0  0
 36 77  2  0  0  0  0
 37 40  1  0  0  0  0
 38 47  1  0  0  0  0
 39 63  1  0  0  0  0
 40 42  1  0  0  0  0
 41 43  1  0  0  0  0
 41 44  1  0  0  0  0
 42 46  1  0  0  0  0
 43 48  1  0  0  0  0
 44 64  1  0  0  0  0
 45 48  1  0  0  0  0
 45 64  1  0  0  0  0
 46 69  1  0  0  0  0
 47 63  1  0  0  0  0
 48 62  1  0  0  0  0
 50 57  1  0  0  0  0
 51 59  1  0  0  0  0
 52 59  1  0  0  0  0
 53 59  1  0  0  0  0
 54 71  1  0  0  0  0
 55 58  1  0  0  0  0
 55 80  1  0  0  0  0
 56 59  1  0  0  0  0
 56 70  1  0  0  0  0
 57 71  1  0  0  0  0
 58 78  1  0  0  0  0
 60 62  1  0  0  0  0
M  CHG  1  71   1
M  ISO  4  36 100  55 101  68 100  80 101
M  END
> <Batch ID>
0188

> <Smiles>
CNC(C)C(=O)NC(C(=O)N1Cc2cc([101O:1][101CH2:1]C(O)C(=O)Nc3sc([100NH:0][100C:0](=O)N4CCCC(n5nc(-c6ccc(Oc7ccc(F)cc7F)cc6)c(C(N)=O)c5N)C4)nc3C)ccc2CC1C(=O)NC1CCCc2ccccc21)C(C)(C)C

> <Shape>
0.243

> <Color>
0.186

> <Negative vol penalty>
0.000

$$$$

  -OEChem-04052305153D

 84 92  0     1  0  0  0  0  0999 V2000
  -25.7561  -11.0357   20.9678 C   0  0  0  0  0  0  0  0  0  0  0  0
  -26.8083  -11.9342   20.8228 C   0  0  0  0  0  0  0  0  0  0  0  0
  -20.1716  -28.7339   22.9723 C   0  0  0  0  0  0  0  0  0  0  0  0
  -21.2022  -26.5825   22.5897 C   0  0  0  0  0  0  0  0  0  0  0  0
  -24.4564  -11.4291   20.6514 C   0  0  0  0  0  0  0  0  0  0  0  0
  -26.5616  -13.2263   20.3601 C   0  0  0  0  0  0  0  0  0  0  0  0
  -28.9129  -19.9553   21.0727 C   0  0  0  0  0  0  0  0  0  0  0  0
  -19.0424  -28.3186   22.2666 C   0  0  0  0  0  0  0  0  0  0  0  0
  -20.0730  -26.1671   21.8840 C   0  0  0  0  0  0  0  0  0  0  0  0
  -29.3432  -21.0333   20.3004 C   0  0  0  0  0  0  0  0  0  0  0  0
  -16.9635  -25.0515   22.5961 C   0  0  0  0  0  0  0  0  0  0  0  0
  -16.4598  -23.7804   22.8723 C   0  0  0  0  0  0  0  0  0  0  0  0
  -27.0468  -21.6266   19.8600 C   0  0  0  0  0  0  0  0  0  0  0  0
  -16.8108  -23.1409   20.5691 C   0  0  0  0  0  0  0  0  0  0  0  0
  -31.3406  -29.9232   17.4995 C   0  0  0  0  0  0  0  0  0  0  0  0
  -21.2515  -27.8659   23.1338 C   0  0  0  0  0  0  0  0  0  0  0  0
  -22.6545  -28.1619   25.2437 C   0  0  0  0  0  0  0  0  0  0  0  0
  -24.1923  -12.7297   20.1938 C   0  0  0  0  0  0  0  0  0  0  0  0
  -27.5441  -19.6980   21.2358 C   0  0  0  0  0  0  0  0  0  0  0  0
  -25.2574  -13.6370   20.0360 C   0  0  0  0  0  0  0  0  0  0  0  0
  -26.6017  -20.5462   20.6369 C   0  0  0  0  0  0  0  0  0  0  0  0
  -31.2664  -30.2753   18.8318 C   0  0  0  0  0  0  0  0  0  0  0  0
  -18.9931  -27.0351   21.7225 C   0  0  0  0  0  0  0  0  0  0  0  0
  -28.4102  -21.8675   19.6915 C   0  0  0  0  0  0  0  0  0  0  0  0
  -17.3908  -25.3673   21.3064 C   0  0  0  0  0  0  0  0  0  0  0  0
  -16.3835  -22.8251   21.8588 C   0  0  0  0  0  0  0  0  0  0  0  0
  -17.3144  -24.4120   20.2929 C   0  0  0  0  0  0  0  0  0  0  0  0
  -22.4184  -28.2946   23.8622 C   0  0  0  0  0  0  0  0  0  0  0  0
  -31.0071  -29.2421   19.7089 C   0  0  0  0  0  0  0  0  0  0  0  0
  -23.8944  -28.7208   25.4354 C   0  0  0  0  0  0  0  0  0  0  0  0
  -30.9285  -27.7446   18.0005 C   0  0  0  0  0  0  0  0  0  0  0  0
  -21.8271  -27.5848   26.2626 C   0  0  0  0  0  0  0  0  0  0  0  0
  -25.6110  -17.2865   20.4932 C   0  0  0  0  0  0  0  0  0  0  0  0
  -23.4384  -19.0272   22.1581 C   0  0  0  0  0  0  0  0  0  0  0  0
  -30.4862  -25.2888   18.3436 C   0  0  0  0  0  0  0  0  0  0  0  0
  -22.4485  -22.0798   23.3196 C   0  0  0  0  0  0  0  0  0  0  0  0
  -28.5072  -29.3961   21.8130 C   0  0  0  0  0  0  0  0  0  0  0  0
  -22.7776  -13.0942   19.8194 C   0  0  0  0  0  0  0  0  0  0  0  0
  -27.0960  -18.5468   22.0939 C   0  0  0  0  0  0  0  0  0  0  0  0
  -25.1206  -20.3251   20.7976 C   0  0  0  0  0  0  0  0  0  0  0  0
  -22.5495  -14.5982   19.6918 C   0  0  0  0  0  0  0  0  0  0  0  0
  -26.8262  -32.0413   23.6226 C   0  0  0  0  0  0  0  0  0  0  0  0
  -23.6670  -15.2402   18.8758 C   0  0  0  0  0  0  0  0  0  0  0  0
  -25.5185  -31.3543   24.0204 C   0  0  0  0  0  0  0  0  0  0  0  0
  -27.2756  -31.6102   22.2296 C   0  0  0  0  0  0  0  0  0  0  0  0
  -26.1137  -29.4484   22.4541 C   0  0  0  0  0  0  0  0  0  0  0  0
  -25.0265  -15.0550   19.5606 C   0  0  1  0  0  0  0  0  0  0  0  0
  -25.6817  -18.0752   21.7701 C   0  0  1  0  0  0  0  0  0  0  0  0
  -25.6180  -29.8255   23.8620 C   0  0  2  0  0  0  0  0  0  0  0  0
  -20.6111  -23.1927   24.6167 C   0  0  0  0  0  0  0  0  0  0  0  0
  -21.6107  -18.8441   19.7217 C   0  0  0  0  0  0  0  0  0  0  0  0
  -20.2549  -20.7155   20.6850 C   0  0  0  0  0  0  0  0  0  0  0  0
  -20.4518  -18.5566   21.9192 C   0  0  0  0  0  0  0  0  0  0  0  0
  -24.3235  -22.9841   25.4232 C   0  0  0  0  0  0  0  0  0  0  0  0
  -30.9031  -29.5015   21.1762 C   0  0  0  0  0  0  0  0  0  0  0  0
  -30.3676  -24.0458   17.4692 C   0  0  0  0  0  0  0  0  0  0  0  0
  -30.0783  -22.7814   18.2639 C   0  0  0  0  0  0  0  0  0  1  0  0
  -22.4442  -20.1093   21.8123 C   0  0  1  0  0  0  0  0  0  0  0  0
  -21.9788  -22.5320   24.6904 C   0  0  2  0  0  0  0  0  0  0  0  0
  -21.2182  -19.5597   21.0297 C   0  0  0  0  0  0  0  0  0  0  0  0
  -31.1762  -28.6628   17.0471 N   0  0  0  0  0  0  0  0  0  0  0  0
  -23.4273  -28.8912   23.2217 N   0  0  0  0  0  0  0  0  0  0  0  0
  -30.8319  -27.9601   19.3263 N   0  0  0  0  0  0  0  0  0  0  0  0
  -24.3093  -29.1384   24.2051 N   0  0  0  0  0  0  0  0  0  0  0  0
  -24.7323  -19.1826   21.6411 N   0  0  0  0  0  0  0  0  0  0  0  0
  -27.3681  -30.1455   22.1511 N   0  0  0  0  0  0  0  0  0  0  0  0
  -31.4455  -31.6005   19.2458 N   0  0  0  0  0  0  0  0  0  0  0  0
  -24.6593  -28.8909   26.5347 N   0  0  0  0  0  0  0  0  0  0  0  0
  -20.5831  -27.0555   25.8928 N   0  0  0  0  0  0  0  0  0  0  0  0
  -30.7505  -26.4107   17.5625 N   0  0  0  0  0  0  0  0  0  0  0  0
  -25.1707  -15.9871   20.6583 N   0  0  0  0  0  0  0  0  0  0  0  0
  -22.1045  -20.7683   23.0688 N   0  0  0  0  0  0  0  0  0  0  0  0
  -29.6520  -30.1324   21.5336 N   0  0  0  0  0  0  0  0  0  0  0  0
  -22.9422  -23.5094   25.2716 N   0  3  0  0  0  0  0  0  0  0  0  0
  -22.1733  -27.5547   27.4679 O   0  0  0  0  0  0  0  0  0  0  0  0
  -25.9307  -17.8179   19.4363 O   0  0  0  0  0  0  0  0  0  0  0  0
  -23.0820  -18.0827   22.8670 O   0  0  0  0  0  0  0  0  0  0  0  0
  -30.3573  -25.2442   19.5625 O   0  0  0  0  0  0  0  0  0  0  0  0
  -23.0562  -22.8174   22.5468 O   0  0  0  0  0  0  0  0  0  0  0  0
  -28.5057  -28.1611   21.7686 O   0  0  0  0  0  0  0  0  0  0  0  0
  -17.8913  -26.6294   21.0340 O   0  0  0  0  0  0  0  0  0  0  0  0
  -28.8274  -22.9201   18.9366 O   0  0  0  0  0  0  0  0  0  1  0  0
  -15.9012  -21.6040   22.1245 F   0  0  0  0  0  0  0  0  0  0  0  0
  -17.7245  -24.7092   19.0522 F   0  0  0  0  0  0  0  0  0  0  0  0
  1  2  1  0  0  0  0
  1  5  2  0  0  0  0
  2  6  2  0  0  0  0
  3  8  2  0  0  0  0
  3 16  1  0  0  0  0
  4  9  1  0  0  0  0
  4 16  2  0  0  0  0
  5 18  1  0  0  0  0
  6 20  1  0  0  0  0
  7 10  2  0  0  0  0
  7 19  1  0  0  0  0
  8 23  1  0  0  0  0
  9 23  2  0  0  0  0
 10 24  1  0  0  0  0
 11 12  2  0  0  0  0
 11 25  1  0  0  0  0
 12 26  1  0  0  0  0
 13 21  1  0  0  0  0
 13 24  2  0  0  0  0
 14 26  2  0  0  0  0
 14 27  1  0  0  0  0
 15 22  1  0  0  0  0
 15 61  2  0  0  0  0
 16 28  1  0  0  0  0
 17 28  1  0  0  0  0
 17 30  2  0  0  0  0
 17 32  1  0  0  0  0
 18 20  2  0  0  0  0
 18 38  1  0  0  0  0
 19 21  2  0  0  0  0
 19 39  1  0  0  0  0
 20 47  1  0  0  0  0
 21 40  1  0  0  0  0
 22 29  2  0  0  0  0
 22 67  1  0  0  0  0
 23 81  1  0  0  0  0
 24 82  1  0  0  0  0
 25 27  2  0  0  0  0
 25 81  1  0  0  0  0
 26 83  1  0  0  0  0
 27 84  1  0  0  0  0
 28 62  2  0  0  0  0
 29 55  1  0  0  0  0
 29 63  1  0  0  0  0
 30 64  1  0  0  0  0
 30 68  1  0  0  0  0
 31 61  1  0  0  0  0
 31 63  2  0  0  0  0
 31 70  1  0  0  0  0
 32 69  1  0  0  0  0
 32 75  2  0  0  0  0
 33 48  1  0  0  0  0
 33 71  1  0  0  0  0
 33 76  2  0  0  0  0
 34 58  1  0  0  0  0
 34 65  1  0  0  0  0
 34 77  2  0  0  0  0
 35 56  1  0  0  0  0
 35 70  1  0  0  0  0
 35 78  2  0  0  0  0
 36 59  1  0  0  0  0
 36 72  1  0  0  0  0
 36 79  2  0  0  0  0
 37 66  1  0  0  0  0
 37 73  1  0  0  0  0
 37 80  2  0  0  0  0
 38 41  1  0  0  0  0
 39 48  1  0  0  0  0
 40 65  1  0  0  0  0
 41 43  1  0  0  0  0
 42 44  1  0  0  0  0
 42 45  1  0  0  0  0
 43 47  1  0  0  0  0
 44 49  1  0  0  0  0
 45 66  1  0  0  0  0
 46 49  1  0  0  0  0
 46 66  1  0  0  0  0
 47 71  1  0  0  0  0
 48 65  1  0  0  0  0
 49 64  1  0  0  0  0
 50 59  1  0  0  0  0
 51 60  1  0  0  0  0
 52 60  1  0  0  0  0
 53 60  1  0  0  0  0
 54 74  1  0  0  0  0
 55 73  1  0  0  0  0
 56 57  1  0  0  0  0
 57 82  1  0  0  0  0
 58 60  1  0  0  0  0
 58 72  1  0  0  0  0
 59 74  1  0  0  0  0
 62 64  1  0  0  0  0
M  CHG  1  74   1
M  ISO  4  37 100  57 101  73 100  82 101
M  END
> <Batch ID>
0188

> <Smiles>
CNC(C)C(=O)NC(C(=O)N1Cc2cc([101O:1][101CH2:1]CC(=O)Nc3ncc(N)c(C[100NH:0][100C:0](=O)N4CCCC(n5nc(-c6ccc(Oc7ccc(F)cc7F)cc6)c(C(N)=O)c5N)C4)n3)ccc2CC1C(=O)NC1CCCc2ccccc21)C(C)(C)C

> <Shape>
0.205

> <Color>
0.083

> <Negative vol penalty>
0.000

$$$$

  -OEChem-04052305153D

 84 92  0     1  0  0  0  0  0999 V2000
  -32.4425  -12.8133   21.3159 C   0  0  0  0  0  0  0  0  0  0  0  0
  -32.0340  -14.1265   21.5260 C   0  0  0  0  0  0  0  0  0  0  0  0
  -24.7170  -28.4070   21.5492 C   0  0  0  0  0  0  0  0  0  0  0  0
  -25.9098  -30.0326   20.2181 C   0  0  0  0  0  0  0  0  0  0  0  0
  -31.6334  -11.9405   20.5897 C   0  0  0  0  0  0  0  0  0  0  0  0
  -30.8166  -14.5679   21.0089 C   0  0  0  0  0  0  0  0  0  0  0  0
  -25.4387  -19.0721   22.4610 C   0  0  0  0  0  0  0  0  0  0  0  0
  -24.0296  -29.4370   22.1912 C   0  0  0  0  0  0  0  0  0  0  0  0
  -25.2224  -31.0627   20.8600 C   0  0  0  0  0  0  0  0  0  0  0  0
  -24.7131  -20.1079   21.8741 C   0  0  0  0  0  0  0  0  0  0  0  0
  -24.0433  -34.1365   22.3999 C   0  0  0  0  0  0  0  0  0  0  0  0
  -24.7803  -35.2424   22.8234 C   0  0  0  0  0  0  0  0  0  0  0  0
  -23.3613  -18.4893   20.7029 C   0  0  0  0  0  0  0  0  0  0  0  0
  -26.1180  -33.8100   24.2360 C   0  0  0  0  0  0  0  0  0  0  0  0
  -28.3074  -18.5274   17.7933 C   0  0  0  0  0  0  0  0  0  0  0  0
  -25.6572  -28.7048   20.5627 C   0  0  0  0  0  0  0  0  0  0  0  0
  -25.9836  -26.9636   18.7272 C   0  0  0  0  0  0  0  0  0  0  0  0
  -30.4009  -12.3688   20.0717 C   0  0  0  0  0  0  0  0  0  0  0  0
  -25.1376  -17.7350   22.1642 C   0  0  0  0  0  0  0  0  0  0  0  0
  -29.9908  -13.7004   20.2739 C   0  0  0  0  0  0  0  0  0  0  0  0
  -24.0829  -17.4383   21.2893 C   0  0  0  0  0  0  0  0  0  0  0  0
  -24.2822  -30.7649   21.8466 C   0  0  0  0  0  0  0  0  0  0  0  0
  -23.6761  -19.8167   20.9928 C   0  0  0  0  0  0  0  0  0  0  0  0
  -24.3436  -32.8673   22.8946 C   0  0  0  0  0  0  0  0  0  0  0  0
  -25.8177  -35.0792   23.7414 C   0  0  0  0  0  0  0  0  0  0  0  0
  -25.3810  -32.7040   23.8126 C   0  0  0  0  0  0  0  0  0  0  0  0
  -26.3680  -27.6413   19.8997 C   0  0  0  0  0  0  0  0  0  0  0  0
  -28.3896  -19.7595   18.4076 C   0  0  0  0  0  0  0  0  0  0  0  0
  -26.9881  -26.0519   18.5124 C   0  0  0  0  0  0  0  0  0  0  0  0
  -26.2890  -19.8421   17.7827 C   0  0  0  0  0  0  0  0  0  0  0  0
  -24.8222  -27.1423   17.9055 C   0  0  0  0  0  0  0  0  0  0  0  0
  -29.6231  -20.2810   19.0504 C   0  0  0  0  0  0  0  0  0  0  0  0
  -26.7176  -15.3239   20.8249 C   0  0  0  0  0  0  0  0  0  0  0  0
  -24.0852  -13.6339   21.6834 C   0  0  0  0  0  0  0  0  0  0  0  0
  -20.7612  -13.6433   22.4566 C   0  0  0  0  0  0  0  0  0  0  0  0
  -30.5422  -22.2011   20.3121 C   0  0  0  0  0  0  0  0  0  0  0  0
  -29.5824  -11.4023   19.2528 C   0  0  0  0  0  0  0  0  0  0  0  0
  -25.9124  -16.6287   22.8262 C   0  0  0  0  0  0  0  0  0  0  0  0
  -23.7066  -16.0191   20.9534 C   0  0  0  0  0  0  0  0  0  0  0  0
  -28.1339  -11.8432   19.0584 C   0  0  0  0  0  0  0  0  0  0  0  0
  -31.5297  -25.5729   20.7029 C   0  0  0  0  0  0  0  0  0  0  0  0
  -28.0727  -13.3133   18.6562 C   0  0  0  0  0  0  0  0  0  0  0  0
  -30.2460  -26.3597   20.4249 C   0  0  0  0  0  0  0  0  0  0  0  0
  -31.2483  -24.2789   21.4654 C   0  0  0  0  0  0  0  0  0  0  0  0
  -28.9496  -24.1972   20.5893 C   0  0  0  0  0  0  0  0  0  0  0  0
  -28.6655  -14.2097   19.7501 C   0  0  1  0  0  0  0  0  0  0  0  0
  -25.8542  -15.3139   22.0546 C   0  0  1  0  0  0  0  0  0  0  0  0
  -29.1719  -25.4738   19.7623 C   0  0  1  0  0  0  0  0  0  0  0  0
  -18.8789  -12.1044   23.0777 C   0  0  0  0  0  0  0  0  0  0  0  0
  -25.0412  -22.6737   17.1115 C   0  0  0  0  0  0  0  0  0  0  0  0
  -20.9045  -20.6868   19.1993 C   0  0  0  0  0  0  0  0  0  0  0  0
  -23.8826  -12.7145   18.7810 C   0  0  0  0  0  0  0  0  0  0  0  0
  -21.5298  -11.9959   19.2459 C   0  0  0  0  0  0  0  0  0  0  0  0
  -23.4226  -10.9326   20.4743 C   0  0  0  0  0  0  0  0  0  0  0  0
  -20.3638  -14.9919   25.0610 C   0  0  0  0  0  0  0  0  0  0  0  0
  -22.9979  -21.6033   18.1324 C   0  0  0  0  0  0  0  0  0  0  0  0
  -22.7634  -13.3092   21.0304 C   0  0  1  0  0  0  0  0  0  0  0  0
  -19.9905  -13.0029   23.5969 C   0  0  2  0  0  0  0  0  0  0  0  0
  -24.5337  -21.5931   18.0626 C   0  0  1  0  0  0  0  0  0  0  0  0
  -22.4222  -20.5808   19.1220 C   0  0  1  0  0  0  0  0  0  1  0  0
  -22.9077  -12.2649   19.8875 C   0  0  0  0  0  0  0  0  0  0  0  0
  -27.5264  -27.1978   20.3952 N   0  0  0  0  0  0  0  0  0  0  0  0
  -27.2333  -20.5149   18.4021 N   0  0  0  0  0  0  0  0  0  0  0  0
  -27.8784  -26.2316   19.5299 N   0  0  0  0  0  0  0  0  0  0  0  0
  -24.4978  -14.9725   21.6212 N   0  0  0  0  0  0  0  0  0  0  0  0
  -30.2284  -23.4933   20.7682 N   0  0  0  0  0  0  0  0  0  0  0  0
  -27.1879  -25.1219   17.5545 N   0  0  0  0  0  0  0  0  0  0  0  0
  -23.8904  -28.1236   18.2702 N   0  0  0  0  0  0  0  0  0  0  0  0
  -24.9988  -20.3043   17.5942 N   0  0  0  0  0  0  0  0  0  0  0  0
  -29.5147  -21.5494   19.6211 N   0  0  0  0  0  0  0  0  0  0  0  0
  -27.7217  -14.3746   20.8348 N   0  0  0  0  0  0  0  0  0  0  0  0
  -21.8671  -12.8982   22.1056 N   0  0  0  0  0  0  0  0  0  0  0  0
  -19.3814  -14.0511   24.4636 N   0  3  0  0  0  0  0  0  0  0  0  0
  -24.6088  -26.4411   16.8876 O   0  0  0  0  0  0  0  0  0  0  0  0
  -30.6271  -19.5745   19.0790 O   0  0  0  0  0  0  0  0  0  0  0  0
  -26.4888  -16.1319   19.9325 O   0  0  0  0  0  0  0  0  0  0  0  0
  -24.7245  -12.7345   22.2346 O   0  0  0  0  0  0  0  0  0  0  0  0
  -20.4147  -14.6971   21.9276 O   0  0  0  0  0  0  0  0  0  0  0  0
  -31.6534  -21.6865   20.4725 O   0  0  0  0  0  0  0  0  0  0  0  0
  -23.6115  -31.7702   22.4726 O   0  0  0  0  0  0  0  0  0  0  0  0
  -22.9667  -20.8258   20.4181 O   0  0  0  0  0  0  0  0  0  1  0  0
  -26.5263  -36.1411   24.1468 F   0  0  0  0  0  0  0  0  0  0  0  0
  -25.6749  -31.4870   24.2904 F   0  0  0  0  0  0  0  0  0  0  0  0
  -26.7220  -18.2939   17.1822 S   0  0  0  0  0  0  0  0  0  0  0  0
  1  2  1  0  0  0  0
  1  5  2  0  0  0  0
  2  6  2  0  0  0  0
  3  8  2  0  0  0  0
  3 16  1  0  0  0  0
  4  9  1  0  0  0  0
  4 16  2  0  0  0  0
  5 18  1  0  0  0  0
  6 20  1  0  0  0  0
  7 10  2  0  0  0  0
  7 19  1  0  0  0  0
  8 22  1  0  0  0  0
  9 22  2  0  0  0  0
 10 23  1  0  0  0  0
 11 12  2  0  0  0  0
 11 24  1  0  0  0  0
 12 25  1  0  0  0  0
 13 21  1  0  0  0  0
 13 23  2  0  0  0  0
 14 25  2  0  0  0  0
 14 26  1  0  0  0  0
 15 28  2  0  0  0  0
 15 84  1  0  0  0  0
 16 27  1  0  0  0  0
 17 27  1  0  0  0  0
 17 29  2  0  0  0  0
 17 31  1  0  0  0  0
 18 20  2  0  0  0  0
 18 37  1  0  0  0  0
 19 21  2  0  0  0  0
 19 38  1  0  0  0  0
 20 46  1  0  0  0  0
 21 39  1  0  0  0  0
 22 80  1  0  0  0  0
 23 81  1  0  0  0  0
 24 26  2  0  0  0  0
 24 80  1  0  0  0  0
 25 82  1  0  0  0  0
 26 83  1  0  0  0  0
 27 62  2  0  0  0  0
 28 32  1  0  0  0  0
 28 63  1  0  0  0  0
 29 64  1  0  0  0  0
 29 67  1  0  0  0  0
 30 63  2  0  0  0  0
 30 69  1  0  0  0  0
 30 84  1  0  0  0  0
 31 68  1  0  0  0  0
 31 74  2  0  0  0  0
 32 70  1  0  0  0  0
 32 75  2  0  0  0  0
 33 47  1  0  0  0  0
 33 71  1  0  0  0  0
 33 76  2  0  0  0  0
 34 57  1  0  0  0  0
 34 65  1  0  0  0  0
 34 77  2  0  0  0  0
 35 58  1  0  0  0  0
 35 72  1  0  0  0  0
 35 78  2  0  0  0  0
 36 66  1  0  0  0  0
 36 70  1  0  0  0  0
 36 79  2  0  0  0  0
 37 40  1  0  0  0  0
 38 47  1  0  0  0  0
 39 65  1  0  0  0  0
 40 42  1  0  0  0  0
 41 43  1  0  0  0  0
 41 44  1  0  0  0  0
 42 46  1  0  0  0  0
 43 48  1  0  0  0  0
 44 66  1  0  0  0  0
 45 48  1  0  0  0  0
 45 66  1  0  0  0  0
 46 71  1  0  0  0  0
 47 65  1  0  0  0  0
 48 64  1  0  0  0  0
 49 58  1  0  0  0  0
 50 59  1  0  0  0  0
 51 60  1  0  0  0  0
 52 61  1  0  0  0  0
 53 61  1  0  0  0  0
 54 61  1  0  0  0  0
 55 73  1  0  0  0  0
 56 59  1  0  0  0  0
 56 60  1  0  0  0  0
 57 61  1  0  0  0  0
 57 72  1  0  0  0  0
 58 73  1  0  0  0  0
 59 69  1  0  0  0  0
 60 81  1  0  0  0  0
 62 64  1  0  0  0  0
M  CHG  1  73   1
M  ISO  4  36 100  60 101  70 100  81 101
M  END
> <Batch ID>
0188

> <Smiles>
CNC(C)C(=O)NC(C(=O)N1Cc2cc([101O:1][101CH:1](C)CC(C)Nc3nc(C(=O)[100NH:0][100C:0](=O)N4CCCC(n5nc(-c6ccc(Oc7ccc(F)cc7F)cc6)c(C(N)=O)c5N)C4)cs3)ccc2CC1C(=O)NC1CCCc2ccccc21)C(C)(C)C

> <Shape>
0.262

> <Color>
0.064

> <Negative vol penalty>
0.000

$$$$

  -OEChem-04052305153D

 87 95  0     1  0  0  0  0  0999 V2000
  -27.9237  -18.7593   18.2991 C   0  0  0  0  0  0  0  0  0  0  0  0
  -27.6664  -19.2804   19.5631 C   0  0  0  0  0  0  0  0  0  0  0  0
  -23.2636   -9.6568   19.9394 C   0  0  0  0  0  0  0  0  0  0  0  0
  -24.4626   -9.3535   22.0149 C   0  0  0  0  0  0  0  0  0  0  0  0
  -28.3702  -19.5977   17.2784 C   0  0  0  0  0  0  0  0  0  0  0  0
  -27.8565  -20.6401   19.8074 C   0  0  0  0  0  0  0  0  0  0  0  0
  -24.0363  -22.6973   22.4187 C   0  0  0  0  0  0  0  0  0  0  0  0
  -22.8742   -8.3178   19.9687 C   0  0  0  0  0  0  0  0  0  0  0  0
  -24.0732   -8.0145   22.0442 C   0  0  0  0  0  0  0  0  0  0  0  0
  -24.0048  -22.4622   23.7926 C   0  0  0  0  0  0  0  0  0  0  0  0
  -23.0954   -4.6072   22.8521 C   0  0  0  0  0  0  0  0  0  0  0  0
  -22.6309   -4.0925   24.0624 C   0  0  0  0  0  0  0  0  0  0  0  0
  -24.9573  -24.6441   24.1817 C   0  0  0  0  0  0  0  0  0  0  0  0
  -20.8493   -5.7243   24.0725 C   0  0  0  0  0  0  0  0  0  0  0  0
  -24.0579  -10.1747   20.9625 C   0  0  0  0  0  0  0  0  0  0  0  0
  -23.7764  -12.6550   21.4886 C   0  0  0  0  0  0  0  0  0  0  0  0
  -28.5565  -20.9700   17.5077 C   0  0  0  0  0  0  0  0  0  0  0  0
  -24.5396  -23.9052   21.9147 C   0  0  0  0  0  0  0  0  0  0  0  0
  -28.3071  -21.4973   18.7891 C   0  0  0  0  0  0  0  0  0  0  0  0
  -24.9918  -24.8930   22.8011 C   0  0  0  0  0  0  0  0  0  0  0  0
  -23.2790   -7.4966   21.0210 C   0  0  0  0  0  0  0  0  0  0  0  0
  -24.4680  -23.4345   24.6742 C   0  0  0  0  0  0  0  0  0  0  0  0
  -22.4370   -5.6806   22.2520 C   0  0  0  0  0  0  0  0  0  0  0  0
  -21.5078   -4.6510   24.6726 C   0  0  0  0  0  0  0  0  0  0  0  0
  -21.3139   -6.2391   22.8622 C   0  0  0  0  0  0  0  0  0  0  0  0
  -24.4610  -11.5577   20.9326 C   0  0  0  0  0  0  0  0  0  0  0  0
  -30.0096  -19.8187   23.3080 C   0  0  0  0  0  0  0  0  0  0  0  0
  -24.5661  -13.7387   21.1917 C   0  0  0  0  0  0  0  0  0  0  0  0
  -29.0332  -19.6891   24.2734 C   0  0  0  0  0  0  0  0  0  0  0  0
  -29.1695  -17.8955   22.6712 C   0  0  0  0  0  0  0  0  0  0  0  0
  -22.5373  -12.6913   22.2092 C   0  0  0  0  0  0  0  0  0  0  0  0
  -26.9676  -24.7104   20.0278 C   0  0  0  0  0  0  0  0  0  0  0  0
  -25.6538  -27.6677   20.2533 C   0  0  0  0  0  0  0  0  0  0  0  0
  -23.7009  -29.8439   22.0132 C   0  0  0  0  0  0  0  0  0  0  0  0
  -27.6354  -20.2771   26.2797 C   0  0  0  0  0  0  0  0  0  0  0  0
  -29.5576  -16.1843   20.8636 C   0  0  0  0  0  0  0  0  0  0  0  0
  -29.0858  -21.8281   16.3860 C   0  0  0  0  0  0  0  0  0  0  0  0
  -24.5419  -24.1541   20.4313 C   0  0  0  0  0  0  0  0  0  0  0  0
  -25.5229  -26.2147   22.3117 C   0  0  0  0  0  0  0  0  0  0  0  0
  -28.9033  -23.3246   16.6258 C   0  0  0  0  0  0  0  0  0  0  0  0
  -28.5601  -14.1587   18.1106 C   0  0  0  0  0  0  0  0  0  0  0  0
  -29.3349  -23.6950   18.0412 C   0  0  0  0  0  0  0  0  0  0  0  0
  -27.3484  -13.3917   18.6451 C   0  0  0  0  0  0  0  0  0  0  0  0
  -29.6279  -14.3526   19.1857 C   0  0  0  0  0  0  0  0  0  0  0  0
  -27.9366  -14.1901   20.9696 C   0  0  0  0  0  0  0  0  0  0  0  0
  -28.4776  -22.9713   19.0865 C   0  0  1  0  0  0  0  0  0  0  0  0
  -25.5523  -25.2146   20.0049 C   0  0  1  0  0  0  0  0  0  0  0  0
  -26.8061  -14.0267   19.9405 C   0  0  2  0  0  0  0  0  0  0  0  0
  -30.7986  -21.7159   21.8479 C   0  0  0  0  0  0  0  0  0  0  0  0
  -32.4336  -20.5095   23.3399 C   0  0  0  0  0  0  0  0  0  0  0  0
  -22.8429  -32.2016   21.9656 C   0  0  0  0  0  0  0  0  0  0  0  0
  -24.4736  -21.5260   27.7262 C   0  0  0  0  0  0  0  0  0  0  0  0
  -28.3915  -28.6794   21.1427 C   0  0  0  0  0  0  0  0  0  0  0  0
  -27.2749  -30.7598   21.9754 C   0  0  0  0  0  0  0  0  0  0  0  0
  -27.1897  -30.1863   19.5492 C   0  0  0  0  0  0  0  0  0  0  0  0
  -20.8848  -28.9399   21.9082 C   0  0  0  0  0  0  0  0  0  0  0  0
  -26.6097  -22.5368   26.8491 C   0  0  0  0  0  0  0  0  0  0  0  0
  -30.9588  -20.9432   23.1772 C   0  0  0  0  0  0  0  0  0  0  0  0
  -25.8152  -28.8406   21.1898 C   0  0  1  0  0  0  0  0  0  0  0  0
  -22.5675  -30.7564   21.5805 C   0  0  2  0  0  0  0  0  0  0  0  0
  -27.5273  -21.3963   27.3012 C   0  0  2  0  0  0  0  0  0  0  0  0
  -25.1828  -22.0906   26.5015 C   0  0  2  0  0  0  0  0  0  1  0  0
  -27.1597  -29.5910   20.9737 C   0  0  0  0  0  0  0  0  0  0  0  0
  -25.5981  -11.9121   20.3280 N   0  0  0  0  0  0  0  0  0  0  0  0
  -30.0895  -18.7909   22.3887 N   0  0  0  0  0  0  0  0  0  0  0  0
  -25.6340  -13.2441   20.5024 N   0  0  0  0  0  0  0  0  0  0  0  0
  -25.5105  -26.4081   20.8523 N   0  0  0  0  0  0  0  0  0  0  0  0
  -29.0423  -14.9625   20.3816 N   0  0  0  0  0  0  0  0  0  0  0  0
  -24.4443  -15.0571   21.4556 N   0  0  0  0  0  0  0  0  0  0  0  0
  -21.8552  -11.4863   22.4263 N   0  0  0  0  0  0  0  0  0  0  0  0
  -28.6483  -20.5113   25.3587 N   0  0  0  0  0  0  0  0  0  0  0  0
  -28.9000  -16.6842   21.9870 N   0  0  0  0  0  0  0  0  0  0  0  0
  -27.1876  -23.6145   19.2153 N   0  0  0  0  0  0  0  0  0  0  0  0
  -24.6307  -29.6730   21.0094 N   0  0  0  0  0  0  0  0  0  0  0  0
  -21.2897  -30.3346   22.2209 N   0  3  0  0  0  0  0  0  0  0  0  0
  -22.0414  -13.7626   22.6332 O   0  0  0  0  0  0  0  0  0  0  0  0
  -27.7988  -25.2748   20.7295 O   0  0  0  0  0  0  0  0  0  0  0  0
  -25.6477  -27.8627   19.0353 O   0  0  0  0  0  0  0  0  0  0  0  0
  -23.7578  -29.3366   23.1312 O   0  0  0  0  0  0  0  0  0  0  0  0
  -26.8696  -19.3186   26.3252 O   0  0  0  0  0  0  0  0  0  0  0  0
  -30.4945  -16.7594   20.3037 O   0  0  0  0  0  0  0  0  0  0  0  0
  -22.8990   -6.1900   21.0501 O   0  0  0  0  0  0  0  0  0  0  0  0
  -24.4390  -23.2073   26.0156 O   0  0  0  0  0  0  0  0  0  1  0  0
  -21.0609   -4.1556   25.8340 F   0  0  0  0  0  0  0  0  0  0  0  0
  -20.6764   -7.2696   22.2899 F   0  0  0  0  0  0  0  0  0  0  0  0
  -28.7593  -21.9070   27.5832 F   0  0  0  0  0  0  0  0  0  0  0  0
  -28.1730  -18.2257   24.0287 S   0  0  0  0  0  0  0  0  0  0  0  0
  1  2  1  0  0  0  0
  1  5  2  0  0  0  0
  2  6  2  0  0  0  0
  3  8  2  0  0  0  0
  3 15  1  0  0  0  0
  4  9  1  0  0  0  0
  4 15  2  0  0  0  0
  5 17  1  0  0  0  0
  6 19  1  0  0  0  0
  7 10  2  0  0  0  0
  7 18  1  0  0  0  0
  8 21  1  0  0  0  0
  9 21  2  0  0  0  0
 10 22  1  0  0  0  0
 11 12  2  0  0  0  0
 11 23  1  0  0  0  0
 12 24  1  0  0  0  0
 13 20  1  0  0  0  0
 13 22  2  0  0  0  0
 14 24  2  0  0  0  0
 14 25  1  0  0  0  0
 15 26  1  0  0  0  0
 16 26  1  0  0  0  0
 16 28  2  0  0  0  0
 16 31  1  0  0  0  0
 17 19  2  0  0  0  0
 17 37  1  0  0  0  0
 18 20  2  0  0  0  0
 18 38  1  0  0  0  0
 19 46  1  0  0  0  0
 20 39  1  0  0  0  0
 21 82  1  0  0  0  0
 22 83  1  0  0  0  0
 23 25  2  0  0  0  0
 23 82  1  0  0  0  0
 24 84  1  0  0  0  0
 25 85  1  0  0  0  0
 26 64  2  0  0  0  0
 27 29  2  0  0  0  0
 27 58  1  0  0  0  0
 27 65  1  0  0  0  0
 28 66  1  0  0  0  0
 28 69  1  0  0  0  0
 29 71  1  0  0  0  0
 29 87  1  0  0  0  0
 30 65  2  0  0  0  0
 30 72  1  0  0  0  0
 30 87  1  0  0  0  0
 31 70  1  0  0  0  0
 31 76  2  0  0  0  0
 32 47  1  0  0  0  0
 32 73  1  0  0  0  0
 32 77  2  0  0  0  0
 33 59  1  0  0  0  0
 33 67  1  0  0  0  0
 33 78  2  0  0  0  0
 34 60  1  0  0  0  0
 34 74  1  0  0  0  0
 34 79  2  0  0  0  0
 35 61  1  0  0  0  0
 35 71  1  0  0  0  0
 35 80  2  0  0  0  0
 36 68  1  0  0  0  0
 36 72  1  0  0  0  0
 36 81  2  0  0  0  0
 37 40  1  0  0  0  0
 38 47  1  0  0  0  0
 39 67  1  0  0  0  0
 40 42  1  0  0  0  0
 41 43  1  0  0  0  0
 41 44  1  0  0  0  0
 42 46  1  0  0  0  0
 43 48  1  0  0  0  0
 44 68  1  0  0  0  0
 45 48  1  0  0  0  0
 45 68  1  0  0  0  0
 46 73  1  0  0  0  0
 47 67  1  0  0  0  0
 48 66  1  0  0  0  0
 49 58  1  0  0  0  0
 50 58  1  0  0  0  0
 51 60  1  0  0  0  0
 52 62  1  0  0  0  0
 53 63  1  0  0  0  0
 54 63  1  0  0  0  0
 55 63  1  0  0  0  0
 56 75  1  0  0  0  0
 57 61  1  0  0  0  0
 57 62  1  0  0  0  0
 59 63  1  0  0  0  0
 59 74  1  0  0  0  0
 60 75  1  0  0  0  0
 61 86  1  0  0  0  0
 62 83  1  0  0  0  0
 64 66  1  0  0  0  0
M  CHG  1  75   1
M  ISO  4  36 100  62 101  72 100  83 101
M  END
> <Batch ID>
0188

> <Smiles>
CNC(C)C(=O)NC(C(=O)N1Cc2cc([101O:1][101CH:1](C)CC(F)C(=O)Nc3sc([100NH:0][100C:0](=O)N4CCCC(n5nc(-c6ccc(Oc7ccc(F)cc7F)cc6)c(C(N)=O)c5N)C4)nc3C(C)C)ccc2CC1C(=O)NC1CCCc2ccccc21)C(C)(C)C

> <Shape>
0.272

> <Color>
0.097

> <Negative vol penalty>
0.000

$$$$

  -OEChem-04052305153D

 87 95  0     1  0  0  0  0  0999 V2000
  -26.9140  -24.0955   11.4221 C   0  0  0  0  0  0  0  0  0  0  0  0
  -27.8619  -23.3116   12.0719 C   0  0  0  0  0  0  0  0  0  0  0  0
  -22.9598  -10.1195   19.8725 C   0  0  0  0  0  0  0  0  0  0  0  0
  -23.8507   -9.8030   22.0959 C   0  0  0  0  0  0  0  0  0  0  0  0
  -26.7239  -25.4214   11.8090 C   0  0  0  0  0  0  0  0  0  0  0  0
  -28.6212  -23.8535   13.1083 C   0  0  0  0  0  0  0  0  0  0  0  0
  -30.6115  -20.9518   18.1208 C   0  0  0  0  0  0  0  0  0  0  0  0
  -22.1693   -8.9807   20.0271 C   0  0  0  0  0  0  0  0  0  0  0  0
  -23.0601   -8.6643   22.2506 C   0  0  0  0  0  0  0  0  0  0  0  0
  -31.8391  -20.3767   18.4465 C   0  0  0  0  0  0  0  0  0  0  0  0
  -19.2707   -8.1496   21.5570 C   0  0  0  0  0  0  0  0  0  0  0  0
  -17.9374   -8.2267   21.1549 C   0  0  0  0  0  0  0  0  0  0  0  0
  -32.4793  -22.4037   19.5870 C   0  0  0  0  0  0  0  0  0  0  0  0
  -18.3115   -6.4401   19.5720 C   0  0  0  0  0  0  0  0  0  0  0  0
  -23.8006  -10.5306   20.9069 C   0  0  0  0  0  0  0  0  0  0  0  0
  -24.2735  -13.0318   21.0743 C   0  0  0  0  0  0  0  0  0  0  0  0
  -27.4745  -25.9771   12.8571 C   0  0  0  0  0  0  0  0  0  0  0  0
  -30.3124  -22.2633   18.5171 C   0  0  0  0  0  0  0  0  0  0  0  0
  -28.4420  -25.1886   13.5087 C   0  0  0  0  0  0  0  0  0  0  0  0
  -31.2462  -22.9922   19.2673 C   0  0  0  0  0  0  0  0  0  0  0  0
  -22.2194   -8.2532   21.2162 C   0  0  0  0  0  0  0  0  0  0  0  0
  -32.7743  -21.1037   19.1772 C   0  0  0  0  0  0  0  0  0  0  0  0
  -20.1246   -7.2179   20.9666 C   0  0  0  0  0  0  0  0  0  0  0  0
  -17.4577   -7.3719   20.1624 C   0  0  0  0  0  0  0  0  0  0  0  0
  -19.6449   -6.3631   19.9741 C   0  0  0  0  0  0  0  0  0  0  0  0
  -24.6179  -11.7065   20.7475 C   0  0  0  0  0  0  0  0  0  0  0  0
  -31.2546  -18.5189   23.5284 C   0  0  0  0  0  0  0  0  0  0  0  0
  -32.2897  -18.1943   22.6768 C   0  0  0  0  0  0  0  0  0  0  0  0
  -25.3824  -13.7681   20.7357 C   0  0  0  0  0  0  0  0  0  0  0  0
  -30.9377  -16.5345   22.2002 C   0  0  0  0  0  0  0  0  0  0  0  0
  -23.0598  -13.5508   21.6340 C   0  0  0  0  0  0  0  0  0  0  0  0
  -29.6589  -24.9739   16.9909 C   0  0  0  0  0  0  0  0  0  0  0  0
  -29.0973  -26.0724   19.9910 C   0  0  0  0  0  0  0  0  0  0  0  0
  -29.6693  -25.7689   23.3417 C   0  0  0  0  0  0  0  0  0  0  0  0
  -30.8989  -14.5226   20.6847 C   0  0  0  0  0  0  0  0  0  0  0  0
  -27.2668  -27.4290   13.2083 C   0  0  0  0  0  0  0  0  0  0  0  0
  -28.9731  -22.8597   18.1808 C   0  0  0  0  0  0  0  0  0  0  0  0
  -30.9657  -24.3964   19.7341 C   0  0  0  0  0  0  0  0  0  0  0  0
  -27.8494  -27.8168   14.5650 C   0  0  0  0  0  0  0  0  0  0  0  0
  -29.5176  -12.4803   18.1159 C   0  0  0  0  0  0  0  0  0  0  0  0
  -29.2636  -27.2654   14.7160 C   0  0  0  0  0  0  0  0  0  0  0  0
  -28.0914  -12.2059   18.5985 C   0  0  0  0  0  0  0  0  0  0  0  0
  -30.5121  -12.5129   19.2751 C   0  0  0  0  0  0  0  0  0  0  0  0
  -28.7313  -13.1484   20.8544 C   0  0  0  0  0  0  0  0  0  0  0  0
  -29.2678  -25.7332   14.6540 C   0  0  1  0  0  0  0  0  0  0  0  0
  -28.9781  -24.3852   18.1941 C   0  0  1  0  0  0  0  0  0  0  0  0
  -27.6838  -13.1705   19.7293 C   0  0  2  0  0  0  0  0  0  0  0  0
  -29.1027  -26.8357   25.5414 C   0  0  0  0  0  0  0  0  0  0  0  0
  -35.2892  -17.3976   22.2701 C   0  0  0  0  0  0  0  0  0  0  0  0
  -31.0497  -28.3393   19.3917 C   0  0  0  0  0  0  0  0  0  0  0  0
  -31.1712  -28.7915   21.8511 C   0  0  0  0  0  0  0  0  0  0  0  0
  -29.0002  -29.0320   20.6463 C   0  0  0  0  0  0  0  0  0  0  0  0
  -36.0764  -20.3591   22.6466 C   0  0  0  0  0  0  0  0  0  0  0  0
  -36.5640  -19.4336   20.3901 C   0  0  0  0  0  0  0  0  0  0  0  0
  -28.3763  -23.3001   24.3379 C   0  0  0  0  0  0  0  0  0  0  0  0
  -34.5913  -20.9795   20.7066 C   0  0  0  0  0  0  0  0  0  1  0  0
  -29.9352  -26.7208   21.0663 C   0  0  1  0  0  0  0  0  0  0  0  0
  -28.7232  -25.7663   24.5289 C   0  0  2  0  0  0  0  0  0  0  0  0
  -34.5371  -18.5851   21.6658 C   0  0  2  0  0  0  0  0  0  0  0  0
  -31.1099  -19.6471   24.4713 C   0  0  0  0  0  0  0  0  0  0  0  0
  -30.2954  -28.1952   20.7285 C   0  0  0  0  0  0  0  0  0  0  0  0
  -35.4181  -19.8386   21.3485 C   0  0  0  0  0  0  0  0  0  0  0  0
  -25.8492  -11.6038   20.2401 N   0  0  0  0  0  0  0  0  0  0  0  0
  -32.1099  -17.0564   21.9147 N   0  0  0  0  0  0  0  0  0  0  0  0
  -26.2882  -12.8740   20.2455 N   0  0  0  0  0  0  0  0  0  0  0  0
  -29.6446  -24.9380   19.3749 N   0  0  0  0  0  0  0  0  0  0  0  0
  -30.0627  -13.4511   20.3060 N   0  0  0  0  0  0  0  0  0  0  0  0
  -25.6613  -15.0867   20.8124 N   0  0  0  0  0  0  0  0  0  0  0  0
  -22.0206  -12.6557   21.9221 N   0  0  0  0  0  0  0  0  0  0  0  0
  -33.4509  -18.9332   22.5651 N   0  0  0  0  0  0  0  0  0  0  0  0
  -30.3521  -15.3675   21.6499 N   0  0  0  0  0  0  0  0  0  0  0  0
  -28.8196  -25.1751   15.9118 N   0  0  0  0  0  0  0  0  0  0  0  0
  -29.1966  -26.5570   22.3137 N   0  0  0  0  0  0  0  0  0  0  0  0
  -28.7519  -24.4417   25.2113 N   0  3  0  0  0  0  0  0  0  0  0  0
  -22.8955  -14.7744   21.8562 O   0  0  0  0  0  0  0  0  0  0  0  0
  -30.8568  -25.2282   17.0386 O   0  0  0  0  0  0  0  0  0  0  0  0
  -27.9947  -26.5503   19.7129 O   0  0  0  0  0  0  0  0  0  0  0  0
  -30.7240  -25.1382   23.3292 O   0  0  0  0  0  0  0  0  0  0  0  0
  -32.0066  -14.6947   20.1694 O   0  0  0  0  0  0  0  0  0  0  0  0
  -21.4479   -7.1421   21.3675 O   0  0  0  0  0  0  0  0  0  0  0  0
  -33.9736  -20.5450   19.4958 O   0  0  0  0  0  0  0  0  0  1  0  0
  -16.1769   -7.4450   19.7774 F   0  0  0  0  0  0  0  0  0  0  0  0
  -20.4601   -5.4652   19.4041 F   0  0  0  0  0  0  0  0  0  0  0  0
  -32.1831  -20.5010   24.4942 F   0  0  0  0  0  0  0  0  0  0  0  0
  -30.0326  -20.4567   24.2159 F   0  0  0  0  0  0  0  0  0  0  0  0
  -30.9500  -19.2457   25.7718 F   0  0  0  0  0  0  0  0  0  0  0  0
  -29.9992  -17.3605   23.3757 S   0  0  0  0  0  0  0  0  0  0  0  0
  1  2  1  0  0  0  0
  1  5  2  0  0  0  0
  2  6  2  0  0  0  0
  3  8  2  0  0  0  0
  3 15  1  0  0  0  0
  4  9  1  0  0  0  0
  4 15  2  0  0  0  0
  5 17  1  0  0  0  0
  6 19  1  0  0  0  0
  7 10  2  0  0  0  0
  7 18  1  0  0  0  0
  8 21  1  0  0  0  0
  9 21  2  0  0  0  0
 10 22  1  0  0  0  0
 11 12  2  0  0  0  0
 11 23  1  0  0  0  0
 12 24  1  0  0  0  0
 13 20  1  0  0  0  0
 13 22  2  0  0  0  0
 14 24  2  0  0  0  0
 14 25  1  0  0  0  0
 15 26  1  0  0  0  0
 16 26  1  0  0  0  0
 16 29  2  0  0  0  0
 16 31  1  0  0  0  0
 17 19  2  0  0  0  0
 17 36  1  0  0  0  0
 18 20  2  0  0  0  0
 18 37  1  0  0  0  0
 19 45  1  0  0  0  0
 20 38  1  0  0  0  0
 21 80  1  0  0  0  0
 22 81  1  0  0  0  0
 23 25  2  0  0  0  0
 23 80  1  0  0  0  0
 24 82  1  0  0  0  0
 25 83  1  0  0  0  0
 26 63  2  0  0  0  0
 27 28  2  0  0  0  0
 27 60  1  0  0  0  0
 27 87  1  0  0  0  0
 28 64  1  0  0  0  0
 28 70  1  0  0  0  0
 29 65  1  0  0  0  0
 29 68  1  0  0  0  0
 30 64  2  0  0  0  0
 30 71  1  0  0  0  0
 30 87  1  0  0  0  0
 31 69  1  0  0  0  0
 31 75  2  0  0  0  0
 32 46  1  0  0  0  0
 32 72  1  0  0  0  0
 32 76  2  0  0  0  0
 33 57  1  0  0  0  0
 33 66  1  0  0  0  0
 33 77  2  0  0  0  0
 34 58  1  0  0  0  0
 34 73  1  0  0  0  0
 34 78  2  0  0  0  0
 35 67  1  0  0  0  0
 35 71  1  0  0  0  0
 35 79  2  0  0  0  0
 36 39  1  0  0  0  0
 37 46  1  0  0  0  0
 38 66  1  0  0  0  0
 39 41  1  0  0  0  0
 40 42  1  0  0  0  0
 40 43  1  0  0  0  0
 41 45  1  0  0  0  0
 42 47  1  0  0  0  0
 43 67  1  0  0  0  0
 44 47  1  0  0  0  0
 44 67  1  0  0  0  0
 45 72  1  0  0  0  0
 46 66  1  0  0  0  0
 47 65  1  0  0  0  0
 48 58  1  0  0  0  0
 49 59  1  0  0  0  0
 50 61  1  0  0  0  0
 51 61  1  0  0  0  0
 52 61  1  0  0  0  0
 53 62  1  0  0  0  0
 54 62  1  0  0  0  0
 55 74  1  0  0  0  0
 56 62  1  0  0  0  0
 56 81  1  0  0  0  0
 57 61  1  0  0  0  0
 57 73  1  0  0  0  0
 58 74  1  0  0  0  0
 59 62  1  0  0  0  0
 59 70  1  0  0  0  0
 60 84  1  0  0  0  0
 60 85  1  0  0  0  0
 60 86  1  0  0  0  0
 63 65  1  0  0  0  0
M  CHG  1  74   1
M  ISO  4  35 100  56 101  71 100  81 101
M  END
> <Batch ID>
0188

> <Smiles>
CNC(C)C(=O)NC(C(=O)N1Cc2cc([101O:1][101CH2:1]C(C)(C)C(C)Nc3nc([100NH:0][100C:0](=O)N4CCCC(n5nc(-c6ccc(Oc7ccc(F)cc7F)cc6)c(C(N)=O)c5N)C4)sc3C(F)(F)F)ccc2CC1C(=O)NC1CCCc2ccccc21)C(C)(C)C

> <Shape>
0.220

> <Color>
0.190

> <Negative vol penalty>
0.000

$$$$

  -OEChem-04052305153D

 85 93  0     1  0  0  0  0  0999 V2000
  -34.9860  -17.6874    8.6504 C   0  0  0  0  0  0  0  0  0  0  0  0
  -35.3468  -17.7941    9.9898 C   0  0  0  0  0  0  0  0  0  0  0  0
  -23.0737   -9.8669   19.9413 C   0  0  0  0  0  0  0  0  0  0  0  0
  -23.8321   -9.8769   22.2352 C   0  0  0  0  0  0  0  0  0  0  0  0
  -34.8188  -18.8379    7.8809 C   0  0  0  0  0  0  0  0  0  0  0  0
  -35.5417  -19.0515   10.5601 C   0  0  0  0  0  0  0  0  0  0  0  0
  -33.3632  -19.4790   15.1116 C   0  0  0  0  0  0  0  0  0  0  0  0
  -22.3298   -8.7140   20.1922 C   0  0  0  0  0  0  0  0  0  0  0  0
  -23.0881   -8.7239   22.4862 C   0  0  0  0  0  0  0  0  0  0  0  0
  -34.0241  -18.8949   16.1913 C   0  0  0  0  0  0  0  0  0  0  0  0
  -19.3807   -7.9189   21.6425 C   0  0  0  0  0  0  0  0  0  0  0  0
  -18.0742   -7.8719   21.1565 C   0  0  0  0  0  0  0  0  0  0  0  0
  -34.8983  -21.0544   16.8168 C   0  0  0  0  0  0  0  0  0  0  0  0
  -18.6350   -5.9272   19.8371 C   0  0  0  0  0  0  0  0  0  0  0  0
  -29.7488  -17.7152   22.7163 C   0  0  0  0  0  0  0  0  0  0  0  0
  -23.8249  -10.4483   20.9628 C   0  0  0  0  0  0  0  0  0  0  0  0
  -24.1665  -12.9734   20.8398 C   0  0  0  0  0  0  0  0  0  0  0  0
  -35.0023  -20.1104    8.4446 C   0  0  0  0  0  0  0  0  0  0  0  0
  -33.4738  -20.8559   14.8697 C   0  0  0  0  0  0  0  0  0  0  0  0
  -35.3781  -20.2202    9.7971 C   0  0  0  0  0  0  0  0  0  0  0  0
  -34.2357  -21.6540   15.7349 C   0  0  0  0  0  0  0  0  0  0  0  0
  -31.4873  -19.3768   22.7509 C   0  0  0  0  0  0  0  0  0  0  0  0
  -22.3370   -8.1425   21.4647 C   0  0  0  0  0  0  0  0  0  0  0  0
  -34.7942  -19.6821   17.0424 C   0  0  0  0  0  0  0  0  0  0  0  0
  -20.3145   -6.9701   21.2258 C   0  0  0  0  0  0  0  0  0  0  0  0
  -17.7013   -6.8760   20.2538 C   0  0  0  0  0  0  0  0  0  0  0  0
  -19.9416   -5.9742   20.3231 C   0  0  0  0  0  0  0  0  0  0  0  0
  -30.2240  -18.9497   23.1447 C   0  0  0  0  0  0  0  0  0  0  0  0
  -24.5940  -11.6390   20.7041 C   0  0  0  0  0  0  0  0  0  0  0  0
  -30.5691  -16.9516   21.9016 C   0  0  0  0  0  0  0  0  0  0  0  0
  -32.2299  -18.5388   21.9348 C   0  0  0  0  0  0  0  0  0  0  0  0
  -25.2588  -13.7225   20.4763 C   0  0  0  0  0  0  0  0  0  0  0  0
  -22.8957  -13.4896   21.2572 C   0  0  0  0  0  0  0  0  0  0  0  0
  -34.6074  -22.6310   12.4891 C   0  0  0  0  0  0  0  0  0  0  0  0
  -33.3799  -25.0694   14.2412 C   0  0  0  0  0  0  0  0  0  0  0  0
  -34.4145  -18.2675   20.7122 C   0  0  0  0  0  0  0  0  0  0  0  0
  -32.3999  -26.2359   17.2950 C   0  0  0  0  0  0  0  0  0  0  0  0
  -30.7248  -14.7690   20.6534 C   0  0  0  0  0  0  0  0  0  0  0  0
  -34.8563  -21.3238    7.5609 C   0  0  0  0  0  0  0  0  0  0  0  0
  -32.7330  -21.4750   13.7164 C   0  0  0  0  0  0  0  0  0  0  0  0
  -34.3703  -23.1402   15.5306 C   0  0  0  0  0  0  0  0  0  0  0  0
  -34.7160  -22.6301    8.3382 C   0  0  0  0  0  0  0  0  0  0  0  0
  -29.6123  -12.3520   18.2874 C   0  0  0  0  0  0  0  0  0  0  0  0
  -35.7598  -22.7057    9.4479 C   0  0  0  0  0  0  0  0  0  0  0  0
  -28.1724  -12.0608   18.7164 C   0  0  0  0  0  0  0  0  0  0  0  0
  -30.5265  -12.5825   19.4894 C   0  0  0  0  0  0  0  0  0  0  0  0
  -28.6186  -13.3085   20.8684 C   0  0  0  0  0  0  0  0  0  0  0  0
  -35.5743  -21.5672   10.4583 C   0  0  1  0  0  0  0  0  0  0  0  0
  -33.3324  -22.8034   13.2652 C   0  0  1  0  0  0  0  0  0  0  0  0
  -27.6466  -13.1336   19.6902 C   0  0  2  0  0  0  0  0  0  0  0  0
  -31.4746  -28.2801   18.4186 C   0  0  0  0  0  0  0  0  0  0  0  0
  -36.1286  -26.3867   14.1028 C   0  0  0  0  0  0  0  0  0  0  0  0
  -35.4279  -27.8855   15.9819 C   0  0  0  0  0  0  0  0  0  0  0  0
  -34.2037  -27.9562   13.8096 C   0  0  0  0  0  0  0  0  0  0  0  0
  -29.9600  -24.7996   18.1569 C   0  0  0  0  0  0  0  0  0  0  0  0
  -35.6416  -19.9292   19.2507 C   0  0  0  0  0  0  0  0  0  1  0  0
  -33.9012  -25.9655   15.3386 C   0  0  1  0  0  0  0  0  0  0  0  0
  -35.6967  -19.0652   20.5063 C   0  0  2  0  0  0  0  0  0  0  0  0
  -31.1423  -26.9601   17.7404 C   0  0  2  0  0  0  0  0  0  0  0  0
  -34.9146  -27.0202   14.8112 C   0  0  0  0  0  0  0  0  0  0  0  0
  -25.8592  -11.5428   20.2868 N   0  0  0  0  0  0  0  0  0  0  0  0
  -31.8019  -17.3329   21.4984 N   0  0  0  0  0  0  0  0  0  0  0  0
  -26.2360  -12.8262   20.1571 N   0  0  0  0  0  0  0  0  0  0  0  0
  -33.6320  -23.6977   14.3853 N   0  0  0  0  0  0  0  0  0  0  0  0
  -29.9668  -13.6143   20.3651 N   0  0  0  0  0  0  0  0  0  0  0  0
  -31.9975  -20.6237   23.1677 N   0  0  0  0  0  0  0  0  0  0  0  0
  -25.4691  -15.0539   20.4017 N   0  0  0  0  0  0  0  0  0  0  0  0
  -21.8837  -12.5807   21.5949 N   0  0  0  0  0  0  0  0  0  0  0  0
  -33.5181  -18.9561   21.5239 N   0  0  0  0  0  0  0  0  0  0  0  0
  -30.0768  -15.6950   21.4702 N   0  0  0  0  0  0  0  0  0  0  0  0
  -34.4734  -21.8583   11.3513 N   0  0  0  0  0  0  0  0  0  0  0  0
  -32.7279  -26.5377   15.9901 N   0  0  0  0  0  0  0  0  0  0  0  0
  -36.8699  -18.1491   20.4095 N   0  3  0  0  0  0  0  0  0  0  0  0
  -30.3729  -26.1191   18.7005 N   0  3  0  0  0  0  0  0  0  0  0  0
  -22.6593  -14.7202   21.3128 O   0  0  0  0  0  0  0  0  0  0  0  0
  -35.6363  -23.1611   12.8917 O   0  0  0  0  0  0  0  0  0  0  0  0
  -32.7652  -25.5673   13.2946 O   0  0  0  0  0  0  0  0  0  0  0  0
  -34.2552  -17.1641   20.1984 O   0  0  0  0  0  0  0  0  0  0  0  0
  -33.0305  -25.4812   18.0320 O   0  0  0  0  0  0  0  0  0  0  0  0
  -31.8542  -14.9372   20.1863 O   0  0  0  0  0  0  0  0  0  0  0  0
  -21.6110   -7.0176   21.7099 O   0  0  0  0  0  0  0  0  0  0  0  0
  -35.4409  -19.1143   18.0966 O   0  0  0  0  0  0  0  0  0  1  0  0
  -16.4461   -6.8301   19.7883 F   0  0  0  0  0  0  0  0  0  0  0  0
  -20.8339   -5.0593   19.9201 F   0  0  0  0  0  0  0  0  0  0  0  0
  -29.2152  -19.9157   24.1602 Cl  0  0  0  0  0  0  0  0  0  0  0  0
  1  2  1  0  0  0  0
  1  5  2  0  0  0  0
  2  6  2  0  0  0  0
  3  8  2  0  0  0  0
  3 16  1  0  0  0  0
  4  9  1  0  0  0  0
  4 16  2  0  0  0  0
  5 18  1  0  0  0  0
  6 20  1  0  0  0  0
  7 10  2  0  0  0  0
  7 19  1  0  0  0  0
  8 23  1  0  0  0  0
  9 23  2  0  0  0  0
 10 24  1  0  0  0  0
 11 12  2  0  0  0  0
 11 25  1  0  0  0  0
 12 26  1  0  0  0  0
 13 21  1  0  0  0  0
 13 24  2  0  0  0  0
 14 26  2  0  0  0  0
 14 27  1  0  0  0  0
 15 28  2  0  0  0  0
 15 30  1  0  0  0  0
 16 29  1  0  0  0  0
 17 29  1  0  0  0  0
 17 32  2  0  0  0  0
 17 33  1  0  0  0  0
 18 20  2  0  0  0  0
 18 39  1  0  0  0  0
 19 21  2  0  0  0  0
 19 40  1  0  0  0  0
 20 48  1  0  0  0  0
 21 41  1  0  0  0  0
 22 28  1  0  0  0  0
 22 31  2  0  0  0  0
 22 66  1  0  0  0  0
 23 81  1  0  0  0  0
 24 82  1  0  0  0  0
 25 27  2  0  0  0  0
 25 81  1  0  0  0  0
 26 83  1  0  0  0  0
 27 84  1  0  0  0  0
 28 85  1  0  0  0  0
 29 61  2  0  0  0  0
 30 62  2  0  0  0  0
 30 70  1  0  0  0  0
 31 62  1  0  0  0  0
 31 69  1  0  0  0  0
 32 63  1  0  0  0  0
 32 67  1  0  0  0  0
 33 68  1  0  0  0  0
 33 75  2  0  0  0  0
 34 49  1  0  0  0  0
 34 71  1  0  0  0  0
 34 76  2  0  0  0  0
 35 57  1  0  0  0  0
 35 64  1  0  0  0  0
 35 77  2  0  0  0  0
 36 58  1  0  0  0  0
 36 69  1  0  0  0  0
 36 78  2  0  0  0  0
 37 59  1  0  0  0  0
 37 72  1  0  0  0  0
 37 79  2  0  0  0  0
 38 65  1  0  0  0  0
 38 70  1  0  0  0  0
 38 80  2  0  0  0  0
 39 42  1  0  0  0  0
 40 49  1  0  0  0  0
 41 64  1  0  0  0  0
 42 44  1  0  0  0  0
 43 45  1  0  0  0  0
 43 46  1  0  0  0  0
 44 48  1  0  0  0  0
 45 50  1  0  0  0  0
 46 65  1  0  0  0  0
 47 50  1  0  0  0  0
 47 65  1  0  0  0  0
 48 71  1  0  0  0  0
 49 64  1  0  0  0  0
 50 63  1  0  0  0  0
 51 59  1  0  0  0  0
 52 60  1  0  0  0  0
 53 60  1  0  0  0  0
 54 60  1  0  0  0  0
 55 74  1  0  0  0  0
 56 58  1  0  0  0  0
 56 82  1  0  0  0  0
 57 60  1  0  0  0  0
 57 72  1  0  0  0  0
 58 73  1  0  0  0  0
 59 74  1  0  0  0  0
 61 63  1  0  0  0  0
M  CHG  2  73   1  74   1
M  ISO  4  38 100  56 101  70 100  82 101
M  END
> <Batch ID>
0188

> <Smiles>
CNC(C)C(=O)NC(C(=O)N1Cc2cc([101O:1][101CH2:1]C(N)C(=O)Nc3nc([100NH:0][100C:0](=O)N4CCCC(n5nc(-c6ccc(Oc7ccc(F)cc7F)cc6)c(C(N)=O)c5N)C4)cc(Cl)c3N)ccc2CC1C(=O)NC1CCCc2ccccc21)C(C)(C)C

> <Shape>
0.170

> <Color>
0.173

> <Negative vol penalty>
0.000

$$$$

  -OEChem-04052305153D

 91100  0     1  0  0  0  0  0999 V2000
  -35.3950  -28.2131   17.7767 C   0  0  0  0  0  0  0  0  0  0  0  0
  -34.6313  -28.6292   18.8625 C   0  0  0  0  0  0  0  0  0  0  0  0
  -24.2245  -15.2882   19.2491 C   0  0  0  0  0  0  0  0  0  0  0  0
  -23.4910  -14.8588   21.5107 C   0  0  0  0  0  0  0  0  0  0  0  0
  -34.8184  -27.4255   16.7812 C   0  0  0  0  0  0  0  0  0  0  0  0
  -33.2900  -28.2588   18.9528 C   0  0  0  0  0  0  0  0  0  0  0  0
  -28.2601  -26.6353   23.7882 C   0  0  0  0  0  0  0  0  0  0  0  0
  -25.1181  -14.2208   19.3362 C   0  0  0  0  0  0  0  0  0  0  0  0
  -24.3847  -13.7914   21.5978 C   0  0  0  0  0  0  0  0  0  0  0  0
  -26.9612  -26.9887   24.1513 C   0  0  0  0  0  0  0  0  0  0  0  0
  -27.8493  -11.8326   19.0900 C   0  0  0  0  0  0  0  0  0  0  0  0
  -29.1458  -12.0299   18.6148 C   0  0  0  0  0  0  0  0  0  0  0  0
  -26.0928  -25.5599   22.4124 C   0  0  0  0  0  0  0  0  0  0  0  0
  -29.4580  -13.8182   20.2091 C   0  0  0  0  0  0  0  0  0  0  0  0
  -24.7674  -31.3111   21.0488 C   0  0  0  0  0  0  0  0  0  0  0  0
  -25.3260  -30.3899   20.1877 C   0  0  0  0  0  0  0  0  0  0  0  0
  -23.4109  -15.6073   20.3364 C   0  0  0  0  0  0  0  0  0  0  0  0
  -21.1519  -16.6669   19.8059 C   0  0  0  0  0  0  0  0  0  0  0  0
  -33.4719  -27.0372   16.8642 C   0  0  0  0  0  0  0  0  0  0  0  0
  -28.4858  -25.7486   22.7256 C   0  0  0  0  0  0  0  0  0  0  0  0
  -32.6944  -27.4663   17.9568 C   0  0  0  0  0  0  0  0  0  0  0  0
  -27.3954  -25.1950   22.0394 C   0  0  0  0  0  0  0  0  0  0  0  0
  -25.1983  -13.4724   20.5105 C   0  0  0  0  0  0  0  0  0  0  0  0
  -25.8774  -26.4532   23.4616 C   0  0  0  0  0  0  0  0  0  0  0  0
  -27.3571  -12.6282   20.1247 C   0  0  0  0  0  0  0  0  0  0  0  0
  -29.9502  -13.0226   19.1744 C   0  0  0  0  0  0  0  0  0  0  0  0
  -28.1615  -13.6209   20.6842 C   0  0  0  0  0  0  0  0  0  0  0  0
  -22.4880  -16.7101   20.2472 C   0  0  0  0  0  0  0  0  0  0  0  0
  -20.7134  -17.9643   19.9109 C   0  0  0  0  0  0  0  0  0  0  0  0
  -19.4672  -26.2260   22.9646 C   0  0  0  0  0  0  0  0  0  0  0  0
  -23.6878  -29.5273   21.7287 C   0  0  0  0  0  0  0  0  0  0  0  0
  -20.2926  -28.1686   22.4351 C   0  0  0  0  0  0  0  0  0  0  0  0
  -20.3764  -15.5535   19.3425 C   0  0  0  0  0  0  0  0  0  0  0  0
  -29.9533  -25.9455   19.9129 C   0  0  0  0  0  0  0  0  0  0  0  0
  -29.3216  -22.7658   19.7995 C   0  0  0  0  0  0  0  0  0  0  0  0
  -19.1623  -24.6542   24.9054 C   0  0  0  0  0  0  0  0  0  0  0  0
  -27.3912  -20.1561   20.8531 C   0  0  0  0  0  0  0  0  0  0  0  0
  -20.2558  -22.6147   22.7589 C   0  0  0  0  0  0  0  0  0  0  0  0
  -32.8801  -26.2247   15.7399 C   0  0  0  0  0  0  0  0  0  0  0  0
  -29.8921  -25.3568   22.3635 C   0  0  0  0  0  0  0  0  0  0  0  0
  -27.5834  -24.2230   20.9044 C   0  0  0  0  0  0  0  0  0  0  0  0
  -31.5522  -25.5633   16.0998 C   0  0  0  0  0  0  0  0  0  0  0  0
  -23.2656  -22.2439   20.7839 C   0  0  0  0  0  0  0  0  0  0  0  0
  -30.6286  -26.5614   16.7909 C   0  0  0  0  0  0  0  0  0  0  0  0
  -23.2168  -20.7561   20.4315 C   0  0  0  0  0  0  0  0  0  0  0  0
  -22.7592  -22.4931   22.2015 C   0  0  0  0  0  0  0  0  0  0  0  0
  -21.3396  -20.4804   22.1167 C   0  0  0  0  0  0  0  0  0  0  0  0
  -31.2428  -27.0644   18.1029 C   0  0  1  0  0  0  0  0  0  0  0  0
  -30.0199  -24.8438   20.9325 C   0  0  1  0  0  0  0  0  0  0  0  0
  -21.8177  -20.1652   20.6876 C   0  0  2  0  0  0  0  0  0  0  0  0
  -27.0919  -17.6821   20.5576 C   0  0  0  0  0  0  0  0  0  0  0  0
  -28.0049  -23.2512   17.0901 C   0  0  0  0  0  0  0  0  0  0  0  0
  -26.9192  -21.0043   17.2934 C   0  0  0  0  0  0  0  0  0  0  0  0
  -29.4060  -21.1833   17.2136 C   0  0  0  0  0  0  0  0  0  0  0  0
  -27.9282  -19.6319   23.7159 C   0  0  0  0  0  0  0  0  0  0  0  0
  -22.5423  -29.7580   26.0042 C   0  0  0  0  0  0  0  0  0  0  0  0
  -24.4183  -28.0977   24.3686 C   0  0  0  0  0  0  0  0  0  1  0  0
  -19.3113  -24.8217   23.3868 C   0  0  2  0  0  0  0  0  0  0  0  0
  -22.7431  -28.6325   22.5080 C   0  0  1  0  0  0  0  0  0  0  0  0
  -28.1765  -21.9206   19.2960 C   0  0  1  0  0  0  0  0  0  0  0  0
  -27.7576  -18.7784   21.3747 C   0  0  2  0  0  0  0  0  0  0  0  0
  -23.0078  -28.5759   24.0271 C   0  0  2  0  0  0  0  0  0  0  0  0
  -28.1228  -21.8596   17.7434 C   0  0  0  0  0  0  0  0  0  0  0  0
  -23.8275  -30.8183   21.9329 N   0  0  0  0  0  0  0  0  0  0  0  0
  -22.8731  -17.9378   20.6057 N   0  0  0  0  0  0  0  0  0  0  0  0
  -20.5993  -26.8862   22.8572 N   0  0  0  0  0  0  0  0  0  0  0  0
  -19.0286  -28.5314   22.2173 N   0  0  0  0  0  0  0  0  0  0  0  0
  -21.7724  -18.6780   20.3898 N   0  0  0  0  0  0  0  0  0  0  0  0
  -28.9778  -23.8759   20.5839 N   0  0  0  0  0  0  0  0  0  0  0  0
  -21.4158  -21.9224   22.3738 N   0  0  0  0  0  0  0  0  0  0  0  0
  -19.5292  -18.5528   19.6394 N   0  0  0  0  0  0  0  0  0  0  0  0
  -20.9815  -14.2901   19.2981 N   0  0  0  0  0  0  0  0  0  0  0  0
  -17.8471  -24.6874   25.3192 N   0  0  0  0  0  0  0  0  0  0  0  0
  -21.3649  -29.0220   22.2657 N   0  0  0  0  0  0  0  0  0  0  0  0
  -31.0947  -26.0702   19.1441 N   0  0  0  0  0  0  0  0  0  0  0  0
  -28.3155  -20.6192   19.9407 N   0  0  0  0  0  0  0  0  0  0  0  0
  -20.4148  -23.9756   22.9900 N   0  0  0  0  0  0  0  0  0  0  0  0
  -27.3300  -18.6316   22.7948 N   0  3  0  0  0  0  0  0  0  0  0  0
  -19.1872  -15.6784   18.9632 O   0  0  0  0  0  0  0  0  0  0  0  0
  -28.9408  -26.6306   19.8288 O   0  0  0  0  0  0  0  0  0  0  0  0
  -30.4788  -22.4485   19.5134 O   0  0  0  0  0  0  0  0  0  0  0  0
  -20.1126  -24.5661   25.6795 O   0  0  0  0  0  0  0  0  0  0  0  0
  -26.3837  -20.7594   21.2157 O   0  0  0  0  0  0  0  0  0  0  0  0
  -19.1575  -22.0618   22.8825 O   0  0  0  0  0  0  0  0  0  0  0  0
  -26.0700  -12.4306   20.5958 O   0  0  0  0  0  0  0  0  0  0  0  0
  -24.6086  -26.7969   23.8136 O   0  0  0  0  0  0  0  0  0  1  0  0
  -22.8016  -29.8621   24.6134 O   0  0  0  0  0  0  0  0  0  0  0  0
  -31.1957  -13.2109   18.7190 F   0  0  0  0  0  0  0  0  0  0  0  0
  -27.6946  -14.3876   21.6792 F   0  0  0  0  0  0  0  0  0  0  0  0
  -24.6560  -28.8403   20.4895 S   0  0  0  0  0  0  0  0  0  0  0  0
  -18.1009  -27.1801   22.5550 S   0  0  0  0  0  0  0  0  0  0  0  0
  1  2  1  0  0  0  0
  1  5  2  0  0  0  0
  2  6  2  0  0  0  0
  3  8  2  0  0  0  0
  3 17  1  0  0  0  0
  4  9  1  0  0  0  0
  4 17  2  0  0  0  0
  5 19  1  0  0  0  0
  6 21  1  0  0  0  0
  7 10  2  0  0  0  0
  7 20  1  0  0  0  0
  8 23  1  0  0  0  0
  9 23  2  0  0  0  0
 10 24  1  0  0  0  0
 11 12  2  0  0  0  0
 11 25  1  0  0  0  0
 12 26  1  0  0  0  0
 13 22  1  0  0  0  0
 13 24  2  0  0  0  0
 14 26  2  0  0  0  0
 14 27  1  0  0  0  0
 15 16  2  0  0  0  0
 15 64  1  0  0  0  0
 16 90  1  0  0  0  0
 17 28  1  0  0  0  0
 18 28  1  0  0  0  0
 18 29  2  0  0  0  0
 18 33  1  0  0  0  0
 19 21  2  0  0  0  0
 19 39  1  0  0  0  0
 20 22  2  0  0  0  0
 20 40  1  0  0  0  0
 21 48  1  0  0  0  0
 22 41  1  0  0  0  0
 23 85  1  0  0  0  0
 24 86  1  0  0  0  0
 25 27  2  0  0  0  0
 25 85  1  0  0  0  0
 26 88  1  0  0  0  0
 27 89  1  0  0  0  0
 28 65  2  0  0  0  0
 29 68  1  0  0  0  0
 29 71  1  0  0  0  0
 30 58  1  0  0  0  0
 30 66  2  0  0  0  0
 30 91  1  0  0  0  0
 31 59  1  0  0  0  0
 31 64  2  0  0  0  0
 31 90  1  0  0  0  0
 32 66  1  0  0  0  0
 32 67  2  0  0  0  0
 32 74  1  0  0  0  0
 33 72  1  0  0  0  0
 33 79  2  0  0  0  0
 34 49  1  0  0  0  0
 34 75  1  0  0  0  0
 34 80  2  0  0  0  0
 35 60  1  0  0  0  0
 35 69  1  0  0  0  0
 35 81  2  0  0  0  0
 36 58  1  0  0  0  0
 36 73  1  0  0  0  0
 36 82  2  0  0  0  0
 37 61  1  0  0  0  0
 37 76  1  0  0  0  0
 37 83  2  0  0  0  0
 38 70  1  0  0  0  0
 38 77  1  0  0  0  0
 38 84  2  0  0  0  0
 39 42  1  0  0  0  0
 40 49  1  0  0  0  0
 41 69  1  0  0  0  0
 42 44  1  0  0  0  0
 43 45  1  0  0  0  0
 43 46  1  0  0  0  0
 44 48  1  0  0  0  0
 45 50  1  0  0  0  0
 46 70  1  0  0  0  0
 47 50  1  0  0  0  0
 47 70  1  0  0  0  0
 48 75  1  0  0  0  0
 49 69  1  0  0  0  0
 50 68  1  0  0  0  0
 51 61  1  0  0  0  0
 52 63  1  0  0  0  0
 53 63  1  0  0  0  0
 54 63  1  0  0  0  0
 55 78  1  0  0  0  0
 56 87  1  0  0  0  0
 57 62  1  0  0  0  0
 57 86  1  0  0  0  0
 58 77  1  0  0  0  0
 59 62  1  0  0  0  0
 59 74  1  0  0  0  0
 60 63  1  0  0  0  0
 60 76  1  0  0  0  0
 61 78  1  0  0  0  0
 62 87  1  0  0  0  0
 65 68  1  0  0  0  0
 67 91  1  0  0  0  0
M  CHG  1  78   1
M  ISO  4  38 100  57 101  77 100  86 101
M  END
> <Batch ID>
0188

> <Smiles>
CNC(C)C(=O)NC(C(=O)N1Cc2cc([101O:1][101CH2:1]C(OC)C(Nc3nsc(C([100NH:0][100C:0](=O)N4CCCC(n5nc(-c6ccc(Oc7ccc(F)cc7F)cc6)c(C(N)=O)c5N)C4)C(N)=O)n3)c3nccs3)ccc2CC1C(=O)NC1CCCc2ccccc21)C(C)(C)C

> <Shape>
0.220

> <Color>
0.087

> <Negative vol penalty>
0.000

$$$$

  -OEChem-04052305153D

 84 92  0     1  0  0  0  0  0999 V2000
  -21.1394  -14.2582   18.8112 C   0  0  0  0  0  0  0  0  0  0  0  0
  -21.6429  -15.5379   18.6007 C   0  0  0  0  0  0  0  0  0  0  0  0
  -18.9153  -20.9936   21.6469 C   0  0  0  0  0  0  0  0  0  0  0  0
  -21.2288  -21.1625   20.9717 C   0  0  0  0  0  0  0  0  0  0  0  0
  -21.6943  -13.4458   19.7991 C   0  0  0  0  0  0  0  0  0  0  0  0
  -22.7010  -16.0063   19.3788 C   0  0  0  0  0  0  0  0  0  0  0  0
  -27.2208  -19.7306   17.5880 C   0  0  0  0  0  0  0  0  0  0  0  0
  -18.7521  -19.8886   20.8115 C   0  0  0  0  0  0  0  0  0  0  0  0
  -21.0657  -20.0575   20.1362 C   0  0  0  0  0  0  0  0  0  0  0  0
  -27.4154  -21.1041   17.7277 C   0  0  0  0  0  0  0  0  0  0  0  0
  -17.6317  -17.2425   18.5829 C   0  0  0  0  0  0  0  0  0  0  0  0
  -16.4897  -17.1950   17.7834 C   0  0  0  0  0  0  0  0  0  0  0  0
  -28.7643  -20.7074   19.6879 C   0  0  0  0  0  0  0  0  0  0  0  0
  -17.1540  -19.2561   16.7121 C   0  0  0  0  0  0  0  0  0  0  0  0
  -20.1536  -21.6306   21.7269 C   0  0  0  0  0  0  0  0  0  0  0  0
  -20.7176  -22.7663   23.9405 C   0  0  0  0  0  0  0  0  0  0  0  0
  -22.7661  -13.9009   20.5832 C   0  0  0  0  0  0  0  0  0  0  0  0
  -27.7884  -18.8344   18.5051 C   0  0  0  0  0  0  0  0  0  0  0  0
  -23.2699  -15.1997   20.3790 C   0  0  0  0  0  0  0  0  0  0  0  0
  -28.5775  -19.3229   19.5562 C   0  0  0  0  0  0  0  0  0  0  0  0
  -19.8273  -19.4205   20.0562 C   0  0  0  0  0  0  0  0  0  0  0  0
  -28.1848  -21.5929   18.7795 C   0  0  0  0  0  0  0  0  0  0  0  0
  -18.5348  -18.2968   18.4471 C   0  0  0  0  0  0  0  0  0  0  0  0
  -16.2509  -18.2018   16.8480 C   0  0  0  0  0  0  0  0  0  0  0  0
  -18.2960  -19.3036   17.5117 C   0  0  0  0  0  0  0  0  0  0  0  0
  -20.3226  -22.7725   22.5893 C   0  0  0  0  0  0  0  0  0  0  0  0
  -26.1061  -28.5920   21.1775 C   0  0  0  0  0  0  0  0  0  0  0  0
  -25.0027  -28.6858   20.3555 C   0  0  0  0  0  0  0  0  0  0  0  0
  -20.7272  -24.0914   24.3016 C   0  0  0  0  0  0  0  0  0  0  0  0
  -26.7784  -27.2602   19.5700 C   0  0  0  0  0  0  0  0  0  0  0  0
  -21.0467  -21.6614   24.7930 C   0  0  0  0  0  0  0  0  0  0  0  0
  -26.6384  -16.7066   20.5675 C   0  0  0  0  0  0  0  0  0  0  0  0
  -29.7735  -15.9720   20.9595 C   0  0  0  0  0  0  0  0  0  0  0  0
  -33.0312  -16.9655   20.7414 C   0  0  0  0  0  0  0  0  0  0  0  0
  -28.7866  -25.8503   19.0166 C   0  0  0  0  0  0  0  0  0  0  0  0
  -21.3794  -29.1621   21.1848 C   0  0  0  0  0  0  0  0  0  0  0  0
  -23.3020  -13.0041   21.6709 C   0  0  0  0  0  0  0  0  0  0  0  0
  -27.5912  -17.3542   18.3250 C   0  0  0  0  0  0  0  0  0  0  0  0
  -29.2256  -18.4015   20.5558 C   0  0  0  0  0  0  0  0  0  0  0  0
  -24.6670  -13.4369   22.1998 C   0  0  0  0  0  0  0  0  0  0  0  0
  -18.6349  -28.2686   23.2697 C   0  0  0  0  0  0  0  0  0  0  0  0
  -24.6826  -14.9377   22.4722 C   0  0  0  0  0  0  0  0  0  0  0  0
  -18.7919  -26.7581   23.4536 C   0  0  0  0  0  0  0  0  0  0  0  0
  -19.0406  -28.7113   21.8656 C   0  0  0  0  0  0  0  0  0  0  0  0
  -20.5459  -26.7741   21.6309 C   0  0  0  0  0  0  0  0  0  0  0  0
  -24.4331  -15.7344   21.1860 C   0  0  1  0  0  0  0  0  0  0  0  0
  -27.7910  -16.5635   19.6143 C   0  0  1  0  0  0  0  0  0  0  0  0
  -20.2020  -26.2875   23.0492 C   0  0  2  0  0  0  0  0  0  0  0  0
  -26.2864  -29.2787   22.4729 C   0  0  0  0  0  0  0  0  0  0  0  0
  -35.3692  -16.1594   21.1674 C   0  0  0  0  0  0  0  0  0  0  0  0
  -29.3652  -16.3788   23.9558 C   0  0  0  0  0  0  0  0  0  0  0  0
  -31.8531  -16.5032   24.2072 C   0  0  0  0  0  0  0  0  0  0  0  0
  -30.7904  -14.4137   23.3544 C   0  0  0  0  0  0  0  0  0  0  0  0
  -33.7771  -17.2638   17.8930 C   0  0  0  0  0  0  0  0  0  0  0  0
  -23.7535  -29.4547   20.5239 C   0  0  0  0  0  0  0  0  0  0  0  0
  -28.3733  -23.7166   17.7259 C   0  0  0  0  0  0  0  0  0  1  0  0
  -30.8796  -16.4555   21.8661 C   0  0  1  0  0  0  0  0  0  0  0  0
  -34.2523  -16.2903   20.1435 C   0  0  2  0  0  0  0  0  0  0  0  0
  -29.2608  -24.9407   17.8963 C   0  0  2  0  0  0  0  0  0  0  0  0
  -30.7084  -15.9555   23.3283 C   0  0  0  0  0  0  0  0  0  0  0  0
  -20.0973  -24.0039   22.1236 N   0  0  0  0  0  0  0  0  0  0  0  0
  -27.1252  -27.7747   20.7290 N   0  0  0  0  0  0  0  0  0  0  0  0
  -20.3515  -24.7838   23.1882 N   0  0  0  0  0  0  0  0  0  0  0  0
  -28.9980  -16.9629   20.3409 N   0  0  0  0  0  0  0  0  0  0  0  0
  -20.3879  -28.2343   21.5446 N   0  0  0  0  0  0  0  0  0  0  0  0
  -21.0200  -24.7203   25.4597 N   0  0  0  0  0  0  0  0  0  0  0  0
  -20.9853  -20.3660   24.2615 N   0  0  0  0  0  0  0  0  0  0  0  0
  -27.5246  -26.3713   18.7604 N   0  0  0  0  0  0  0  0  0  0  0  0
  -25.6328  -15.7780   20.3777 N   0  0  0  0  0  0  0  0  0  0  0  0
  -32.1309  -16.0464   21.2373 N   0  0  0  0  0  0  0  0  0  0  0  0
  -22.6301  -28.6268   20.9025 N   0  0  0  0  0  0  0  0  0  0  0  0
  -34.7651  -17.0774   18.9866 N   0  3  0  0  0  0  0  0  0  0  0  0
  -21.3691  -21.8171   25.9952 O   0  0  0  0  0  0  0  0  0  0  0  0
  -26.6604  -17.5928   21.4135 O   0  0  0  0  0  0  0  0  0  0  0  0
  -29.6084  -14.7600   20.8003 O   0  0  0  0  0  0  0  0  0  0  0  0
  -32.8918  -18.1862   20.7692 O   0  0  0  0  0  0  0  0  0  0  0  0
  -29.5005  -26.0582   19.9935 O   0  0  0  0  0  0  0  0  0  0  0  0
  -21.1670  -30.3780   21.1252 O   0  0  0  0  0  0  0  0  0  0  0  0
  -19.6685  -18.3421   19.2411 O   0  0  0  0  0  0  0  0  0  0  0  0
  -28.3758  -22.9330   18.9185 O   0  0  0  0  0  0  0  0  0  1  0  0
  -15.1550  -18.1552   16.0792 F   0  0  0  0  0  0  0  0  0  0  0  0
  -19.1606  -20.3184   17.3758 F   0  0  0  0  0  0  0  0  0  0  0  0
  -30.5328  -24.5108   18.1381 F   0  0  0  0  0  0  0  0  0  0  0  0
  -25.2406  -27.7168   18.9606 S   0  0  0  0  0  0  0  0  0  0  0  0
  1  2  1  0  0  0  0
  1  5  2  0  0  0  0
  2  6  2  0  0  0  0
  3  8  2  0  0  0  0
  3 15  1  0  0  0  0
  4  9  1  0  0  0  0
  4 15  2  0  0  0  0
  5 17  1  0  0  0  0
  6 19  1  0  0  0  0
  7 10  2  0  0  0  0
  7 18  1  0  0  0  0
  8 21  1  0  0  0  0
  9 21  2  0  0  0  0
 10 22  1  0  0  0  0
 11 12  2  0  0  0  0
 11 23  1  0  0  0  0
 12 24  1  0  0  0  0
 13 20  1  0  0  0  0
 13 22  2  0  0  0  0
 14 24  2  0  0  0  0
 14 25  1  0  0  0  0
 15 26  1  0  0  0  0
 16 26  1  0  0  0  0
 16 29  2  0  0  0  0
 16 31  1  0  0  0  0
 17 19  2  0  0  0  0
 17 37  1  0  0  0  0
 18 20  2  0  0  0  0
 18 38  1  0  0  0  0
 19 46  1  0  0  0  0
 20 39  1  0  0  0  0
 21 79  1  0  0  0  0
 22 80  1  0  0  0  0
 23 25  2  0  0  0  0
 23 79  1  0  0  0  0
 24 81  1  0  0  0  0
 25 82  1  0  0  0  0
 26 61  2  0  0  0  0
 27 28  2  0  0  0  0
 27 49  1  0  0  0  0
 27 62  1  0  0  0  0
 28 55  1  0  0  0  0
 28 84  1  0  0  0  0
 29 63  1  0  0  0  0
 29 66  1  0  0  0  0
 30 62  2  0  0  0  0
 30 68  1  0  0  0  0
 30 84  1  0  0  0  0
 31 67  1  0  0  0  0
 31 73  2  0  0  0  0
 32 47  1  0  0  0  0
 32 69  1  0  0  0  0
 32 74  2  0  0  0  0
 33 57  1  0  0  0  0
 33 64  1  0  0  0  0
 33 75  2  0  0  0  0
 34 58  1  0  0  0  0
 34 70  1  0  0  0  0
 34 76  2  0  0  0  0
 35 59  1  0  0  0  0
 35 68  1  0  0  0  0
 35 77  2  0  0  0  0
 36 65  1  0  0  0  0
 36 71  1  0  0  0  0
 36 78  2  0  0  0  0
 37 40  1  0  0  0  0
 38 47  1  0  0  0  0
 39 64  1  0  0  0  0
 40 42  1  0  0  0  0
 41 43  1  0  0  0  0
 41 44  1  0  0  0  0
 42 46  1  0  0  0  0
 43 48  1  0  0  0  0
 44 65  1  0  0  0  0
 45 48  1  0  0  0  0
 45 65  1  0  0  0  0
 46 69  1  0  0  0  0
 47 64  1  0  0  0  0
 48 63  1  0  0  0  0
 50 58  1  0  0  0  0
 51 60  1  0  0  0  0
 52 60  1  0  0  0  0
 53 60  1  0  0  0  0
 54 72  1  0  0  0  0
 55 71  1  0  0  0  0
 56 59  1  0  0  0  0
 56 80  1  0  0  0  0
 57 60  1  0  0  0  0
 57 70  1  0  0  0  0
 58 72  1  0  0  0  0
 59 83  1  0  0  0  0
 61 63  1  0  0  0  0
M  CHG  1  72   1
M  ISO  4  36 100  56 101  71 100  80 101
M  END
> <Batch ID>
0188

> <Smiles>
CNC(C)C(=O)NC(C(=O)N1Cc2cc([101O:1][101CH2:1]C(F)C(=O)Nc3nc(C)c(C[100NH:0][100C:0](=O)N4CCCC(n5nc(-c6ccc(Oc7ccc(F)cc7F)cc6)c(C(N)=O)c5N)C4)s3)ccc2CC1C(=O)NC1CCCc2ccccc21)C(C)(C)C

> <Shape>
0.206

> <Color>
0.066

> <Negative vol penalty>
0.000

$$$$

  -OEChem-04052305153D

 86 94  0     1  0  0  0  0  0999 V2000
  -21.1527  -34.4711   22.6684 C   0  0  0  0  0  0  0  0  0  0  0  0
  -22.3641  -33.7970   22.5530 C   0  0  0  0  0  0  0  0  0  0  0  0
  -26.0203  -12.2463   21.5699 C   0  0  0  0  0  0  0  0  0  0  0  0
  -24.8076  -13.1660   19.6936 C   0  0  0  0  0  0  0  0  0  0  0  0
  -20.0165  -33.7909   23.1048 C   0  0  0  0  0  0  0  0  0  0  0  0
  -22.4404  -32.4424   22.8751 C   0  0  0  0  0  0  0  0  0  0  0  0
  -25.0512  -29.7757   19.4520 C   0  0  0  0  0  0  0  0  0  0  0  0
  -25.1067  -11.1950   21.6451 C   0  0  0  0  0  0  0  0  0  0  0  0
  -23.8940  -12.1146   19.7687 C   0  0  0  0  0  0  0  0  0  0  0  0
  -26.4419  -29.8593   19.5056 C   0  0  0  0  0  0  0  0  0  0  0  0
  -24.5168   -8.2868   20.0241 C   0  0  0  0  0  0  0  0  0  0  0  0
  -25.0240   -6.9977   20.1870 C   0  0  0  0  0  0  0  0  0  0  0  0
  -26.5183  -27.7456   20.6656 C   0  0  0  0  0  0  0  0  0  0  0  0
  -23.8083   -6.7818   22.2636 C   0  0  0  0  0  0  0  0  0  0  0  0
  -25.8707  -13.2318   20.5941 C   0  0  0  0  0  0  0  0  0  0  0  0
  -28.0044  -14.3586   19.7663 C   0  0  0  0  0  0  0  0  0  0  0  0
  -20.0768  -32.4251   23.4232 C   0  0  0  0  0  0  0  0  0  0  0  0
  -24.3818  -28.6798   20.0154 C   0  0  0  0  0  0  0  0  0  0  0  0
  -21.3043  -31.7436   23.3175 C   0  0  0  0  0  0  0  0  0  0  0  0
  -25.1193  -27.6492   20.6156 C   0  0  0  0  0  0  0  0  0  0  0  0
  -24.0436  -11.1291   20.7445 C   0  0  0  0  0  0  0  0  0  0  0  0
  -27.1754  -28.8456   20.1150 C   0  0  0  0  0  0  0  0  0  0  0  0
  -23.6554   -8.8235   20.9810 C   0  0  0  0  0  0  0  0  0  0  0  0
  -24.6697   -6.2452   21.3067 C   0  0  0  0  0  0  0  0  0  0  0  0
  -23.3011   -8.0710   22.1007 C   0  0  0  0  0  0  0  0  0  0  0  0
  -26.8138  -14.3184   20.5163 C   0  0  0  0  0  0  0  0  0  0  0  0
  -29.7097  -23.8371   17.6745 C   0  0  0  0  0  0  0  0  0  0  0  0
  -28.5346  -15.5979   20.0299 C   0  0  0  0  0  0  0  0  0  0  0  0
  -29.3435  -23.2807   16.4669 C   0  0  0  0  0  0  0  0  0  0  0  0
  -28.6026  -22.1025   18.4330 C   0  0  0  0  0  0  0  0  0  0  0  0
  -28.5796  -13.3646   18.9079 C   0  0  0  0  0  0  0  0  0  0  0  0
  -30.5085  -25.0814   17.8186 C   0  0  0  0  0  0  0  0  0  0  0  0
  -22.2591  -28.3072   22.3519 C   0  0  0  0  0  0  0  0  0  0  0  0
  -22.2365  -25.2343   21.3131 C   0  0  0  0  0  0  0  0  0  0  0  0
  -23.8657  -22.7125   19.6904 C   0  0  0  0  0  0  0  0  0  0  0  0
  -27.9749  -21.1020   20.6581 C   0  0  0  0  0  0  0  0  0  0  0  0
  -18.8328  -31.7436   23.9359 C   0  0  0  0  0  0  0  0  0  0  0  0
  -22.8830  -28.5915   19.9258 C   0  0  0  0  0  0  0  0  0  0  0  0
  -24.4497  -26.4417   21.2174 C   0  0  0  0  0  0  0  0  0  0  0  0
  -18.9139  -30.2197   23.8990 C   0  0  0  0  0  0  0  0  0  0  0  0
  -27.2462  -19.0647   23.4857 C   0  0  0  0  0  0  0  0  0  0  0  0
  -20.2467  -29.7422   24.4669 C   0  0  0  0  0  0  0  0  0  0  0  0
  -27.1666  -17.6516   22.9036 C   0  0  0  0  0  0  0  0  0  0  0  0
  -26.6734  -20.1064   22.5263 C   0  0  0  0  0  0  0  0  0  0  0  0
  -27.1570  -18.6644   20.5882 C   0  0  0  0  0  0  0  0  0  0  0  0
  -21.4216  -30.2684   23.6337 C   0  0  1  0  0  0  0  0  0  0  0  0
  -22.2736  -27.6800   20.9866 C   0  0  1  0  0  0  0  0  0  0  0  0
  -27.7813  -17.5884   21.4916 C   0  0  2  0  0  0  0  0  0  0  0  0
  -33.2558  -25.2977   20.6660 C   0  0  0  0  0  0  0  0  0  0  0  0
  -23.6097  -20.3043   19.0331 C   0  0  0  0  0  0  0  0  0  0  0  0
  -22.8222  -24.3904   24.1862 C   0  0  0  0  0  0  0  0  0  0  0  0
  -23.4874  -22.1392   23.3156 C   0  0  0  0  0  0  0  0  0  0  0  0
  -21.1523  -22.9573   22.9978 C   0  0  0  0  0  0  0  0  0  0  0  0
  -24.0507  -23.3591   16.8083 C   0  0  0  0  0  0  0  0  0  0  0  0
  -32.3312  -26.5086   20.7139 C   0  0  0  0  0  0  0  0  0  0  0  0
  -29.2560  -27.6948   20.1705 C   0  0  0  0  0  0  0  0  0  1  0  0
  -23.0220  -23.9883   21.6437 C   0  0  1  0  0  0  0  0  0  0  0  0
  -23.4091  -21.7507   18.6084 C   0  0  2  0  0  0  0  0  0  0  0  0
  -31.5183  -26.6828   19.4224 C   0  0  2  0  0  0  0  0  0  0  0  0
  -30.5984  -27.9180   19.4757 C   0  0  1  0  0  0  0  0  0  0  0  0
  -22.6338  -23.3923   23.0263 C   0  0  0  0  0  0  0  0  0  0  0  0
  -26.6000  -15.4427   21.2049 N   0  0  0  0  0  0  0  0  0  0  0  0
  -29.2854  -23.1631   18.8030 N   0  0  0  0  0  0  0  0  0  0  0  0
  -27.6635  -16.2010   20.8887 N   0  0  0  0  0  0  0  0  0  0  0  0
  -22.9819  -26.4044   21.1102 N   0  0  0  0  0  0  0  0  0  0  0  0
  -27.3056  -19.9894   21.2104 N   0  0  0  0  0  0  0  0  0  0  0  0
  -29.6564  -16.2196   19.6087 N   0  0  0  0  0  0  0  0  0  0  0  0
  -29.6204  -23.7282   15.2175 N   0  0  0  0  0  0  0  0  0  0  0  0
  -27.9038  -12.1471   18.7489 N   0  0  0  0  0  0  0  0  0  0  0  0
  -27.9867  -21.1342   19.2641 N   0  0  0  0  0  0  0  0  0  0  0  0
  -30.7738  -25.4794   19.1181 N   0  0  0  0  0  0  0  0  0  0  0  0
  -21.5625  -29.4989   22.4162 N   0  0  0  0  0  0  0  0  0  0  0  0
  -22.8280  -23.0742   20.5233 N   0  0  0  0  0  0  0  0  0  0  0  0
  -24.1765  -21.9823   17.3520 N   0  3  0  0  0  0  0  0  0  0  0  0
  -29.6692  -13.5443   18.3128 O   0  0  0  0  0  0  0  0  0  0  0  0
  -30.8642  -25.6862   16.8106 O   0  0  0  0  0  0  0  0  0  0  0  0
  -22.8358  -27.7504   23.2787 O   0  0  0  0  0  0  0  0  0  0  0  0
  -21.0074  -25.1703   21.2307 O   0  0  0  0  0  0  0  0  0  0  0  0
  -25.0275  -23.1010   19.7894 O   0  0  0  0  0  0  0  0  0  0  0  0
  -28.5225  -21.9485   21.3692 O   0  0  0  0  0  0  0  0  0  0  0  0
  -30.3545  -28.3452   18.1312 O   0  0  0  0  0  0  0  0  0  0  0  0
  -23.1521  -10.1032   20.8174 O   0  0  0  0  0  0  0  0  0  0  0  0
  -28.5329  -28.9251   20.1692 O   0  0  0  0  0  0  0  0  0  1  0  0
  -25.1556   -5.0067   21.4623 F   0  0  0  0  0  0  0  0  0  0  0  0
  -22.4730   -8.5808   23.0228 F   0  0  0  0  0  0  0  0  0  0  0  0
  -28.4323  -21.8543   16.7435 S   0  0  0  0  0  0  0  0  0  0  0  0
  1  2  1  0  0  0  0
  1  5  2  0  0  0  0
  2  6  2  0  0  0  0
  3  8  2  0  0  0  0
  3 15  1  0  0  0  0
  4  9  1  0  0  0  0
  4 15  2  0  0  0  0
  5 17  1  0  0  0  0
  6 19  1  0  0  0  0
  7 10  2  0  0  0  0
  7 18  1  0  0  0  0
  8 21  1  0  0  0  0
  9 21  2  0  0  0  0
 10 22  1  0  0  0  0
 11 12  2  0  0  0  0
 11 23  1  0  0  0  0
 12 24  1  0  0  0  0
 13 20  1  0  0  0  0
 13 22  2  0  0  0  0
 14 24  2  0  0  0  0
 14 25  1  0  0  0  0
 15 26  1  0  0  0  0
 16 26  1  0  0  0  0
 16 28  2  0  0  0  0
 16 31  1  0  0  0  0
 17 19  2  0  0  0  0
 17 37  1  0  0  0  0
 18 20  2  0  0  0  0
 18 38  1  0  0  0  0
 19 46  1  0  0  0  0
 20 39  1  0  0  0  0
 21 82  1  0  0  0  0
 22 83  1  0  0  0  0
 23 25  2  0  0  0  0
 23 82  1  0  0  0  0
 24 84  1  0  0  0  0
 25 85  1  0  0  0  0
 26 62  2  0  0  0  0
 27 29  2  0  0  0  0
 27 32  1  0  0  0  0
 27 63  1  0  0  0  0
 28 64  1  0  0  0  0
 28 67  1  0  0  0  0
 29 68  1  0  0  0  0
 29 86  1  0  0  0  0
 30 63  2  0  0  0  0
 30 70  1  0  0  0  0
 30 86  1  0  0  0  0
 31 69  1  0  0  0  0
 31 75  2  0  0  0  0
 32 71  1  0  0  0  0
 32 76  2  0  0  0  0
 33 47  1  0  0  0  0
 33 72  1  0  0  0  0
 33 77  2  0  0  0  0
 34 57  1  0  0  0  0
 34 65  1  0  0  0  0
 34 78  2  0  0  0  0
 35 58  1  0  0  0  0
 35 73  1  0  0  0  0
 35 79  2  0  0  0  0
 36 66  1  0  0  0  0
 36 70  1  0  0  0  0
 36 80  2  0  0  0  0
 37 40  1  0  0  0  0
 38 47  1  0  0  0  0
 39 65  1  0  0  0  0
 40 42  1  0  0  0  0
 41 43  1  0  0  0  0
 41 44  1  0  0  0  0
 42 46  1  0  0  0  0
 43 48  1  0  0  0  0
 44 66  1  0  0  0  0
 45 48  1  0  0  0  0
 45 66  1  0  0  0  0
 46 72  1  0  0  0  0
 47 65  1  0  0  0  0
 48 64  1  0  0  0  0
 49 55  1  0  0  0  0
 50 58  1  0  0  0  0
 51 61  1  0  0  0  0
 52 61  1  0  0  0  0
 53 61  1  0  0  0  0
 54 74  1  0  0  0  0
 55 59  1  0  0  0  0
 56 60  1  0  0  0  0
 56 83  1  0  0  0  0
 57 61  1  0  0  0  0
 57 73  1  0  0  0  0
 58 74  1  0  0  0  0
 59 60  1  0  0  0  0
 59 71  1  0  0  0  0
 60 81  1  0  0  0  0
 62 64  1  0  0  0  0
M  CHG  1  74   1
M  ISO  4  36 100  56 101  70 100  83 101
M  END
> <Batch ID>
0188

> <Smiles>
CCC(NC(=O)c1nc([100NH:0][100C:0](=O)N2CCCC(n3nc(-c4ccc(Oc5ccc(F)cc5F)cc4)c(C(N)=O)c3N)C2)sc1N)C(O)[101CH2:1][101O:1]c1ccc2c(c1)CN(C(=O)C(NC(=O)C(C)NC)C(C)(C)C)C(C(=O)NC1CCCc3ccccc31)C2

> <Shape>
0.251

> <Color>
0.065

> <Negative vol penalty>
0.000

$$$$

  -OEChem-04052305153D

 85 93  0     1  0  0  0  0  0999 V2000
  -23.9672  -19.6556   14.6318 C   0  0  0  0  0  0  0  0  0  0  0  0
  -24.9989  -18.7225   14.6118 C   0  0  0  0  0  0  0  0  0  0  0  0
  -28.0369  -26.3587   18.0538 C   0  0  0  0  0  0  0  0  0  0  0  0
  -27.2146  -25.8356   20.2645 C   0  0  0  0  0  0  0  0  0  0  0  0
  -23.3954  -20.0350   15.8455 C   0  0  0  0  0  0  0  0  0  0  0  0
  -25.4600  -18.1689   15.8057 C   0  0  0  0  0  0  0  0  0  0  0  0
  -28.1763  -12.0955   18.4612 C   0  0  0  0  0  0  0  0  0  0  0  0
  -27.0458  -27.3303   17.9150 C   0  0  0  0  0  0  0  0  0  0  0  0
  -26.2235  -26.8073   20.1257 C   0  0  0  0  0  0  0  0  0  0  0  0
  -29.2616  -11.6362   19.2061 C   0  0  0  0  0  0  0  0  0  0  0  0
  -25.9872  -30.1712   20.3466 C   0  0  0  0  0  0  0  0  0  0  0  0
  -25.7691  -31.0308   21.4233 C   0  0  0  0  0  0  0  0  0  0  0  0
  -28.1447  -12.3076   21.2361 C   0  0  0  0  0  0  0  0  0  0  0  0
  -23.4843  -30.2603   21.5757 C   0  0  0  0  0  0  0  0  0  0  0  0
  -30.7219  -17.4521   25.1132 C   0  0  0  0  0  0  0  0  0  0  0  0
  -28.1213  -25.6113   19.2286 C   0  0  0  0  0  0  0  0  0  0  0  0
  -30.4397  -24.7820   19.8956 C   0  0  0  0  0  0  0  0  0  0  0  0
  -23.8432  -19.4786   17.0540 C   0  0  0  0  0  0  0  0  0  0  0  0
  -27.0698  -12.6752   19.0985 C   0  0  0  0  0  0  0  0  0  0  0  0
  -24.8945  -18.5422   17.0368 C   0  0  0  0  0  0  0  0  0  0  0  0
  -27.0455  -12.7711   20.4972 C   0  0  0  0  0  0  0  0  0  0  0  0
  -26.1391  -27.5546   18.9510 C   0  0  0  0  0  0  0  0  0  0  0  0
  -29.2472  -11.7449   20.5936 C   0  0  0  0  0  0  0  0  0  0  0  0
  -24.9537  -29.3562   19.8844 C   0  0  0  0  0  0  0  0  0  0  0  0
  -24.5178  -31.0753   22.0378 C   0  0  0  0  0  0  0  0  0  0  0  0
  -23.7024  -29.4007   20.4990 C   0  0  0  0  0  0  0  0  0  0  0  0
  -30.3710  -18.2240   24.0112 C   0  0  0  0  0  0  0  0  0  0  0  0
  -30.9135  -16.0831   24.9634 C   0  0  0  0  0  0  0  0  0  0  0  0
  -29.1446  -24.6071   19.3723 C   0  0  0  0  0  0  0  0  0  0  0  0
  -30.2253  -17.5840   22.7910 C   0  0  0  0  0  0  0  0  0  0  0  0
  -30.7433  -15.5389   23.7006 C   0  0  0  0  0  0  0  0  0  0  0  0
  -31.0135  -23.5367   19.8153 C   0  0  0  0  0  0  0  0  0  0  0  0
  -31.0679  -25.9644   20.4085 C   0  0  0  0  0  0  0  0  0  0  0  0
  -25.6911  -15.5386   19.0359 C   0  0  0  0  0  0  0  0  0  0  0  0
  -23.4753  -14.0815   20.9040 C   0  0  0  0  0  0  0  0  0  0  0  0
  -22.7270  -11.5651   23.0844 C   0  0  0  0  0  0  0  0  0  0  0  0
  -29.6692  -17.9460   20.3608 C   0  0  0  0  0  0  0  0  0  0  0  0
  -23.2262  -19.9550   18.3451 C   0  0  0  0  0  0  0  0  0  0  0  0
  -25.8955  -13.1414   18.2824 C   0  0  0  0  0  0  0  0  0  0  0  0
  -25.8729  -13.3671   21.2309 C   0  0  0  0  0  0  0  0  0  0  0  0
  -23.5187  -19.0422   19.5332 C   0  0  0  0  0  0  0  0  0  0  0  0
  -30.1222  -19.4532   17.1670 C   0  0  0  0  0  0  0  0  0  0  0  0
  -24.9980  -18.6717   19.5702 C   0  0  0  0  0  0  0  0  0  0  0  0
  -30.0433  -20.9533   17.4595 C   0  0  0  0  0  0  0  0  0  0  0  0
  -29.1523  -18.6541   18.0356 C   0  0  0  0  0  0  0  0  0  0  0  0
  -29.1838  -20.4021   19.7713 C   0  0  0  0  0  0  0  0  0  0  0  0
  -25.4054  -17.9009   18.3087 C   0  0  1  0  0  0  0  0  0  0  0  0
  -25.0439  -14.1830   19.0016 C   0  0  1  0  0  0  0  0  0  0  0  0
  -30.1890  -21.2420   18.9665 C   0  0  2  0  0  0  0  0  0  0  0  0
  -31.4999   -9.7524   23.4440 C   0  0  0  0  0  0  0  0  0  0  0  0
  -20.8439  -10.6555   24.4716 C   0  0  0  0  0  0  0  0  0  0  0  0
  -32.0332  -13.7341   21.4534 C   0  0  0  0  0  0  0  0  0  0  0  0
  -23.8737  -16.3373   22.9196 C   0  0  0  0  0  0  0  0  0  0  0  0
  -22.7310  -14.9140   24.6333 C   0  0  0  0  0  0  0  0  0  0  0  0
  -21.4947  -15.6393   22.5917 C   0  0  0  0  0  0  0  0  0  0  0  0
  -22.7636   -8.9783   21.6470 C   0  0  0  0  0  0  0  0  0  0  0  0
  -31.7348  -11.2410   23.2498 C   0  0  0  0  0  0  0  0  0  0  0  0
  -23.2965  -13.8774   22.3890 C   0  0  1  0  0  0  0  0  0  0  0  0
  -21.5663  -10.5880   23.1350 C   0  0  2  0  0  0  0  0  0  0  0  0
  -30.7936  -13.4700   22.3068 C   0  0  1  0  0  0  0  0  0  0  0  0
  -30.5734  -11.9660   22.5552 C   0  0  1  0  0  0  0  0  0  1  0  0
  -22.8721  -15.1825   23.1197 C   0  0  0  0  0  0  0  0  0  0  0  0
  -28.9092  -23.3498   18.9878 N   0  0  0  0  0  0  0  0  0  0  0  0
  -30.4030  -16.2566   22.6066 N   0  0  0  0  0  0  0  0  0  0  0  0
  -30.0643  -22.7234   19.2697 N   0  0  0  0  0  0  0  0  0  0  0  0
  -24.7515  -13.8143   20.3883 N   0  0  0  0  0  0  0  0  0  0  0  0
  -29.3514  -18.9760   19.4504 N   0  0  0  0  0  0  0  0  0  0  0  0
  -32.2324  -23.0690   20.1588 N   0  0  0  0  0  0  0  0  0  0  0  0
  -30.3357  -27.1594   20.4181 N   0  0  0  0  0  0  0  0  0  0  0  0
  -29.8677  -18.3765   21.6722 N   0  0  0  0  0  0  0  0  0  0  0  0
  -30.9364  -14.1766   23.5640 N   0  0  0  0  0  0  0  0  0  0  0  0
  -24.9665  -16.5244   18.3937 N   0  0  0  0  0  0  0  0  0  0  0  0
  -22.3528  -12.7748   22.5387 N   0  0  0  0  0  0  0  0  0  0  0  0
  -22.0535   -9.1941   22.9340 N   0  3  0  0  0  0  0  0  0  0  0  0
  -32.2493  -25.9648   20.8302 O   0  0  0  0  0  0  0  0  0  0  0  0
  -26.7675  -15.6800   19.6043 O   0  0  0  0  0  0  0  0  0  0  0  0
  -22.5162  -14.4572   20.2253 O   0  0  0  0  0  0  0  0  0  0  0  0
  -23.8520  -11.2846   23.4920 O   0  0  0  0  0  0  0  0  0  0  0  0
  -29.7856  -16.7725   19.9982 O   0  0  0  0  0  0  0  0  0  0  0  0
  -25.1720  -28.5028   18.8159 O   0  0  0  0  0  0  0  0  0  0  0  0
  -30.3055  -11.2980   21.3230 O   0  0  0  0  0  0  0  0  0  1  0  0
  -24.3090  -31.8997   23.0727 F   0  0  0  0  0  0  0  0  0  0  0  0
  -22.7061  -28.6193   20.0602 F   0  0  0  0  0  0  0  0  0  0  0  0
  -30.1833  -19.5436   24.1410 F   0  0  0  0  0  0  0  0  0  0  0  0
  -31.2517  -15.3274   26.0160 F   0  0  0  0  0  0  0  0  0  0  0  0
  1  2  1  0  0  0  0
  1  5  2  0  0  0  0
  2  6  2  0  0  0  0
  3  8  2  0  0  0  0
  3 16  1  0  0  0  0
  4  9  1  0  0  0  0
  4 16  2  0  0  0  0
  5 18  1  0  0  0  0
  6 20  1  0  0  0  0
  7 10  2  0  0  0  0
  7 19  1  0  0  0  0
  8 22  1  0  0  0  0
  9 22  2  0  0  0  0
 10 23  1  0  0  0  0
 11 12  2  0  0  0  0
 11 24  1  0  0  0  0
 12 25  1  0  0  0  0
 13 21  1  0  0  0  0
 13 23  2  0  0  0  0
 14 25  2  0  0  0  0
 14 26  1  0  0  0  0
 15 27  2  0  0  0  0
 15 28  1  0  0  0  0
 16 29  1  0  0  0  0
 17 29  1  0  0  0  0
 17 32  2  0  0  0  0
 17 33  1  0  0  0  0
 18 20  2  0  0  0  0
 18 38  1  0  0  0  0
 19 21  2  0  0  0  0
 19 39  1  0  0  0  0
 20 47  1  0  0  0  0
 21 40  1  0  0  0  0
 22 80  1  0  0  0  0
 23 81  1  0  0  0  0
 24 26  2  0  0  0  0
 24 80  1  0  0  0  0
 25 82  1  0  0  0  0
 26 83  1  0  0  0  0
 27 30  1  0  0  0  0
 27 84  1  0  0  0  0
 28 31  2  0  0  0  0
 28 85  1  0  0  0  0
 29 63  2  0  0  0  0
 30 64  2  0  0  0  0
 30 70  1  0  0  0  0
 31 64  1  0  0  0  0
 31 71  1  0  0  0  0
 32 65  1  0  0  0  0
 32 68  1  0  0  0  0
 33 69  1  0  0  0  0
 33 75  2  0  0  0  0
 34 48  1  0  0  0  0
 34 72  1  0  0  0  0
 34 76  2  0  0  0  0
 35 58  1  0  0  0  0
 35 66  1  0  0  0  0
 35 77  2  0  0  0  0
 36 59  1  0  0  0  0
 36 73  1  0  0  0  0
 36 78  2  0  0  0  0
 37 67  1  0  0  0  0
 37 70  1  0  0  0  0
 37 79  2  0  0  0  0
 38 41  1  0  0  0  0
 39 48  1  0  0  0  0
 40 66  1  0  0  0  0
 41 43  1  0  0  0  0
 42 44  1  0  0  0  0
 42 45  1  0  0  0  0
 43 47  1  0  0  0  0
 44 49  1  0  0  0  0
 45 67  1  0  0  0  0
 46 49  1  0  0  0  0
 46 67  1  0  0  0  0
 47 72  1  0  0  0  0
 48 66  1  0  0  0  0
 49 65  1  0  0  0  0
 50 57  1  0  0  0  0
 51 59  1  0  0  0  0
 52 60  1  0  0  0  0
 53 62  1  0  0  0  0
 54 62  1  0  0  0  0
 55 62  1  0  0  0  0
 56 74  1  0  0  0  0
 57 61  1  0  0  0  0
 58 62  1  0  0  0  0
 58 73  1  0  0  0  0
 59 74  1  0  0  0  0
 60 61  1  0  0  0  0
 60 71  1  0  0  0  0
 61 81  1  0  0  0  0
 63 65  1  0  0  0  0
M  CHG  1  74   1
M  ISO  4  37 100  61 101  70 100  81 101
M  END
> <Batch ID>
0188

> <Smiles>
CC[101CH:1](C(C)Nc1nc([100NH:0][100C:0](=O)N2CCCC(n3nc(-c4ccc(Oc5ccc(F)cc5F)cc4)c(C(N)=O)c3N)C2)c(F)cc1F)[101O:1]c1ccc2c(c1)CN(C(=O)C(NC(=O)C(C)NC)C(C)(C)C)C(C(=O)NC1CCCc3ccccc31)C2

> <Shape>
0.258

> <Color>
0.080

> <Negative vol penalty>
0.000

$$$$
