
  -OEChem-04052305183D

 85 93  0     1  0  0  0  0  0999 V2000
  -27.5921  -28.4576   16.8130 C   0  0  0  0  0  0  0  0  0  0  0  0
  -27.5382  -27.0683   16.8622 C   0  0  0  0  0  0  0  0  0  0  0  0
  -31.0285  -21.2388   20.4228 C   0  0  0  0  0  0  0  0  0  0  0  0
  -29.1839  -20.8609   18.9090 C   0  0  0  0  0  0  0  0  0  0  0  0
  -27.1209  -29.2109   17.8875 C   0  0  0  0  0  0  0  0  0  0  0  0
  -27.0139  -26.4315   17.9865 C   0  0  0  0  0  0  0  0  0  0  0  0
  -23.3374  -20.5833   19.8836 C   0  0  0  0  0  0  0  0  0  0  0  0
  -31.2257  -22.5028   19.8671 C   0  0  0  0  0  0  0  0  0  0  0  0
  -29.3810  -22.1250   18.3533 C   0  0  0  0  0  0  0  0  0  0  0  0
  -23.4055  -19.5083   20.7688 C   0  0  0  0  0  0  0  0  0  0  0  0
  -31.9850  -25.9722   19.0913 C   0  0  0  0  0  0  0  0  0  0  0  0
  -32.1946  -27.0392   19.9649 C   0  0  0  0  0  0  0  0  0  0  0  0
  -22.5479  -20.9137   22.5320 C   0  0  0  0  0  0  0  0  0  0  0  0
  -30.0348  -26.6397   20.9711 C   0  0  0  0  0  0  0  0  0  0  0  0
  -25.0884  -10.9057   19.4439 C   0  0  0  0  0  0  0  0  0  0  0  0
  -30.0077  -20.4178   19.9437 C   0  0  0  0  0  0  0  0  0  0  0  0
  -28.9767  -18.7814   21.6072 C   0  0  0  0  0  0  0  0  0  0  0  0
  -26.5817  -28.5831   19.0214 C   0  0  0  0  0  0  0  0  0  0  0  0
  -22.8836  -21.8365   20.3194 C   0  0  0  0  0  0  0  0  0  0  0  0
  -26.5362  -27.1770   19.0777 C   0  0  0  0  0  0  0  0  0  0  0  0
  -22.4726  -22.0023   21.6497 C   0  0  0  0  0  0  0  0  0  0  0  0
  -30.4019  -22.9460   18.8324 C   0  0  0  0  0  0  0  0  0  0  0  0
  -23.0134  -19.6742   22.0939 C   0  0  0  0  0  0  0  0  0  0  0  0
  -30.8002  -25.2390   19.1575 C   0  0  0  0  0  0  0  0  0  0  0  0
  -31.2196  -27.3729   20.9048 C   0  0  0  0  0  0  0  0  0  0  0  0
  -29.8251  -25.5727   20.0975 C   0  0  0  0  0  0  0  0  0  0  0  0
  -29.8039  -19.1117   20.5170 C   0  0  0  0  0  0  0  0  0  0  0  0
  -25.9478  -11.5095   20.3377 C   0  0  0  0  0  0  0  0  0  0  0  0
  -29.1308  -17.4248   21.7566 C   0  0  0  0  0  0  0  0  0  0  0  0
  -24.0942  -12.5233   20.9263 C   0  0  0  0  0  0  0  0  0  0  0  0
  -28.1433  -19.6254   22.4127 C   0  0  0  0  0  0  0  0  0  0  0  0
  -24.1617  -24.7401   20.5184 C   0  0  0  0  0  0  0  0  0  0  0  0
  -21.1504  -25.5813   21.3829 C   0  0  0  0  0  0  0  0  0  0  0  0
  -23.3438  -14.2529   22.5966 C   0  0  0  0  0  0  0  0  0  0  0  0
  -18.1439  -24.6415   22.6960 C   0  0  0  0  0  0  0  0  0  0  0  0
  -29.4692  -12.2964   19.5816 C   0  0  0  0  0  0  0  0  0  0  0  0
  -26.1282  -29.4384   20.1779 C   0  0  0  0  0  0  0  0  0  0  0  0
  -22.7908  -22.9791   19.3455 C   0  0  0  0  0  0  0  0  0  0  0  0
  -21.9588  -23.3220   22.1624 C   0  0  0  0  0  0  0  0  0  0  0  0
  -25.2433  -28.6949   21.1751 C   0  0  0  0  0  0  0  0  0  0  0  0
  -32.4526  -14.2381   19.6595 C   0  0  0  0  0  0  0  0  0  0  0  0
  -25.8480  -27.3367   21.5163 C   0  0  0  0  0  0  0  0  0  0  0  0
  -31.9606  -15.6522   19.9731 C   0  0  0  0  0  0  0  0  0  0  0  0
  -31.4769  -13.4888   18.7547 C   0  0  0  0  0  0  0  0  0  0  0  0
  -29.5940  -14.8616   19.5570 C   0  0  0  0  0  0  0  0  0  0  0  0
  -25.9518  -26.4501   20.2694 C   0  0  1  0  0  0  0  0  0  0  0  0
  -22.7986  -24.3452   20.0246 C   0  0  1  0  0  0  0  0  0  0  0  0
  -30.5175  -15.6371   20.5121 C   0  0  2  0  0  0  0  0  0  0  0  0
  -27.8124  -10.7132   21.8380 C   0  0  0  0  0  0  0  0  0  0  0  0
  -21.2655  -14.1433   24.0328 C   0  0  0  0  0  0  0  0  0  0  0  0
  -15.8908  -25.5582   23.3131 C   0  0  0  0  0  0  0  0  0  0  0  0
  -22.3590  -26.8707   23.8702 C   0  0  0  0  0  0  0  0  0  0  0  0
  -20.0671  -26.9126   24.8770 C   0  0  0  0  0  0  0  0  0  0  0  0
  -20.5343  -28.1965   22.7898 C   0  0  0  0  0  0  0  0  0  0  0  0
  -16.7625  -22.8425   20.7949 C   0  0  0  0  0  0  0  0  0  0  0  0
  -22.3066  -16.3987   23.4725 C   0  0  0  0  0  0  0  0  0  0  0  0
  -22.9065  -17.3200   22.4135 C   0  0  0  0  0  0  0  0  0  1  0  0
  -27.3960  -11.2468   20.4530 C   0  0  2  0  0  0  0  0  0  0  0  0
  -20.3997  -25.6738   22.6894 C   0  0  1  0  0  0  0  0  0  0  0  0
  -22.0427  -14.9588   22.9997 C   0  0  1  0  0  0  0  0  0  0  0  0
  -16.7202  -24.8866   22.2296 C   0  0  2  0  0  0  0  0  0  0  0  0
  -20.8515  -26.8889   23.5477 C   0  0  0  0  0  0  0  0  0  0  0  0
  -30.4368  -18.0504   20.0099 N   0  0  0  0  0  0  0  0  0  0  0  0
  -25.3796  -12.4376   21.1883 N   0  0  0  0  0  0  0  0  0  0  0  0
  -30.0072  -17.0400   20.7849 N   0  0  0  0  0  0  0  0  0  0  0  0
  -21.8928  -24.4105   21.1733 N   0  0  0  0  0  0  0  0  0  0  0  0
  -30.1271  -13.5103   19.3235 N   0  0  0  0  0  0  0  0  0  0  0  0
  -28.6010  -16.5355   22.6231 N   0  0  0  0  0  0  0  0  0  0  0  0
  -28.1016  -20.9960   22.1226 N   0  0  0  0  0  0  0  0  0  0  0  0
  -23.1350  -13.3497   21.5584 N   0  0  0  0  0  0  0  0  0  0  0  0
  -24.6587  -25.8912   19.9377 N   0  0  0  0  0  0  0  0  0  0  0  0
  -18.9818  -25.6791   22.3459 N   0  0  0  0  0  0  0  0  0  0  0  0
  -28.1958  -12.4064   20.1266 N   0  0  0  0  0  0  0  0  0  0  0  0
  -16.0649  -23.5982   21.8669 N   0  3  0  0  0  0  0  0  0  0  0  0
  -27.4687  -19.1801   23.3719 O   0  0  0  0  0  0  0  0  0  0  0  0
  -24.7203  -24.0522   21.3648 O   0  0  0  0  0  0  0  0  0  0  0  0
  -21.0750  -26.5104   20.5750 O   0  0  0  0  0  0  0  0  0  0  0  0
  -24.4077  -14.4992   23.1578 O   0  0  0  0  0  0  0  0  0  0  0  0
  -18.4784  -23.6324   23.3127 O   0  0  0  0  0  0  0  0  0  0  0  0
  -29.9810  -11.1960   19.3488 O   0  0  0  0  0  0  0  0  0  0  0  0
  -30.5938  -24.1795   18.2900 O   0  0  0  0  0  0  0  0  0  0  0  0
  -23.0795  -18.6267   22.9601 O   0  0  0  0  0  0  0  0  0  1  0  0
  -31.4217  -28.3966   21.7447 F   0  0  0  0  0  0  0  0  0  0  0  0
  -28.6854  -24.8713   20.1667 F   0  0  0  0  0  0  0  0  0  0  0  0
  -23.5016  -11.5158   19.6698 S   0  0  0  0  0  0  0  0  0  0  0  0
  1  2  1  0  0  0  0
  1  5  2  0  0  0  0
  2  6  2  0  0  0  0
  3  8  2  0  0  0  0
  3 16  1  0  0  0  0
  4  9  1  0  0  0  0
  4 16  2  0  0  0  0
  5 18  1  0  0  0  0
  6 20  1  0  0  0  0
  7 10  2  0  0  0  0
  7 19  1  0  0  0  0
  8 22  1  0  0  0  0
  9 22  2  0  0  0  0
 10 23  1  0  0  0  0
 11 12  2  0  0  0  0
 11 24  1  0  0  0  0
 12 25  1  0  0  0  0
 13 21  1  0  0  0  0
 13 23  2  0  0  0  0
 14 25  2  0  0  0  0
 14 26  1  0  0  0  0
 15 28  2  0  0  0  0
 15 85  1  0  0  0  0
 16 27  1  0  0  0  0
 17 27  1  0  0  0  0
 17 29  2  0  0  0  0
 17 31  1  0  0  0  0
 18 20  2  0  0  0  0
 18 37  1  0  0  0  0
 19 21  2  0  0  0  0
 19 38  1  0  0  0  0
 20 46  1  0  0  0  0
 21 39  1  0  0  0  0
 22 81  1  0  0  0  0
 23 82  1  0  0  0  0
 24 26  2  0  0  0  0
 24 81  1  0  0  0  0
 25 83  1  0  0  0  0
 26 84  1  0  0  0  0
 27 63  2  0  0  0  0
 28 58  1  0  0  0  0
 28 64  1  0  0  0  0
 29 65  1  0  0  0  0
 29 68  1  0  0  0  0
 30 64  2  0  0  0  0
 30 70  1  0  0  0  0
 30 85  1  0  0  0  0
 31 69  1  0  0  0  0
 31 75  2  0  0  0  0
 32 47  1  0  0  0  0
 32 71  1  0  0  0  0
 32 76  2  0  0  0  0
 33 59  1  0  0  0  0
 33 66  1  0  0  0  0
 33 77  2  0  0  0  0
 34 60  1  0  0  0  0
 34 70  1  0  0  0  0
 34 78  2  0  0  0  0
 35 61  1  0  0  0  0
 35 72  1  0  0  0  0
 35 79  2  0  0  0  0
 36 67  1  0  0  0  0
 36 73  1  0  0  0  0
 36 80  2  0  0  0  0
 37 40  1  0  0  0  0
 38 47  1  0  0  0  0
 39 66  1  0  0  0  0
 40 42  1  0  0  0  0
 41 43  1  0  0  0  0
 41 44  1  0  0  0  0
 42 46  1  0  0  0  0
 43 48  1  0  0  0  0
 44 67  1  0  0  0  0
 45 48  1  0  0  0  0
 45 67  1  0  0  0  0
 46 71  1  0  0  0  0
 47 66  1  0  0  0  0
 48 65  1  0  0  0  0
 49 58  1  0  0  0  0
 50 60  1  0  0  0  0
 51 61  1  0  0  0  0
 52 62  1  0  0  0  0
 53 62  1  0  0  0  0
 54 62  1  0  0  0  0
 55 74  1  0  0  0  0
 56 57  1  0  0  0  0
 56 60  1  0  0  0  0
 57 82  1  0  0  0  0
 58 73  1  0  0  0  0
 59 62  1  0  0  0  0
 59 72  1  0  0  0  0
 61 74  1  0  0  0  0
 63 65  1  0  0  0  0
M  CHG  1  74   1
M  ISO  4  36 100  57 101  73 100  82 101
M  END
> <Batch ID>
0189

> <Smiles>
CNC(C)C(=O)NC(C(=O)N1Cc2cc([101O:1][101CH2:1]CC(C)C(=O)Nc3nc(C(C)[100NH:0][100C:0](=O)N4CCCC(n5nc(-c6ccc(Oc7ccc(F)cc7F)cc6)c(C(N)=O)c5N)C4)cs3)ccc2CC1C(=O)NC1CCCc2ccccc21)C(C)(C)C

> <Shape>
0.232

> <Color>
0.049

> <Negative vol penalty>
0.000

$$$$

  -OEChem-04052305183D

 84 92  0     1  0  0  0  0  0999 V2000
  -28.6759  -34.0519   15.7286 C   0  0  0  0  0  0  0  0  0  0  0  0
  -28.4489  -32.7377   16.1246 C   0  0  0  0  0  0  0  0  0  0  0  0
  -24.9199   -8.3058   21.0348 C   0  0  0  0  0  0  0  0  0  0  0  0
  -23.2556   -9.5816   19.8350 C   0  0  0  0  0  0  0  0  0  0  0  0
  -28.7369  -35.0658   16.6836 C   0  0  0  0  0  0  0  0  0  0  0  0
  -28.2839  -32.4366   17.4761 C   0  0  0  0  0  0  0  0  0  0  0  0
  -24.4117  -29.2798   18.3042 C   0  0  0  0  0  0  0  0  0  0  0  0
  -23.9547   -7.3529   21.3604 C   0  0  0  0  0  0  0  0  0  0  0  0
  -22.2904   -8.6287   20.1605 C   0  0  0  0  0  0  0  0  0  0  0  0
  -24.6236  -27.9281   18.0364 C   0  0  0  0  0  0  0  0  0  0  0  0
  -21.4396   -7.0180   23.5935 C   0  0  0  0  0  0  0  0  0  0  0  0
  -21.4041   -6.5559   24.9091 C   0  0  0  0  0  0  0  0  0  0  0  0
  -24.9748  -27.5233   20.3884 C   0  0  0  0  0  0  0  0  0  0  0  0
  -21.8139   -4.3060   24.1298 C   0  0  0  0  0  0  0  0  0  0  0  0
  -24.5703   -9.4202   20.2722 C   0  0  0  0  0  0  0  0  0  0  0  0
  -26.3976  -10.4204   18.7996 C   0  0  0  0  0  0  0  0  0  0  0  0
  -28.5629  -34.7784   18.0466 C   0  0  0  0  0  0  0  0  0  0  0  0
  -24.4906  -29.7661   19.6171 C   0  0  0  0  0  0  0  0  0  0  0  0
  -28.3439  -33.4474   18.4504 C   0  0  0  0  0  0  0  0  0  0  0  0
  -24.7609  -28.8811   20.6706 C   0  0  0  0  0  0  0  0  0  0  0  0
  -22.6400   -7.5143   20.9232 C   0  0  0  0  0  0  0  0  0  0  0  0
  -24.9081  -27.0501   19.0782 C   0  0  0  0  0  0  0  0  0  0  0  0
  -21.6622   -6.1241   22.5460 C   0  0  0  0  0  0  0  0  0  0  0  0
  -21.5913   -5.1999   25.1773 C   0  0  0  0  0  0  0  0  0  0  0  0
  -21.8493   -4.7681   22.8142 C   0  0  0  0  0  0  0  0  0  0  0  0
  -25.5668  -10.4051   19.9360 C   0  0  0  0  0  0  0  0  0  0  0  0
  -23.1352  -19.4403   19.2732 C   0  0  0  0  0  0  0  0  0  0  0  0
  -24.0388  -20.0545   20.1148 C   0  0  0  0  0  0  0  0  0  0  0  0
  -27.1594  -11.5538   18.9464 C   0  0  0  0  0  0  0  0  0  0  0  0
  -24.6192  -17.9700   20.4726 C   0  0  0  0  0  0  0  0  0  0  0  0
  -26.4738   -9.4931   17.7088 C   0  0  0  0  0  0  0  0  0  0  0  0
  -26.3360  -31.8717   21.1221 C   0  0  0  0  0  0  0  0  0  0  0  0
  -24.2932  -31.3187   23.5805 C   0  0  0  0  0  0  0  0  0  0  0  0
  -22.0562  -29.2166   25.0717 C   0  0  0  0  0  0  0  0  0  0  0  0
  -26.2996  -16.7017   21.8561 C   0  0  0  0  0  0  0  0  0  0  0  0
  -28.6843  -35.9009   19.0465 C   0  0  0  0  0  0  0  0  0  0  0  0
  -24.2330  -31.2222   19.8926 C   0  0  0  0  0  0  0  0  0  0  0  0
  -24.8367  -29.3494   22.1001 C   0  0  0  0  0  0  0  0  0  0  0  0
  -28.1260  -35.5527   20.4240 C   0  0  0  0  0  0  0  0  0  0  0  0
  -28.9956  -14.4215   22.3137 C   0  0  0  0  0  0  0  0  0  0  0  0
  -28.6161  -34.1777   20.8666 C   0  0  0  0  0  0  0  0  0  0  0  0
  -28.5003  -13.1360   21.6472 C   0  0  0  0  0  0  0  0  0  0  0  0
  -27.8649  -15.1645   23.0231 C   0  0  0  0  0  0  0  0  0  0  0  0
  -26.1900  -14.1532   21.5260 C   0  0  0  0  0  0  0  0  0  0  0  0
  -28.1353  -33.0846   19.9047 C   0  0  1  0  0  0  0  0  0  0  0  0
  -24.8457  -31.6994   21.2057 C   0  0  1  0  0  0  0  0  0  0  0  0
  -27.2806  -13.4035   20.7436 C   0  0  2  0  0  0  0  0  0  0  0  0
  -22.0958  -20.0207   18.3983 C   0  0  0  0  0  0  0  0  0  0  0  0
  -20.5787  -29.0232   27.0908 C   0  0  0  0  0  0  0  0  0  0  0  0
  -24.5625  -21.9349   22.6059 C   0  0  0  0  0  0  0  0  0  0  0  0
  -27.3434  -25.3702   18.0165 C   0  0  0  0  0  0  0  0  0  0  0  0
  -26.7332  -30.6957   25.3033 C   0  0  0  0  0  0  0  0  0  0  0  0
  -25.1997  -29.6160   26.9619 C   0  0  0  0  0  0  0  0  0  0  0  0
  -24.9658  -32.0456   26.4471 C   0  0  0  0  0  0  0  0  0  0  0  0
  -19.6126  -29.0463   23.4109 C   0  0  0  0  0  0  0  0  0  0  0  0
  -25.2447  -23.5416   20.7856 C   0  0  0  0  0  0  0  0  0  0  0  0
  -26.1645  -23.7226   19.5729 C   0  0  0  0  0  0  0  0  0  0  0  0
  -24.2417  -30.3391   24.7280 C   0  0  1  0  0  0  0  0  0  0  0  0
  -20.6682  -29.4591   25.6366 C   0  0  2  0  0  0  0  0  0  0  0  0
  -25.0685  -22.0660   21.1728 C   0  0  2  0  0  0  0  0  0  0  0  0
  -26.3845  -25.1887   19.1857 C   0  0  2  0  0  0  0  0  0  1  0  0
  -25.2857  -30.6653   25.8330 C   0  0  0  0  0  0  0  0  0  0  0  0
  -25.7807  -11.4461   20.7451 N   0  0  0  0  0  0  0  0  0  0  0  0
  -24.8904  -19.2130   20.8037 N   0  0  0  0  0  0  0  0  0  0  0  0
  -26.7546  -12.1260   20.1164 N   0  0  0  0  0  0  0  0  0  0  0  0
  -24.5835  -30.7833   22.3176 N   0  0  0  0  0  0  0  0  0  0  0  0
  -26.7460  -15.3865   22.1046 N   0  0  0  0  0  0  0  0  0  0  0  0
  -28.1293  -12.1068   18.1876 N   0  0  0  0  0  0  0  0  0  0  0  0
  -25.6189   -8.3825   17.7151 N   0  0  0  0  0  0  0  0  0  0  0  0
  -24.1181  -21.4246   20.2880 N   0  0  0  0  0  0  0  0  0  0  0  0
  -25.2514  -16.7915   20.9408 N   0  0  0  0  0  0  0  0  0  0  0  0
  -26.7452  -32.7682   20.1534 N   0  0  0  0  0  0  0  0  0  0  0  0
  -22.8597  -30.3303   25.1954 N   0  0  0  0  0  0  0  0  0  0  0  0
  -19.6511  -28.7003   24.8551 N   0  3  0  0  0  0  0  0  0  0  0  0
  -27.2876   -9.6361   16.7650 O   0  0  0  0  0  0  0  0  0  0  0  0
  -27.0609  -31.2393   21.8812 O   0  0  0  0  0  0  0  0  0  0  0  0
  -24.0766  -32.5139   23.7955 O   0  0  0  0  0  0  0  0  0  0  0  0
  -22.3951  -28.1451   24.5741 O   0  0  0  0  0  0  0  0  0  0  0  0
  -26.8277  -17.6786   22.3933 O   0  0  0  0  0  0  0  0  0  0  0  0
  -21.6979   -6.5845   21.2405 O   0  0  0  0  0  0  0  0  0  0  0  0
  -25.1161  -25.7304   18.8194 O   0  0  0  0  0  0  0  0  0  1  0  0
  -21.5587   -4.7565   26.4408 F   0  0  0  0  0  0  0  0  0  0  0  0
  -22.0648   -3.9048   21.8122 F   0  0  0  0  0  0  0  0  0  0  0  0
  -23.3527  -17.7403   19.3376 S   0  0  0  0  0  0  0  0  0  0  0  0
  1  2  1  0  0  0  0
  1  5  2  0  0  0  0
  2  6  2  0  0  0  0
  3  8  2  0  0  0  0
  3 15  1  0  0  0  0
  4  9  1  0  0  0  0
  4 15  2  0  0  0  0
  5 17  1  0  0  0  0
  6 19  1  0  0  0  0
  7 10  2  0  0  0  0
  7 18  1  0  0  0  0
  8 21  1  0  0  0  0
  9 21  2  0  0  0  0
 10 22  1  0  0  0  0
 11 12  2  0  0  0  0
 11 23  1  0  0  0  0
 12 24  1  0  0  0  0
 13 20  1  0  0  0  0
 13 22  2  0  0  0  0
 14 24  2  0  0  0  0
 14 25  1  0  0  0  0
 15 26  1  0  0  0  0
 16 26  1  0  0  0  0
 16 29  2  0  0  0  0
 16 31  1  0  0  0  0
 17 19  2  0  0  0  0
 17 36  1  0  0  0  0
 18 20  2  0  0  0  0
 18 37  1  0  0  0  0
 19 45  1  0  0  0  0
 20 38  1  0  0  0  0
 21 80  1  0  0  0  0
 22 81  1  0  0  0  0
 23 25  2  0  0  0  0
 23 80  1  0  0  0  0
 24 82  1  0  0  0  0
 25 83  1  0  0  0  0
 26 63  2  0  0  0  0
 27 28  2  0  0  0  0
 27 48  1  0  0  0  0
 27 84  1  0  0  0  0
 28 64  1  0  0  0  0
 28 70  1  0  0  0  0
 29 65  1  0  0  0  0
 29 68  1  0  0  0  0
 30 64  2  0  0  0  0
 30 71  1  0  0  0  0
 30 84  1  0  0  0  0
 31 69  1  0  0  0  0
 31 75  2  0  0  0  0
 32 46  1  0  0  0  0
 32 72  1  0  0  0  0
 32 76  2  0  0  0  0
 33 58  1  0  0  0  0
 33 66  1  0  0  0  0
 33 77  2  0  0  0  0
 34 59  1  0  0  0  0
 34 73  1  0  0  0  0
 34 78  2  0  0  0  0
 35 67  1  0  0  0  0
 35 71  1  0  0  0  0
 35 79  2  0  0  0  0
 36 39  1  0  0  0  0
 37 46  1  0  0  0  0
 38 66  1  0  0  0  0
 39 41  1  0  0  0  0
 40 42  1  0  0  0  0
 40 43  1  0  0  0  0
 41 45  1  0  0  0  0
 42 47  1  0  0  0  0
 43 67  1  0  0  0  0
 44 47  1  0  0  0  0
 44 67  1  0  0  0  0
 45 72  1  0  0  0  0
 46 66  1  0  0  0  0
 47 65  1  0  0  0  0
 49 59  1  0  0  0  0
 50 60  1  0  0  0  0
 51 61  1  0  0  0  0
 52 62  1  0  0  0  0
 53 62  1  0  0  0  0
 54 62  1  0  0  0  0
 55 74  1  0  0  0  0
 56 57  1  0  0  0  0
 56 60  1  0  0  0  0
 57 61  1  0  0  0  0
 58 62  1  0  0  0  0
 58 73  1  0  0  0  0
 59 74  1  0  0  0  0
 60 70  1  0  0  0  0
 61 81  1  0  0  0  0
 63 65  1  0  0  0  0
M  CHG  1  74   1
M  ISO  4  35 100  61 101  71 100  81 101
M  END
> <Batch ID>
0189

> <Smiles>
CNC(C)C(=O)NC(C(=O)N1Cc2cc([101O:1][101CH:1](C)CCC(C)Nc3nc([100NH:0][100C:0](=O)N4CCCC(n5nc(-c6ccc(Oc7ccc(F)cc7F)cc6)c(C(N)=O)c5N)C4)sc3C)ccc2CC1C(=O)NC1CCCc2ccccc21)C(C)(C)C

> <Shape>
0.225

> <Color>
0.093

> <Negative vol penalty>
0.000

$$$$

  -OEChem-04052305183D

 86 94  0     1  0  0  0  0  0999 V2000
  -22.1792  -13.6978   24.9053 C   0  0  0  0  0  0  0  0  0  0  0  0
  -23.1564  -14.6871   24.8602 C   0  0  0  0  0  0  0  0  0  0  0  0
  -23.2078   -9.8448   19.9562 C   0  0  0  0  0  0  0  0  0  0  0  0
  -23.9099   -9.9363   22.2661 C   0  0  0  0  0  0  0  0  0  0  0  0
  -20.8401  -14.0328   24.7090 C   0  0  0  0  0  0  0  0  0  0  0  0
  -22.7950  -16.0118   24.6177 C   0  0  0  0  0  0  0  0  0  0  0  0
  -25.1290  -19.2616   27.7220 C   0  0  0  0  0  0  0  0  0  0  0  0
  -22.5171   -8.6605   20.2130 C   0  0  0  0  0  0  0  0  0  0  0  0
  -23.2191   -8.7520   22.5230 C   0  0  0  0  0  0  0  0  0  0  0  0
  -26.4556  -19.5779   27.4322 C   0  0  0  0  0  0  0  0  0  0  0  0
  -20.0214   -7.8033   23.0663 C   0  0  0  0  0  0  0  0  0  0  0  0
  -19.2389   -7.7484   24.2197 C   0  0  0  0  0  0  0  0  0  0  0  0
  -32.0703  -17.7036   21.9779 C   0  0  0  0  0  0  0  0  0  0  0  0
  -31.4051  -18.9528   21.9693 C   0  0  0  0  0  0  0  0  0  0  0  0
  -25.7344  -21.6425   26.4140 C   0  0  0  0  0  0  0  0  0  0  0  0
  -20.5579   -5.8917   25.0260 C   0  0  0  0  0  0  0  0  0  0  0  0
  -23.9043  -10.4827   20.9827 C   0  0  0  0  0  0  0  0  0  0  0  0
  -24.1214  -13.0190   20.8172 C   0  0  0  0  0  0  0  0  0  0  0  0
  -20.4612  -15.3638   24.4735 C   0  0  0  0  0  0  0  0  0  0  0  0
  -24.0926  -20.1297   27.3497 C   0  0  0  0  0  0  0  0  0  0  0  0
  -21.4497  -16.3648   24.4167 C   0  0  0  0  0  0  0  0  0  0  0  0
  -24.3958  -21.3361   26.7026 C   0  0  0  0  0  0  0  0  0  0  0  0
  -22.5227   -8.1142   21.4964 C   0  0  0  0  0  0  0  0  0  0  0  0
  -26.7582  -20.7672   26.7755 C   0  0  0  0  0  0  0  0  0  0  0  0
  -21.0721   -6.9024   22.8927 C   0  0  0  0  0  0  0  0  0  0  0  0
  -19.5072   -6.7926   25.1996 C   0  0  0  0  0  0  0  0  0  0  0  0
  -21.3403   -5.9466   23.8726 C   0  0  0  0  0  0  0  0  0  0  0  0
  -24.6186  -11.7057   20.7179 C   0  0  0  0  0  0  0  0  0  0  0  0
  -31.2485  -16.8379   22.6613 C   0  0  0  0  0  0  0  0  0  0  0  0
  -30.2240  -18.7614   22.6478 C   0  0  0  0  0  0  0  0  0  0  0  0
  -25.1830  -13.8156   20.4639 C   0  0  0  0  0  0  0  0  0  0  0  0
  -22.8167  -13.4778   21.1951 C   0  0  0  0  0  0  0  0  0  0  0  0
  -21.5692  -19.9165   25.4286 C   0  0  0  0  0  0  0  0  0  0  0  0
  -20.8798  -22.8406   26.6521 C   0  0  0  0  0  0  0  0  0  0  0  0
  -22.0068  -25.6980   28.1392 C   0  0  0  0  0  0  0  0  0  0  0  0
  -30.9444  -14.0685   20.9710 C   0  0  0  0  0  0  0  0  0  0  0  0
  -19.0064  -15.6704   24.2202 C   0  0  0  0  0  0  0  0  0  0  0  0
  -22.6690  -19.7865   27.6934 C   0  0  0  0  0  0  0  0  0  0  0  0
  -23.3214  -22.3117   26.2997 C   0  0  0  0  0  0  0  0  0  0  0  0
  -18.6665  -17.1537   24.3409 C   0  0  0  0  0  0  0  0  0  0  0  0
  -29.3668  -13.1205   17.9232 C   0  0  0  0  0  0  0  0  0  0  0  0
  -19.6910  -17.9989   23.5908 C   0  0  0  0  0  0  0  0  0  0  0  0
  -27.9353  -12.7811   18.3424 C   0  0  0  0  0  0  0  0  0  0  0  0
  -30.3806  -12.6997   18.9848 C   0  0  0  0  0  0  0  0  0  0  0  0
  -28.6786  -12.8779   20.7583 C   0  0  0  0  0  0  0  0  0  0  0  0
  -21.0946  -17.8168   24.1809 C   0  0  1  0  0  0  0  0  0  0  0  0
  -21.6519  -20.5021   26.8099 C   0  0  1  0  0  0  0  0  0  0  0  0
  -27.6156  -13.3340   19.7443 C   0  0  2  0  0  0  0  0  0  0  0  0
  -27.1094  -19.4173   19.5638 C   0  0  0  0  0  0  0  0  0  0  0  0
  -21.2136  -27.9241   28.9835 C   0  0  0  0  0  0  0  0  0  0  0  0
  -27.1867  -21.1673   22.0288 C   0  0  0  0  0  0  0  0  0  0  0  0
  -30.8672  -21.5858   25.9200 C   0  0  0  0  0  0  0  0  0  0  0  0
  -20.6869  -23.8577   23.7818 C   0  0  0  0  0  0  0  0  0  0  0  0
  -20.8450  -26.1923   24.6723 C   0  0  0  0  0  0  0  0  0  0  0  0
  -18.9243  -24.7390   25.3216 C   0  0  0  0  0  0  0  0  0  0  0  0
  -22.8741  -25.0893   30.9026 C   0  0  0  0  0  0  0  0  0  0  0  0
  -31.3568  -15.4153   23.0143 C   0  0  0  0  0  0  0  0  0  0  0  0
  -27.8077  -19.0091   20.8552 C   0  0  0  0  0  0  0  0  0  0  0  0
  -29.5360  -20.8384   23.9223 C   0  0  0  0  0  0  0  0  0  0  0  0
  -28.9464  -19.9900   26.2617 C   0  0  0  0  0  0  0  0  0  1  0  0
  -29.0591  -19.6841   22.9968 C   0  0  1  0  0  0  0  0  0  0  0  0
  -21.2166  -24.2633   26.2760 C   0  0  1  0  0  0  0  0  0  0  0  0
  -21.5014  -26.4745   29.3418 C   0  0  2  0  0  0  0  0  0  0  0  0
  -28.3342  -20.2000   21.6990 C   0  0  2  0  0  0  0  0  0  0  0  0
  -30.0720  -20.4207   25.3125 C   0  0  2  0  0  0  0  0  0  0  0  0
  -20.4385  -24.7440   25.0187 C   0  0  0  0  0  0  0  0  0  0  0  0
  -25.8965  -11.6660   20.3316 N   0  0  0  0  0  0  0  0  0  0  0  0
  -26.2114  -12.9642   20.1850 N   0  0  0  0  0  0  0  0  0  0  0  0
  -21.9444  -21.9282   26.6522 N   0  0  0  0  0  0  0  0  0  0  0  0
  -30.0207  -13.2582   20.2904 N   0  0  0  0  0  0  0  0  0  0  0  0
  -25.3279  -15.1544   20.3676 N   0  0  0  0  0  0  0  0  0  0  0  0
  -21.8438  -12.5253   21.5278 N   0  0  0  0  0  0  0  0  0  0  0  0
  -21.2309  -18.5769   25.4048 N   0  0  0  0  0  0  0  0  0  0  0  0
  -20.9792  -25.0681   27.4695 N   0  0  0  0  0  0  0  0  0  0  0  0
  -30.5212  -14.5623   22.1989 N   0  0  0  0  0  0  0  0  0  0  0  0
  -22.5139  -26.4527   30.4352 N   0  3  0  0  0  0  0  0  0  0  0  0
  -22.5174  -14.6957   21.2208 O   0  0  0  0  0  0  0  0  0  0  0  0
  -21.7941  -20.6277   24.4564 O   0  0  0  0  0  0  0  0  0  0  0  0
  -19.7163  -22.5510   26.9421 O   0  0  0  0  0  0  0  0  0  0  0  0
  -23.1938  -25.6577   27.8232 O   0  0  0  0  0  0  0  0  0  0  0  0
  -32.0613  -14.3368   20.5154 O   0  0  0  0  0  0  0  0  0  0  0  0
  -30.1209  -17.4748   23.0729 O   0  0  0  0  0  0  0  0  0  0  0  0
  -21.8485   -6.9587   21.7475 O   0  0  0  0  0  0  0  0  0  0  0  0
  -28.0608  -21.0801   26.4889 O   0  0  0  0  0  0  0  0  0  1  0  0
  -18.7566   -6.7409   26.3078 F   0  0  0  0  0  0  0  0  0  0  0  0
  -22.3491   -5.0792   23.7120 F   0  0  0  0  0  0  0  0  0  0  0  0
  1  2  1  0  0  0  0
  1  5  2  0  0  0  0
  2  6  2  0  0  0  0
  3  8  2  0  0  0  0
  3 17  1  0  0  0  0
  4  9  1  0  0  0  0
  4 17  2  0  0  0  0
  5 19  1  0  0  0  0
  6 21  1  0  0  0  0
  7 10  2  0  0  0  0
  7 20  1  0  0  0  0
  8 23  1  0  0  0  0
  9 23  2  0  0  0  0
 10 24  1  0  0  0  0
 11 12  2  0  0  0  0
 11 25  1  0  0  0  0
 12 26  1  0  0  0  0
 13 14  1  0  0  0  0
 13 29  2  0  0  0  0
 14 30  2  0  0  0  0
 15 22  1  0  0  0  0
 15 24  2  0  0  0  0
 16 26  2  0  0  0  0
 16 27  1  0  0  0  0
 17 28  1  0  0  0  0
 18 28  1  0  0  0  0
 18 31  2  0  0  0  0
 18 32  1  0  0  0  0
 19 21  2  0  0  0  0
 19 37  1  0  0  0  0
 20 22  2  0  0  0  0
 20 38  1  0  0  0  0
 21 46  1  0  0  0  0
 22 39  1  0  0  0  0
 23 83  1  0  0  0  0
 24 84  1  0  0  0  0
 25 27  2  0  0  0  0
 25 83  1  0  0  0  0
 26 85  1  0  0  0  0
 27 86  1  0  0  0  0
 28 67  2  0  0  0  0
 29 57  1  0  0  0  0
 29 82  1  0  0  0  0
 30 61  1  0  0  0  0
 30 82  1  0  0  0  0
 31 68  1  0  0  0  0
 31 71  1  0  0  0  0
 32 72  1  0  0  0  0
 32 77  2  0  0  0  0
 33 47  1  0  0  0  0
 33 73  1  0  0  0  0
 33 78  2  0  0  0  0
 34 62  1  0  0  0  0
 34 69  1  0  0  0  0
 34 79  2  0  0  0  0
 35 63  1  0  0  0  0
 35 74  1  0  0  0  0
 35 80  2  0  0  0  0
 36 70  1  0  0  0  0
 36 75  1  0  0  0  0
 36 81  2  0  0  0  0
 37 40  1  0  0  0  0
 38 47  1  0  0  0  0
 39 69  1  0  0  0  0
 40 42  1  0  0  0  0
 41 43  1  0  0  0  0
 41 44  1  0  0  0  0
 42 46  1  0  0  0  0
 43 48  1  0  0  0  0
 44 70  1  0  0  0  0
 45 48  1  0  0  0  0
 45 70  1  0  0  0  0
 46 73  1  0  0  0  0
 47 69  1  0  0  0  0
 48 68  1  0  0  0  0
 49 58  1  0  0  0  0
 50 63  1  0  0  0  0
 51 64  1  0  0  0  0
 52 65  1  0  0  0  0
 53 66  1  0  0  0  0
 54 66  1  0  0  0  0
 55 66  1  0  0  0  0
 56 76  1  0  0  0  0
 57 75  1  0  0  0  0
 58 64  1  0  0  0  0
 59 61  1  0  0  0  0
 59 65  1  0  0  0  0
 60 65  1  0  0  0  0
 60 84  1  0  0  0  0
 61 64  1  0  0  0  0
 62 66  1  0  0  0  0
 62 74  1  0  0  0  0
 63 76  1  0  0  0  0
 67 68  1  0  0  0  0
M  CHG  1  76   1
M  ISO  4  36 100  60 101  75 100  84 101
M  END
> <Batch ID>
0189

> <Smiles>
CCC(C)C(CC(C)[101CH2:1][101O:1]c1ccc2c(c1)CN(C(=O)C(NC(=O)C(C)NC)C(C)(C)C)C(C(=O)NC1CCCc3ccccc31)C2)c1ccc(C[100NH:0][100C:0](=O)N2CCCC(n3nc(-c4ccc(Oc5ccc(F)cc5F)cc4)c(C(N)=O)c3N)C2)o1

> <Shape>
0.186

> <Color>
0.174

> <Negative vol penalty>
0.000

$$$$

  -OEChem-04052305183D

 86 94  0     1  0  0  0  0  0999 V2000
  -28.1208  -11.2211   19.1365 C   0  0  0  0  0  0  0  0  0  0  0  0
  -28.2491  -12.4689   18.5350 C   0  0  0  0  0  0  0  0  0  0  0  0
  -24.3059  -28.6618   21.9311 C   0  0  0  0  0  0  0  0  0  0  0  0
  -25.4820  -30.3565   20.6733 C   0  0  0  0  0  0  0  0  0  0  0  0
  -27.0322  -10.9573   19.9666 C   0  0  0  0  0  0  0  0  0  0  0  0
  -27.2881  -13.4534   18.7624 C   0  0  0  0  0  0  0  0  0  0  0  0
  -29.3372  -17.9879   19.7029 C   0  0  0  0  0  0  0  0  0  0  0  0
  -23.7962  -29.6450   22.7792 C   0  0  0  0  0  0  0  0  0  0  0  0
  -24.9723  -31.3397   21.5214 C   0  0  0  0  0  0  0  0  0  0  0  0
  -29.8098  -18.7122   18.6093 C   0  0  0  0  0  0  0  0  0  0  0  0
  -24.2703  -34.2575   23.5716 C   0  0  0  0  0  0  0  0  0  0  0  0
  -25.1510  -35.2358   24.0331 C   0  0  0  0  0  0  0  0  0  0  0  0
  -27.7916  -20.0335   18.6197 C   0  0  0  0  0  0  0  0  0  0  0  0
  -26.5048  -33.5264   25.0735 C   0  0  0  0  0  0  0  0  0  0  0  0
  -33.3490  -21.2050   13.6391 C   0  0  0  0  0  0  0  0  0  0  0  0
  -34.2260  -21.7748   15.8091 C   0  0  0  0  0  0  0  0  0  0  0  0
  -25.1489  -29.0176   20.8781 C   0  0  0  0  0  0  0  0  0  0  0  0
  -25.0970  -27.5217   18.8124 C   0  0  0  0  0  0  0  0  0  0  0  0
  -26.0624  -11.9422   20.2121 C   0  0  0  0  0  0  0  0  0  0  0  0
  -28.0813  -18.2743   20.2571 C   0  0  0  0  0  0  0  0  0  0  0  0
  -26.1847  -13.2021   19.5956 C   0  0  0  0  0  0  0  0  0  0  0  0
  -27.3064  -19.3131   19.7219 C   0  0  0  0  0  0  0  0  0  0  0  0
  -24.1294  -30.9839   22.5743 C   0  0  0  0  0  0  0  0  0  0  0  0
  -29.0358  -19.7332   18.0658 C   0  0  0  0  0  0  0  0  0  0  0  0
  -24.5069  -32.9136   23.8611 C   0  0  0  0  0  0  0  0  0  0  0  0
  -26.2682  -34.8703   24.7840 C   0  0  0  0  0  0  0  0  0  0  0  0
  -25.6241  -32.5481   24.6120 C   0  0  0  0  0  0  0  0  0  0  0  0
  -25.6761  -28.0025   20.0021 C   0  0  0  0  0  0  0  0  0  0  0  0
  -32.4194  -21.6007   14.5779 C   0  0  0  0  0  0  0  0  0  0  0  0
  -25.9808  -26.5732   18.3591 C   0  0  0  0  0  0  0  0  0  0  0  0
  -23.8698  -27.8990   18.1741 C   0  0  0  0  0  0  0  0  0  0  0  0
  -25.3708  -16.6556   20.6270 C   0  0  0  0  0  0  0  0  0  0  0  0
  -31.2445  -24.9986   17.3083 C   0  0  0  0  0  0  0  0  0  0  0  0
  -24.4825  -19.2881   22.3012 C   0  0  0  0  0  0  0  0  0  0  0  0
  -24.8990  -22.6236   22.8909 C   0  0  0  0  0  0  0  0  0  0  0  0
  -24.8783  -11.5949   21.0792 C   0  0  0  0  0  0  0  0  0  0  0  0
  -27.5973  -17.5015   21.4534 C   0  0  0  0  0  0  0  0  0  0  0  0
  -25.9601  -19.6735   20.2929 C   0  0  0  0  0  0  0  0  0  0  0  0
  -24.1019  -12.8153   21.5671 C   0  0  0  0  0  0  0  0  0  0  0  0
  -29.9644  -24.4312   20.6067 C   0  0  0  0  0  0  0  0  0  0  0  0
  -23.8541  -13.7855   20.4164 C   0  0  0  0  0  0  0  0  0  0  0  0
  -28.7039  -25.2937   20.6558 C   0  0  0  0  0  0  0  0  0  0  0  0
  -31.0590  -25.0891   19.7724 C   0  0  0  0  0  0  0  0  0  0  0  0
  -29.3738  -26.3069   18.4311 C   0  0  0  0  0  0  0  0  0  0  0  0
  -25.1761  -14.3040   19.8376 C   0  0  1  0  0  0  0  0  0  0  0  0
  -26.0807  -17.5378   21.6146 C   0  0  1  0  0  0  0  0  0  0  0  0
  -28.2321  -25.6644   19.2386 C   0  0  2  0  0  0  0  0  0  0  0  0
  -31.2009  -26.7688   15.5544 C   0  0  0  0  0  0  0  0  0  0  0  0
  -24.0023  -24.5037   24.2905 C   0  0  0  0  0  0  0  0  0  0  0  0
  -30.5446  -22.0468   12.8593 C   0  0  0  0  0  0  0  0  0  0  0  0
  -22.0146  -19.4389   20.5132 C   0  0  0  0  0  0  0  0  0  0  0  0
  -21.6773  -21.7931   21.2957 C   0  0  0  0  0  0  0  0  0  0  0  0
  -21.5818  -19.9115   22.9306 C   0  0  0  0  0  0  0  0  0  0  0  0
  -27.5255  -23.0715   24.1793 C   0  0  0  0  0  0  0  0  0  0  0  0
  -29.2069  -17.9189   13.7406 C   0  0  0  0  0  0  0  0  0  0  0  0
  -30.8569  -24.2904   14.9214 C   0  0  0  0  0  0  0  0  0  0  0  0
  -30.3635  -19.7539   16.0928 C   0  0  0  0  0  0  0  0  0  1  0  0
  -30.6734  -25.4040   15.9728 C   0  0  1  0  0  0  0  0  0  0  0  0
  -23.8129  -20.5972   21.9590 C   0  0  1  0  0  0  0  0  0  0  0  0
  -25.0503  -23.4070   24.1824 C   0  0  2  0  0  0  0  0  0  0  0  0
  -30.3032  -22.8807   15.2589 C   0  0  2  0  0  0  0  0  0  0  0  0
  -30.1822  -20.3070   14.6691 C   0  0  1  0  0  0  0  0  0  0  0  0
  -30.8822  -21.7034   14.3480 C   0  0  2  0  0  0  0  0  0  0  0  0
  -22.2962  -20.4273   21.6624 C   0  0  0  0  0  0  0  0  0  0  0  0
  -32.9204  -21.9275   15.8229 N   0  0  0  0  0  0  0  0  0  0  0  0
  -26.8379  -27.4082   20.2867 N   0  0  0  0  0  0  0  0  0  0  0  0
  -26.9959  -26.5442   19.2695 N   0  0  0  0  0  0  0  0  0  0  0  0
  -25.5278  -18.8847   21.4585 N   0  0  0  0  0  0  0  0  0  0  0  0
  -30.5650  -25.4464   18.4414 N   0  0  0  0  0  0  0  0  0  0  0  0
  -25.9809  -25.7692   17.2746 N   0  0  0  0  0  0  0  0  0  0  0  0
  -23.0817  -28.8904   18.7744 N   0  0  0  0  0  0  0  0  0  0  0  0
  -25.7376  -15.3251   20.6959 N   0  0  0  0  0  0  0  0  0  0  0  0
  -24.1082  -21.5069   23.0607 N   0  0  0  0  0  0  0  0  0  0  0  0
  -28.8091  -22.9329   15.1723 N   0  3  0  0  0  0  0  0  0  0  0  0
  -26.3990  -24.0374   24.2508 N   0  3  0  0  0  0  0  0  0  0  0  0
  -23.4755  -27.3609   17.1118 O   0  0  0  0  0  0  0  0  0  0  0  0
  -24.5499  -17.1454   19.8603 O   0  0  0  0  0  0  0  0  0  0  0  0
  -32.2625  -24.3024   17.3414 O   0  0  0  0  0  0  0  0  0  0  0  0
  -24.0970  -18.6506   23.2844 O   0  0  0  0  0  0  0  0  0  0  0  0
  -25.4263  -22.9699   21.8361 O   0  0  0  0  0  0  0  0  0  0  0  0
  -23.6320  -31.9435   23.4016 O   0  0  0  0  0  0  0  0  0  0  0  0
  -29.4969  -20.4449   16.9926 O   0  0  0  0  0  0  0  0  0  1  0  0
  -27.1146  -35.8097   25.2258 F   0  0  0  0  0  0  0  0  0  0  0  0
  -25.8572  -31.2586   24.8923 F   0  0  0  0  0  0  0  0  0  0  0  0
  -34.9175  -21.2416   14.3317 S   0  0  0  0  0  0  0  0  0  0  0  0
  -30.6601  -18.9553   13.4919 S   0  0  0  0  0  0  0  0  0  0  0  0
  1  2  1  0  0  0  0
  1  5  2  0  0  0  0
  2  6  2  0  0  0  0
  3  8  2  0  0  0  0
  3 17  1  0  0  0  0
  4  9  1  0  0  0  0
  4 17  2  0  0  0  0
  5 19  1  0  0  0  0
  6 21  1  0  0  0  0
  7 10  2  0  0  0  0
  7 20  1  0  0  0  0
  8 23  1  0  0  0  0
  9 23  2  0  0  0  0
 10 24  1  0  0  0  0
 11 12  2  0  0  0  0
 11 25  1  0  0  0  0
 12 26  1  0  0  0  0
 13 22  1  0  0  0  0
 13 24  2  0  0  0  0
 14 26  2  0  0  0  0
 14 27  1  0  0  0  0
 15 29  2  0  0  0  0
 15 85  1  0  0  0  0
 16 65  2  0  0  0  0
 16 85  1  0  0  0  0
 17 28  1  0  0  0  0
 18 28  1  0  0  0  0
 18 30  2  0  0  0  0
 18 31  1  0  0  0  0
 19 21  2  0  0  0  0
 19 36  1  0  0  0  0
 20 22  2  0  0  0  0
 20 37  1  0  0  0  0
 21 45  1  0  0  0  0
 22 38  1  0  0  0  0
 23 81  1  0  0  0  0
 24 82  1  0  0  0  0
 25 27  2  0  0  0  0
 25 81  1  0  0  0  0
 26 83  1  0  0  0  0
 27 84  1  0  0  0  0
 28 66  2  0  0  0  0
 29 63  1  0  0  0  0
 29 65  1  0  0  0  0
 30 67  1  0  0  0  0
 30 70  1  0  0  0  0
 31 71  1  0  0  0  0
 31 76  2  0  0  0  0
 32 46  1  0  0  0  0
 32 72  1  0  0  0  0
 32 77  2  0  0  0  0
 33 58  1  0  0  0  0
 33 69  1  0  0  0  0
 33 78  2  0  0  0  0
 34 59  1  0  0  0  0
 34 68  1  0  0  0  0
 34 79  2  0  0  0  0
 35 60  1  0  0  0  0
 35 73  1  0  0  0  0
 35 80  2  0  0  0  0
 36 39  1  0  0  0  0
 37 46  1  0  0  0  0
 38 68  1  0  0  0  0
 39 41  1  0  0  0  0
 40 42  1  0  0  0  0
 40 43  1  0  0  0  0
 41 45  1  0  0  0  0
 42 47  1  0  0  0  0
 43 69  1  0  0  0  0
 44 47  1  0  0  0  0
 44 69  1  0  0  0  0
 45 72  1  0  0  0  0
 46 68  1  0  0  0  0
 47 67  1  0  0  0  0
 48 58  1  0  0  0  0
 49 60  1  0  0  0  0
 50 63  1  0  0  0  0
 51 64  1  0  0  0  0
 52 64  1  0  0  0  0
 53 64  1  0  0  0  0
 54 75  1  0  0  0  0
 55 86  1  0  0  0  0
 56 58  1  0  0  0  0
 56 61  1  0  0  0  0
 57 62  1  0  0  0  0
 57 82  1  0  0  0  0
 59 64  1  0  0  0  0
 59 73  1  0  0  0  0
 60 75  1  0  0  0  0
 61 63  1  0  0  0  0
 61 74  1  0  0  0  0
 62 63  1  0  0  0  0
 62 86  1  0  0  0  0
 66 67  1  0  0  0  0
M  CHG  2  74   1  75   1
M  ISO  4  33 100  57 101  58 100  82 101
M  END
> <Batch ID>
0189

> <Smiles>
CNC(C)C(=O)NC(C(=O)N1Cc2cc([101O:1][101CH2:1]C(SC)C(C)(c3cscn3)C(N)C[100CH:0](C)[100C:0](=O)N3CCCC(n4nc(-c5ccc(Oc6ccc(F)cc6F)cc5)c(C(N)=O)c4N)C3)ccc2CC1C(=O)NC1CCCc2ccccc21)C(C)(C)C

> <Shape>
0.236

> <Color>
0.060

> <Negative vol penalty>
0.000

$$$$

  -OEChem-04052305183D

 84 92  0     1  0  0  0  0  0999 V2000
  -31.5596  -33.5353   19.4128 C   0  0  0  0  0  0  0  0  0  0  0  0
  -31.5609  -32.1445   19.3791 C   0  0  0  0  0  0  0  0  0  0  0  0
  -31.2018  -18.2811   20.3355 C   0  0  0  0  0  0  0  0  0  0  0  0
  -29.2726  -17.8567   18.9444 C   0  0  0  0  0  0  0  0  0  0  0  0
  -30.6534  -34.2108   20.2291 C   0  0  0  0  0  0  0  0  0  0  0  0
  -30.6565  -31.4284   20.1626 C   0  0  0  0  0  0  0  0  0  0  0  0
  -25.9623  -26.8585   17.1672 C   0  0  0  0  0  0  0  0  0  0  0  0
  -31.5765  -16.9421   20.2245 C   0  0  0  0  0  0  0  0  0  0  0  0
  -29.6473  -16.5177   18.8334 C   0  0  0  0  0  0  0  0  0  0  0  0
  -25.1764  -25.8095   16.6897 C   0  0  0  0  0  0  0  0  0  0  0  0
  -29.4659  -13.7155   20.7164 C   0  0  0  0  0  0  0  0  0  0  0  0
  -28.4724  -12.7493   20.8743 C   0  0  0  0  0  0  0  0  0  0  0  0
  -24.2853  -25.4527   18.9093 C   0  0  0  0  0  0  0  0  0  0  0  0
  -28.9033  -11.9409   18.6387 C   0  0  0  0  0  0  0  0  0  0  0  0
  -30.0498  -18.7384   19.6955 C   0  0  0  0  0  0  0  0  0  0  0  0
  -30.0377  -21.1826   18.9651 C   0  0  0  0  0  0  0  0  0  0  0  0
  -29.7310  -33.5028   21.0156 C   0  0  0  0  0  0  0  0  0  0  0  0
  -25.9011  -27.2191   18.5161 C   0  0  0  0  0  0  0  0  0  0  0  0
  -29.7380  -32.0951   20.9911 C   0  0  0  0  0  0  0  0  0  0  0  0
  -25.0609  -26.5107   19.3908 C   0  0  0  0  0  0  0  0  0  0  0  0
  -30.7993  -16.0604   19.4734 C   0  0  0  0  0  0  0  0  0  0  0  0
  -24.3402  -25.1081   17.5587 C   0  0  0  0  0  0  0  0  0  0  0  0
  -30.1781  -13.7945   19.5196 C   0  0  0  0  0  0  0  0  0  0  0  0
  -28.1911  -11.8620   19.8355 C   0  0  0  0  0  0  0  0  0  0  0  0
  -29.8968  -12.9072   18.4808 C   0  0  0  0  0  0  0  0  0  0  0  0
  -29.6620  -20.1213   19.8103 C   0  0  0  0  0  0  0  0  0  0  0  0
  -21.8176  -20.6664   19.9919 C   0  0  0  0  0  0  0  0  0  0  0  0
  -22.0385  -22.0085   20.2200 C   0  0  0  0  0  0  0  0  0  0  0  0
  -29.4112  -22.2832   19.4966 C   0  0  0  0  0  0  0  0  0  0  0  0
  -21.4495  -22.1252   18.1107 C   0  0  0  0  0  0  0  0  0  0  0  0
  -30.8779  -21.1742   17.8033 C   0  0  0  0  0  0  0  0  0  0  0  0
  -21.9400  -19.5472   20.8655 C   0  0  0  0  0  0  0  0  0  0  0  0
  -27.1093  -29.5094   21.2310 C   0  0  0  0  0  0  0  0  0  0  0  0
  -24.0991  -29.1156   21.6715 C   0  0  0  0  0  0  0  0  0  0  0  0
  -20.7082  -28.7608   21.5597 C   0  0  0  0  0  0  0  0  0  0  0  0
  -24.5120  -22.9519   22.8733 C   0  0  0  0  0  0  0  0  0  0  0  0
  -28.8023  -34.2759   21.9180 C   0  0  0  0  0  0  0  0  0  0  0  0
  -26.7757  -28.3023   19.0866 C   0  0  0  0  0  0  0  0  0  0  0  0
  -25.0533  -26.9111   20.8408 C   0  0  0  0  0  0  0  0  0  0  0  0
  -27.6265  -33.4500   22.4335 C   0  0  0  0  0  0  0  0  0  0  0  0
  -27.8120  -24.0399   23.6496 C   0  0  0  0  0  0  0  0  0  0  0  0
  -28.1075  -32.0929   22.9372 C   0  0  0  0  0  0  0  0  0  0  0  0
  -28.6943  -23.2548   22.6774 C   0  0  0  0  0  0  0  0  0  0  0  0
  -26.6280  -23.2070   24.1358 C   0  0  0  0  0  0  0  0  0  0  0  0
  -26.6869  -21.8313   22.0919 C   0  0  0  0  0  0  0  0  0  0  0  0
  -28.7559  -31.2834   21.8077 C   0  0  1  0  0  0  0  0  0  0  0  0
  -26.0898  -29.1040   20.2074 C   0  0  1  0  0  0  0  0  0  0  0  0
  -27.8632  -22.6484   21.5307 C   0  0  2  0  0  0  0  0  0  0  0  0
  -21.0390  -18.3508   20.6380 C   0  0  0  0  0  0  0  0  0  0  0  0
  -18.6156  -29.4411   22.7662 C   0  0  0  0  0  0  0  0  0  0  0  0
  -23.0019  -23.6152   14.8225 C   0  0  0  0  0  0  0  0  0  0  0  0
  -24.7075  -27.0846   23.8643 C   0  0  0  0  0  0  0  0  0  0  0  0
  -22.2762  -27.1072   24.4615 C   0  0  0  0  0  0  0  0  0  0  0  0
  -23.6283  -29.1936   24.6655 C   0  0  0  0  0  0  0  0  0  0  0  0
  -19.6520  -30.1636   19.1774 C   0  0  0  0  0  0  0  0  0  0  0  0
  -22.4763  -22.6149   21.4944 C   0  0  0  0  0  0  0  0  0  0  0  0
  -21.2196  -24.0532   16.5437 C   0  0  0  0  0  0  0  0  0  0  0  0
  -23.0143  -28.3342   22.3685 C   0  0  1  0  0  0  0  0  0  0  0  0
  -19.5852  -29.7788   21.6444 C   0  0  2  0  0  0  0  0  0  0  0  0
  -22.6259  -24.4077   16.0660 C   0  0  1  0  0  0  0  0  0  1  0  0
  -23.4149  -27.9234   23.8135 C   0  0  0  0  0  0  0  0  0  0  0  0
  -28.8591  -20.5126   20.8034 N   0  0  0  0  0  0  0  0  0  0  0  0
  -21.8284  -22.8465   19.1423 N   0  0  0  0  0  0  0  0  0  0  0  0
  -28.7253  -21.8319   20.5857 N   0  0  0  0  0  0  0  0  0  0  0  0
  -25.0507  -28.3778   20.9570 N   0  0  0  0  0  0  0  0  0  0  0  0
  -25.8807  -22.6624   22.9997 N   0  0  0  0  0  0  0  0  0  0  0  0
  -29.3857  -23.5833   19.1341 N   0  0  0  0  0  0  0  0  0  0  0  0
  -31.4411  -19.9575   17.3948 N   0  0  0  0  0  0  0  0  0  0  0  0
  -21.1503  -22.6452   16.8625 N   0  0  0  0  0  0  0  0  0  0  0  0
  -27.7410  -30.7065   20.9524 N   0  0  0  0  0  0  0  0  0  0  0  0
  -21.8087  -29.1522   22.2923 N   0  0  0  0  0  0  0  0  0  0  0  0
  -23.8807  -22.4016   21.7646 N   0  0  0  0  0  0  0  0  0  0  0  0
  -18.8255  -29.8198   20.3630 N   0  3  0  0  0  0  0  0  0  0  0  0
  -31.1352  -22.2177   17.1564 O   0  0  0  0  0  0  0  0  0  0  0  0
  -22.7309  -19.4484   21.8282 O   0  0  0  0  0  0  0  0  0  0  0  0
  -27.3081  -28.7907   22.2034 O   0  0  0  0  0  0  0  0  0  0  0  0
  -24.1083  -30.3466   21.7611 O   0  0  0  0  0  0  0  0  0  0  0  0
  -20.6166  -27.7204   20.9117 O   0  0  0  0  0  0  0  0  0  0  0  0
  -23.8994  -23.6535   23.6853 O   0  0  0  0  0  0  0  0  0  0  0  0
  -31.1647  -14.7538   19.3647 O   0  0  0  0  0  0  0  0  0  0  0  0
  -23.5723  -24.0880   17.0851 O   0  0  0  0  0  0  0  0  0  1  0  0
  -27.2381  -10.9332   19.9878 F   0  0  0  0  0  0  0  0  0  0  0  0
  -30.5784  -12.9774   17.3292 F   0  0  0  0  0  0  0  0  0  0  0  0
  -21.3244  -20.4328   18.3660 S   0  0  0  0  0  0  0  0  0  0  0  0
  1  2  1  0  0  0  0
  1  5  2  0  0  0  0
  2  6  2  0  0  0  0
  3  8  2  0  0  0  0
  3 15  1  0  0  0  0
  4  9  1  0  0  0  0
  4 15  2  0  0  0  0
  5 17  1  0  0  0  0
  6 19  1  0  0  0  0
  7 10  2  0  0  0  0
  7 18  1  0  0  0  0
  8 21  1  0  0  0  0
  9 21  2  0  0  0  0
 10 22  1  0  0  0  0
 11 12  2  0  0  0  0
 11 23  1  0  0  0  0
 12 24  1  0  0  0  0
 13 20  1  0  0  0  0
 13 22  2  0  0  0  0
 14 24  2  0  0  0  0
 14 25  1  0  0  0  0
 15 26  1  0  0  0  0
 16 26  1  0  0  0  0
 16 29  2  0  0  0  0
 16 31  1  0  0  0  0
 17 19  2  0  0  0  0
 17 37  1  0  0  0  0
 18 20  2  0  0  0  0
 18 38  1  0  0  0  0
 19 46  1  0  0  0  0
 20 39  1  0  0  0  0
 21 80  1  0  0  0  0
 22 81  1  0  0  0  0
 23 25  2  0  0  0  0
 23 80  1  0  0  0  0
 24 82  1  0  0  0  0
 25 83  1  0  0  0  0
 26 62  2  0  0  0  0
 27 28  2  0  0  0  0
 27 32  1  0  0  0  0
 27 84  1  0  0  0  0
 28 56  1  0  0  0  0
 28 63  1  0  0  0  0
 29 64  1  0  0  0  0
 29 67  1  0  0  0  0
 30 63  2  0  0  0  0
 30 69  1  0  0  0  0
 30 84  1  0  0  0  0
 31 68  1  0  0  0  0
 31 74  2  0  0  0  0
 32 49  1  0  0  0  0
 32 75  2  0  0  0  0
 33 47  1  0  0  0  0
 33 70  1  0  0  0  0
 33 76  2  0  0  0  0
 34 58  1  0  0  0  0
 34 65  1  0  0  0  0
 34 77  2  0  0  0  0
 35 59  1  0  0  0  0
 35 71  1  0  0  0  0
 35 78  2  0  0  0  0
 36 66  1  0  0  0  0
 36 72  1  0  0  0  0
 36 79  2  0  0  0  0
 37 40  1  0  0  0  0
 38 47  1  0  0  0  0
 39 65  1  0  0  0  0
 40 42  1  0  0  0  0
 41 43  1  0  0  0  0
 41 44  1  0  0  0  0
 42 46  1  0  0  0  0
 43 48  1  0  0  0  0
 44 66  1  0  0  0  0
 45 48  1  0  0  0  0
 45 66  1  0  0  0  0
 46 70  1  0  0  0  0
 47 65  1  0  0  0  0
 48 64  1  0  0  0  0
 50 59  1  0  0  0  0
 51 60  1  0  0  0  0
 52 61  1  0  0  0  0
 53 61  1  0  0  0  0
 54 61  1  0  0  0  0
 55 73  1  0  0  0  0
 56 72  1  0  0  0  0
 57 60  1  0  0  0  0
 57 69  1  0  0  0  0
 58 61  1  0  0  0  0
 58 71  1  0  0  0  0
 59 73  1  0  0  0  0
 60 81  1  0  0  0  0
 62 64  1  0  0  0  0
M  CHG  1  73   1
M  ISO  4  36 100  60 101  72 100  81 101
M  END
> <Batch ID>
0189

> <Smiles>
CNC(C)C(=O)NC(C(=O)N1Cc2cc([101O:1][101CH:1](C)CNc3nc(C[100NH:0][100C:0](=O)N4CCCC(n5nc(-c6ccc(Oc7ccc(F)cc7F)cc6)c(C(N)=O)c5N)C4)c(C(C)=O)s3)ccc2CC1C(=O)NC1CCCc2ccccc21)C(C)(C)C

> <Shape>
0.193

> <Color>
0.071

> <Negative vol penalty>
0.000

$$$$

  -OEChem-04052305183D

 84 92  0     1  0  0  0  0  0999 V2000
  -16.5823  -30.0945   23.0504 C   0  0  0  0  0  0  0  0  0  0  0  0
  -17.7345  -30.4690   22.3665 C   0  0  0  0  0  0  0  0  0  0  0  0
  -26.4330  -12.7172   21.4227 C   0  0  0  0  0  0  0  0  0  0  0  0
  -25.5797  -13.7758   19.4256 C   0  0  0  0  0  0  0  0  0  0  0  0
  -16.6339  -29.0652   23.9894 C   0  0  0  0  0  0  0  0  0  0  0  0
  -18.9392  -29.8151   22.6221 C   0  0  0  0  0  0  0  0  0  0  0  0
  -24.9768  -27.7589   19.3608 C   0  0  0  0  0  0  0  0  0  0  0  0
  -25.2057  -12.0816   21.6102 C   0  0  0  0  0  0  0  0  0  0  0  0
  -24.3524  -13.1401   19.6131 C   0  0  0  0  0  0  0  0  0  0  0  0
  -26.3610  -27.8495   19.5004 C   0  0  0  0  0  0  0  0  0  0  0  0
  -23.5682   -9.4055   20.3492 C   0  0  0  0  0  0  0  0  0  0  0  0
  -23.5837   -8.0502   20.6789 C   0  0  0  0  0  0  0  0  0  0  0  0
  -26.3139  -26.0326   21.0865 C   0  0  0  0  0  0  0  0  0  0  0  0
  -22.4287   -8.5393   22.7438 C   0  0  0  0  0  0  0  0  0  0  0  0
  -28.0662  -21.3276   17.2130 C   0  0  0  0  0  0  0  0  0  0  0  0
  -28.4824  -23.5947   16.5263 C   0  0  0  0  0  0  0  0  0  0  0  0
  -26.6200  -13.5644   20.3305 C   0  0  0  0  0  0  0  0  0  0  0  0
  -28.9923  -13.7403   19.4091 C   0  0  0  0  0  0  0  0  0  0  0  0
  -17.8378  -28.3918   24.2496 C   0  0  0  0  0  0  0  0  0  0  0  0
  -24.2482  -26.8100   20.0925 C   0  0  0  0  0  0  0  0  0  0  0  0
  -19.0073  -28.7767   23.5665 C   0  0  0  0  0  0  0  0  0  0  0  0
  -24.9209  -25.9302   20.9525 C   0  0  0  0  0  0  0  0  0  0  0  0
  -24.1654  -12.2930   20.7054 C   0  0  0  0  0  0  0  0  0  0  0  0
  -27.0294  -26.9882   20.3655 C   0  0  0  0  0  0  0  0  0  0  0  0
  -22.9830  -10.3277   21.2169 C   0  0  0  0  0  0  0  0  0  0  0  0
  -23.0140   -7.6171   21.8762 C   0  0  0  0  0  0  0  0  0  0  0  0
  -22.4132   -9.8945   22.4142 C   0  0  0  0  0  0  0  0  0  0  0  0
  -27.9190  -22.3477   16.2797 C   0  0  0  0  0  0  0  0  0  0  0  0
  -27.8875  -14.2218   20.1366 C   0  0  0  0  0  0  0  0  0  0  0  0
  -28.7803  -21.6033   18.3679 C   0  0  0  0  0  0  0  0  0  0  0  0
  -29.1777  -23.7690   17.7121 C   0  0  0  0  0  0  0  0  0  0  0  0
  -29.9386  -14.7287   19.5277 C   0  0  0  0  0  0  0  0  0  0  0  0
  -29.1492  -12.5097   18.6903 C   0  0  0  0  0  0  0  0  0  0  0  0
  -21.9530  -26.9495   22.2871 C   0  0  0  0  0  0  0  0  0  0  0  0
  -21.9517  -23.7256   21.9283 C   0  0  0  0  0  0  0  0  0  0  0  0
  -23.6504  -20.9122   21.0084 C   0  0  0  0  0  0  0  0  0  0  0  0
  -29.5959  -20.6087   20.5340 C   0  0  0  0  0  0  0  0  0  0  0  0
  -17.8545  -27.3172   25.3078 C   0  0  0  0  0  0  0  0  0  0  0  0
  -22.7587  -26.7073   19.9105 C   0  0  0  0  0  0  0  0  0  0  0  0
  -24.1873  -24.8806   21.7453 C   0  0  0  0  0  0  0  0  0  0  0  0
  -19.0906  -26.4234   25.2487 C   0  0  0  0  0  0  0  0  0  0  0  0
  -31.3631  -18.2134   22.4877 C   0  0  0  0  0  0  0  0  0  0  0  0
  -20.3529  -27.2671   25.1015 C   0  0  0  0  0  0  0  0  0  0  0  0
  -30.7772  -16.8738   22.0359 C   0  0  0  0  0  0  0  0  0  0  0  0
  -30.3012  -19.3107   22.5322 C   0  0  0  0  0  0  0  0  0  0  0  0
  -28.9444  -18.1397   20.8420 C   0  0  0  0  0  0  0  0  0  0  0  0
  -20.3277  -28.0747   23.7981 C   0  0  1  0  0  0  0  0  0  0  0  0
  -22.0566  -26.0449   21.0919 C   0  0  1  0  0  0  0  0  0  0  0  0
  -29.9894  -17.0186   20.7191 C   0  0  2  0  0  0  0  0  0  0  0  0
  -23.4002  -18.4196   20.8620 C   0  0  0  0  0  0  0  0  0  0  0  0
  -31.2753  -27.2191   20.6568 C   0  0  0  0  0  0  0  0  0  0  0  0
  -31.8789  -24.7306   19.0341 C   0  0  0  0  0  0  0  0  0  0  0  0
  -22.3093  -23.5146   24.9512 C   0  0  0  0  0  0  0  0  0  0  0  0
  -22.9962  -21.1281   24.6332 C   0  0  0  0  0  0  0  0  0  0  0  0
  -20.7059  -21.8635   23.9725 C   0  0  0  0  0  0  0  0  0  0  0  0
  -24.0584  -20.9271   18.0772 C   0  0  0  0  0  0  0  0  0  0  0  0
  -29.1219  -27.5267   19.3716 C   0  0  0  0  0  0  0  0  0  1  0  0
  -22.6883  -22.5777   22.5753 C   0  0  1  0  0  0  0  0  0  0  0  0
  -23.2575  -19.7421   20.1248 C   0  0  2  0  0  0  0  0  0  0  0  0
  -30.5138  -26.8757   19.3669 C   0  0  2  0  0  0  0  0  0  0  0  0
  -30.4853  -25.3464   19.1360 C   0  0  1  0  0  0  0  0  0  0  0  0
  -22.1888  -22.2919   24.0197 C   0  0  0  0  0  0  0  0  0  0  0  0
  -28.1099  -15.4226   20.6775 N   0  0  0  0  0  0  0  0  0  0  0  0
  -29.3418  -22.8021   18.6425 N   0  0  0  0  0  0  0  0  0  0  0  0
  -29.3655  -15.7039   20.2896 N   0  0  0  0  0  0  0  0  0  0  0  0
  -22.7309  -24.8239   21.5378 N   0  0  0  0  0  0  0  0  0  0  0  0
  -29.5989  -19.3927   21.2497 N   0  0  0  0  0  0  0  0  0  0  0  0
  -31.1968  -14.8500   19.0536 N   0  0  0  0  0  0  0  0  0  0  0  0
  -28.0777  -11.6064   18.6702 N   0  0  0  0  0  0  0  0  0  0  0  0
  -28.9242  -20.5575   19.3130 N   0  0  0  0  0  0  0  0  0  0  0  0
  -29.7332  -25.0141   17.9427 N   0  0  0  0  0  0  0  0  0  0  0  0
  -20.6551  -27.2269   22.6718 N   0  0  0  0  0  0  0  0  0  0  0  0
  -22.5609  -21.4455   21.6641 N   0  0  0  0  0  0  0  0  0  0  0  0
  -24.1192  -19.6983   18.9097 N   0  3  0  0  0  0  0  0  0  0  0  0
  -30.2140  -12.2124   18.0975 O   0  0  0  0  0  0  0  0  0  0  0  0
  -22.9749  -27.3640   22.8215 O   0  0  0  0  0  0  0  0  0  0  0  0
  -20.7310  -23.6477   21.7687 O   0  0  0  0  0  0  0  0  0  0  0  0
  -24.8085  -21.3108   21.1100 O   0  0  0  0  0  0  0  0  0  0  0  0
  -30.1718  -21.6135   20.9593 O   0  0  0  0  0  0  0  0  0  0  0  0
  -22.9677  -11.6727   20.8879 O   0  0  0  0  0  0  0  0  0  0  0  0
  -28.3804  -27.0750   20.5042 O   0  0  0  0  0  0  0  0  0  1  0  0
  -23.0276   -6.3155   22.1919 F   0  0  0  0  0  0  0  0  0  0  0  0
  -21.8485  -10.7756   23.2512 F   0  0  0  0  0  0  0  0  0  0  0  0
  -27.2364  -22.1301   15.1481 F   0  0  0  0  0  0  0  0  0  0  0  0
  1  2  1  0  0  0  0
  1  5  2  0  0  0  0
  2  6  2  0  0  0  0
  3  8  2  0  0  0  0
  3 17  1  0  0  0  0
  4  9  1  0  0  0  0
  4 17  2  0  0  0  0
  5 19  1  0  0  0  0
  6 21  1  0  0  0  0
  7 10  2  0  0  0  0
  7 20  1  0  0  0  0
  8 23  1  0  0  0  0
  9 23  2  0  0  0  0
 10 24  1  0  0  0  0
 11 12  2  0  0  0  0
 11 25  1  0  0  0  0
 12 26  1  0  0  0  0
 13 22  1  0  0  0  0
 13 24  2  0  0  0  0
 14 26  2  0  0  0  0
 14 27  1  0  0  0  0
 15 28  1  0  0  0  0
 15 30  2  0  0  0  0
 16 28  2  0  0  0  0
 16 31  1  0  0  0  0
 17 29  1  0  0  0  0
 18 29  1  0  0  0  0
 18 32  2  0  0  0  0
 18 33  1  0  0  0  0
 19 21  2  0  0  0  0
 19 38  1  0  0  0  0
 20 22  2  0  0  0  0
 20 39  1  0  0  0  0
 21 47  1  0  0  0  0
 22 40  1  0  0  0  0
 23 80  1  0  0  0  0
 24 81  1  0  0  0  0
 25 27  2  0  0  0  0
 25 80  1  0  0  0  0
 26 82  1  0  0  0  0
 27 83  1  0  0  0  0
 28 84  1  0  0  0  0
 29 63  2  0  0  0  0
 30 64  1  0  0  0  0
 30 70  1  0  0  0  0
 31 64  2  0  0  0  0
 31 71  1  0  0  0  0
 32 65  1  0  0  0  0
 32 68  1  0  0  0  0
 33 69  1  0  0  0  0
 33 75  2  0  0  0  0
 34 48  1  0  0  0  0
 34 72  1  0  0  0  0
 34 76  2  0  0  0  0
 35 58  1  0  0  0  0
 35 66  1  0  0  0  0
 35 77  2  0  0  0  0
 36 59  1  0  0  0  0
 36 73  1  0  0  0  0
 36 78  2  0  0  0  0
 37 67  1  0  0  0  0
 37 70  1  0  0  0  0
 37 79  2  0  0  0  0
 38 41  1  0  0  0  0
 39 48  1  0  0  0  0
 40 66  1  0  0  0  0
 41 43  1  0  0  0  0
 42 44  1  0  0  0  0
 42 45  1  0  0  0  0
 43 47  1  0  0  0  0
 44 49  1  0  0  0  0
 45 67  1  0  0  0  0
 46 49  1  0  0  0  0
 46 67  1  0  0  0  0
 47 72  1  0  0  0  0
 48 66  1  0  0  0  0
 49 65  1  0  0  0  0
 50 59  1  0  0  0  0
 51 60  1  0  0  0  0
 52 61  1  0  0  0  0
 53 62  1  0  0  0  0
 54 62  1  0  0  0  0
 55 62  1  0  0  0  0
 56 74  1  0  0  0  0
 57 60  1  0  0  0  0
 57 81  1  0  0  0  0
 58 62  1  0  0  0  0
 58 73  1  0  0  0  0
 59 74  1  0  0  0  0
 60 61  1  0  0  0  0
 61 71  1  0  0  0  0
 63 65  1  0  0  0  0
M  CHG  1  74   1
M  ISO  4  37 100  57 101  70 100  81 101
M  END
> <Batch ID>
0189

> <Smiles>
CNC(C)C(=O)NC(C(=O)N1Cc2cc([101O:1][101CH2:1]C(C)C(C)Nc3cc(F)cc([100NH:0][100C:0](=O)N4CCCC(n5nc(-c6ccc(Oc7ccc(F)cc7F)cc6)c(C(N)=O)c5N)C4)n3)ccc2CC1C(=O)NC1CCCc2ccccc21)C(C)(C)C

> <Shape>
0.284

> <Color>
0.090

> <Negative vol penalty>
0.000

$$$$

  -OEChem-04052305183D

 96104  0     1  0  0  0  0  0999 V2000
  -19.6879   -9.1990   20.2251 C   0  0  0  0  0  0  0  0  0  0  0  0
  -19.9869  -10.4454   20.7661 C   0  0  0  0  0  0  0  0  0  0  0  0
  -22.3396  -28.9095   20.6727 C   0  0  0  0  0  0  0  0  0  0  0  0
  -23.1254  -26.9508   21.8487 C   0  0  0  0  0  0  0  0  0  0  0  0
  -20.6803   -8.2241   20.1329 C   0  0  0  0  0  0  0  0  0  0  0  0
  -21.2783  -10.7171   21.2163 C   0  0  0  0  0  0  0  0  0  0  0  0
  -22.9391  -15.2629   19.7256 C   0  0  0  0  0  0  0  0  0  0  0  0
  -21.0488  -28.6766   21.1473 C   0  0  0  0  0  0  0  0  0  0  0  0
  -21.8347  -26.7179   22.3233 C   0  0  0  0  0  0  0  0  0  0  0  0
  -22.4692  -16.3734   20.4254 C   0  0  0  0  0  0  0  0  0  0  0  0
  -17.6179  -28.8024   22.3423 C   0  0  0  0  0  0  0  0  0  0  0  0
  -16.9031  -29.8923   22.8390 C   0  0  0  0  0  0  0  0  0  0  0  0
  -24.5269  -16.4443   21.6824 C   0  0  0  0  0  0  0  0  0  0  0  0
  -18.6087  -30.2481   24.5128 C   0  0  0  0  0  0  0  0  0  0  0  0
  -28.0302  -21.2432   23.1888 C   0  0  0  0  0  0  0  0  0  0  0  0
  -23.3779  -28.0466   21.0233 C   0  0  0  0  0  0  0  0  0  0  0  0
  -25.7168  -29.0576   21.1461 C   0  0  0  0  0  0  0  0  0  0  0  0
  -21.9870   -8.4873   20.5734 C   0  0  0  0  0  0  0  0  0  0  0  0
  -24.2041  -14.7272   20.0069 C   0  0  0  0  0  0  0  0  0  0  0  0
  -22.2889   -9.7443   21.1312 C   0  0  0  0  0  0  0  0  0  0  0  0
  -25.0116  -15.3285   20.9829 C   0  0  0  0  0  0  0  0  0  0  0  0
  -20.7963  -27.5808   21.9726 C   0  0  0  0  0  0  0  0  0  0  0  0
  -23.2620  -16.9625   21.4060 C   0  0  0  0  0  0  0  0  0  0  0  0
  -18.8281  -28.4352   22.9309 C   0  0  0  0  0  0  0  0  0  0  0  0
  -17.3985  -30.6152   23.9243 C   0  0  0  0  0  0  0  0  0  0  0  0
  -19.3235  -29.1581   24.0161 C   0  0  0  0  0  0  0  0  0  0  0  0
  -24.7114  -28.2863   20.5329 C   0  0  0  0  0  0  0  0  0  0  0  0
  -27.4263  -22.2733   22.4987 C   0  0  0  0  0  0  0  0  0  0  0  0
  -26.7866  -28.9712   20.2890 C   0  0  0  0  0  0  0  0  0  0  0  0
  -25.7590  -20.8485   22.4901 C   0  0  0  0  0  0  0  0  0  0  0  0
  -25.6864  -29.7869   22.3802 C   0  0  0  0  0  0  0  0  0  0  0  0
  -25.2680  -11.9295   21.0767 C   0  0  0  0  0  0  0  0  0  0  0  0
  -29.2985  -25.1117   16.7477 C   0  0  0  0  0  0  0  0  0  0  0  0
  -28.1710  -13.2379   20.4580 C   0  0  0  0  0  0  0  0  0  0  0  0
  -29.2867  -23.1127   20.0444 C   0  0  0  0  0  0  0  0  0  0  0  0
  -30.0530  -16.0569   20.0604 C   0  0  0  0  0  0  0  0  0  0  0  0
  -23.0145   -7.3860   20.4968 C   0  0  0  0  0  0  0  0  0  0  0  0
  -24.7073  -13.5453   19.2245 C   0  0  0  0  0  0  0  0  0  0  0  0
  -26.3854  -14.8042   21.3087 C   0  0  0  0  0  0  0  0  0  0  0  0
  -24.4503   -7.8807   20.6520 C   0  0  0  0  0  0  0  0  0  0  0  0
  -27.3568  -27.8592   15.5143 C   0  0  0  0  0  0  0  0  0  0  0  0
  -24.5584   -8.8452   21.8288 C   0  0  0  0  0  0  0  0  0  0  0  0
  -26.5504  -28.3047   16.7335 C   0  0  0  0  0  0  0  0  0  0  0  0
  -27.5575  -26.3470   15.4998 C   0  0  0  0  0  0  0  0  0  0  0  0
  -27.3764  -26.2492   17.9654 C   0  0  0  0  0  0  0  0  0  0  0  0
  -23.6841  -10.0854   21.6076 C   0  0  1  0  0  0  0  0  0  0  0  0
  -25.8017  -12.7697   19.9512 C   0  0  1  0  0  0  0  0  0  0  0  0
  -27.1770  -27.7736   18.0349 C   0  0  2  0  0  0  0  0  0  0  0  0
  -31.9778  -25.9582   17.6047 C   0  0  0  0  0  0  0  0  0  0  0  0
  -28.4112  -24.8277   25.0463 C   0  0  0  0  0  0  0  0  0  0  0  0
  -32.0671  -17.4561   19.5282 C   0  0  0  0  0  0  0  0  0  0  0  0
  -27.9406  -26.1479   22.2507 C   0  0  0  0  0  0  0  0  0  0  0  0
  -21.8231  -20.4432   23.4156 C   0  0  0  0  0  0  0  0  0  0  0  0
  -23.7511  -20.9464   20.0474 C   0  0  0  0  0  0  0  0  0  0  0  0
  -29.0728  -20.7876   18.1068 C   0  0  0  0  0  0  0  0  0  0  0  0
  -28.9475  -12.5644   23.3309 C   0  0  0  0  0  0  0  0  0  0  0  0
  -30.8770  -14.1439   23.1060 C   0  0  0  0  0  0  0  0  0  0  0  0
  -30.7368  -12.1320   21.6379 C   0  0  0  0  0  0  0  0  0  0  0  0
  -29.3418  -16.1966   17.1910 C   0  0  0  0  0  0  0  0  0  0  0  0
  -31.3710  -24.6264   18.0326 C   0  0  0  0  0  0  0  0  0  0  0  0
  -27.1167  -24.8224   24.2441 C   0  0  0  0  0  0  0  0  0  0  0  0
  -21.9052  -18.9157   21.4048 C   0  0  0  0  0  0  0  0  0  1  0  0
  -28.0667  -23.6069   22.1563 C   0  0  2  0  0  0  0  0  0  0  0  0
  -29.8338  -24.6701   18.0865 C   0  0  2  0  0  0  0  0  0  0  0  0
  -29.1589  -14.0674   21.2423 C   0  0  1  0  0  0  0  0  0  0  0  0
  -29.2104  -23.3193   18.5247 C   0  0  1  0  0  0  0  0  0  0  0  0
  -31.0534  -16.4576   18.9913 C   0  0  2  0  0  0  0  0  0  0  0  0
  -27.2888  -24.8325   22.7069 C   0  0  2  0  0  0  0  0  0  0  0  0
  -22.0820  -20.3585   21.9032 C   0  0  2  0  0  0  0  0  0  0  0  0
  -23.4535  -20.9775   21.5448 C   0  0  1  0  0  0  0  0  0  0  0  0
  -29.8131  -22.0836   17.8212 C   0  0  2  0  0  0  0  0  0  0  0  0
  -29.9034  -13.2359   22.3247 C   0  0  0  0  0  0  0  0  0  0  0  0
  -25.1070  -27.7496   19.3756 N   0  0  0  0  0  0  0  0  0  0  0  0
  -26.1240  -22.0486   22.0969 N   0  0  0  0  0  0  0  0  0  0  0  0
  -26.3729  -28.1843   19.2547 N   0  0  0  0  0  0  0  0  0  0  0  0
  -26.8301  -13.6428   20.5207 N   0  0  0  0  0  0  0  0  0  0  0  0
  -28.1337  -25.8792   16.7617 N   0  0  0  0  0  0  0  0  0  0  0  0
  -28.0313  -29.4924   20.3268 N   0  0  0  0  0  0  0  0  0  0  0  0
  -24.5074  -29.7696   23.1377 N   0  0  0  0  0  0  0  0  0  0  0  0
  -24.5338  -20.3064   22.2585 N   0  0  0  0  0  0  0  0  0  0  0  0
  -24.3254  -10.9979   20.6853 N   0  0  0  0  0  0  0  0  0  0  0  0
  -28.2071  -23.6614   20.7192 N   0  0  0  0  0  0  0  0  0  0  0  0
  -30.0376  -14.6926   20.2598 N   0  0  0  0  0  0  0  0  0  0  0  0
  -30.3519  -17.0776   17.8318 N   0  3  0  0  0  0  0  0  0  0  0  0
  -26.6702  -30.4482   22.7906 O   0  0  0  0  0  0  0  0  0  0  0  0
  -25.6818  -12.1118   22.2157 O   0  0  0  0  0  0  0  0  0  0  0  0
  -29.9007  -24.7858   15.7213 O   0  0  0  0  0  0  0  0  0  0  0  0
  -28.5752  -12.2707   19.8078 O   0  0  0  0  0  0  0  0  0  0  0  0
  -30.2262  -22.5302   20.5836 O   0  0  0  0  0  0  0  0  0  0  0  0
  -29.3576  -16.8728   20.6614 O   0  0  0  0  0  0  0  0  0  0  0  0
  -19.5370  -27.3534   22.4361 O   0  0  0  0  0  0  0  0  0  0  0  0
  -22.8025  -18.0532   22.0955 O   0  0  0  0  0  0  0  0  0  1  0  0
  -16.7127  -31.6627   24.4002 F   0  0  0  0  0  0  0  0  0  0  0  0
  -20.4861  -28.8109   24.5849 F   0  0  0  0  0  0  0  0  0  0  0  0
  -29.8207  -22.2734   16.4730 F   0  0  0  0  0  0  0  0  0  0  0  0
  -26.9317  -19.9359   23.3486 S   0  0  0  0  0  0  0  0  0  0  0  0
  1  2  1  0  0  0  0
  1  5  2  0  0  0  0
  2  6  2  0  0  0  0
  3  8  2  0  0  0  0
  3 16  1  0  0  0  0
  4  9  1  0  0  0  0
  4 16  2  0  0  0  0
  5 18  1  0  0  0  0
  6 20  1  0  0  0  0
  7 10  2  0  0  0  0
  7 19  1  0  0  0  0
  8 22  1  0  0  0  0
  9 22  2  0  0  0  0
 10 23  1  0  0  0  0
 11 12  2  0  0  0  0
 11 24  1  0  0  0  0
 12 25  1  0  0  0  0
 13 21  1  0  0  0  0
 13 23  2  0  0  0  0
 14 25  2  0  0  0  0
 14 26  1  0  0  0  0
 15 28  2  0  0  0  0
 15 96  1  0  0  0  0
 16 27  1  0  0  0  0
 17 27  1  0  0  0  0
 17 29  2  0  0  0  0
 17 31  1  0  0  0  0
 18 20  2  0  0  0  0
 18 37  1  0  0  0  0
 19 21  2  0  0  0  0
 19 38  1  0  0  0  0
 20 46  1  0  0  0  0
 21 39  1  0  0  0  0
 22 91  1  0  0  0  0
 23 92  1  0  0  0  0
 24 26  2  0  0  0  0
 24 91  1  0  0  0  0
 25 93  1  0  0  0  0
 26 94  1  0  0  0  0
 27 73  2  0  0  0  0
 28 63  1  0  0  0  0
 28 74  1  0  0  0  0
 29 75  1  0  0  0  0
 29 78  1  0  0  0  0
 30 74  2  0  0  0  0
 30 80  1  0  0  0  0
 30 96  1  0  0  0  0
 31 79  1  0  0  0  0
 31 85  2  0  0  0  0
 32 47  1  0  0  0  0
 32 81  1  0  0  0  0
 32 86  2  0  0  0  0
 33 64  1  0  0  0  0
 33 77  1  0  0  0  0
 33 87  2  0  0  0  0
 34 65  1  0  0  0  0
 34 76  1  0  0  0  0
 34 88  2  0  0  0  0
 35 66  1  0  0  0  0
 35 82  1  0  0  0  0
 35 89  2  0  0  0  0
 36 67  1  0  0  0  0
 36 83  1  0  0  0  0
 36 90  2  0  0  0  0
 37 40  1  0  0  0  0
 38 47  1  0  0  0  0
 39 76  1  0  0  0  0
 40 42  1  0  0  0  0
 41 43  1  0  0  0  0
 41 44  1  0  0  0  0
 42 46  1  0  0  0  0
 43 48  1  0  0  0  0
 44 77  1  0  0  0  0
 45 48  1  0  0  0  0
 45 77  1  0  0  0  0
 46 81  1  0  0  0  0
 47 76  1  0  0  0  0
 48 75  1  0  0  0  0
 49 60  1  0  0  0  0
 50 61  1  0  0  0  0
 51 67  1  0  0  0  0
 52 68  1  0  0  0  0
 53 69  1  0  0  0  0
 54 70  1  0  0  0  0
 55 71  1  0  0  0  0
 56 72  1  0  0  0  0
 57 72  1  0  0  0  0
 58 72  1  0  0  0  0
 59 84  1  0  0  0  0
 60 64  1  0  0  0  0
 61 68  1  0  0  0  0
 62 69  1  0  0  0  0
 62 92  1  0  0  0  0
 63 68  1  0  0  0  0
 63 82  1  0  0  0  0
 64 66  1  0  0  0  0
 65 72  1  0  0  0  0
 65 83  1  0  0  0  0
 66 71  1  0  0  0  0
 67 84  1  0  0  0  0
 69 70  1  0  0  0  0
 70 80  1  0  0  0  0
 71 95  1  0  0  0  0
 73 75  1  0  0  0  0
M  CHG  1  84   1
M  ISO  4  33 100  62 101  64 100  92 101
M  END
> <Batch ID>
0189

> <Smiles>
CCC(C)C(NC(=O)C(C(C)F)[100CH:0](CC)[100C:0](=O)N1CCCC(n2nc(-c3ccc(Oc4ccc(F)cc4F)cc3)c(C(N)=O)c2N)C1)c1csc(NC(C)C(C)[101CH2:1][101O:1]c2ccc3c(c2)CN(C(=O)C(NC(=O)C(C)NC)C(C)(C)C)C(C(=O)NC2CCCc4ccccc42)C3)n1

> <Shape>
0.292

> <Color>
0.049

> <Negative vol penalty>
0.000

$$$$

  -OEChem-04052305183D

 88 96  0     1  0  0  0  0  0999 V2000
  -24.3431  -30.7503   19.7380 C   0  0  0  0  0  0  0  0  0  0  0  0
  -25.6011  -30.2788   20.0993 C   0  0  0  0  0  0  0  0  0  0  0  0
  -24.3624   -9.6706   21.3464 C   0  0  0  0  0  0  0  0  0  0  0  0
  -24.8492  -10.6832   23.4853 C   0  0  0  0  0  0  0  0  0  0  0  0
  -23.2930  -30.7039   20.6541 C   0  0  0  0  0  0  0  0  0  0  0  0
  -25.8101  -29.7616   21.3773 C   0  0  0  0  0  0  0  0  0  0  0  0
  -28.4691  -25.4521   21.3181 C   0  0  0  0  0  0  0  0  0  0  0  0
  -24.0216   -8.4798   21.9877 C   0  0  0  0  0  0  0  0  0  0  0  0
  -24.5083   -9.4924   24.1267 C   0  0  0  0  0  0  0  0  0  0  0  0
  -29.8482  -25.5573   21.1431 C   0  0  0  0  0  0  0  0  0  0  0  0
  -21.3764   -7.2337   23.6858 C   0  0  0  0  0  0  0  0  0  0  0  0
  -20.2126   -6.5852   23.2729 C   0  0  0  0  0  0  0  0  0  0  0  0
  -30.1644  -25.2868   23.5192 C   0  0  0  0  0  0  0  0  0  0  0  0
  -21.5103   -4.6371   22.6745 C   0  0  0  0  0  0  0  0  0  0  0  0
  -27.8334  -19.9053   21.1266 C   0  0  0  0  0  0  0  0  0  0  0  0
  -24.7763  -10.7724   22.0952 C   0  0  0  0  0  0  0  0  0  0  0  0
  -24.2729  -13.0754   21.1205 C   0  0  0  0  0  0  0  0  0  0  0  0
  -23.4868  -30.1769   21.9407 C   0  0  0  0  0  0  0  0  0  0  0  0
  -27.9256  -25.2741   22.5986 C   0  0  0  0  0  0  0  0  0  0  0  0
  -24.7620  -29.7093   22.3118 C   0  0  0  0  0  0  0  0  0  0  0  0
  -28.7782  -25.1771   23.7076 C   0  0  0  0  0  0  0  0  0  0  0  0
  -24.0945   -8.3906   23.3778 C   0  0  0  0  0  0  0  0  0  0  0  0
  -30.6959  -25.4775   22.2440 C   0  0  0  0  0  0  0  0  0  0  0  0
  -22.6073   -6.5840   23.5930 C   0  0  0  0  0  0  0  0  0  0  0  0
  -20.2795   -5.2869   22.7673 C   0  0  0  0  0  0  0  0  0  0  0  0
  -22.6742   -5.2857   23.0874 C   0  0  0  0  0  0  0  0  0  0  0  0
  -25.1290  -12.0026   21.4333 C   0  0  0  0  0  0  0  0  0  0  0  0
  -28.8628  -19.1290   20.6370 C   0  0  0  0  0  0  0  0  0  0  0  0
  -25.0853  -13.9939   20.5017 C   0  0  0  0  0  0  0  0  0  0  0  0
  -29.7015  -21.1065   20.1940 C   0  0  0  0  0  0  0  0  0  0  0  0
  -22.8688  -13.2281   21.3672 C   0  0  0  0  0  0  0  0  0  0  0  0
  -25.9613  -26.9480   24.4542 C   0  0  0  0  0  0  0  0  0  0  0  0
  -33.6509  -22.8013   19.0144 C   0  0  0  0  0  0  0  0  0  0  0  0
  -26.1531  -24.3272   26.3561 C   0  0  0  0  0  0  0  0  0  0  0  0
  -27.9119  -21.5629   27.3110 C   0  0  0  0  0  0  0  0  0  0  0  0
  -29.8522  -16.8548   20.1950 C   0  0  0  0  0  0  0  0  0  0  0  0
  -22.3333  -30.1911   22.9123 C   0  0  0  0  0  0  0  0  0  0  0  0
  -26.4374  -25.1358   22.7674 C   0  0  0  0  0  0  0  0  0  0  0  0
  -28.2462  -24.9662   25.1007 C   0  0  0  0  0  0  0  0  0  0  0  0
  -22.5439  -29.2830   24.1211 C   0  0  0  0  0  0  0  0  0  0  0  0
  -29.8369  -13.5756   18.8079 C   0  0  0  0  0  0  0  0  0  0  0  0
  -23.9395  -29.4842   24.7032 C   0  0  0  0  0  0  0  0  0  0  0  0
  -28.5403  -12.9623   19.3416 C   0  0  0  0  0  0  0  0  0  0  0  0
  -30.5026  -14.4827   19.8413 C   0  0  0  0  0  0  0  0  0  0  0  0
  -28.3380  -14.9124   20.9364 C   0  0  0  0  0  0  0  0  0  0  0  0
  -25.0218  -29.1181   23.6805 C   0  0  1  0  0  0  0  0  0  0  0  0
  -25.9624  -25.4710   24.1778 C   0  0  1  0  0  0  0  0  0  0  0  0
  -27.5975  -14.0421   19.9078 C   0  0  2  0  0  0  0  0  0  0  0  0
  -36.5432  -23.4151   18.2930 C   0  0  0  0  0  0  0  0  0  0  0  0
  -32.9554  -23.7409   16.8320 C   0  0  0  0  0  0  0  0  0  0  0  0
  -27.8329  -19.6348   28.9152 C   0  0  0  0  0  0  0  0  0  0  0  0
  -33.7725  -24.9298   23.6011 C   0  0  0  0  0  0  0  0  0  0  0  0
  -26.9511  -26.1933   28.6344 C   0  0  0  0  0  0  0  0  0  0  0  0
  -27.7644  -24.1903   29.8972 C   0  0  0  0  0  0  0  0  0  0  0  0
  -25.3546  -24.3803   29.2815 C   0  0  0  0  0  0  0  0  0  0  0  0
  -27.8974  -19.5829   25.1114 C   0  0  0  0  0  0  0  0  0  0  0  0
  -30.6397  -22.1753   19.7161 C   0  0  0  0  0  0  0  0  0  0  0  0
  -35.4097  -23.3907   17.2762 C   0  0  0  0  0  0  0  0  0  0  0  0
  -33.6286  -23.9160   21.2971 C   0  0  0  0  0  0  0  0  0  0  0  0
  -34.0533  -23.7604   17.8933 C   0  0  2  0  0  0  0  0  0  0  0  0
  -32.7898  -23.3772   20.1299 C   0  0  2  0  0  0  0  0  0  0  0  0
  -27.0588  -23.8862   27.4805 C   0  0  1  0  0  0  0  0  0  0  0  0
  -27.4872  -20.1199   27.5160 C   0  0  2  0  0  0  0  0  0  0  0  0
  -32.8347  -24.4675   22.4919 C   0  0  2  0  0  0  0  0  0  1  0  0
  -26.7924  -24.6685   28.7975 C   0  0  0  0  0  0  0  0  0  0  0  0
  -26.3887  -12.2181   21.0451 N   0  0  0  0  0  0  0  0  0  0  0  0
  -29.9347  -19.8160   20.1015 N   0  0  0  0  0  0  0  0  0  0  0  0
  -26.3301  -13.4369   20.4819 N   0  0  0  0  0  0  0  0  0  0  0  0
  -26.7836  -24.8432   25.2150 N   0  0  0  0  0  0  0  0  0  0  0  0
  -29.5509  -15.4830   20.3298 N   0  0  0  0  0  0  0  0  0  0  0  0
  -24.8491  -15.2155   19.9779 N   0  0  0  0  0  0  0  0  0  0  0  0
  -22.1871  -12.1882   22.0139 N   0  0  0  0  0  0  0  0  0  0  0  0
  -28.8584  -17.7124   20.6656 N   0  0  0  0  0  0  0  0  0  0  0  0
  -25.1683  -27.6811   23.5921 N   0  0  0  0  0  0  0  0  0  0  0  0
  -26.8893  -22.4420   27.5986 N   0  0  0  0  0  0  0  0  0  0  0  0
  -28.1686  -19.2344   26.5298 N   0  3  0  0  0  0  0  0  0  0  0  0
  -31.8136  -22.3618   20.6090 N   0  3  0  0  0  0  0  0  0  0  0  0
  -22.2340  -14.2493   21.0098 O   0  0  0  0  0  0  0  0  0  0  0  0
  -26.6292  -27.3896   25.3819 O   0  0  0  0  0  0  0  0  0  0  0  0
  -33.9839  -21.6155   19.0001 O   0  0  0  0  0  0  0  0  0  0  0  0
  -24.9315  -24.2113   26.4827 O   0  0  0  0  0  0  0  0  0  0  0  0
  -29.0392  -21.8787   26.9370 O   0  0  0  0  0  0  0  0  0  0  0  0
  -30.9018  -17.2406   19.6738 O   0  0  0  0  0  0  0  0  0  0  0  0
  -23.7617   -7.2288   24.0040 O   0  0  0  0  0  0  0  0  0  0  0  0
  -32.0508  -25.5811   22.0749 O   0  0  0  0  0  0  0  0  0  1  0  0
  -19.1616   -4.6637   22.3723 F   0  0  0  0  0  0  0  0  0  0  0  0
  -23.8536   -4.6559   22.9969 F   0  0  0  0  0  0  0  0  0  0  0  0
  -28.2130  -21.5643   20.9149 S   0  0  0  0  0  0  0  0  0  0  0  0
  1  2  1  0  0  0  0
  1  5  2  0  0  0  0
  2  6  2  0  0  0  0
  3  8  2  0  0  0  0
  3 16  1  0  0  0  0
  4  9  1  0  0  0  0
  4 16  2  0  0  0  0
  5 18  1  0  0  0  0
  6 20  1  0  0  0  0
  7 10  2  0  0  0  0
  7 19  1  0  0  0  0
  8 22  1  0  0  0  0
  9 22  2  0  0  0  0
 10 23  1  0  0  0  0
 11 12  2  0  0  0  0
 11 24  1  0  0  0  0
 12 25  1  0  0  0  0
 13 21  1  0  0  0  0
 13 23  2  0  0  0  0
 14 25  2  0  0  0  0
 14 26  1  0  0  0  0
 15 28  2  0  0  0  0
 15 88  1  0  0  0  0
 16 27  1  0  0  0  0
 17 27  1  0  0  0  0
 17 29  2  0  0  0  0
 17 31  1  0  0  0  0
 18 20  2  0  0  0  0
 18 37  1  0  0  0  0
 19 21  2  0  0  0  0
 19 38  1  0  0  0  0
 20 46  1  0  0  0  0
 21 39  1  0  0  0  0
 22 84  1  0  0  0  0
 23 85  1  0  0  0  0
 24 26  2  0  0  0  0
 24 84  1  0  0  0  0
 25 86  1  0  0  0  0
 26 87  1  0  0  0  0
 27 66  2  0  0  0  0
 28 67  1  0  0  0  0
 28 73  1  0  0  0  0
 29 68  1  0  0  0  0
 29 71  1  0  0  0  0
 30 57  1  0  0  0  0
 30 67  2  0  0  0  0
 30 88  1  0  0  0  0
 31 72  1  0  0  0  0
 31 78  2  0  0  0  0
 32 47  1  0  0  0  0
 32 74  1  0  0  0  0
 32 79  2  0  0  0  0
 33 60  1  0  0  0  0
 33 61  1  0  0  0  0
 33 80  2  0  0  0  0
 34 62  1  0  0  0  0
 34 69  1  0  0  0  0
 34 81  2  0  0  0  0
 35 63  1  0  0  0  0
 35 75  1  0  0  0  0
 35 82  2  0  0  0  0
 36 70  1  0  0  0  0
 36 73  1  0  0  0  0
 36 83  2  0  0  0  0
 37 40  1  0  0  0  0
 38 47  1  0  0  0  0
 39 69  1  0  0  0  0
 40 42  1  0  0  0  0
 41 43  1  0  0  0  0
 41 44  1  0  0  0  0
 42 46  1  0  0  0  0
 43 48  1  0  0  0  0
 44 70  1  0  0  0  0
 45 48  1  0  0  0  0
 45 70  1  0  0  0  0
 46 74  1  0  0  0  0
 47 69  1  0  0  0  0
 48 68  1  0  0  0  0
 49 58  1  0  0  0  0
 50 60  1  0  0  0  0
 51 63  1  0  0  0  0
 52 64  1  0  0  0  0
 53 65  1  0  0  0  0
 54 65  1  0  0  0  0
 55 65  1  0  0  0  0
 56 76  1  0  0  0  0
 57 77  1  0  0  0  0
 58 60  1  0  0  0  0
 59 61  1  0  0  0  0
 59 64  1  0  0  0  0
 61 77  1  0  0  0  0
 62 65  1  0  0  0  0
 62 75  1  0  0  0  0
 63 76  1  0  0  0  0
 64 85  1  0  0  0  0
 66 68  1  0  0  0  0
M  CHG  2  76   1  77   1
M  ISO  4  36 100  64 101  73 100  85 101
M  END
> <Batch ID>
0189

> <Smiles>
CCC(C)C(=O)C(C[101CH:1](C)[101O:1]c1ccc2c(c1)CN(C(=O)C(NC(=O)C(C)NC)C(C)(C)C)C(C(=O)NC1CCCc3ccccc31)C2)NCc1nc([100NH:0][100C:0](=O)N2CCCC(n3nc(-c4ccc(Oc5ccc(F)cc5F)cc4)c(C(N)=O)c3N)C2)cs1

> <Shape>
0.219

> <Color>
0.123

> <Negative vol penalty>
0.000

$$$$

  -OEChem-04052305183D

 83 91  0     1  0  0  0  0  0999 V2000
  -18.8904  -24.6504   23.1732 C   0  0  0  0  0  0  0  0  0  0  0  0
  -19.9770  -24.7221   22.3075 C   0  0  0  0  0  0  0  0  0  0  0  0
  -24.0516  -14.3098   19.6972 C   0  0  0  0  0  0  0  0  0  0  0  0
  -25.1904  -14.6428   21.8017 C   0  0  0  0  0  0  0  0  0  0  0  0
  -18.2402  -25.8174   23.5722 C   0  0  0  0  0  0  0  0  0  0  0  0
  -20.4133  -25.9610   21.8392 C   0  0  0  0  0  0  0  0  0  0  0  0
  -26.1874  -27.6235   20.6551 C   0  0  0  0  0  0  0  0  0  0  0  0
  -24.6207  -13.0409   19.5900 C   0  0  0  0  0  0  0  0  0  0  0  0
  -25.7595  -13.3738   21.6946 C   0  0  0  0  0  0  0  0  0  0  0  0
  -26.9199  -27.6911   19.4708 C   0  0  0  0  0  0  0  0  0  0  0  0
  -27.7967  -10.3657   21.8003 C   0  0  0  0  0  0  0  0  0  0  0  0
  -29.1552  -10.2379   22.0895 C   0  0  0  0  0  0  0  0  0  0  0  0
  -26.3987  -30.0395   19.2896 C   0  0  0  0  0  0  0  0  0  0  0  0
  -29.6788  -11.7952   20.3181 C   0  0  0  0  0  0  0  0  0  0  0  0
  -22.4369  -28.6427   17.0458 C   0  0  0  0  0  0  0  0  0  0  0  0
  -24.3364  -15.1108   20.8030 C   0  0  0  0  0  0  0  0  0  0  0  0
  -22.5252  -16.7563   21.5237 C   0  0  0  0  0  0  0  0  0  0  0  0
  -18.6748  -27.0719   23.1162 C   0  0  0  0  0  0  0  0  0  0  0  0
  -25.5449  -28.7628   21.1607 C   0  0  0  0  0  0  0  0  0  0  0  0
  -19.7675  -27.1458   22.2314 C   0  0  0  0  0  0  0  0  0  0  0  0
  -25.6608  -29.9842   20.4819 C   0  0  0  0  0  0  0  0  0  0  0  0
  -25.4746  -12.5729   20.5887 C   0  0  0  0  0  0  0  0  0  0  0  0
  -27.0233  -28.8986   18.7863 C   0  0  0  0  0  0  0  0  0  0  0  0
  -27.3791  -11.2082   20.7699 C   0  0  0  0  0  0  0  0  0  0  0  0
  -30.0962  -10.9527   21.3484 C   0  0  0  0  0  0  0  0  0  0  0  0
  -28.3202  -11.9230   20.0289 C   0  0  0  0  0  0  0  0  0  0  0  0
  -23.7493  -16.4219   20.9141 C   0  0  0  0  0  0  0  0  0  0  0  0
  -23.6048  -28.0515   16.6117 C   0  0  0  0  0  0  0  0  0  0  0  0
  -22.4229  -18.1168   21.3648 C   0  0  0  0  0  0  0  0  0  0  0  0
  -22.6110  -26.2685   17.4138 C   0  0  0  0  0  0  0  0  0  0  0  0
  -22.3427  -24.9339   17.7939 C   0  0  0  0  0  0  0  0  0  0  0  0
  -23.1639  -23.8460   17.6188 C   0  0  0  0  0  0  0  0  0  0  0  0
  -21.5665  -15.9127   22.1755 C   0  0  0  0  0  0  0  0  0  0  0  0
  -22.7428  -22.5086   18.0822 C   0  0  0  0  0  0  0  0  0  0  0  0
  -22.5247  -29.5584   21.7513 C   0  0  0  0  0  0  0  0  0  0  0  0
  -23.8826  -32.2107   23.0332 C   0  0  0  0  0  0  0  0  0  0  0  0
  -26.5527  -34.3332   23.1443 C   0  0  0  0  0  0  0  0  0  0  0  0
  -17.9107  -28.3021   23.5376 C   0  0  0  0  0  0  0  0  0  0  0  0
  -24.7808  -28.6793   22.4536 C   0  0  0  0  0  0  0  0  0  0  0  0
  -25.0068  -31.2409   20.9934 C   0  0  0  0  0  0  0  0  0  0  0  0
  -18.6692  -29.6040   23.2925 C   0  0  0  0  0  0  0  0  0  0  0  0
  -25.8067  -21.5306   19.8395 C   0  0  0  0  0  0  0  0  0  0  0  0
  -19.2752  -29.6133   21.8927 C   0  0  0  0  0  0  0  0  0  0  0  0
  -25.4509  -20.1145   20.2841 C   0  0  0  0  0  0  0  0  0  0  0  0
  -25.1831  -21.8795   18.4890 C   0  0  0  0  0  0  0  0  0  0  0  0
  -23.3501  -20.2608   18.8893 C   0  0  0  0  0  0  0  0  0  0  0  0
  -20.2860  -28.4729   21.7214 C   0  0  1  0  0  0  0  0  0  0  0  0
  -23.7402  -29.7846   22.6050 C   0  0  1  0  0  0  0  0  0  0  0  0
  -23.9284  -19.9052   20.2679 C   0  0  1  0  0  0  0  0  0  0  0  0
  -27.3555  -36.4322   24.2611 C   0  0  0  0  0  0  0  0  0  0  0  0
  -25.5845  -27.4081   14.2258 C   0  0  0  0  0  0  0  0  0  0  0  0
  -28.4458  -30.9230   16.4340 C   0  0  0  0  0  0  0  0  0  0  0  0
  -22.0518  -33.8637   21.2372 C   0  0  0  0  0  0  0  0  0  0  0  0
  -23.5221  -35.8418   21.6769 C   0  0  0  0  0  0  0  0  0  0  0  0
  -22.3085  -34.7485   23.5622 C   0  0  0  0  0  0  0  0  0  0  0  0
  -28.8631  -32.9403   24.3612 C   0  0  0  0  0  0  0  0  0  0  0  0
  -26.9462  -29.2027   15.3606 C   0  0  0  0  0  0  0  0  0  0  0  0
  -24.2802  -33.5688   22.5074 C   0  0  1  0  0  0  0  0  0  0  0  0
  -27.3312  -34.9125   24.3118 C   0  0  2  0  0  0  0  0  0  0  0  0
  -25.8572  -28.1327   15.5411 C   0  0  1  0  0  0  0  0  0  0  0  0
  -27.3154  -29.9277   16.6623 C   0  0  1  0  0  0  0  0  0  1  0  0
  -23.0515  -34.4818   22.2350 C   0  0  0  0  0  0  0  0  0  0  0  0
  -24.3793  -17.4842   20.4056 N   0  0  0  0  0  0  0  0  0  0  0  0
  -23.7066  -26.6902   16.8223 N   0  0  0  0  0  0  0  0  0  0  0  0
  -23.5479  -18.4995   20.6954 N   0  0  0  0  0  0  0  0  0  0  0  0
  -23.7364  -21.6157   18.4798 N   0  0  0  0  0  0  0  0  0  0  0  0
  -24.2655  -31.1068   22.2583 N   0  0  0  0  0  0  0  0  0  0  0  0
  -21.4812  -19.0110   21.7336 N   0  0  0  0  0  0  0  0  0  0  0  0
  -21.8282  -14.5379   22.2506 N   0  0  0  0  0  0  0  0  0  0  0  0
  -24.6288  -28.7493   15.9967 N   0  0  0  0  0  0  0  0  0  0  0  0
  -21.5391  -28.8076   22.3633 N   0  0  0  0  0  0  0  0  0  0  0  0
  -25.2303  -34.1169   23.4693 N   0  0  0  0  0  0  0  0  0  0  0  0
  -28.7372  -34.4190   24.2926 N   0  3  0  0  0  0  0  0  0  0  0  0
  -20.5013  -16.3624   22.6619 O   0  0  0  0  0  0  0  0  0  0  0  0
  -21.5355  -22.2616   18.0843 O   0  0  0  0  0  0  0  0  0  0  0  0
  -22.4833  -30.0312   20.6215 O   0  0  0  0  0  0  0  0  0  0  0  0
  -23.2617  -32.1318   24.0962 O   0  0  0  0  0  0  0  0  0  0  0  0
  -27.0656  -34.0998   22.0521 O   0  0  0  0  0  0  0  0  0  0  0  0
  -26.0300  -11.3346   20.4845 O   0  0  0  0  0  0  0  0  0  0  0  0
  -27.7371  -28.9672   17.6297 O   0  0  0  0  0  0  0  0  0  1  0  0
  -31.4007  -10.8311   21.6273 F   0  0  0  0  0  0  0  0  0  0  0  0
  -27.9251  -12.7348   19.0386 F   0  0  0  0  0  0  0  0  0  0  0  0
  -21.4166  -27.4552   17.7459 S   0  0  0  0  0  0  0  0  0  0  0  0
  1  2  1  0  0  0  0
  1  5  2  0  0  0  0
  2  6  2  0  0  0  0
  3  8  2  0  0  0  0
  3 16  1  0  0  0  0
  4  9  1  0  0  0  0
  4 16  2  0  0  0  0
  5 18  1  0  0  0  0
  6 20  1  0  0  0  0
  7 10  2  0  0  0  0
  7 19  1  0  0  0  0
  8 22  1  0  0  0  0
  9 22  2  0  0  0  0
 10 23  1  0  0  0  0
 11 12  2  0  0  0  0
 11 24  1  0  0  0  0
 12 25  1  0  0  0  0
 13 21  1  0  0  0  0
 13 23  2  0  0  0  0
 14 25  2  0  0  0  0
 14 26  1  0  0  0  0
 15 28  2  0  0  0  0
 15 83  1  0  0  0  0
 16 27  1  0  0  0  0
 17 27  1  0  0  0  0
 17 29  2  0  0  0  0
 17 33  1  0  0  0  0
 18 20  2  0  0  0  0
 18 38  1  0  0  0  0
 19 21  2  0  0  0  0
 19 39  1  0  0  0  0
 20 47  1  0  0  0  0
 21 40  1  0  0  0  0
 22 79  1  0  0  0  0
 23 80  1  0  0  0  0
 24 26  2  0  0  0  0
 24 79  1  0  0  0  0
 25 81  1  0  0  0  0
 26 82  1  0  0  0  0
 27 63  2  0  0  0  0
 28 64  1  0  0  0  0
 28 70  1  0  0  0  0
 29 65  1  0  0  0  0
 29 68  1  0  0  0  0
 30 31  1  0  0  0  0
 30 64  2  0  0  0  0
 30 83  1  0  0  0  0
 31 32  2  0  0  0  0
 32 34  1  0  0  0  0
 33 69  1  0  0  0  0
 33 74  2  0  0  0  0
 34 66  1  0  0  0  0
 34 75  2  0  0  0  0
 35 48  1  0  0  0  0
 35 71  1  0  0  0  0
 35 76  2  0  0  0  0
 36 58  1  0  0  0  0
 36 67  1  0  0  0  0
 36 77  2  0  0  0  0
 37 59  1  0  0  0  0
 37 72  1  0  0  0  0
 37 78  2  0  0  0  0
 38 41  1  0  0  0  0
 39 48  1  0  0  0  0
 40 67  1  0  0  0  0
 41 43  1  0  0  0  0
 42 44  1  0  0  0  0
 42 45  1  0  0  0  0
 43 47  1  0  0  0  0
 44 49  1  0  0  0  0
 45 66  1  0  0  0  0
 46 49  1  0  0  0  0
 46 66  1  0  0  0  0
 47 71  1  0  0  0  0
 48 67  1  0  0  0  0
 49 65  1  0  0  0  0
 50 59  1  0  0  0  0
 51 60  1  0  0  0  0
 52 61  1  0  0  0  0
 53 62  1  0  0  0  0
 54 62  1  0  0  0  0
 55 62  1  0  0  0  0
 56 73  1  0  0  0  0
 57 60  1  0  0  0  0
 57 61  1  0  0  0  0
 58 62  1  0  0  0  0
 58 72  1  0  0  0  0
 59 73  1  0  0  0  0
 60 70  1  0  0  0  0
 61 80  1  0  0  0  0
 63 65  1  0  0  0  0
M  CHG  1  73   1
M  ISO  4  32 100  34 100  61 101  80 101
M  END
> <Batch ID>
0189

> <Smiles>
CNC(C)C(=O)NC(C(=O)N1Cc2cc([101O:1][101CH:1](C)CC(C)Nc3csc(C=[100CH:0][100C:0](=O)N4CCCC(n5nc(-c6ccc(Oc7ccc(F)cc7F)cc6)c(C(N)=O)c5N)C4)n3)ccc2CC1C(=O)NC1CCCc2ccccc21)C(C)(C)C

> <Shape>
0.203

> <Color>
0.110

> <Negative vol penalty>
0.000

$$$$

  -OEChem-04052305183D

 86 94  0     1  0  0  0  0  0999 V2000
  -22.1892  -25.0328   17.6631 C   0  0  0  0  0  0  0  0  0  0  0  0
  -22.3201  -23.6586   17.4974 C   0  0  0  0  0  0  0  0  0  0  0  0
  -26.1498  -27.8321   18.8097 C   0  0  0  0  0  0  0  0  0  0  0  0
  -26.3487  -27.3042   21.1589 C   0  0  0  0  0  0  0  0  0  0  0  0
  -22.0942  -25.5705   18.9449 C   0  0  0  0  0  0  0  0  0  0  0  0
  -22.3441  -22.8207   18.6128 C   0  0  0  0  0  0  0  0  0  0  0  0
  -23.1988  -16.8020   19.0280 C   0  0  0  0  0  0  0  0  0  0  0  0
  -25.4796  -29.0123   19.1317 C   0  0  0  0  0  0  0  0  0  0  0  0
  -25.6785  -28.4844   21.4809 C   0  0  0  0  0  0  0  0  0  0  0  0
  -24.2671  -15.9242   19.2073 C   0  0  0  0  0  0  0  0  0  0  0  0
  -26.4034  -31.7778   21.7014 C   0  0  0  0  0  0  0  0  0  0  0  0
  -26.9283  -32.5592   22.7306 C   0  0  0  0  0  0  0  0  0  0  0  0
  -23.7912  -15.8376   21.5706 C   0  0  0  0  0  0  0  0  0  0  0  0
  -24.8659  -32.3177   23.9658 C   0  0  0  0  0  0  0  0  0  0  0  0
  -30.2525  -18.0879   22.4198 C   0  0  0  0  0  0  0  0  0  0  0  0
  -26.5843  -26.9780   19.8234 C   0  0  0  0  0  0  0  0  0  0  0  0
  -28.6643  -25.5842   19.3349 C   0  0  0  0  0  0  0  0  0  0  0  0
  -22.1297  -24.7391   20.0765 C   0  0  0  0  0  0  0  0  0  0  0  0
  -22.4242  -17.2133   20.1221 C   0  0  0  0  0  0  0  0  0  0  0  0
  -22.2255  -23.3420   19.9138 C   0  0  0  0  0  0  0  0  0  0  0  0
  -22.7121  -16.7186   21.4021 C   0  0  0  0  0  0  0  0  0  0  0  0
  -25.2440  -29.3384   20.4673 C   0  0  0  0  0  0  0  0  0  0  0  0
  -24.5652  -15.4442   20.4792 C   0  0  0  0  0  0  0  0  0  0  0  0
  -25.1097  -31.2663   21.8042 C   0  0  0  0  0  0  0  0  0  0  0  0
  -26.1596  -32.8291   23.8628 C   0  0  0  0  0  0  0  0  0  0  0  0
  -24.3410  -31.5363   22.9364 C   0  0  0  0  0  0  0  0  0  0  0  0
  -27.2761  -25.7585   19.4914 C   0  0  0  0  0  0  0  0  0  0  0  0
  -28.8105  -24.2543   19.0245 C   0  0  0  0  0  0  0  0  0  0  0  0
  -29.3772  -17.9915   21.3751 C   0  0  0  0  0  0  0  0  0  0  0  0
  -30.4902  -16.0828   21.5124 C   0  0  0  0  0  0  0  0  0  0  0  0
  -29.7266  -26.5391   19.4591 C   0  0  0  0  0  0  0  0  0  0  0  0
  -21.8092  -20.0051   21.5119 C   0  0  0  0  0  0  0  0  0  0  0  0
  -19.7358  -18.2324   23.2672 C   0  0  0  0  0  0  0  0  0  0  0  0
  -18.8563  -15.1698   24.4895 C   0  0  0  0  0  0  0  0  0  0  0  0
  -27.5720  -18.8913   19.8659 C   0  0  0  0  0  0  0  0  0  0  0  0
  -22.0151  -25.3734   21.4402 C   0  0  0  0  0  0  0  0  0  0  0  0
  -21.2587  -18.1397   19.9078 C   0  0  0  0  0  0  0  0  0  0  0  0
  -21.8985  -17.1136   22.6065 C   0  0  0  0  0  0  0  0  0  0  0  0
  -22.4939  -24.4592   22.5633 C   0  0  0  0  0  0  0  0  0  0  0  0
  -25.3609  -20.7604   17.7935 C   0  0  0  0  0  0  0  0  0  0  0  0
  -21.8546  -23.0857   22.4237 C   0  0  0  0  0  0  0  0  0  0  0  0
  -25.7763  -22.2130   18.0376 C   0  0  0  0  0  0  0  0  0  0  0  0
  -25.4566  -19.9216   19.0666 C   0  0  0  0  0  0  0  0  0  0  0  0
  -27.1707  -21.4287   19.9940 C   0  0  0  0  0  0  0  0  0  0  0  0
  -22.2846  -22.4138   21.1135 C   0  0  1  0  0  0  0  0  0  0  0  0
  -20.8558  -18.8950   21.1706 C   0  0  1  0  0  0  0  0  0  0  0  0
  -27.1528  -22.2975   18.7257 C   0  0  2  0  0  0  0  0  0  0  0  0
  -32.2004  -14.7031   20.3085 C   0  0  0  0  0  0  0  0  0  0  0  0
  -17.1339  -14.0420   25.9244 C   0  0  0  0  0  0  0  0  0  0  0  0
  -29.0199  -12.8960   22.8344 C   0  0  0  0  0  0  0  0  0  0  0  0
  -21.0818  -19.3579   25.7635 C   0  0  0  0  0  0  0  0  0  0  0  0
  -20.0016  -17.5273   27.0865 C   0  0  0  0  0  0  0  0  0  0  0  0
  -18.5893  -19.2070   25.9004 C   0  0  0  0  0  0  0  0  0  0  0  0
  -31.9554  -16.5650   23.4503 C   0  0  0  0  0  0  0  0  0  0  0  0
  -17.9597  -13.4439   22.2588 C   0  0  0  0  0  0  0  0  0  0  0  0
  -29.8701  -13.7738   20.5983 C   0  0  0  0  0  0  0  0  0  0  0  0
  -27.6400  -12.6157   20.7192 C   0  0  0  0  0  0  0  0  0  0  0  0
  -25.5011  -13.6479   21.7256 C   0  0  0  0  0  0  0  0  0  1  0  0
  -30.9661  -14.6703   21.2200 C   0  0  2  0  0  0  0  0  0  0  0  0
  -19.8213  -17.4542   24.5580 C   0  0  1  0  0  0  0  0  0  0  0  0
  -17.5270  -14.4370   24.5094 C   0  0  2  0  0  0  0  0  0  0  0  0
  -28.6296  -13.5169   21.4902 C   0  0  1  0  0  0  0  0  0  0  0  0
  -26.2817  -12.3770   21.3943 C   0  0  1  0  0  0  0  0  0  0  0  0
  -19.8902  -18.3805   25.8049 C   0  0  0  0  0  0  0  0  0  0  0  0
  -26.5895  -24.6296   19.2963 N   0  0  0  0  0  0  0  0  0  0  0  0
  -30.9276  -16.8928   22.4820 N   0  0  0  0  0  0  0  0  0  0  0  0
  -27.5501  -23.7332   19.0140 N   0  0  0  0  0  0  0  0  0  0  0  0
  -29.5461  -16.7407   20.8318 N   0  3  0  0  0  0  0  0  0  0  0  0
  -20.7730  -18.0265   22.3466 N   0  0  0  0  0  0  0  0  0  0  0  0
  -26.7893  -20.0473   19.6609 N   0  0  0  0  0  0  0  0  0  0  0  0
  -29.8930  -23.4915   18.7621 N   0  0  0  0  0  0  0  0  0  0  0  0
  -29.4004  -27.8630   19.7835 N   0  0  0  0  0  0  0  0  0  0  0  0
  -28.4678  -18.9830   20.9306 N   0  0  0  0  0  0  0  0  0  0  0  0
  -21.5005  -21.2142   20.9186 N   0  0  0  0  0  0  0  0  0  0  0  0
  -18.6871  -16.5366   24.5573 N   0  0  0  0  0  0  0  0  0  0  0  0
  -17.6046  -13.2008   23.6807 N   0  3  0  0  0  0  0  0  0  0  0  0
  -30.9280  -26.2312   19.2713 O   0  0  0  0  0  0  0  0  0  0  0  0
  -22.7540  -19.7815   22.2596 O   0  0  0  0  0  0  0  0  0  0  0  0
  -18.7801  -18.9894   23.0796 O   0  0  0  0  0  0  0  0  0  0  0  0
  -19.9368  -14.5878   24.4245 O   0  0  0  0  0  0  0  0  0  0  0  0
  -27.4753  -17.9037   19.1329 O   0  0  0  0  0  0  0  0  0  0  0  0
  -25.5018  -11.5805   20.4971 O   0  0  0  0  0  0  0  0  0  0  0  0
  -24.5903  -30.4901   20.7818 O   0  0  0  0  0  0  0  0  0  0  0  0
  -25.6078  -14.5878   20.6572 O   0  0  0  0  0  0  0  0  0  1  0  0
  -26.6644  -33.5782   24.8519 F   0  0  0  0  0  0  0  0  0  0  0  0
  -23.0980  -31.0467   23.0414 F   0  0  0  0  0  0  0  0  0  0  0  0
  1  2  1  0  0  0  0
  1  5  2  0  0  0  0
  2  6  2  0  0  0  0
  3  8  2  0  0  0  0
  3 16  1  0  0  0  0
  4  9  1  0  0  0  0
  4 16  2  0  0  0  0
  5 18  1  0  0  0  0
  6 20  1  0  0  0  0
  7 10  2  0  0  0  0
  7 19  1  0  0  0  0
  8 22  1  0  0  0  0
  9 22  2  0  0  0  0
 10 23  1  0  0  0  0
 11 12  2  0  0  0  0
 11 24  1  0  0  0  0
 12 25  1  0  0  0  0
 13 21  1  0  0  0  0
 13 23  2  0  0  0  0
 14 25  2  0  0  0  0
 14 26  1  0  0  0  0
 15 29  2  0  0  0  0
 15 66  1  0  0  0  0
 16 27  1  0  0  0  0
 17 27  1  0  0  0  0
 17 28  2  0  0  0  0
 17 31  1  0  0  0  0
 18 20  2  0  0  0  0
 18 36  1  0  0  0  0
 19 21  2  0  0  0  0
 19 37  1  0  0  0  0
 20 45  1  0  0  0  0
 21 38  1  0  0  0  0
 22 83  1  0  0  0  0
 23 84  1  0  0  0  0
 24 26  2  0  0  0  0
 24 83  1  0  0  0  0
 25 85  1  0  0  0  0
 26 86  1  0  0  0  0
 27 65  2  0  0  0  0
 28 67  1  0  0  0  0
 28 71  1  0  0  0  0
 29 68  1  0  0  0  0
 29 73  1  0  0  0  0
 30 59  1  0  0  0  0
 30 66  1  0  0  0  0
 30 68  2  0  0  0  0
 31 72  1  0  0  0  0
 31 77  2  0  0  0  0
 32 46  1  0  0  0  0
 32 74  1  0  0  0  0
 32 78  2  0  0  0  0
 33 60  1  0  0  0  0
 33 69  1  0  0  0  0
 33 79  2  0  0  0  0
 34 61  1  0  0  0  0
 34 75  1  0  0  0  0
 34 80  2  0  0  0  0
 35 70  1  0  0  0  0
 35 73  1  0  0  0  0
 35 81  2  0  0  0  0
 36 39  1  0  0  0  0
 37 46  1  0  0  0  0
 38 69  1  0  0  0  0
 39 41  1  0  0  0  0
 40 42  1  0  0  0  0
 40 43  1  0  0  0  0
 41 45  1  0  0  0  0
 42 47  1  0  0  0  0
 43 70  1  0  0  0  0
 44 47  1  0  0  0  0
 44 70  1  0  0  0  0
 45 74  1  0  0  0  0
 46 69  1  0  0  0  0
 47 67  1  0  0  0  0
 48 59  1  0  0  0  0
 49 61  1  0  0  0  0
 50 62  1  0  0  0  0
 51 64  1  0  0  0  0
 52 64  1  0  0  0  0
 53 64  1  0  0  0  0
 54 66  1  0  0  0  0
 55 76  1  0  0  0  0
 56 59  1  0  0  0  0
 56 62  1  0  0  0  0
 57 62  1  0  0  0  0
 57 63  1  0  0  0  0
 58 63  1  0  0  0  0
 58 84  1  0  0  0  0
 60 64  1  0  0  0  0
 60 75  1  0  0  0  0
 61 76  1  0  0  0  0
 63 82  1  0  0  0  0
 65 67  1  0  0  0  0
M  CHG  2  68   1  76   1
M  ISO  4  35 100  58 101  73 100  84 101
M  END
> <Batch ID>
0189

> <Smiles>
CNC(C)C(=O)NC(C(=O)N1Cc2cc([101O:1][101CH2:1]C(O)CC(C)CC(C)c3nc([100NH:0][100C:0](=O)N4CCCC(n5nc(-c6ccc(Oc7ccc(F)cc7F)cc6)c(C(N)=O)c5N)C4)cn3C)ccc2CC1C(=O)NC1CCCc2ccccc21)C(C)(C)C

> <Shape>
0.221

> <Color>
0.055

> <Negative vol penalty>
0.000

$$$$

  -OEChem-04052305183D

 83 91  0     1  0  0  0  0  0999 V2000
  -24.2348   -9.3806   23.8399 C   0  0  0  0  0  0  0  0  0  0  0  0
  -25.1948  -10.3625   24.0629 C   0  0  0  0  0  0  0  0  0  0  0  0
  -19.8870  -28.5675   23.4884 C   0  0  0  0  0  0  0  0  0  0  0  0
  -20.9471  -26.8612   22.1460 C   0  0  0  0  0  0  0  0  0  0  0  0
  -23.4912   -9.3895   22.6606 C   0  0  0  0  0  0  0  0  0  0  0  0
  -25.4124  -11.3533   23.1062 C   0  0  0  0  0  0  0  0  0  0  0  0
  -27.2573  -18.2514   22.5329 C   0  0  0  0  0  0  0  0  0  0  0  0
  -18.6890  -28.3614   22.8043 C   0  0  0  0  0  0  0  0  0  0  0  0
  -19.7491  -26.6551   21.4619 C   0  0  0  0  0  0  0  0  0  0  0  0
  -28.1705  -19.0706   21.8706 C   0  0  0  0  0  0  0  0  0  0  0  0
  -16.8738  -25.4271   19.6064 C   0  0  0  0  0  0  0  0  0  0  0  0
  -16.4691  -24.1103   19.3880 C   0  0  0  0  0  0  0  0  0  0  0  0
  -26.7711  -19.0321   19.9061 C   0  0  0  0  0  0  0  0  0  0  0  0
  -16.4169  -23.7307   21.7734 C   0  0  0  0  0  0  0  0  0  0  0  0
  -30.4169  -26.8590   21.3893 C   0  0  0  0  0  0  0  0  0  0  0  0
  -21.0161  -27.8174   23.1592 C   0  0  0  0  0  0  0  0  0  0  0  0
  -22.6881  -27.3791   25.0352 C   0  0  0  0  0  0  0  0  0  0  0  0
  -23.6930  -10.3865   21.6932 C   0  0  0  0  0  0  0  0  0  0  0  0
  -26.0975  -17.8068   21.8820 C   0  0  0  0  0  0  0  0  0  0  0  0
  -24.6717  -11.3748   21.9122 C   0  0  0  0  0  0  0  0  0  0  0  0
  -25.8435  -18.2095   20.5632 C   0  0  0  0  0  0  0  0  0  0  0  0
  -29.4351  -27.4192   20.6020 C   0  0  0  0  0  0  0  0  0  0  0  0
  -18.6200  -27.4052   21.7911 C   0  0  0  0  0  0  0  0  0  0  0  0
  -27.9289  -19.4588   20.5561 C   0  0  0  0  0  0  0  0  0  0  0  0
  -17.0501  -25.8958   20.9083 C   0  0  0  0  0  0  0  0  0  0  0  0
  -16.2406  -23.2621   20.4715 C   0  0  0  0  0  0  0  0  0  0  0  0
  -16.8216  -25.0476   21.9918 C   0  0  0  0  0  0  0  0  0  0  0  0
  -28.6656  -26.4313   19.9222 C   0  0  0  0  0  0  0  0  0  0  0  0
  -22.2540  -28.0303   23.8651 C   0  0  0  0  0  0  0  0  0  0  0  0
  -23.9169  -27.9326   25.3005 C   0  0  0  0  0  0  0  0  0  0  0  0
  -29.0889  -25.1535   20.2156 C   0  0  0  0  0  0  0  0  0  0  0  0
  -22.0388  -26.3645   25.8129 C   0  0  0  0  0  0  0  0  0  0  0  0
  -24.9305  -14.9634   21.0712 C   0  0  0  0  0  0  0  0  0  0  0  0
  -22.3447  -16.7110   20.1868 C   0  0  0  0  0  0  0  0  0  0  0  0
  -21.0836  -19.7271   19.2075 C   0  0  0  0  0  0  0  0  0  0  0  0
  -29.1135  -22.6372   20.1343 C   0  0  0  0  0  0  0  0  0  0  0  0
  -28.0261  -30.5840   21.8457 C   0  0  0  0  0  0  0  0  0  0  0  0
  -22.8979  -10.3274   20.4130 C   0  0  0  0  0  0  0  0  0  0  0  0
  -25.1091  -16.9453   22.6192 C   0  0  0  0  0  0  0  0  0  0  0  0
  -24.6034  -17.7759   19.8266 C   0  0  0  0  0  0  0  0  0  0  0  0
  -22.9282  -11.6293   19.6165 C   0  0  0  0  0  0  0  0  0  0  0  0
  -26.4130  -31.9701   24.7011 C   0  0  0  0  0  0  0  0  0  0  0  0
  -24.3540  -12.1629   19.5198 C   0  0  0  0  0  0  0  0  0  0  0  0
  -25.2034  -31.0588   24.9162 C   0  0  0  0  0  0  0  0  0  0  0  0
  -26.7101  -32.1728   23.2170 C   0  0  0  0  0  0  0  0  0  0  0  0
  -25.6558  -30.0170   22.6560 C   0  0  0  0  0  0  0  0  0  0  0  0
  -24.9195  -12.4806   20.9093 C   0  0  1  0  0  0  0  0  0  0  0  0
  -24.2150  -16.1316   21.6887 C   0  0  1  0  0  0  0  0  0  0  0  0
  -25.3511  -29.7377   24.1377 C   0  0  2  0  0  0  0  0  0  0  0  0
  -18.9404  -20.8365   18.5193 C   0  0  0  0  0  0  0  0  0  0  0  0
  -28.4910  -21.5859   17.9282 C   0  0  0  0  0  0  0  0  0  0  0  0
  -22.5372  -15.3787   17.4486 C   0  0  0  0  0  0  0  0  0  0  0  0
  -21.0351  -17.1685   16.5495 C   0  0  0  0  0  0  0  0  0  0  0  0
  -20.2088  -15.6259   18.3271 C   0  0  0  0  0  0  0  0  0  0  0  0
  -21.2008  -21.6230   21.4770 C   0  0  0  0  0  0  0  0  0  0  0  0
  -29.2240  -28.8837   20.4918 C   0  0  0  0  0  0  0  0  0  0  0  0
  -21.9054  -17.4042   18.9198 C   0  0  1  0  0  0  0  0  0  0  0  0
  -19.8723  -20.5128   19.6766 C   0  0  2  0  0  0  0  0  0  0  0  0
  -28.3402  -21.5186   19.4408 C   0  0  1  0  0  0  0  0  0  1  0  0
  -21.4460  -16.4011   17.8242 C   0  0  0  0  0  0  0  0  0  0  0  0
  -23.1352  -28.9289   23.4179 N   0  0  0  0  0  0  0  0  0  0  0  0
  -24.1353  -28.8464   24.3118 N   0  0  0  0  0  0  0  0  0  0  0  0
  -23.6704  -16.9290   20.5880 N   0  0  0  0  0  0  0  0  0  0  0  0
  -26.8401  -30.8818   22.5370 N   0  0  0  0  0  0  0  0  0  0  0  0
  -24.8209  -27.7221   26.2807 N   0  0  0  0  0  0  0  0  0  0  0  0
  -20.7797  -25.9089   25.3990 N   0  0  0  0  0  0  0  0  0  0  0  0
  -28.6263  -23.8901   19.7766 N   0  0  0  0  0  0  0  0  0  0  0  0
  -24.3876  -13.7351   21.3968 N   0  0  0  0  0  0  0  0  0  0  0  0
  -20.8831  -18.3672   19.3147 N   0  0  0  0  0  0  0  0  0  0  0  0
  -28.0692  -29.3368   21.2347 N   0  0  0  0  0  0  0  0  0  0  0  0
  -20.2986  -21.7931   20.3091 N   0  3  0  0  0  0  0  0  0  0  0  0
  -22.5525  -25.8881   26.8534 O   0  0  0  0  0  0  0  0  0  0  0  0
  -25.9022  -15.1619   20.3515 O   0  0  0  0  0  0  0  0  0  0  0  0
  -21.5392  -16.0079   20.8020 O   0  0  0  0  0  0  0  0  0  0  0  0
  -22.1040  -20.2659   18.7844 O   0  0  0  0  0  0  0  0  0  0  0  0
  -30.0300  -22.3895   20.9126 O   0  0  0  0  0  0  0  0  0  0  0  0
  -28.9781  -31.3692   21.7825 O   0  0  0  0  0  0  0  0  0  0  0  0
  -17.4512  -27.2037   21.1235 O   0  0  0  0  0  0  0  0  0  0  0  0
  -28.8190  -20.2578   19.9071 O   0  0  0  0  0  0  0  0  0  1  0  0
  -15.8505  -21.9980   20.2616 F   0  0  0  0  0  0  0  0  0  0  0  0
  -16.9882  -25.4925   23.2449 F   0  0  0  0  0  0  0  0  0  0  0  0
  -30.4085  -25.1486   21.3068 S   0  0  0  0  0  0  0  0  0  0  0  0
  -27.3699  -26.8118   18.8665 Cl  0  0  0  0  0  0  0  0  0  0  0  0
  1  2  1  0  0  0  0
  1  5  2  0  0  0  0
  2  6  2  0  0  0  0
  3  8  2  0  0  0  0
  3 16  1  0  0  0  0
  4  9  1  0  0  0  0
  4 16  2  0  0  0  0
  5 18  1  0  0  0  0
  6 20  1  0  0  0  0
  7 10  2  0  0  0  0
  7 19  1  0  0  0  0
  8 23  1  0  0  0  0
  9 23  2  0  0  0  0
 10 24  1  0  0  0  0
 11 12  2  0  0  0  0
 11 25  1  0  0  0  0
 12 26  1  0  0  0  0
 13 21  1  0  0  0  0
 13 24  2  0  0  0  0
 14 26  2  0  0  0  0
 14 27  1  0  0  0  0
 15 22  2  0  0  0  0
 15 82  1  0  0  0  0
 16 29  1  0  0  0  0
 17 29  1  0  0  0  0
 17 30  2  0  0  0  0
 17 32  1  0  0  0  0
 18 20  2  0  0  0  0
 18 38  1  0  0  0  0
 19 21  2  0  0  0  0
 19 39  1  0  0  0  0
 20 47  1  0  0  0  0
 21 40  1  0  0  0  0
 22 28  1  0  0  0  0
 22 56  1  0  0  0  0
 23 78  1  0  0  0  0
 24 79  1  0  0  0  0
 25 27  2  0  0  0  0
 25 78  1  0  0  0  0
 26 80  1  0  0  0  0
 27 81  1  0  0  0  0
 28 31  2  0  0  0  0
 28 83  1  0  0  0  0
 29 61  2  0  0  0  0
 30 62  1  0  0  0  0
 30 65  1  0  0  0  0
 31 67  1  0  0  0  0
 31 82  1  0  0  0  0
 32 66  1  0  0  0  0
 32 72  2  0  0  0  0
 33 48  1  0  0  0  0
 33 68  1  0  0  0  0
 33 73  2  0  0  0  0
 34 57  1  0  0  0  0
 34 63  1  0  0  0  0
 34 74  2  0  0  0  0
 35 58  1  0  0  0  0
 35 69  1  0  0  0  0
 35 75  2  0  0  0  0
 36 59  1  0  0  0  0
 36 67  1  0  0  0  0
 36 76  2  0  0  0  0
 37 64  1  0  0  0  0
 37 70  1  0  0  0  0
 37 77  2  0  0  0  0
 38 41  1  0  0  0  0
 39 48  1  0  0  0  0
 40 63  1  0  0  0  0
 41 43  1  0  0  0  0
 42 44  1  0  0  0  0
 42 45  1  0  0  0  0
 43 47  1  0  0  0  0
 44 49  1  0  0  0  0
 45 64  1  0  0  0  0
 46 49  1  0  0  0  0
 46 64  1  0  0  0  0
 47 68  1  0  0  0  0
 48 63  1  0  0  0  0
 49 62  1  0  0  0  0
 50 58  1  0  0  0  0
 51 59  1  0  0  0  0
 52 60  1  0  0  0  0
 53 60  1  0  0  0  0
 54 60  1  0  0  0  0
 55 71  1  0  0  0  0
 56 70  1  0  0  0  0
 57 60  1  0  0  0  0
 57 69  1  0  0  0  0
 58 71  1  0  0  0  0
 59 79  1  0  0  0  0
 61 62  1  0  0  0  0
M  CHG  1  71   1
M  ISO  4  37 100  59 101  70 100  79 101
M  END
> <Batch ID>
0189

> <Smiles>
CNC(C)C(=O)NC(C(=O)N1Cc2cc([101O:1][101CH:1](C)C(=O)Nc3scc(C[100NH:0][100C:0](=O)N4CCCC(n5nc(-c6ccc(Oc7ccc(F)cc7F)cc6)c(C(N)=O)c5N)C4)c3Cl)ccc2CC1C(=O)NC1CCCc2ccccc21)C(C)(C)C

> <Shape>
0.225

> <Color>
0.063

> <Negative vol penalty>
0.000

$$$$

  -OEChem-04052305183D

 88 96  0     1  0  0  0  0  0999 V2000
  -26.6904  -24.4799   16.3389 C   0  0  0  0  0  0  0  0  0  0  0  0
  -25.5478  -24.9269   16.9945 C   0  0  0  0  0  0  0  0  0  0  0  0
  -26.4054  -14.1421   20.1411 C   0  0  0  0  0  0  0  0  0  0  0  0
  -24.0094  -14.2611   20.4280 C   0  0  0  0  0  0  0  0  0  0  0  0
  -27.9418  -24.6434   16.9316 C   0  0  0  0  0  0  0  0  0  0  0  0
  -25.6557  -25.5369   18.2438 C   0  0  0  0  0  0  0  0  0  0  0  0
  -22.8179  -29.7144   18.6179 C   0  0  0  0  0  0  0  0  0  0  0  0
  -26.4237  -12.9147   20.8035 C   0  0  0  0  0  0  0  0  0  0  0  0
  -24.0278  -13.0336   21.0903 C   0  0  0  0  0  0  0  0  0  0  0  0
  -21.4511  -29.5388   18.8298 C   0  0  0  0  0  0  0  0  0  0  0  0
  -23.3967   -9.7593   22.5391 C   0  0  0  0  0  0  0  0  0  0  0  0
  -22.4272   -8.8190   22.1906 C   0  0  0  0  0  0  0  0  0  0  0  0
  -21.7638  -29.9875   21.1793 C   0  0  0  0  0  0  0  0  0  0  0  0
  -23.2444   -8.8191   19.9170 C   0  0  0  0  0  0  0  0  0  0  0  0
  -25.1982  -14.8153   19.9534 C   0  0  0  0  0  0  0  0  0  0  0  0
  -25.0239  -16.3020   17.8877 C   0  0  0  0  0  0  0  0  0  0  0  0
  -28.0661  -25.2644   18.1844 C   0  0  0  0  0  0  0  0  0  0  0  0
  -23.6710  -30.0176   19.6887 C   0  0  0  0  0  0  0  0  0  0  0  0
  -26.9098  -25.7077   18.8544 C   0  0  0  0  0  0  0  0  0  0  0  0
  -23.1407  -30.1690   20.9779 C   0  0  0  0  0  0  0  0  0  0  0  0
  -25.2350  -12.3604   21.2780 C   0  0  0  0  0  0  0  0  0  0  0  0
  -20.9243  -29.6725   20.1111 C   0  0  0  0  0  0  0  0  0  0  0  0
  -24.2900  -10.2296   21.5765 C   0  0  0  0  0  0  0  0  0  0  0  0
  -22.3511   -8.3488   20.8796 C   0  0  0  0  0  0  0  0  0  0  0  0
  -24.2138   -9.7595   20.2655 C   0  0  0  0  0  0  0  0  0  0  0  0
  -25.1787  -16.0835   19.2698 C   0  0  0  0  0  0  0  0  0  0  0  0
  -19.7796  -23.7394   22.0461 C   0  0  0  0  0  0  0  0  0  0  0  0
  -25.0741  -17.6674   17.7482 C   0  0  0  0  0  0  0  0  0  0  0  0
  -18.9774  -22.6400   21.8225 C   0  0  0  0  0  0  0  0  0  0  0  0
  -21.3478  -22.2713   21.6040 C   0  0  0  0  0  0  0  0  0  0  0  0
  -24.8501  -15.3553   16.8251 C   0  0  0  0  0  0  0  0  0  0  0  0
  -26.1579  -28.5817   21.0516 C   0  0  0  0  0  0  0  0  0  0  0  0
  -26.3196  -31.3377   22.7547 C   0  0  0  0  0  0  0  0  0  0  0  0
  -24.7127  -34.0956   23.9625 C   0  0  0  0  0  0  0  0  0  0  0  0
  -23.8613  -22.1968   21.4522 C   0  0  0  0  0  0  0  0  0  0  0  0
  -29.4355  -25.3763   18.8065 C   0  0  0  0  0  0  0  0  0  0  0  0
  -25.1389  -30.2303   19.4391 C   0  0  0  0  0  0  0  0  0  0  0  0
  -24.0108  -30.5137   22.1579 C   0  0  0  0  0  0  0  0  0  0  0  0
  -29.4994  -26.3699   19.9637 C   0  0  0  0  0  0  0  0  0  0  0  0
  -26.9473  -21.5739   19.7891 C   0  0  0  0  0  0  0  0  0  0  0  0
  -28.3246  -26.1593   20.9136 C   0  0  0  0  0  0  0  0  0  0  0  0
  -26.8274  -20.1170   19.3361 C   0  0  0  0  0  0  0  0  0  0  0  0
  -26.2959  -21.7994   21.1524 C   0  0  0  0  0  0  0  0  0  0  0  0
  -24.7847  -19.8848   20.8061 C   0  0  0  0  0  0  0  0  0  0  0  0
  -26.9884  -26.3965   20.1996 C   0  0  1  0  0  0  0  0  0  0  0  0
  -25.9925  -30.0301   20.6877 C   0  0  1  0  0  0  0  0  0  0  0  0
  -25.3693  -19.6225   19.4085 C   0  0  2  0  0  0  0  0  0  0  0  0
  -25.0980  -36.1488   25.3529 C   0  0  0  0  0  0  0  0  0  0  0  0
  -19.0044  -25.9546   25.4082 C   0  0  0  0  0  0  0  0  0  0  0  0
  -21.4181  -26.5353   25.5297 C   0  0  0  0  0  0  0  0  0  0  0  0
  -20.7198  -24.1683   25.0893 C   0  0  0  0  0  0  0  0  0  0  0  0
  -26.2740  -29.6309   25.2835 C   0  0  0  0  0  0  0  0  0  0  0  0
  -25.7053  -31.6945   26.5823 C   0  0  0  0  0  0  0  0  0  0  0  0
  -27.8707  -31.5545   25.3519 C   0  0  0  0  0  0  0  0  0  0  0  0
  -24.0187  -35.8900   21.7137 C   0  0  0  0  0  0  0  0  0  0  0  0
  -18.9759  -25.9557   21.1335 C   0  0  0  0  0  0  0  0  0  0  0  0
  -18.0443  -27.1498   21.4022 C   0  0  0  0  0  0  0  0  0  0  0  0
  -20.3202  -25.9352   23.2787 C   0  0  0  0  0  0  0  0  0  0  0  0
  -18.9043  -28.6008   19.4577 C   0  0  0  0  0  0  0  0  0  1  0  0
  -19.3074  -25.1358   22.4117 C   0  0  2  0  0  0  0  0  0  0  0  0
  -25.7211  -31.8307   24.0500 C   0  0  1  0  0  0  0  0  0  0  0  0
  -25.0872  -35.5666   23.9480 C   0  0  2  0  0  0  0  0  0  0  0  0
  -17.6985  -27.9684   20.1490 C   0  0  2  0  0  0  0  0  0  0  0  0
  -20.3947  -25.6440   24.8086 C   0  0  0  0  0  0  0  0  0  0  0  0
  -26.3764  -31.1692   25.2952 C   0  0  0  0  0  0  0  0  0  0  0  0
  -25.3171  -17.2193   19.9590 N   0  0  0  0  0  0  0  0  0  0  0  0
  -21.1391  -23.5297   21.9217 N   0  0  0  0  0  0  0  0  0  0  0  0
  -25.2495  -18.1645   19.0061 N   0  0  0  0  0  0  0  0  0  0  0  0
  -25.4406  -30.7056   21.8639 N   0  0  0  0  0  0  0  0  0  0  0  0
  -24.9153  -21.3106   21.1447 N   0  0  0  0  0  0  0  0  0  0  0  0
  -24.9851  -18.4794   16.6734 N   0  0  0  0  0  0  0  0  0  0  0  0
  -17.6253  -22.5665   21.8786 N   0  0  0  0  0  0  0  0  0  0  0  0
  -24.8213  -13.9908   17.1440 N   0  0  0  0  0  0  0  0  0  0  0  0
  -22.5902  -21.6276   21.3811 N   0  0  0  0  0  0  0  0  0  0  0  0
  -26.7357  -27.8145   20.0582 N   0  0  0  0  0  0  0  0  0  0  0  0
  -25.8269  -33.2854   24.0210 N   0  0  0  0  0  0  0  0  0  0  0  0
  -24.1146  -36.3407   23.1260 N   0  3  0  0  0  0  0  0  0  0  0  0
  -24.7406  -15.7080   15.6263 O   0  0  0  0  0  0  0  0  0  0  0  0
  -25.7899  -28.1896   22.1527 O   0  0  0  0  0  0  0  0  0  0  0  0
  -27.5211  -31.5136   22.5381 O   0  0  0  0  0  0  0  0  0  0  0  0
  -23.5480  -33.7044   23.9294 O   0  0  0  0  0  0  0  0  0  0  0  0
  -24.0689  -23.3808   21.7296 O   0  0  0  0  0  0  0  0  0  0  0  0
  -16.7675  -28.9884   20.4981 O   0  0  0  0  0  0  0  0  0  0  0  0
  -25.2525  -11.1626   21.9242 O   0  0  0  0  0  0  0  0  0  0  0  0
  -19.5798  -29.4996   20.3225 O   0  0  0  0  0  0  0  0  0  1  0  0
  -21.4210   -7.4447   20.5455 F   0  0  0  0  0  0  0  0  0  0  0  0
  -25.0700  -10.2067   19.3366 F   0  0  0  0  0  0  0  0  0  0  0  0
  -19.9541  -21.2837   21.4381 S   0  0  0  0  0  0  0  0  0  0  0  0
  1  2  1  0  0  0  0
  1  5  2  0  0  0  0
  2  6  2  0  0  0  0
  3  8  2  0  0  0  0
  3 15  1  0  0  0  0
  4  9  1  0  0  0  0
  4 15  2  0  0  0  0
  5 17  1  0  0  0  0
  6 19  1  0  0  0  0
  7 10  2  0  0  0  0
  7 18  1  0  0  0  0
  8 21  1  0  0  0  0
  9 21  2  0  0  0  0
 10 22  1  0  0  0  0
 11 12  2  0  0  0  0
 11 23  1  0  0  0  0
 12 24  1  0  0  0  0
 13 20  1  0  0  0  0
 13 22  2  0  0  0  0
 14 24  2  0  0  0  0
 14 25  1  0  0  0  0
 15 26  1  0  0  0  0
 16 26  1  0  0  0  0
 16 28  2  0  0  0  0
 16 31  1  0  0  0  0
 17 19  2  0  0  0  0
 17 36  1  0  0  0  0
 18 20  2  0  0  0  0
 18 37  1  0  0  0  0
 19 45  1  0  0  0  0
 20 38  1  0  0  0  0
 21 84  1  0  0  0  0
 22 85  1  0  0  0  0
 23 25  2  0  0  0  0
 23 84  1  0  0  0  0
 24 86  1  0  0  0  0
 25 87  1  0  0  0  0
 26 66  2  0  0  0  0
 27 29  2  0  0  0  0
 27 60  1  0  0  0  0
 27 67  1  0  0  0  0
 28 68  1  0  0  0  0
 28 71  1  0  0  0  0
 29 72  1  0  0  0  0
 29 88  1  0  0  0  0
 30 67  2  0  0  0  0
 30 74  1  0  0  0  0
 30 88  1  0  0  0  0
 31 73  1  0  0  0  0
 31 78  2  0  0  0  0
 32 46  1  0  0  0  0
 32 75  1  0  0  0  0
 32 79  2  0  0  0  0
 33 61  1  0  0  0  0
 33 69  1  0  0  0  0
 33 80  2  0  0  0  0
 34 62  1  0  0  0  0
 34 76  1  0  0  0  0
 34 81  2  0  0  0  0
 35 70  1  0  0  0  0
 35 74  1  0  0  0  0
 35 82  2  0  0  0  0
 36 39  1  0  0  0  0
 37 46  1  0  0  0  0
 38 69  1  0  0  0  0
 39 41  1  0  0  0  0
 40 42  1  0  0  0  0
 40 43  1  0  0  0  0
 41 45  1  0  0  0  0
 42 47  1  0  0  0  0
 43 70  1  0  0  0  0
 44 47  1  0  0  0  0
 44 70  1  0  0  0  0
 45 75  1  0  0  0  0
 46 69  1  0  0  0  0
 47 68  1  0  0  0  0
 48 62  1  0  0  0  0
 49 64  1  0  0  0  0
 50 64  1  0  0  0  0
 51 64  1  0  0  0  0
 52 65  1  0  0  0  0
 53 65  1  0  0  0  0
 54 65  1  0  0  0  0
 55 77  1  0  0  0  0
 56 57  1  0  0  0  0
 56 60  1  0  0  0  0
 57 63  1  0  0  0  0
 58 60  1  0  0  0  0
 58 64  1  0  0  0  0
 59 63  1  0  0  0  0
 59 85  1  0  0  0  0
 61 65  1  0  0  0  0
 61 76  1  0  0  0  0
 62 77  1  0  0  0  0
 63 83  1  0  0  0  0
 66 68  1  0  0  0  0
M  CHG  1  77   1
M  ISO  4  35 100  59 101  74 100  85 101
M  END
> <Batch ID>
0189

> <Smiles>
CNC(C)C(=O)NC(C(=O)N1Cc2cc([101O:1][101CH2:1]C(O)CCC(CC(C)(C)C)c3nc([100NH:0][100C:0](=O)N4CCCC(n5nc(-c6ccc(Oc7ccc(F)cc7F)cc6)c(C(N)=O)c5N)C4)sc3N)ccc2CC1C(=O)NC1CCCc2ccccc21)C(C)(C)C

> <Shape>
0.269

> <Color>
0.068

> <Negative vol penalty>
0.000

$$$$

  -OEChem-04052305183D

 87 95  0     1  0  0  0  0  0999 V2000
  -17.0310  -31.2082   18.9400 C   0  0  0  0  0  0  0  0  0  0  0  0
  -18.0630  -30.3825   18.5057 C   0  0  0  0  0  0  0  0  0  0  0  0
  -24.1029   -8.8109   20.7945 C   0  0  0  0  0  0  0  0  0  0  0  0
  -23.1689  -11.0388   20.8255 C   0  0  0  0  0  0  0  0  0  0  0  0
  -17.3237  -32.4445   19.5144 C   0  0  0  0  0  0  0  0  0  0  0  0
  -19.3884  -30.7931   18.6446 C   0  0  0  0  0  0  0  0  0  0  0  0
  -24.2367  -27.2444   19.8307 C   0  0  0  0  0  0  0  0  0  0  0  0
  -23.1305   -8.3906   21.7019 C   0  0  0  0  0  0  0  0  0  0  0  0
  -22.1965  -10.6185   21.7329 C   0  0  0  0  0  0  0  0  0  0  0  0
  -25.2172  -26.6906   19.0088 C   0  0  0  0  0  0  0  0  0  0  0  0
  -19.2799   -8.9138   21.6441 C   0  0  0  0  0  0  0  0  0  0  0  0
  -17.9635   -9.3121   21.4118 C   0  0  0  0  0  0  0  0  0  0  0  0
  -26.6781  -28.5427   19.5137 C   0  0  0  0  0  0  0  0  0  0  0  0
  -17.9292  -10.4435   23.5463 C   0  0  0  0  0  0  0  0  0  0  0  0
  -24.1221  -10.1350   20.3563 C   0  0  0  0  0  0  0  0  0  0  0  0
  -25.0423  -10.5542   18.0142 C   0  0  0  0  0  0  0  0  0  0  0  0
  -18.6537  -32.8662   19.6692 C   0  0  0  0  0  0  0  0  0  0  0  0
  -24.4658  -28.4592   20.4928 C   0  0  0  0  0  0  0  0  0  0  0  0
  -19.6991  -32.0367   19.2204 C   0  0  0  0  0  0  0  0  0  0  0  0
  -25.6998  -29.1085   20.3455 C   0  0  0  0  0  0  0  0  0  0  0  0
  -22.1773   -9.2944   22.1711 C   0  0  0  0  0  0  0  0  0  0  0  0
  -26.4370  -27.3412   18.8479 C   0  0  0  0  0  0  0  0  0  0  0  0
  -19.9209   -9.2802   22.8276 C   0  0  0  0  0  0  0  0  0  0  0  0
  -17.2881  -10.0770   22.3628 C   0  0  0  0  0  0  0  0  0  0  0  0
  -19.2456  -10.0451   23.7786 C   0  0  0  0  0  0  0  0  0  0  0  0
  -25.1267  -10.5699   19.4194 C   0  0  0  0  0  0  0  0  0  0  0  0
  -29.8420  -19.1095   19.9854 C   0  0  0  0  0  0  0  0  0  0  0  0
  -28.4797  -19.3158   19.9265 C   0  0  0  0  0  0  0  0  0  0  0  0
  -26.2453  -11.0653   17.5923 C   0  0  0  0  0  0  0  0  0  0  0  0
  -29.1898  -17.0157   20.0153 C   0  0  0  0  0  0  0  0  0  0  0  0
  -23.9721  -10.1169   17.1663 C   0  0  0  0  0  0  0  0  0  0  0  0
  -23.1214  -31.3387   20.4259 C   0  0  0  0  0  0  0  0  0  0  0  0
  -25.1578  -31.9180   22.8835 C   0  0  0  0  0  0  0  0  0  0  0  0
  -28.6012  -22.6682   18.7833 C   0  0  0  0  0  0  0  0  0  0  0  0
  -28.0607  -31.1193   24.4905 C   0  0  0  0  0  0  0  0  0  0  0  0
  -30.2362  -14.7264   20.1171 C   0  0  0  0  0  0  0  0  0  0  0  0
  -18.9190  -34.2314   20.2527 C   0  0  0  0  0  0  0  0  0  0  0  0
  -23.4079  -29.0299   21.3970 C   0  0  0  0  0  0  0  0  0  0  0  0
  -26.0030  -30.4045   21.0503 C   0  0  0  0  0  0  0  0  0  0  0  0
  -20.3633  -34.4300   20.7055 C   0  0  0  0  0  0  0  0  0  0  0  0
  -30.8325  -11.4270   18.9190 C   0  0  0  0  0  0  0  0  0  0  0  0
  -21.3311  -33.9369   19.6345 C   0  0  0  0  0  0  0  0  0  0  0  0
  -29.4290  -10.8334   18.7777 C   0  0  0  0  0  0  0  0  0  0  0  0
  -30.9407  -12.3435   20.1364 C   0  0  0  0  0  0  0  0  0  0  0  0
  -28.5225  -12.8090   20.0671 C   0  0  0  0  0  0  0  0  0  0  0  0
  -21.1503  -32.4362   19.3765 C   0  0  1  0  0  0  0  0  0  0  0  0
  -23.5565  -30.5322   21.6167 C   0  0  1  0  0  0  0  0  0  0  0  0
  -28.3467  -11.9300   18.8180 C   0  0  2  0  0  0  0  0  0  0  0  0
  -31.4710  -20.3953   21.3925 C   0  0  0  0  0  0  0  0  0  0  0  0
  -30.3784  -23.0101   17.0760 C   0  0  0  0  0  0  0  0  0  0  0  0
  -29.4783  -31.7936   26.4483 C   0  0  0  0  0  0  0  0  0  0  0  0
  -26.1440  -34.3508   21.3283 C   0  0  0  0  0  0  0  0  0  0  0  0
  -28.1445  -34.4143   22.8324 C   0  0  0  0  0  0  0  0  0  0  0  0
  -25.8601  -34.7275   23.7843 C   0  0  0  0  0  0  0  0  0  0  0  0
  -27.7606  -20.7461   17.4081 C   0  0  0  0  0  0  0  0  0  0  0  0
  -27.7806  -28.4594   25.7576 C   0  0  0  0  0  0  0  0  0  0  0  0
  -30.8809  -20.1595   19.9985 C   0  0  0  0  0  0  0  0  0  0  0  0
  -27.6969  -20.5954   19.8631 C   0  0  0  0  0  0  0  0  0  0  0  0
  -28.8434  -24.9177   17.6172 C   0  0  0  0  0  0  0  0  0  0  0  0
  -27.4230  -25.3810   17.9305 C   0  0  0  0  0  0  0  0  0  1  0  0
  -26.5725  -32.4316   23.0013 C   0  0  1  0  0  0  0  0  0  0  0  0
  -28.9498  -23.3885   17.4744 C   0  0  2  0  0  0  0  0  0  0  0  0
  -28.3665  -30.8792   25.9579 C   0  0  2  0  0  0  0  0  0  0  0  0
  -26.6742  -33.9577   22.7216 C   0  0  0  0  0  0  0  0  0  0  0  0
  -26.2913  -11.0526   19.8606 N   0  0  0  0  0  0  0  0  0  0  0  0
  -30.2511  -17.7912   20.0368 N   0  0  0  0  0  0  0  0  0  0  0  0
  -26.9498  -11.3448   18.7261 N   0  0  0  0  0  0  0  0  0  0  0  0
  -24.9343  -30.9257   21.9185 N   0  0  0  0  0  0  0  0  0  0  0  0
  -29.8864  -13.3595   20.1048 N   0  0  0  0  0  0  0  0  0  0  0  0
  -26.7586  -11.2984   16.3656 N   0  0  0  0  0  0  0  0  0  0  0  0
  -22.8064   -9.6191   17.7644 N   0  0  0  0  0  0  0  0  0  0  0  0
  -29.1511  -15.5998   20.0511 N   0  0  0  0  0  0  0  0  0  0  0  0
  -21.7783  -31.6635   20.4268 N   0  0  0  0  0  0  0  0  0  0  0  0
  -27.0423  -32.0339   24.3240 N   0  0  0  0  0  0  0  0  0  0  0  0
  -28.0425  -21.3891   18.6895 N   0  0  0  0  0  0  0  0  0  0  0  0
  -28.7898  -29.4668   26.1744 N   0  3  0  0  0  0  0  0  0  0  0  0
  -24.0536  -10.1508   15.9150 O   0  0  0  0  0  0  0  0  0  0  0  0
  -23.9437  -31.6450   19.5705 O   0  0  0  0  0  0  0  0  0  0  0  0
  -24.2848  -32.3751   23.6254 O   0  0  0  0  0  0  0  0  0  0  0  0
  -28.8416  -23.2165   19.8644 O   0  0  0  0  0  0  0  0  0  0  0  0
  -28.6672  -30.5549   23.5826 O   0  0  0  0  0  0  0  0  0  0  0  0
  -31.4130  -15.0949   20.1540 O   0  0  0  0  0  0  0  0  0  0  0  0
  -21.2282   -8.8846   23.0564 O   0  0  0  0  0  0  0  0  0  0  0  0
  -27.3956  -26.8031   18.0457 O   0  0  0  0  0  0  0  0  0  1  0  0
  -16.0245  -10.4608   22.1389 F   0  0  0  0  0  0  0  0  0  0  0  0
  -19.8566  -10.4012   24.9169 F   0  0  0  0  0  0  0  0  0  0  0  0
  -27.6682  -17.8049   19.9331 S   0  0  0  0  0  0  0  0  0  0  0  0
  1  2  1  0  0  0  0
  1  5  2  0  0  0  0
  2  6  2  0  0  0  0
  3  8  2  0  0  0  0
  3 15  1  0  0  0  0
  4  9  1  0  0  0  0
  4 15  2  0  0  0  0
  5 17  1  0  0  0  0
  6 19  1  0  0  0  0
  7 10  2  0  0  0  0
  7 18  1  0  0  0  0
  8 21  1  0  0  0  0
  9 21  2  0  0  0  0
 10 22  1  0  0  0  0
 11 12  2  0  0  0  0
 11 23  1  0  0  0  0
 12 24  1  0  0  0  0
 13 20  1  0  0  0  0
 13 22  2  0  0  0  0
 14 24  2  0  0  0  0
 14 25  1  0  0  0  0
 15 26  1  0  0  0  0
 16 26  1  0  0  0  0
 16 29  2  0  0  0  0
 16 31  1  0  0  0  0
 17 19  2  0  0  0  0
 17 37  1  0  0  0  0
 18 20  2  0  0  0  0
 18 38  1  0  0  0  0
 19 46  1  0  0  0  0
 20 39  1  0  0  0  0
 21 83  1  0  0  0  0
 22 84  1  0  0  0  0
 23 25  2  0  0  0  0
 23 83  1  0  0  0  0
 24 85  1  0  0  0  0
 25 86  1  0  0  0  0
 26 65  2  0  0  0  0
 27 28  2  0  0  0  0
 27 57  1  0  0  0  0
 27 66  1  0  0  0  0
 28 58  1  0  0  0  0
 28 87  1  0  0  0  0
 29 67  1  0  0  0  0
 29 70  1  0  0  0  0
 30 66  2  0  0  0  0
 30 72  1  0  0  0  0
 30 87  1  0  0  0  0
 31 71  1  0  0  0  0
 31 77  2  0  0  0  0
 32 47  1  0  0  0  0
 32 73  1  0  0  0  0
 32 78  2  0  0  0  0
 33 61  1  0  0  0  0
 33 68  1  0  0  0  0
 33 79  2  0  0  0  0
 34 62  1  0  0  0  0
 34 75  1  0  0  0  0
 34 80  2  0  0  0  0
 35 63  1  0  0  0  0
 35 74  1  0  0  0  0
 35 81  2  0  0  0  0
 36 69  1  0  0  0  0
 36 72  1  0  0  0  0
 36 82  2  0  0  0  0
 37 40  1  0  0  0  0
 38 47  1  0  0  0  0
 39 68  1  0  0  0  0
 40 42  1  0  0  0  0
 41 43  1  0  0  0  0
 41 44  1  0  0  0  0
 42 46  1  0  0  0  0
 43 48  1  0  0  0  0
 44 69  1  0  0  0  0
 45 48  1  0  0  0  0
 45 69  1  0  0  0  0
 46 73  1  0  0  0  0
 47 68  1  0  0  0  0
 48 67  1  0  0  0  0
 49 57  1  0  0  0  0
 50 62  1  0  0  0  0
 51 63  1  0  0  0  0
 52 64  1  0  0  0  0
 53 64  1  0  0  0  0
 54 64  1  0  0  0  0
 55 75  1  0  0  0  0
 56 76  1  0  0  0  0
 58 75  1  0  0  0  0
 59 60  1  0  0  0  0
 59 62  1  0  0  0  0
 60 84  1  0  0  0  0
 61 64  1  0  0  0  0
 61 74  1  0  0  0  0
 63 76  1  0  0  0  0
 65 67  1  0  0  0  0
M  CHG  1  76   1
M  ISO  4  36 100  60 101  72 100  84 101
M  END
> <Batch ID>
0189

> <Smiles>
CCc1nc([100NH:0][100C:0](=O)N2CCCC(n3nc(-c4ccc(Oc5ccc(F)cc5F)cc4)c(C(N)=O)c3N)C2)sc1CN(C)C(=O)C(C)C[101CH2:1][101O:1]c1ccc2c(c1)CN(C(=O)C(NC(=O)C(C)NC)C(C)(C)C)C(C(=O)NC1CCCc3ccccc31)C2

> <Shape>
0.268

> <Color>
0.105

> <Negative vol penalty>
0.000

$$$$

  -OEChem-04052305183D

 87 95  0     1  0  0  0  0  0999 V2000
  -27.8692  -37.2203   24.3932 C   0  0  0  0  0  0  0  0  0  0  0  0
  -28.1688  -35.8622   24.3586 C   0  0  0  0  0  0  0  0  0  0  0  0
  -23.9558   -9.1396   21.9450 C   0  0  0  0  0  0  0  0  0  0  0  0
  -23.3134  -11.3994   22.5084 C   0  0  0  0  0  0  0  0  0  0  0  0
  -26.5423  -37.6423   24.3208 C   0  0  0  0  0  0  0  0  0  0  0  0
  -27.1415  -34.9252   24.2527 C   0  0  0  0  0  0  0  0  0  0  0  0
  -27.3273  -29.5797   21.2699 C   0  0  0  0  0  0  0  0  0  0  0  0
  -23.2662   -8.6653   23.0608 C   0  0  0  0  0  0  0  0  0  0  0  0
  -22.6237  -10.9252   23.6242 C   0  0  0  0  0  0  0  0  0  0  0  0
  -27.5433  -28.2718   21.7015 C   0  0  0  0  0  0  0  0  0  0  0  0
  -20.0600   -8.0190   23.9185 C   0  0  0  0  0  0  0  0  0  0  0  0
  -19.2474   -6.8980   23.7501 C   0  0  0  0  0  0  0  0  0  0  0  0
  -25.1592  -27.9205   21.8106 C   0  0  0  0  0  0  0  0  0  0  0  0
  -20.5576   -5.7019   25.3902 C   0  0  0  0  0  0  0  0  0  0  0  0
  -28.3187  -17.7905   20.8859 C   0  0  0  0  0  0  0  0  0  0  0  0
  -23.9794  -10.5066   21.6687 C   0  0  0  0  0  0  0  0  0  0  0  0
  -24.1841  -11.1773   19.2160 C   0  0  0  0  0  0  0  0  0  0  0  0
  -25.4989  -36.7105   24.2042 C   0  0  0  0  0  0  0  0  0  0  0  0
  -26.0235  -30.0722   21.1156 C   0  0  0  0  0  0  0  0  0  0  0  0
  -25.7993  -35.3351   24.1800 C   0  0  0  0  0  0  0  0  0  0  0  0
  -24.9294  -29.2343   21.3744 C   0  0  0  0  0  0  0  0  0  0  0  0
  -22.6002   -9.5581   23.9004 C   0  0  0  0  0  0  0  0  0  0  0  0
  -26.4592  -27.4428   21.9747 C   0  0  0  0  0  0  0  0  0  0  0  0
  -21.1215   -7.9815   24.8227 C   0  0  0  0  0  0  0  0  0  0  0  0
  -19.4961   -5.7394   24.4860 C   0  0  0  0  0  0  0  0  0  0  0  0
  -21.3703   -6.8230   25.5585 C   0  0  0  0  0  0  0  0  0  0  0  0
  -24.6920  -10.9972   20.5165 C   0  0  0  0  0  0  0  0  0  0  0  0
  -29.3945  -17.0221   20.4991 C   0  0  0  0  0  0  0  0  0  0  0  0
  -30.6842  -18.9046   20.3471 C   0  0  0  0  0  0  0  0  0  0  0  0
  -29.6081  -19.6729   20.7332 C   0  0  0  0  0  0  0  0  0  0  0  0
  -25.2489  -11.6605   18.4954 C   0  0  0  0  0  0  0  0  0  0  0  0
  -22.8675  -10.9299   18.7050 C   0  0  0  0  0  0  0  0  0  0  0  0
  -24.3396  -32.4179   22.4446 C   0  0  0  0  0  0  0  0  0  0  0  0
  -29.2492  -23.7238   19.9397 C   0  0  0  0  0  0  0  0  0  0  0  0
  -22.1425  -31.5807   20.2099 C   0  0  0  0  0  0  0  0  0  0  0  0
  -20.9018  -29.1825   18.1227 C   0  0  0  0  0  0  0  0  0  0  0  0
  -30.1773  -14.6762   20.0192 C   0  0  0  0  0  0  0  0  0  0  0  0
  -24.0770  -37.2125   24.1767 C   0  0  0  0  0  0  0  0  0  0  0  0
  -25.8074  -31.4770   20.6235 C   0  0  0  0  0  0  0  0  0  0  0  0
  -23.5099  -29.7084   21.2050 C   0  0  0  0  0  0  0  0  0  0  0  0
  -23.0729  -36.1715   23.6885 C   0  0  0  0  0  0  0  0  0  0  0  0
  -30.0339  -11.5369   18.3453 C   0  0  0  0  0  0  0  0  0  0  0  0
  -23.3186  -34.8306   24.3729 C   0  0  0  0  0  0  0  0  0  0  0  0
  -28.5997  -11.0615   18.5886 C   0  0  0  0  0  0  0  0  0  0  0  0
  -30.6015  -12.2714   19.5586 C   0  0  0  0  0  0  0  0  0  0  0  0
  -28.3387  -12.9000   20.3029 C   0  0  0  0  0  0  0  0  0  0  0  0
  -24.7144  -34.2893   24.0408 C   0  0  1  0  0  0  0  0  0  0  0  0
  -24.4373  -32.0361   20.9947 C   0  0  1  0  0  0  0  0  0  0  0  0
  -27.7014  -12.2114   19.0850 C   0  0  2  0  0  0  0  0  0  0  0  0
  -30.9800  -24.7280   18.3949 C   0  0  0  0  0  0  0  0  0  0  0  0
  -19.0771  -28.7814   16.4473 C   0  0  0  0  0  0  0  0  0  0  0  0
  -20.1213  -31.3095   22.4796 C   0  0  0  0  0  0  0  0  0  0  0  0
  -18.6458  -30.0232   20.9187 C   0  0  0  0  0  0  0  0  0  0  0  0
  -19.2280  -32.3952   20.4113 C   0  0  0  0  0  0  0  0  0  0  0  0
  -22.8479  -28.6679   15.9533 C   0  0  0  0  0  0  0  0  0  0  0  0
  -30.6537  -24.2895   19.8110 C   0  0  0  0  0  0  0  0  0  0  0  0
  -27.6192  -24.0121   21.8375 C   0  0  0  0  0  0  0  0  0  0  0  0
  -27.8543  -25.5171   21.9429 C   0  0  0  0  0  0  0  0  0  1  0  0
  -28.5426  -21.7329   21.2595 C   0  0  0  0  0  0  0  0  0  0  0  0
  -28.8442  -23.2320   21.3306 C   0  0  1  0  0  0  0  0  0  0  0  0
  -20.9931  -30.6035   20.1542 C   0  0  1  0  0  0  0  0  0  0  0  0
  -20.5166  -29.2258   16.6550 C   0  0  2  0  0  0  0  0  0  0  0  0
  -19.7737  -31.0742   20.9961 C   0  0  0  0  0  0  0  0  0  0  0  0
  -28.4061  -19.1297   21.0099 N   0  0  0  0  0  0  0  0  0  0  0  0
  -25.9794  -11.3381   20.6191 N   0  0  0  0  0  0  0  0  0  0  0  0
  -30.5967  -17.5654   20.2228 N   0  0  0  0  0  0  0  0  0  0  0  0
  -26.2894  -11.7372   19.3738 N   0  0  0  0  0  0  0  0  0  0  0  0
  -23.3503  -31.0919   20.7276 N   0  0  0  0  0  0  0  0  0  0  0  0
  -29.6995  -13.3495   19.9697 N   0  0  0  0  0  0  0  0  0  0  0  0
  -31.9172  -19.5379   20.0723 N   0  0  0  0  0  0  0  0  0  0  0  0
  -25.3873  -12.0230   17.2024 N   0  0  0  0  0  0  0  0  0  0  0  0
  -21.8930  -10.4336   19.5815 N   0  0  0  0  0  0  0  0  0  0  0  0
  -29.2208  -15.6199   20.3921 N   0  0  0  0  0  0  0  0  0  0  0  0
  -24.7312  -33.7158   22.7122 N   0  0  0  0  0  0  0  0  0  0  0  0
  -20.6995  -30.3988   18.7399 N   0  0  0  0  0  0  0  0  0  0  0  0
  -21.4041  -28.3307   15.8600 N   0  3  0  0  0  0  0  0  0  0  0  0
  -22.5687  -11.1272   17.5028 O   0  0  0  0  0  0  0  0  0  0  0  0
  -23.9374  -31.5962   23.2600 O   0  0  0  0  0  0  0  0  0  0  0  0
  -28.4776  -23.6540   18.9830 O   0  0  0  0  0  0  0  0  0  0  0  0
  -21.9768  -32.7331   19.8023 O   0  0  0  0  0  0  0  0  0  0  0  0
  -21.3349  -28.1699   18.6681 O   0  0  0  0  0  0  0  0  0  0  0  0
  -31.3415  -14.9581   19.7242 O   0  0  0  0  0  0  0  0  0  0  0  0
  -21.9270   -9.0956   24.9893 O   0  0  0  0  0  0  0  0  0  0  0  0
  -26.6672  -26.1659   22.3968 O   0  0  0  0  0  0  0  0  0  1  0  0
  -29.7136  -21.0332   20.8544 O   0  0  0  0  0  0  0  0  0  0  0  0
  -18.7147   -4.6634   24.3253 F   0  0  0  0  0  0  0  0  0  0  0  0
  -22.3879   -6.7814   26.4295 F   0  0  0  0  0  0  0  0  0  0  0  0
  1  2  1  0  0  0  0
  1  5  2  0  0  0  0
  2  6  2  0  0  0  0
  3  8  2  0  0  0  0
  3 16  1  0  0  0  0
  4  9  1  0  0  0  0
  4 16  2  0  0  0  0
  5 18  1  0  0  0  0
  6 20  1  0  0  0  0
  7 10  2  0  0  0  0
  7 19  1  0  0  0  0
  8 22  1  0  0  0  0
  9 22  2  0  0  0  0
 10 23  1  0  0  0  0
 11 12  2  0  0  0  0
 11 24  1  0  0  0  0
 12 25  1  0  0  0  0
 13 21  1  0  0  0  0
 13 23  2  0  0  0  0
 14 25  2  0  0  0  0
 14 26  1  0  0  0  0
 15 28  1  0  0  0  0
 15 64  2  0  0  0  0
 16 27  1  0  0  0  0
 17 27  1  0  0  0  0
 17 31  2  0  0  0  0
 17 32  1  0  0  0  0
 18 20  2  0  0  0  0
 18 38  1  0  0  0  0
 19 21  2  0  0  0  0
 19 39  1  0  0  0  0
 20 47  1  0  0  0  0
 21 40  1  0  0  0  0
 22 83  1  0  0  0  0
 23 84  1  0  0  0  0
 24 26  2  0  0  0  0
 24 83  1  0  0  0  0
 25 86  1  0  0  0  0
 26 87  1  0  0  0  0
 27 65  2  0  0  0  0
 28 66  2  0  0  0  0
 28 73  1  0  0  0  0
 29 30  2  0  0  0  0
 29 66  1  0  0  0  0
 29 70  1  0  0  0  0
 30 64  1  0  0  0  0
 30 85  1  0  0  0  0
 31 67  1  0  0  0  0
 31 71  1  0  0  0  0
 32 72  1  0  0  0  0
 32 77  2  0  0  0  0
 33 48  1  0  0  0  0
 33 74  1  0  0  0  0
 33 78  2  0  0  0  0
 34 56  1  0  0  0  0
 34 60  1  0  0  0  0
 34 79  2  0  0  0  0
 35 61  1  0  0  0  0
 35 68  1  0  0  0  0
 35 80  2  0  0  0  0
 36 62  1  0  0  0  0
 36 75  1  0  0  0  0
 36 81  2  0  0  0  0
 37 69  1  0  0  0  0
 37 73  1  0  0  0  0
 37 82  2  0  0  0  0
 38 41  1  0  0  0  0
 39 48  1  0  0  0  0
 40 68  1  0  0  0  0
 41 43  1  0  0  0  0
 42 44  1  0  0  0  0
 42 45  1  0  0  0  0
 43 47  1  0  0  0  0
 44 49  1  0  0  0  0
 45 69  1  0  0  0  0
 46 49  1  0  0  0  0
 46 69  1  0  0  0  0
 47 74  1  0  0  0  0
 48 68  1  0  0  0  0
 49 67  1  0  0  0  0
 50 56  1  0  0  0  0
 51 62  1  0  0  0  0
 52 63  1  0  0  0  0
 53 63  1  0  0  0  0
 54 63  1  0  0  0  0
 55 76  1  0  0  0  0
 57 58  1  0  0  0  0
 57 60  1  0  0  0  0
 58 84  1  0  0  0  0
 59 60  1  0  0  0  0
 59 85  1  0  0  0  0
 61 63  1  0  0  0  0
 61 75  1  0  0  0  0
 62 76  1  0  0  0  0
 65 67  1  0  0  0  0
M  CHG  1  76   1
M  ISO  4  37 100  58 101  73 100  84 101
M  END
> <Batch ID>
0189

> <Smiles>
CCC(=O)C(COc1ncc([100NH:0][100C:0](=O)N2CCCC(n3nc(-c4ccc(Oc5ccc(F)cc5F)cc4)c(C(N)=O)c3N)C2)nc1N)C[101CH2:1][101O:1]c1ccc2c(c1)CN(C(=O)C(NC(=O)C(C)NC)C(C)(C)C)C(C(=O)NC1CCCc3ccccc31)C2

> <Shape>
0.296

> <Color>
0.098

> <Negative vol penalty>
0.000

$$$$

  -OEChem-04052305183D

 87 95  0     1  0  0  0  0  0999 V2000
  -35.0886  -28.9173   15.0508 C   0  0  0  0  0  0  0  0  0  0  0  0
  -35.2996  -27.8279   15.8899 C   0  0  0  0  0  0  0  0  0  0  0  0
  -23.2029   -9.8727   19.8603 C   0  0  0  0  0  0  0  0  0  0  0  0
  -23.6562   -9.9110   22.2331 C   0  0  0  0  0  0  0  0  0  0  0  0
  -33.8430  -29.5430   15.0223 C   0  0  0  0  0  0  0  0  0  0  0  0
  -34.2652  -27.3642   16.7020 C   0  0  0  0  0  0  0  0  0  0  0  0
  -33.1464  -21.5537   18.2805 C   0  0  0  0  0  0  0  0  0  0  0  0
  -22.4532   -8.7077   20.0223 C   0  0  0  0  0  0  0  0  0  0  0  0
  -22.9065   -8.7460   22.3951 C   0  0  0  0  0  0  0  0  0  0  0  0
  -33.4489  -20.8178   19.4254 C   0  0  0  0  0  0  0  0  0  0  0  0
  -23.3264   -5.4260   21.9132 C   0  0  0  0  0  0  0  0  0  0  0  0
  -23.8607   -4.4178   22.7154 C   0  0  0  0  0  0  0  0  0  0  0  0
  -31.2509  -21.2881   20.3011 C   0  0  0  0  0  0  0  0  0  0  0  0
  -21.9480   -4.5721   24.1833 C   0  0  0  0  0  0  0  0  0  0  0  0
  -31.4891  -14.8235   25.4765 C   0  0  0  0  0  0  0  0  0  0  0  0
  -23.8045  -10.4744   20.9657 C   0  0  0  0  0  0  0  0  0  0  0  0
  -24.1144  -13.0045   20.8665 C   0  0  0  0  0  0  0  0  0  0  0  0
  -32.7899  -29.0807   15.8273 C   0  0  0  0  0  0  0  0  0  0  0  0
  -31.8956  -22.1724   18.1419 C   0  0  0  0  0  0  0  0  0  0  0  0
  -33.0047  -27.9851   16.6853 C   0  0  0  0  0  0  0  0  0  0  0  0
  -30.9341  -22.0291   19.1524 C   0  0  0  0  0  0  0  0  0  0  0  0
  -22.3050   -8.1443   21.2897 C   0  0  0  0  0  0  0  0  0  0  0  0
  -32.5022  -20.6873   20.4372 C   0  0  0  0  0  0  0  0  0  0  0  0
  -22.1028   -6.0073   22.2460 C   0  0  0  0  0  0  0  0  0  0  0  0
  -23.1715   -3.9908   23.8505 C   0  0  0  0  0  0  0  0  0  0  0  0
  -21.4137   -5.5803   23.3811 C   0  0  0  0  0  0  0  0  0  0  0  0
  -24.5795  -11.6775   20.7989 C   0  0  0  0  0  0  0  0  0  0  0  0
  -31.7579  -14.3078   24.2259 C   0  0  0  0  0  0  0  0  0  0  0  0
  -25.2313  -13.7717   20.6416 C   0  0  0  0  0  0  0  0  0  0  0  0
  -32.1982  -16.4166   23.8147 C   0  0  0  0  0  0  0  0  0  0  0  0
  -22.7912  -13.4995   21.1108 C   0  0  0  0  0  0  0  0  0  0  0  0
  -30.9000  -25.1759   17.8391 C   0  0  0  0  0  0  0  0  0  0  0  0
  -31.7021  -17.4340   20.8863 C   0  0  0  0  0  0  0  0  0  0  0  0
  -28.0141  -23.7634   17.3934 C   0  0  0  0  0  0  0  0  0  0  0  0
  -26.0086  -21.0484   17.8972 C   0  0  0  0  0  0  0  0  0  0  0  0
  -31.0842  -12.7799   21.4234 C   0  0  0  0  0  0  0  0  0  0  0  0
  -31.4751  -29.8189   15.7972 C   0  0  0  0  0  0  0  0  0  0  0  0
  -31.5752  -22.9404   16.8890 C   0  0  0  0  0  0  0  0  0  0  0  0
  -29.5693  -22.6568   19.0432 C   0  0  0  0  0  0  0  0  0  0  0  0
  -30.3206  -29.0321   16.4124 C   0  0  0  0  0  0  0  0  0  0  0  0
  -29.4507  -13.6722   18.3883 C   0  0  0  0  0  0  0  0  0  0  0  0
  -30.7404  -28.4236   17.7467 C   0  0  0  0  0  0  0  0  0  0  0  0
  -27.9751  -13.3819   18.6680 C   0  0  0  0  0  0  0  0  0  0  0  0
  -30.3641  -12.6472   19.0569 C   0  0  0  0  0  0  0  0  0  0  0  0
  -28.6691  -12.1834   20.7847 C   0  0  0  0  0  0  0  0  0  0  0  0
  -31.9001  -27.4373   17.5627 C   0  0  1  0  0  0  0  0  0  0  0  0
  -30.4543  -23.9572   17.0815 C   0  0  1  0  0  0  0  0  0  0  0  0
  -27.7113  -13.2226   20.1774 C   0  0  2  0  0  0  0  0  0  0  0  0
  -31.8544  -16.6778   19.5900 C   0  0  0  0  0  0  0  0  0  0  0  0
  -37.2539  -18.2036   23.0144 C   0  0  0  0  0  0  0  0  0  0  0  0
  -23.6888  -20.2026   17.4489 C   0  0  0  0  0  0  0  0  0  0  0  0
  -35.6119  -20.5022   21.8935 C   0  0  0  0  0  0  0  0  0  0  0  0
  -26.9342  -25.5551   19.6145 C   0  0  0  0  0  0  0  0  0  0  0  0
  -24.9447  -24.0433   19.7714 C   0  0  0  0  0  0  0  0  0  0  0  0
  -25.4028  -25.2835   17.6560 C   0  0  0  0  0  0  0  0  0  0  0  0
  -27.0222  -18.7707   16.3024 C   0  0  0  0  0  0  0  0  0  0  0  0
  -31.6500  -12.8875   23.8374 C   0  0  0  0  0  0  0  0  0  0  0  0
  -35.9969  -18.0044   22.1771 C   0  0  0  0  0  0  0  0  0  0  0  0
  -32.9550  -17.5888   21.7461 C   0  0  1  0  0  0  0  0  0  0  0  0
  -26.8822  -23.3358   18.2962 C   0  0  1  0  0  0  0  0  0  0  0  0
  -25.1238  -20.2598   16.9486 C   0  0  2  0  0  0  0  0  0  0  0  0
  -34.9746  -19.1570   22.2802 C   0  0  2  0  0  0  0  0  0  0  0  0
  -33.7121  -18.8864   21.4112 C   0  0  2  0  0  0  0  0  0  1  0  0
  -26.0673  -24.5441   18.8378 C   0  0  0  0  0  0  0  0  0  0  0  0
  -25.8897  -11.6024   20.5503 N   0  0  0  0  0  0  0  0  0  0  0  0
  -32.1642  -15.2199   23.2716 N   0  0  0  0  0  0  0  0  0  0  0  0
  -26.2574  -12.8918   20.4597 N   0  0  0  0  0  0  0  0  0  0  0  0
  -29.3060  -23.4030   17.8017 N   0  0  0  0  0  0  0  0  0  0  0  0
  -30.0637  -12.5455   20.4871 N   0  0  0  0  0  0  0  0  0  0  0  0
  -25.4259  -15.1063   20.5836 N   0  0  0  0  0  0  0  0  0  0  0  0
  -21.7600  -12.5740   21.3220 N   0  0  0  0  0  0  0  0  0  0  0  0
  -32.5629  -17.5678   23.1406 N   0  0  0  0  0  0  0  0  0  0  0  0
  -31.4147  -26.1784   17.0394 N   0  0  0  0  0  0  0  0  0  0  0  0
  -26.0919  -22.3758   17.5332 N   0  0  0  0  0  0  0  0  0  0  0  0
  -30.7131  -12.6692   22.7579 N   0  0  0  0  0  0  0  0  0  0  0  0
  -25.6287  -18.8646   16.8088 N   0  3  0  0  0  0  0  0  0  0  0  0
  -22.5277  -14.7258   21.1247 O   0  0  0  0  0  0  0  0  0  0  0  0
  -30.7841  -25.2051   19.0587 O   0  0  0  0  0  0  0  0  0  0  0  0
  -30.6137  -17.9128   21.2069 O   0  0  0  0  0  0  0  0  0  0  0  0
  -27.7606  -24.3877   16.3601 O   0  0  0  0  0  0  0  0  0  0  0  0
  -26.5667  -20.5388   18.8664 O   0  0  0  0  0  0  0  0  0  0  0  0
  -32.2390  -13.0718   21.0946 O   0  0  0  0  0  0  0  0  0  0  0  0
  -21.5733   -7.0076   21.4481 O   0  0  0  0  0  0  0  0  0  0  0  0
  -32.7952  -19.9702   21.5560 O   0  0  0  0  0  0  0  0  0  1  0  0
  -23.6840   -3.0215   24.6199 F   0  0  0  0  0  0  0  0  0  0  0  0
  -20.2373   -6.1342   23.7053 F   0  0  0  0  0  0  0  0  0  0  0  0
  -31.7544  -16.5179   25.4693 S   0  0  0  0  0  0  0  0  0  0  0  0
  1  2  1  0  0  0  0
  1  5  2  0  0  0  0
  2  6  2  0  0  0  0
  3  8  2  0  0  0  0
  3 16  1  0  0  0  0
  4  9  1  0  0  0  0
  4 16  2  0  0  0  0
  5 18  1  0  0  0  0
  6 20  1  0  0  0  0
  7 10  2  0  0  0  0
  7 19  1  0  0  0  0
  8 22  1  0  0  0  0
  9 22  2  0  0  0  0
 10 23  1  0  0  0  0
 11 12  2  0  0  0  0
 11 24  1  0  0  0  0
 12 25  1  0  0  0  0
 13 21  1  0  0  0  0
 13 23  2  0  0  0  0
 14 25  2  0  0  0  0
 14 26  1  0  0  0  0
 15 28  2  0  0  0  0
 15 87  1  0  0  0  0
 16 27  1  0  0  0  0
 17 27  1  0  0  0  0
 17 29  2  0  0  0  0
 17 31  1  0  0  0  0
 18 20  2  0  0  0  0
 18 37  1  0  0  0  0
 19 21  2  0  0  0  0
 19 38  1  0  0  0  0
 20 46  1  0  0  0  0
 21 39  1  0  0  0  0
 22 83  1  0  0  0  0
 23 84  1  0  0  0  0
 24 26  2  0  0  0  0
 24 83  1  0  0  0  0
 25 85  1  0  0  0  0
 26 86  1  0  0  0  0
 27 65  2  0  0  0  0
 28 57  1  0  0  0  0
 28 66  1  0  0  0  0
 29 67  1  0  0  0  0
 29 70  1  0  0  0  0
 30 66  2  0  0  0  0
 30 72  1  0  0  0  0
 30 87  1  0  0  0  0
 31 71  1  0  0  0  0
 31 77  2  0  0  0  0
 32 47  1  0  0  0  0
 32 73  1  0  0  0  0
 32 78  2  0  0  0  0
 33 49  1  0  0  0  0
 33 59  1  0  0  0  0
 33 79  2  0  0  0  0
 34 60  1  0  0  0  0
 34 68  1  0  0  0  0
 34 80  2  0  0  0  0
 35 61  1  0  0  0  0
 35 74  1  0  0  0  0
 35 81  2  0  0  0  0
 36 69  1  0  0  0  0
 36 75  1  0  0  0  0
 36 82  2  0  0  0  0
 37 40  1  0  0  0  0
 38 47  1  0  0  0  0
 39 68  1  0  0  0  0
 40 42  1  0  0  0  0
 41 43  1  0  0  0  0
 41 44  1  0  0  0  0
 42 46  1  0  0  0  0
 43 48  1  0  0  0  0
 44 69  1  0  0  0  0
 45 48  1  0  0  0  0
 45 69  1  0  0  0  0
 46 73  1  0  0  0  0
 47 68  1  0  0  0  0
 48 67  1  0  0  0  0
 50 58  1  0  0  0  0
 51 61  1  0  0  0  0
 52 62  1  0  0  0  0
 53 64  1  0  0  0  0
 54 64  1  0  0  0  0
 55 64  1  0  0  0  0
 56 76  1  0  0  0  0
 57 75  1  0  0  0  0
 58 62  1  0  0  0  0
 59 63  1  0  0  0  0
 59 72  1  0  0  0  0
 60 64  1  0  0  0  0
 60 74  1  0  0  0  0
 61 76  1  0  0  0  0
 62 63  1  0  0  0  0
 63 84  1  0  0  0  0
 65 67  1  0  0  0  0
M  CHG  1  76   1
M  ISO  4  36 100  63 101  75 100  84 101
M  END
> <Batch ID>
0189

> <Smiles>
CCC(C)[101CH:1](C(Nc1nc(C[100NH:0][100C:0](=O)N2CCCC(n3nc(-c4ccc(Oc5ccc(F)cc5F)cc4)c(C(N)=O)c3N)C2)cs1)C(C)=O)[101O:1]c1ccc2c(c1)CN(C(=O)C(NC(=O)C(C)NC)C(C)(C)C)C(C(=O)NC1CCCc3ccccc31)C2

> <Shape>
0.211

> <Color>
0.191

> <Negative vol penalty>
0.000

$$$$

  -OEChem-04052305183D

 87 95  0     1  0  0  0  0  0999 V2000
  -17.5496  -30.0981   24.2674 C   0  0  0  0  0  0  0  0  0  0  0  0
  -18.9392  -30.0404   24.3022 C   0  0  0  0  0  0  0  0  0  0  0  0
  -27.6292  -14.7146   19.5326 C   0  0  0  0  0  0  0  0  0  0  0  0
  -25.8690  -15.3407   21.0645 C   0  0  0  0  0  0  0  0  0  0  0  0
  -16.8378  -29.2333   23.4371 C   0  0  0  0  0  0  0  0  0  0  0  0
  -19.6177  -29.1170   23.5076 C   0  0  0  0  0  0  0  0  0  0  0  0
  -23.6152  -31.1470   21.1530 C   0  0  0  0  0  0  0  0  0  0  0  0
  -27.2747  -13.3729   19.6736 C   0  0  0  0  0  0  0  0  0  0  0  0
  -25.5145  -13.9991   21.2056 C   0  0  0  0  0  0  0  0  0  0  0  0
  -24.7715  -31.3353   21.9089 C   0  0  0  0  0  0  0  0  0  0  0  0
  -23.7805  -11.6855   19.4559 C   0  0  0  0  0  0  0  0  0  0  0  0
  -22.4236  -11.3664   19.4045 C   0  0  0  0  0  0  0  0  0  0  0  0
  -25.7072  -29.3206   20.9682 C   0  0  0  0  0  0  0  0  0  0  0  0
  -22.5539  -10.4526   21.6372 C   0  0  0  0  0  0  0  0  0  0  0  0
  -26.9264  -15.6985   20.2281 C   0  0  0  0  0  0  0  0  0  0  0  0
  -26.7949  -18.0009   19.1374 C   0  0  0  0  0  0  0  0  0  0  0  0
  -17.5083  -28.3055   22.6247 C   0  0  0  0  0  0  0  0  0  0  0  0
  -23.4916  -30.0365   20.3058 C   0  0  0  0  0  0  0  0  0  0  0  0
  -18.9141  -28.2381   22.6667 C   0  0  0  0  0  0  0  0  0  0  0  0
  -24.5493  -29.1220   20.2007 C   0  0  0  0  0  0  0  0  0  0  0  0
  -26.2173  -13.0152   20.5101 C   0  0  0  0  0  0  0  0  0  0  0  0
  -25.8165  -30.4205   21.8188 C   0  0  0  0  0  0  0  0  0  0  0  0
  -24.5241  -11.3880   20.5980 C   0  0  0  0  0  0  0  0  0  0  0  0
  -21.8103  -10.7500   20.4952 C   0  0  0  0  0  0  0  0  0  0  0  0
  -23.9108  -10.7716   21.6886 C   0  0  0  0  0  0  0  0  0  0  0  0
  -27.2925  -17.0845   20.0833 C   0  0  0  0  0  0  0  0  0  0  0  0
  -26.5969  -23.7753   24.9394 C   0  0  0  0  0  0  0  0  0  0  0  0
  -27.7779  -23.4126   25.5525 C   0  0  0  0  0  0  0  0  0  0  0  0
  -27.4534  -19.1735   19.4161 C   0  0  0  0  0  0  0  0  0  0  0  0
  -27.5185  -25.7604   25.0805 C   0  0  0  0  0  0  0  0  0  0  0  0
  -25.8242  -17.8091   18.0998 C   0  0  0  0  0  0  0  0  0  0  0  0
  -21.5280  -27.5418   20.1496 C   0  0  0  0  0  0  0  0  0  0  0  0
  -23.1298  -26.9482   17.3921 C   0  0  0  0  0  0  0  0  0  0  0  0
  -26.9632  -28.1387   24.4641 C   0  0  0  0  0  0  0  0  0  0  0  0
  -25.9716  -27.3563   15.5469 C   0  0  0  0  0  0  0  0  0  0  0  0
  -30.0054  -21.3362   24.3821 C   0  0  0  0  0  0  0  0  0  0  0  0
  -16.6937  -27.3591   21.7788 C   0  0  0  0  0  0  0  0  0  0  0  0
  -22.2487  -29.8621   19.4769 C   0  0  0  0  0  0  0  0  0  0  0  0
  -24.4746  -27.9242   19.2906 C   0  0  0  0  0  0  0  0  0  0  0  0
  -17.5053  -26.6645   20.6883 C   0  0  0  0  0  0  0  0  0  0  0  0
  -31.5658  -20.8204   21.2237 C   0  0  0  0  0  0  0  0  0  0  0  0
  -18.8153  -26.1288   21.2572 C   0  0  0  0  0  0  0  0  0  0  0  0
  -30.6026  -19.8871   20.4879 C   0  0  0  0  0  0  0  0  0  0  0  0
  -31.6348  -20.4985   22.7149 C   0  0  0  0  0  0  0  0  0  0  0  0
  -29.3674  -19.5340   22.6670 C   0  0  0  0  0  0  0  0  0  0  0  0
  -19.6871  -27.2671   21.8009 C   0  0  1  0  0  0  0  0  0  0  0  0
  -22.0227  -28.4195   19.0350 C   0  0  1  0  0  0  0  0  0  0  0  0
  -29.2216  -19.8558   21.1698 C   0  0  2  0  0  0  0  0  0  0  0  0
  -27.0001  -26.7225   13.3474 C   0  0  0  0  0  0  0  0  0  0  0  0
  -27.2627  -31.9927   24.4806 C   0  0  0  0  0  0  0  0  0  0  0  0
  -23.6681  -24.1396   18.4558 C   0  0  0  0  0  0  0  0  0  0  0  0
  -25.4460  -23.8945   16.7102 C   0  0  0  0  0  0  0  0  0  0  0  0
  -23.0711  -24.2394   16.0293 C   0  0  0  0  0  0  0  0  0  0  0  0
  -26.1971  -30.1848   14.7054 C   0  0  0  0  0  0  0  0  0  0  0  0
  -28.2591  -22.0836   25.9794 C   0  0  0  0  0  0  0  0  0  0  0  0
  -27.6328  -29.5047   24.5783 C   0  0  0  0  0  0  0  0  0  0  0  0
  -24.3686  -26.1690   17.0218 C   0  0  1  0  0  0  0  0  0  0  0  0
  -26.1831  -27.7617   14.0993 C   0  0  2  0  0  0  0  0  0  0  0  0
  -26.7972  -30.6337   23.9749 C   0  0  2  0  0  0  0  0  0  1  0  0
  -25.5002  -22.8631   24.5560 C   0  0  0  0  0  0  0  0  0  0  0  0
  -24.1394  -24.6321   17.0730 C   0  0  0  0  0  0  0  0  0  0  0  0
  -28.1973  -17.6283   20.9015 N   0  0  0  0  0  0  0  0  0  0  0  0
  -26.4462  -25.1213   24.6684 N   0  0  0  0  0  0  0  0  0  0  0  0
  -28.2737  -18.8990   20.4706 N   0  0  0  0  0  0  0  0  0  0  0  0
  -23.2361  -27.7939   18.5053 N   0  0  0  0  0  0  0  0  0  0  0  0
  -30.2926  -20.4860   23.3015 N   0  0  0  0  0  0  0  0  0  0  0  0
  -27.4051  -20.4024   18.8594 N   0  0  0  0  0  0  0  0  0  0  0  0
  -25.2457  -16.5412   17.9521 N   0  0  0  0  0  0  0  0  0  0  0  0
  -27.7828  -27.1483   24.9991 N   0  0  0  0  0  0  0  0  0  0  0  0
  -20.3407  -27.9660   20.7151 N   0  0  0  0  0  0  0  0  0  0  0  0
  -24.7894  -26.6673   15.7167 N   0  0  0  0  0  0  0  0  0  0  0  0
  -28.7078  -21.2662   24.8743 N   0  0  0  0  0  0  0  0  0  0  0  0
  -26.9001  -29.0661   14.0262 N   0  3  0  0  0  0  0  0  0  0  0  0
  -25.4922  -18.7305   17.3160 O   0  0  0  0  0  0  0  0  0  0  0  0
  -22.1748  -26.5520   20.4718 O   0  0  0  0  0  0  0  0  0  0  0  0
  -22.1077  -26.8170   16.7141 O   0  0  0  0  0  0  0  0  0  0  0  0
  -25.8541  -27.9946   23.9609 O   0  0  0  0  0  0  0  0  0  0  0  0
  -26.7765  -27.6210   16.4372 O   0  0  0  0  0  0  0  0  0  0  0  0
  -30.8417  -22.1048   24.8686 O   0  0  0  0  0  0  0  0  0  0  0  0
  -25.8710  -11.7061   20.6477 O   0  0  0  0  0  0  0  0  0  0  0  0
  -26.9459  -30.6014   22.5560 O   0  0  0  0  0  0  0  0  0  1  0  0
  -20.5069  -10.4451   20.4462 F   0  0  0  0  0  0  0  0  0  0  0  0
  -24.6198  -10.4844   22.7889 F   0  0  0  0  0  0  0  0  0  0  0  0
  -25.7321  -21.5461   24.8618 F   0  0  0  0  0  0  0  0  0  0  0  0
  -24.2989  -23.1475   25.1540 F   0  0  0  0  0  0  0  0  0  0  0  0
  -25.2363  -22.8722   23.2113 F   0  0  0  0  0  0  0  0  0  0  0  0
  -28.7475  -24.8049   25.8027 S   0  0  0  0  0  0  0  0  0  0  0  0
  1  2  1  0  0  0  0
  1  5  2  0  0  0  0
  2  6  2  0  0  0  0
  3  8  2  0  0  0  0
  3 15  1  0  0  0  0
  4  9  1  0  0  0  0
  4 15  2  0  0  0  0
  5 17  1  0  0  0  0
  6 19  1  0  0  0  0
  7 10  2  0  0  0  0
  7 18  1  0  0  0  0
  8 21  1  0  0  0  0
  9 21  2  0  0  0  0
 10 22  1  0  0  0  0
 11 12  2  0  0  0  0
 11 23  1  0  0  0  0
 12 24  1  0  0  0  0
 13 20  1  0  0  0  0
 13 22  2  0  0  0  0
 14 24  2  0  0  0  0
 14 25  1  0  0  0  0
 15 26  1  0  0  0  0
 16 26  1  0  0  0  0
 16 29  2  0  0  0  0
 16 31  1  0  0  0  0
 17 19  2  0  0  0  0
 17 37  1  0  0  0  0
 18 20  2  0  0  0  0
 18 38  1  0  0  0  0
 19 46  1  0  0  0  0
 20 39  1  0  0  0  0
 21 80  1  0  0  0  0
 22 81  1  0  0  0  0
 23 25  2  0  0  0  0
 23 80  1  0  0  0  0
 24 82  1  0  0  0  0
 25 83  1  0  0  0  0
 26 62  2  0  0  0  0
 27 28  2  0  0  0  0
 27 60  1  0  0  0  0
 27 63  1  0  0  0  0
 28 55  1  0  0  0  0
 28 87  1  0  0  0  0
 29 64  1  0  0  0  0
 29 67  1  0  0  0  0
 30 63  2  0  0  0  0
 30 69  1  0  0  0  0
 30 87  1  0  0  0  0
 31 68  1  0  0  0  0
 31 74  2  0  0  0  0
 32 47  1  0  0  0  0
 32 70  1  0  0  0  0
 32 75  2  0  0  0  0
 33 57  1  0  0  0  0
 33 65  1  0  0  0  0
 33 76  2  0  0  0  0
 34 56  1  0  0  0  0
 34 69  1  0  0  0  0
 34 77  2  0  0  0  0
 35 58  1  0  0  0  0
 35 71  1  0  0  0  0
 35 78  2  0  0  0  0
 36 66  1  0  0  0  0
 36 72  1  0  0  0  0
 36 79  2  0  0  0  0
 37 40  1  0  0  0  0
 38 47  1  0  0  0  0
 39 65  1  0  0  0  0
 40 42  1  0  0  0  0
 41 43  1  0  0  0  0
 41 44  1  0  0  0  0
 42 46  1  0  0  0  0
 43 48  1  0  0  0  0
 44 66  1  0  0  0  0
 45 48  1  0  0  0  0
 45 66  1  0  0  0  0
 46 70  1  0  0  0  0
 47 65  1  0  0  0  0
 48 64  1  0  0  0  0
 49 58  1  0  0  0  0
 50 59  1  0  0  0  0
 51 61  1  0  0  0  0
 52 61  1  0  0  0  0
 53 61  1  0  0  0  0
 54 73  1  0  0  0  0
 55 72  1  0  0  0  0
 56 59  1  0  0  0  0
 57 61  1  0  0  0  0
 57 71  1  0  0  0  0
 58 73  1  0  0  0  0
 59 81  1  0  0  0  0
 60 84  1  0  0  0  0
 60 85  1  0  0  0  0
 60 86  1  0  0  0  0
 62 64  1  0  0  0  0
M  CHG  1  73   1
M  ISO  4  36 100  59 101  72 100  81 101
M  END
> <Batch ID>
0189

> <Smiles>
CNC(C)C(=O)NC(C(=O)N1Cc2cc([101O:1][101CH:1](C)CC(=O)Nc3nc(C(F)(F)F)c(C[100NH:0][100C:0](=O)N4CCCC(n5nc(-c6ccc(Oc7ccc(F)cc7F)cc6)c(C(N)=O)c5N)C4)s3)ccc2CC1C(=O)NC1CCCc2ccccc21)C(C)(C)C

> <Shape>
0.229

> <Color>
0.055

> <Negative vol penalty>
0.000

$$$$

  -OEChem-04052305183D

 88 96  0     1  0  0  0  0  0999 V2000
  -22.4085  -34.5837   14.7429 C   0  0  0  0  0  0  0  0  0  0  0  0
  -22.8461  -33.2803   14.9555 C   0  0  0  0  0  0  0  0  0  0  0  0
  -22.7596  -10.2722   22.2238 C   0  0  0  0  0  0  0  0  0  0  0  0
  -24.2416   -9.7071   20.4013 C   0  0  0  0  0  0  0  0  0  0  0  0
  -22.9683  -35.6331   15.4703 C   0  0  0  0  0  0  0  0  0  0  0  0
  -23.8445  -33.0258   15.8950 C   0  0  0  0  0  0  0  0  0  0  0  0
  -24.3504  -28.0892   19.4840 C   0  0  0  0  0  0  0  0  0  0  0  0
  -22.1827   -9.0046   22.1478 C   0  0  0  0  0  0  0  0  0  0  0  0
  -23.6647   -8.4394   20.3254 C   0  0  0  0  0  0  0  0  0  0  0  0
  -25.1130  -26.9269   19.3783 C   0  0  0  0  0  0  0  0  0  0  0  0
  -20.5651   -5.7916   22.6722 C   0  0  0  0  0  0  0  0  0  0  0  0
  -20.3473   -5.1055   23.8670 C   0  0  0  0  0  0  0  0  0  0  0  0
  -26.7957  -27.9088   20.8008 C   0  0  0  0  0  0  0  0  0  0  0  0
  -22.7159   -5.1747   24.3384 C   0  0  0  0  0  0  0  0  0  0  0  0
  -30.6286  -19.1654   18.8023 C   0  0  0  0  0  0  0  0  0  0  0  0
  -23.7891  -10.6235   21.3505 C   0  0  0  0  0  0  0  0  0  0  0  0
  -25.4917  -12.3186   22.2082 C   0  0  0  0  0  0  0  0  0  0  0  0
  -23.9673  -35.3902   16.4262 C   0  0  0  0  0  0  0  0  0  0  0  0
  -24.8106  -29.1760   20.2413 C   0  0  0  0  0  0  0  0  0  0  0  0
  -24.4191  -34.0731   16.6350 C   0  0  0  0  0  0  0  0  0  0  0  0
  -26.0359  -29.0828   20.9166 C   0  0  0  0  0  0  0  0  0  0  0  0
  -22.6353   -8.0881   21.1986 C   0  0  0  0  0  0  0  0  0  0  0  0
  -26.3372  -26.8376   20.0343 C   0  0  0  0  0  0  0  0  0  0  0  0
  -21.8583   -6.1692   22.3105 C   0  0  0  0  0  0  0  0  0  0  0  0
  -21.4227   -4.7971   24.7001 C   0  0  0  0  0  0  0  0  0  0  0  0
  -22.9336   -5.8608   23.1436 C   0  0  0  0  0  0  0  0  0  0  0  0
  -24.3850  -11.9331   21.4281 C   0  0  0  0  0  0  0  0  0  0  0  0
  -29.7293  -20.0658   18.2707 C   0  0  0  0  0  0  0  0  0  0  0  0
  -25.6598  -13.6530   21.9299 C   0  0  0  0  0  0  0  0  0  0  0  0
  -28.3526  -18.3963   18.6271 C   0  0  0  0  0  0  0  0  0  0  0  0
  -30.0703  -21.4237   17.8190 C   0  0  0  0  0  0  0  0  0  0  0  0
  -29.1932  -22.3111   17.3223 C   0  0  0  0  0  0  0  0  0  0  0  0
  -26.2959  -11.5400   23.1042 C   0  0  0  0  0  0  0  0  0  0  0  0
  -25.5740  -32.1941   19.5996 C   0  0  0  0  0  0  0  0  0  0  0  0
  -25.8750  -32.3945   22.8232 C   0  0  0  0  0  0  0  0  0  0  0  0
  -26.4270  -30.7942   25.7865 C   0  0  0  0  0  0  0  0  0  0  0  0
  -25.9062  -17.8816   18.3159 C   0  0  0  0  0  0  0  0  0  0  0  0
  -24.5757  -36.5624   17.1544 C   0  0  0  0  0  0  0  0  0  0  0  0
  -23.9637  -30.4127   20.3671 C   0  0  0  0  0  0  0  0  0  0  0  0
  -26.5653  -30.2137   21.7587 C   0  0  0  0  0  0  0  0  0  0  0  0
  -25.3649  -36.1635   18.3987 C   0  0  0  0  0  0  0  0  0  0  0  0
  -22.6756  -16.9015   19.4472 C   0  0  0  0  0  0  0  0  0  0  0  0
  -26.2865  -34.9873   18.0920 C   0  0  0  0  0  0  0  0  0  0  0  0
  -22.9234  -15.5532   20.1276 C   0  0  0  0  0  0  0  0  0  0  0  0
  -23.5553  -17.0833   18.2115 C   0  0  0  0  0  0  0  0  0  0  0  0
  -25.2396  -15.5301   19.1169 C   0  0  0  0  0  0  0  0  0  0  0  0
  -25.4827  -33.7539   17.6631 C   0  0  1  0  0  0  0  0  0  0  0  0
  -24.7685  -31.6520   20.7462 C   0  0  1  0  0  0  0  0  0  0  0  0
  -24.4230  -15.3285   20.4038 C   0  0  2  0  0  0  0  0  0  0  0  0
  -26.6533  -31.2287   28.2476 C   0  0  0  0  0  0  0  0  0  0  0  0
  -29.8533  -23.9754   12.8993 C   0  0  0  0  0  0  0  0  0  0  0  0
  -30.3538  -21.9808   14.3169 C   0  0  0  0  0  0  0  0  0  0  0  0
  -31.6999  -24.0526   14.5941 C   0  0  0  0  0  0  0  0  0  0  0  0
  -28.6804  -33.5041   22.3669 C   0  0  0  0  0  0  0  0  0  0  0  0
  -29.1861  -33.0236   24.7713 C   0  0  0  0  0  0  0  0  0  0  0  0
  -27.3881  -34.6474   24.1772 C   0  0  0  0  0  0  0  0  0  0  0  0
  -24.1023  -29.0762   26.4214 C   0  0  0  0  0  0  0  0  0  0  0  0
  -28.8322  -24.7547   17.7439 C   0  0  0  0  0  0  0  0  0  0  0  0
  -29.2518  -23.9564   15.3865 C   0  0  0  0  0  0  0  0  0  0  0  0
  -28.4979  -25.8442   20.0180 C   0  0  0  0  0  0  0  0  0  1  0  0
  -29.5800  -23.7023   16.8815 C   0  0  2  0  0  0  0  0  0  0  0  0
  -26.9986  -32.1768   23.8076 C   0  0  1  0  0  0  0  0  0  0  0  0
  -25.7023  -30.8629   27.1186 C   0  0  2  0  0  0  0  0  0  0  0  0
  -29.1950  -24.7303   19.2404 C   0  0  2  0  0  0  0  0  0  0  0  0
  -30.2857  -23.5245   14.3035 C   0  0  0  0  0  0  0  0  0  0  0  0
  -28.0545  -33.3172   23.7634 C   0  0  0  0  0  0  0  0  0  0  0  0
  -23.8852  -12.9412   20.7084 N   0  0  0  0  0  0  0  0  0  0  0  0
  -28.4238  -19.6264   18.1690 N   0  0  0  0  0  0  0  0  0  0  0  0
  -24.6815  -13.9733   21.0352 N   0  0  0  0  0  0  0  0  0  0  0  0
  -25.7035  -31.4042   21.8455 N   0  0  0  0  0  0  0  0  0  0  0  0
  -24.9624  -16.8593   18.5501 N   0  0  0  0  0  0  0  0  0  0  0  0
  -26.5474  -14.5720   22.3658 N   0  0  0  0  0  0  0  0  0  0  0  0
  -25.9855  -10.1837   23.2734 N   0  0  0  0  0  0  0  0  0  0  0  0
  -27.2069  -17.5664   18.7077 N   0  0  0  0  0  0  0  0  0  0  0  0
  -24.8944  -33.1078   18.8168 N   0  0  0  0  0  0  0  0  0  0  0  0
  -26.3696  -31.9951   25.1113 N   0  0  0  0  0  0  0  0  0  0  0  0
  -25.0783  -29.5476   27.4373 N   0  3  0  0  0  0  0  0  0  0  0  0
  -27.2509  -12.0362   23.7485 O   0  0  0  0  0  0  0  0  0  0  0  0
  -26.7274  -31.8129   19.4379 O   0  0  0  0  0  0  0  0  0  0  0  0
  -25.1708  -33.4024   22.9225 O   0  0  0  0  0  0  0  0  0  0  0  0
  -26.9909  -29.7780   25.3866 O   0  0  0  0  0  0  0  0  0  0  0  0
  -25.5794  -18.9677   17.8304 O   0  0  0  0  0  0  0  0  0  0  0  0
  -30.6024  -24.8756   19.4042 O   0  0  0  0  0  0  0  0  0  0  0  0
  -22.0727   -6.8510   21.1244 O   0  0  0  0  0  0  0  0  0  0  0  0
  -27.0899  -25.6952   19.9315 O   0  0  0  0  0  0  0  0  0  1  0  0
  -21.2133   -4.1396   25.8481 F   0  0  0  0  0  0  0  0  0  0  0  0
  -24.1781   -6.2220   22.8020 F   0  0  0  0  0  0  0  0  0  0  0  0
  -29.8173  -17.7066   19.1963 S   0  0  0  0  0  0  0  0  0  0  0  0
  1  2  1  0  0  0  0
  1  5  2  0  0  0  0
  2  6  2  0  0  0  0
  3  8  2  0  0  0  0
  3 16  1  0  0  0  0
  4  9  1  0  0  0  0
  4 16  2  0  0  0  0
  5 18  1  0  0  0  0
  6 20  1  0  0  0  0
  7 10  2  0  0  0  0
  7 19  1  0  0  0  0
  8 22  1  0  0  0  0
  9 22  2  0  0  0  0
 10 23  1  0  0  0  0
 11 12  2  0  0  0  0
 11 24  1  0  0  0  0
 12 25  1  0  0  0  0
 13 21  1  0  0  0  0
 13 23  2  0  0  0  0
 14 25  2  0  0  0  0
 14 26  1  0  0  0  0
 15 28  2  0  0  0  0
 15 88  1  0  0  0  0
 16 27  1  0  0  0  0
 17 27  1  0  0  0  0
 17 29  2  0  0  0  0
 17 33  1  0  0  0  0
 18 20  2  0  0  0  0
 18 38  1  0  0  0  0
 19 21  2  0  0  0  0
 19 39  1  0  0  0  0
 20 47  1  0  0  0  0
 21 40  1  0  0  0  0
 22 84  1  0  0  0  0
 23 85  1  0  0  0  0
 24 26  2  0  0  0  0
 24 84  1  0  0  0  0
 25 86  1  0  0  0  0
 26 87  1  0  0  0  0
 27 67  2  0  0  0  0
 28 31  1  0  0  0  0
 28 68  1  0  0  0  0
 29 69  1  0  0  0  0
 29 72  1  0  0  0  0
 30 68  2  0  0  0  0
 30 74  1  0  0  0  0
 30 88  1  0  0  0  0
 31 32  2  0  0  0  0
 32 61  1  0  0  0  0
 33 73  1  0  0  0  0
 33 78  2  0  0  0  0
 34 48  1  0  0  0  0
 34 75  1  0  0  0  0
 34 79  2  0  0  0  0
 35 62  1  0  0  0  0
 35 70  1  0  0  0  0
 35 80  2  0  0  0  0
 36 63  1  0  0  0  0
 36 76  1  0  0  0  0
 36 81  2  0  0  0  0
 37 71  1  0  0  0  0
 37 74  1  0  0  0  0
 37 82  2  0  0  0  0
 38 41  1  0  0  0  0
 39 48  1  0  0  0  0
 40 70  1  0  0  0  0
 41 43  1  0  0  0  0
 42 44  1  0  0  0  0
 42 45  1  0  0  0  0
 43 47  1  0  0  0  0
 44 49  1  0  0  0  0
 45 71  1  0  0  0  0
 46 49  1  0  0  0  0
 46 71  1  0  0  0  0
 47 75  1  0  0  0  0
 48 70  1  0  0  0  0
 49 69  1  0  0  0  0
 50 63  1  0  0  0  0
 51 65  1  0  0  0  0
 52 65  1  0  0  0  0
 53 65  1  0  0  0  0
 54 66  1  0  0  0  0
 55 66  1  0  0  0  0
 56 66  1  0  0  0  0
 57 77  1  0  0  0  0
 58 61  1  0  0  0  0
 58 64  1  0  0  0  0
 59 61  1  0  0  0  0
 59 65  1  0  0  0  0
 60 64  1  0  0  0  0
 60 85  1  0  0  0  0
 62 66  1  0  0  0  0
 62 76  1  0  0  0  0
 63 77  1  0  0  0  0
 64 83  1  0  0  0  0
 67 69  1  0  0  0  0
M  CHG  1  77   1
M  ISO  4  37 100  60 101  74 100  85 101
M  END
> <Batch ID>
0189

> <Smiles>
CNC(C)C(=O)NC(C(=O)N1Cc2cc([101O:1][101CH2:1]C(O)CC(C=Cc3csc([100NH:0][100C:0](=O)N4CCCC(n5nc(-c6ccc(Oc7ccc(F)cc7F)cc6)c(C(N)=O)c5N)C4)n3)CC(C)(C)C)ccc2CC1C(=O)NC1CCCc2ccccc21)C(C)(C)C

> <Shape>
0.264

> <Color>
0.094

> <Negative vol penalty>
0.000

$$$$

  -OEChem-04052305183D

 85 93  0     1  0  0  0  0  0999 V2000
  -19.6919  -25.7581   18.3005 C   0  0  0  0  0  0  0  0  0  0  0  0
  -19.0780  -26.2595   19.2027 C   0  0  0  0  0  0  0  0  0  0  0  0
  -29.9243  -10.3702   17.4033 C   0  0  0  0  0  0  0  0  0  0  0  0
  -29.3993  -11.2710   16.4822 C   0  0  0  0  0  0  0  0  0  0  0  0
  -25.8146  -30.0630   22.9140 C   0  0  0  0  0  0  0  0  0  0  0  0
  -25.8035  -28.9523   25.0596 C   0  0  0  0  0  0  0  0  0  0  0  0
  -29.8691  -10.6570   18.7666 C   0  0  0  0  0  0  0  0  0  0  0  0
  -28.8177  -12.4588   16.9241 C   0  0  0  0  0  0  0  0  0  0  0  0
  -28.9556  -17.8956   14.1084 C   0  0  0  0  0  0  0  0  0  0  0  0
  -26.7114  -31.0098   23.4088 C   0  0  0  0  0  0  0  0  0  0  0  0
  -26.7004  -29.8991   25.5543 C   0  0  0  0  0  0  0  0  0  0  0  0
  -28.0348  -18.5540   13.2945 C   0  0  0  0  0  0  0  0  0  0  0  0
  -30.0282  -31.2108   24.0345 C   0  0  0  0  0  0  0  0  0  0  0  0
  -31.1190  -31.5506   23.2344 C   0  0  0  0  0  0  0  0  0  0  0  0
  -27.2202  -19.7713   15.2112 C   0  0  0  0  0  0  0  0  0  0  0  0
  -21.8954  -24.9400   15.4462 C   0  0  0  0  0  0  0  0  0  0  0  0
  -30.3769  -33.8496   23.1992 C   0  0  0  0  0  0  0  0  0  0  0  0
  -20.4210  -25.1632   17.2291 C   0  0  0  0  0  0  0  0  0  0  0  0
  -25.3606  -29.0343   23.7394 C   0  0  0  0  0  0  0  0  0  0  0  0
  -24.7460  -26.8364   22.5995 C   0  0  0  0  0  0  0  0  0  0  0  0
  -29.2952  -11.8534   19.2248 C   0  0  0  0  0  0  0  0  0  0  0  0
  -29.0083  -18.1626   15.4841 C   0  0  0  0  0  0  0  0  0  0  0  0
  -28.7535  -12.7613   18.2949 C   0  0  0  0  0  0  0  0  0  0  0  0
  -28.1442  -19.1168   16.0399 C   0  0  0  0  0  0  0  0  0  0  0  0
  -21.3373  -25.8086   16.4282 C   0  0  0  0  0  0  0  0  0  0  0  0
  -27.1543  -30.9279   24.7289 C   0  0  0  0  0  0  0  0  0  0  0  0
  -27.1650  -19.4899   13.8463 C   0  0  0  0  0  0  0  0  0  0  0  0
  -29.1117  -32.1903   24.4170 C   0  0  0  0  0  0  0  0  0  0  0  0
  -31.2934  -32.8700   22.8168 C   0  0  0  0  0  0  0  0  0  0  0  0
  -29.2861  -33.5097   23.9993 C   0  0  0  0  0  0  0  0  0  0  0  0
  -24.4337  -28.0562   23.2291 C   0  0  0  0  0  0  0  0  0  0  0  0
  -23.5254  -26.2793   22.3057 C   0  0  0  0  0  0  0  0  0  0  0  0
  -21.3845  -23.6636   15.5342 C   0  0  0  0  0  0  0  0  0  0  0  0
  -18.3387  -26.8632   20.2891 C   0  0  0  0  0  0  0  0  0  0  0  0
  -26.0250  -26.2586   22.3065 C   0  0  0  0  0  0  0  0  0  0  0  0
  -28.5544  -16.4468   18.1211 C   0  0  0  0  0  0  0  0  0  0  0  0
  -29.5668  -19.1560   19.5900 C   0  0  0  0  0  0  0  0  0  0  0  0
  -22.5391  -22.3765   13.7026 C   0  0  0  0  0  0  0  0  0  0  0  0
  -29.9592  -22.5439   19.4690 C   0  0  0  0  0  0  0  0  0  0  0  0
  -29.2159  -12.0980   20.7109 C   0  0  0  0  0  0  0  0  0  0  0  0
  -30.0254  -17.4634   16.3438 C   0  0  0  0  0  0  0  0  0  0  0  0
  -28.1743  -19.4544   17.5075 C   0  0  0  0  0  0  0  0  0  0  0  0
  -28.9192  -13.5506   21.0742 C   0  0  0  0  0  0  0  0  0  0  0  0
  -18.8682  -27.5611   23.7781 C   0  0  0  0  0  0  0  0  0  0  0  0
  -27.7739  -14.0904   20.2235 C   0  0  0  0  0  0  0  0  0  0  0  0
  -20.3873  -27.6900   23.8845 C   0  0  0  0  0  0  0  0  0  0  0  0
  -18.3550  -28.0875   22.4417 C   0  0  0  0  0  0  0  0  0  0  0  0
  -20.5253  -27.5761   21.3562 C   0  0  0  0  0  0  0  0  0  0  0  0
  -28.1368  -14.0717   18.7337 C   0  0  1  0  0  0  0  0  0  0  0  0
  -29.6431  -17.4378   17.8205 C   0  0  1  0  0  0  0  0  0  0  0  0
  -21.0831  -27.0286   22.6816 C   0  0  1  0  0  0  0  0  0  0  0  0
  -21.7169  -27.2385   16.5516 C   0  0  0  0  0  0  0  0  0  0  0  0
  -21.4462  -20.7631   12.0912 C   0  0  0  0  0  0  0  0  0  0  0  0
  -30.7809  -24.4819   20.8353 C   0  0  0  0  0  0  0  0  0  0  0  0
  -27.0242  -19.0444   21.2731 C   0  0  0  0  0  0  0  0  0  0  0  0
  -27.4224  -21.4334   21.9073 C   0  0  0  0  0  0  0  0  0  0  0  0
  -29.0850  -19.6837   22.5375 C   0  0  0  0  0  0  0  0  0  0  0  0
  -32.0368  -23.2201   17.4728 C   0  0  0  0  0  0  0  0  0  0  0  0
  -23.9312  -20.5568   12.6080 C   0  0  0  0  0  0  0  0  0  0  0  0
  -25.0368  -20.5350   13.6602 C   0  0  0  0  0  0  0  0  0  1  0  0
  -28.8951  -20.3996   20.1202 C   0  0  1  0  0  0  0  0  0  0  0  0
  -22.5423  -20.9491   13.1403 C   0  0  1  0  0  0  0  0  0  0  0  0
  -31.1454  -23.4329   19.7963 C   0  0  2  0  0  0  0  0  0  0  0  0
  -28.1045  -20.1327   21.4322 C   0  0  0  0  0  0  0  0  0  0  0  0
  -23.1179  -28.2625   23.3296 N   0  0  0  0  0  0  0  0  0  0  0  0
  -22.5926  -27.1649   22.7592 N   0  0  0  0  0  0  0  0  0  0  0  0
  -19.0608  -27.4647   21.3220 N   0  0  0  0  0  0  0  0  0  0  0  0
  -29.1822  -18.7394   18.3077 N   0  0  0  0  0  0  0  0  0  0  0  0
  -23.1698  -25.1232   21.7062 N   0  0  0  0  0  0  0  0  0  0  0  0
  -27.1778  -26.9644   22.6770 N   0  0  0  0  0  0  0  0  0  0  0  0
  -21.6546  -22.5038   14.7696 N   0  0  0  0  0  0  0  0  0  0  0  0
  -29.0144  -15.1770   18.4134 N   0  0  0  0  0  0  0  0  0  0  0  0
  -29.9430  -21.4065   20.2483 N   0  0  0  0  0  0  0  0  0  0  0  0
  -31.6226  -24.1322   18.5698 N   0  3  0  0  0  0  0  0  0  0  0  0
  -17.1147  -26.8029   20.2254 O   0  0  0  0  0  0  0  0  0  0  0  0
  -26.1423  -25.1568   21.7184 O   0  0  0  0  0  0  0  0  0  0  0  0
  -27.3837  -16.8079   18.0915 O   0  0  0  0  0  0  0  0  0  0  0  0
  -30.4072  -18.5795   20.2851 O   0  0  0  0  0  0  0  0  0  0  0  0
  -23.2536  -23.2548   13.2274 O   0  0  0  0  0  0  0  0  0  0  0  0
  -29.1279  -22.8317   18.6107 O   0  0  0  0  0  0  0  0  0  0  0  0
  -28.0296  -31.8515   25.2120 O   0  0  0  0  0  0  0  0  0  0  0  0
  -26.2648  -20.1335   13.0543 O   0  0  0  0  0  0  0  0  0  1  0  0
  -32.3418  -33.1965   22.0497 F   0  0  0  0  0  0  0  0  0  0  0  0
  -28.4096  -34.4554   24.3645 F   0  0  0  0  0  0  0  0  0  0  0  0
  -20.2367  -23.5166   16.7964 S   0  0  0  0  0  0  0  0  0  0  0  0
  1  2  3  0  0  0  0
  1 18  1  0  0  0  0
  2 34  1  0  0  0  0
  3  4  1  0  0  0  0
  3  7  2  0  0  0  0
  4  8  2  0  0  0  0
  5 10  2  0  0  0  0
  5 19  1  0  0  0  0
  6 11  1  0  0  0  0
  6 19  2  0  0  0  0
  7 21  1  0  0  0  0
  8 23  1  0  0  0  0
  9 12  2  0  0  0  0
  9 22  1  0  0  0  0
 10 26  1  0  0  0  0
 11 26  2  0  0  0  0
 12 27  1  0  0  0  0
 13 14  2  0  0  0  0
 13 28  1  0  0  0  0
 14 29  1  0  0  0  0
 15 24  1  0  0  0  0
 15 27  2  0  0  0  0
 16 25  1  0  0  0  0
 16 33  2  0  0  0  0
 17 29  2  0  0  0  0
 17 30  1  0  0  0  0
 18 25  2  0  0  0  0
 18 85  1  0  0  0  0
 19 31  1  0  0  0  0
 20 31  1  0  0  0  0
 20 32  2  0  0  0  0
 20 35  1  0  0  0  0
 21 23  2  0  0  0  0
 21 40  1  0  0  0  0
 22 24  2  0  0  0  0
 22 41  1  0  0  0  0
 23 49  1  0  0  0  0
 24 42  1  0  0  0  0
 25 52  1  0  0  0  0
 26 81  1  0  0  0  0
 27 82  1  0  0  0  0
 28 30  2  0  0  0  0
 28 81  1  0  0  0  0
 29 83  1  0  0  0  0
 30 84  1  0  0  0  0
 31 65  2  0  0  0  0
 32 66  1  0  0  0  0
 32 69  1  0  0  0  0
 33 71  1  0  0  0  0
 33 85  1  0  0  0  0
 34 67  1  0  0  0  0
 34 75  2  0  0  0  0
 35 70  1  0  0  0  0
 35 76  2  0  0  0  0
 36 50  1  0  0  0  0
 36 72  1  0  0  0  0
 36 77  2  0  0  0  0
 37 61  1  0  0  0  0
 37 68  1  0  0  0  0
 37 78  2  0  0  0  0
 38 62  1  0  0  0  0
 38 71  1  0  0  0  0
 38 79  2  0  0  0  0
 39 63  1  0  0  0  0
 39 73  1  0  0  0  0
 39 80  2  0  0  0  0
 40 43  1  0  0  0  0
 41 50  1  0  0  0  0
 42 68  1  0  0  0  0
 43 45  1  0  0  0  0
 44 46  1  0  0  0  0
 44 47  1  0  0  0  0
 45 49  1  0  0  0  0
 46 51  1  0  0  0  0
 47 67  1  0  0  0  0
 48 51  1  0  0  0  0
 48 67  1  0  0  0  0
 49 72  1  0  0  0  0
 50 68  1  0  0  0  0
 51 66  1  0  0  0  0
 53 62  1  0  0  0  0
 54 63  1  0  0  0  0
 55 64  1  0  0  0  0
 56 64  1  0  0  0  0
 57 64  1  0  0  0  0
 58 74  1  0  0  0  0
 59 60  1  0  0  0  0
 59 62  1  0  0  0  0
 60 82  1  0  0  0  0
 61 64  1  0  0  0  0
 61 73  1  0  0  0  0
 63 74  1  0  0  0  0
 65 66  1  0  0  0  0
M  CHG  1  74   1
M  ISO  4   2 100  34 100  60 101  82 101
M  END
> <Batch ID>
0189

> <Smiles>
CNC(C)C(=O)NC(C(=O)N1Cc2cc([101O:1][101CH2:1]CC(C)C(=O)Nc3cc(C)c(C#[100C:0][100C:0](=O)N4CCCC(n5nc(-c6ccc(Oc7ccc(F)cc7F)cc6)c(C(N)=O)c5N)C4)s3)ccc2CC1C(=O)NC1CCCc2ccccc21)C(C)(C)C

> <Shape>
0.198

> <Color>
0.070

> <Negative vol penalty>
0.000

$$$$

  -OEChem-04052305183D

 84 92  0     1  0  0  0  0  0999 V2000
  -24.1579   -8.0216   21.4871 C   0  0  0  0  0  0  0  0  0  0  0  0
  -24.8015   -9.1849   21.0774 C   0  0  0  0  0  0  0  0  0  0  0  0
  -21.4268  -28.7498   20.9866 C   0  0  0  0  0  0  0  0  0  0  0  0
  -22.5161  -27.6521   22.8428 C   0  0  0  0  0  0  0  0  0  0  0  0
  -22.7758   -8.0186   21.6707 C   0  0  0  0  0  0  0  0  0  0  0  0
  -24.0631  -10.3457   20.8498 C   0  0  0  0  0  0  0  0  0  0  0  0
  -26.2358  -14.4552   22.8589 C   0  0  0  0  0  0  0  0  0  0  0  0
  -20.2817  -27.9841   21.2058 C   0  0  0  0  0  0  0  0  0  0  0  0
  -21.3710  -26.8864   23.0620 C   0  0  0  0  0  0  0  0  0  0  0  0
  -27.3099  -15.0110   22.1653 C   0  0  0  0  0  0  0  0  0  0  0  0
  -19.2239  -24.8417   20.5495 C   0  0  0  0  0  0  0  0  0  0  0  0
  -18.6052  -24.2695   19.4380 C   0  0  0  0  0  0  0  0  0  0  0  0
  -25.8407  -16.6902   21.2481 C   0  0  0  0  0  0  0  0  0  0  0  0
  -16.5802  -25.4888   19.9374 C   0  0  0  0  0  0  0  0  0  0  0  0
  -22.5441  -28.5837   21.8051 C   0  0  0  0  0  0  0  0  0  0  0  0
  -24.0327  -30.6278   22.1414 C   0  0  0  0  0  0  0  0  0  0  0  0
  -22.0214   -9.1825   21.4547 C   0  0  0  0  0  0  0  0  0  0  0  0
  -24.9518  -15.0070   22.7436 C   0  0  0  0  0  0  0  0  0  0  0  0
  -22.6695  -10.3579   21.0294 C   0  0  0  0  0  0  0  0  0  0  0  0
  -24.7525  -16.1410   21.9433 C   0  0  0  0  0  0  0  0  0  0  0  0
  -20.2538  -27.0524   22.2435 C   0  0  0  0  0  0  0  0  0  0  0  0
  -27.1119  -16.1270   21.3575 C   0  0  0  0  0  0  0  0  0  0  0  0
  -18.5206  -25.7374   21.3550 C   0  0  0  0  0  0  0  0  0  0  0  0
  -17.2834  -24.5931   19.1319 C   0  0  0  0  0  0  0  0  0  0  0  0
  -17.1988  -26.0610   21.0490 C   0  0  0  0  0  0  0  0  0  0  0  0
  -23.7274  -29.3740   21.5789 C   0  0  0  0  0  0  0  0  0  0  0  0
  -31.0184  -25.0913   21.1338 C   0  0  0  0  0  0  0  0  0  0  0  0
  -31.9386  -24.2914   20.4891 C   0  0  0  0  0  0  0  0  0  0  0  0
  -25.2590  -30.9513   21.6142 C   0  0  0  0  0  0  0  0  0  0  0  0
  -30.5738  -22.7245   21.1905 C   0  0  0  0  0  0  0  0  0  0  0  0
  -23.2756  -31.4285   23.0587 C   0  0  0  0  0  0  0  0  0  0  0  0
  -22.1466  -13.9575   21.6792 C   0  0  0  0  0  0  0  0  0  0  0  0
  -21.0890  -16.8044   22.8190 C   0  0  0  0  0  0  0  0  0  0  0  0
  -21.8066  -20.0286   23.6771 C   0  0  0  0  0  0  0  0  0  0  0  0
  -29.7575  -27.6559   19.4336 C   0  0  0  0  0  0  0  0  0  0  0  0
  -20.5237   -9.1181   21.6205 C   0  0  0  0  0  0  0  0  0  0  0  0
  -23.8089  -14.4117   23.5194 C   0  0  0  0  0  0  0  0  0  0  0  0
  -23.3977  -16.7835   21.8017 C   0  0  0  0  0  0  0  0  0  0  0  0
  -19.8623  -10.4903   21.7200 C   0  0  0  0  0  0  0  0  0  0  0  0
  -27.9775  -30.2345   17.7428 C   0  0  0  0  0  0  0  0  0  0  0  0
  -20.3976  -11.4207   20.6362 C   0  0  0  0  0  0  0  0  0  0  0  0
  -26.7139  -30.4195   18.5850 C   0  0  0  0  0  0  0  0  0  0  0  0
  -28.4058  -28.7700   17.6821 C   0  0  0  0  0  0  0  0  0  0  0  0
  -27.3048  -28.3023   19.8368 C   0  0  0  0  0  0  0  0  0  0  0  0
  -21.9062  -11.6437   20.7964 C   0  0  1  0  0  0  0  0  0  0  0  0
  -22.4446  -14.7450   22.9236 C   0  0  1  0  0  0  0  0  0  0  0  0
  -26.8656  -29.7702   19.9737 C   0  0  2  0  0  0  0  0  0  0  0  0
  -20.7288  -22.1235   24.5414 C   0  0  0  0  0  0  0  0  0  0  0  0
  -19.8809  -17.3165   20.0643 C   0  0  0  0  0  0  0  0  0  0  0  0
  -19.6715  -19.7336   20.6824 C   0  0  0  0  0  0  0  0  0  0  0  0
  -18.4316  -18.0035   21.9832 C   0  0  0  0  0  0  0  0  0  0  0  0
  -23.5085  -20.0438   26.0982 C   0  0  0  0  0  0  0  0  0  0  0  0
  -30.9853  -26.5582   21.2902 C   0  0  0  0  0  0  0  0  0  0  0  0
  -30.3201  -17.7351   20.8755 C   0  0  0  0  0  0  0  0  0  0  0  0
  -30.6100  -20.2422   20.9403 C   0  0  0  0  0  0  0  0  0  0  0  0
  -29.4513  -16.5458   21.2696 C   0  0  0  0  0  0  0  0  0  1  0  0
  -20.9385  -18.1945   22.2499 C   0  0  1  0  0  0  0  0  0  0  0  0
  -21.4617  -20.8432   24.9107 C   0  0  2  0  0  0  0  0  0  0  0  0
  -29.7348  -19.0652   21.3526 C   0  0  2  0  0  0  0  0  0  0  0  0
  -19.7559  -18.2990   21.2459 C   0  0  0  0  0  0  0  0  0  0  0  0
  -24.6827  -28.9312   20.7571 N   0  0  0  0  0  0  0  0  0  0  0  0
  -31.6855  -22.9340   20.5210 N   0  0  0  0  0  0  0  0  0  0  0  0
  -25.6003  -29.9122   20.7993 N   0  0  0  0  0  0  0  0  0  0  0  0
  -22.3106  -16.1610   22.5752 N   0  0  0  0  0  0  0  0  0  0  0  0
  -28.5330  -28.2144   19.0315 N   0  0  0  0  0  0  0  0  0  0  0  0
  -26.0679  -32.0204   21.7726 N   0  0  0  0  0  0  0  0  0  0  0  0
  -22.0358  -30.9466   23.5003 N   0  0  0  0  0  0  0  0  0  0  0  0
  -30.0237  -21.4730   21.4164 N   0  0  0  0  0  0  0  0  0  0  0  0
  -22.1673  -12.5880   21.8616 N   0  0  0  0  0  0  0  0  0  0  0  0
  -20.8329  -19.0945   23.3933 N   0  0  0  0  0  0  0  0  0  0  0  0
  -29.7945  -27.1576   20.7302 N   0  0  0  0  0  0  0  0  0  0  0  0
  -22.7011  -21.2087   25.6533 N   0  3  0  0  0  0  0  0  0  0  0  0
  -23.6788  -32.5459   23.4616 O   0  0  0  0  0  0  0  0  0  0  0  0
  -21.9135  -14.5487   20.6314 O   0  0  0  0  0  0  0  0  0  0  0  0
  -20.1596  -16.3105   23.4625 O   0  0  0  0  0  0  0  0  0  0  0  0
  -22.8349  -20.2059   23.0278 O   0  0  0  0  0  0  0  0  0  0  0  0
  -30.7463  -27.6099   18.6939 O   0  0  0  0  0  0  0  0  0  0  0  0
  -19.1365  -26.3052   22.4578 O   0  0  0  0  0  0  0  0  0  0  0  0
  -28.1584  -16.6711   20.6788 O   0  0  0  0  0  0  0  0  0  1  0  0
  -16.6900  -24.0447   18.0636 F   0  0  0  0  0  0  0  0  0  0  0  0
  -16.5185  -26.9218   21.8184 F   0  0  0  0  0  0  0  0  0  0  0  0
  -33.0140  -24.7922   19.8712 F   0  0  0  0  0  0  0  0  0  0  0  0
  -29.6761  -19.0384   22.7156 F   0  0  0  0  0  0  0  0  0  0  0  0
  -29.7807  -24.1149   21.8092 S   0  0  0  0  0  0  0  0  0  0  0  0
  1  2  1  0  0  0  0
  1  5  2  0  0  0  0
  2  6  2  0  0  0  0
  3  8  2  0  0  0  0
  3 15  1  0  0  0  0
  4  9  1  0  0  0  0
  4 15  2  0  0  0  0
  5 17  1  0  0  0  0
  6 19  1  0  0  0  0
  7 10  2  0  0  0  0
  7 18  1  0  0  0  0
  8 21  1  0  0  0  0
  9 21  2  0  0  0  0
 10 22  1  0  0  0  0
 11 12  2  0  0  0  0
 11 23  1  0  0  0  0
 12 24  1  0  0  0  0
 13 20  1  0  0  0  0
 13 22  2  0  0  0  0
 14 24  2  0  0  0  0
 14 25  1  0  0  0  0
 15 26  1  0  0  0  0
 16 26  1  0  0  0  0
 16 29  2  0  0  0  0
 16 31  1  0  0  0  0
 17 19  2  0  0  0  0
 17 36  1  0  0  0  0
 18 20  2  0  0  0  0
 18 37  1  0  0  0  0
 19 45  1  0  0  0  0
 20 38  1  0  0  0  0
 21 78  1  0  0  0  0
 22 79  1  0  0  0  0
 23 25  2  0  0  0  0
 23 78  1  0  0  0  0
 24 80  1  0  0  0  0
 25 81  1  0  0  0  0
 26 61  2  0  0  0  0
 27 28  2  0  0  0  0
 27 53  1  0  0  0  0
 27 84  1  0  0  0  0
 28 62  1  0  0  0  0
 28 82  1  0  0  0  0
 29 63  1  0  0  0  0
 29 66  1  0  0  0  0
 30 62  2  0  0  0  0
 30 68  1  0  0  0  0
 30 84  1  0  0  0  0
 31 67  1  0  0  0  0
 31 73  2  0  0  0  0
 32 46  1  0  0  0  0
 32 69  1  0  0  0  0
 32 74  2  0  0  0  0
 33 57  1  0  0  0  0
 33 64  1  0  0  0  0
 33 75  2  0  0  0  0
 34 58  1  0  0  0  0
 34 70  1  0  0  0  0
 34 76  2  0  0  0  0
 35 65  1  0  0  0  0
 35 71  1  0  0  0  0
 35 77  2  0  0  0  0
 36 39  1  0  0  0  0
 37 46  1  0  0  0  0
 38 64  1  0  0  0  0
 39 41  1  0  0  0  0
 40 42  1  0  0  0  0
 40 43  1  0  0  0  0
 41 45  1  0  0  0  0
 42 47  1  0  0  0  0
 43 65  1  0  0  0  0
 44 47  1  0  0  0  0
 44 65  1  0  0  0  0
 45 69  1  0  0  0  0
 46 64  1  0  0  0  0
 47 63  1  0  0  0  0
 48 58  1  0  0  0  0
 49 60  1  0  0  0  0
 50 60  1  0  0  0  0
 51 60  1  0  0  0  0
 52 72  1  0  0  0  0
 53 71  1  0  0  0  0
 54 56  1  0  0  0  0
 54 59  1  0  0  0  0
 55 59  1  0  0  0  0
 55 68  1  0  0  0  0
 56 79  1  0  0  0  0
 57 60  1  0  0  0  0
 57 70  1  0  0  0  0
 58 72  1  0  0  0  0
 59 83  1  0  0  0  0
 61 63  1  0  0  0  0
M  CHG  1  72   1
M  ISO  4  35 100  56 101  71 100  79 101
M  END
> <Batch ID>
0189

> <Smiles>
CNC(C)C(=O)NC(C(=O)N1Cc2cc([101O:1][101CH2:1]CC(F)CNc3nc(F)c(C[100NH:0][100C:0](=O)N4CCCC(n5nc(-c6ccc(Oc7ccc(F)cc7F)cc6)c(C(N)=O)c5N)C4)s3)ccc2CC1C(=O)NC1CCCc2ccccc21)C(C)(C)C

> <Shape>
0.223

> <Color>
0.083

> <Negative vol penalty>
0.000

$$$$

  -OEChem-04052305183D

 85 93  0     1  0  0  0  0  0999 V2000
  -21.7604  -32.2370   20.6185 C   0  0  0  0  0  0  0  0  0  0  0  0
  -22.4724  -31.2438   21.2834 C   0  0  0  0  0  0  0  0  0  0  0  0
  -23.0727   -9.8709   19.9420 C   0  0  0  0  0  0  0  0  0  0  0  0
  -23.8352   -9.8765   22.2345 C   0  0  0  0  0  0  0  0  0  0  0  0
  -20.8600  -31.8922   19.6115 C   0  0  0  0  0  0  0  0  0  0  0  0
  -22.2836  -29.9050   20.9422 C   0  0  0  0  0  0  0  0  0  0  0  0
  -26.6484  -27.3696   20.5355 C   0  0  0  0  0  0  0  0  0  0  0  0
  -22.3283   -8.7183   20.1924 C   0  0  0  0  0  0  0  0  0  0  0  0
  -23.0907   -8.7238   22.4849 C   0  0  0  0  0  0  0  0  0  0  0  0
  -27.2671  -26.9730   21.7202 C   0  0  0  0  0  0  0  0  0  0  0  0
  -19.8627   -7.9282   23.0908 C   0  0  0  0  0  0  0  0  0  0  0  0
  -19.1070   -7.8884   24.2626 C   0  0  0  0  0  0  0  0  0  0  0  0
  -26.3763  -24.7495   21.4340 C   0  0  0  0  0  0  0  0  0  0  0  0
  -20.3478   -5.9497   24.9969 C   0  0  0  0  0  0  0  0  0  0  0  0
  -23.8263  -10.4500   20.9631 C   0  0  0  0  0  0  0  0  0  0  0  0
  -24.1699  -12.9750   20.8436 C   0  0  0  0  0  0  0  0  0  0  0  0
  -20.6671  -30.5492   19.2512 C   0  0  0  0  0  0  0  0  0  0  0  0
  -25.8787  -26.4606   19.7955 C   0  0  0  0  0  0  0  0  0  0  0  0
  -21.3787  -29.5418   19.9303 C   0  0  0  0  0  0  0  0  0  0  0  0
  -25.7510  -25.1364   20.2388 C   0  0  0  0  0  0  0  0  0  0  0  0
  -22.3372   -8.1447   21.4638 C   0  0  0  0  0  0  0  0  0  0  0  0
  -27.1287  -25.6635   22.1712 C   0  0  0  0  0  0  0  0  0  0  0  0
  -20.8608   -6.9787   22.8720 C   0  0  0  0  0  0  0  0  0  0  0  0
  -19.3496   -6.8992   25.2156 C   0  0  0  0  0  0  0  0  0  0  0  0
  -21.1034   -5.9895   23.8250 C   0  0  0  0  0  0  0  0  0  0  0  0
  -24.5960  -11.6404   20.7049 C   0  0  0  0  0  0  0  0  0  0  0  0
  -30.7167  -19.0914   22.9863 C   0  0  0  0  0  0  0  0  0  0  0  0
  -31.8177  -18.7222   22.2422 C   0  0  0  0  0  0  0  0  0  0  0  0
  -25.2622  -13.7237   20.4794 C   0  0  0  0  0  0  0  0  0  0  0  0
  -30.5780  -16.9456   21.9006 C   0  0  0  0  0  0  0  0  0  0  0  0
  -22.9003  -13.4916   21.2642 C   0  0  0  0  0  0  0  0  0  0  0  0
  -30.4563  -20.3212   23.7782 C   0  0  0  0  0  0  0  0  0  0  0  0
  -22.8270  -26.2956   18.9216 C   0  0  0  0  0  0  0  0  0  0  0  0
  -23.8539  -23.7229   17.2336 C   0  0  0  0  0  0  0  0  0  0  0  0
  -26.1638  -21.2392   16.8567 C   0  0  0  0  0  0  0  0  0  0  0  0
  -30.7294  -14.7650   20.6483 C   0  0  0  0  0  0  0  0  0  0  0  0
  -19.6480  -30.2217   18.1887 C   0  0  0  0  0  0  0  0  0  0  0  0
  -25.2397  -26.8970   18.5057 C   0  0  0  0  0  0  0  0  0  0  0  0
  -24.9522  -24.1165   19.4706 C   0  0  0  0  0  0  0  0  0  0  0  0
  -19.7829  -28.8073   17.6306 C   0  0  0  0  0  0  0  0  0  0  0  0
  -29.6104  -12.3531   18.2802 C   0  0  0  0  0  0  0  0  0  0  0  0
  -19.9469  -27.7996   18.7640 C   0  0  0  0  0  0  0  0  0  0  0  0
  -28.1710  -12.0625   18.7113 C   0  0  0  0  0  0  0  0  0  0  0  0
  -30.5271  -12.5807   19.4809 C   0  0  0  0  0  0  0  0  0  0  0  0
  -28.6223  -13.3060   20.8647 C   0  0  0  0  0  0  0  0  0  0  0  0
  -21.2197  -28.0802   19.5718 C   0  0  1  0  0  0  0  0  0  0  0  0
  -24.0557  -26.0246   18.1003 C   0  0  1  0  0  0  0  0  0  0  0  0
  -27.6479  -13.1340   19.6879 C   0  0  2  0  0  0  0  0  0  0  0  0
  -33.0498  -19.5166   22.0583 C   0  0  0  0  0  0  0  0  0  0  0  0
  -26.7167  -19.2666   15.4073 C   0  0  0  0  0  0  0  0  0  0  0  0
  -26.4464  -25.9700   25.2310 C   0  0  0  0  0  0  0  0  0  0  0  0
  -21.6551  -22.1068   18.5986 C   0  0  0  0  0  0  0  0  0  0  0  0
  -22.8313  -20.0208   17.8684 C   0  0  0  0  0  0  0  0  0  0  0  0
  -21.9520  -21.6163   16.1644 C   0  0  0  0  0  0  0  0  0  0  0  0
  -28.7496  -22.4210   16.0344 C   0  0  0  0  0  0  0  0  0  0  0  0
  -28.0862  -22.5527   24.3562 C   0  0  0  0  0  0  0  0  0  0  0  0
  -27.6478  -23.7546   25.1987 C   0  0  0  0  0  0  0  0  0  0  0  0
  -28.8181  -21.5196   25.2050 C   0  0  0  0  0  0  0  0  0  0  0  0
  -23.9943  -22.2464   17.5149 C   0  0  1  0  0  0  0  0  0  0  0  0
  -26.9318  -20.7540   15.6404 C   0  0  2  0  0  0  0  0  0  0  0  0
  -26.8846  -24.7923   24.3705 C   0  0  2  0  0  0  0  0  0  1  0  0
  -22.6217  -21.5171   17.5523 C   0  0  0  0  0  0  0  0  0  0  0  0
  -25.8603  -11.5438   20.2851 N   0  0  0  0  0  0  0  0  0  0  0  0
  -31.7402  -17.4919   21.6193 N   0  0  0  0  0  0  0  0  0  0  0  0
  -26.2380  -12.8271   20.1569 N   0  0  0  0  0  0  0  0  0  0  0  0
  -24.3414  -24.5933   18.2188 N   0  0  0  0  0  0  0  0  0  0  0  0
  -29.9699  -13.6115   20.3594 N   0  0  0  0  0  0  0  0  0  0  0  0
  -25.4735  -15.0551   20.4066 N   0  0  0  0  0  0  0  0  0  0  0  0
  -21.8880  -12.5830   21.6023 N   0  0  0  0  0  0  0  0  0  0  0  0
  -30.0837  -15.6902   21.4679 N   0  0  0  0  0  0  0  0  0  0  0  0
  -29.2260  -20.3855   24.4218 N   0  0  0  0  0  0  0  0  0  0  0  0
  -22.3858  -27.6036   18.8594 N   0  0  0  0  0  0  0  0  0  0  0  0
  -24.9202  -21.7265   16.5144 N   0  0  0  0  0  0  0  0  0  0  0  0
  -28.3915  -20.9954   15.8193 N   0  3  0  0  0  0  0  0  0  0  0  0
  -22.6650  -14.7224   21.3223 O   0  0  0  0  0  0  0  0  0  0  0  0
  -31.3072  -21.2063   23.8090 O   0  0  0  0  0  0  0  0  0  0  0  0
  -22.3161  -25.3850   19.5631 O   0  0  0  0  0  0  0  0  0  0  0  0
  -23.3373  -24.0905   16.1754 O   0  0  0  0  0  0  0  0  0  0  0  0
  -26.6200  -21.1874   17.9967 O   0  0  0  0  0  0  0  0  0  0  0  0
  -31.8581  -14.9330   20.1794 O   0  0  0  0  0  0  0  0  0  0  0  0
  -21.6107   -7.0200   21.7085 O   0  0  0  0  0  0  0  0  0  0  0  0
  -27.7311  -25.2739   23.3276 O   0  0  0  0  0  0  0  0  0  1  0  0
  -18.6249   -6.8620   26.3415 F   0  0  0  0  0  0  0  0  0  0  0  0
  -22.0618   -5.0754   23.6210 F   0  0  0  0  0  0  0  0  0  0  0  0
  -29.5293  -17.8565   22.9083 S   0  0  0  0  0  0  0  0  0  0  0  0
  1  2  1  0  0  0  0
  1  5  2  0  0  0  0
  2  6  2  0  0  0  0
  3  8  2  0  0  0  0
  3 15  1  0  0  0  0
  4  9  1  0  0  0  0
  4 15  2  0  0  0  0
  5 17  1  0  0  0  0
  6 19  1  0  0  0  0
  7 10  2  0  0  0  0
  7 18  1  0  0  0  0
  8 21  1  0  0  0  0
  9 21  2  0  0  0  0
 10 22  1  0  0  0  0
 11 12  2  0  0  0  0
 11 23  1  0  0  0  0
 12 24  1  0  0  0  0
 13 20  1  0  0  0  0
 13 22  2  0  0  0  0
 14 24  2  0  0  0  0
 14 25  1  0  0  0  0
 15 26  1  0  0  0  0
 16 26  1  0  0  0  0
 16 29  2  0  0  0  0
 16 31  1  0  0  0  0
 17 19  2  0  0  0  0
 17 37  1  0  0  0  0
 18 20  2  0  0  0  0
 18 38  1  0  0  0  0
 19 46  1  0  0  0  0
 20 39  1  0  0  0  0
 21 81  1  0  0  0  0
 22 82  1  0  0  0  0
 23 25  2  0  0  0  0
 23 81  1  0  0  0  0
 24 83  1  0  0  0  0
 25 84  1  0  0  0  0
 26 63  2  0  0  0  0
 27 28  2  0  0  0  0
 27 32  1  0  0  0  0
 27 85  1  0  0  0  0
 28 49  1  0  0  0  0
 28 64  1  0  0  0  0
 29 65  1  0  0  0  0
 29 68  1  0  0  0  0
 30 64  2  0  0  0  0
 30 70  1  0  0  0  0
 30 85  1  0  0  0  0
 31 69  1  0  0  0  0
 31 75  2  0  0  0  0
 32 71  1  0  0  0  0
 32 76  2  0  0  0  0
 33 47  1  0  0  0  0
 33 72  1  0  0  0  0
 33 77  2  0  0  0  0
 34 59  1  0  0  0  0
 34 66  1  0  0  0  0
 34 78  2  0  0  0  0
 35 60  1  0  0  0  0
 35 73  1  0  0  0  0
 35 79  2  0  0  0  0
 36 67  1  0  0  0  0
 36 70  1  0  0  0  0
 36 80  2  0  0  0  0
 37 40  1  0  0  0  0
 38 47  1  0  0  0  0
 39 66  1  0  0  0  0
 40 42  1  0  0  0  0
 41 43  1  0  0  0  0
 41 44  1  0  0  0  0
 42 46  1  0  0  0  0
 43 48  1  0  0  0  0
 44 67  1  0  0  0  0
 45 48  1  0  0  0  0
 45 67  1  0  0  0  0
 46 72  1  0  0  0  0
 47 66  1  0  0  0  0
 48 65  1  0  0  0  0
 50 60  1  0  0  0  0
 51 61  1  0  0  0  0
 52 62  1  0  0  0  0
 53 62  1  0  0  0  0
 54 62  1  0  0  0  0
 55 74  1  0  0  0  0
 56 57  1  0  0  0  0
 56 58  1  0  0  0  0
 57 61  1  0  0  0  0
 58 71  1  0  0  0  0
 59 62  1  0  0  0  0
 59 73  1  0  0  0  0
 60 74  1  0  0  0  0
 61 82  1  0  0  0  0
 63 65  1  0  0  0  0
M  CHG  1  74   1
M  ISO  4  36 100  61 101  70 100  82 101
M  END
> <Batch ID>
0189

> <Smiles>
CNC(C)C(=O)NC(C(=O)N1Cc2cc([101O:1][101CH:1](C)CCCNC(=O)c3sc([100NH:0][100C:0](=O)N4CCCC(n5nc(-c6ccc(Oc7ccc(F)cc7F)cc6)c(C(N)=O)c5N)C4)nc3C)ccc2CC1C(=O)NC1CCCc2ccccc21)C(C)(C)C

> <Shape>
0.213

> <Color>
0.188

> <Negative vol penalty>
0.000

$$$$

  -OEChem-04052305183D

 85 93  0     1  0  0  0  0  0999 V2000
  -27.6076  -23.7988   17.8668 C   0  0  0  0  0  0  0  0  0  0  0  0
  -26.3919  -24.2958   18.3255 C   0  0  0  0  0  0  0  0  0  0  0  0
  -27.1966  -14.0170   19.7839 C   0  0  0  0  0  0  0  0  0  0  0  0
  -24.8477  -14.4840   20.1026 C   0  0  0  0  0  0  0  0  0  0  0  0
  -28.7861  -24.1078   18.5448 C   0  0  0  0  0  0  0  0  0  0  0  0
  -26.3538  -25.1012   19.4631 C   0  0  0  0  0  0  0  0  0  0  0  0
  -23.3845  -29.1605   18.8710 C   0  0  0  0  0  0  0  0  0  0  0  0
  -26.9832  -12.6897   20.1562 C   0  0  0  0  0  0  0  0  0  0  0  0
  -24.6343  -13.1567   20.4748 C   0  0  0  0  0  0  0  0  0  0  0  0
  -22.0082  -28.9630   18.9735 C   0  0  0  0  0  0  0  0  0  0  0  0
  -24.2899  -10.1657   18.9400 C   0  0  0  0  0  0  0  0  0  0  0  0
  -23.1871   -9.5100   18.3927 C   0  0  0  0  0  0  0  0  0  0  0  0
  -22.0638  -29.7936   21.2376 C   0  0  0  0  0  0  0  0  0  0  0  0
  -22.3012   -9.1483   20.6112 C   0  0  0  0  0  0  0  0  0  0  0  0
  -26.1288  -14.9141   19.7572 C   0  0  0  0  0  0  0  0  0  0  0  0
  -26.8521  -16.7541   18.1450 C   0  0  0  0  0  0  0  0  0  0  0  0
  -28.7635  -24.9254   19.6857 C   0  0  0  0  0  0  0  0  0  0  0  0
  -24.1138  -29.6666   19.9566 C   0  0  0  0  0  0  0  0  0  0  0  0
  -27.5329  -25.4203   20.1578 C   0  0  0  0  0  0  0  0  0  0  0  0
  -23.4488  -29.9989   21.1455 C   0  0  0  0  0  0  0  0  0  0  0  0
  -25.7021  -12.2596   20.5016 C   0  0  0  0  0  0  0  0  0  0  0  0
  -21.3480  -29.2768   20.1579 C   0  0  0  0  0  0  0  0  0  0  0  0
  -24.3984  -10.3126   20.3228 C   0  0  0  0  0  0  0  0  0  0  0  0
  -22.1927   -9.0014   19.2283 C   0  0  0  0  0  0  0  0  0  0  0  0
  -23.4041   -9.8040   21.1584 C   0  0  0  0  0  0  0  0  0  0  0  0
  -26.3487  -16.2854   19.3733 C   0  0  0  0  0  0  0  0  0  0  0  0
  -19.7707  -23.4248   20.4834 C   0  0  0  0  0  0  0  0  0  0  0  0
  -26.8690  -18.1208   18.2800 C   0  0  0  0  0  0  0  0  0  0  0  0
  -19.2466  -22.4021   19.7209 C   0  0  0  0  0  0  0  0  0  0  0  0
  -21.4568  -22.0274   20.6026 C   0  0  0  0  0  0  0  0  0  0  0  0
  -27.2672  -16.0197   16.9857 C   0  0  0  0  0  0  0  0  0  0  0  0
  -26.4824  -28.5734   21.7726 C   0  0  0  0  0  0  0  0  0  0  0  0
  -26.3948  -31.5701   23.0113 C   0  0  0  0  0  0  0  0  0  0  0  0
  -19.5318  -25.7108   21.5060 C   0  0  0  0  0  0  0  0  0  0  0  0
  -24.6000  -34.4146   23.5899 C   0  0  0  0  0  0  0  0  0  0  0  0
  -23.7411  -21.9281   21.6602 C   0  0  0  0  0  0  0  0  0  0  0  0
  -30.0576  -25.1932   20.4126 C   0  0  0  0  0  0  0  0  0  0  0  0
  -25.5936  -29.8989   19.8209 C   0  0  0  0  0  0  0  0  0  0  0  0
  -24.1826  -30.5642   22.3331 C   0  0  0  0  0  0  0  0  0  0  0  0
  -29.9753  -26.3604   21.3930 C   0  0  0  0  0  0  0  0  0  0  0  0
  -27.2811  -21.5516   21.5957 C   0  0  0  0  0  0  0  0  0  0  0  0
  -28.7142  -26.2543   22.2446 C   0  0  0  0  0  0  0  0  0  0  0  0
  -27.4897  -20.2039   20.9012 C   0  0  0  0  0  0  0  0  0  0  0  0
  -26.0482  -21.5400   22.4977 C   0  0  0  0  0  0  0  0  0  0  0  0
  -25.0159  -19.7525   21.1530 C   0  0  0  0  0  0  0  0  0  0  0  0
  -27.4536  -26.3176   21.3738 C   0  0  1  0  0  0  0  0  0  0  0  0
  -26.3180  -29.9369   21.1630 C   0  0  1  0  0  0  0  0  0  0  0  0
  -26.2088  -19.7356   20.1832 C   0  0  2  0  0  0  0  0  0  0  0  0
  -17.4565  -25.8821   23.6913 C   0  0  0  0  0  0  0  0  0  0  0  0
  -24.7854  -36.6778   24.6580 C   0  0  0  0  0  0  0  0  0  0  0  0
  -26.1317  -30.2882   25.7676 C   0  0  0  0  0  0  0  0  0  0  0  0
  -25.3778  -32.5064   26.6505 C   0  0  0  0  0  0  0  0  0  0  0  0
  -27.6621  -32.2641   25.6779 C   0  0  0  0  0  0  0  0  0  0  0  0
  -24.0964  -35.7961   21.0215 C   0  0  0  0  0  0  0  0  0  0  0  0
  -17.2176  -26.4305   22.2902 C   0  0  0  0  0  0  0  0  0  0  0  0
  -18.2128  -27.4576   20.1993 C   0  0  0  0  0  0  0  0  0  0  0  0
  -19.4393  -28.0259   19.4889 C   0  0  0  0  0  0  0  0  0  1  0  0
  -25.6526  -32.2375   24.1439 C   0  0  1  0  0  0  0  0  0  0  0  0
  -18.5198  -26.8612   21.5890 C   0  0  2  0  0  0  0  0  0  0  0  0
  -24.9355  -35.8790   23.3726 C   0  0  2  0  0  0  0  0  0  0  0  0
  -26.1922  -31.8116   25.5384 C   0  0  0  0  0  0  0  0  0  0  0  0
  -26.0664  -17.2741   20.2259 N   0  0  0  0  0  0  0  0  0  0  0  0
  -21.0378  -23.2116   20.9901 N   0  0  0  0  0  0  0  0  0  0  0  0
  -26.3936  -18.3777   19.5322 N   0  0  0  0  0  0  0  0  0  0  0  0
  -25.6297  -30.7672   22.1535 N   0  0  0  0  0  0  0  0  0  0  0  0
  -24.8728  -21.0902   21.7487 N   0  0  0  0  0  0  0  0  0  0  0  0
  -27.2442  -19.1159   17.4485 N   0  0  0  0  0  0  0  0  0  0  0  0
  -26.3142  -15.7359   15.9980 N   0  0  0  0  0  0  0  0  0  0  0  0
  -19.0849  -24.6333   20.7536 N   0  0  0  0  0  0  0  0  0  0  0  0
  -22.6974  -21.4085   20.8951 N   0  0  0  0  0  0  0  0  0  0  0  0
  -27.1800  -27.6828   20.9791 N   0  0  0  0  0  0  0  0  0  0  0  0
  -25.7229  -33.6722   23.8886 N   0  0  0  0  0  0  0  0  0  0  0  0
  -24.0336  -36.4700   22.3440 N   0  3  0  0  0  0  0  0  0  0  0  0
  -28.4444  -15.6125   16.8380 O   0  0  0  0  0  0  0  0  0  0  0  0
  -26.0126  -28.3467   22.8814 O   0  0  0  0  0  0  0  0  0  0  0  0
  -27.6073  -31.7601   22.8879 O   0  0  0  0  0  0  0  0  0  0  0  0
  -20.6143  -25.8136   22.0803 O   0  0  0  0  0  0  0  0  0  0  0  0
  -23.4557  -33.9740   23.5068 O   0  0  0  0  0  0  0  0  0  0  0  0
  -23.7113  -23.0375   22.1990 O   0  0  0  0  0  0  0  0  0  0  0  0
  -25.4935  -10.9645   20.8646 O   0  0  0  0  0  0  0  0  0  0  0  0
  -20.0048  -29.0845   20.2609 O   0  0  0  0  0  0  0  0  0  1  0  0
  -21.1330   -8.3731   18.7025 F   0  0  0  0  0  0  0  0  0  0  0  0
  -23.5022   -9.9431   22.4876 F   0  0  0  0  0  0  0  0  0  0  0  0
  -18.0435  -22.4047   19.1407 F   0  0  0  0  0  0  0  0  0  0  0  0
  -20.3784  -21.1170   19.6263 S   0  0  0  0  0  0  0  0  0  0  0  0
  1  2  1  0  0  0  0
  1  5  2  0  0  0  0
  2  6  2  0  0  0  0
  3  8  2  0  0  0  0
  3 15  1  0  0  0  0
  4  9  1  0  0  0  0
  4 15  2  0  0  0  0
  5 17  1  0  0  0  0
  6 19  1  0  0  0  0
  7 10  2  0  0  0  0
  7 18  1  0  0  0  0
  8 21  1  0  0  0  0
  9 21  2  0  0  0  0
 10 22  1  0  0  0  0
 11 12  2  0  0  0  0
 11 23  1  0  0  0  0
 12 24  1  0  0  0  0
 13 20  1  0  0  0  0
 13 22  2  0  0  0  0
 14 24  2  0  0  0  0
 14 25  1  0  0  0  0
 15 26  1  0  0  0  0
 16 26  1  0  0  0  0
 16 28  2  0  0  0  0
 16 31  1  0  0  0  0
 17 19  2  0  0  0  0
 17 37  1  0  0  0  0
 18 20  2  0  0  0  0
 18 38  1  0  0  0  0
 19 46  1  0  0  0  0
 20 39  1  0  0  0  0
 21 80  1  0  0  0  0
 22 81  1  0  0  0  0
 23 25  2  0  0  0  0
 23 80  1  0  0  0  0
 24 82  1  0  0  0  0
 25 83  1  0  0  0  0
 26 62  2  0  0  0  0
 27 29  2  0  0  0  0
 27 63  1  0  0  0  0
 27 69  1  0  0  0  0
 28 64  1  0  0  0  0
 28 67  1  0  0  0  0
 29 84  1  0  0  0  0
 29 85  1  0  0  0  0
 30 63  2  0  0  0  0
 30 70  1  0  0  0  0
 30 85  1  0  0  0  0
 31 68  1  0  0  0  0
 31 74  2  0  0  0  0
 32 47  1  0  0  0  0
 32 71  1  0  0  0  0
 32 75  2  0  0  0  0
 33 58  1  0  0  0  0
 33 65  1  0  0  0  0
 33 76  2  0  0  0  0
 34 59  1  0  0  0  0
 34 69  1  0  0  0  0
 34 77  2  0  0  0  0
 35 60  1  0  0  0  0
 35 72  1  0  0  0  0
 35 78  2  0  0  0  0
 36 66  1  0  0  0  0
 36 70  1  0  0  0  0
 36 79  2  0  0  0  0
 37 40  1  0  0  0  0
 38 47  1  0  0  0  0
 39 65  1  0  0  0  0
 40 42  1  0  0  0  0
 41 43  1  0  0  0  0
 41 44  1  0  0  0  0
 42 46  1  0  0  0  0
 43 48  1  0  0  0  0
 44 66  1  0  0  0  0
 45 48  1  0  0  0  0
 45 66  1  0  0  0  0
 46 71  1  0  0  0  0
 47 65  1  0  0  0  0
 48 64  1  0  0  0  0
 49 55  1  0  0  0  0
 50 60  1  0  0  0  0
 51 61  1  0  0  0  0
 52 61  1  0  0  0  0
 53 61  1  0  0  0  0
 54 73  1  0  0  0  0
 55 59  1  0  0  0  0
 56 57  1  0  0  0  0
 56 59  1  0  0  0  0
 57 81  1  0  0  0  0
 58 61  1  0  0  0  0
 58 72  1  0  0  0  0
 60 73  1  0  0  0  0
 62 64  1  0  0  0  0
M  CHG  1  73   1
M  ISO  4  36 100  57 101  70 100  81 101
M  END
> <Batch ID>
0189

> <Smiles>
CCC(C[101CH2:1][101O:1]c1ccc2c(c1)CN(C(=O)C(NC(=O)C(C)NC)C(C)(C)C)C(C(=O)NC1CCCc3ccccc31)C2)C(=O)Nc1nc([100NH:0][100C:0](=O)N2CCCC(n3nc(-c4ccc(Oc5ccc(F)cc5F)cc4)c(C(N)=O)c3N)C2)sc1F

> <Shape>
0.280

> <Color>
0.060

> <Negative vol penalty>
0.000

$$$$

  -OEChem-04052305183D

 85 93  0     1  0  0  0  0  0999 V2000
  -17.6860  -26.4655   20.9382 C   0  0  0  0  0  0  0  0  0  0  0  0
  -18.7328  -25.8370   21.6052 C   0  0  0  0  0  0  0  0  0  0  0  0
  -23.9301   -9.5355   20.0603 C   0  0  0  0  0  0  0  0  0  0  0  0
  -24.4538   -9.9058   22.3896 C   0  0  0  0  0  0  0  0  0  0  0  0
  -17.9108  -27.6650   20.2640 C   0  0  0  0  0  0  0  0  0  0  0  0
  -20.0053  -26.4072   21.5974 C   0  0  0  0  0  0  0  0  0  0  0  0
  -24.1274  -26.2732   26.1246 C   0  0  0  0  0  0  0  0  0  0  0  0
  -23.5169   -8.2373   20.3596 C   0  0  0  0  0  0  0  0  0  0  0  0
  -24.0405   -8.6076   22.6889 C   0  0  0  0  0  0  0  0  0  0  0  0
  -25.2423  -25.4683   26.3544 C   0  0  0  0  0  0  0  0  0  0  0  0
  -21.1211   -6.9673   23.1437 C   0  0  0  0  0  0  0  0  0  0  0  0
  -20.3053   -6.7899   24.2611 C   0  0  0  0  0  0  0  0  0  0  0  0
  -26.6556  -27.1530   25.3626 C   0  0  0  0  0  0  0  0  0  0  0  0
  -21.9664   -5.3360   25.2431 C   0  0  0  0  0  0  0  0  0  0  0  0
  -24.3986  -10.3697   21.0753 C   0  0  0  0  0  0  0  0  0  0  0  0
  -24.0347  -12.8749   20.7598 C   0  0  0  0  0  0  0  0  0  0  0  0
  -19.1845  -28.2551   20.2560 C   0  0  0  0  0  0  0  0  0  0  0  0
  -24.2671  -27.5215   25.5011 C   0  0  0  0  0  0  0  0  0  0  0  0
  -20.2476  -27.6151   20.9212 C   0  0  0  0  0  0  0  0  0  0  0  0
  -25.5412  -27.9729   25.1282 C   0  0  0  0  0  0  0  0  0  0  0  0
  -23.5721   -7.7734   21.6738 C   0  0  0  0  0  0  0  0  0  0  0  0
  -26.5063  -25.9069   25.9708 C   0  0  0  0  0  0  0  0  0  0  0  0
  -22.3596   -6.3290   23.0760 C   0  0  0  0  0  0  0  0  0  0  0  0
  -20.7280   -5.9743   25.3108 C   0  0  0  0  0  0  0  0  0  0  0  0
  -22.7822   -5.5134   24.1256 C   0  0  0  0  0  0  0  0  0  0  0  0
  -24.8261  -11.7107   20.7667 C   0  0  0  0  0  0  0  0  0  0  0  0
  -31.9138  -17.5087   23.1256 C   0  0  0  0  0  0  0  0  0  0  0  0
  -31.2049  -16.3932   23.5194 C   0  0  0  0  0  0  0  0  0  0  0  0
  -24.9032  -13.8783   20.4059 C   0  0  0  0  0  0  0  0  0  0  0  0
  -30.3235  -18.5106   24.2557 C   0  0  0  0  0  0  0  0  0  0  0  0
  -22.6392  -13.0349   21.0476 C   0  0  0  0  0  0  0  0  0  0  0  0
  -23.1929  -28.8139   22.8030 C   0  0  0  0  0  0  0  0  0  0  0  0
  -24.5747  -31.4957   23.9949 C   0  0  0  0  0  0  0  0  0  0  0  0
  -29.6474  -20.8573   24.8714 C   0  0  0  0  0  0  0  0  0  0  0  0
  -26.9098  -32.8767   26.0655 C   0  0  0  0  0  0  0  0  0  0  0  0
  -30.8391  -14.4935   20.8925 C   0  0  0  0  0  0  0  0  0  0  0  0
  -19.3898  -29.5281   19.4737 C   0  0  0  0  0  0  0  0  0  0  0  0
  -23.0578  -28.3893   25.2844 C   0  0  0  0  0  0  0  0  0  0  0  0
  -25.7473  -29.3137   24.4738 C   0  0  0  0  0  0  0  0  0  0  0  0
  -20.6822  -30.2592   19.8282 C   0  0  0  0  0  0  0  0  0  0  0  0
  -28.9077  -14.6560   17.9059 C   0  0  0  0  0  0  0  0  0  0  0  0
  -21.8524  -29.2819   19.8762 C   0  0  0  0  0  0  0  0  0  0  0  0
  -27.5712  -14.0246   18.2998 C   0  0  0  0  0  0  0  0  0  0  0  0
  -30.0829  -13.9647   18.5936 C   0  0  0  0  0  0  0  0  0  0  0  0
  -28.6388  -13.2428   20.4557 C   0  0  0  0  0  0  0  0  0  0  0  0
  -21.6364  -28.2152   20.9565 C   0  0  1  0  0  0  0  0  0  0  0  0
  -23.2527  -29.4199   24.1766 C   0  0  1  0  0  0  0  0  0  0  0  0
  -27.4196  -13.9421   19.8306 C   0  0  2  0  0  0  0  0  0  0  0  0
  -33.1432  -17.5135   22.3068 C   0  0  0  0  0  0  0  0  0  0  0  0
  -27.8284  -35.0943   26.7973 C   0  0  0  0  0  0  0  0  0  0  0  0
  -26.0945  -31.7330   21.3598 C   0  0  0  0  0  0  0  0  0  0  0  0
  -27.6469  -33.3460   22.4808 C   0  0  0  0  0  0  0  0  0  0  0  0
  -25.2241  -33.8976   22.2606 C   0  0  0  0  0  0  0  0  0  0  0  0
  -26.1280  -32.4025   28.8802 C   0  0  0  0  0  0  0  0  0  0  0  0
  -31.4550  -14.9631   23.2504 C   0  0  0  0  0  0  0  0  0  0  0  0
  -28.5312  -21.5220   25.6672 C   0  0  0  0  0  0  0  0  0  0  0  0
  -27.3929  -23.7105   26.1849 C   0  0  0  0  0  0  0  0  0  1  0  0
  -25.9461  -32.1208   23.9081 C   0  0  1  0  0  0  0  0  0  0  0  0
  -26.8151  -33.9974   27.0850 C   0  0  2  0  0  0  0  0  0  0  0  0
  -28.6771  -23.0377   25.7279 C   0  0  1  0  0  0  0  0  0  0  0  0
  -26.2241  -32.7482   22.5129 C   0  0  0  0  0  0  0  0  0  0  0  0
  -26.0995  -11.9509   20.4428 N   0  0  0  0  0  0  0  0  0  0  0  0
  -31.4097  -18.7238   23.5466 N   0  0  0  0  0  0  0  0  0  0  0  0
  -26.1147  -13.2776   20.2289 N   0  0  0  0  0  0  0  0  0  0  0  0
  -24.5332  -30.1231   24.2776 N   0  0  0  0  0  0  0  0  0  0  0  0
  -29.8778  -13.9210   20.0434 N   0  0  0  0  0  0  0  0  0  0  0  0
  -24.7410  -15.2072   20.2318 N   0  0  0  0  0  0  0  0  0  0  0  0
  -21.8942  -11.8997   21.3948 N   0  0  0  0  0  0  0  0  0  0  0  0
  -29.4933  -19.4737   24.8769 N   0  0  0  0  0  0  0  0  0  0  0  0
  -21.9203  -28.7587   22.2673 N   0  0  0  0  0  0  0  0  0  0  0  0
  -26.0351  -33.0653   25.0164 N   0  0  0  0  0  0  0  0  0  0  0  0
  -30.5642  -14.4143   22.2523 N   0  0  0  0  0  0  0  0  0  0  0  0
  -27.0675  -33.4724   28.4568 N   0  3  0  0  0  0  0  0  0  0  0  0
  -22.0664  -14.1489   20.9823 O   0  0  0  0  0  0  0  0  0  0  0  0
  -24.2251  -28.4264   22.2681 O   0  0  0  0  0  0  0  0  0  0  0  0
  -23.5768  -32.2008   23.8254 O   0  0  0  0  0  0  0  0  0  0  0  0
  -30.5343  -21.5055   24.3258 O   0  0  0  0  0  0  0  0  0  0  0  0
  -27.6850  -31.9305   26.1857 O   0  0  0  0  0  0  0  0  0  0  0  0
  -31.8637  -15.0399   20.4699 O   0  0  0  0  0  0  0  0  0  0  0  0
  -23.1687   -6.5067   21.9663 O   0  0  0  0  0  0  0  0  0  0  0  0
  -27.5961  -25.1229   26.1934 O   0  0  0  0  0  0  0  0  0  1  0  0
  -19.9451   -5.8052   26.3845 F   0  0  0  0  0  0  0  0  0  0  0  0
  -23.9715   -4.8986   24.0668 F   0  0  0  0  0  0  0  0  0  0  0  0
  -29.6458  -23.3315   26.6452 F   0  0  0  0  0  0  0  0  0  0  0  0
  -29.8512  -16.8731   24.4568 S   0  0  0  0  0  0  0  0  0  0  0  0
  1  2  1  0  0  0  0
  1  5  2  0  0  0  0
  2  6  2  0  0  0  0
  3  8  2  0  0  0  0
  3 15  1  0  0  0  0
  4  9  1  0  0  0  0
  4 15  2  0  0  0  0
  5 17  1  0  0  0  0
  6 19  1  0  0  0  0
  7 10  2  0  0  0  0
  7 18  1  0  0  0  0
  8 21  1  0  0  0  0
  9 21  2  0  0  0  0
 10 22  1  0  0  0  0
 11 12  2  0  0  0  0
 11 23  1  0  0  0  0
 12 24  1  0  0  0  0
 13 20  1  0  0  0  0
 13 22  2  0  0  0  0
 14 24  2  0  0  0  0
 14 25  1  0  0  0  0
 15 26  1  0  0  0  0
 16 26  1  0  0  0  0
 16 29  2  0  0  0  0
 16 31  1  0  0  0  0
 17 19  2  0  0  0  0
 17 37  1  0  0  0  0
 18 20  2  0  0  0  0
 18 38  1  0  0  0  0
 19 46  1  0  0  0  0
 20 39  1  0  0  0  0
 21 80  1  0  0  0  0
 22 81  1  0  0  0  0
 23 25  2  0  0  0  0
 23 80  1  0  0  0  0
 24 82  1  0  0  0  0
 25 83  1  0  0  0  0
 26 62  2  0  0  0  0
 27 28  2  0  0  0  0
 27 49  1  0  0  0  0
 27 63  1  0  0  0  0
 28 55  1  0  0  0  0
 28 85  1  0  0  0  0
 29 64  1  0  0  0  0
 29 67  1  0  0  0  0
 30 63  2  0  0  0  0
 30 69  1  0  0  0  0
 30 85  1  0  0  0  0
 31 68  1  0  0  0  0
 31 74  2  0  0  0  0
 32 47  1  0  0  0  0
 32 70  1  0  0  0  0
 32 75  2  0  0  0  0
 33 58  1  0  0  0  0
 33 65  1  0  0  0  0
 33 76  2  0  0  0  0
 34 56  1  0  0  0  0
 34 69  1  0  0  0  0
 34 77  2  0  0  0  0
 35 59  1  0  0  0  0
 35 71  1  0  0  0  0
 35 78  2  0  0  0  0
 36 66  1  0  0  0  0
 36 72  1  0  0  0  0
 36 79  2  0  0  0  0
 37 40  1  0  0  0  0
 38 47  1  0  0  0  0
 39 65  1  0  0  0  0
 40 42  1  0  0  0  0
 41 43  1  0  0  0  0
 41 44  1  0  0  0  0
 42 46  1  0  0  0  0
 43 48  1  0  0  0  0
 44 66  1  0  0  0  0
 45 48  1  0  0  0  0
 45 66  1  0  0  0  0
 46 70  1  0  0  0  0
 47 65  1  0  0  0  0
 48 64  1  0  0  0  0
 50 59  1  0  0  0  0
 51 61  1  0  0  0  0
 52 61  1  0  0  0  0
 53 61  1  0  0  0  0
 54 73  1  0  0  0  0
 55 72  1  0  0  0  0
 56 60  1  0  0  0  0
 57 60  1  0  0  0  0
 57 81  1  0  0  0  0
 58 61  1  0  0  0  0
 58 71  1  0  0  0  0
 59 73  1  0  0  0  0
 60 84  1  0  0  0  0
 62 64  1  0  0  0  0
M  CHG  1  73   1
M  ISO  4  36 100  57 101  72 100  81 101
M  END
> <Batch ID>
0189

> <Smiles>
CNC(C)C(=O)NC(C(=O)N1Cc2cc([101O:1][101CH2:1]C(F)CC(=O)Nc3nc(C)c(C[100NH:0][100C:0](=O)N4CCCC(n5nc(-c6ccc(Oc7ccc(F)cc7F)cc6)c(C(N)=O)c5N)C4)s3)ccc2CC1C(=O)NC1CCCc2ccccc21)C(C)(C)C

> <Shape>
0.273

> <Color>
0.158

> <Negative vol penalty>
0.000

$$$$

  -OEChem-04052305183D

 88 96  0     1  0  0  0  0  0999 V2000
  -30.6377  -22.1396   21.9456 C   0  0  0  0  0  0  0  0  0  0  0  0
  -29.3310  -22.2539   21.4820 C   0  0  0  0  0  0  0  0  0  0  0  0
  -29.7454  -28.2588   20.9073 C   0  0  0  0  0  0  0  0  0  0  0  0
  -28.0988  -27.5172   19.3024 C   0  0  0  0  0  0  0  0  0  0  0  0
  -31.2899  -20.9084   21.8921 C   0  0  0  0  0  0  0  0  0  0  0  0
  -28.6761  -21.1373   20.9637 C   0  0  0  0  0  0  0  0  0  0  0  0
  -23.9311  -20.6986   22.6777 C   0  0  0  0  0  0  0  0  0  0  0  0
  -30.5227  -27.1345   20.6293 C   0  0  0  0  0  0  0  0  0  0  0  0
  -28.8761  -26.3929   19.0243 C   0  0  0  0  0  0  0  0  0  0  0  0
  -22.9667  -21.5234   22.1002 C   0  0  0  0  0  0  0  0  0  0  0  0
  -31.6303  -25.6580   17.2091 C   0  0  0  0  0  0  0  0  0  0  0  0
  -31.8102  -25.3114   15.8700 C   0  0  0  0  0  0  0  0  0  0  0  0
  -22.2407  -19.6907   20.7098 C   0  0  0  0  0  0  0  0  0  0  0  0
  -19.9555  -26.9269   21.9004 C   0  0  0  0  0  0  0  0  0  0  0  0
  -30.7798  -23.1663   16.2867 C   0  0  0  0  0  0  0  0  0  0  0  0
  -18.3370  -26.3594   23.4691 C   0  0  0  0  0  0  0  0  0  0  0  0
  -28.5333  -28.4501   20.2439 C   0  0  0  0  0  0  0  0  0  0  0  0
  -27.7874  -30.8642   19.8924 C   0  0  0  0  0  0  0  0  0  0  0  0
  -30.6393  -19.7740   21.3818 C   0  0  0  0  0  0  0  0  0  0  0  0
  -24.0650  -19.3645   22.2672 C   0  0  0  0  0  0  0  0  0  0  0  0
  -29.3207  -19.8901   20.9021 C   0  0  0  0  0  0  0  0  0  0  0  0
  -23.2059  -18.8503   21.2855 C   0  0  0  0  0  0  0  0  0  0  0  0
  -19.2421  -25.8779   22.5491 C   0  0  0  0  0  0  0  0  0  0  0  0
  -30.0882  -26.2016   19.6877 C   0  0  0  0  0  0  0  0  0  0  0  0
  -22.1232  -21.0203   21.1141 C   0  0  0  0  0  0  0  0  0  0  0  0
  -31.0252  -24.7587   18.0870 C   0  0  0  0  0  0  0  0  0  0  0  0
  -31.3849  -24.0656   15.4088 C   0  0  0  0  0  0  0  0  0  0  0  0
  -30.5999  -23.5129   17.6258 C   0  0  0  0  0  0  0  0  0  0  0  0
  -27.7296  -29.6110   20.5311 C   0  0  0  0  0  0  0  0  0  0  0  0
  -19.5681  -28.1705   22.3492 C   0  0  0  0  0  0  0  0  0  0  0  0
  -26.8294  -31.6171   20.5262 C   0  0  0  0  0  0  0  0  0  0  0  0
  -28.6316  -31.3079   18.8218 C   0  0  0  0  0  0  0  0  0  0  0  0
  -26.3779  -17.6556   20.9131 C   0  0  0  0  0  0  0  0  0  0  0  0
  -24.3257  -15.1958   21.4233 C   0  0  0  0  0  0  0  0  0  0  0  0
  -21.1103  -14.1571   21.9019 C   0  0  0  0  0  0  0  0  0  0  0  0
  -20.3085  -23.9103   21.3969 C   0  0  0  0  0  0  0  0  0  0  0  0
  -21.8419  -30.1914   23.5168 C   0  0  0  0  0  0  0  0  0  0  0  0
  -31.4015  -18.4751   21.3007 C   0  0  0  0  0  0  0  0  0  0  0  0
  -25.0926  -18.4804   22.9190 C   0  0  0  0  0  0  0  0  0  0  0  0
  -23.2953  -17.4195   20.8239 C   0  0  0  0  0  0  0  0  0  0  0  0
  -30.5076  -17.2570   21.0826 C   0  0  0  0  0  0  0  0  0  0  0  0
  -24.6064  -32.0736   24.7382 C   0  0  0  0  0  0  0  0  0  0  0  0
  -29.4914  -17.5314   19.9786 C   0  0  0  0  0  0  0  0  0  0  0  0
  -25.7256  -31.7689   23.7408 C   0  0  0  0  0  0  0  0  0  0  0  0
  -23.7236  -30.8525   24.9861 C   0  0  0  0  0  0  0  0  0  0  0  0
  -24.2857  -29.9289   22.7714 C   0  0  0  0  0  0  0  0  0  0  0  0
  -28.5682  -18.6963   20.3557 C   0  0  1  0  0  0  0  0  0  0  0  0
  -25.4811  -17.2815   22.0591 C   0  0  1  0  0  0  0  0  0  0  0  0
  -25.1689  -31.1457   22.4466 C   0  0  2  0  0  0  0  0  0  0  0  0
  -18.4039  -22.3234   19.5963 C   0  0  0  0  0  0  0  0  0  0  0  0
  -19.7416  -12.0831   22.2518 C   0  0  0  0  0  0  0  0  0  0  0  0
  -18.8224  -32.1093   20.5103 C   0  0  0  0  0  0  0  0  0  0  0  0
  -21.2881  -31.8115   20.2782 C   0  0  0  0  0  0  0  0  0  0  0  0
  -19.7906  -31.2783   18.3537 C   0  0  0  0  0  0  0  0  0  0  0  0
  -24.5934  -14.5221   18.4594 C   0  0  0  0  0  0  0  0  0  0  0  0
  -22.5405  -13.1042   18.6678 C   0  0  0  0  0  0  0  0  0  0  0  0
  -24.5832  -12.5391   19.9832 C   0  0  0  0  0  0  0  0  0  0  0  0
  -20.1615  -15.0893   24.5457 C   0  0  0  0  0  0  0  0  0  0  0  0
  -18.8118  -21.8905   21.0002 C   0  0  0  0  0  0  0  0  0  0  0  0
  -19.8570  -29.7593   20.4045 C   0  0  0  0  0  0  0  0  0  0  0  0
  -20.0664  -29.4977   21.9277 C   0  0  2  0  0  0  0  0  0  0  0  0
  -23.2067  -14.5565   20.6371 C   0  0  1  0  0  0  0  0  0  0  0  0
  -20.4967  -13.2185   22.9251 C   0  0  2  0  0  0  0  0  0  0  0  0
  -20.1999  -22.3857   21.4181 C   0  0  1  0  0  0  0  0  0  1  0  0
  -19.9143  -31.2271   19.8866 C   0  0  0  0  0  0  0  0  0  0  0  0
  -23.7303  -13.7080   19.4440 C   0  0  0  0  0  0  0  0  0  0  0  0
  -26.8078  -29.5664   21.4967 N   0  0  0  0  0  0  0  0  0  0  0  0
  -26.2777  -30.8010   21.4695 N   0  0  0  0  0  0  0  0  0  0  0  0
  -24.3203  -16.5965   21.4870 N   0  0  0  0  0  0  0  0  0  0  0  0
  -23.2268  -30.3105   23.7190 N   0  0  0  0  0  0  0  0  0  0  0  0
  -26.4135  -32.8910   20.3631 N   0  0  0  0  0  0  0  0  0  0  0  0
  -29.5611  -30.4061   18.2861 N   0  0  0  0  0  0  0  0  0  0  0  0
  -19.4237  -24.4977   22.2947 N   0  0  0  0  0  0  0  0  0  0  0  0
  -27.5605  -18.2581   21.2976 N   0  0  0  0  0  0  0  0  0  0  0  0
  -22.4088  -13.8051   21.5999 N   0  0  0  0  0  0  0  0  0  0  0  0
  -21.4560  -29.6745   22.2861 N   0  0  0  0  0  0  0  0  0  0  0  0
  -19.5470  -13.9588   23.8032 N   0  3  0  0  0  0  0  0  0  0  0  0
  -28.5751  -32.4749   18.3652 O   0  0  0  0  0  0  0  0  0  0  0  0
  -26.0239  -17.4139   19.7651 O   0  0  0  0  0  0  0  0  0  0  0  0
  -25.1693  -14.4787   21.9670 O   0  0  0  0  0  0  0  0  0  0  0  0
  -20.4976  -15.1054   21.4161 O   0  0  0  0  0  0  0  0  0  0  0  0
  -21.1140  -24.4795   20.6658 O   0  0  0  0  0  0  0  0  0  0  0  0
  -21.0108  -30.5263   24.3678 O   0  0  0  0  0  0  0  0  0  0  0  0
  -30.8466  -25.1045   19.4160 O   0  0  0  0  0  0  0  0  0  0  0  0
  -21.1815  -21.8233   20.5483 O   0  0  0  0  0  0  0  0  0  1  0  0
  -31.5564  -23.7336   14.1225 F   0  0  0  0  0  0  0  0  0  0  0  0
  -30.0168  -22.6452   18.4643 F   0  0  0  0  0  0  0  0  0  0  0  0
  -18.3494  -28.0700   23.5480 S   0  0  0  0  0  0  0  0  0  0  0  0
  1  2  1  0  0  0  0
  1  5  2  0  0  0  0
  2  6  2  0  0  0  0
  3  8  2  0  0  0  0
  3 17  1  0  0  0  0
  4  9  1  0  0  0  0
  4 17  2  0  0  0  0
  5 19  1  0  0  0  0
  6 21  1  0  0  0  0
  7 10  2  0  0  0  0
  7 20  1  0  0  0  0
  8 24  1  0  0  0  0
  9 24  2  0  0  0  0
 10 25  1  0  0  0  0
 11 12  2  0  0  0  0
 11 26  1  0  0  0  0
 12 27  1  0  0  0  0
 13 22  1  0  0  0  0
 13 25  2  0  0  0  0
 14 23  1  0  0  0  0
 14 30  2  0  0  0  0
 15 27  2  0  0  0  0
 15 28  1  0  0  0  0
 16 23  2  0  0  0  0
 16 88  1  0  0  0  0
 17 29  1  0  0  0  0
 18 29  1  0  0  0  0
 18 31  2  0  0  0  0
 18 32  1  0  0  0  0
 19 21  2  0  0  0  0
 19 38  1  0  0  0  0
 20 22  2  0  0  0  0
 20 39  1  0  0  0  0
 21 47  1  0  0  0  0
 22 40  1  0  0  0  0
 23 73  1  0  0  0  0
 24 84  1  0  0  0  0
 25 85  1  0  0  0  0
 26 28  2  0  0  0  0
 26 84  1  0  0  0  0
 27 86  1  0  0  0  0
 28 87  1  0  0  0  0
 29 67  2  0  0  0  0
 30 61  1  0  0  0  0
 30 88  1  0  0  0  0
 31 68  1  0  0  0  0
 31 71  1  0  0  0  0
 32 72  1  0  0  0  0
 32 78  2  0  0  0  0
 33 48  1  0  0  0  0
 33 74  1  0  0  0  0
 33 79  2  0  0  0  0
 34 62  1  0  0  0  0
 34 69  1  0  0  0  0
 34 80  2  0  0  0  0
 35 63  1  0  0  0  0
 35 75  1  0  0  0  0
 35 81  2  0  0  0  0
 36 64  1  0  0  0  0
 36 73  1  0  0  0  0
 36 82  2  0  0  0  0
 37 70  1  0  0  0  0
 37 76  1  0  0  0  0
 37 83  2  0  0  0  0
 38 41  1  0  0  0  0
 39 48  1  0  0  0  0
 40 69  1  0  0  0  0
 41 43  1  0  0  0  0
 42 44  1  0  0  0  0
 42 45  1  0  0  0  0
 43 47  1  0  0  0  0
 44 49  1  0  0  0  0
 45 70  1  0  0  0  0
 46 49  1  0  0  0  0
 46 70  1  0  0  0  0
 47 74  1  0  0  0  0
 48 69  1  0  0  0  0
 49 68  1  0  0  0  0
 50 59  1  0  0  0  0
 51 63  1  0  0  0  0
 52 65  1  0  0  0  0
 53 65  1  0  0  0  0
 54 65  1  0  0  0  0
 55 66  1  0  0  0  0
 56 66  1  0  0  0  0
 57 66  1  0  0  0  0
 58 77  1  0  0  0  0
 59 64  1  0  0  0  0
 60 61  1  0  0  0  0
 60 65  1  0  0  0  0
 61 76  1  0  0  0  0
 62 66  1  0  0  0  0
 62 75  1  0  0  0  0
 63 77  1  0  0  0  0
 64 85  1  0  0  0  0
 67 68  1  0  0  0  0
M  CHG  1  77   1
M  ISO  4  37 100  64 101  76 100  85 101
M  END
> <Batch ID>
0189

> <Smiles>
CC[101CH:1](C(=O)Nc1csc(C(CC(C)(C)C)[100NH:0][100C:0](=O)N2CCCC(n3nc(-c4ccc(Oc5ccc(F)cc5F)cc4)c(C(N)=O)c3N)C2)c1)[101O:1]c1ccc2c(c1)CN(C(=O)C(NC(=O)C(C)NC)C(C)(C)C)C(C(=O)NC1CCCc3ccccc31)C2

> <Shape>
0.236

> <Color>
0.052

> <Negative vol penalty>
0.000

$$$$

  -OEChem-04052305183D

 82 90  0     1  0  0  0  0  0999 V2000
  -26.3875  -37.9970   26.9364 C   0  0  0  0  0  0  0  0  0  0  0  0
  -25.7753  -36.8531   27.4386 C   0  0  0  0  0  0  0  0  0  0  0  0
  -23.3370   -9.6098   21.0311 C   0  0  0  0  0  0  0  0  0  0  0  0
  -23.9845  -10.4291   23.2098 C   0  0  0  0  0  0  0  0  0  0  0  0
  -26.4666  -38.1963   25.5588 C   0  0  0  0  0  0  0  0  0  0  0  0
  -25.2408  -35.9083   26.5632 C   0  0  0  0  0  0  0  0  0  0  0  0
  -27.5260  -29.0771   26.6338 C   0  0  0  0  0  0  0  0  0  0  0  0
  -22.6719   -8.5405   21.6309 C   0  0  0  0  0  0  0  0  0  0  0  0
  -23.3194   -9.3598   23.8096 C   0  0  0  0  0  0  0  0  0  0  0  0
  -27.7598  -27.7051   26.7290 C   0  0  0  0  0  0  0  0  0  0  0  0
  -19.7273   -8.0051   23.2042 C   0  0  0  0  0  0  0  0  0  0  0  0
  -18.4522   -7.6895   22.7351 C   0  0  0  0  0  0  0  0  0  0  0  0
  -26.2759  -27.3117   24.8605 C   0  0  0  0  0  0  0  0  0  0  0  0
  -19.2201   -5.4787   22.1354 C   0  0  0  0  0  0  0  0  0  0  0  0
  -29.1090  -19.5474   20.7984 C   0  0  0  0  0  0  0  0  0  0  0  0
  -23.9933  -10.5542   21.8205 C   0  0  0  0  0  0  0  0  0  0  0  0
  -24.1475  -12.9225   20.8851 C   0  0  0  0  0  0  0  0  0  0  0  0
  -25.9415  -37.2489   24.6660 C   0  0  0  0  0  0  0  0  0  0  0  0
  -26.6772  -29.5736   25.6405 C   0  0  0  0  0  0  0  0  0  0  0  0
  -25.3118  -36.0958   25.1723 C   0  0  0  0  0  0  0  0  0  0  0  0
  -26.0477  -28.6861   24.7523 C   0  0  0  0  0  0  0  0  0  0  0  0
  -22.6631   -8.4154   23.0201 C   0  0  0  0  0  0  0  0  0  0  0  0
  -27.1361  -26.8246   25.8447 C   0  0  0  0  0  0  0  0  0  0  0  0
  -20.7489   -7.0576   23.1388 C   0  0  0  0  0  0  0  0  0  0  0  0
  -18.1986   -6.4263   22.2007 C   0  0  0  0  0  0  0  0  0  0  0  0
  -20.4953   -5.7943   22.6044 C   0  0  0  0  0  0  0  0  0  0  0  0
  -24.6810  -11.6587   21.2015 C   0  0  0  0  0  0  0  0  0  0  0  0
  -30.0619  -18.7471   21.3931 C   0  0  0  0  0  0  0  0  0  0  0  0
  -25.1954  -13.6053   20.3178 C   0  0  0  0  0  0  0  0  0  0  0  0
  -29.3161  -20.6333   22.6925 C   0  0  0  0  0  0  0  0  0  0  0  0
  -22.8230  -13.4334   21.0861 C   0  0  0  0  0  0  0  0  0  0  0  0
  -25.0997  -32.5823   24.0484 C   0  0  0  0  0  0  0  0  0  0  0  0
  -30.5919  -15.0761   20.3841 C   0  0  0  0  0  0  0  0  0  0  0  0
  -25.9057  -30.6896   21.7728 C   0  0  0  0  0  0  0  0  0  0  0  0
  -27.3236  -28.5243   19.5505 C   0  0  0  0  0  0  0  0  0  0  0  0
  -26.0087  -37.5308   23.1859 C   0  0  0  0  0  0  0  0  0  0  0  0
  -26.3482  -31.0383   25.5397 C   0  0  0  0  0  0  0  0  0  0  0  0
  -25.1155  -29.2621   23.7217 C   0  0  0  0  0  0  0  0  0  0  0  0
  -25.7504  -36.3009   22.3192 C   0  0  0  0  0  0  0  0  0  0  0  0
  -29.7246  -12.0012   18.7616 C   0  0  0  0  0  0  0  0  0  0  0  0
  -24.5275  -35.5406   22.8224 C   0  0  0  0  0  0  0  0  0  0  0  0
  -28.3028  -11.7264   19.2496 C   0  0  0  0  0  0  0  0  0  0  0  0
  -30.5691  -12.6627   19.8462 C   0  0  0  0  0  0  0  0  0  0  0  0
  -28.5512  -13.6437   20.8890 C   0  0  0  0  0  0  0  0  0  0  0  0
  -24.7423  -35.0360   24.2544 C   0  0  1  0  0  0  0  0  0  0  0  0
  -26.1530  -31.5145   24.0890 C   0  0  1  0  0  0  0  0  0  0  0  0
  -27.6554  -13.0036   19.8136 C   0  0  2  0  0  0  0  0  0  0  0  0
  -27.6265  -28.1465   17.0882 C   0  0  0  0  0  0  0  0  0  0  0  0
  -23.0140  -29.7410   21.5663 C   0  0  0  0  0  0  0  0  0  0  0  0
  -23.6349  -28.5333   19.4630 C   0  0  0  0  0  0  0  0  0  0  0  0
  -23.8382  -31.0168   19.5795 C   0  0  0  0  0  0  0  0  0  0  0  0
  -30.2707  -28.6806   19.7713 C   0  0  0  0  0  0  0  0  0  0  0  0
  -30.7232  -17.5295   20.8856 C   0  0  0  0  0  0  0  0  0  0  0  0
  -29.8460  -16.2644   20.9369 C   0  0  0  0  0  0  0  0  0  0  0  0
  -28.2031  -22.6863   23.5713 C   0  0  0  0  0  0  0  0  0  0  0  0
  -27.2966  -24.7270   24.7350 C   0  0  0  0  0  0  0  0  0  1  0  0
  -25.4875  -29.5775   20.8445 C   0  0  1  0  0  0  0  0  0  0  0  0
  -28.2198  -28.7583   18.3478 C   0  0  2  0  0  0  0  0  0  0  0  0
  -28.2651  -23.5529   24.8275 C   0  0  1  0  0  0  0  0  0  0  0  0
  -24.0074  -29.7118   20.3876 C   0  0  0  0  0  0  0  0  0  0  0  0
  -28.6798  -20.6292   21.5422 N   0  0  0  0  0  0  0  0  0  0  0  0
  -25.9679  -11.5429   20.8632 N   0  0  0  0  0  0  0  0  0  0  0  0
  -26.2517  -12.7426   20.3281 N   0  0  0  0  0  0  0  0  0  0  0  0
  -25.6994  -30.4818   23.1420 N   0  0  0  0  0  0  0  0  0  0  0  0
  -29.9096  -13.8594   20.3718 N   0  0  0  0  0  0  0  0  0  0  0  0
  -25.3072  -14.8536   19.8160 N   0  0  0  0  0  0  0  0  0  0  0  0
  -21.8683  -12.5988   21.6829 N   0  0  0  0  0  0  0  0  0  0  0  0
  -29.1282  -21.5810   23.6844 N   0  0  0  0  0  0  0  0  0  0  0  0
  -25.5851  -33.8595   24.2546 N   0  0  0  0  0  0  0  0  0  0  0  0
  -26.4526  -29.5745   19.7504 N   0  0  0  0  0  0  0  0  0  0  0  0
  -29.5623  -28.1532   18.5768 N   0  3  0  0  0  0  0  0  0  0  0  0
  -22.4914  -14.5901   20.7316 O   0  0  0  0  0  0  0  0  0  0  0  0
  -23.9321  -32.2718   23.8435 O   0  0  0  0  0  0  0  0  0  0  0  0
  -31.7454  -15.2273   19.9732 O   0  0  0  0  0  0  0  0  0  0  0  0
  -26.3968  -31.7181   21.2991 O   0  0  0  0  0  0  0  0  0  0  0  0
  -27.3870  -27.5097   20.2412 O   0  0  0  0  0  0  0  0  0  0  0  0
  -27.8864  -22.7649   25.9579 O   0  0  0  0  0  0  0  0  0  0  0  0
  -22.0141   -7.3722   23.6057 O   0  0  0  0  0  0  0  0  0  0  0  0
  -27.3723  -25.4868   25.9405 O   0  0  0  0  0  0  0  0  0  1  0  0
  -16.9737   -6.1228   21.7517 F   0  0  0  0  0  0  0  0  0  0  0  0
  -21.4724   -4.8795   22.5401 F   0  0  0  0  0  0  0  0  0  0  0  0
  -30.4449  -19.3659   22.9460 S   0  0  0  0  0  0  0  0  0  0  0  0
  1  2  1  0  0  0  0
  1  5  2  0  0  0  0
  2  6  2  0  0  0  0
  3  8  2  0  0  0  0
  3 16  1  0  0  0  0
  4  9  1  0  0  0  0
  4 16  2  0  0  0  0
  5 18  1  0  0  0  0
  6 20  1  0  0  0  0
  7 10  2  0  0  0  0
  7 19  1  0  0  0  0
  8 22  1  0  0  0  0
  9 22  2  0  0  0  0
 10 23  1  0  0  0  0
 11 12  2  0  0  0  0
 11 24  1  0  0  0  0
 12 25  1  0  0  0  0
 13 21  1  0  0  0  0
 13 23  2  0  0  0  0
 14 25  2  0  0  0  0
 14 26  1  0  0  0  0
 15 28  2  0  0  0  0
 15 61  1  0  0  0  0
 16 27  1  0  0  0  0
 17 27  1  0  0  0  0
 17 29  2  0  0  0  0
 17 31  1  0  0  0  0
 18 20  2  0  0  0  0
 18 36  1  0  0  0  0
 19 21  2  0  0  0  0
 19 37  1  0  0  0  0
 20 45  1  0  0  0  0
 21 38  1  0  0  0  0
 22 78  1  0  0  0  0
 23 79  1  0  0  0  0
 24 26  2  0  0  0  0
 24 78  1  0  0  0  0
 25 80  1  0  0  0  0
 26 81  1  0  0  0  0
 27 62  2  0  0  0  0
 28 53  1  0  0  0  0
 28 82  1  0  0  0  0
 29 63  1  0  0  0  0
 29 66  1  0  0  0  0
 30 61  2  0  0  0  0
 30 68  1  0  0  0  0
 30 82  1  0  0  0  0
 31 67  1  0  0  0  0
 31 72  2  0  0  0  0
 32 46  1  0  0  0  0
 32 69  1  0  0  0  0
 32 73  2  0  0  0  0
 33 54  1  0  0  0  0
 33 65  1  0  0  0  0
 33 74  2  0  0  0  0
 34 57  1  0  0  0  0
 34 64  1  0  0  0  0
 34 75  2  0  0  0  0
 35 58  1  0  0  0  0
 35 70  1  0  0  0  0
 35 76  2  0  0  0  0
 36 39  1  0  0  0  0
 37 46  1  0  0  0  0
 38 64  1  0  0  0  0
 39 41  1  0  0  0  0
 40 42  1  0  0  0  0
 40 43  1  0  0  0  0
 41 45  1  0  0  0  0
 42 47  1  0  0  0  0
 43 65  1  0  0  0  0
 44 47  1  0  0  0  0
 44 65  1  0  0  0  0
 45 69  1  0  0  0  0
 46 64  1  0  0  0  0
 47 63  1  0  0  0  0
 48 58  1  0  0  0  0
 49 60  1  0  0  0  0
 50 60  1  0  0  0  0
 51 60  1  0  0  0  0
 52 71  1  0  0  0  0
 53 54  1  0  0  0  0
 55 59  1  0  0  0  0
 55 68  1  0  0  0  0
 56 59  1  0  0  0  0
 56 79  1  0  0  0  0
 57 60  1  0  0  0  0
 57 70  1  0  0  0  0
 58 71  1  0  0  0  0
 59 77  1  0  0  0  0
 62 63  1  0  0  0  0
M  CHG  1  71   1
M  ISO  4  33 100  54 100  56 101  79 101
M  END
> <Batch ID>
0189

> <Smiles>
CNC(C)C(=O)NC(C(=O)N1Cc2cc([101O:1][101CH2:1]C(O)CNc3ncc(C[100CH2:0][100C:0](=O)N4CCCC(n5nc(-c6ccc(Oc7ccc(F)cc7F)cc6)c(C(N)=O)c5N)C4)s3)ccc2CC1C(=O)NC1CCCc2ccccc21)C(C)(C)C

> <Shape>
0.336

> <Color>
0.185

> <Negative vol penalty>
0.000

$$$$

  -OEChem-04052305183D

 84 92  0     1  0  0  0  0  0999 V2000
  -17.1815  -30.2565   23.5881 C   0  0  0  0  0  0  0  0  0  0  0  0
  -18.4745  -30.4507   24.0636 C   0  0  0  0  0  0  0  0  0  0  0  0
  -26.4426  -12.9088   21.7306 C   0  0  0  0  0  0  0  0  0  0  0  0
  -25.4855  -14.3687   20.0603 C   0  0  0  0  0  0  0  0  0  0  0  0
  -16.8494  -29.0672   22.9407 C   0  0  0  0  0  0  0  0  0  0  0  0
  -19.4357  -29.4551   23.8929 C   0  0  0  0  0  0  0  0  0  0  0  0
  -26.4523  -29.8102   20.4769 C   0  0  0  0  0  0  0  0  0  0  0  0
  -25.2326  -12.2212   21.8231 C   0  0  0  0  0  0  0  0  0  0  0  0
  -24.2754  -13.6811   20.1528 C   0  0  0  0  0  0  0  0  0  0  0  0
  -27.6449  -29.7090   19.7603 C   0  0  0  0  0  0  0  0  0  0  0  0
  -23.5683   -9.8604   20.0653 C   0  0  0  0  0  0  0  0  0  0  0  0
  -23.6145   -8.4665   20.0815 C   0  0  0  0  0  0  0  0  0  0  0  0
  -27.2409  -27.3521   19.4000 C   0  0  0  0  0  0  0  0  0  0  0  0
  -22.5514   -8.4566   22.2511 C   0  0  0  0  0  0  0  0  0  0  0  0
  -28.3845  -23.1694   18.2879 C   0  0  0  0  0  0  0  0  0  0  0  0
  -29.9805  -23.0037   20.4949 C   0  0  0  0  0  0  0  0  0  0  0  0
  -26.5691  -13.9826   20.8492 C   0  0  0  0  0  0  0  0  0  0  0  0
  -28.8938  -14.4107   19.8900 C   0  0  0  0  0  0  0  0  0  0  0  0
  -17.8096  -28.0605   22.7535 C   0  0  0  0  0  0  0  0  0  0  0  0
  -25.6408  -28.6847   20.6449 C   0  0  0  0  0  0  0  0  0  0  0  0
  -19.1158  -28.2506   23.2436 C   0  0  0  0  0  0  0  0  0  0  0  0
  -26.0390  -27.4502   20.1062 C   0  0  0  0  0  0  0  0  0  0  0  0
  -28.9581  -22.0793   20.3536 C   0  0  0  0  0  0  0  0  0  0  0  0
  -24.1490  -12.6073   21.0342 C   0  0  0  0  0  0  0  0  0  0  0  0
  -28.0383  -28.4830   19.2234 C   0  0  0  0  0  0  0  0  0  0  0  0
  -23.0138  -10.5525   21.1420 C   0  0  0  0  0  0  0  0  0  0  0  0
  -23.1060   -7.7645   21.1744 C   0  0  0  0  0  0  0  0  0  0  0  0
  -22.5054   -9.8506   22.2348 C   0  0  0  0  0  0  0  0  0  0  0  0
  -28.1494  -22.1706   19.2262 C   0  0  0  0  0  0  0  0  0  0  0  0
  -27.8187  -14.6936   20.7537 C   0  0  0  0  0  0  0  0  0  0  0  0
  -29.4324  -24.0451   18.5217 C   0  0  0  0  0  0  0  0  0  0  0  0
  -29.8334  -15.3676   20.1867 C   0  0  0  0  0  0  0  0  0  0  0  0
  -29.0309  -13.3756   18.9074 C   0  0  0  0  0  0  0  0  0  0  0  0
  -22.4725  -27.2583   22.0602 C   0  0  0  0  0  0  0  0  0  0  0  0
  -22.8531  -26.0046   19.2865 C   0  0  0  0  0  0  0  0  0  0  0  0
  -23.4145  -25.1763   16.0252 C   0  0  0  0  0  0  0  0  0  0  0  0
  -29.4718  -20.8650   22.5002 C   0  0  0  0  0  0  0  0  0  0  0  0
  -17.3911  -26.7726   22.0896 C   0  0  0  0  0  0  0  0  0  0  0  0
  -24.3783  -28.7337   21.4619 C   0  0  0  0  0  0  0  0  0  0  0  0
  -25.1515  -26.2585   20.3415 C   0  0  0  0  0  0  0  0  0  0  0  0
  -18.5665  -25.9208   21.6172 C   0  0  0  0  0  0  0  0  0  0  0  0
  -31.3549  -18.1319   23.7892 C   0  0  0  0  0  0  0  0  0  0  0  0
  -19.6269  -25.8219   22.7093 C   0  0  0  0  0  0  0  0  0  0  0  0
  -30.7637  -16.9150   23.0739 C   0  0  0  0  0  0  0  0  0  0  0  0
  -30.2839  -19.1685   24.1242 C   0  0  0  0  0  0  0  0  0  0  0  0
  -28.8632  -18.3763   22.2740 C   0  0  0  0  0  0  0  0  0  0  0  0
  -20.1928  -27.2044   23.0557 C   0  0  1  0  0  0  0  0  0  0  0  0
  -23.2712  -27.8132   20.9176 C   0  0  1  0  0  0  0  0  0  0  0  0
  -29.9138  -17.3337   21.8582 C   0  0  2  0  0  0  0  0  0  0  0  0
  -22.4693  -23.8004   14.1515 C   0  0  0  0  0  0  0  0  0  0  0  0
  -32.0315  -25.3705   17.2915 C   0  0  0  0  0  0  0  0  0  0  0  0
  -28.8902  -29.1810   16.2764 C   0  0  0  0  0  0  0  0  0  0  0  0
  -23.9368  -23.4751   20.6022 C   0  0  0  0  0  0  0  0  0  0  0  0
  -23.8406  -22.3554   18.3649 C   0  0  0  0  0  0  0  0  0  0  0  0
  -21.7450  -23.1863   19.4330 C   0  0  0  0  0  0  0  0  0  0  0  0
  -23.0094  -27.5627   14.3223 C   0  0  0  0  0  0  0  0  0  0  0  0
  -30.3965  -27.2218   16.7797 C   0  0  0  0  0  0  0  0  0  0  0  0
  -23.3962  -24.8492   18.4843 C   0  0  1  0  0  0  0  0  0  0  0  0
  -22.4975  -25.1683   14.8154 C   0  0  2  0  0  0  0  0  0  0  0  0
  -30.7082  -26.0201   17.6866 C   0  0  1  0  0  0  0  0  0  0  0  0
  -29.1077  -27.9619   17.1637 C   0  0  1  0  0  0  0  0  0  1  0  0
  -23.2446  -23.4904   19.2246 C   0  0  0  0  0  0  0  0  0  0  0  0
  -30.2395  -23.9878   19.6048 N   0  0  0  0  0  0  0  0  0  0  0  0
  -28.0525  -15.7475   21.5401 N   0  0  0  0  0  0  0  0  0  0  0  0
  -29.2855  -16.1353   21.1718 N   0  0  0  0  0  0  0  0  0  0  0  0
  -23.7416  -26.6392   20.1629 N   0  0  0  0  0  0  0  0  0  0  0  0
  -29.5218  -19.5202   22.9240 N   0  0  0  0  0  0  0  0  0  0  0  0
  -31.0667  -15.6187   19.6984 N   0  0  0  0  0  0  0  0  0  0  0  0
  -27.9699  -12.4770   18.7311 N   0  0  0  0  0  0  0  0  0  0  0  0
  -28.7446  -21.0737   21.3287 N   0  0  0  0  0  0  0  0  0  0  0  0
  -29.6542  -25.0331   17.5791 N   0  0  0  0  0  0  0  0  0  0  0  0
  -21.1414  -27.6290   22.0485 N   0  0  0  0  0  0  0  0  0  0  0  0
  -22.7275  -24.9017   17.1887 N   0  0  0  0  0  0  0  0  0  0  0  0
  -22.9564  -26.1689   13.8109 N   0  3  0  0  0  0  0  0  0  0  0  0
  -30.0702  -13.2412   18.2180 O   0  0  0  0  0  0  0  0  0  0  0  0
  -23.0220  -26.5449   22.8912 O   0  0  0  0  0  0  0  0  0  0  0  0
  -21.6719  -26.3339   19.1460 O   0  0  0  0  0  0  0  0  0  0  0  0
  -24.6204  -25.3999   15.9454 O   0  0  0  0  0  0  0  0  0  0  0  0
  -30.0555  -21.7613   23.1150 O   0  0  0  0  0  0  0  0  0  0  0  0
  -22.9681  -11.9365   21.1240 O   0  0  0  0  0  0  0  0  0  0  0  0
  -29.2016  -28.3922   18.5210 O   0  0  0  0  0  0  0  0  0  1  0  0
  -23.1489   -6.4258   21.1892 F   0  0  0  0  0  0  0  0  0  0  0  0
  -21.9704  -10.5100   23.2716 F   0  0  0  0  0  0  0  0  0  0  0  0
  -27.1444  -21.3043   19.0356 F   0  0  0  0  0  0  0  0  0  0  0  0
  1  2  1  0  0  0  0
  1  5  2  0  0  0  0
  2  6  2  0  0  0  0
  3  8  2  0  0  0  0
  3 17  1  0  0  0  0
  4  9  1  0  0  0  0
  4 17  2  0  0  0  0
  5 19  1  0  0  0  0
  6 21  1  0  0  0  0
  7 10  2  0  0  0  0
  7 20  1  0  0  0  0
  8 24  1  0  0  0  0
  9 24  2  0  0  0  0
 10 25  1  0  0  0  0
 11 12  2  0  0  0  0
 11 26  1  0  0  0  0
 12 27  1  0  0  0  0
 13 22  1  0  0  0  0
 13 25  2  0  0  0  0
 14 27  2  0  0  0  0
 14 28  1  0  0  0  0
 15 29  2  0  0  0  0
 15 31  1  0  0  0  0
 16 23  2  0  0  0  0
 16 63  1  0  0  0  0
 17 30  1  0  0  0  0
 18 30  1  0  0  0  0
 18 32  2  0  0  0  0
 18 33  1  0  0  0  0
 19 21  2  0  0  0  0
 19 38  1  0  0  0  0
 20 22  2  0  0  0  0
 20 39  1  0  0  0  0
 21 47  1  0  0  0  0
 22 40  1  0  0  0  0
 23 29  1  0  0  0  0
 23 70  1  0  0  0  0
 24 80  1  0  0  0  0
 25 81  1  0  0  0  0
 26 28  2  0  0  0  0
 26 80  1  0  0  0  0
 27 82  1  0  0  0  0
 28 83  1  0  0  0  0
 29 84  1  0  0  0  0
 30 64  2  0  0  0  0
 31 63  2  0  0  0  0
 31 71  1  0  0  0  0
 32 65  1  0  0  0  0
 32 68  1  0  0  0  0
 33 69  1  0  0  0  0
 33 75  2  0  0  0  0
 34 48  1  0  0  0  0
 34 72  1  0  0  0  0
 34 76  2  0  0  0  0
 35 58  1  0  0  0  0
 35 66  1  0  0  0  0
 35 77  2  0  0  0  0
 36 59  1  0  0  0  0
 36 73  1  0  0  0  0
 36 78  2  0  0  0  0
 37 67  1  0  0  0  0
 37 70  1  0  0  0  0
 37 79  2  0  0  0  0
 38 41  1  0  0  0  0
 39 48  1  0  0  0  0
 40 66  1  0  0  0  0
 41 43  1  0  0  0  0
 42 44  1  0  0  0  0
 42 45  1  0  0  0  0
 43 47  1  0  0  0  0
 44 49  1  0  0  0  0
 45 67  1  0  0  0  0
 46 49  1  0  0  0  0
 46 67  1  0  0  0  0
 47 72  1  0  0  0  0
 48 66  1  0  0  0  0
 49 65  1  0  0  0  0
 50 59  1  0  0  0  0
 51 60  1  0  0  0  0
 52 61  1  0  0  0  0
 53 62  1  0  0  0  0
 54 62  1  0  0  0  0
 55 62  1  0  0  0  0
 56 74  1  0  0  0  0
 57 60  1  0  0  0  0
 57 61  1  0  0  0  0
 58 62  1  0  0  0  0
 58 73  1  0  0  0  0
 59 74  1  0  0  0  0
 60 71  1  0  0  0  0
 61 81  1  0  0  0  0
 64 65  1  0  0  0  0
M  CHG  1  74   1
M  ISO  4  37 100  61 101  70 100  81 101
M  END
> <Batch ID>
0189

> <Smiles>
CNC(C)C(=O)NC(C(=O)N1Cc2cc([101O:1][101CH:1](C)CC(C)Nc3cc(F)c([100NH:0][100C:0](=O)N4CCCC(n5nc(-c6ccc(Oc7ccc(F)cc7F)cc6)c(C(N)=O)c5N)C4)cn3)ccc2CC1C(=O)NC1CCCc2ccccc21)C(C)(C)C

> <Shape>
0.297

> <Color>
0.076

> <Negative vol penalty>
0.000

$$$$

  -OEChem-04052305183D

 85 93  0     1  0  0  0  0  0999 V2000
  -29.5496  -30.5606   26.6979 C   0  0  0  0  0  0  0  0  0  0  0  0
  -29.2028  -29.6306   25.7231 C   0  0  0  0  0  0  0  0  0  0  0  0
  -24.8661   -8.6442   21.3377 C   0  0  0  0  0  0  0  0  0  0  0  0
  -23.2835   -9.6351   19.8046 C   0  0  0  0  0  0  0  0  0  0  0  0
  -28.5600  -31.3276   27.3114 C   0  0  0  0  0  0  0  0  0  0  0  0
  -27.8660  -29.4664   25.3619 C   0  0  0  0  0  0  0  0  0  0  0  0
  -27.2271  -29.2047   20.3451 C   0  0  0  0  0  0  0  0  0  0  0  0
  -28.5422  -18.4511   15.4920 C   0  0  0  0  0  0  0  0  0  0  0  0
  -23.9517   -7.6315   21.6271 C   0  0  0  0  0  0  0  0  0  0  0  0
  -22.3690   -8.6223   20.0940 C   0  0  0  0  0  0  0  0  0  0  0  0
  -27.5356  -27.9941   19.7262 C   0  0  0  0  0  0  0  0  0  0  0  0
  -21.1847   -7.2434   23.5290 C   0  0  0  0  0  0  0  0  0  0  0  0
  -21.0037   -6.8980   24.8682 C   0  0  0  0  0  0  0  0  0  0  0  0
  -27.9632  -17.5910   16.4184 C   0  0  0  0  0  0  0  0  0  0  0  0
  -25.1915  -27.4261   19.6825 C   0  0  0  0  0  0  0  0  0  0  0  0
  -21.7152   -4.6409   24.3822 C   0  0  0  0  0  0  0  0  0  0  0  0
  -24.5320   -9.6461   20.4264 C   0  0  0  0  0  0  0  0  0  0  0  0
  -26.4547  -10.6914   19.1157 C   0  0  0  0  0  0  0  0  0  0  0  0
  -27.2115  -31.1795   26.9507 C   0  0  0  0  0  0  0  0  0  0  0  0
  -25.8973  -29.5309   20.6477 C   0  0  0  0  0  0  0  0  0  0  0  0
  -26.8573  -30.2312   25.9721 C   0  0  0  0  0  0  0  0  0  0  0  0
  -24.8686  -28.6426   20.3029 C   0  0  0  0  0  0  0  0  0  0  0  0
  -28.9255  -19.7292   15.8832 C   0  0  0  0  0  0  0  0  0  0  0  0
  -22.7032   -7.6205   21.0052 C   0  0  0  0  0  0  0  0  0  0  0  0
  -26.5180  -27.1033   19.3974 C   0  0  0  0  0  0  0  0  0  0  0  0
  -21.6309   -6.2875   22.6163 C   0  0  0  0  0  0  0  0  0  0  0  0
  -21.2690   -5.5968   25.2948 C   0  0  0  0  0  0  0  0  0  0  0  0
  -21.8962   -4.9863   23.0429 C   0  0  0  0  0  0  0  0  0  0  0  0
  -25.4759  -10.6929   20.1275 C   0  0  0  0  0  0  0  0  0  0  0  0
  -27.7905  -18.0532   17.7131 C   0  0  0  0  0  0  0  0  0  0  0  0
  -28.7096  -20.0958   17.2019 C   0  0  0  0  0  0  0  0  0  0  0  0
  -27.0858  -11.9042   19.2467 C   0  0  0  0  0  0  0  0  0  0  0  0
  -26.7657   -9.6838   18.1442 C   0  0  0  0  0  0  0  0  0  0  0  0
  -24.2835  -30.1126   23.3237 C   0  0  0  0  0  0  0  0  0  0  0  0
  -21.8892  -30.8416   21.2601 C   0  0  0  0  0  0  0  0  0  0  0  0
  -20.5175  -30.4516   18.1596 C   0  0  0  0  0  0  0  0  0  0  0  0
  -26.9317  -17.4196   19.9951 C   0  0  0  0  0  0  0  0  0  0  0  0
  -26.1721  -31.9976   27.6754 C   0  0  0  0  0  0  0  0  0  0  0  0
  -25.5787  -30.8525   21.2912 C   0  0  0  0  0  0  0  0  0  0  0  0
  -23.4229  -28.9545   20.5879 C   0  0  0  0  0  0  0  0  0  0  0  0
  -24.8194  -32.0279   26.9687 C   0  0  0  0  0  0  0  0  0  0  0  0
  -26.8076  -15.3831   22.9130 C   0  0  0  0  0  0  0  0  0  0  0  0
  -24.4127  -30.6236   26.5337 C   0  0  0  0  0  0  0  0  0  0  0  0
  -26.5306  -13.9812   22.3652 C   0  0  0  0  0  0  0  0  0  0  0  0
  -26.0692  -16.4587   22.1183 C   0  0  0  0  0  0  0  0  0  0  0  0
  -26.0153  -15.0196   20.1195 C   0  0  0  0  0  0  0  0  0  0  0  0
  -25.4208  -30.0415   25.5355 C   0  0  1  0  0  0  0  0  0  0  0  0
  -24.2375  -30.8552   22.0183 C   0  0  1  0  0  0  0  0  0  0  0  0
  -26.7888  -13.9081   20.8475 C   0  0  2  0  0  0  0  0  0  0  0  0
  -29.5466  -20.6486   14.8875 C   0  0  0  0  0  0  0  0  0  0  0  0
  -18.5380  -31.1418   16.7803 C   0  0  0  0  0  0  0  0  0  0  0  0
  -26.9737  -23.2382   19.9295 C   0  0  0  0  0  0  0  0  0  0  0  0
  -30.9555  -21.2139   19.1223 C   0  0  0  0  0  0  0  0  0  0  0  0
  -20.1365  -28.8698   22.7931 C   0  0  0  0  0  0  0  0  0  0  0  0
  -18.5482  -28.8844   20.8578 C   0  0  0  0  0  0  0  0  0  0  0  0
  -18.9861  -30.9877   22.1255 C   0  0  0  0  0  0  0  0  0  0  0  0
  -22.2349  -31.7856   16.1522 C   0  0  0  0  0  0  0  0  0  0  0  0
  -29.4146  -23.2079   19.1780 C   0  0  0  0  0  0  0  0  0  0  0  0
  -28.0854  -25.3407   19.0933 C   0  0  0  0  0  0  0  0  0  1  0  0
  -20.7766  -30.0665   20.5966 C   0  0  1  0  0  0  0  0  0  0  0  0
  -19.9745  -31.4608   17.1641 C   0  0  2  0  0  0  0  0  0  0  0  0
  -28.0109  -23.8125   18.9582 C   0  0  2  0  0  0  0  0  0  0  0  0
  -29.5179  -21.6934   18.9396 C   0  0  1  0  0  0  0  0  0  0  0  0
  -19.6392  -29.6951   21.5895 C   0  0  0  0  0  0  0  0  0  0  0  0
  -25.4810  -11.8174   20.8482 N   0  0  0  0  0  0  0  0  0  0  0  0
  -28.1501  -19.2878   18.1302 N   0  0  0  0  0  0  0  0  0  0  0  0
  -26.4708  -12.5338   20.2887 N   0  0  0  0  0  0  0  0  0  0  0  0
  -23.1628  -30.2565   21.2240 N   0  0  0  0  0  0  0  0  0  0  0  0
  -26.3650  -16.3300   20.6897 N   0  0  0  0  0  0  0  0  0  0  0  0
  -28.1014  -12.4829   18.5713 N   0  0  0  0  0  0  0  0  0  0  0  0
  -26.0191   -8.4976   18.1495 N   0  0  0  0  0  0  0  0  0  0  0  0
  -27.1992  -17.1693   18.6496 N   0  0  0  0  0  0  0  0  0  0  0  0
  -29.0898  -21.3664   17.5961 N   0  0  0  0  0  0  0  0  0  0  0  0
  -25.2126  -30.6064   24.2194 N   0  0  0  0  0  0  0  0  0  0  0  0
  -20.3394  -30.8711   19.4610 N   0  0  0  0  0  0  0  0  0  0  0  0
  -20.8026  -31.4633   15.9251 N   0  3  0  0  0  0  0  0  0  0  0  0
  -27.6893   -9.8242   17.3072 O   0  0  0  0  0  0  0  0  0  0  0  0
  -23.5307  -29.1629   23.5053 O   0  0  0  0  0  0  0  0  0  0  0  0
  -21.6389  -31.9297   21.7846 O   0  0  0  0  0  0  0  0  0  0  0  0
  -21.0434  -29.3948   17.8172 O   0  0  0  0  0  0  0  0  0  0  0  0
  -27.1878  -18.4864   20.5593 O   0  0  0  0  0  0  0  0  0  0  0  0
  -21.8108   -6.6323   21.2872 O   0  0  0  0  0  0  0  0  0  0  0  0
  -26.8164  -25.9206   18.7939 O   0  0  0  0  0  0  0  0  0  1  0  0
  -21.0966   -5.2656   26.5812 F   0  0  0  0  0  0  0  0  0  0  0  0
  -22.3261   -4.0640   22.1710 F   0  0  0  0  0  0  0  0  0  0  0  0
  1  2  1  0  0  0  0
  1  5  2  0  0  0  0
  2  6  2  0  0  0  0
  3  9  2  0  0  0  0
  3 17  1  0  0  0  0
  4 10  1  0  0  0  0
  4 17  2  0  0  0  0
  5 19  1  0  0  0  0
  6 21  1  0  0  0  0
  7 11  2  0  0  0  0
  7 20  1  0  0  0  0
  8 14  2  0  0  0  0
  8 23  1  0  0  0  0
  9 24  1  0  0  0  0
 10 24  2  0  0  0  0
 11 25  1  0  0  0  0
 12 13  2  0  0  0  0
 12 26  1  0  0  0  0
 13 27  1  0  0  0  0
 14 30  1  0  0  0  0
 15 22  1  0  0  0  0
 15 25  2  0  0  0  0
 16 27  2  0  0  0  0
 16 28  1  0  0  0  0
 17 29  1  0  0  0  0
 18 29  1  0  0  0  0
 18 32  2  0  0  0  0
 18 33  1  0  0  0  0
 19 21  2  0  0  0  0
 19 38  1  0  0  0  0
 20 22  2  0  0  0  0
 20 39  1  0  0  0  0
 21 47  1  0  0  0  0
 22 40  1  0  0  0  0
 23 31  2  0  0  0  0
 23 50  1  0  0  0  0
 24 82  1  0  0  0  0
 25 83  1  0  0  0  0
 26 28  2  0  0  0  0
 26 82  1  0  0  0  0
 27 84  1  0  0  0  0
 28 85  1  0  0  0  0
 29 65  2  0  0  0  0
 30 66  2  0  0  0  0
 30 72  1  0  0  0  0
 31 66  1  0  0  0  0
 31 73  1  0  0  0  0
 32 67  1  0  0  0  0
 32 70  1  0  0  0  0
 33 71  1  0  0  0  0
 33 77  2  0  0  0  0
 34 48  1  0  0  0  0
 34 74  1  0  0  0  0
 34 78  2  0  0  0  0
 35 60  1  0  0  0  0
 35 68  1  0  0  0  0
 35 79  2  0  0  0  0
 36 61  1  0  0  0  0
 36 75  1  0  0  0  0
 36 80  2  0  0  0  0
 37 69  1  0  0  0  0
 37 72  1  0  0  0  0
 37 81  2  0  0  0  0
 38 41  1  0  0  0  0
 39 48  1  0  0  0  0
 40 68  1  0  0  0  0
 41 43  1  0  0  0  0
 42 44  1  0  0  0  0
 42 45  1  0  0  0  0
 43 47  1  0  0  0  0
 44 49  1  0  0  0  0
 45 69  1  0  0  0  0
 46 49  1  0  0  0  0
 46 69  1  0  0  0  0
 47 74  1  0  0  0  0
 48 68  1  0  0  0  0
 49 67  1  0  0  0  0
 51 61  1  0  0  0  0
 52 62  1  0  0  0  0
 53 63  1  0  0  0  0
 54 64  1  0  0  0  0
 55 64  1  0  0  0  0
 56 64  1  0  0  0  0
 57 76  1  0  0  0  0
 58 62  1  0  0  0  0
 58 63  1  0  0  0  0
 59 62  1  0  0  0  0
 59 83  1  0  0  0  0
 60 64  1  0  0  0  0
 60 75  1  0  0  0  0
 61 76  1  0  0  0  0
 63 73  1  0  0  0  0
 65 67  1  0  0  0  0
M  CHG  1  76   1
M  ISO  4  37 100  59 101  72 100  83 101
M  END
> <Batch ID>
0189

> <Smiles>
CNC(C)C(=O)NC(C(=O)N1Cc2cc([101O:1][101CH2:1]C(C)CC(C)Nc3nc([100NH:0][100C:0](=O)N4CCCC(n5nc(-c6ccc(Oc7ccc(F)cc7F)cc6)c(C(N)=O)c5N)C4)ccc3C)ccc2CC1C(=O)NC1CCCc2ccccc21)C(C)(C)C

> <Shape>
0.285

> <Color>
0.104

> <Negative vol penalty>
0.000

$$$$

  -OEChem-04052305183D

 87 95  0     1  0  0  0  0  0999 V2000
  -26.6319  -17.8113   18.1834 C   0  0  0  0  0  0  0  0  0  0  0  0
  -25.7362  -18.8654   18.3324 C   0  0  0  0  0  0  0  0  0  0  0  0
  -24.6155  -14.2623   20.6094 C   0  0  0  0  0  0  0  0  0  0  0  0
  -24.8790  -13.9762   22.9939 C   0  0  0  0  0  0  0  0  0  0  0  0
  -27.8704  -17.8550   18.8221 C   0  0  0  0  0  0  0  0  0  0  0  0
  -26.0782  -19.9632   19.1212 C   0  0  0  0  0  0  0  0  0  0  0  0
  -24.5158  -25.8081   18.1715 C   0  0  0  0  0  0  0  0  0  0  0  0
  -25.6347  -13.3367   20.3857 C   0  0  0  0  0  0  0  0  0  0  0  0
  -25.8982  -13.0506   22.7702 C   0  0  0  0  0  0  0  0  0  0  0  0
  -23.5085  -26.6089   18.7081 C   0  0  0  0  0  0  0  0  0  0  0  0
  -28.4131  -11.3166   19.1928 C   0  0  0  0  0  0  0  0  0  0  0  0
  -29.3804  -11.6327   18.2389 C   0  0  0  0  0  0  0  0  0  0  0  0
  -25.0712  -27.4793   20.3267 C   0  0  0  0  0  0  0  0  0  0  0  0
  -29.9831  -13.6018   19.5025 C   0  0  0  0  0  0  0  0  0  0  0  0
  -24.2376  -14.5821   21.9135 C   0  0  0  0  0  0  0  0  0  0  0  0
  -21.8077  -15.2743   22.2660 C   0  0  0  0  0  0  0  0  0  0  0  0
  -28.2316  -18.9583   19.6113 C   0  0  0  0  0  0  0  0  0  0  0  0
  -25.8078  -25.8289   18.7163 C   0  0  0  0  0  0  0  0  0  0  0  0
  -27.3222  -20.0211   19.7721 C   0  0  0  0  0  0  0  0  0  0  0  0
  -26.0937  -26.6798   19.7935 C   0  0  0  0  0  0  0  0  0  0  0  0
  -26.2761  -12.7309   21.4661 C   0  0  0  0  0  0  0  0  0  0  0  0
  -23.7854  -27.4425   19.7877 C   0  0  0  0  0  0  0  0  0  0  0  0
  -28.2307  -12.1431   20.3016 C   0  0  0  0  0  0  0  0  0  0  0  0
  -30.1654  -12.7752   18.3937 C   0  0  0  0  0  0  0  0  0  0  0  0
  -29.0157  -13.2856   20.4564 C   0  0  0  0  0  0  0  0  0  0  0  0
  -23.1852  -15.5385   22.1452 C   0  0  0  0  0  0  0  0  0  0  0  0
  -18.3484  -22.2719   23.1085 C   0  0  0  0  0  0  0  0  0  0  0  0
  -18.1799  -22.5309   24.4526 C   0  0  0  0  0  0  0  0  0  0  0  0
  -21.2390  -16.5064   22.4775 C   0  0  0  0  0  0  0  0  0  0  0  0
  -18.5630  -24.4538   23.0533 C   0  0  0  0  0  0  0  0  0  0  0  0
  -21.1052  -14.0265   22.1935 C   0  0  0  0  0  0  0  0  0  0  0  0
  -27.6855  -23.6817   20.1189 C   0  0  0  0  0  0  0  0  0  0  0  0
  -29.8659  -26.0801   19.9915 C   0  0  0  0  0  0  0  0  0  0  0  0
  -18.9784  -26.2573   21.3499 C   0  0  0  0  0  0  0  0  0  0  0  0
  -30.4779  -29.4324   19.8051 C   0  0  0  0  0  0  0  0  0  0  0  0
  -21.2017  -21.4794   25.0099 C   0  0  0  0  0  0  0  0  0  0  0  0
  -29.5626  -18.9390   20.3204 C   0  0  0  0  0  0  0  0  0  0  0  0
  -26.8899  -24.9790   18.1089 C   0  0  0  0  0  0  0  0  0  0  0  0
  -27.4695  -26.7542   20.4018 C   0  0  0  0  0  0  0  0  0  0  0  0
  -29.9984  -20.3084   20.8353 C   0  0  0  0  0  0  0  0  0  0  0  0
  -23.2039  -21.1508   22.0841 C   0  0  0  0  0  0  0  0  0  0  0  0
  -28.8440  -21.0012   21.5524 C   0  0  0  0  0  0  0  0  0  0  0  0
  -23.2689  -19.6401   21.8531 C   0  0  0  0  0  0  0  0  0  0  0  0
  -23.2187  -21.4955   23.5717 C   0  0  0  0  0  0  0  0  0  0  0  0
  -22.2532  -19.3016   24.1450 C   0  0  0  0  0  0  0  0  0  0  0  0
  -27.6666  -21.2405   20.5994 C   0  0  1  0  0  0  0  0  0  0  0  0
  -28.0402  -24.6985   19.0710 C   0  0  1  0  0  0  0  0  0  0  0  0
  -22.1844  -18.9022   22.6610 C   0  0  2  0  0  0  0  0  0  0  0  0
  -18.3142  -20.9411   22.4684 C   0  0  0  0  0  0  0  0  0  0  0  0
  -32.3600  -31.0916   19.7576 C   0  0  0  0  0  0  0  0  0  0  0  0
  -30.2721  -25.7016   22.9918 C   0  0  0  0  0  0  0  0  0  0  0  0
  -31.3964  -27.9378   23.0511 C   0  0  0  0  0  0  0  0  0  0  0  0
  -32.3753  -26.0872   21.6947 C   0  0  0  0  0  0  0  0  0  0  0  0
  -20.5732  -29.8118   21.3299 C   0  0  0  0  0  0  0  0  0  0  0  0
  -21.2558  -27.8543   22.7205 C   0  0  0  0  0  0  0  0  0  0  0  0
  -29.6881  -30.4265   17.1318 C   0  0  0  0  0  0  0  0  0  0  0  0
  -17.9296  -21.6057   25.5757 C   0  0  0  0  0  0  0  0  0  0  0  0
  -19.1373  -27.7717   21.3043 C   0  0  0  0  0  0  0  0  0  0  0  0
  -19.1739  -21.3015   26.4295 C   0  0  0  0  0  0  0  0  0  0  0  0
  -21.4663  -27.7353   20.2260 C   0  0  0  0  0  0  0  0  0  1  0  0
  -30.2576  -27.2184   20.9025 C   0  0  1  0  0  0  0  0  0  0  0  0
  -31.4167  -30.2375   18.9248 C   0  0  2  0  0  0  0  0  0  0  0  0
  -31.0488  -26.7337   22.1500 C   0  0  0  0  0  0  0  0  0  0  0  0
  -20.6031  -28.2691   21.3901 C   0  0  0  0  0  0  0  0  0  0  0  0
  -23.4740  -16.8367   22.2696 N   0  0  0  0  0  0  0  0  0  0  0  0
  -18.5678  -23.3734   22.3045 N   0  0  0  0  0  0  0  0  0  0  0  0
  -22.2701  -17.3991   22.4705 N   0  0  0  0  0  0  0  0  0  0  0  0
  -28.4922  -25.8992   19.7768 N   0  0  0  0  0  0  0  0  0  0  0  0
  -22.1654  -20.7641   24.2801 N   0  0  0  0  0  0  0  0  0  0  0  0
  -19.9624  -16.9026   22.6668 N   0  0  0  0  0  0  0  0  0  0  0  0
  -21.8433  -12.8561   21.9707 N   0  0  0  0  0  0  0  0  0  0  0  0
  -18.7496  -25.7940   22.6390 N   0  0  0  0  0  0  0  0  0  0  0  0
  -27.9331  -22.3756   19.7420 N   0  0  0  0  0  0  0  0  0  0  0  0
  -30.9797  -28.1760   20.0719 N   0  0  0  0  0  0  0  0  0  0  0  0
  -20.2354  -20.7098   25.6460 N   0  0  0  0  0  0  0  0  0  0  0  0
  -30.6397  -31.1362   18.0249 N   0  3  0  0  0  0  0  0  0  0  0  0
  -19.8579  -13.9537   22.3060 O   0  0  0  0  0  0  0  0  0  0  0  0
  -27.2230  -24.0548   21.1906 O   0  0  0  0  0  0  0  0  0  0  0  0
  -30.7466  -25.3818   19.4833 O   0  0  0  0  0  0  0  0  0  0  0  0
  -19.0628  -25.5928   20.3206 O   0  0  0  0  0  0  0  0  0  0  0  0
  -29.4083  -29.8751   20.2181 O   0  0  0  0  0  0  0  0  0  0  0  0
  -21.1994  -22.7129   25.0843 O   0  0  0  0  0  0  0  0  0  0  0  0
  -27.2705  -11.8275   21.2482 O   0  0  0  0  0  0  0  0  0  0  0  0
  -22.8039  -28.2246   20.3139 O   0  0  0  0  0  0  0  0  0  1  0  0
  -31.0953  -13.0778   17.4784 F   0  0  0  0  0  0  0  0  0  0  0  0
  -28.8459  -14.0829   21.5201 F   0  0  0  0  0  0  0  0  0  0  0  0
  -18.3010  -24.2185   24.7329 S   0  0  0  0  0  0  0  0  0  0  0  0
  1  2  1  0  0  0  0
  1  5  2  0  0  0  0
  2  6  2  0  0  0  0
  3  8  2  0  0  0  0
  3 15  1  0  0  0  0
  4  9  1  0  0  0  0
  4 15  2  0  0  0  0
  5 17  1  0  0  0  0
  6 19  1  0  0  0  0
  7 10  2  0  0  0  0
  7 18  1  0  0  0  0
  8 21  1  0  0  0  0
  9 21  2  0  0  0  0
 10 22  1  0  0  0  0
 11 12  2  0  0  0  0
 11 23  1  0  0  0  0
 12 24  1  0  0  0  0
 13 20  1  0  0  0  0
 13 22  2  0  0  0  0
 14 24  2  0  0  0  0
 14 25  1  0  0  0  0
 15 26  1  0  0  0  0
 16 26  1  0  0  0  0
 16 29  2  0  0  0  0
 16 31  1  0  0  0  0
 17 19  2  0  0  0  0
 17 37  1  0  0  0  0
 18 20  2  0  0  0  0
 18 38  1  0  0  0  0
 19 46  1  0  0  0  0
 20 39  1  0  0  0  0
 21 83  1  0  0  0  0
 22 84  1  0  0  0  0
 23 25  2  0  0  0  0
 23 83  1  0  0  0  0
 24 85  1  0  0  0  0
 25 86  1  0  0  0  0
 26 65  2  0  0  0  0
 27 28  2  0  0  0  0
 27 49  1  0  0  0  0
 27 66  1  0  0  0  0
 28 57  1  0  0  0  0
 28 87  1  0  0  0  0
 29 67  1  0  0  0  0
 29 70  1  0  0  0  0
 30 66  2  0  0  0  0
 30 72  1  0  0  0  0
 30 87  1  0  0  0  0
 31 71  1  0  0  0  0
 31 77  2  0  0  0  0
 32 47  1  0  0  0  0
 32 73  1  0  0  0  0
 32 78  2  0  0  0  0
 33 61  1  0  0  0  0
 33 68  1  0  0  0  0
 33 79  2  0  0  0  0
 34 58  1  0  0  0  0
 34 72  1  0  0  0  0
 34 80  2  0  0  0  0
 35 62  1  0  0  0  0
 35 74  1  0  0  0  0
 35 81  2  0  0  0  0
 36 69  1  0  0  0  0
 36 75  1  0  0  0  0
 36 82  2  0  0  0  0
 37 40  1  0  0  0  0
 38 47  1  0  0  0  0
 39 68  1  0  0  0  0
 40 42  1  0  0  0  0
 41 43  1  0  0  0  0
 41 44  1  0  0  0  0
 42 46  1  0  0  0  0
 43 48  1  0  0  0  0
 44 69  1  0  0  0  0
 45 48  1  0  0  0  0
 45 69  1  0  0  0  0
 46 73  1  0  0  0  0
 47 68  1  0  0  0  0
 48 67  1  0  0  0  0
 50 62  1  0  0  0  0
 51 63  1  0  0  0  0
 52 63  1  0  0  0  0
 53 63  1  0  0  0  0
 54 64  1  0  0  0  0
 55 64  1  0  0  0  0
 56 76  1  0  0  0  0
 57 59  1  0  0  0  0
 58 64  1  0  0  0  0
 59 75  1  0  0  0  0
 60 64  1  0  0  0  0
 60 84  1  0  0  0  0
 61 63  1  0  0  0  0
 61 74  1  0  0  0  0
 62 76  1  0  0  0  0
 65 67  1  0  0  0  0
M  CHG  1  76   1
M  ISO  4  36 100  60 101  75 100  84 101
M  END
> <Batch ID>
0189

> <Smiles>
CNC(C)C(=O)NC(C(=O)N1Cc2cc([101O:1][101CH2:1]C(C)(C)CC(=O)Nc3nc(C)c(CC[100NH:0][100C:0](=O)N4CCCC(n5nc(-c6ccc(Oc7ccc(F)cc7F)cc6)c(C(N)=O)c5N)C4)s3)ccc2CC1C(=O)NC1CCCc2ccccc21)C(C)(C)C

> <Shape>
0.219

> <Color>
0.055

> <Negative vol penalty>
0.000

$$$$

  -OEChem-04052305183D

 86 94  0     1  0  0  0  0  0999 V2000
  -16.6249  -30.1612   23.3325 C   0  0  0  0  0  0  0  0  0  0  0  0
  -17.8073  -30.8363   23.0470 C   0  0  0  0  0  0  0  0  0  0  0  0
  -26.8896  -12.7598   20.7313 C   0  0  0  0  0  0  0  0  0  0  0  0
  -25.8976  -13.9401   18.8712 C   0  0  0  0  0  0  0  0  0  0  0  0
  -16.6546  -28.7981   23.6239 C   0  0  0  0  0  0  0  0  0  0  0  0
  -19.0205  -30.1487   23.0539 C   0  0  0  0  0  0  0  0  0  0  0  0
  -25.4053  -30.0591   19.8071 C   0  0  0  0  0  0  0  0  0  0  0  0
  -26.0559  -11.6692   20.4839 C   0  0  0  0  0  0  0  0  0  0  0  0
  -25.0639  -12.8495   18.6238 C   0  0  0  0  0  0  0  0  0  0  0  0
  -26.7667  -30.0729   20.1075 C   0  0  0  0  0  0  0  0  0  0  0  0
  -23.9375   -8.7146   20.5638 C   0  0  0  0  0  0  0  0  0  0  0  0
  -23.3073   -8.1174   21.6554 C   0  0  0  0  0  0  0  0  0  0  0  0
  -26.6875  -27.7024   20.5473 C   0  0  0  0  0  0  0  0  0  0  0  0
  -22.2092  -10.2082   22.1653 C   0  0  0  0  0  0  0  0  0  0  0  0
  -30.6675  -24.9440   20.2154 C   0  0  0  0  0  0  0  0  0  0  0  0
  -26.8104  -13.8953   19.9250 C   0  0  0  0  0  0  0  0  0  0  0  0
  -28.9517  -15.2529   19.6434 C   0  0  0  0  0  0  0  0  0  0  0  0
  -17.8676  -28.0915   23.6249 C   0  0  0  0  0  0  0  0  0  0  0  0
  -24.6713  -28.8669   19.8852 C   0  0  0  0  0  0  0  0  0  0  0  0
  -19.0666  -28.7751   23.3469 C   0  0  0  0  0  0  0  0  0  0  0  0
  -25.3175  -27.6756   20.2449 C   0  0  0  0  0  0  0  0  0  0  0  0
  -31.3473  -23.6407   18.3457 C   0  0  0  0  0  0  0  0  0  0  0  0
  -31.4051  -24.8398   19.0472 C   0  0  0  0  0  0  0  0  0  0  0  0
  -25.1431  -11.7140   19.4302 C   0  0  0  0  0  0  0  0  0  0  0  0
  -27.4074  -28.8950   20.4804 C   0  0  0  0  0  0  0  0  0  0  0  0
  -23.7037  -10.0587   20.2729 C   0  0  0  0  0  0  0  0  0  0  0  0
  -22.4431   -8.8642   22.4562 C   0  0  0  0  0  0  0  0  0  0  0  0
  -22.8395  -10.8055   21.0737 C   0  0  0  0  0  0  0  0  0  0  0  0
  -30.5647  -22.5971   18.8271 C   0  0  0  0  0  0  0  0  0  0  0  0
  -27.6709  -15.0224   20.1803 C   0  0  0  0  0  0  0  0  0  0  0  0
  -29.8648  -22.8016   20.0053 C   0  0  0  0  0  0  0  0  0  0  0  0
  -29.3439  -16.4493   20.1923 C   0  0  0  0  0  0  0  0  0  0  0  0
  -29.7183  -14.4569   18.7300 C   0  0  0  0  0  0  0  0  0  0  0  0
  -22.2004  -27.8632   21.6147 C   0  0  0  0  0  0  0  0  0  0  0  0
  -22.4008  -25.2667   19.6807 C   0  0  0  0  0  0  0  0  0  0  0  0
  -24.3168  -23.3167   17.6380 C   0  0  0  0  0  0  0  0  0  0  0  0
  -28.2893  -21.7196   21.6466 C   0  0  0  0  0  0  0  0  0  0  0  0
  -17.8552  -26.6287   23.9924 C   0  0  0  0  0  0  0  0  0  0  0  0
  -23.2092  -28.8636   19.5321 C   0  0  0  0  0  0  0  0  0  0  0  0
  -24.5789  -26.3654   20.3242 C   0  0  0  0  0  0  0  0  0  0  0  0
  -19.1380  -25.8942   23.6113 C   0  0  0  0  0  0  0  0  0  0  0  0
  -27.3108  -19.1778   23.9398 C   0  0  0  0  0  0  0  0  0  0  0  0
  -20.3612  -26.7019   24.0335 C   0  0  0  0  0  0  0  0  0  0  0  0
  -27.4227  -17.8891   23.1220 C   0  0  0  0  0  0  0  0  0  0  0  0
  -26.8078  -20.3453   23.0926 C   0  0  0  0  0  0  0  0  0  0  0  0
  -27.6746  -19.2972   21.0386 C   0  0  0  0  0  0  0  0  0  0  0  0
  -20.3994  -28.0588   23.3203 C   0  0  1  0  0  0  0  0  0  0  0  0
  -22.4495  -27.6902   20.1431 C   0  0  1  0  0  0  0  0  0  0  0  0
  -28.2393  -18.1085   21.8334 C   0  0  2  0  0  0  0  0  0  0  0  0
  -32.1148  -23.4522   17.0782 C   0  0  0  0  0  0  0  0  0  0  0  0
  -24.2131  -21.2416   16.2306 C   0  0  0  0  0  0  0  0  0  0  0  0
  -30.8955  -28.3718   17.5434 C   0  0  0  0  0  0  0  0  0  0  0  0
  -33.5660  -27.8599   18.9302 C   0  0  0  0  0  0  0  0  0  0  0  0
  -22.5212  -23.5533   22.2026 C   0  0  0  0  0  0  0  0  0  0  0  0
  -23.3583  -21.6611   20.7930 C   0  0  0  0  0  0  0  0  0  0  0  0
  -21.0936  -22.6193   20.3739 C   0  0  0  0  0  0  0  0  0  0  0  0
  -24.9614  -24.8181   15.1704 C   0  0  0  0  0  0  0  0  0  0  0  0
  -30.9518  -29.3206   19.9061 C   0  0  0  0  0  0  0  0  0  0  0  0
  -29.5422  -29.8730   20.1032 C   0  0  0  0  0  0  0  0  0  1  0  0
  -23.1424  -23.9527   19.7286 C   0  0  1  0  0  0  0  0  0  0  0  0
  -24.0605  -22.7545   16.2513 C   0  0  2  0  0  0  0  0  0  0  0  0
  -31.0034  -28.0441   19.0399 C   0  0  2  0  0  0  0  0  0  0  0  0
  -32.2568  -27.1706   19.3075 C   0  0  1  0  0  0  0  0  0  0  0  0
  -22.5427  -22.9715   20.7750 C   0  0  0  0  0  0  0  0  0  0  0  0
  -29.8960  -23.9523   20.7144 N   0  0  0  0  0  0  0  0  0  0  0  0
  -27.2758  -15.9942   21.0071 N   0  0  0  0  0  0  0  0  0  0  0  0
  -28.3144  -16.8470   20.9938 N   0  0  0  0  0  0  0  0  0  0  0  0
  -23.1494  -26.4150   19.9755 N   0  0  0  0  0  0  0  0  0  0  0  0
  -27.6317  -20.4955   21.8912 N   0  0  0  0  0  0  0  0  0  0  0  0
  -30.4654  -17.1894   20.0628 N   0  0  0  0  0  0  0  0  0  0  0  0
  -29.1656  -13.2562   18.2638 N   0  0  0  0  0  0  0  0  0  0  0  0
  -32.1690  -25.9050   18.6070 N   0  0  0  0  0  0  0  0  0  0  0  0
  -29.0700  -21.7339   20.4912 N   0  0  0  0  0  0  0  0  0  0  0  0
  -20.8625  -27.9010   21.9583 N   0  0  0  0  0  0  0  0  0  0  0  0
  -23.1505  -23.4386   18.3633 N   0  0  0  0  0  0  0  0  0  0  0  0
  -25.0197  -23.3371   15.2708 N   0  3  0  0  0  0  0  0  0  0  0  0
  -30.8663  -14.7920   18.3515 O   0  0  0  0  0  0  0  0  0  0  0  0
  -23.1516  -27.9541   22.3819 O   0  0  0  0  0  0  0  0  0  0  0  0
  -21.2031  -25.2748   19.3854 O   0  0  0  0  0  0  0  0  0  0  0  0
  -25.4399  -23.6141   18.0390 O   0  0  0  0  0  0  0  0  0  0  0  0
  -28.1905  -22.6754   22.4204 O   0  0  0  0  0  0  0  0  0  0  0  0
  -24.3296  -10.6500   19.1884 O   0  0  0  0  0  0  0  0  0  0  0  0
  -28.7360  -28.9058   20.7748 O   0  0  0  0  0  0  0  0  0  1  0  0
  -21.8367   -8.2901   23.5036 F   0  0  0  0  0  0  0  0  0  0  0  0
  -22.6101  -12.0968   20.7986 F   0  0  0  0  0  0  0  0  0  0  0  0
  -30.4916  -21.4328   18.1674 F   0  0  0  0  0  0  0  0  0  0  0  0
  1  2  1  0  0  0  0
  1  5  2  0  0  0  0
  2  6  2  0  0  0  0
  3  8  2  0  0  0  0
  3 16  1  0  0  0  0
  4  9  1  0  0  0  0
  4 16  2  0  0  0  0
  5 18  1  0  0  0  0
  6 20  1  0  0  0  0
  7 10  2  0  0  0  0
  7 19  1  0  0  0  0
  8 24  1  0  0  0  0
  9 24  2  0  0  0  0
 10 25  1  0  0  0  0
 11 12  2  0  0  0  0
 11 26  1  0  0  0  0
 12 27  1  0  0  0  0
 13 21  1  0  0  0  0
 13 25  2  0  0  0  0
 14 27  2  0  0  0  0
 14 28  1  0  0  0  0
 15 23  1  0  0  0  0
 15 65  2  0  0  0  0
 16 30  1  0  0  0  0
 17 30  1  0  0  0  0
 17 32  2  0  0  0  0
 17 33  1  0  0  0  0
 18 20  2  0  0  0  0
 18 38  1  0  0  0  0
 19 21  2  0  0  0  0
 19 39  1  0  0  0  0
 20 47  1  0  0  0  0
 21 40  1  0  0  0  0
 22 23  2  0  0  0  0
 22 29  1  0  0  0  0
 22 50  1  0  0  0  0
 23 72  1  0  0  0  0
 24 82  1  0  0  0  0
 25 83  1  0  0  0  0
 26 28  2  0  0  0  0
 26 82  1  0  0  0  0
 27 84  1  0  0  0  0
 28 85  1  0  0  0  0
 29 31  2  0  0  0  0
 29 86  1  0  0  0  0
 30 66  2  0  0  0  0
 31 65  1  0  0  0  0
 31 73  1  0  0  0  0
 32 67  1  0  0  0  0
 32 70  1  0  0  0  0
 33 71  1  0  0  0  0
 33 77  2  0  0  0  0
 34 48  1  0  0  0  0
 34 74  1  0  0  0  0
 34 78  2  0  0  0  0
 35 60  1  0  0  0  0
 35 68  1  0  0  0  0
 35 79  2  0  0  0  0
 36 61  1  0  0  0  0
 36 75  1  0  0  0  0
 36 80  2  0  0  0  0
 37 69  1  0  0  0  0
 37 73  1  0  0  0  0
 37 81  2  0  0  0  0
 38 41  1  0  0  0  0
 39 48  1  0  0  0  0
 40 68  1  0  0  0  0
 41 43  1  0  0  0  0
 42 44  1  0  0  0  0
 42 45  1  0  0  0  0
 43 47  1  0  0  0  0
 44 49  1  0  0  0  0
 45 69  1  0  0  0  0
 46 49  1  0  0  0  0
 46 69  1  0  0  0  0
 47 74  1  0  0  0  0
 48 68  1  0  0  0  0
 49 67  1  0  0  0  0
 51 61  1  0  0  0  0
 52 62  1  0  0  0  0
 53 63  1  0  0  0  0
 54 64  1  0  0  0  0
 55 64  1  0  0  0  0
 56 64  1  0  0  0  0
 57 76  1  0  0  0  0
 58 59  1  0  0  0  0
 58 62  1  0  0  0  0
 59 83  1  0  0  0  0
 60 64  1  0  0  0  0
 60 75  1  0  0  0  0
 61 76  1  0  0  0  0
 62 63  1  0  0  0  0
 63 72  1  0  0  0  0
 66 67  1  0  0  0  0
M  CHG  1  76   1
M  ISO  4  37 100  59 101  73 100  83 101
M  END
> <Batch ID>
0189

> <Smiles>
CNC(C)C(=O)NC(C(=O)N1Cc2cc([101O:1][101CH2:1]CC(C)C(C)Nc3cnc([100NH:0][100C:0](=O)N4CCCC(n5nc(-c6ccc(Oc7ccc(F)cc7F)cc6)c(C(N)=O)c5N)C4)c(F)c3C)ccc2CC1C(=O)NC1CCCc2ccccc21)C(C)(C)C

> <Shape>
0.266

> <Color>
0.079

> <Negative vol penalty>
0.000

$$$$

  -OEChem-04052305183D

 90 98  0     1  0  0  0  0  0999 V2000
  -30.7490  -12.6627   19.6051 C   0  0  0  0  0  0  0  0  0  0  0  0
  -30.3607  -13.9264   20.0383 C   0  0  0  0  0  0  0  0  0  0  0  0
  -25.8951  -28.7217   20.6178 C   0  0  0  0  0  0  0  0  0  0  0  0
  -26.8411  -27.7927   22.6374 C   0  0  0  0  0  0  0  0  0  0  0  0
  -29.7961  -11.7737   19.1096 C   0  0  0  0  0  0  0  0  0  0  0  0
  -29.0194  -14.3022   19.9754 C   0  0  0  0  0  0  0  0  0  0  0  0
  -26.0143  -17.8974   23.9187 C   0  0  0  0  0  0  0  0  0  0  0  0
  -24.6942  -28.9552   21.2876 C   0  0  0  0  0  0  0  0  0  0  0  0
  -25.6401  -28.0262   23.3074 C   0  0  0  0  0  0  0  0  0  0  0  0
  -25.6807  -19.2507   23.8874 C   0  0  0  0  0  0  0  0  0  0  0  0
  -21.9973  -27.1657   22.2618 C   0  0  0  0  0  0  0  0  0  0  0  0
  -20.8144  -26.8160   21.6108 C   0  0  0  0  0  0  0  0  0  0  0  0
  -23.5009  -18.6872   23.0213 C   0  0  0  0  0  0  0  0  0  0  0  0
  -20.0762  -29.1140   21.7177 C   0  0  0  0  0  0  0  0  0  0  0  0
  -29.7047  -18.0656   18.8434 C   0  0  0  0  0  0  0  0  0  0  0  0
  -26.9686  -28.1404   21.2926 C   0  0  0  0  0  0  0  0  0  0  0  0
  -29.3058  -28.7743   20.4906 C   0  0  0  0  0  0  0  0  0  0  0  0
  -28.4410  -12.1352   19.0495 C   0  0  0  0  0  0  0  0  0  0  0  0
  -25.0961  -16.9279   23.4906 C   0  0  0  0  0  0  0  0  0  0  0  0
  -28.0477  -13.4176   19.4774 C   0  0  0  0  0  0  0  0  0  0  0  0
  -23.8244  -17.3220   23.0506 C   0  0  0  0  0  0  0  0  0  0  0  0
  -24.5667  -28.6075   22.6324 C   0  0  0  0  0  0  0  0  0  0  0  0
  -24.4250  -19.6460   23.4360 C   0  0  0  0  0  0  0  0  0  0  0  0
  -22.2197  -28.4896   22.6409 C   0  0  0  0  0  0  0  0  0  0  0  0
  -19.8538  -27.7901   21.3387 C   0  0  0  0  0  0  0  0  0  0  0  0
  -21.2591  -29.4637   22.3688 C   0  0  0  0  0  0  0  0  0  0  0  0
  -28.2093  -27.8984   20.6011 C   0  0  0  0  0  0  0  0  0  0  0  0
  -30.2252  -19.1659   19.4919 C   0  0  0  0  0  0  0  0  0  0  0  0
  -30.2252  -28.0809   19.7420 C   0  0  0  0  0  0  0  0  0  0  0  0
  -28.0977  -19.6822   19.6223 C   0  0  0  0  0  0  0  0  0  0  0  0
  -29.4780  -30.0966   21.0177 C   0  0  0  0  0  0  0  0  0  0  0  0
  -25.0487  -14.7508   21.1751 C   0  0  0  0  0  0  0  0  0  0  0  0
  -22.2845  -13.8485   22.6129 C   0  0  0  0  0  0  0  0  0  0  0  0
  -26.6648  -21.5357   20.5445 C   0  0  0  0  0  0  0  0  0  0  0  0
  -19.6389  -14.6963   24.5950 C   0  0  0  0  0  0  0  0  0  0  0  0
  -31.1185  -22.2947   18.9825 C   0  0  0  0  0  0  0  0  0  0  0  0
  -27.4542  -11.1575   18.4622 C   0  0  0  0  0  0  0  0  0  0  0  0
  -25.4616  -15.4703   23.5558 C   0  0  0  0  0  0  0  0  0  0  0  0
  -22.7953  -16.3192   22.5993 C   0  0  0  0  0  0  0  0  0  0  0  0
  -25.9996  -11.4964   18.7778 C   0  0  0  0  0  0  0  0  0  0  0  0
  -30.5210  -24.7114   16.3558 C   0  0  0  0  0  0  0  0  0  0  0  0
  -25.7318  -12.9782   18.5343 C   0  0  0  0  0  0  0  0  0  0  0  0
  -29.9606  -25.8923   17.1506 C   0  0  0  0  0  0  0  0  0  0  0  0
  -30.0345  -23.3817   16.9243 C   0  0  0  0  0  0  0  0  0  0  0  0
  -29.7692  -24.3652   19.1684 C   0  0  0  0  0  0  0  0  0  0  0  0
  -26.5986  -13.8530   19.4480 C   0  0  1  0  0  0  0  0  0  0  0  0
  -24.6338  -14.6039   22.6117 C   0  0  1  0  0  0  0  0  0  0  0  0
  -30.2425  -25.7380   18.6569 C   0  0  2  0  0  0  0  0  0  0  0  0
  -17.5210  -13.7587   25.5609 C   0  0  0  0  0  0  0  0  0  0  0  0
  -24.8140  -21.8463   18.0800 C   0  0  0  0  0  0  0  0  0  0  0  0
  -25.4223  -24.0267   19.1503 C   0  0  0  0  0  0  0  0  0  0  0  0
  -25.2576  -22.8101   24.4072 C   0  0  0  0  0  0  0  0  0  0  0  0
  -20.9288  -14.1148   19.8924 C   0  0  0  0  0  0  0  0  0  0  0  0
  -18.7196  -14.1074   21.0705 C   0  0  0  0  0  0  0  0  0  0  0  0
  -20.2182  -12.1189   21.2212 C   0  0  0  0  0  0  0  0  0  0  0  0
  -32.8386  -19.3124   17.4698 C   0  0  0  0  0  0  0  0  0  0  0  0
  -33.7174  -20.8239   19.2516 C   0  0  0  0  0  0  0  0  0  0  0  0
  -20.5841  -15.1095   27.3689 C   0  0  0  0  0  0  0  0  0  0  0  0
  -31.6578  -19.4231   19.7394 C   0  0  0  0  0  0  0  0  0  0  0  0
  -24.8812  -22.7002   21.9151 C   0  0  0  0  0  0  0  0  0  0  0  0
  -20.8310  -14.2301   22.4699 C   0  0  1  0  0  0  0  0  0  0  0  0
  -25.1740  -21.9064   20.6188 C   0  0  1  0  0  0  0  0  0  0  0  0
  -19.0064  -13.9965   25.7844 C   0  0  2  0  0  0  0  0  0  0  0  0
  -24.7083  -22.6873   19.3565 C   0  0  0  0  0  0  0  0  0  0  0  0
  -25.1602  -21.8947   23.1934 C   0  0  2  0  0  0  0  0  0  1  0  0
  -20.1942  -13.6621   21.1701 C   0  0  0  0  0  0  0  0  0  0  0  0
  -32.4402  -20.2225   18.6411 C   0  0  0  0  0  0  0  0  0  0  0  0
  -28.4116  -26.7373   19.9728 N   0  0  0  0  0  0  0  0  0  0  0  0
  -29.3052  -20.0941   19.9389 N   0  0  0  0  0  0  0  0  0  0  0  0
  -29.6458  -26.8787   19.4603 N   0  0  0  0  0  0  0  0  0  0  0  0
  -23.2025  -14.9064   22.6758 N   0  0  0  0  0  0  0  0  0  0  0  0
  -30.3501  -23.2904   18.3569 N   0  0  0  0  0  0  0  0  0  0  0  0
  -31.4645  -28.3883   19.3038 N   0  0  0  0  0  0  0  0  0  0  0  0
  -28.4341  -30.6593   21.7646 N   0  0  0  0  0  0  0  0  0  0  0  0
  -26.8657  -20.3257   19.8888 N   0  0  0  0  0  0  0  0  0  0  0  0
  -26.0512  -13.8824   20.7874 N   0  0  0  0  0  0  0  0  0  0  0  0
  -20.1723  -13.7960   23.6971 N   0  0  0  0  0  0  0  0  0  0  0  0
  -31.6263  -21.3096   18.1443 N   0  0  0  0  0  0  0  0  0  0  0  0
  -19.1705  -14.8187   27.0165 N   0  3  0  0  0  0  0  0  0  0  0  0
  -30.5200  -30.7657   20.8179 O   0  0  0  0  0  0  0  0  0  0  0  0
  -24.4990  -15.5889   20.4701 O   0  0  0  0  0  0  0  0  0  0  0  0
  -22.5934  -12.6558   22.6740 O   0  0  0  0  0  0  0  0  0  0  0  0
  -27.5285  -22.2713   21.0153 O   0  0  0  0  0  0  0  0  0  0  0  0
  -19.6547  -15.9191   24.4726 O   0  0  0  0  0  0  0  0  0  0  0  0
  -31.3404  -22.2868   20.1981 O   0  0  0  0  0  0  0  0  0  0  0  0
  -23.3950  -28.8354   23.2865 O   0  0  0  0  0  0  0  0  0  0  0  0
  -24.0970  -20.9664   23.4037 O   0  0  0  0  0  0  0  0  0  1  0  0
  -18.7185  -27.4544   20.7121 F   0  0  0  0  0  0  0  0  0  0  0  0
  -21.4677  -30.7374   22.7294 F   0  0  0  0  0  0  0  0  0  0  0  0
  -27.9949  -18.1867   18.7868 S   0  0  0  0  0  0  0  0  0  0  0  0
  1  2  1  0  0  0  0
  1  5  2  0  0  0  0
  2  6  2  0  0  0  0
  3  8  2  0  0  0  0
  3 16  1  0  0  0  0
  4  9  1  0  0  0  0
  4 16  2  0  0  0  0
  5 18  1  0  0  0  0
  6 20  1  0  0  0  0
  7 10  2  0  0  0  0
  7 19  1  0  0  0  0
  8 22  1  0  0  0  0
  9 22  2  0  0  0  0
 10 23  1  0  0  0  0
 11 12  2  0  0  0  0
 11 24  1  0  0  0  0
 12 25  1  0  0  0  0
 13 21  1  0  0  0  0
 13 23  2  0  0  0  0
 14 25  2  0  0  0  0
 14 26  1  0  0  0  0
 15 28  2  0  0  0  0
 15 90  1  0  0  0  0
 16 27  1  0  0  0  0
 17 27  1  0  0  0  0
 17 29  2  0  0  0  0
 17 31  1  0  0  0  0
 18 20  2  0  0  0  0
 18 37  1  0  0  0  0
 19 21  2  0  0  0  0
 19 38  1  0  0  0  0
 20 46  1  0  0  0  0
 21 39  1  0  0  0  0
 22 86  1  0  0  0  0
 23 87  1  0  0  0  0
 24 26  2  0  0  0  0
 24 86  1  0  0  0  0
 25 88  1  0  0  0  0
 26 89  1  0  0  0  0
 27 68  2  0  0  0  0
 28 59  1  0  0  0  0
 28 69  1  0  0  0  0
 29 70  1  0  0  0  0
 29 73  1  0  0  0  0
 30 69  2  0  0  0  0
 30 75  1  0  0  0  0
 30 90  1  0  0  0  0
 31 74  1  0  0  0  0
 31 80  2  0  0  0  0
 32 47  1  0  0  0  0
 32 76  1  0  0  0  0
 32 81  2  0  0  0  0
 33 61  1  0  0  0  0
 33 71  1  0  0  0  0
 33 82  2  0  0  0  0
 34 62  1  0  0  0  0
 34 75  1  0  0  0  0
 34 83  2  0  0  0  0
 35 63  1  0  0  0  0
 35 77  1  0  0  0  0
 35 84  2  0  0  0  0
 36 72  1  0  0  0  0
 36 78  1  0  0  0  0
 36 85  2  0  0  0  0
 37 40  1  0  0  0  0
 38 47  1  0  0  0  0
 39 71  1  0  0  0  0
 40 42  1  0  0  0  0
 41 43  1  0  0  0  0
 41 44  1  0  0  0  0
 42 46  1  0  0  0  0
 43 48  1  0  0  0  0
 44 72  1  0  0  0  0
 45 48  1  0  0  0  0
 45 72  1  0  0  0  0
 46 76  1  0  0  0  0
 47 71  1  0  0  0  0
 48 70  1  0  0  0  0
 49 63  1  0  0  0  0
 50 64  1  0  0  0  0
 51 64  1  0  0  0  0
 52 65  1  0  0  0  0
 53 66  1  0  0  0  0
 54 66  1  0  0  0  0
 55 66  1  0  0  0  0
 56 67  1  0  0  0  0
 57 67  1  0  0  0  0
 58 79  1  0  0  0  0
 59 67  1  0  0  0  0
 60 62  1  0  0  0  0
 60 65  1  0  0  0  0
 61 66  1  0  0  0  0
 61 77  1  0  0  0  0
 62 64  1  0  0  0  0
 63 79  1  0  0  0  0
 65 87  1  0  0  0  0
 67 78  1  0  0  0  0
 68 70  1  0  0  0  0
M  CHG  1  79   1
M  ISO  4  36 100  65 101  78 100  87 101
M  END
> <Batch ID>
0189

> <Smiles>
CNC(C)C(=O)NC(C(=O)N1Cc2cc([101O:1][101CH:1](C)CC(C(=O)Nc3nc(CC(C)(C)[100NH:0][100C:0](=O)N4CCCC(n5nc(-c6ccc(Oc7ccc(F)cc7F)cc6)c(C(N)=O)c5N)C4)cs3)C(C)C)ccc2CC1C(=O)NC1CCCc2ccccc21)C(C)(C)C

> <Shape>
0.244

> <Color>
0.078

> <Negative vol penalty>
0.000

$$$$

  -OEChem-04052305183D

 84 92  0     1  0  0  0  0  0999 V2000
  -21.5415  -19.7464   23.1014 C   0  0  0  0  0  0  0  0  0  0  0  0
  -22.4765  -19.1546   23.9446 C   0  0  0  0  0  0  0  0  0  0  0  0
  -23.1909   -9.8194   19.9317 C   0  0  0  0  0  0  0  0  0  0  0  0
  -23.5704   -9.9992   22.3109 C   0  0  0  0  0  0  0  0  0  0  0  0
  -20.8381  -20.8736   23.5242 C   0  0  0  0  0  0  0  0  0  0  0  0
  -22.7095  -19.6903   25.2107 C   0  0  0  0  0  0  0  0  0  0  0  0
  -22.9413  -16.1367   28.8111 C   0  0  0  0  0  0  0  0  0  0  0  0
  -22.4251   -8.6724   20.1405 C   0  0  0  0  0  0  0  0  0  0  0  0
  -22.8046   -8.8522   22.5198 C   0  0  0  0  0  0  0  0  0  0  0  0
  -24.1250  -15.4067   28.9100 C   0  0  0  0  0  0  0  0  0  0  0  0
  -23.2068   -5.5058   22.2544 C   0  0  0  0  0  0  0  0  0  0  0  0
  -23.7061   -4.5444   23.1331 C   0  0  0  0  0  0  0  0  0  0  0  0
  -24.8207  -16.7964   30.7550 C   0  0  0  0  0  0  0  0  0  0  0  0
  -21.7502   -4.8032   24.5276 C   0  0  0  0  0  0  0  0  0  0  0  0
  -32.9118  -13.6158   25.4755 C   0  0  0  0  0  0  0  0  0  0  0  0
  -23.7636  -10.4828   21.0169 C   0  0  0  0  0  0  0  0  0  0  0  0
  -24.1012  -12.9997   20.7737 C   0  0  0  0  0  0  0  0  0  0  0  0
  -21.0557  -21.4176   24.7999 C   0  0  0  0  0  0  0  0  0  0  0  0
  -22.6928  -17.2106   29.6778 C   0  0  0  0  0  0  0  0  0  0  0  0
  -22.0094  -20.8266   25.6505 C   0  0  0  0  0  0  0  0  0  0  0  0
  -23.6319  -17.5367   30.6667 C   0  0  0  0  0  0  0  0  0  0  0  0
  -22.2320   -8.1888   21.4345 C   0  0  0  0  0  0  0  0  0  0  0  0
  -25.0662  -15.7384   29.8802 C   0  0  0  0  0  0  0  0  0  0  0  0
  -21.9793   -6.1160   22.5124 C   0  0  0  0  0  0  0  0  0  0  0  0
  -22.9778   -4.1930   24.2696 C   0  0  0  0  0  0  0  0  0  0  0  0
  -21.2510   -5.7647   23.6489 C   0  0  0  0  0  0  0  0  0  0  0  0
  -24.5551  -11.6674   20.8018 C   0  0  0  0  0  0  0  0  0  0  0  0
  -31.8868  -13.4306   26.3795 C   0  0  0  0  0  0  0  0  0  0  0  0
  -25.2319  -13.7428   20.5380 C   0  0  0  0  0  0  0  0  0  0  0  0
  -31.3207  -13.0797   24.0645 C   0  0  0  0  0  0  0  0  0  0  0  0
  -22.7759  -13.5190   20.9455 C   0  0  0  0  0  0  0  0  0  0  0  0
  -22.2355  -20.3341   29.3055 C   0  0  0  0  0  0  0  0  0  0  0  0
  -21.6130  -20.2271   32.4872 C   0  0  0  0  0  0  0  0  0  0  0  0
  -22.0380  -18.6247   35.4702 C   0  0  0  0  0  0  0  0  0  0  0  0
  -31.0374  -12.7840   21.5788 C   0  0  0  0  0  0  0  0  0  0  0  0
  -20.3055  -22.6651   25.1946 C   0  0  0  0  0  0  0  0  0  0  0  0
  -21.3991  -17.9711   29.5755 C   0  0  0  0  0  0  0  0  0  0  0  0
  -23.4039  -18.6679   31.6347 C   0  0  0  0  0  0  0  0  0  0  0  0
  -20.3406  -22.9481   26.6943 C   0  0  0  0  0  0  0  0  0  0  0  0
  -29.5229  -13.4662   18.4296 C   0  0  0  0  0  0  0  0  0  0  0  0
  -21.7595  -22.7960   27.2331 C   0  0  0  0  0  0  0  0  0  0  0  0
  -28.0350  -13.2094   18.6796 C   0  0  0  0  0  0  0  0  0  0  0  0
  -30.4048  -12.4812   19.1949 C   0  0  0  0  0  0  0  0  0  0  0  0
  -28.6460  -12.1385   20.8856 C   0  0  0  0  0  0  0  0  0  0  0  0
  -22.2722  -21.3636   27.0407 C   0  0  1  0  0  0  0  0  0  0  0  0
  -21.4798  -19.3709   30.1767 C   0  0  1  0  0  0  0  0  0  0  0  0
  -27.7194  -13.1469   20.1869 C   0  0  2  0  0  0  0  0  0  0  0  0
  -21.4402  -18.7964   37.9014 C   0  0  0  0  0  0  0  0  0  0  0  0
  -29.9875  -17.2205   29.7918 C   0  0  0  0  0  0  0  0  0  0  0  0
  -32.4978  -15.4859   30.3100 C   0  0  0  0  0  0  0  0  0  0  0  0
  -23.6979  -22.4264   32.8421 C   0  0  0  0  0  0  0  0  0  0  0  0
  -23.7459  -21.8901   35.2871 C   0  0  0  0  0  0  0  0  0  0  0  0
  -21.6383  -22.7074   34.2324 C   0  0  0  0  0  0  0  0  0  0  0  0
  -20.5856  -16.0466   35.4146 C   0  0  0  0  0  0  0  0  0  0  0  0
  -31.8890  -13.5606   27.8741 C   0  0  0  0  0  0  0  0  0  0  0  0
  -28.6183  -15.0821   29.8531 C   0  0  0  0  0  0  0  0  0  0  0  0
  -27.3732  -15.7230   30.4578 C   0  0  0  0  0  0  0  0  0  1  0  0
  -22.4396  -20.3599   33.7434 C   0  0  1  0  0  0  0  0  0  0  0  0
  -21.0475  -18.2237   36.5484 C   0  0  2  0  0  0  0  0  0  0  0  0
  -29.9369  -15.7658   30.2771 C   0  0  1  0  0  0  0  0  0  0  0  0
  -31.1614  -14.9252   29.8355 C   0  0  1  0  0  0  0  0  0  0  0  0
  -22.8859  -21.8258   34.0069 C   0  0  0  0  0  0  0  0  0  0  0  0
  -32.5892  -13.4146   24.1476 N   0  0  0  0  0  0  0  0  0  0  0  0
  -25.8716  -11.5669   20.5999 N   0  0  0  0  0  0  0  0  0  0  0  0
  -26.2546  -12.8454   20.4426 N   0  0  0  0  0  0  0  0  0  0  0  0
  -22.1265  -19.3855   31.4903 N   0  0  0  0  0  0  0  0  0  0  0  0
  -30.0518  -12.4791   20.6163 N   0  0  0  0  0  0  0  0  0  0  0  0
  -25.4413  -15.0698   20.4051 N   0  0  0  0  0  0  0  0  0  0  0  0
  -21.7297  -12.6163   21.1798 N   0  0  0  0  0  0  0  0  0  0  0  0
  -30.5773  -12.7831   22.8953 N   0  0  0  0  0  0  0  0  0  0  0  0
  -21.7028  -20.4845   28.0394 N   0  0  0  0  0  0  0  0  0  0  0  0
  -21.6457  -19.7746   34.8183 N   0  0  0  0  0  0  0  0  0  0  0  0
  -20.9835  -16.7395   36.6670 N   0  3  0  0  0  0  0  0  0  0  0  0
  -31.2194  -14.7977   28.3518 N   0  3  0  0  0  0  0  0  0  0  0  0
  -22.5241  -14.7460   20.8763 O   0  0  0  0  0  0  0  0  0  0  0  0
  -23.2275  -20.9000   29.7497 O   0  0  0  0  0  0  0  0  0  0  0  0
  -20.5472  -20.8416   32.3969 O   0  0  0  0  0  0  0  0  0  0  0  0
  -23.0597  -17.9840   35.2328 O   0  0  0  0  0  0  0  0  0  0  0  0
  -32.1971  -13.0546   21.2569 O   0  0  0  0  0  0  0  0  0  0  0  0
  -21.4846   -7.0697   21.6387 O   0  0  0  0  0  0  0  0  0  0  0  0
  -26.2228  -15.0280   29.9785 O   0  0  0  0  0  0  0  0  0  1  0  0
  -23.4566   -3.2687   25.1125 F   0  0  0  0  0  0  0  0  0  0  0  0
  -20.0705   -6.3466   23.9014 F   0  0  0  0  0  0  0  0  0  0  0  0
  -30.4559  -12.9882   25.5440 S   0  0  0  0  0  0  0  0  0  0  0  0
  1  2  1  0  0  0  0
  1  5  2  0  0  0  0
  2  6  2  0  0  0  0
  3  8  2  0  0  0  0
  3 16  1  0  0  0  0
  4  9  1  0  0  0  0
  4 16  2  0  0  0  0
  5 18  1  0  0  0  0
  6 20  1  0  0  0  0
  7 10  2  0  0  0  0
  7 19  1  0  0  0  0
  8 22  1  0  0  0  0
  9 22  2  0  0  0  0
 10 23  1  0  0  0  0
 11 12  2  0  0  0  0
 11 24  1  0  0  0  0
 12 25  1  0  0  0  0
 13 21  1  0  0  0  0
 13 23  2  0  0  0  0
 14 25  2  0  0  0  0
 14 26  1  0  0  0  0
 15 28  2  0  0  0  0
 15 63  1  0  0  0  0
 16 27  1  0  0  0  0
 17 27  1  0  0  0  0
 17 29  2  0  0  0  0
 17 31  1  0  0  0  0
 18 20  2  0  0  0  0
 18 36  1  0  0  0  0
 19 21  2  0  0  0  0
 19 37  1  0  0  0  0
 20 45  1  0  0  0  0
 21 38  1  0  0  0  0
 22 80  1  0  0  0  0
 23 81  1  0  0  0  0
 24 26  2  0  0  0  0
 24 80  1  0  0  0  0
 25 82  1  0  0  0  0
 26 83  1  0  0  0  0
 27 64  2  0  0  0  0
 28 55  1  0  0  0  0
 28 84  1  0  0  0  0
 29 65  1  0  0  0  0
 29 68  1  0  0  0  0
 30 63  2  0  0  0  0
 30 70  1  0  0  0  0
 30 84  1  0  0  0  0
 31 69  1  0  0  0  0
 31 75  2  0  0  0  0
 32 46  1  0  0  0  0
 32 71  1  0  0  0  0
 32 76  2  0  0  0  0
 33 58  1  0  0  0  0
 33 66  1  0  0  0  0
 33 77  2  0  0  0  0
 34 59  1  0  0  0  0
 34 72  1  0  0  0  0
 34 78  2  0  0  0  0
 35 67  1  0  0  0  0
 35 70  1  0  0  0  0
 35 79  2  0  0  0  0
 36 39  1  0  0  0  0
 37 46  1  0  0  0  0
 38 66  1  0  0  0  0
 39 41  1  0  0  0  0
 40 42  1  0  0  0  0
 40 43  1  0  0  0  0
 41 45  1  0  0  0  0
 42 47  1  0  0  0  0
 43 67  1  0  0  0  0
 44 47  1  0  0  0  0
 44 67  1  0  0  0  0
 45 71  1  0  0  0  0
 46 66  1  0  0  0  0
 47 65  1  0  0  0  0
 48 59  1  0  0  0  0
 49 60  1  0  0  0  0
 50 61  1  0  0  0  0
 51 62  1  0  0  0  0
 52 62  1  0  0  0  0
 53 62  1  0  0  0  0
 54 73  1  0  0  0  0
 55 74  1  0  0  0  0
 56 57  1  0  0  0  0
 56 60  1  0  0  0  0
 57 81  1  0  0  0  0
 58 62  1  0  0  0  0
 58 72  1  0  0  0  0
 59 73  1  0  0  0  0
 60 61  1  0  0  0  0
 61 74  1  0  0  0  0
 64 65  1  0  0  0  0
M  CHG  2  73   1  74   1
M  ISO  4  35 100  57 101  70 100  81 101
M  END
> <Batch ID>
0189

> <Smiles>
CNC(C)C(=O)NC(C(=O)N1Cc2cc([101O:1][101CH2:1]CC(C)C(C)NCc3cnc([100NH:0][100C:0](=O)N4CCCC(n5nc(-c6ccc(Oc7ccc(F)cc7F)cc6)c(C(N)=O)c5N)C4)s3)ccc2CC1C(=O)NC1CCCc2ccccc21)C(C)(C)C

> <Shape>
0.140

> <Color>
0.175

> <Negative vol penalty>
0.000

$$$$

  -OEChem-04052305183D

 85 93  0     1  0  0  0  0  0999 V2000
  -24.0735  -17.0871   27.7361 C   0  0  0  0  0  0  0  0  0  0  0  0
  -25.1816  -17.9027   27.5306 C   0  0  0  0  0  0  0  0  0  0  0  0
  -26.3494  -12.8620   21.5943 C   0  0  0  0  0  0  0  0  0  0  0  0
  -25.6522  -13.8898   19.5220 C   0  0  0  0  0  0  0  0  0  0  0  0
  -23.0825  -17.0003   26.7593 C   0  0  0  0  0  0  0  0  0  0  0  0
  -25.2999  -18.6311   26.3474 C   0  0  0  0  0  0  0  0  0  0  0  0
  -27.8664  -24.8322   23.8421 C   0  0  0  0  0  0  0  0  0  0  0  0
  -25.1269  -12.1951   21.6749 C   0  0  0  0  0  0  0  0  0  0  0  0
  -24.4298  -13.2228   19.6024 C   0  0  0  0  0  0  0  0  0  0  0  0
  -28.7004  -25.3264   22.8402 C   0  0  0  0  0  0  0  0  0  0  0  0
  -23.6791   -9.4718   20.2890 C   0  0  0  0  0  0  0  0  0  0  0  0
  -23.6999   -8.1188   20.6274 C   0  0  0  0  0  0  0  0  0  0  0  0
  -26.8878  -25.1595   21.2573 C   0  0  0  0  0  0  0  0  0  0  0  0
  -22.3516   -8.5857   22.5771 C   0  0  0  0  0  0  0  0  0  0  0  0
  -26.6120  -13.7094   20.5179 C   0  0  0  0  0  0  0  0  0  0  0  0
  -29.0522  -13.9438   19.8123 C   0  0  0  0  0  0  0  0  0  0  0  0
  -23.1840  -17.7354   25.5677 C   0  0  0  0  0  0  0  0  0  0  0  0
  -26.5376  -24.4870   23.5561 C   0  0  0  0  0  0  0  0  0  0  0  0
  -24.3100  -18.5530   25.3531 C   0  0  0  0  0  0  0  0  0  0  0  0
  -26.0382  -24.6635   22.2578 C   0  0  0  0  0  0  0  0  0  0  0  0
  -24.1672  -12.3755   20.6789 C   0  0  0  0  0  0  0  0  0  0  0  0
  -28.2121  -25.4875   21.5469 C   0  0  0  0  0  0  0  0  0  0  0  0
  -22.9946  -10.3818   21.0947 C   0  0  0  0  0  0  0  0  0  0  0  0
  -23.0361   -7.6757   21.7714 C   0  0  0  0  0  0  0  0  0  0  0  0
  -22.3308   -9.9388   22.2387 C   0  0  0  0  0  0  0  0  0  0  0  0
  -27.8744  -14.3990   20.4345 C   0  0  0  0  0  0  0  0  0  0  0  0
  -29.6336  -23.6413   17.5645 C   0  0  0  0  0  0  0  0  0  0  0  0
  -29.6913  -22.8209   16.4574 C   0  0  0  0  0  0  0  0  0  0  0  0
  -29.9582  -14.9572   20.0091 C   0  0  0  0  0  0  0  0  0  0  0  0
  -29.5384  -21.7026   18.5854 C   0  0  0  0  0  0  0  0  0  0  0  0
  -29.3048  -12.7148   19.1183 C   0  0  0  0  0  0  0  0  0  0  0  0
  -24.8431  -21.8002   23.6726 C   0  0  0  0  0  0  0  0  0  0  0  0
  -22.3803  -23.7812   22.9430 C   0  0  0  0  0  0  0  0  0  0  0  0
  -21.3407  -26.7257   21.5659 C   0  0  0  0  0  0  0  0  0  0  0  0
  -29.3747  -20.8302   20.9431 C   0  0  0  0  0  0  0  0  0  0  0  0
  -22.1107  -17.5727   24.5207 C   0  0  0  0  0  0  0  0  0  0  0  0
  -25.6431  -23.9804   24.6541 C   0  0  0  0  0  0  0  0  0  0  0  0
  -24.6135  -24.3270   21.9037 C   0  0  0  0  0  0  0  0  0  0  0  0
  -22.1278  -18.6663   23.4557 C   0  0  0  0  0  0  0  0  0  0  0  0
  -31.0203  -18.4901   23.0627 C   0  0  0  0  0  0  0  0  0  0  0  0
  -23.5496  -18.9027   22.9562 C   0  0  0  0  0  0  0  0  0  0  0  0
  -30.5122  -17.1336   22.5687 C   0  0  0  0  0  0  0  0  0  0  0  0
  -29.9307  -19.5592   23.0048 C   0  0  0  0  0  0  0  0  0  0  0  0
  -28.7621  -18.3461   21.2070 C   0  0  0  0  0  0  0  0  0  0  0  0
  -24.4620  -19.3777   24.0934 C   0  0  1  0  0  0  0  0  0  0  0  0
  -24.4553  -23.1766   24.1339 C   0  0  1  0  0  0  0  0  0  0  0  0
  -29.8425  -17.2525   21.1856 C   0  0  2  0  0  0  0  0  0  0  0  0
  -29.7864  -23.1624   15.0241 C   0  0  0  0  0  0  0  0  0  0  0  0
  -19.2645  -28.0495   21.0820 C   0  0  0  0  0  0  0  0  0  0  0  0
  -30.1104  -27.9702   21.3104 C   0  0  0  0  0  0  0  0  0  0  0  0
  -21.7461  -21.9271   20.6042 C   0  0  0  0  0  0  0  0  0  0  0  0
  -20.3290  -23.7491   19.6345 C   0  0  0  0  0  0  0  0  0  0  0  0
  -19.7427  -22.7599   21.8482 C   0  0  0  0  0  0  0  0  0  0  0  0
  -28.7722  -27.7171   16.4642 C   0  0  0  0  0  0  0  0  0  0  0  0
  -26.9131  -27.7059   18.1530 C   0  0  0  0  0  0  0  0  0  0  0  0
  -22.2389  -28.9751   23.2667 C   0  0  0  0  0  0  0  0  0  0  0  0
  -29.6576  -25.1414   17.5545 C   0  0  0  0  0  0  0  0  0  0  0  0
  -29.3646  -27.7188   18.9155 C   0  0  0  0  0  0  0  0  0  0  0  0
  -21.7535  -24.2814   21.6639 C   0  0  1  0  0  0  0  0  0  0  0  0
  -20.3894  -27.7945   22.0731 C   0  0  2  0  0  0  0  0  0  0  0  0
  -29.0515  -27.3839   20.3829 C   0  0  1  0  0  0  0  0  0  1  0  0
  -20.9203  -23.1840   20.9436 C   0  0  0  0  0  0  0  0  0  0  0  0
  -28.3409  -27.2421   17.8573 C   0  0  0  0  0  0  0  0  0  0  0  0
  -28.0162  -15.6074   20.9855 N   0  0  0  0  0  0  0  0  0  0  0  0
  -29.5456  -23.0018   18.7856 N   0  0  0  0  0  0  0  0  0  0  0  0
  -29.2939  -15.9201   20.7102 N   0  0  0  0  0  0  0  0  0  0  0  0
  -23.7799  -23.8290   23.0103 N   0  0  0  0  0  0  0  0  0  0  0  0
  -29.3447  -19.6176   21.6639 N   0  0  0  0  0  0  0  0  0  0  0  0
  -31.2504  -15.1095   19.6492 N   0  0  0  0  0  0  0  0  0  0  0  0
  -28.2632  -11.7837   19.0078 N   0  0  0  0  0  0  0  0  0  0  0  0
  -29.4606  -20.6767   19.5597 N   0  0  0  0  0  0  0  0  0  0  0  0
  -24.2320  -20.7787   24.3744 N   0  0  0  0  0  0  0  0  0  0  0  0
  -20.9906  -25.4723   22.0218 N   0  0  0  0  0  0  0  0  0  0  0  0
  -21.1195  -29.0746   22.2950 N   0  3  0  0  0  0  0  0  0  0  0  0
  -28.3297  -25.7455   17.8196 N   0  3  0  0  0  0  0  0  0  0  0  0
  -30.4259  -12.4432   18.6255 O   0  0  0  0  0  0  0  0  0  0  0  0
  -25.6369  -21.6744   22.7476 O   0  0  0  0  0  0  0  0  0  0  0  0
  -21.6544  -23.3701   23.8517 O   0  0  0  0  0  0  0  0  0  0  0  0
  -22.2964  -26.9769   20.8352 O   0  0  0  0  0  0  0  0  0  0  0  0
  -29.3552  -21.9243   21.5127 O   0  0  0  0  0  0  0  0  0  0  0  0
  -22.9743  -11.7247   20.7570 O   0  0  0  0  0  0  0  0  0  0  0  0
  -29.0243  -25.9691   20.5670 O   0  0  0  0  0  0  0  0  0  1  0  0
  -23.0548   -6.3762   22.0954 F   0  0  0  0  0  0  0  0  0  0  0  0
  -21.6706  -10.8081   23.0160 F   0  0  0  0  0  0  0  0  0  0  0  0
  -29.6355  -21.1802   16.9537 S   0  0  0  0  0  0  0  0  0  0  0  0
  1  2  1  0  0  0  0
  1  5  2  0  0  0  0
  2  6  2  0  0  0  0
  3  8  2  0  0  0  0
  3 15  1  0  0  0  0
  4  9  1  0  0  0  0
  4 15  2  0  0  0  0
  5 17  1  0  0  0  0
  6 19  1  0  0  0  0
  7 10  2  0  0  0  0
  7 18  1  0  0  0  0
  8 21  1  0  0  0  0
  9 21  2  0  0  0  0
 10 22  1  0  0  0  0
 11 12  2  0  0  0  0
 11 23  1  0  0  0  0
 12 24  1  0  0  0  0
 13 20  1  0  0  0  0
 13 22  2  0  0  0  0
 14 24  2  0  0  0  0
 14 25  1  0  0  0  0
 15 26  1  0  0  0  0
 16 26  1  0  0  0  0
 16 29  2  0  0  0  0
 16 31  1  0  0  0  0
 17 19  2  0  0  0  0
 17 36  1  0  0  0  0
 18 20  2  0  0  0  0
 18 37  1  0  0  0  0
 19 45  1  0  0  0  0
 20 38  1  0  0  0  0
 21 81  1  0  0  0  0
 22 82  1  0  0  0  0
 23 25  2  0  0  0  0
 23 81  1  0  0  0  0
 24 83  1  0  0  0  0
 25 84  1  0  0  0  0
 26 64  2  0  0  0  0
 27 28  2  0  0  0  0
 27 57  1  0  0  0  0
 27 65  1  0  0  0  0
 28 48  1  0  0  0  0
 28 85  1  0  0  0  0
 29 66  1  0  0  0  0
 29 69  1  0  0  0  0
 30 65  2  0  0  0  0
 30 71  1  0  0  0  0
 30 85  1  0  0  0  0
 31 70  1  0  0  0  0
 31 76  2  0  0  0  0
 32 46  1  0  0  0  0
 32 72  1  0  0  0  0
 32 77  2  0  0  0  0
 33 59  1  0  0  0  0
 33 67  1  0  0  0  0
 33 78  2  0  0  0  0
 34 60  1  0  0  0  0
 34 73  1  0  0  0  0
 34 79  2  0  0  0  0
 35 68  1  0  0  0  0
 35 71  1  0  0  0  0
 35 80  2  0  0  0  0
 36 39  1  0  0  0  0
 37 46  1  0  0  0  0
 38 67  1  0  0  0  0
 39 41  1  0  0  0  0
 40 42  1  0  0  0  0
 40 43  1  0  0  0  0
 41 45  1  0  0  0  0
 42 47  1  0  0  0  0
 43 68  1  0  0  0  0
 44 47  1  0  0  0  0
 44 68  1  0  0  0  0
 45 72  1  0  0  0  0
 46 67  1  0  0  0  0
 47 66  1  0  0  0  0
 49 60  1  0  0  0  0
 50 61  1  0  0  0  0
 51 62  1  0  0  0  0
 52 62  1  0  0  0  0
 53 62  1  0  0  0  0
 54 63  1  0  0  0  0
 55 63  1  0  0  0  0
 56 74  1  0  0  0  0
 57 75  1  0  0  0  0
 58 61  1  0  0  0  0
 58 63  1  0  0  0  0
 59 62  1  0  0  0  0
 59 73  1  0  0  0  0
 60 74  1  0  0  0  0
 61 82  1  0  0  0  0
 63 75  1  0  0  0  0
 64 66  1  0  0  0  0
M  CHG  2  74   1  75   1
M  ISO  4  35 100  61 101  71 100  82 101
M  END
> <Batch ID>
0189

> <Smiles>
CNC(C)C(=O)NC(C(=O)N1Cc2cc([101O:1][101CH:1](C)CC(C)(C)NCc3nc([100NH:0][100C:0](=O)N4CCCC(n5nc(-c6ccc(Oc7ccc(F)cc7F)cc6)c(C(N)=O)c5N)C4)sc3C)ccc2CC1C(=O)NC1CCCc2ccccc21)C(C)(C)C

> <Shape>
0.228

> <Color>
0.076

> <Negative vol penalty>
0.000

$$$$

  -OEChem-04052305183D

 94103  0     1  0  0  0  0  0999 V2000
  -16.7823  -29.4850   24.3938 C   0  0  0  0  0  0  0  0  0  0  0  0
  -16.9810  -28.4042   23.5407 C   0  0  0  0  0  0  0  0  0  0  0  0
  -23.8836   -9.6936   22.5219 C   0  0  0  0  0  0  0  0  0  0  0  0
  -23.9682   -9.4062   20.1245 C   0  0  0  0  0  0  0  0  0  0  0  0
  -17.7385  -30.4969   24.4695 C   0  0  0  0  0  0  0  0  0  0  0  0
  -18.1356  -28.3353   22.7619 C   0  0  0  0  0  0  0  0  0  0  0  0
  -22.6585  -22.7566   23.3215 C   0  0  0  0  0  0  0  0  0  0  0  0
  -22.8617   -8.7474   22.5993 C   0  0  0  0  0  0  0  0  0  0  0  0
  -22.9463   -8.4599   20.2019 C   0  0  0  0  0  0  0  0  0  0  0  0
  -23.4636  -21.6219   23.2186 C   0  0  0  0  0  0  0  0  0  0  0  0
  -20.4787   -6.1434   23.4685 C   0  0  0  0  0  0  0  0  0  0  0  0
  -20.5657   -5.1752   24.4688 C   0  0  0  0  0  0  0  0  0  0  0  0
  -24.8767  -22.7567   21.6175 C   0  0  0  0  0  0  0  0  0  0  0  0
  -22.6629   -4.4096   23.5452 C   0  0  0  0  0  0  0  0  0  0  0  0
  -30.9665  -15.6910   17.2551 C   0  0  0  0  0  0  0  0  0  0  0  0
  -24.4368  -10.0231   21.2845 C   0  0  0  0  0  0  0  0  0  0  0  0
  -26.8777  -10.7646   21.2809 C   0  0  0  0  0  0  0  0  0  0  0  0
  -18.9099  -30.4355   23.6984 C   0  0  0  0  0  0  0  0  0  0  0  0
  -22.9688  -23.9023   22.5835 C   0  0  0  0  0  0  0  0  0  0  0  0
  -19.1077  -29.3480   22.8263 C   0  0  0  0  0  0  0  0  0  0  0  0
  -24.0812  -23.9004   21.7260 C   0  0  0  0  0  0  0  0  0  0  0  0
  -22.3931   -8.1305   21.4393 C   0  0  0  0  0  0  0  0  0  0  0  0
  -24.5697  -21.6219   22.3685 C   0  0  0  0  0  0  0  0  0  0  0  0
  -21.4836   -6.2447   22.5065 C   0  0  0  0  0  0  0  0  0  0  0  0
  -21.6578   -4.3083   24.5072 C   0  0  0  0  0  0  0  0  0  0  0  0
  -22.5757   -5.3778   22.5448 C   0  0  0  0  0  0  0  0  0  0  0  0
  -25.4920  -11.0009   21.2038 C   0  0  0  0  0  0  0  0  0  0  0  0
  -32.1306  -16.1738   16.6928 C   0  0  0  0  0  0  0  0  0  0  0  0
  -30.7136  -20.9736   18.5692 C   0  0  0  0  0  0  0  0  0  0  0  0
  -30.0436  -16.6461   17.6296 C   0  0  0  0  0  0  0  0  0  0  0  0
  -27.4458  -12.0083   21.1510 C   0  0  0  0  0  0  0  0  0  0  0  0
  -31.7813  -21.5152   19.2539 C   0  0  0  0  0  0  0  0  0  0  0  0
  -31.4069  -18.3174   16.9119 C   0  0  0  0  0  0  0  0  0  0  0  0
  -29.8378  -20.9979   20.5798 C   0  0  0  0  0  0  0  0  0  0  0  0
  -27.5877   -9.5311   21.4543 C   0  0  0  0  0  0  0  0  0  0  0  0
  -22.0781  -27.4448   21.7274 C   0  0  0  0  0  0  0  0  0  0  0  0
  -25.1341  -27.3275   21.9677 C   0  0  0  0  0  0  0  0  0  0  0  0
  -28.1165  -26.1287   20.8251 C   0  0  0  0  0  0  0  0  0  0  0  0
  -27.7707  -16.9792   18.6636 C   0  0  0  0  0  0  0  0  0  0  0  0
  -19.8926  -31.5767   23.7789 C   0  0  0  0  0  0  0  0  0  0  0  0
  -22.0944  -25.1262   22.6165 C   0  0  0  0  0  0  0  0  0  0  0  0
  -24.3567  -25.1437   20.9251 C   0  0  0  0  0  0  0  0  0  0  0  0
  -21.2643  -31.2414   23.1988 C   0  0  0  0  0  0  0  0  0  0  0  0
  -25.3486  -16.6141   21.2477 C   0  0  0  0  0  0  0  0  0  0  0  0
  -21.1177  -30.5505   21.8468 C   0  0  0  0  0  0  0  0  0  0  0  0
  -25.2840  -15.1018   21.4730 C   0  0  0  0  0  0  0  0  0  0  0  0
  -25.5472  -16.9599   19.7730 C   0  0  0  0  0  0  0  0  0  0  0  0
  -26.6222  -14.7834   19.3529 C   0  0  0  0  0  0  0  0  0  0  0  0
  -20.3589  -29.2250   21.9839 C   0  0  1  0  0  0  0  0  0  0  0  0
  -22.8884  -26.4388   22.4908 C   0  0  1  0  0  0  0  0  0  0  0  0
  -26.4880  -14.3845   20.8316 C   0  0  2  0  0  0  0  0  0  0  0  0
  -29.7885  -23.0183   16.4421 C   0  0  0  0  0  0  0  0  0  0  0  0
  -30.6016  -25.9898   20.5058 C   0  0  0  0  0  0  0  0  0  0  0  0
  -26.9971  -19.7499   23.8213 C   0  0  0  0  0  0  0  0  0  0  0  0
  -24.6047  -29.4036   19.7966 C   0  0  0  0  0  0  0  0  0  0  0  0
  -27.0086  -29.2099   19.1244 C   0  0  0  0  0  0  0  0  0  0  0  0
  -26.4153  -30.0179   21.4087 C   0  0  0  0  0  0  0  0  0  0  0  0
  -28.4541  -24.4810   23.2604 C   0  0  0  0  0  0  0  0  0  0  0  0
  -30.8698  -21.9621   16.2493 C   0  0  0  0  0  0  0  0  0  0  0  0
  -27.6071  -20.2832   21.4392 C   0  0  0  0  0  0  0  0  0  0  0  0
  -30.6699  -20.6921   17.1204 C   0  0  1  0  0  0  0  0  0  0  0  0
  -33.1873  -15.2167   16.2535 C   0  0  0  0  0  0  0  0  0  0  0  0
  -26.1010  -27.5751   20.8376 C   0  0  1  0  0  0  0  0  0  0  0  0
  -29.4598  -25.9514   21.5095 C   0  0  2  0  0  0  0  0  0  0  0  0
  -26.7286  -20.6585   22.6304 C   0  0  1  0  0  0  0  0  0  1  0  0
  -26.0156  -29.0287   20.2923 C   0  0  0  0  0  0  0  0  0  0  0  0
  -25.1978  -12.2931   21.0380 N   0  0  0  0  0  0  0  0  0  0  0  0
  -32.3848  -17.4855   16.5057 N   0  0  0  0  0  0  0  0  0  0  0  0
  -29.5984  -20.6759   19.3279 N   0  0  0  0  0  0  0  0  0  0  0  0
  -30.2318  -17.9728   17.4723 N   0  0  0  0  0  0  0  0  0  0  0  0
  -26.4064  -12.8800   21.0098 N   0  0  0  0  0  0  0  0  0  0  0  0
  -24.1666  -26.3356   21.7665 N   0  0  0  0  0  0  0  0  0  0  0  0
  -26.7078  -16.2475   19.2342 N   0  0  0  0  0  0  0  0  0  0  0  0
  -28.7281  -12.4303   21.1449 N   0  0  0  0  0  0  0  0  0  0  0  0
  -26.8491   -8.3457   21.5711 N   0  0  0  0  0  0  0  0  0  0  0  0
  -28.8339  -16.1965   18.2146 N   0  0  0  0  0  0  0  0  0  0  0  0
  -31.6319  -19.6640   16.7342 N   0  0  0  0  0  0  0  0  0  0  0  0
  -28.9322  -20.8329   21.6144 N   0  0  0  0  0  0  0  0  0  0  0  0
  -21.2285  -28.1975   22.5154 N   0  0  0  0  0  0  0  0  0  0  0  0
  -27.4192  -27.2015   21.3389 N   0  0  0  0  0  0  0  0  0  0  0  0
  -29.5078  -24.6455   22.2261 N   0  3  0  0  0  0  0  0  0  0  0  0
  -28.8395   -9.4836   21.5207 O   0  0  0  0  0  0  0  0  0  0  0  0
  -22.2140  -27.5337   20.5128 O   0  0  0  0  0  0  0  0  0  0  0  0
  -25.2282  -27.9979   22.9997 O   0  0  0  0  0  0  0  0  0  0  0  0
  -27.7264  -25.3916   19.9223 O   0  0  0  0  0  0  0  0  0  0  0  0
  -27.7520  -18.2113   18.6042 O   0  0  0  0  0  0  0  0  0  0  0  0
  -21.3961   -7.2069   21.5145 O   0  0  0  0  0  0  0  0  0  0  0  0
  -25.3540  -20.5124   22.2762 O   0  0  0  0  0  0  0  0  0  1  0  0
  -21.7421   -3.3796   25.4687 F   0  0  0  0  0  0  0  0  0  0  0  0
  -23.5449   -5.4710   21.6241 F   0  0  0  0  0  0  0  0  0  0  0  0
  -32.9479  -21.8715   18.7107 F   0  0  0  0  0  0  0  0  0  0  0  0
  -33.6453  -14.4869   17.3042 F   0  0  0  0  0  0  0  0  0  0  0  0
  -34.2600  -15.8806   15.7486 F   0  0  0  0  0  0  0  0  0  0  0  0
  -31.3833  -21.6640   20.9155 S   0  0  0  0  0  0  0  0  0  0  0  0
  1  2  1  0  0  0  0
  1  5  2  0  0  0  0
  2  6  2  0  0  0  0
  3  8  2  0  0  0  0
  3 16  1  0  0  0  0
  4  9  1  0  0  0  0
  4 16  2  0  0  0  0
  5 18  1  0  0  0  0
  6 20  1  0  0  0  0
  7 10  2  0  0  0  0
  7 19  1  0  0  0  0
  8 22  1  0  0  0  0
  9 22  2  0  0  0  0
 10 23  1  0  0  0  0
 11 12  2  0  0  0  0
 11 24  1  0  0  0  0
 12 25  1  0  0  0  0
 13 21  1  0  0  0  0
 13 23  2  0  0  0  0
 14 25  2  0  0  0  0
 14 26  1  0  0  0  0
 15 28  2  0  0  0  0
 15 30  1  0  0  0  0
 16 27  1  0  0  0  0
 17 27  1  0  0  0  0
 17 31  2  0  0  0  0
 17 35  1  0  0  0  0
 18 20  2  0  0  0  0
 18 40  1  0  0  0  0
 19 21  2  0  0  0  0
 19 41  1  0  0  0  0
 20 49  1  0  0  0  0
 21 42  1  0  0  0  0
 22 87  1  0  0  0  0
 23 88  1  0  0  0  0
 24 26  2  0  0  0  0
 24 87  1  0  0  0  0
 25 89  1  0  0  0  0
 26 90  1  0  0  0  0
 27 67  2  0  0  0  0
 28 62  1  0  0  0  0
 28 68  1  0  0  0  0
 29 32  2  0  0  0  0
 29 61  1  0  0  0  0
 29 69  1  0  0  0  0
 30 70  2  0  0  0  0
 30 76  1  0  0  0  0
 31 71  1  0  0  0  0
 31 74  1  0  0  0  0
 32 91  1  0  0  0  0
 32 94  1  0  0  0  0
 33 68  2  0  0  0  0
 33 70  1  0  0  0  0
 33 77  1  0  0  0  0
 34 69  2  0  0  0  0
 34 78  1  0  0  0  0
 34 94  1  0  0  0  0
 35 75  1  0  0  0  0
 35 82  2  0  0  0  0
 36 50  1  0  0  0  0
 36 79  1  0  0  0  0
 36 83  2  0  0  0  0
 37 63  1  0  0  0  0
 37 72  1  0  0  0  0
 37 84  2  0  0  0  0
 38 64  1  0  0  0  0
 38 80  1  0  0  0  0
 38 85  2  0  0  0  0
 39 73  1  0  0  0  0
 39 76  1  0  0  0  0
 39 86  2  0  0  0  0
 40 43  1  0  0  0  0
 41 50  1  0  0  0  0
 42 72  1  0  0  0  0
 43 45  1  0  0  0  0
 44 46  1  0  0  0  0
 44 47  1  0  0  0  0
 45 49  1  0  0  0  0
 46 51  1  0  0  0  0
 47 73  1  0  0  0  0
 48 51  1  0  0  0  0
 48 73  1  0  0  0  0
 49 79  1  0  0  0  0
 50 72  1  0  0  0  0
 51 71  1  0  0  0  0
 52 59  1  0  0  0  0
 53 64  1  0  0  0  0
 54 65  1  0  0  0  0
 55 66  1  0  0  0  0
 56 66  1  0  0  0  0
 57 66  1  0  0  0  0
 58 81  1  0  0  0  0
 59 61  1  0  0  0  0
 60 65  1  0  0  0  0
 60 78  1  0  0  0  0
 61 77  1  0  0  0  0
 62 92  1  0  0  0  0
 62 93  1  0  0  0  0
 63 66  1  0  0  0  0
 63 80  1  0  0  0  0
 64 81  1  0  0  0  0
 65 88  1  0  0  0  0
 67 71  1  0  0  0  0
M  CHG  1  81   1
M  ISO  4  39 100  65 101  76 100  88 101
M  END
> <Batch ID>
0189

> <Smiles>
CCC(Nc1nc([100NH:0][100C:0](=O)N2CCCC(n3nc(-c4ccc(Oc5ccc(F)cc5F)cc4)c(C(N)=O)c3N)C2)cc(C(F)F)n1)c1nc(NC[101CH:1](C)[101O:1]c2ccc3c(c2)CN(C(=O)C(NC(=O)C(C)NC)C(C)(C)C)C(C(=O)NC2CCCc4ccccc42)C3)sc1F

> <Shape>
0.250

> <Color>
0.092

> <Negative vol penalty>
0.000

$$$$

  -OEChem-04052305183D

 85 93  0     1  0  0  0  0  0999 V2000
  -16.5410  -29.0995   23.5389 C   0  0  0  0  0  0  0  0  0  0  0  0
  -17.4079  -28.3777   22.7248 C   0  0  0  0  0  0  0  0  0  0  0  0
  -24.6875   -8.4865   21.3472 C   0  0  0  0  0  0  0  0  0  0  0  0
  -23.1836  -10.3533   21.6482 C   0  0  0  0  0  0  0  0  0  0  0  0
  -16.9553  -30.3076   24.0982 C   0  0  0  0  0  0  0  0  0  0  0  0
  -18.6894  -28.8641   22.4686 C   0  0  0  0  0  0  0  0  0  0  0  0
  -23.7960  -25.5681   21.7164 C   0  0  0  0  0  0  0  0  0  0  0  0
  -24.0023   -7.7756   22.3323 C   0  0  0  0  0  0  0  0  0  0  0  0
  -22.4983   -9.6423   22.6333 C   0  0  0  0  0  0  0  0  0  0  0  0
  -24.4778  -25.1415   20.5776 C   0  0  0  0  0  0  0  0  0  0  0  0
  -22.4269   -5.3312   24.5137 C   0  0  0  0  0  0  0  0  0  0  0  0
  -22.1213   -3.9951   24.2551 C   0  0  0  0  0  0  0  0  0  0  0  0
  -25.9493  -27.0449   20.7530 C   0  0  0  0  0  0  0  0  0  0  0  0
  -20.8290   -4.6641   22.3264 C   0  0  0  0  0  0  0  0  0  0  0  0
  -25.7664  -19.4578   20.7070 C   0  0  0  0  0  0  0  0  0  0  0  0
  -24.2782   -9.7754   21.0051 C   0  0  0  0  0  0  0  0  0  0  0  0
  -24.7204  -10.5198   18.6055 C   0  0  0  0  0  0  0  0  0  0  0  0
  -18.2459  -30.8043   23.8565 C   0  0  0  0  0  0  0  0  0  0  0  0
  -24.1795  -26.7442   22.3769 C   0  0  0  0  0  0  0  0  0  0  0  0
  -19.1209  -30.0806   23.0241 C   0  0  0  0  0  0  0  0  0  0  0  0
  -25.2724  -27.4829   21.9014 C   0  0  0  0  0  0  0  0  0  0  0  0
  -22.9076   -8.3534   22.9754 C   0  0  0  0  0  0  0  0  0  0  0  0
  -25.5528  -25.8815   20.0940 C   0  0  0  0  0  0  0  0  0  0  0  0
  -21.9336   -6.3338   23.6788 C   0  0  0  0  0  0  0  0  0  0  0  0
  -21.3224   -3.6615   23.1614 C   0  0  0  0  0  0  0  0  0  0  0  0
  -21.1346   -6.0003   22.5852 C   0  0  0  0  0  0  0  0  0  0  0  0
  -24.9861  -10.5106   19.9880 C   0  0  0  0  0  0  0  0  0  0  0  0
  -27.0532  -19.9238   20.6001 C   0  0  0  0  0  0  0  0  0  0  0  0
  -25.6653  -11.3668   18.0800 C   0  0  0  0  0  0  0  0  0  0  0  0
  -27.1370  -17.8229   20.5500 C   0  0  0  0  0  0  0  0  0  0  0  0
  -23.7099   -9.8248   17.8629 C   0  0  0  0  0  0  0  0  0  0  0  0
  -22.7739  -29.5256   23.0030 C   0  0  0  0  0  0  0  0  0  0  0  0
  -25.4731  -30.0591   24.7213 C   0  0  0  0  0  0  0  0  0  0  0  0
  -28.7693  -29.3403   25.2361 C   0  0  0  0  0  0  0  0  0  0  0  0
  -28.7828  -15.9249   20.3627 C   0  0  0  0  0  0  0  0  0  0  0  0
  -18.6323  -32.1382   24.4448 C   0  0  0  0  0  0  0  0  0  0  0  0
  -23.4506  -27.1765   23.6195 C   0  0  0  0  0  0  0  0  0  0  0  0
  -25.7367  -28.7417   22.5857 C   0  0  0  0  0  0  0  0  0  0  0  0
  -20.1363  -32.3988   24.4275 C   0  0  0  0  0  0  0  0  0  0  0  0
  -30.1062  -12.9756   18.8701 C   0  0  0  0  0  0  0  0  0  0  0  0
  -20.7229  -32.0498   23.0634 C   0  0  0  0  0  0  0  0  0  0  0  0
  -28.9176  -12.0117   18.8561 C   0  0  0  0  0  0  0  0  0  0  0  0
  -30.1184  -13.8426   20.1279 C   0  0  0  0  0  0  0  0  0  0  0  0
  -27.6799  -13.6013   20.3819 C   0  0  0  0  0  0  0  0  0  0  0  0
  -20.5274  -30.5630   22.7428 C   0  0  1  0  0  0  0  0  0  0  0  0
  -23.6032  -28.6656   23.9143 C   0  0  1  0  0  0  0  0  0  0  0  0
  -27.5886  -12.7521   19.1036 C   0  0  2  0  0  0  0  0  0  0  0  0
  -30.7177  -29.9635   26.6895 C   0  0  0  0  0  0  0  0  0  0  0  0
  -29.5016  -21.5045   21.8343 C   0  0  0  0  0  0  0  0  0  0  0  0
  -25.8048  -32.6582   23.1578 C   0  0  0  0  0  0  0  0  0  0  0  0
  -28.1809  -32.7451   23.9419 C   0  0  0  0  0  0  0  0  0  0  0  0
  -26.3185  -32.8363   25.5989 C   0  0  0  0  0  0  0  0  0  0  0  0
  -27.7645  -24.7439   16.6148 C   0  0  0  0  0  0  0  0  0  0  0  0
  -29.8393  -25.2224   17.9191 C   0  0  0  0  0  0  0  0  0  0  0  0
  -29.0203  -26.5829   26.2815 C   0  0  0  0  0  0  0  0  0  0  0  0
  -28.8978  -23.1363   20.0074 C   0  0  0  0  0  0  0  0  0  0  0  0
  -28.2762  -23.3323   18.6150 C   0  0  0  0  0  0  0  0  0  0  0  0
  -27.6033  -25.8003   18.8921 C   0  0  0  0  0  0  0  0  0  1  0  0
  -26.8281  -30.6554   24.4259 C   0  0  1  0  0  0  0  0  0  0  0  0
  -29.5439  -29.0153   26.5005 C   0  0  2  0  0  0  0  0  0  0  0  0
  -28.8269  -21.6744   20.4767 C   0  0  2  0  0  0  0  0  0  0  0  0
  -26.7734  -32.2011   24.2669 C   0  0  0  0  0  0  0  0  0  0  0  0
  -28.3720  -24.7723   18.0344 C   0  0  0  0  0  0  0  0  0  0  0  0
  -26.0189  -11.2898   20.3198 N   0  0  0  0  0  0  0  0  0  0  0  0
  -27.9271  -18.8715   20.5001 N   0  0  0  0  0  0  0  0  0  0  0  0
  -26.4106  -11.7965   19.1383 N   0  0  0  0  0  0  0  0  0  0  0  0
  -24.9878  -29.1266   23.7934 N   0  0  0  0  0  0  0  0  0  0  0  0
  -28.8289  -14.5163   20.2951 N   0  0  0  0  0  0  0  0  0  0  0  0
  -25.9230  -11.7785   16.8204 N   0  0  0  0  0  0  0  0  0  0  0  0
  -22.8206   -8.9951   18.5594 N   0  0  0  0  0  0  0  0  0  0  0  0
  -27.4470  -21.2498   20.5911 N   0  0  0  0  0  0  0  0  0  0  0  0
  -27.4990  -16.4543   20.4894 N   0  0  0  0  0  0  0  0  0  0  0  0
  -21.4920  -29.7597   23.4629 N   0  0  0  0  0  0  0  0  0  0  0  0
  -27.7169  -30.1950   25.4872 N   0  0  0  0  0  0  0  0  0  0  0  0
  -30.0697  -27.6221   26.4423 N   0  3  0  0  0  0  0  0  0  0  0  0
  -23.6091   -9.9235   16.6164 O   0  0  0  0  0  0  0  0  0  0  0  0
  -23.2615  -29.9469   21.9607 O   0  0  0  0  0  0  0  0  0  0  0  0
  -24.8706  -30.4024   25.7415 O   0  0  0  0  0  0  0  0  0  0  0  0
  -29.0702  -28.8846   24.1350 O   0  0  0  0  0  0  0  0  0  0  0  0
  -29.8044  -16.6121   20.2845 O   0  0  0  0  0  0  0  0  0  0  0  0
  -25.8096  -18.0966   20.6755 O   0  0  0  0  0  0  0  0  0  0  0  0
  -22.2385   -7.6598   23.9365 O   0  0  0  0  0  0  0  0  0  0  0  0
  -26.2244  -25.4647   18.9744 O   0  0  0  0  0  0  0  0  0  1  0  0
  -21.0302   -2.3783   22.9122 F   0  0  0  0  0  0  0  0  0  0  0  0
  -20.6587   -6.9590   21.7788 F   0  0  0  0  0  0  0  0  0  0  0  0
  1  2  1  0  0  0  0
  1  5  2  0  0  0  0
  2  6  2  0  0  0  0
  3  8  2  0  0  0  0
  3 16  1  0  0  0  0
  4  9  1  0  0  0  0
  4 16  2  0  0  0  0
  5 18  1  0  0  0  0
  6 20  1  0  0  0  0
  7 10  2  0  0  0  0
  7 19  1  0  0  0  0
  8 22  1  0  0  0  0
  9 22  2  0  0  0  0
 10 23  1  0  0  0  0
 11 12  2  0  0  0  0
 11 24  1  0  0  0  0
 12 25  1  0  0  0  0
 13 21  1  0  0  0  0
 13 23  2  0  0  0  0
 14 25  2  0  0  0  0
 14 26  1  0  0  0  0
 15 28  2  0  0  0  0
 15 81  1  0  0  0  0
 16 27  1  0  0  0  0
 17 27  1  0  0  0  0
 17 29  2  0  0  0  0
 17 31  1  0  0  0  0
 18 20  2  0  0  0  0
 18 36  1  0  0  0  0
 19 21  2  0  0  0  0
 19 37  1  0  0  0  0
 20 45  1  0  0  0  0
 21 38  1  0  0  0  0
 22 82  1  0  0  0  0
 23 83  1  0  0  0  0
 24 26  2  0  0  0  0
 24 82  1  0  0  0  0
 25 84  1  0  0  0  0
 26 85  1  0  0  0  0
 27 64  2  0  0  0  0
 28 65  1  0  0  0  0
 28 71  1  0  0  0  0
 29 66  1  0  0  0  0
 29 69  1  0  0  0  0
 30 65  2  0  0  0  0
 30 72  1  0  0  0  0
 30 81  1  0  0  0  0
 31 70  1  0  0  0  0
 31 76  2  0  0  0  0
 32 46  1  0  0  0  0
 32 73  1  0  0  0  0
 32 77  2  0  0  0  0
 33 59  1  0  0  0  0
 33 67  1  0  0  0  0
 33 78  2  0  0  0  0
 34 60  1  0  0  0  0
 34 74  1  0  0  0  0
 34 79  2  0  0  0  0
 35 68  1  0  0  0  0
 35 72  1  0  0  0  0
 35 80  2  0  0  0  0
 36 39  1  0  0  0  0
 37 46  1  0  0  0  0
 38 67  1  0  0  0  0
 39 41  1  0  0  0  0
 40 42  1  0  0  0  0
 40 43  1  0  0  0  0
 41 45  1  0  0  0  0
 42 47  1  0  0  0  0
 43 68  1  0  0  0  0
 44 47  1  0  0  0  0
 44 68  1  0  0  0  0
 45 73  1  0  0  0  0
 46 67  1  0  0  0  0
 47 66  1  0  0  0  0
 48 60  1  0  0  0  0
 49 61  1  0  0  0  0
 50 62  1  0  0  0  0
 51 62  1  0  0  0  0
 52 62  1  0  0  0  0
 53 63  1  0  0  0  0
 54 63  1  0  0  0  0
 55 75  1  0  0  0  0
 56 57  1  0  0  0  0
 56 61  1  0  0  0  0
 57 63  1  0  0  0  0
 58 63  1  0  0  0  0
 58 83  1  0  0  0  0
 59 62  1  0  0  0  0
 59 74  1  0  0  0  0
 60 75  1  0  0  0  0
 61 71  1  0  0  0  0
 64 66  1  0  0  0  0
M  CHG  1  75   1
M  ISO  4  35 100  58 101  72 100  83 101
M  END
> <Batch ID>
0189

> <Smiles>
CNC(C)C(=O)NC(C(=O)N1Cc2cc([101O:1][101CH2:1]C(C)(C)CCC(C)Nc3coc([100NH:0][100C:0](=O)N4CCCC(n5nc(-c6ccc(Oc7ccc(F)cc7F)cc6)c(C(N)=O)c5N)C4)n3)ccc2CC1C(=O)NC1CCCc2ccccc21)C(C)(C)C

> <Shape>
0.311

> <Color>
0.084

> <Negative vol penalty>
0.000

$$$$

  -OEChem-04052305183D

 88 96  0     1  0  0  0  0  0999 V2000
  -26.4464  -37.2776   22.7770 C   0  0  0  0  0  0  0  0  0  0  0  0
  -27.1162  -36.1316   22.3605 C   0  0  0  0  0  0  0  0  0  0  0  0
  -24.3503   -9.4428   21.5279 C   0  0  0  0  0  0  0  0  0  0  0  0
  -22.3674  -10.4198   20.5529 C   0  0  0  0  0  0  0  0  0  0  0  0
  -25.3058  -37.1671   23.5712 C   0  0  0  0  0  0  0  0  0  0  0  0
  -26.6465  -34.8744   22.7389 C   0  0  0  0  0  0  0  0  0  0  0  0
  -26.8514  -29.7205   19.4372 C   0  0  0  0  0  0  0  0  0  0  0  0
  -23.6839   -8.2250   21.6630 C   0  0  0  0  0  0  0  0  0  0  0  0
  -21.7010   -9.2019   20.6880 C   0  0  0  0  0  0  0  0  0  0  0  0
  -27.7257  -28.6347   19.4467 C   0  0  0  0  0  0  0  0  0  0  0  0
  -22.3895   -4.9570   22.5947 C   0  0  0  0  0  0  0  0  0  0  0  0
  -22.5227   -4.2736   23.8033 C   0  0  0  0  0  0  0  0  0  0  0  0
  -26.2103  -27.4347   20.8898 C   0  0  0  0  0  0  0  0  0  0  0  0
  -21.5589   -6.1550   24.9733 C   0  0  0  0  0  0  0  0  0  0  0  0
  -23.6921  -10.5403   20.9729 C   0  0  0  0  0  0  0  0  0  0  0  0
  -25.1373  -12.2360   19.7306 C   0  0  0  0  0  0  0  0  0  0  0  0
  -24.8163  -35.9076   23.9516 C   0  0  0  0  0  0  0  0  0  0  0  0
  -25.6530  -29.6757   20.1640 C   0  0  0  0  0  0  0  0  0  0  0  0
  -25.4990  -34.7470   23.5401 C   0  0  0  0  0  0  0  0  0  0  0  0
  -25.3212  -28.5203   20.8859 C   0  0  0  0  0  0  0  0  0  0  0  0
  -22.3592   -8.1045   21.2430 C   0  0  0  0  0  0  0  0  0  0  0  0
  -27.4067  -27.4926   20.1753 C   0  0  0  0  0  0  0  0  0  0  0  0
  -21.8410   -6.2394   22.5753 C   0  0  0  0  0  0  0  0  0  0  0  0
  -22.1074   -4.8726   24.9926 C   0  0  0  0  0  0  0  0  0  0  0  0
  -21.4257   -6.8383   23.7646 C   0  0  0  0  0  0  0  0  0  0  0  0
  -24.3798  -11.7988   20.8336 C   0  0  0  0  0  0  0  0  0  0  0  0
  -24.5885  -21.4643   18.7327 C   0  0  0  0  0  0  0  0  0  0  0  0
  -25.8221  -21.5943   19.3258 C   0  0  0  0  0  0  0  0  0  0  0  0
  -25.5762  -13.4870   20.0896 C   0  0  0  0  0  0  0  0  0  0  0  0
  -24.9698  -19.8341   20.1657 C   0  0  0  0  0  0  0  0  0  0  0  0
  -25.4191  -11.5709   18.4921 C   0  0  0  0  0  0  0  0  0  0  0  0
  -24.4296  -31.3437   22.5775 C   0  0  0  0  0  0  0  0  0  0  0  0
  -21.8011  -29.5388   21.9812 C   0  0  0  0  0  0  0  0  0  0  0  0
  -20.4934  -26.6623   20.6918 C   0  0  0  0  0  0  0  0  0  0  0  0
  -24.6713  -18.5195   22.2939 C   0  0  0  0  0  0  0  0  0  0  0  0
  -23.6068  -35.8399   24.8501 C   0  0  0  0  0  0  0  0  0  0  0  0
  -24.7079  -30.8452   20.1219 C   0  0  0  0  0  0  0  0  0  0  0  0
  -24.0375  -28.4141   21.6664 C   0  0  0  0  0  0  0  0  0  0  0  0
  -22.9589  -34.4585   24.8963 C   0  0  0  0  0  0  0  0  0  0  0  0
  -25.4325  -15.8734   24.5513 C   0  0  0  0  0  0  0  0  0  0  0  0
  -24.0190  -33.3776   25.0828 C   0  0  0  0  0  0  0  0  0  0  0  0
  -25.2888  -14.6134   23.6946 C   0  0  0  0  0  0  0  0  0  0  0  0
  -24.3926  -16.9305   24.1840 C   0  0  0  0  0  0  0  0  0  0  0  0
  -24.1974  -16.0220   21.9024 C   0  0  0  0  0  0  0  0  0  0  0  0
  -25.0061  -33.3647   23.9094 C   0  0  1  0  0  0  0  0  0  0  0  0
  -23.7566  -30.8878   21.3138 C   0  0  1  0  0  0  0  0  0  0  0  0
  -25.2645  -14.9536   22.1915 C   0  0  2  0  0  0  0  0  0  0  0  0
  -23.8870  -22.2826   17.7262 C   0  0  0  0  0  0  0  0  0  0  0  0
  -23.5418  -18.3853   16.9087 C   0  0  0  0  0  0  0  0  0  0  0  0
  -18.3164  -25.4524   20.3851 C   0  0  0  0  0  0  0  0  0  0  0  0
  -28.9816  -21.6921   19.0861 C   0  0  0  0  0  0  0  0  0  0  0  0
  -21.8236  -28.7557   24.9302 C   0  0  0  0  0  0  0  0  0  0  0  0
  -20.2761  -26.8693   24.3693 C   0  0  0  0  0  0  0  0  0  0  0  0
  -19.5533  -29.2270   23.9932 C   0  0  0  0  0  0  0  0  0  0  0  0
  -22.4388  -18.4759   19.7637 C   0  0  0  0  0  0  0  0  0  0  0  0
  -20.7536  -26.7016   17.7440 C   0  0  0  0  0  0  0  0  0  0  0  0
  -22.6187  -19.4736   17.4494 C   0  0  0  0  0  0  0  0  0  0  0  0
  -28.5722  -24.1135   19.6469 C   0  0  0  0  0  0  0  0  0  0  0  0
  -27.6808  -25.1363   20.3442 C   0  0  0  0  0  0  0  0  0  1  0  0
  -21.6688  -20.8018   19.3596 C   0  0  0  0  0  0  0  0  0  0  0  0
  -21.2885  -28.2039   22.4654 C   0  0  1  0  0  0  0  0  0  0  0  0
  -19.3153  -26.4177   19.7662 C   0  0  2  0  0  0  0  0  0  0  0  0
  -28.0273  -22.6850   19.7422 C   0  0  1  0  0  0  0  0  0  0  0  0
  -20.7605  -28.2664   23.9265 C   0  0  0  0  0  0  0  0  0  0  0  0
  -22.7580  -19.7693   18.9752 C   0  0  1  0  0  0  0  0  0  0  0  0
  -24.3378  -12.6988   21.8196 N   0  0  0  0  0  0  0  0  0  0  0  0
  -26.0536  -20.5762   20.2165 N   0  0  0  0  0  0  0  0  0  0  0  0
  -24.0546  -20.3320   19.2805 N   0  0  0  0  0  0  0  0  0  0  0  0
  -25.0746  -13.7140   21.3375 N   0  0  0  0  0  0  0  0  0  0  0  0
  -23.1493  -29.5863   21.5991 N   0  0  0  0  0  0  0  0  0  0  0  0
  -24.4306  -17.2048   22.7459 N   0  0  0  0  0  0  0  0  0  0  0  0
  -26.3383  -14.4040   19.4566 N   0  0  0  0  0  0  0  0  0  0  0  0
  -24.8898  -10.2895   18.2863 N   0  0  0  0  0  0  0  0  0  0  0  0
  -26.7398  -22.6010   19.0847 N   0  0  0  0  0  0  0  0  0  0  0  0
  -24.7174  -18.6529   20.9066 N   0  0  0  0  0  0  0  0  0  0  0  0
  -24.4160  -32.7134   22.7597 N   0  0  0  0  0  0  0  0  0  0  0  0
  -20.2952  -27.7697   21.4891 N   0  0  0  0  0  0  0  0  0  0  0  0
  -19.7832  -25.8446   18.4726 N   0  3  0  0  0  0  0  0  0  0  0  0
  -26.1331  -12.0905   17.6011 O   0  0  0  0  0  0  0  0  0  0  0  0
  -24.9233  -30.5140   23.3323 O   0  0  0  0  0  0  0  0  0  0  0  0
  -21.0318  -30.5020   21.9368 O   0  0  0  0  0  0  0  0  0  0  0  0
  -21.4882  -25.9409   20.7086 O   0  0  0  0  0  0  0  0  0  0  0  0
  -24.8524  -19.4530   23.0799 O   0  0  0  0  0  0  0  0  0  0  0  0
  -21.7087   -6.9162   21.3744 O   0  0  0  0  0  0  0  0  0  0  0  0
  -28.2587  -26.4315   20.1868 O   0  0  0  0  0  0  0  0  0  1  0  0
  -22.2340   -4.2156   26.1530 F   0  0  0  0  0  0  0  0  0  0  0  0
  -20.8970   -8.0696   23.7521 F   0  0  0  0  0  0  0  0  0  0  0  0
  -21.9579  -21.3421   20.5755 F   0  0  0  0  0  0  0  0  0  0  0  0
  1  2  1  0  0  0  0
  1  5  2  0  0  0  0
  2  6  2  0  0  0  0
  3  8  2  0  0  0  0
  3 15  1  0  0  0  0
  4  9  1  0  0  0  0
  4 15  2  0  0  0  0
  5 17  1  0  0  0  0
  6 19  1  0  0  0  0
  7 10  2  0  0  0  0
  7 18  1  0  0  0  0
  8 21  1  0  0  0  0
  9 21  2  0  0  0  0
 10 22  1  0  0  0  0
 11 12  2  0  0  0  0
 11 23  1  0  0  0  0
 12 24  1  0  0  0  0
 13 20  1  0  0  0  0
 13 22  2  0  0  0  0
 14 24  2  0  0  0  0
 14 25  1  0  0  0  0
 15 26  1  0  0  0  0
 16 26  1  0  0  0  0
 16 29  2  0  0  0  0
 16 31  1  0  0  0  0
 17 19  2  0  0  0  0
 17 36  1  0  0  0  0
 18 20  2  0  0  0  0
 18 37  1  0  0  0  0
 19 45  1  0  0  0  0
 20 38  1  0  0  0  0
 21 84  1  0  0  0  0
 22 85  1  0  0  0  0
 23 25  2  0  0  0  0
 23 84  1  0  0  0  0
 24 86  1  0  0  0  0
 25 87  1  0  0  0  0
 26 66  2  0  0  0  0
 27 28  2  0  0  0  0
 27 48  1  0  0  0  0
 27 68  1  0  0  0  0
 28 67  1  0  0  0  0
 28 74  1  0  0  0  0
 29 69  1  0  0  0  0
 29 72  1  0  0  0  0
 30 67  2  0  0  0  0
 30 68  1  0  0  0  0
 30 75  1  0  0  0  0
 31 73  1  0  0  0  0
 31 79  2  0  0  0  0
 32 46  1  0  0  0  0
 32 76  1  0  0  0  0
 32 80  2  0  0  0  0
 33 61  1  0  0  0  0
 33 70  1  0  0  0  0
 33 81  2  0  0  0  0
 34 62  1  0  0  0  0
 34 77  1  0  0  0  0
 34 82  2  0  0  0  0
 35 71  1  0  0  0  0
 35 75  1  0  0  0  0
 35 83  2  0  0  0  0
 36 39  1  0  0  0  0
 37 46  1  0  0  0  0
 38 70  1  0  0  0  0
 39 41  1  0  0  0  0
 40 42  1  0  0  0  0
 40 43  1  0  0  0  0
 41 45  1  0  0  0  0
 42 47  1  0  0  0  0
 43 71  1  0  0  0  0
 44 47  1  0  0  0  0
 44 71  1  0  0  0  0
 45 76  1  0  0  0  0
 46 70  1  0  0  0  0
 47 69  1  0  0  0  0
 49 57  1  0  0  0  0
 50 62  1  0  0  0  0
 51 63  1  0  0  0  0
 52 64  1  0  0  0  0
 53 64  1  0  0  0  0
 54 64  1  0  0  0  0
 55 65  1  0  0  0  0
 56 78  1  0  0  0  0
 57 65  1  0  0  0  0
 58 59  1  0  0  0  0
 58 63  1  0  0  0  0
 59 85  1  0  0  0  0
 60 65  1  0  0  0  0
 60 88  1  0  0  0  0
 61 64  1  0  0  0  0
 61 77  1  0  0  0  0
 62 78  1  0  0  0  0
 63 74  1  0  0  0  0
 65 68  1  0  0  0  0
 66 69  1  0  0  0  0
M  CHG  1  78   1
M  ISO  4  35 100  59 101  75 100  85 101
M  END
> <Batch ID>
0189

> <Smiles>
CCC(C)(CF)n1c([100NH:0][100C:0](=O)N2CCCC(n3nc(-c4ccc(Oc5ccc(F)cc5F)cc4)c(C(N)=O)c3N)C2)nc(NC(C)C[101CH2:1][101O:1]c2ccc3c(c2)CN(C(=O)C(NC(=O)C(C)NC)C(C)(C)C)C(C(=O)NC2CCCc4ccccc42)C3)c1C

> <Shape>
0.294

> <Color>
0.118

> <Negative vol penalty>
0.000

$$$$

  -OEChem-04052305183D

 89 97  0     1  0  0  0  0  0999 V2000
  -19.9286  -18.5163   20.5567 C   0  0  0  0  0  0  0  0  0  0  0  0
  -21.2061  -19.0352   20.7413 C   0  0  0  0  0  0  0  0  0  0  0  0
  -17.9537  -24.3010   22.0321 C   0  0  0  0  0  0  0  0  0  0  0  0
  -20.1143  -23.7373   22.9546 C   0  0  0  0  0  0  0  0  0  0  0  0
  -19.6618  -17.1889   20.8898 C   0  0  0  0  0  0  0  0  0  0  0  0
  -22.2174  -18.2274   21.2602 C   0  0  0  0  0  0  0  0  0  0  0  0
  -26.5788  -18.7100   18.7324 C   0  0  0  0  0  0  0  0  0  0  0  0
  -17.5896  -22.9549   22.0619 C   0  0  0  0  0  0  0  0  0  0  0  0
  -19.7502  -22.3911   22.9845 C   0  0  0  0  0  0  0  0  0  0  0  0
  -27.3508  -19.8386   19.0044 C   0  0  0  0  0  0  0  0  0  0  0  0
  -16.5252  -20.7126   24.3580 C   0  0  0  0  0  0  0  0  0  0  0  0
  -15.2584  -20.3943   24.8474 C   0  0  0  0  0  0  0  0  0  0  0  0
  -28.7617  -18.5182   20.4484 C   0  0  0  0  0  0  0  0  0  0  0  0
  -14.6903  -19.3912   22.7241 C   0  0  0  0  0  0  0  0  0  0  0  0
  -28.3384  -25.7961   18.3521 C   0  0  0  0  0  0  0  0  0  0  0  0
  -19.2160  -24.6923   22.4784 C   0  0  0  0  0  0  0  0  0  0  0  0
  -19.4072  -27.0367   23.4656 C   0  0  0  0  0  0  0  0  0  0  0  0
  -20.6727  -16.3617   21.4040 C   0  0  0  0  0  0  0  0  0  0  0  0
  -26.8864  -17.4773   19.3260 C   0  0  0  0  0  0  0  0  0  0  0  0
  -21.9635  -16.8881   21.6017 C   0  0  0  0  0  0  0  0  0  0  0  0
  -27.9935  -17.3748   20.1804 C   0  0  0  0  0  0  0  0  0  0  0  0
  -18.4879  -21.9999   22.5381 C   0  0  0  0  0  0  0  0  0  0  0  0
  -28.4407  -19.7435   19.8647 C   0  0  0  0  0  0  0  0  0  0  0  0
  -16.8746  -20.3703   23.0517 C   0  0  0  0  0  0  0  0  0  0  0  0
  -14.3409  -19.7336   24.0304 C   0  0  0  0  0  0  0  0  0  0  0  0
  -15.9571  -19.7095   22.2348 C   0  0  0  0  0  0  0  0  0  0  0  0
  -19.5928  -26.0826   22.4472 C   0  0  0  0  0  0  0  0  0  0  0  0
  -27.7686  -25.4892   19.5700 C   0  0  0  0  0  0  0  0  0  0  0  0
  -19.9312  -28.1965   22.9492 C   0  0  0  0  0  0  0  0  0  0  0  0
  -27.0307  -27.5447   19.3695 C   0  0  0  0  0  0  0  0  0  0  0  0
  -18.8141  -26.8878   24.7625 C   0  0  0  0  0  0  0  0  0  0  0  0
  -25.3756  -15.5015   21.3052 C   0  0  0  0  0  0  0  0  0  0  0  0
  -27.9304  -13.5894   20.7231 C   0  0  0  0  0  0  0  0  0  0  0  0
  -31.1964  -13.3289   19.7682 C   0  0  0  0  0  0  0  0  0  0  0  0
  -28.6335  -23.1334   19.7600 C   0  0  0  0  0  0  0  0  0  0  0  0
  -24.0721  -29.2912   18.7652 C   0  0  0  0  0  0  0  0  0  0  0  0
  -20.3247  -14.9469   21.7937 C   0  0  0  0  0  0  0  0  0  0  0  0
  -26.0598  -16.2633   19.0014 C   0  0  0  0  0  0  0  0  0  0  0  0
  -28.3780  -16.0701   20.8272 C   0  0  0  0  0  0  0  0  0  0  0  0
  -21.5452  -14.0506   21.9871 C   0  0  0  0  0  0  0  0  0  0  0  0
  -20.6993  -30.4315   18.7892 C   0  0  0  0  0  0  0  0  0  0  0  0
  -22.5999  -14.7597   22.8308 C   0  0  0  0  0  0  0  0  0  0  0  0
  -20.0165  -29.5323   19.8213 C   0  0  0  0  0  0  0  0  0  0  0  0
  -21.7515  -29.6703   17.9857 C   0  0  0  0  0  0  0  0  0  0  0  0
  -22.0799  -28.0691   19.8301 C   0  0  0  0  0  0  0  0  0  0  0  0
  -23.0930  -16.0362   22.1389 C   0  0  1  0  0  0  0  0  0  0  0  0
  -26.1564  -15.1731   20.0642 C   0  0  1  0  0  0  0  0  0  0  0  0
  -21.0499  -28.8060   20.7032 C   0  0  2  0  0  0  0  0  0  0  0  0
  -28.7976  -30.7790   19.9879 C   0  0  0  0  0  0  0  0  0  0  0  0
  -29.5155  -21.3218   24.4892 C   0  0  0  0  0  0  0  0  0  0  0  0
  -33.0198  -11.6392   19.4253 C   0  0  0  0  0  0  0  0  0  0  0  0
  -25.9522  -30.7935   21.2823 C   0  0  0  0  0  0  0  0  0  0  0  0
  -30.6470  -22.6231   21.9900 C   0  0  0  0  0  0  0  0  0  0  0  0
  -28.3144  -13.3943   23.7438 C   0  0  0  0  0  0  0  0  0  0  0  0
  -30.6250  -12.5264   23.3239 C   0  0  0  0  0  0  0  0  0  0  0  0
  -28.6460  -11.2449   22.5091 C   0  0  0  0  0  0  0  0  0  0  0  0
  -31.4346  -13.9974   16.8950 C   0  0  0  0  0  0  0  0  0  0  0  0
  -28.2823  -29.8301   21.0617 C   0  0  0  0  0  0  0  0  0  0  0  0
  -28.9738  -21.0480   23.0921 C   0  0  0  0  0  0  0  0  0  0  0  0
  -26.3360  -28.8167   19.6645 C   0  0  2  0  0  0  0  0  0  0  0  0
  -29.2891  -13.3994   21.3530 C   0  0  1  0  0  0  0  0  0  0  0  0
  -31.8848  -12.4128   18.7725 C   0  0  2  0  0  0  0  0  0  0  0  0
  -28.5325  -21.9561   20.7317 C   0  0  2  0  0  0  0  0  0  1  0  0
  -26.7676  -29.5206   21.0020 C   0  0  2  0  0  0  0  0  0  0  0  0
  -29.1734  -22.2261   22.1127 C   0  0  2  0  0  0  0  0  0  0  0  0
  -29.2105  -12.6664   22.7219 C   0  0  0  0  0  0  0  0  0  0  0  0
  -20.1882  -26.5922   21.3656 N   0  0  0  0  0  0  0  0  0  0  0  0
  -27.0188  -26.4908   20.1551 N   0  0  0  0  0  0  0  0  0  0  0  0
  -20.3811  -27.8791   21.7014 N   0  0  0  0  0  0  0  0  0  0  0  0
  -27.5351  -14.9130   20.4835 N   0  0  0  0  0  0  0  0  0  0  0  0
  -22.7016  -29.0058   18.8811 N   0  0  0  0  0  0  0  0  0  0  0  0
  -20.0464  -29.4467   23.4453 N   0  0  0  0  0  0  0  0  0  0  0  0
  -18.3261  -25.6274   25.1333 N   0  0  0  0  0  0  0  0  0  0  0  0
  -27.9186  -24.2365   20.2110 N   0  0  0  0  0  0  0  0  0  0  0  0
  -24.0277  -15.7101   21.0832 N   0  0  0  0  0  0  0  0  0  0  0  0
  -30.1092  -12.7185   20.3569 N   0  0  0  0  0  0  0  0  0  0  0  0
  -24.9031  -28.6232   19.6563 N   0  0  0  0  0  0  0  0  0  0  0  0
  -32.4454  -13.2050   17.6415 N   0  3  0  0  0  0  0  0  0  0  0  0
  -18.7049  -27.8481   25.5622 O   0  0  0  0  0  0  0  0  0  0  0  0
  -25.9529  -15.5599   22.3846 O   0  0  0  0  0  0  0  0  0  0  0  0
  -27.2480  -12.5995   20.4471 O   0  0  0  0  0  0  0  0  0  0  0  0
  -31.5866  -14.4705   20.0031 O   0  0  0  0  0  0  0  0  0  0  0  0
  -29.2719  -23.0400   18.7149 O   0  0  0  0  0  0  0  0  0  0  0  0
  -24.5213  -30.0866   17.9330 O   0  0  0  0  0  0  0  0  0  0  0  0
  -18.1330  -20.6862   22.5676 O   0  0  0  0  0  0  0  0  0  0  0  0
  -29.1955  -20.8437   20.1324 O   0  0  0  0  0  0  0  0  0  1  0  0
  -13.1250  -19.4267   24.5010 F   0  0  0  0  0  0  0  0  0  0  0  0
  -16.2874  -19.3770   20.9793 F   0  0  0  0  0  0  0  0  0  0  0  0
  -27.9234  -27.4007   17.9110 S   0  0  0  0  0  0  0  0  0  0  0  0
  1  2  1  0  0  0  0
  1  5  2  0  0  0  0
  2  6  2  0  0  0  0
  3  8  2  0  0  0  0
  3 16  1  0  0  0  0
  4  9  1  0  0  0  0
  4 16  2  0  0  0  0
  5 18  1  0  0  0  0
  6 20  1  0  0  0  0
  7 10  2  0  0  0  0
  7 19  1  0  0  0  0
  8 22  1  0  0  0  0
  9 22  2  0  0  0  0
 10 23  1  0  0  0  0
 11 12  2  0  0  0  0
 11 24  1  0  0  0  0
 12 25  1  0  0  0  0
 13 21  1  0  0  0  0
 13 23  2  0  0  0  0
 14 25  2  0  0  0  0
 14 26  1  0  0  0  0
 15 28  2  0  0  0  0
 15 89  1  0  0  0  0
 16 27  1  0  0  0  0
 17 27  1  0  0  0  0
 17 29  2  0  0  0  0
 17 31  1  0  0  0  0
 18 20  2  0  0  0  0
 18 37  1  0  0  0  0
 19 21  2  0  0  0  0
 19 38  1  0  0  0  0
 20 46  1  0  0  0  0
 21 39  1  0  0  0  0
 22 85  1  0  0  0  0
 23 86  1  0  0  0  0
 24 26  2  0  0  0  0
 24 85  1  0  0  0  0
 25 87  1  0  0  0  0
 26 88  1  0  0  0  0
 27 67  2  0  0  0  0
 28 68  1  0  0  0  0
 28 74  1  0  0  0  0
 29 69  1  0  0  0  0
 29 72  1  0  0  0  0
 30 60  1  0  0  0  0
 30 68  2  0  0  0  0
 30 89  1  0  0  0  0
 31 73  1  0  0  0  0
 31 79  2  0  0  0  0
 32 47  1  0  0  0  0
 32 75  1  0  0  0  0
 32 80  2  0  0  0  0
 33 61  1  0  0  0  0
 33 70  1  0  0  0  0
 33 81  2  0  0  0  0
 34 62  1  0  0  0  0
 34 76  1  0  0  0  0
 34 82  2  0  0  0  0
 35 63  1  0  0  0  0
 35 74  1  0  0  0  0
 35 83  2  0  0  0  0
 36 71  1  0  0  0  0
 36 77  1  0  0  0  0
 36 84  2  0  0  0  0
 37 40  1  0  0  0  0
 38 47  1  0  0  0  0
 39 70  1  0  0  0  0
 40 42  1  0  0  0  0
 41 43  1  0  0  0  0
 41 44  1  0  0  0  0
 42 46  1  0  0  0  0
 43 48  1  0  0  0  0
 44 71  1  0  0  0  0
 45 48  1  0  0  0  0
 45 71  1  0  0  0  0
 46 75  1  0  0  0  0
 47 70  1  0  0  0  0
 48 69  1  0  0  0  0
 49 58  1  0  0  0  0
 50 59  1  0  0  0  0
 51 62  1  0  0  0  0
 52 64  1  0  0  0  0
 53 65  1  0  0  0  0
 54 66  1  0  0  0  0
 55 66  1  0  0  0  0
 56 66  1  0  0  0  0
 57 78  1  0  0  0  0
 58 64  1  0  0  0  0
 59 65  1  0  0  0  0
 60 64  1  0  0  0  0
 60 77  1  0  0  0  0
 61 66  1  0  0  0  0
 61 76  1  0  0  0  0
 62 78  1  0  0  0  0
 63 65  1  0  0  0  0
 63 86  1  0  0  0  0
 67 69  1  0  0  0  0
M  CHG  1  78   1
M  ISO  4  36 100  63 101  77 100  86 101
M  END
> <Batch ID>
0189

> <Smiles>
CCC(C)C([100NH:0][100C:0](=O)N1CCCC(n2nc(-c3ccc(Oc4ccc(F)cc4F)cc3)c(C(N)=O)c2N)C1)c1nc(NC(=O)[101CH:1](C(C)CC)[101O:1]c2ccc3c(c2)CN(C(=O)C(NC(=O)C(C)NC)C(C)(C)C)C(C(=O)NC2CCCc4ccccc42)C3)cs1

> <Shape>
0.219

> <Color>
0.061

> <Negative vol penalty>
0.000

$$$$

  -OEChem-04052305183D

 82 90  0     1  0  0  0  0  0999 V2000
  -18.6597  -28.5495   23.0890 C   0  0  0  0  0  0  0  0  0  0  0  0
  -20.0446  -28.6761   23.1275 C   0  0  0  0  0  0  0  0  0  0  0  0
  -26.8413  -12.8171   20.6584 C   0  0  0  0  0  0  0  0  0  0  0  0
  -25.5983  -14.3210   19.2336 C   0  0  0  0  0  0  0  0  0  0  0  0
  -18.0816  -27.3625   22.6408 C   0  0  0  0  0  0  0  0  0  0  0  0
  -20.8522  -27.6154   22.7189 C   0  0  0  0  0  0  0  0  0  0  0  0
  -24.6654  -29.1118   19.7415 C   0  0  0  0  0  0  0  0  0  0  0  0
  -25.9443  -11.7918   20.3588 C   0  0  0  0  0  0  0  0  0  0  0  0
  -24.7013  -13.2957   18.9339 C   0  0  0  0  0  0  0  0  0  0  0  0
  -25.7656  -29.7004   20.3634 C   0  0  0  0  0  0  0  0  0  0  0  0
  -23.7744   -8.8758   20.2508 C   0  0  0  0  0  0  0  0  0  0  0  0
  -23.3112   -8.0885   21.3050 C   0  0  0  0  0  0  0  0  0  0  0  0
  -26.9600  -27.6098   20.2157 C   0  0  0  0  0  0  0  0  0  0  0  0
  -22.3775  -10.0511   22.3603 C   0  0  0  0  0  0  0  0  0  0  0  0
  -30.5217  -22.9610   20.0255 C   0  0  0  0  0  0  0  0  0  0  0  0
  -26.6683  -14.0817   20.0959 C   0  0  0  0  0  0  0  0  0  0  0  0
  -28.7774  -15.4653   19.7149 C   0  0  0  0  0  0  0  0  0  0  0  0
  -18.8825  -26.2902   22.2174 C   0  0  0  0  0  0  0  0  0  0  0  0
  -24.7003  -27.7625   19.3611 C   0  0  0  0  0  0  0  0  0  0  0  0
  -20.2843  -26.4125   22.2659 C   0  0  0  0  0  0  0  0  0  0  0  0
  -25.8599  -27.0071   19.5867 C   0  0  0  0  0  0  0  0  0  0  0  0
  -24.8744  -12.0311   19.4965 C   0  0  0  0  0  0  0  0  0  0  0  0
  -26.9121  -28.9487   20.6032 C   0  0  0  0  0  0  0  0  0  0  0  0
  -23.5392  -10.2507   20.2514 C   0  0  0  0  0  0  0  0  0  0  0  0
  -22.6127   -8.6762   22.3597 C   0  0  0  0  0  0  0  0  0  0  0  0
  -22.8407  -10.8383   21.3061 C   0  0  0  0  0  0  0  0  0  0  0  0
  -27.5942  -15.1414   20.4055 C   0  0  0  0  0  0  0  0  0  0  0  0
  -29.9765  -22.8169   21.2841 C   0  0  0  0  0  0  0  0  0  0  0  0
  -29.2912  -16.5396   20.3991 C   0  0  0  0  0  0  0  0  0  0  0  0
  -30.8911  -24.7931   21.5452 C   0  0  0  0  0  0  0  0  0  0  0  0
  -29.3598  -14.8501   18.5582 C   0  0  0  0  0  0  0  0  0  0  0  0
  -23.0456  -25.1660   20.1506 C   0  0  0  0  0  0  0  0  0  0  0  0
  -24.7984  -23.8049   17.7847 C   0  0  0  0  0  0  0  0  0  0  0  0
  -27.6349  -23.8506   15.8876 C   0  0  0  0  0  0  0  0  0  0  0  0
  -29.6055  -27.8402   21.7854 C   0  0  0  0  0  0  0  0  0  0  0  0
  -28.6548  -21.4533   22.9394 C   0  0  0  0  0  0  0  0  0  0  0  0
  -18.2123  -25.0099   21.7856 C   0  0  0  0  0  0  0  0  0  0  0  0
  -23.5150  -27.1496   18.6671 C   0  0  0  0  0  0  0  0  0  0  0  0
  -25.9555  -25.5603   19.1794 C   0  0  0  0  0  0  0  0  0  0  0  0
  -19.1356  -24.0685   21.0165 C   0  0  0  0  0  0  0  0  0  0  0  0
  -27.9813  -18.5340   24.8633 C   0  0  0  0  0  0  0  0  0  0  0  0
  -20.4787  -23.9389   21.7279 C   0  0  0  0  0  0  0  0  0  0  0  0
  -27.9179  -17.4178   23.8182 C   0  0  0  0  0  0  0  0  0  0  0  0
  -27.3847  -19.8382   24.3370 C   0  0  0  0  0  0  0  0  0  0  0  0
  -27.8729  -19.1852   22.0123 C   0  0  0  0  0  0  0  0  0  0  0  0
  -21.1937  -25.2931   21.8075 C   0  0  1  0  0  0  0  0  0  0  0  0
  -23.4729  -25.6293   18.7866 C   0  0  1  0  0  0  0  0  0  0  0  0
  -28.5211  -17.8696   22.4737 C   0  0  2  0  0  0  0  0  0  0  0  0
  -28.8044  -22.5869   14.0620 C   0  0  0  0  0  0  0  0  0  0  0  0
  -30.3058  -30.1221   20.9800 C   0  0  0  0  0  0  0  0  0  0  0  0
  -25.6220  -21.6644   19.7972 C   0  0  0  0  0  0  0  0  0  0  0  0
  -27.4748  -21.0154   18.2434 C   0  0  0  0  0  0  0  0  0  0  0  0
  -25.1005  -20.7997   17.5092 C   0  0  0  0  0  0  0  0  0  0  0  0
  -27.5596  -26.1823   14.0665 C   0  0  0  0  0  0  0  0  0  0  0  0
  -31.3206  -26.0873   22.1735 C   0  0  0  0  0  0  0  0  0  0  0  0
  -26.1311  -23.0994   17.7121 C   0  0  1  0  0  0  0  0  0  0  0  0
  -27.8473  -23.7223   14.3900 C   0  0  2  0  0  0  0  0  0  0  0  0
  -29.2747  -29.0094   20.8683 C   0  0  2  0  0  0  0  0  0  1  0  0
  -26.0799  -21.6714   18.3250 C   0  0  0  0  0  0  0  0  0  0  0  0
  -27.3696  -15.9449   21.4486 N   0  0  0  0  0  0  0  0  0  0  0  0
  -30.1876  -23.8664   22.1570 N   0  0  0  0  0  0  0  0  0  0  0  0
  -28.4188  -16.7842   21.4185 N   0  0  0  0  0  0  0  0  0  0  0  0
  -24.7679  -25.0046   18.5097 N   0  0  0  0  0  0  0  0  0  0  0  0
  -28.0071  -20.2060   23.0633 N   0  0  0  0  0  0  0  0  0  0  0  0
  -30.3998  -17.2895   20.2223 N   0  0  0  0  0  0  0  0  0  0  0  0
  -28.7010  -13.7565   17.9799 N   0  0  0  0  0  0  0  0  0  0  0  0
  -29.2376  -21.6791   21.6929 N   0  0  0  0  0  0  0  0  0  0  0  0
  -21.7985  -25.6210   20.5342 N   0  0  0  0  0  0  0  0  0  0  0  0
  -30.8075  -27.2319   21.4580 N   0  0  0  0  0  0  0  0  0  0  0  0
  -26.5355  -23.1341   16.3108 N   0  0  0  0  0  0  0  0  0  0  0  0
  -28.4104  -24.9863   13.8366 N   0  3  0  0  0  0  0  0  0  0  0  0
  -30.4412  -15.2477   18.0622 O   0  0  0  0  0  0  0  0  0  0  0  0
  -23.7914  -24.4475   20.8057 O   0  0  0  0  0  0  0  0  0  0  0  0
  -23.8221  -23.3134   17.2130 O   0  0  0  0  0  0  0  0  0  0  0  0
  -28.3729  -24.5165   16.6104 O   0  0  0  0  0  0  0  0  0  0  0  0
  -28.8606  -27.4847   22.6963 O   0  0  0  0  0  0  0  0  0  0  0  0
  -28.7134  -22.2504   23.8793 O   0  0  0  0  0  0  0  0  0  0  0  0
  -23.9991  -11.0308   19.2037 O   0  0  0  0  0  0  0  0  0  0  0  0
  -27.9872  -29.5206   21.2107 O   0  0  0  0  0  0  0  0  0  1  0  0
  -22.1666   -7.9199   23.3712 F   0  0  0  0  0  0  0  0  0  0  0  0
  -22.6107  -12.1585   21.3116 F   0  0  0  0  0  0  0  0  0  0  0  0
  -31.3323  -24.4686   19.9188 S   0  0  0  0  0  0  0  0  0  0  0  0
  1  2  1  0  0  0  0
  1  5  2  0  0  0  0
  2  6  2  0  0  0  0
  3  8  2  0  0  0  0
  3 16  1  0  0  0  0
  4  9  1  0  0  0  0
  4 16  2  0  0  0  0
  5 18  1  0  0  0  0
  6 20  1  0  0  0  0
  7 10  2  0  0  0  0
  7 19  1  0  0  0  0
  8 22  1  0  0  0  0
  9 22  2  0  0  0  0
 10 23  1  0  0  0  0
 11 12  2  0  0  0  0
 11 24  1  0  0  0  0
 12 25  1  0  0  0  0
 13 21  1  0  0  0  0
 13 23  2  0  0  0  0
 14 25  2  0  0  0  0
 14 26  1  0  0  0  0
 15 28  2  0  0  0  0
 15 82  1  0  0  0  0
 16 27  1  0  0  0  0
 17 27  1  0  0  0  0
 17 29  2  0  0  0  0
 17 31  1  0  0  0  0
 18 20  2  0  0  0  0
 18 37  1  0  0  0  0
 19 21  2  0  0  0  0
 19 38  1  0  0  0  0
 20 46  1  0  0  0  0
 21 39  1  0  0  0  0
 22 78  1  0  0  0  0
 23 79  1  0  0  0  0
 24 26  2  0  0  0  0
 24 78  1  0  0  0  0
 25 80  1  0  0  0  0
 26 81  1  0  0  0  0
 27 60  2  0  0  0  0
 28 61  1  0  0  0  0
 28 67  1  0  0  0  0
 29 62  1  0  0  0  0
 29 65  1  0  0  0  0
 30 55  1  0  0  0  0
 30 61  2  0  0  0  0
 30 82  1  0  0  0  0
 31 66  1  0  0  0  0
 31 72  2  0  0  0  0
 32 47  1  0  0  0  0
 32 68  1  0  0  0  0
 32 73  2  0  0  0  0
 33 56  1  0  0  0  0
 33 63  1  0  0  0  0
 33 74  2  0  0  0  0
 34 57  1  0  0  0  0
 34 70  1  0  0  0  0
 34 75  2  0  0  0  0
 35 58  1  0  0  0  0
 35 69  1  0  0  0  0
 35 76  2  0  0  0  0
 36 64  1  0  0  0  0
 36 67  1  0  0  0  0
 36 77  2  0  0  0  0
 37 40  1  0  0  0  0
 38 47  1  0  0  0  0
 39 63  1  0  0  0  0
 40 42  1  0  0  0  0
 41 43  1  0  0  0  0
 41 44  1  0  0  0  0
 42 46  1  0  0  0  0
 43 48  1  0  0  0  0
 44 64  1  0  0  0  0
 45 48  1  0  0  0  0
 45 64  1  0  0  0  0
 46 68  1  0  0  0  0
 47 63  1  0  0  0  0
 48 62  1  0  0  0  0
 49 57  1  0  0  0  0
 50 58  1  0  0  0  0
 51 59  1  0  0  0  0
 52 59  1  0  0  0  0
 53 59  1  0  0  0  0
 54 71  1  0  0  0  0
 55 69  1  0  0  0  0
 56 59  1  0  0  0  0
 56 70  1  0  0  0  0
 57 71  1  0  0  0  0
 58 79  1  0  0  0  0
 60 62  1  0  0  0  0
M  CHG  1  71   1
M  ISO  4  36 100  58 101  67 100  79 101
M  END
> <Batch ID>
0189

> <Smiles>
CNC(C)C(=O)NC(C(=O)N1Cc2cc([101O:1][101CH:1](C)C(=O)NCc3nc([100NH:0][100C:0](=O)N4CCCC(n5nc(-c6ccc(Oc7ccc(F)cc7F)cc6)c(C(N)=O)c5N)C4)cs3)ccc2CC1C(=O)NC1CCCc2ccccc21)C(C)(C)C

> <Shape>
0.229

> <Color>
0.074

> <Negative vol penalty>
0.000

$$$$

  -OEChem-04052305183D

 89 97  0     1  0  0  0  0  0999 V2000
  -29.6260  -25.4470   16.5576 C   0  0  0  0  0  0  0  0  0  0  0  0
  -28.3353  -25.5439   17.0676 C   0  0  0  0  0  0  0  0  0  0  0  0
  -23.7430   -9.9186   22.3331 C   0  0  0  0  0  0  0  0  0  0  0  0
  -23.3151   -9.6817   19.9671 C   0  0  0  0  0  0  0  0  0  0  0  0
  -30.7056  -25.9219   17.3011 C   0  0  0  0  0  0  0  0  0  0  0  0
  -28.1236  -26.1149   18.3220 C   0  0  0  0  0  0  0  0  0  0  0  0
  -24.2287  -29.3513   18.3510 C   0  0  0  0  0  0  0  0  0  0  0  0
  -23.6363   -8.5368   22.4908 C   0  0  0  0  0  0  0  0  0  0  0  0
  -23.2085   -8.2999   20.1248 C   0  0  0  0  0  0  0  0  0  0  0  0
  -22.9469  -28.8045   18.3915 C   0  0  0  0  0  0  0  0  0  0  0  0
  -21.1677   -6.2386   22.7114 C   0  0  0  0  0  0  0  0  0  0  0  0
  -20.4149   -5.7660   23.7863 C   0  0  0  0  0  0  0  0  0  0  0  0
  -22.8442  -29.2362   20.7626 C   0  0  0  0  0  0  0  0  0  0  0  0
  -22.3645   -4.6327   24.6534 C   0  0  0  0  0  0  0  0  0  0  0  0
  -23.5823  -10.4910   21.0713 C   0  0  0  0  0  0  0  0  0  0  0  0
  -24.8575  -12.6545   20.6231 C   0  0  0  0  0  0  0  0  0  0  0  0
  -30.5060  -26.5078   18.5611 C   0  0  0  0  0  0  0  0  0  0  0  0
  -24.8333  -29.8355   19.5199 C   0  0  0  0  0  0  0  0  0  0  0  0
  -29.2017  -26.5969   19.0836 C   0  0  0  0  0  0  0  0  0  0  0  0
  -24.1328  -29.7910   20.7338 C   0  0  0  0  0  0  0  0  0  0  0  0
  -23.3691   -7.7274   21.3867 C   0  0  0  0  0  0  0  0  0  0  0  0
  -22.2555  -28.7443   19.5979 C   0  0  0  0  0  0  0  0  0  0  0  0
  -22.5189   -5.9083   22.6074 C   0  0  0  0  0  0  0  0  0  0  0  0
  -21.0133   -4.9630   24.7573 C   0  0  0  0  0  0  0  0  0  0  0  0
  -23.1173   -5.1054   23.5784 C   0  0  0  0  0  0  0  0  0  0  0  0
  -23.6918  -11.9184   20.9079 C   0  0  0  0  0  0  0  0  0  0  0  0
  -23.5782  -20.9957   19.5761 C   0  0  0  0  0  0  0  0  0  0  0  0
  -22.6145  -20.0509   19.2919 C   0  0  0  0  0  0  0  0  0  0  0  0
  -24.4344  -13.9600   20.5681 C   0  0  0  0  0  0  0  0  0  0  0  0
  -21.8007  -22.2615   19.7955 C   0  0  0  0  0  0  0  0  0  0  0  0
  -26.2026  -12.1989   20.4259 C   0  0  0  0  0  0  0  0  0  0  0  0
  -27.4380  -29.0787   21.1772 C   0  0  0  0  0  0  0  0  0  0  0  0
  -26.6374  -31.7123   22.8934 C   0  0  0  0  0  0  0  0  0  0  0  0
  -24.2067  -33.8865   23.8991 C   0  0  0  0  0  0  0  0  0  0  0  0
  -21.2560  -24.6517   20.3576 C   0  0  0  0  0  0  0  0  0  0  0  0
  -20.5137  -17.5298   18.5181 C   0  0  0  0  0  0  0  0  0  0  0  0
  -31.7089  -26.9640   19.3483 C   0  0  0  0  0  0  0  0  0  0  0  0
  -26.2061  -30.4467   19.4546 C   0  0  0  0  0  0  0  0  0  0  0  0
  -24.7293  -30.3158   22.0133 C   0  0  0  0  0  0  0  0  0  0  0  0
  -31.3612  -27.8953   20.5067 C   0  0  0  0  0  0  0  0  0  0  0  0
  -20.0439  -16.0750   21.8893 C   0  0  0  0  0  0  0  0  0  0  0  0
  -30.1847  -27.3404   21.3033 C   0  0  0  0  0  0  0  0  0  0  0  0
  -20.9994  -14.8830   21.8738 C   0  0  0  0  0  0  0  0  0  0  0  0
  -19.5367  -16.4136   20.4908 C   0  0  0  0  0  0  0  0  0  0  0  0
  -21.5754  -15.4462   19.4797 C   0  0  0  0  0  0  0  0  0  0  0  0
  -28.9290  -27.2323   20.4297 C   0  0  1  0  0  0  0  0  0  0  0  0
  -26.9275  -30.4403   20.7988 C   0  0  1  0  0  0  0  0  0  0  0  0
  -22.1411  -15.1082   20.8673 C   0  0  2  0  0  0  0  0  0  0  0  0
  -23.8486  -35.9159   25.3311 C   0  0  0  0  0  0  0  0  0  0  0  0
  -25.5698  -20.2862   18.2064 C   0  0  0  0  0  0  0  0  0  0  0  0
  -25.4416  -19.6807   20.6463 C   0  0  0  0  0  0  0  0  0  0  0  0
  -25.9200  -22.0201   19.9536 C   0  0  0  0  0  0  0  0  0  0  0  0
  -26.7603  -29.9671   25.3932 C   0  0  0  0  0  0  0  0  0  0  0  0
  -25.4997  -31.7513   26.6162 C   0  0  0  0  0  0  0  0  0  0  0  0
  -27.7510  -32.2475   25.6632 C   0  0  0  0  0  0  0  0  0  0  0  0
  -21.7700  -18.5955   16.6836 C   0  0  0  0  0  0  0  0  0  0  0  0
  -23.3205  -35.5056   21.5856 C   0  0  0  0  0  0  0  0  0  0  0  0
  -22.7555  -18.6227   18.9450 C   0  0  0  0  0  0  0  0  0  0  0  0
  -19.6253  -26.2553   19.2425 C   0  0  0  0  0  0  0  0  0  0  0  0
  -20.7022  -27.1876   18.6924 C   0  0  0  0  0  0  0  0  0  1  0  0
  -25.7778  -31.9778   24.1057 C   0  0  1  0  0  0  0  0  0  0  0  0
  -24.1640  -35.4036   23.9344 C   0  0  2  0  0  0  0  0  0  0  0  0
  -20.0263  -25.5272   20.5281 C   0  0  2  0  0  0  0  0  0  0  0  0
  -25.0379  -20.7700   19.5969 C   0  0  0  0  0  0  0  0  0  0  0  0
  -26.4364  -31.4742   25.4210 C   0  0  0  0  0  0  0  0  0  0  0  0
  -22.6094  -12.6920   21.0257 N   0  0  0  0  0  0  0  0  0  0  0  0
  -23.1135  -22.2640   19.8647 N   0  0  0  0  0  0  0  0  0  0  0  0
  -23.0932  -13.9278   20.8140 N   0  0  0  0  0  0  0  0  0  0  0  0
  -26.0767  -30.8982   21.8991 N   0  0  0  0  0  0  0  0  0  0  0  0
  -20.6407  -16.5797   19.5448 N   0  0  0  0  0  0  0  0  0  0  0  0
  -25.0824  -15.1209   20.3339 N   0  0  0  0  0  0  0  0  0  0  0  0
  -26.4627  -10.8248   20.5172 N   0  0  0  0  0  0  0  0  0  0  0  0
  -20.9210  -23.3473   20.0178 N   0  0  0  0  0  0  0  0  0  0  0  0
  -28.3171  -28.5330   20.2613 N   0  0  0  0  0  0  0  0  0  0  0  0
  -25.4847  -33.4069   24.0933 N   0  0  0  0  0  0  0  0  0  0  0  0
  -21.6913  -18.1437   18.0655 N   0  0  0  0  0  0  0  0  0  0  0  0
  -23.1215  -35.9143   22.9999 N   0  3  0  0  0  0  0  0  0  0  0  0
  -27.1488  -12.9887   20.1924 O   0  0  0  0  0  0  0  0  0  0  0  0
  -27.0633  -28.5622   22.2233 O   0  0  0  0  0  0  0  0  0  0  0  0
  -27.7620  -32.2148   22.8278 O   0  0  0  0  0  0  0  0  0  0  0  0
  -23.2057  -33.1959   23.7210 O   0  0  0  0  0  0  0  0  0  0  0  0
  -22.3786  -25.1171   20.5312 O   0  0  0  0  0  0  0  0  0  0  0  0
  -19.4094  -17.8200   18.0403 O   0  0  0  0  0  0  0  0  0  0  0  0
  -23.2652   -6.3790   21.5401 O   0  0  0  0  0  0  0  0  0  0  0  0
  -21.0045  -28.2105   19.6404 O   0  0  0  0  0  0  0  0  0  1  0  0
  -20.2906   -4.5105   25.7903 F   0  0  0  0  0  0  0  0  0  0  0  0
  -24.4153   -4.7856   23.4846 F   0  0  0  0  0  0  0  0  0  0  0  0
  -20.2285  -26.4491   21.5117 F   0  0  0  0  0  0  0  0  0  0  0  0
  -21.0596  -20.7680   19.3889 S   0  0  0  0  0  0  0  0  0  0  0  0
  1  2  1  0  0  0  0
  1  5  2  0  0  0  0
  2  6  2  0  0  0  0
  3  8  2  0  0  0  0
  3 15  1  0  0  0  0
  4  9  1  0  0  0  0
  4 15  2  0  0  0  0
  5 17  1  0  0  0  0
  6 19  1  0  0  0  0
  7 10  2  0  0  0  0
  7 18  1  0  0  0  0
  8 21  1  0  0  0  0
  9 21  2  0  0  0  0
 10 22  1  0  0  0  0
 11 12  2  0  0  0  0
 11 23  1  0  0  0  0
 12 24  1  0  0  0  0
 13 20  1  0  0  0  0
 13 22  2  0  0  0  0
 14 24  2  0  0  0  0
 14 25  1  0  0  0  0
 15 26  1  0  0  0  0
 16 26  1  0  0  0  0
 16 29  2  0  0  0  0
 16 31  1  0  0  0  0
 17 19  2  0  0  0  0
 17 37  1  0  0  0  0
 18 20  2  0  0  0  0
 18 38  1  0  0  0  0
 19 46  1  0  0  0  0
 20 39  1  0  0  0  0
 21 84  1  0  0  0  0
 22 85  1  0  0  0  0
 23 25  2  0  0  0  0
 23 84  1  0  0  0  0
 24 86  1  0  0  0  0
 25 87  1  0  0  0  0
 26 66  2  0  0  0  0
 27 28  2  0  0  0  0
 27 64  1  0  0  0  0
 27 67  1  0  0  0  0
 28 58  1  0  0  0  0
 28 89  1  0  0  0  0
 29 68  1  0  0  0  0
 29 71  1  0  0  0  0
 30 67  2  0  0  0  0
 30 73  1  0  0  0  0
 30 89  1  0  0  0  0
 31 72  1  0  0  0  0
 31 78  2  0  0  0  0
 32 47  1  0  0  0  0
 32 74  1  0  0  0  0
 32 79  2  0  0  0  0
 33 61  1  0  0  0  0
 33 69  1  0  0  0  0
 33 80  2  0  0  0  0
 34 62  1  0  0  0  0
 34 75  1  0  0  0  0
 34 81  2  0  0  0  0
 35 63  1  0  0  0  0
 35 73  1  0  0  0  0
 35 82  2  0  0  0  0
 36 70  1  0  0  0  0
 36 76  1  0  0  0  0
 36 83  2  0  0  0  0
 37 40  1  0  0  0  0
 38 47  1  0  0  0  0
 39 69  1  0  0  0  0
 40 42  1  0  0  0  0
 41 43  1  0  0  0  0
 41 44  1  0  0  0  0
 42 46  1  0  0  0  0
 43 48  1  0  0  0  0
 44 70  1  0  0  0  0
 45 48  1  0  0  0  0
 45 70  1  0  0  0  0
 46 74  1  0  0  0  0
 47 69  1  0  0  0  0
 48 68  1  0  0  0  0
 49 62  1  0  0  0  0
 50 64  1  0  0  0  0
 51 64  1  0  0  0  0
 52 64  1  0  0  0  0
 53 65  1  0  0  0  0
 54 65  1  0  0  0  0
 55 65  1  0  0  0  0
 56 76  1  0  0  0  0
 57 77  1  0  0  0  0
 58 76  1  0  0  0  0
 59 60  1  0  0  0  0
 59 63  1  0  0  0  0
 60 85  1  0  0  0  0
 61 65  1  0  0  0  0
 61 75  1  0  0  0  0
 62 77  1  0  0  0  0
 63 88  1  0  0  0  0
 66 68  1  0  0  0  0
M  CHG  1  77   1
M  ISO  4  36 100  60 101  76 100  85 101
M  END
> <Batch ID>
0189

> <Smiles>
CNC(C)C(=O)NC(C(=O)N1Cc2cc([101O:1][101CH2:1]CC(F)C(=O)Nc3nc(C(C)(C)C)c(C[100N:0](C)[100C:0](=O)N4CCCC(n5nc(-c6ccc(Oc7ccc(F)cc7F)cc6)c(C(N)=O)c5N)C4)s3)ccc2CC1C(=O)NC1CCCc2ccccc21)C(C)(C)C

> <Shape>
0.302

> <Color>
0.124

> <Negative vol penalty>
0.000

$$$$

  -OEChem-04052305183D

 88 96  0     1  0  0  0  0  0999 V2000
  -34.7249   -8.5074   21.8438 C   0  0  0  0  0  0  0  0  0  0  0  0
  -34.9150   -9.7991   22.3241 C   0  0  0  0  0  0  0  0  0  0  0  0
  -23.0466  -32.0461   24.7652 C   0  0  0  0  0  0  0  0  0  0  0  0
  -25.0329  -31.2509   25.8873 C   0  0  0  0  0  0  0  0  0  0  0  0
  -33.9133   -8.2911   20.7309 C   0  0  0  0  0  0  0  0  0  0  0  0
  -34.2944  -10.8755   21.6911 C   0  0  0  0  0  0  0  0  0  0  0  0
  -31.4293  -17.2872   23.1045 C   0  0  0  0  0  0  0  0  0  0  0  0
  -22.4032  -32.1758   25.9959 C   0  0  0  0  0  0  0  0  0  0  0  0
  -24.3895  -31.3807   27.1181 C   0  0  0  0  0  0  0  0  0  0  0  0
  -31.5071  -18.6164   22.6913 C   0  0  0  0  0  0  0  0  0  0  0  0
  -20.8739  -30.1545   28.2319 C   0  0  0  0  0  0  0  0  0  0  0  0
  -19.5659  -29.6804   28.3318 C   0  0  0  0  0  0  0  0  0  0  0  0
  -31.4789  -25.1636   20.3382 C   0  0  0  0  0  0  0  0  0  0  0  0
  -30.0636  -18.1144   20.8249 C   0  0  0  0  0  0  0  0  0  0  0  0
  -18.8065  -31.8984   28.9153 C   0  0  0  0  0  0  0  0  0  0  0  0
  -31.7236  -25.5227   21.6454 C   0  0  0  0  0  0  0  0  0  0  0  0
  -24.3615  -31.5835   24.7109 C   0  0  0  0  0  0  0  0  0  0  0  0
  -25.7932  -32.4237   22.7739 C   0  0  0  0  0  0  0  0  0  0  0  0
  -33.2747   -9.3643   20.0898 C   0  0  0  0  0  0  0  0  0  0  0  0
  -30.6755  -16.3576   22.3737 C   0  0  0  0  0  0  0  0  0  0  0  0
  -33.4746  -10.6735   20.5678 C   0  0  0  0  0  0  0  0  0  0  0  0
  -29.9757  -16.7745   21.2324 C   0  0  0  0  0  0  0  0  0  0  0  0
  -30.1138  -25.3543   19.9774 C   0  0  0  0  0  0  0  0  0  0  0  0
  -23.0747  -31.8432   27.1724 C   0  0  0  0  0  0  0  0  0  0  0  0
  -30.8266  -19.0296   21.5497 C   0  0  0  0  0  0  0  0  0  0  0  0
  -21.1482  -31.5006   28.4739 C   0  0  0  0  0  0  0  0  0  0  0  0
  -18.5322  -30.5523   28.6734 C   0  0  0  0  0  0  0  0  0  0  0  0
  -20.1145  -32.3725   28.8155 C   0  0  0  0  0  0  0  0  0  0  0  0
  -25.0265  -31.4487   23.4398 C   0  0  0  0  0  0  0  0  0  0  0  0
  -26.2016  -31.8076   21.6162 C   0  0  0  0  0  0  0  0  0  0  0  0
  -29.3670  -25.8519   21.0227 C   0  0  0  0  0  0  0  0  0  0  0  0
  -26.1082  -33.7661   23.1667 C   0  0  0  0  0  0  0  0  0  0  0  0
  -31.3364  -13.6783   20.7962 C   0  0  0  0  0  0  0  0  0  0  0  0
  -28.1100  -13.5168   20.5014 C   0  0  0  0  0  0  0  0  0  0  0  0
  -25.1188  -15.1591   20.4589 C   0  0  0  0  0  0  0  0  0  0  0  0
  -27.0301  -26.0846   20.1110 C   0  0  0  0  0  0  0  0  0  0  0  0
  -32.4447   -9.0863   18.8616 C   0  0  0  0  0  0  0  0  0  0  0  0
  -30.5801  -14.9333   22.8478 C   0  0  0  0  0  0  0  0  0  0  0  0
  -29.1364  -15.8203   20.4242 C   0  0  0  0  0  0  0  0  0  0  0  0
  -31.5230  -10.2402   18.4753 C   0  0  0  0  0  0  0  0  0  0  0  0
  -24.8696  -28.4168   18.5078 C   0  0  0  0  0  0  0  0  0  0  0  0
  -32.2806  -11.5637   18.5117 C   0  0  0  0  0  0  0  0  0  0  0  0
  -24.7393  -29.5505   19.5275 C   0  0  0  0  0  0  0  0  0  0  0  0
  -24.9354  -27.0492   19.1855 C   0  0  0  0  0  0  0  0  0  0  0  0
  -25.8311  -28.0555   21.2481 C   0  0  0  0  0  0  0  0  0  0  0  0
  -32.7986  -11.8643   19.9233 C   0  0  1  0  0  0  0  0  0  0  0  0
  -30.1995  -13.9584   21.7378 C   0  0  1  0  0  0  0  0  0  0  0  0
  -25.8265  -29.4571   20.6161 C   0  0  2  0  0  0  0  0  0  0  0  0
  -32.0020  -23.2253   15.4680 C   0  0  0  0  0  0  0  0  0  0  0  0
  -27.7886  -24.5980   14.6837 C   0  0  0  0  0  0  0  0  0  0  0  0
  -22.6588  -14.7643   20.1593 C   0  0  0  0  0  0  0  0  0  0  0  0
  -28.5246  -13.2323   17.4918 C   0  0  0  0  0  0  0  0  0  0  0  0
  -26.1055  -13.7948   17.1758 C   0  0  0  0  0  0  0  0  0  0  0  0
  -26.7525  -11.7476   18.4458 C   0  0  0  0  0  0  0  0  0  0  0  0
  -30.3380  -25.7525   16.0135 C   0  0  0  0  0  0  0  0  0  0  0  0
  -24.5095  -16.1581   23.1773 C   0  0  0  0  0  0  0  0  0  0  0  0
  -30.4806  -23.3075   15.3951 C   0  0  0  0  0  0  0  0  0  0  0  0
  -28.2547  -24.2998   16.1068 C   0  0  0  0  0  0  0  0  0  0  0  0
  -30.3745  -22.1620   19.6562 C   0  0  0  0  0  0  0  0  0  0  0  0
  -30.1817  -20.6841   19.9677 C   0  0  0  0  0  0  0  0  0  1  0  0
  -27.1017  -14.0202   19.4970 C   0  0  1  0  0  0  0  0  0  0  0  0
  -23.8017  -14.8715   21.1568 C   0  0  2  0  0  0  0  0  0  0  0  0
  -30.1410  -24.0269   17.8648 C   0  0  1  0  0  0  0  0  0  0  0  0
  -29.6602  -22.6578   18.3904 C   0  0  2  0  0  0  0  0  0  0  0  0
  -27.1384  -13.2165   18.1665 C   0  0  0  0  0  0  0  0  0  0  0  0
  -29.7993  -24.3382   16.3534 C   0  0  0  0  0  0  0  0  0  0  0  0
  -24.9506  -30.3006   22.7615 N   0  0  0  0  0  0  0  0  0  0  0  0
  -25.6749  -30.5502   21.6573 N   0  0  0  0  0  0  0  0  0  0  0  0
  -29.0796  -14.4369   20.9247 N   0  0  0  0  0  0  0  0  0  0  0  0
  -25.9903  -27.0340   20.2013 N   0  0  0  0  0  0  0  0  0  0  0  0
  -26.9563  -32.2242   20.5773 N   0  0  0  0  0  0  0  0  0  0  0  0
  -25.6076  -34.2401   24.3869 N   0  0  0  0  0  0  0  0  0  0  0  0
  -29.6066  -25.0709   18.7263 N   0  0  0  0  0  0  0  0  0  0  0  0
  -27.9933  -26.1873   21.1141 N   0  0  0  0  0  0  0  0  0  0  0  0
  -31.7253  -12.3528   20.7622 N   0  0  0  0  0  0  0  0  0  0  0  0
  -25.8084  -14.0002   20.1717 N   0  0  0  0  0  0  0  0  0  0  0  0
  -23.4803  -15.9581   22.1248 N   0  3  0  0  0  0  0  0  0  0  0  0
  -26.7990  -34.5284   22.4489 O   0  0  0  0  0  0  0  0  0  0  0  0
  -31.8237  -14.5966   20.1473 O   0  0  0  0  0  0  0  0  0  0  0  0
  -28.0357  -12.3522   20.9011 O   0  0  0  0  0  0  0  0  0  0  0  0
  -25.4962  -16.2978   20.1916 O   0  0  0  0  0  0  0  0  0  0  0  0
  -27.0782  -25.2599   19.1947 O   0  0  0  0  0  0  0  0  0  0  0  0
  -22.4472  -31.9699   28.3736 O   0  0  0  0  0  0  0  0  0  0  0  0
  -30.9020  -20.3364   21.1406 O   0  0  0  0  0  0  0  0  0  1  0  0
  -17.2760  -30.0972   28.7678 F   0  0  0  0  0  0  0  0  0  0  0  0
  -20.3717  -33.6670   29.0479 F   0  0  0  0  0  0  0  0  0  0  0  0
  -28.3328  -22.7413   18.7002 F   0  0  0  0  0  0  0  0  0  0  0  0
  -30.3111  -26.0872   22.4318 S   0  0  0  0  0  0  0  0  0  0  0  0
  1  2  1  0  0  0  0
  1  5  2  0  0  0  0
  2  6  2  0  0  0  0
  3  8  2  0  0  0  0
  3 17  1  0  0  0  0
  4  9  1  0  0  0  0
  4 17  2  0  0  0  0
  5 19  1  0  0  0  0
  6 21  1  0  0  0  0
  7 10  2  0  0  0  0
  7 20  1  0  0  0  0
  8 24  1  0  0  0  0
  9 24  2  0  0  0  0
 10 25  1  0  0  0  0
 11 12  2  0  0  0  0
 11 26  1  0  0  0  0
 12 27  1  0  0  0  0
 13 16  2  0  0  0  0
 13 23  1  0  0  0  0
 14 22  1  0  0  0  0
 14 25  2  0  0  0  0
 15 27  2  0  0  0  0
 15 28  1  0  0  0  0
 16 88  1  0  0  0  0
 17 29  1  0  0  0  0
 18 29  1  0  0  0  0
 18 30  2  0  0  0  0
 18 32  1  0  0  0  0
 19 21  2  0  0  0  0
 19 37  1  0  0  0  0
 20 22  2  0  0  0  0
 20 38  1  0  0  0  0
 21 46  1  0  0  0  0
 22 39  1  0  0  0  0
 23 31  2  0  0  0  0
 23 73  1  0  0  0  0
 24 83  1  0  0  0  0
 25 84  1  0  0  0  0
 26 28  2  0  0  0  0
 26 83  1  0  0  0  0
 27 85  1  0  0  0  0
 28 86  1  0  0  0  0
 29 67  2  0  0  0  0
 30 68  1  0  0  0  0
 30 71  1  0  0  0  0
 31 74  1  0  0  0  0
 31 88  1  0  0  0  0
 32 72  1  0  0  0  0
 32 78  2  0  0  0  0
 33 47  1  0  0  0  0
 33 75  1  0  0  0  0
 33 79  2  0  0  0  0
 34 61  1  0  0  0  0
 34 69  1  0  0  0  0
 34 80  2  0  0  0  0
 35 62  1  0  0  0  0
 35 76  1  0  0  0  0
 35 81  2  0  0  0  0
 36 70  1  0  0  0  0
 36 74  1  0  0  0  0
 36 82  2  0  0  0  0
 37 40  1  0  0  0  0
 38 47  1  0  0  0  0
 39 69  1  0  0  0  0
 40 42  1  0  0  0  0
 41 43  1  0  0  0  0
 41 44  1  0  0  0  0
 42 46  1  0  0  0  0
 43 48  1  0  0  0  0
 44 70  1  0  0  0  0
 45 48  1  0  0  0  0
 45 70  1  0  0  0  0
 46 75  1  0  0  0  0
 47 69  1  0  0  0  0
 48 68  1  0  0  0  0
 49 57  1  0  0  0  0
 50 58  1  0  0  0  0
 51 62  1  0  0  0  0
 52 65  1  0  0  0  0
 53 65  1  0  0  0  0
 54 65  1  0  0  0  0
 55 66  1  0  0  0  0
 56 77  1  0  0  0  0
 57 66  1  0  0  0  0
 58 66  1  0  0  0  0
 59 60  1  0  0  0  0
 59 64  1  0  0  0  0
 60 84  1  0  0  0  0
 61 65  1  0  0  0  0
 61 76  1  0  0  0  0
 62 77  1  0  0  0  0
 63 64  1  0  0  0  0
 63 66  1  0  0  0  0
 63 73  1  0  0  0  0
 64 87  1  0  0  0  0
 67 68  1  0  0  0  0
M  CHG  1  77   1
M  ISO  4  36 100  60 101  74 100  84 101
M  END
> <Batch ID>
0189

> <Smiles>
CCC(C)(CC)C(Nc1ccsc1[100NH:0][100C:0](=O)N1CCCC(n2nc(-c3ccc(Oc4ccc(F)cc4F)cc3)c(C(N)=O)c2N)C1)C(F)C[101CH2:1][101O:1]c1ccc2c(c1)CN(C(=O)C(NC(=O)C(C)NC)C(C)(C)C)C(C(=O)NC1CCCc3ccccc31)C2

> <Shape>
0.267

> <Color>
0.070

> <Negative vol penalty>
0.000

$$$$

  -OEChem-04052305183D

 85 93  0     1  0  0  0  0  0999 V2000
  -20.1518  -34.2878   21.6053 C   0  0  0  0  0  0  0  0  0  0  0  0
  -21.3387  -33.7181   21.1557 C   0  0  0  0  0  0  0  0  0  0  0  0
  -24.5672   -9.2949   21.9348 C   0  0  0  0  0  0  0  0  0  0  0  0
  -22.9854  -10.4726   20.5391 C   0  0  0  0  0  0  0  0  0  0  0  0
  -19.4600  -33.7075   22.6677 C   0  0  0  0  0  0  0  0  0  0  0  0
  -21.8350  -32.5683   21.7690 C   0  0  0  0  0  0  0  0  0  0  0  0
  -24.8607  -27.9740   19.0776 C   0  0  0  0  0  0  0  0  0  0  0  0
  -23.7547   -8.1617   21.8994 C   0  0  0  0  0  0  0  0  0  0  0  0
  -22.1729   -9.3394   20.5037 C   0  0  0  0  0  0  0  0  0  0  0  0
  -26.2190  -27.6752   18.9802 C   0  0  0  0  0  0  0  0  0  0  0  0
  -20.9320   -7.0731   23.4068 C   0  0  0  0  0  0  0  0  0  0  0  0
  -20.7053   -6.4014   24.6080 C   0  0  0  0  0  0  0  0  0  0  0  0
  -26.8882  -20.8046   21.3269 C   0  0  0  0  0  0  0  0  0  0  0  0
  -27.4117  -21.6545   20.3101 C   0  0  0  0  0  0  0  0  0  0  0  0
  -26.0230  -26.1949   20.8748 C   0  0  0  0  0  0  0  0  0  0  0  0
  -21.6935   -4.4030   23.6770 C   0  0  0  0  0  0  0  0  0  0  0  0
  -24.1825  -10.4504   21.2546 C   0  0  0  0  0  0  0  0  0  0  0  0
  -26.0568  -11.9537   20.3975 C   0  0  0  0  0  0  0  0  0  0  0  0
  -19.9430  -32.5446   23.2880 C   0  0  0  0  0  0  0  0  0  0  0  0
  -24.0743  -27.3928   20.0828 C   0  0  0  0  0  0  0  0  0  0  0  0
  -21.1497  -31.9727   22.8415 C   0  0  0  0  0  0  0  0  0  0  0  0
  -24.6544  -26.4859   20.9812 C   0  0  0  0  0  0  0  0  0  0  0  0
  -22.5575   -8.1839   21.1838 C   0  0  0  0  0  0  0  0  0  0  0  0
  -26.8010  -26.7878   19.8807 C   0  0  0  0  0  0  0  0  0  0  0  0
  -21.5394   -6.4098   22.3406 C   0  0  0  0  0  0  0  0  0  0  0  0
  -21.0861   -5.0664   24.7432 C   0  0  0  0  0  0  0  0  0  0  0  0
  -21.9202   -5.0747   22.4757 C   0  0  0  0  0  0  0  0  0  0  0  0
  -25.0211  -11.6215   21.2913 C   0  0  0  0  0  0  0  0  0  0  0  0
  -26.5392  -13.1531   20.8615 C   0  0  0  0  0  0  0  0  0  0  0  0
  -26.6228  -19.5375   20.8562 C   0  0  0  0  0  0  0  0  0  0  0  0
  -27.5267  -21.0044   19.1010 C   0  0  0  0  0  0  0  0  0  0  0  0
  -26.5396  -11.2419   19.2504 C   0  0  0  0  0  0  0  0  0  0  0  0
  -22.3910  -28.5057   22.5387 C   0  0  0  0  0  0  0  0  0  0  0  0
  -21.4756  -25.4059   22.8134 C   0  0  0  0  0  0  0  0  0  0  0  0
  -22.1574  -22.1185   22.2010 C   0  0  0  0  0  0  0  0  0  0  0  0
  -25.7238  -18.2892   22.8511 C   0  0  0  0  0  0  0  0  0  0  0  0
  -19.1850  -31.9805   24.4635 C   0  0  0  0  0  0  0  0  0  0  0  0
  -22.6048  -27.7049   20.1578 C   0  0  0  0  0  0  0  0  0  0  0  0
  -23.8495  -25.8195   22.0658 C   0  0  0  0  0  0  0  0  0  0  0  0
  -19.5830  -30.5492   24.8148 C   0  0  0  0  0  0  0  0  0  0  0  0
  -25.6410  -15.6102   25.1948 C   0  0  0  0  0  0  0  0  0  0  0  0
  -21.1017  -30.4085   24.8407 C   0  0  0  0  0  0  0  0  0  0  0  0
  -25.5575  -14.3610   24.3147 C   0  0  0  0  0  0  0  0  0  0  0  0
  -24.8397  -16.7714   24.6088 C   0  0  0  0  0  0  0  0  0  0  0  0
  -25.0744  -15.8548   22.3342 C   0  0  0  0  0  0  0  0  0  0  0  0
  -21.7073  -30.7115   23.4649 C   0  0  1  0  0  0  0  0  0  0  0  0
  -22.0097  -27.4506   21.5393 C   0  0  1  0  0  0  0  0  0  0  0  0
  -25.9188  -14.6782   22.8503 C   0  0  2  0  0  0  0  0  0  0  0  0
  -21.2411  -19.8130   22.5789 C   0  0  0  0  0  0  0  0  0  0  0  0
  -27.1769  -24.2657   17.0609 C   0  0  0  0  0  0  0  0  0  0  0  0
  -29.7783  -27.6359   18.4706 C   0  0  0  0  0  0  0  0  0  0  0  0
  -22.3727  -25.5296   25.7272 C   0  0  0  0  0  0  0  0  0  0  0  0
  -22.3335  -23.0267   25.7728 C   0  0  0  0  0  0  0  0  0  0  0  0
  -20.2297  -24.2977   25.3468 C   0  0  0  0  0  0  0  0  0  0  0  0
  -30.0456  -22.3238   18.9538 C   0  0  0  0  0  0  0  0  0  0  0  0
  -29.6972  -22.5277   16.5029 C   0  0  0  0  0  0  0  0  0  0  0  0
  -21.9503  -21.5986   19.2949 C   0  0  0  0  0  0  0  0  0  0  0  0
  -29.3062  -25.1784   18.1125 C   0  0  0  0  0  0  0  0  0  0  0  0
  -22.0027  -24.1965   23.5473 C   0  0  1  0  0  0  0  0  0  0  0  0
  -21.3016  -21.0013   21.6318 C   0  0  2  0  0  0  0  0  0  0  0  0
  -28.2931  -23.9984   18.0863 C   0  0  2  0  0  0  0  0  0  0  0  0
  -28.7129  -26.5458   18.4872 C   0  0  1  0  0  0  0  0  0  1  0  0
  -21.7505  -24.2765   25.0794 C   0  0  0  0  0  0  0  0  0  0  0  0
  -28.9896  -22.6065   17.8684 C   0  0  0  0  0  0  0  0  0  0  0  0
  -24.8548  -12.5359   22.2505 N   0  0  0  0  0  0  0  0  0  0  0  0
  -25.7924  -13.4545   21.9623 N   0  0  0  0  0  0  0  0  0  0  0  0
  -22.4181  -26.1619   22.1020 N   0  0  0  0  0  0  0  0  0  0  0  0
  -25.2387  -17.0170   23.2213 N   0  0  0  0  0  0  0  0  0  0  0  0
  -27.5251  -13.9688   20.4312 N   0  0  0  0  0  0  0  0  0  0  0  0
  -25.9311  -10.0249   18.9144 N   0  0  0  0  0  0  0  0  0  0  0  0
  -26.1030  -18.3949   21.5134 N   0  0  0  0  0  0  0  0  0  0  0  0
  -27.9975  -21.5434   17.9216 N   0  0  0  0  0  0  0  0  0  0  0  0
  -21.5284  -29.5846   22.5746 N   0  0  0  0  0  0  0  0  0  0  0  0
  -21.4017  -23.0339   22.9027 N   0  0  0  0  0  0  0  0  0  0  0  0
  -21.8563  -20.5363   20.3291 N   0  3  0  0  0  0  0  0  0  0  0  0
  -27.4936  -11.6642   18.5539 O   0  0  0  0  0  0  0  0  0  0  0  0
  -23.3928  -28.3516   23.2275 O   0  0  0  0  0  0  0  0  0  0  0  0
  -20.2709  -25.6660   22.8635 O   0  0  0  0  0  0  0  0  0  0  0  0
  -23.3750  -22.1716   22.0425 O   0  0  0  0  0  0  0  0  0  0  0  0
  -25.8228  -19.2088   23.6676 O   0  0  0  0  0  0  0  0  0  0  0  0
  -21.7646   -7.0782   21.1489 O   0  0  0  0  0  0  0  0  0  0  0  0
  -28.1351  -26.4931   19.7877 O   0  0  0  0  0  0  0  0  0  1  0  0
  -20.8697   -4.4219   25.8973 F   0  0  0  0  0  0  0  0  0  0  0  0
  -22.5052   -4.4325   21.4554 F   0  0  0  0  0  0  0  0  0  0  0  0
  -27.0045  -19.3763   19.1947 S   0  0  0  0  0  0  0  0  0  0  0  0
  1  2  1  0  0  0  0
  1  5  2  0  0  0  0
  2  6  2  0  0  0  0
  3  8  2  0  0  0  0
  3 17  1  0  0  0  0
  4  9  1  0  0  0  0
  4 17  2  0  0  0  0
  5 19  1  0  0  0  0
  6 21  1  0  0  0  0
  7 10  2  0  0  0  0
  7 20  1  0  0  0  0
  8 23  1  0  0  0  0
  9 23  2  0  0  0  0
 10 24  1  0  0  0  0
 11 12  2  0  0  0  0
 11 25  1  0  0  0  0
 12 26  1  0  0  0  0
 13 14  1  0  0  0  0
 13 30  2  0  0  0  0
 14 31  2  0  0  0  0
 15 22  1  0  0  0  0
 15 24  2  0  0  0  0
 16 26  2  0  0  0  0
 16 27  1  0  0  0  0
 17 28  1  0  0  0  0
 18 28  1  0  0  0  0
 18 29  2  0  0  0  0
 18 32  1  0  0  0  0
 19 21  2  0  0  0  0
 19 37  1  0  0  0  0
 20 22  2  0  0  0  0
 20 38  1  0  0  0  0
 21 46  1  0  0  0  0
 22 39  1  0  0  0  0
 23 81  1  0  0  0  0
 24 82  1  0  0  0  0
 25 27  2  0  0  0  0
 25 81  1  0  0  0  0
 26 83  1  0  0  0  0
 27 84  1  0  0  0  0
 28 65  2  0  0  0  0
 29 66  1  0  0  0  0
 29 69  1  0  0  0  0
 30 71  1  0  0  0  0
 30 85  1  0  0  0  0
 31 72  1  0  0  0  0
 31 85  1  0  0  0  0
 32 70  1  0  0  0  0
 32 76  2  0  0  0  0
 33 47  1  0  0  0  0
 33 73  1  0  0  0  0
 33 77  2  0  0  0  0
 34 59  1  0  0  0  0
 34 67  1  0  0  0  0
 34 78  2  0  0  0  0
 35 60  1  0  0  0  0
 35 74  1  0  0  0  0
 35 79  2  0  0  0  0
 36 68  1  0  0  0  0
 36 71  1  0  0  0  0
 36 80  2  0  0  0  0
 37 40  1  0  0  0  0
 38 47  1  0  0  0  0
 39 67  1  0  0  0  0
 40 42  1  0  0  0  0
 41 43  1  0  0  0  0
 41 44  1  0  0  0  0
 42 46  1  0  0  0  0
 43 48  1  0  0  0  0
 44 68  1  0  0  0  0
 45 48  1  0  0  0  0
 45 68  1  0  0  0  0
 46 73  1  0  0  0  0
 47 67  1  0  0  0  0
 48 66  1  0  0  0  0
 49 60  1  0  0  0  0
 50 61  1  0  0  0  0
 51 62  1  0  0  0  0
 52 63  1  0  0  0  0
 53 63  1  0  0  0  0
 54 63  1  0  0  0  0
 55 64  1  0  0  0  0
 56 64  1  0  0  0  0
 57 75  1  0  0  0  0
 58 61  1  0  0  0  0
 58 62  1  0  0  0  0
 59 63  1  0  0  0  0
 59 74  1  0  0  0  0
 60 75  1  0  0  0  0
 61 64  1  0  0  0  0
 62 82  1  0  0  0  0
 64 72  1  0  0  0  0
 65 66  1  0  0  0  0
M  CHG  1  75   1
M  ISO  4  36 100  62 101  71 100  82 101
M  END
> <Batch ID>
0189

> <Smiles>
CNC(C)C(=O)NC(C(=O)N1Cc2cc([101O:1][101CH:1](C)CC(C)C(C)(C)Nc3ccc([100NH:0][100C:0](=O)N4CCCC(n5nc(-c6ccc(Oc7ccc(F)cc7F)cc6)c(C(N)=O)c5N)C4)s3)ccc2CC1C(=O)NC1CCCc2ccccc21)C(C)(C)C

> <Shape>
0.224

> <Color>
0.112

> <Negative vol penalty>
0.000

$$$$

  -OEChem-04052305183D

 85 93  0     1  0  0  0  0  0999 V2000
  -18.3573  -24.3595   24.4456 C   0  0  0  0  0  0  0  0  0  0  0  0
  -19.7392  -24.2254   24.3579 C   0  0  0  0  0  0  0  0  0  0  0  0
  -23.5001  -10.3059   22.2731 C   0  0  0  0  0  0  0  0  0  0  0  0
  -22.9779  -12.6599   22.4249 C   0  0  0  0  0  0  0  0  0  0  0  0
  -17.7343  -25.4961   23.9317 C   0  0  0  0  0  0  0  0  0  0  0  0
  -20.4989  -25.2274   23.7552 C   0  0  0  0  0  0  0  0  0  0  0  0
  -24.6545  -26.3776   26.4109 C   0  0  0  0  0  0  0  0  0  0  0  0
  -22.6802  -10.0531   23.3728 C   0  0  0  0  0  0  0  0  0  0  0  0
  -22.1579  -12.4071   23.5246 C   0  0  0  0  0  0  0  0  0  0  0  0
  -25.7372  -25.5052   26.3087 C   0  0  0  0  0  0  0  0  0  0  0  0
  -19.3711   -9.7389   23.9928 C   0  0  0  0  0  0  0  0  0  0  0  0
  -18.4965   -8.6553   23.9138 C   0  0  0  0  0  0  0  0  0  0  0  0
  -26.7830  -26.9978   24.7283 C   0  0  0  0  0  0  0  0  0  0  0  0
  -19.5627   -7.6544   25.8370 C   0  0  0  0  0  0  0  0  0  0  0  0
  -28.5657  -18.4130   20.3727 C   0  0  0  0  0  0  0  0  0  0  0  0
  -23.6490  -11.6094   21.7992 C   0  0  0  0  0  0  0  0  0  0  0  0
  -24.1218  -11.8759   19.3066 C   0  0  0  0  0  0  0  0  0  0  0  0
  -18.4878  -26.5169   23.3310 C   0  0  0  0  0  0  0  0  0  0  0  0
  -24.6229  -27.5634   25.6630 C   0  0  0  0  0  0  0  0  0  0  0  0
  -19.8854  -26.3780   23.2315 C   0  0  0  0  0  0  0  0  0  0  0  0
  -25.7000  -27.8848   24.8247 C   0  0  0  0  0  0  0  0  0  0  0  0
  -22.0091  -11.1037   23.9986 C   0  0  0  0  0  0  0  0  0  0  0  0
  -26.8004  -25.8138   25.4651 C   0  0  0  0  0  0  0  0  0  0  0  0
  -20.3416   -9.7804   24.9939 C   0  0  0  0  0  0  0  0  0  0  0  0
  -18.5922   -7.6130   24.8359 C   0  0  0  0  0  0  0  0  0  0  0  0
  -20.4374   -8.7381   25.9160 C   0  0  0  0  0  0  0  0  0  0  0  0
  -24.4963  -11.8713   20.6636 C   0  0  0  0  0  0  0  0  0  0  0  0
  -29.9983  -20.1689   20.0662 C   0  0  0  0  0  0  0  0  0  0  0  0
  -29.6123  -17.5315   20.2147 C   0  0  0  0  0  0  0  0  0  0  0  0
  -31.0452  -19.2875   19.9089 C   0  0  0  0  0  0  0  0  0  0  0  0
  -25.2796  -12.1771   18.6318 C   0  0  0  0  0  0  0  0  0  0  0  0
  -22.8417  -11.6300   18.7094 C   0  0  0  0  0  0  0  0  0  0  0  0
  -22.7198  -28.7420   23.4062 C   0  0  0  0  0  0  0  0  0  0  0  0
  -24.5656  -31.3837   23.7762 C   0  0  0  0  0  0  0  0  0  0  0  0
  -27.5509  -32.7187   24.7519 C   0  0  0  0  0  0  0  0  0  0  0  0
  -30.2601  -15.0973   20.1719 C   0  0  0  0  0  0  0  0  0  0  0  0
  -17.7651  -27.7052   22.7475 C   0  0  0  0  0  0  0  0  0  0  0  0
  -23.4600  -28.5069   25.8047 C   0  0  0  0  0  0  0  0  0  0  0  0
  -25.7238  -29.1551   24.0159 C   0  0  0  0  0  0  0  0  0  0  0  0
  -18.6797  -28.8930   22.4594 C   0  0  0  0  0  0  0  0  0  0  0  0
  -30.0366  -11.7494   18.9809 C   0  0  0  0  0  0  0  0  0  0  0  0
  -19.9432  -28.4318   21.7400 C   0  0  0  0  0  0  0  0  0  0  0  0
  -28.5553  -11.4032   19.1480 C   0  0  0  0  0  0  0  0  0  0  0  0
  -30.5456  -12.6294   20.1212 C   0  0  0  0  0  0  0  0  0  0  0  0
  -28.2777  -13.4988   20.5331 C   0  0  0  0  0  0  0  0  0  0  0  0
  -20.7463  -27.4546   22.6071 C   0  0  1  0  0  0  0  0  0  0  0  0
  -23.2962  -29.4374   24.6070 C   0  0  1  0  0  0  0  0  0  0  0  0
  -27.7032  -12.6675   19.3745 C   0  0  2  0  0  0  0  0  0  0  0  0
  -30.1035  -22.1489   18.5303 C   0  0  0  0  0  0  0  0  0  0  0  0
  -28.7776  -34.9029   24.9004 C   0  0  0  0  0  0  0  0  0  0  0  0
  -25.0528  -31.3119   20.7650 C   0  0  0  0  0  0  0  0  0  0  0  0
  -26.9801  -32.8723   21.1099 C   0  0  0  0  0  0  0  0  0  0  0  0
  -24.6686  -33.5972   21.7054 C   0  0  0  0  0  0  0  0  0  0  0  0
  -27.8047  -32.5092   27.6931 C   0  0  0  0  0  0  0  0  0  0  0  0
  -28.4583  -23.0397   23.2154 C   0  0  0  0  0  0  0  0  0  0  0  0
  -29.3875  -22.1660   22.3688 C   0  0  0  0  0  0  0  0  0  0  0  0
  -28.5743  -22.7690   24.7157 C   0  0  0  0  0  0  0  0  0  0  0  0
  -29.2160  -22.4645   20.8736 C   0  0  0  0  0  0  0  0  0  0  0  0
  -27.5965  -23.5748   25.5603 C   0  0  0  0  0  0  0  0  0  1  0  0
  -30.1989  -21.6725   19.9849 C   0  0  1  0  0  0  0  0  0  0  0  0
  -25.8441  -31.8903   23.1535 C   0  0  1  0  0  0  0  0  0  0  0  0
  -27.8818  -33.9130   25.6287 C   0  0  2  0  0  0  0  0  0  0  0  0
  -25.6354  -32.3930   21.6971 C   0  0  0  0  0  0  0  0  0  0  0  0
  -28.7399  -19.7476   20.3013 N   0  0  0  0  0  0  0  0  0  0  0  0
  -25.7909  -12.1474   20.8421 N   0  0  0  0  0  0  0  0  0  0  0  0
  -30.8709  -17.9529   19.9800 N   0  0  0  0  0  0  0  0  0  0  0  0
  -26.2399  -12.3283   19.5884 N   0  0  0  0  0  0  0  0  0  0  0  0
  -24.5609  -30.0422   24.1839 N   0  0  0  0  0  0  0  0  0  0  0  0
  -29.6923  -13.8097   20.2741 N   0  0  0  0  0  0  0  0  0  0  0  0
  -32.3424  -19.7915   19.6658 N   0  0  0  0  0  0  0  0  0  0  0  0
  -25.5597  -12.3246   17.3195 N   0  0  0  0  0  0  0  0  0  0  0  0
  -21.7586  -11.3349   19.5484 N   0  0  0  0  0  0  0  0  0  0  0  0
  -29.3461  -16.1425   20.3019 N   0  0  0  0  0  0  0  0  0  0  0  0
  -21.4811  -28.1709   23.6275 N   0  0  0  0  0  0  0  0  0  0  0  0
  -26.3694  -32.9011   24.0650 N   0  0  0  0  0  0  0  0  0  0  0  0
  -28.5819  -33.4685   26.8669 N   0  3  0  0  0  0  0  0  0  0  0  0
  -22.6673  -11.6547   17.4674 O   0  0  0  0  0  0  0  0  0  0  0  0
  -23.3515  -28.7260   22.3562 O   0  0  0  0  0  0  0  0  0  0  0  0
  -23.6088  -32.1519   23.9028 O   0  0  0  0  0  0  0  0  0  0  0  0
  -28.2707  -31.7250   24.6806 O   0  0  0  0  0  0  0  0  0  0  0  0
  -31.4637  -15.2606   19.9559 O   0  0  0  0  0  0  0  0  0  0  0  0
  -21.2087  -10.8573   25.0715 O   0  0  0  0  0  0  0  0  0  0  0  0
  -27.8581  -24.9637   25.3630 O   0  0  0  0  0  0  0  0  0  1  0  0
  -17.7513   -6.5732   24.7608 F   0  0  0  0  0  0  0  0  0  0  0  0
  -21.3669   -8.7729   26.8807 F   0  0  0  0  0  0  0  0  0  0  0  0
  1  2  1  0  0  0  0
  1  5  2  0  0  0  0
  2  6  2  0  0  0  0
  3  8  2  0  0  0  0
  3 16  1  0  0  0  0
  4  9  1  0  0  0  0
  4 16  2  0  0  0  0
  5 18  1  0  0  0  0
  6 20  1  0  0  0  0
  7 10  2  0  0  0  0
  7 19  1  0  0  0  0
  8 22  1  0  0  0  0
  9 22  2  0  0  0  0
 10 23  1  0  0  0  0
 11 12  2  0  0  0  0
 11 24  1  0  0  0  0
 12 25  1  0  0  0  0
 13 21  1  0  0  0  0
 13 23  2  0  0  0  0
 14 25  2  0  0  0  0
 14 26  1  0  0  0  0
 15 29  1  0  0  0  0
 15 64  2  0  0  0  0
 16 27  1  0  0  0  0
 17 27  1  0  0  0  0
 17 31  2  0  0  0  0
 17 32  1  0  0  0  0
 18 20  2  0  0  0  0
 18 37  1  0  0  0  0
 19 21  2  0  0  0  0
 19 38  1  0  0  0  0
 20 46  1  0  0  0  0
 21 39  1  0  0  0  0
 22 82  1  0  0  0  0
 23 83  1  0  0  0  0
 24 26  2  0  0  0  0
 24 82  1  0  0  0  0
 25 84  1  0  0  0  0
 26 85  1  0  0  0  0
 27 65  2  0  0  0  0
 28 30  2  0  0  0  0
 28 60  1  0  0  0  0
 28 64  1  0  0  0  0
 29 66  2  0  0  0  0
 29 73  1  0  0  0  0
 30 66  1  0  0  0  0
 30 70  1  0  0  0  0
 31 67  1  0  0  0  0
 31 71  1  0  0  0  0
 32 72  1  0  0  0  0
 32 77  2  0  0  0  0
 33 47  1  0  0  0  0
 33 74  1  0  0  0  0
 33 78  2  0  0  0  0
 34 61  1  0  0  0  0
 34 68  1  0  0  0  0
 34 79  2  0  0  0  0
 35 62  1  0  0  0  0
 35 75  1  0  0  0  0
 35 80  2  0  0  0  0
 36 69  1  0  0  0  0
 36 73  1  0  0  0  0
 36 81  2  0  0  0  0
 37 40  1  0  0  0  0
 38 47  1  0  0  0  0
 39 68  1  0  0  0  0
 40 42  1  0  0  0  0
 41 43  1  0  0  0  0
 41 44  1  0  0  0  0
 42 46  1  0  0  0  0
 43 48  1  0  0  0  0
 44 69  1  0  0  0  0
 45 48  1  0  0  0  0
 45 69  1  0  0  0  0
 46 74  1  0  0  0  0
 47 68  1  0  0  0  0
 48 67  1  0  0  0  0
 49 60  1  0  0  0  0
 50 62  1  0  0  0  0
 51 63  1  0  0  0  0
 52 63  1  0  0  0  0
 53 63  1  0  0  0  0
 54 76  1  0  0  0  0
 55 56  1  0  0  0  0
 55 57  1  0  0  0  0
 56 58  1  0  0  0  0
 57 59  1  0  0  0  0
 58 60  1  0  0  0  0
 59 83  1  0  0  0  0
 61 63  1  0  0  0  0
 61 75  1  0  0  0  0
 62 76  1  0  0  0  0
 65 67  1  0  0  0  0
M  CHG  1  76   1
M  ISO  4  36 100  59 101  73 100  83 101
M  END
> <Batch ID>
0189

> <Smiles>
CNC(C)C(=O)NC(C(=O)N1Cc2cc([101O:1][101CH2:1]CCCCC(C)c3ncc([100NH:0][100C:0](=O)N4CCCC(n5nc(-c6ccc(Oc7ccc(F)cc7F)cc6)c(C(N)=O)c5N)C4)nc3N)ccc2CC1C(=O)NC1CCCc2ccccc21)C(C)(C)C

> <Shape>
0.259

> <Color>
0.119

> <Negative vol penalty>
0.000

$$$$

  -OEChem-04052305183D

 86 94  0     1  0  0  0  0  0999 V2000
  -19.4902  -25.4272   24.2227 C   0  0  0  0  0  0  0  0  0  0  0  0
  -20.5157  -25.3695   23.2843 C   0  0  0  0  0  0  0  0  0  0  0  0
  -23.0413  -10.0467   22.1931 C   0  0  0  0  0  0  0  0  0  0  0  0
  -23.6366   -9.4598   19.9263 C   0  0  0  0  0  0  0  0  0  0  0  0
  -18.6976  -26.5702   24.3180 C   0  0  0  0  0  0  0  0  0  0  0  0
  -20.7484  -26.4546   22.4400 C   0  0  0  0  0  0  0  0  0  0  0  0
  -25.6686  -27.5847   22.0400 C   0  0  0  0  0  0  0  0  0  0  0  0
  -22.3271   -8.8547   22.3142 C   0  0  0  0  0  0  0  0  0  0  0  0
  -22.9224   -8.2678   20.0474 C   0  0  0  0  0  0  0  0  0  0  0  0
  -26.4412  -26.7786   21.2052 C   0  0  0  0  0  0  0  0  0  0  0  0
  -20.6472   -5.7992   23.3422 C   0  0  0  0  0  0  0  0  0  0  0  0
  -20.8174   -5.0570   24.5109 C   0  0  0  0  0  0  0  0  0  0  0  0
  -26.2960  -28.4474   19.4694 C   0  0  0  0  0  0  0  0  0  0  0  0
  -23.1762   -4.8453   24.0329 C   0  0  0  0  0  0  0  0  0  0  0  0
  -23.6960  -10.3493   20.9992 C   0  0  0  0  0  0  0  0  0  0  0  0
  -25.7921  -11.7927   21.1750 C   0  0  0  0  0  0  0  0  0  0  0  0
  -18.9269  -27.6736   23.4809 C   0  0  0  0  0  0  0  0  0  0  0  0
  -25.1939  -28.8256   21.5912 C   0  0  0  0  0  0  0  0  0  0  0  0
  -19.9573  -27.6129   22.5233 C   0  0  0  0  0  0  0  0  0  0  0  0
  -25.5197  -29.2686   20.3013 C   0  0  0  0  0  0  0  0  0  0  0  0
  -22.2677   -7.9652   21.2414 C   0  0  0  0  0  0  0  0  0  0  0  0
  -26.7526  -27.2086   19.9187 C   0  0  0  0  0  0  0  0  0  0  0  0
  -21.7415   -6.0643   22.5188 C   0  0  0  0  0  0  0  0  0  0  0  0
  -22.0819   -4.5801   24.8563 C   0  0  0  0  0  0  0  0  0  0  0  0
  -23.0060   -5.5874   22.8642 C   0  0  0  0  0  0  0  0  0  0  0  0
  -29.3068  -18.1578   18.6335 C   0  0  0  0  0  0  0  0  0  0  0  0
  -24.4334  -11.5808   20.8733 C   0  0  0  0  0  0  0  0  0  0  0  0
  -28.3808  -18.7499   17.7991 C   0  0  0  0  0  0  0  0  0  0  0  0
  -29.9035  -18.9958   19.5533 C   0  0  0  0  0  0  0  0  0  0  0  0
  -26.0050  -13.1186   20.8868 C   0  0  0  0  0  0  0  0  0  0  0  0
  -28.7051  -20.7700   18.7898 C   0  0  0  0  0  0  0  0  0  0  0  0
  -26.7738  -10.8732   21.6714 C   0  0  0  0  0  0  0  0  0  0  0  0
  -22.3154  -30.0918   21.1279 C   0  0  0  0  0  0  0  0  0  0  0  0
  -24.0247  -32.7819   20.5244 C   0  0  0  0  0  0  0  0  0  0  0  0
  -26.9860  -34.1776   19.5603 C   0  0  0  0  0  0  0  0  0  0  0  0
  -25.3545  -17.5369   17.5401 C   0  0  0  0  0  0  0  0  0  0  0  0
  -18.0136  -28.8690   23.5890 C   0  0  0  0  0  0  0  0  0  0  0  0
  -24.3840  -29.6951   22.5133 C   0  0  0  0  0  0  0  0  0  0  0  0
  -25.0516  -30.6013   19.7788 C   0  0  0  0  0  0  0  0  0  0  0  0
  -18.5657  -30.1205   22.9114 C   0  0  0  0  0  0  0  0  0  0  0  0
  -22.7290  -16.8272   19.8378 C   0  0  0  0  0  0  0  0  0  0  0  0
  -19.1012  -29.7839   21.5233 C   0  0  0  0  0  0  0  0  0  0  0  0
  -23.0470  -15.4148   20.3317 C   0  0  0  0  0  0  0  0  0  0  0  0
  -23.0798  -17.0012   18.3618 C   0  0  0  0  0  0  0  0  0  0  0  0
  -24.7824  -15.2249   18.5012 C   0  0  0  0  0  0  0  0  0  0  0  0
  -20.2566  -28.7791   21.6064 C   0  0  1  0  0  0  0  0  0  0  0  0
  -23.5226  -30.7128   21.7718 C   0  0  1  0  0  0  0  0  0  0  0  0
  -24.4977  -15.0177   19.9986 C   0  0  2  0  0  0  0  0  0  0  0  0
  -28.0668  -36.4000   19.1245 C   0  0  0  0  0  0  0  0  0  0  0  0
  -29.0967  -24.6008   17.4522 C   0  0  0  0  0  0  0  0  0  0  0  0
  -26.0224  -22.4042   18.4715 C   0  0  0  0  0  0  0  0  0  0  0  0
  -22.5318  -32.9849   17.8711 C   0  0  0  0  0  0  0  0  0  0  0  0
  -24.2753  -34.6049   17.0939 C   0  0  0  0  0  0  0  0  0  0  0  0
  -22.8457  -35.1623   19.0607 C   0  0  0  0  0  0  0  0  0  0  0  0
  -29.0117  -33.7371   21.6724 C   0  0  0  0  0  0  0  0  0  0  0  0
  -27.6813  -17.9268   16.7701 C   0  0  0  0  0  0  0  0  0  0  0  0
  -27.4060  -25.0117   19.2841 C   0  0  0  0  0  0  0  0  0  1  0  0
  -24.6447  -33.4013   19.2952 C   0  0  1  0  0  0  0  0  0  0  0  0
  -27.8059  -35.3098   20.1521 C   0  0  2  0  0  0  0  0  0  0  0  0
  -27.6766  -24.2937   17.9528 C   0  0  2  0  0  0  0  0  0  0  0  0
  -27.4310  -22.7674   18.0072 C   0  0  1  0  0  0  0  0  0  0  0  0
  -23.5817  -34.0123   18.3391 C   0  0  0  0  0  0  0  0  0  0  0  0
  -23.8261  -12.6837   20.4277 N   0  0  0  0  0  0  0  0  0  0  0  0
  -28.0545  -20.0581   17.8499 N   0  0  0  0  0  0  0  0  0  0  0  0
  -29.6255  -20.3117   19.6595 N   0  0  0  0  0  0  0  0  0  0  0  0
  -24.8076  -13.6015   20.4474 N   0  0  0  0  0  0  0  0  0  0  0  0
  -24.2573  -31.4126   20.7160 N   0  0  0  0  0  0  0  0  0  0  0  0
  -24.4692  -16.6091   18.1132 N   0  0  0  0  0  0  0  0  0  0  0  0
  -30.8604  -18.4297   20.4310 N   0  0  0  0  0  0  0  0  0  0  0  0
  -27.0979  -13.9068   20.9689 N   0  0  0  0  0  0  0  0  0  0  0  0
  -26.3862   -9.5482   21.9134 N   0  0  0  0  0  0  0  0  0  0  0  0
  -28.3959  -22.1153   18.8697 N   0  0  0  0  0  0  0  0  0  0  0  0
  -21.4760  -29.4436   22.0138 N   0  0  0  0  0  0  0  0  0  0  0  0
  -25.6361  -34.3577   19.7759 N   0  0  0  0  0  0  0  0  0  0  0  0
  -26.6542  -17.0863   17.3441 N   0  0  0  0  0  0  0  0  0  0  0  0
  -29.1185  -34.7991   20.6391 N   0  3  0  0  0  0  0  0  0  0  0  0
  -27.9555  -11.2204   21.9092 O   0  0  0  0  0  0  0  0  0  0  0  0
  -22.1564  -30.1945   19.9171 O   0  0  0  0  0  0  0  0  0  0  0  0
  -23.3644  -33.4885   21.2902 O   0  0  0  0  0  0  0  0  0  0  0  0
  -27.4921  -33.2302   18.9629 O   0  0  0  0  0  0  0  0  0  0  0  0
  -25.0133  -18.6837   17.2312 O   0  0  0  0  0  0  0  0  0  0  0  0
  -21.5711   -6.8019   21.3592 O   0  0  0  0  0  0  0  0  0  0  0  0
  -27.5061  -26.4234   19.1015 O   0  0  0  0  0  0  0  0  0  1  0  0
  -22.2454   -3.8688   25.9794 F   0  0  0  0  0  0  0  0  0  0  0  0
  -24.0613   -5.8399   22.0778 F   0  0  0  0  0  0  0  0  0  0  0  0
  -29.6032  -16.8556   18.5522 F   0  0  0  0  0  0  0  0  0  0  0  0
  1  2  1  0  0  0  0
  1  5  2  0  0  0  0
  2  6  2  0  0  0  0
  3  8  2  0  0  0  0
  3 15  1  0  0  0  0
  4  9  1  0  0  0  0
  4 15  2  0  0  0  0
  5 17  1  0  0  0  0
  6 19  1  0  0  0  0
  7 10  2  0  0  0  0
  7 18  1  0  0  0  0
  8 21  1  0  0  0  0
  9 21  2  0  0  0  0
 10 22  1  0  0  0  0
 11 12  2  0  0  0  0
 11 23  1  0  0  0  0
 12 24  1  0  0  0  0
 13 20  1  0  0  0  0
 13 22  2  0  0  0  0
 14 24  2  0  0  0  0
 14 25  1  0  0  0  0
 15 27  1  0  0  0  0
 16 27  1  0  0  0  0
 16 30  2  0  0  0  0
 16 32  1  0  0  0  0
 17 19  2  0  0  0  0
 17 37  1  0  0  0  0
 18 20  2  0  0  0  0
 18 38  1  0  0  0  0
 19 46  1  0  0  0  0
 20 39  1  0  0  0  0
 21 82  1  0  0  0  0
 22 83  1  0  0  0  0
 23 25  2  0  0  0  0
 23 82  1  0  0  0  0
 24 84  1  0  0  0  0
 25 85  1  0  0  0  0
 26 28  2  0  0  0  0
 26 29  1  0  0  0  0
 26 86  1  0  0  0  0
 27 63  2  0  0  0  0
 28 56  1  0  0  0  0
 28 64  1  0  0  0  0
 29 65  2  0  0  0  0
 29 69  1  0  0  0  0
 30 66  1  0  0  0  0
 30 70  1  0  0  0  0
 31 64  2  0  0  0  0
 31 65  1  0  0  0  0
 31 72  1  0  0  0  0
 32 71  1  0  0  0  0
 32 77  2  0  0  0  0
 33 47  1  0  0  0  0
 33 73  1  0  0  0  0
 33 78  2  0  0  0  0
 34 58  1  0  0  0  0
 34 67  1  0  0  0  0
 34 79  2  0  0  0  0
 35 59  1  0  0  0  0
 35 74  1  0  0  0  0
 35 80  2  0  0  0  0
 36 68  1  0  0  0  0
 36 75  1  0  0  0  0
 36 81  2  0  0  0  0
 37 40  1  0  0  0  0
 38 47  1  0  0  0  0
 39 67  1  0  0  0  0
 40 42  1  0  0  0  0
 41 43  1  0  0  0  0
 41 44  1  0  0  0  0
 42 46  1  0  0  0  0
 43 48  1  0  0  0  0
 44 68  1  0  0  0  0
 45 48  1  0  0  0  0
 45 68  1  0  0  0  0
 46 73  1  0  0  0  0
 47 67  1  0  0  0  0
 48 66  1  0  0  0  0
 49 59  1  0  0  0  0
 50 60  1  0  0  0  0
 51 61  1  0  0  0  0
 52 62  1  0  0  0  0
 53 62  1  0  0  0  0
 54 62  1  0  0  0  0
 55 76  1  0  0  0  0
 56 75  1  0  0  0  0
 57 60  1  0  0  0  0
 57 83  1  0  0  0  0
 58 62  1  0  0  0  0
 58 74  1  0  0  0  0
 59 76  1  0  0  0  0
 60 61  1  0  0  0  0
 61 72  1  0  0  0  0
 63 66  1  0  0  0  0
M  CHG  1  76   1
M  ISO  4  36 100  57 101  75 100  83 101
M  END
> <Batch ID>
0189

> <Smiles>
CNC(C)C(=O)NC(C(=O)N1Cc2cc([101O:1][101CH2:1]C(C)C(C)Nc3nc(N)c(F)c(C[100NH:0][100C:0](=O)N4CCCC(n5nc(-c6ccc(Oc7ccc(F)cc7F)cc6)c(C(N)=O)c5N)C4)n3)ccc2CC1C(=O)NC1CCCc2ccccc21)C(C)(C)C

> <Shape>
0.263

> <Color>
0.156

> <Negative vol penalty>
0.000

$$$$

  -OEChem-04052305183D

 85 93  0     1  0  0  0  0  0999 V2000
  -20.3279  -31.2886   22.0991 C   0  0  0  0  0  0  0  0  0  0  0  0
  -21.5802  -30.6829   22.0843 C   0  0  0  0  0  0  0  0  0  0  0  0
  -26.2516  -13.2941   21.1205 C   0  0  0  0  0  0  0  0  0  0  0  0
  -24.5978  -14.7560   20.1382 C   0  0  0  0  0  0  0  0  0  0  0  0
  -19.1813  -30.5125   22.2640 C   0  0  0  0  0  0  0  0  0  0  0  0
  -21.6868  -29.3007   22.2354 C   0  0  0  0  0  0  0  0  0  0  0  0
  -24.9224  -27.2295   18.9361 C   0  0  0  0  0  0  0  0  0  0  0  0
  -25.2423  -12.4131   21.5087 C   0  0  0  0  0  0  0  0  0  0  0  0
  -23.5885  -13.8750   20.5263 C   0  0  0  0  0  0  0  0  0  0  0  0
  -26.2829  -27.3574   19.2128 C   0  0  0  0  0  0  0  0  0  0  0  0
  -23.1335   -9.6026   22.4411 C   0  0  0  0  0  0  0  0  0  0  0  0
  -23.3399   -8.2412   22.2181 C   0  0  0  0  0  0  0  0  0  0  0  0
  -26.3105  -25.1088   20.0860 C   0  0  0  0  0  0  0  0  0  0  0  0
  -23.5389   -8.6597   19.8469 C   0  0  0  0  0  0  0  0  0  0  0  0
  -25.9294  -14.4656   20.4353 C   0  0  0  0  0  0  0  0  0  0  0  0
  -27.6860  -15.3700   18.8216 C   0  0  0  0  0  0  0  0  0  0  0  0
  -19.2733  -29.1191   22.4075 C   0  0  0  0  0  0  0  0  0  0  0  0
  -24.2422  -26.0422   19.2429 C   0  0  0  0  0  0  0  0  0  0  0  0
  -20.5405  -28.5055   22.4037 C   0  0  0  0  0  0  0  0  0  0  0  0
  -24.9420  -24.9675   19.8099 C   0  0  0  0  0  0  0  0  0  0  0  0
  -23.9107  -12.7035   21.2116 C   0  0  0  0  0  0  0  0  0  0  0  0
  -26.9765  -26.2980   19.7904 C   0  0  0  0  0  0  0  0  0  0  0  0
  -23.1298  -10.4926   21.3669 C   0  0  0  0  0  0  0  0  0  0  0  0
  -23.5426   -7.7698   20.9211 C   0  0  0  0  0  0  0  0  0  0  0  0
  -23.3325  -10.0211   20.0699 C   0  0  0  0  0  0  0  0  0  0  0  0
  -26.9715  -15.3764   20.0345 C   0  0  0  0  0  0  0  0  0  0  0  0
  -31.1118  -24.2252   16.9968 C   0  0  0  0  0  0  0  0  0  0  0  0
  -28.5555  -16.4277   18.9297 C   0  0  0  0  0  0  0  0  0  0  0  0
  -30.6757  -23.5673   15.8658 C   0  0  0  0  0  0  0  0  0  0  0  0
  -30.0984  -22.5391   17.9662 C   0  0  0  0  0  0  0  0  0  0  0  0
  -27.5737  -14.4869   17.6976 C   0  0  0  0  0  0  0  0  0  0  0  0
  -21.8245  -25.2726   21.1575 C   0  0  0  0  0  0  0  0  0  0  0  0
  -22.1330  -22.3727   19.7370 C   0  0  0  0  0  0  0  0  0  0  0  0
  -24.1264  -20.1608   18.0696 C   0  0  0  0  0  0  0  0  0  0  0  0
  -29.6517  -21.7111   20.3032 C   0  0  0  0  0  0  0  0  0  0  0  0
  -18.0091  -28.3274   22.6304 C   0  0  0  0  0  0  0  0  0  0  0  0
  -22.7805  -25.9106   18.9136 C   0  0  0  0  0  0  0  0  0  0  0  0
  -24.2625  -23.6644   20.1397 C   0  0  0  0  0  0  0  0  0  0  0  0
  -18.1830  -26.8271   22.4086 C   0  0  0  0  0  0  0  0  0  0  0  0
  -29.7717  -19.2976   22.9180 C   0  0  0  0  0  0  0  0  0  0  0  0
  -19.4433  -26.3267   23.1072 C   0  0  0  0  0  0  0  0  0  0  0  0
  -29.1127  -18.0617   22.3012 C   0  0  0  0  0  0  0  0  0  0  0  0
  -29.1029  -20.5894   22.4515 C   0  0  0  0  0  0  0  0  0  0  0  0
  -28.3328  -19.5043   20.3782 C   0  0  0  0  0  0  0  0  0  0  0  0
  -20.6954  -27.0063   22.5397 C   0  0  1  0  0  0  0  0  0  0  0  0
  -22.0758  -24.8398   19.7408 C   0  0  1  0  0  0  0  0  0  0  0  0
  -29.0136  -18.1820   20.7678 C   0  0  2  0  0  0  0  0  0  0  0  0
  -33.3294  -25.3065   17.5803 C   0  0  0  0  0  0  0  0  0  0  0  0
  -24.1099  -17.8576   17.0733 C   0  0  0  0  0  0  0  0  0  0  0  0
  -30.6171  -27.3778   21.5669 C   0  0  0  0  0  0  0  0  0  0  0  0
  -31.6990  -28.0986   17.2891 C   0  0  0  0  0  0  0  0  0  0  0  0
  -22.3382  -21.1651   22.5316 C   0  0  0  0  0  0  0  0  0  0  0  0
  -23.2535  -19.0814   21.4882 C   0  0  0  0  0  0  0  0  0  0  0  0
  -20.9471  -19.8468   20.9250 C   0  0  0  0  0  0  0  0  0  0  0  0
  -24.6951  -21.2034   15.3587 C   0  0  0  0  0  0  0  0  0  0  0  0
  -31.2134  -26.5735   19.2680 C   0  0  0  0  0  0  0  0  0  0  0  0
  -28.9236  -27.6622   19.7292 C   0  0  0  0  0  0  0  0  0  1  0  0
  -31.9090  -25.5213   17.0321 C   0  0  2  0  0  0  0  0  0  0  0  0
  -22.9324  -21.1236   20.0194 C   0  0  1  0  0  0  0  0  0  0  0  0
  -23.8904  -19.3401   16.8146 C   0  0  2  0  0  0  0  0  0  0  0  0
  -30.4198  -27.6331   20.0665 C   0  0  1  0  0  0  0  0  0  0  0  0
  -31.1850  -26.7219   17.7255 C   0  0  2  0  0  0  0  0  0  0  0  0
  -22.3805  -20.3294   21.2367 C   0  0  0  0  0  0  0  0  0  0  0  0
  -27.3540  -16.3600   20.8531 N   0  0  0  0  0  0  0  0  0  0  0  0
  -30.7813  -23.6373   18.2021 N   0  0  0  0  0  0  0  0  0  0  0  0
  -28.3184  -16.9815   20.1533 N   0  0  0  0  0  0  0  0  0  0  0  0
  -22.8310  -23.5869   19.8047 N   0  0  0  0  0  0  0  0  0  0  0  0
  -29.0483  -20.6357   20.9887 N   0  0  0  0  0  0  0  0  0  0  0  0
  -29.4922  -16.9286   18.0966 N   0  0  0  0  0  0  0  0  0  0  0  0
  -26.6288  -13.4532   17.7518 N   0  0  0  0  0  0  0  0  0  0  0  0
  -29.5645  -21.6308   18.9137 N   0  0  0  0  0  0  0  0  0  0  0  0
  -21.0581  -26.4171   21.2686 N   0  0  0  0  0  0  0  0  0  0  0  0
  -22.9584  -20.3653   18.7733 N   0  0  0  0  0  0  0  0  0  0  0  0
  -24.8193  -19.7707   15.7317 N   0  3  0  0  0  0  0  0  0  0  0  0
  -28.3014  -14.6009   16.6822 O   0  0  0  0  0  0  0  0  0  0  0  0
  -22.2901  -24.6160   22.0815 O   0  0  0  0  0  0  0  0  0  0  0  0
  -20.9351  -22.2743   19.4595 O   0  0  0  0  0  0  0  0  0  0  0  0
  -25.2366  -20.5756   18.3952 O   0  0  0  0  0  0  0  0  0  0  0  0
  -30.2288  -22.6214   20.9035 O   0  0  0  0  0  0  0  0  0  0  0  0
  -22.9256  -11.8439   21.5900 O   0  0  0  0  0  0  0  0  0  0  0  0
  -28.3043  -26.4204   20.0621 O   0  0  0  0  0  0  0  0  0  1  0  0
  -23.7422   -6.4627   20.7073 F   0  0  0  0  0  0  0  0  0  0  0  0
  -23.3312  -10.8714   19.0342 F   0  0  0  0  0  0  0  0  0  0  0  0
  -29.8176  -22.1529   16.3179 S   0  0  0  0  0  0  0  0  0  0  0  0
  -30.8864  -23.9747   14.2191 Cl  0  0  0  0  0  0  0  0  0  0  0  0
  1  2  1  0  0  0  0
  1  5  2  0  0  0  0
  2  6  2  0  0  0  0
  3  8  2  0  0  0  0
  3 15  1  0  0  0  0
  4  9  1  0  0  0  0
  4 15  2  0  0  0  0
  5 17  1  0  0  0  0
  6 19  1  0  0  0  0
  7 10  2  0  0  0  0
  7 18  1  0  0  0  0
  8 21  1  0  0  0  0
  9 21  2  0  0  0  0
 10 22  1  0  0  0  0
 11 12  2  0  0  0  0
 11 23  1  0  0  0  0
 12 24  1  0  0  0  0
 13 20  1  0  0  0  0
 13 22  2  0  0  0  0
 14 24  2  0  0  0  0
 14 25  1  0  0  0  0
 15 26  1  0  0  0  0
 16 26  1  0  0  0  0
 16 28  2  0  0  0  0
 16 31  1  0  0  0  0
 17 19  2  0  0  0  0
 17 36  1  0  0  0  0
 18 20  2  0  0  0  0
 18 37  1  0  0  0  0
 19 45  1  0  0  0  0
 20 38  1  0  0  0  0
 21 80  1  0  0  0  0
 22 81  1  0  0  0  0
 23 25  2  0  0  0  0
 23 80  1  0  0  0  0
 24 82  1  0  0  0  0
 25 83  1  0  0  0  0
 26 64  2  0  0  0  0
 27 29  2  0  0  0  0
 27 58  1  0  0  0  0
 27 65  1  0  0  0  0
 28 66  1  0  0  0  0
 28 69  1  0  0  0  0
 29 84  1  0  0  0  0
 29 85  1  0  0  0  0
 30 65  2  0  0  0  0
 30 71  1  0  0  0  0
 30 84  1  0  0  0  0
 31 70  1  0  0  0  0
 31 75  2  0  0  0  0
 32 46  1  0  0  0  0
 32 72  1  0  0  0  0
 32 76  2  0  0  0  0
 33 59  1  0  0  0  0
 33 67  1  0  0  0  0
 33 77  2  0  0  0  0
 34 60  1  0  0  0  0
 34 73  1  0  0  0  0
 34 78  2  0  0  0  0
 35 68  1  0  0  0  0
 35 71  1  0  0  0  0
 35 79  2  0  0  0  0
 36 39  1  0  0  0  0
 37 46  1  0  0  0  0
 38 67  1  0  0  0  0
 39 41  1  0  0  0  0
 40 42  1  0  0  0  0
 40 43  1  0  0  0  0
 41 45  1  0  0  0  0
 42 47  1  0  0  0  0
 43 68  1  0  0  0  0
 44 47  1  0  0  0  0
 44 68  1  0  0  0  0
 45 72  1  0  0  0  0
 46 67  1  0  0  0  0
 47 66  1  0  0  0  0
 48 58  1  0  0  0  0
 49 60  1  0  0  0  0
 50 61  1  0  0  0  0
 51 62  1  0  0  0  0
 52 63  1  0  0  0  0
 53 63  1  0  0  0  0
 54 63  1  0  0  0  0
 55 74  1  0  0  0  0
 56 61  1  0  0  0  0
 56 62  1  0  0  0  0
 57 61  1  0  0  0  0
 57 81  1  0  0  0  0
 58 62  1  0  0  0  0
 59 63  1  0  0  0  0
 59 73  1  0  0  0  0
 60 74  1  0  0  0  0
 64 66  1  0  0  0  0
M  CHG  1  74   1
M  ISO  4  35 100  57 101  71 100  81 101
M  END
> <Batch ID>
0189

> <Smiles>
CNC(C)C(=O)NC(C(=O)N1Cc2cc([101O:1][101CH2:1]C(C)CC(C)C(C)c3nc([100NH:0][100C:0](=O)N4CCCC(n5nc(-c6ccc(Oc7ccc(F)cc7F)cc6)c(C(N)=O)c5N)C4)sc3Cl)ccc2CC1C(=O)NC1CCCc2ccccc21)C(C)(C)C

> <Shape>
0.257

> <Color>
0.059

> <Negative vol penalty>
0.000

$$$$

  -OEChem-04052305183D

 87 95  0     1  0  0  0  0  0999 V2000
  -32.3194  -20.5826   26.2441 C   0  0  0  0  0  0  0  0  0  0  0  0
  -31.9927  -21.7315   25.5327 C   0  0  0  0  0  0  0  0  0  0  0  0
  -24.5675   -9.4839   21.1591 C   0  0  0  0  0  0  0  0  0  0  0  0
  -25.0454  -10.4029   23.3418 C   0  0  0  0  0  0  0  0  0  0  0  0
  -31.3082  -19.7898   26.7828 C   0  0  0  0  0  0  0  0  0  0  0  0
  -30.6553  -22.0945   25.3699 C   0  0  0  0  0  0  0  0  0  0  0  0
  -29.7622  -26.4573   23.2791 C   0  0  0  0  0  0  0  0  0  0  0  0
  -24.3495   -8.2319   21.7340 C   0  0  0  0  0  0  0  0  0  0  0  0
  -24.8273   -9.1509   23.9167 C   0  0  0  0  0  0  0  0  0  0  0  0
  -29.9720  -26.7000   21.9223 C   0  0  0  0  0  0  0  0  0  0  0  0
  -23.3144   -4.8751   22.6698 C   0  0  0  0  0  0  0  0  0  0  0  0
  -22.1961   -4.1547   22.2502 C   0  0  0  0  0  0  0  0  0  0  0  0
  -27.5956  -26.5532   21.5348 C   0  0  0  0  0  0  0  0  0  0  0  0
  -20.7595   -5.9431   23.0084 C   0  0  0  0  0  0  0  0  0  0  0  0
  -27.3784  -21.5155   21.3727 C   0  0  0  0  0  0  0  0  0  0  0  0
  -24.9155  -10.5694   21.9630 C   0  0  0  0  0  0  0  0  0  0  0  0
  -24.1888  -12.8763   21.1518 C   0  0  0  0  0  0  0  0  0  0  0  0
  -29.9576  -20.1373   26.6154 C   0  0  0  0  0  0  0  0  0  0  0  0
  -28.4663  -26.2496   23.7730 C   0  0  0  0  0  0  0  0  0  0  0  0
  -29.6212  -21.3203   25.9265 C   0  0  0  0  0  0  0  0  0  0  0  0
  -27.3718  -26.3106   22.8987 C   0  0  0  0  0  0  0  0  0  0  0  0
  -24.4794   -8.0654   23.1128 C   0  0  0  0  0  0  0  0  0  0  0  0
  -28.8889  -26.7451   21.0494 C   0  0  0  0  0  0  0  0  0  0  0  0
  -23.1552   -6.1295   23.2588 C   0  0  0  0  0  0  0  0  0  0  0  0
  -20.9187   -4.6887   22.4194 C   0  0  0  0  0  0  0  0  0  0  0  0
  -21.8778   -6.6635   23.4280 C   0  0  0  0  0  0  0  0  0  0  0  0
  -25.1414  -11.8629   21.3697 C   0  0  0  0  0  0  0  0  0  0  0  0
  -28.5956  -21.4714   20.7258 C   0  0  0  0  0  0  0  0  0  0  0  0
  -24.8998  -13.8960   20.5676 C   0  0  0  0  0  0  0  0  0  0  0  0
  -28.2429  -19.3148   20.9119 C   0  0  0  0  0  0  0  0  0  0  0  0
  -22.7867  -12.8943   21.4507 C   0  0  0  0  0  0  0  0  0  0  0  0
  -26.9757  -23.8429   25.2186 C   0  0  0  0  0  0  0  0  0  0  0  0
  -24.5729  -26.0054   25.4873 C   0  0  0  0  0  0  0  0  0  0  0  0
  -23.0853  -28.8442   24.3147 C   0  0  0  0  0  0  0  0  0  0  0  0
  -29.4002  -17.1635   20.2964 C   0  0  0  0  0  0  0  0  0  0  0  0
  -28.9038  -19.2475   27.2262 C   0  0  0  0  0  0  0  0  0  0  0  0
  -28.2544  -26.0156   25.2436 C   0  0  0  0  0  0  0  0  0  0  0  0
  -25.9589  -26.1144   23.3820 C   0  0  0  0  0  0  0  0  0  0  0  0
  -27.5187  -19.4687   26.6271 C   0  0  0  0  0  0  0  0  0  0  0  0
  -29.6058  -13.9848   18.7055 C   0  0  0  0  0  0  0  0  0  0  0  0
  -27.1915  -20.9543   26.6089 C   0  0  0  0  0  0  0  0  0  0  0  0
  -28.3843  -13.2328   19.2389 C   0  0  0  0  0  0  0  0  0  0  0  0
  -30.2311  -14.8807   19.7734 C   0  0  0  0  0  0  0  0  0  0  0  0
  -28.0792  -15.0585   20.9595 C   0  0  0  0  0  0  0  0  0  0  0  0
  -28.1723  -21.7185   25.7105 C   0  0  1  0  0  0  0  0  0  0  0  0
  -26.9389  -25.3075   25.5524 C   0  0  1  0  0  0  0  0  0  0  0  0
  -27.3765  -14.1926   19.9012 C   0  0  2  0  0  0  0  0  0  0  0  0
  -29.8168  -23.5563   21.4700 C   0  0  0  0  0  0  0  0  0  0  0  0
  -21.1143  -30.3450   24.7151 C   0  0  0  0  0  0  0  0  0  0  0  0
  -27.4582  -27.5167   18.0488 C   0  0  0  0  0  0  0  0  0  0  0  0
  -22.7422  -23.9474   24.1745 C   0  0  0  0  0  0  0  0  0  0  0  0
  -21.1004  -25.7872   23.7411 C   0  0  0  0  0  0  0  0  0  0  0  0
  -21.7130  -25.1911   26.0846 C   0  0  0  0  0  0  0  0  0  0  0  0
  -24.8247  -31.1700   24.8838 C   0  0  0  0  0  0  0  0  0  0  0  0
  -28.9103  -25.4641   17.8540 C   0  0  0  0  0  0  0  0  0  0  0  0
  -29.4107  -22.6711   20.2935 C   0  0  2  0  0  0  0  0  0  0  0  0
  -23.3924  -26.4034   24.6346 C   0  0  1  0  0  0  0  0  0  0  0  0
  -22.5796  -30.0849   25.0283 C   0  0  2  0  0  0  0  0  0  0  0  0
  -29.6440  -24.2969   18.5433 C   0  0  2  0  0  0  0  0  0  0  0  0
  -28.1603  -26.4001   18.8120 C   0  0  1  0  0  0  0  0  0  1  0  0
  -22.2637  -25.3341   24.6490 C   0  0  0  0  0  0  0  0  0  0  0  0
  -30.3758  -23.4405   17.5184 C   0  0  0  0  0  0  0  0  0  0  0  0
  -26.3643  -12.2074   20.9574 N   0  0  0  0  0  0  0  0  0  0  0  0
  -29.0931  -20.2104   20.4611 N   0  0  0  0  0  0  0  0  0  0  0  0
  -26.1849  -13.4487   20.4745 N   0  0  0  0  0  0  0  0  0  0  0  0
  -25.8038  -25.8822   24.8275 N   0  0  0  0  0  0  0  0  0  0  0  0
  -29.2182  -15.7655   20.3533 N   0  0  0  0  0  0  0  0  0  0  0  0
  -24.5449  -15.1226   20.1297 N   0  0  0  0  0  0  0  0  0  0  0  0
  -22.2169  -11.7632   22.0509 N   0  0  0  0  0  0  0  0  0  0  0  0
  -28.3565  -17.9038   20.8509 N   0  0  0  0  0  0  0  0  0  0  0  0
  -27.9618  -23.1390   25.8831 N   0  0  0  0  0  0  0  0  0  0  0  0
  -22.9745  -27.7197   25.1048 N   0  0  0  0  0  0  0  0  0  0  0  0
  -28.7096  -23.4500   19.2851 N   0  0  0  0  0  0  0  0  0  0  0  0
  -23.3682  -31.2792   24.6126 N   0  3  0  0  0  0  0  0  0  0  0  0
  -22.0573  -13.8778   21.1782 O   0  0  0  0  0  0  0  0  0  0  0  0
  -26.1683  -23.3852   24.4184 O   0  0  0  0  0  0  0  0  0  0  0  0
  -24.4102  -25.8179   26.6957 O   0  0  0  0  0  0  0  0  0  0  0  0
  -23.5304  -28.8694   23.1693 O   0  0  0  0  0  0  0  0  0  0  0  0
  -30.3948  -17.6676   19.7687 O   0  0  0  0  0  0  0  0  0  0  0  0
  -24.2664   -6.8438   23.6741 O   0  0  0  0  0  0  0  0  0  0  0  0
  -29.0909  -26.9811   19.7245 O   0  0  0  0  0  0  0  0  0  1  0  0
  -19.8450   -3.9974   22.0150 F   0  0  0  0  0  0  0  0  0  0  0  0
  -21.7186   -7.8686   23.9921 F   0  0  0  0  0  0  0  0  0  0  0  0
  -31.0221  -22.4161   18.1197 F   0  0  0  0  0  0  0  0  0  0  0  0
  -31.2917  -24.1533   16.8278 F   0  0  0  0  0  0  0  0  0  0  0  0
  -29.5136  -22.9009   16.6276 F   0  0  0  0  0  0  0  0  0  0  0  0
  -26.8240  -19.9190   21.6648 S   0  0  0  0  0  0  0  0  0  0  0  0
  1  2  1  0  0  0  0
  1  5  2  0  0  0  0
  2  6  2  0  0  0  0
  3  8  2  0  0  0  0
  3 16  1  0  0  0  0
  4  9  1  0  0  0  0
  4 16  2  0  0  0  0
  5 18  1  0  0  0  0
  6 20  1  0  0  0  0
  7 10  2  0  0  0  0
  7 19  1  0  0  0  0
  8 22  1  0  0  0  0
  9 22  2  0  0  0  0
 10 23  1  0  0  0  0
 11 12  2  0  0  0  0
 11 24  1  0  0  0  0
 12 25  1  0  0  0  0
 13 21  1  0  0  0  0
 13 23  2  0  0  0  0
 14 25  2  0  0  0  0
 14 26  1  0  0  0  0
 15 28  2  0  0  0  0
 15 87  1  0  0  0  0
 16 27  1  0  0  0  0
 17 27  1  0  0  0  0
 17 29  2  0  0  0  0
 17 31  1  0  0  0  0
 18 20  2  0  0  0  0
 18 36  1  0  0  0  0
 19 21  2  0  0  0  0
 19 37  1  0  0  0  0
 20 45  1  0  0  0  0
 21 38  1  0  0  0  0
 22 80  1  0  0  0  0
 23 81  1  0  0  0  0
 24 26  2  0  0  0  0
 24 80  1  0  0  0  0
 25 82  1  0  0  0  0
 26 83  1  0  0  0  0
 27 63  2  0  0  0  0
 28 56  1  0  0  0  0
 28 64  1  0  0  0  0
 29 65  1  0  0  0  0
 29 68  1  0  0  0  0
 30 64  2  0  0  0  0
 30 70  1  0  0  0  0
 30 87  1  0  0  0  0
 31 69  1  0  0  0  0
 31 75  2  0  0  0  0
 32 46  1  0  0  0  0
 32 71  1  0  0  0  0
 32 76  2  0  0  0  0
 33 57  1  0  0  0  0
 33 66  1  0  0  0  0
 33 77  2  0  0  0  0
 34 58  1  0  0  0  0
 34 72  1  0  0  0  0
 34 78  2  0  0  0  0
 35 67  1  0  0  0  0
 35 70  1  0  0  0  0
 35 79  2  0  0  0  0
 36 39  1  0  0  0  0
 37 46  1  0  0  0  0
 38 66  1  0  0  0  0
 39 41  1  0  0  0  0
 40 42  1  0  0  0  0
 40 43  1  0  0  0  0
 41 45  1  0  0  0  0
 42 47  1  0  0  0  0
 43 67  1  0  0  0  0
 44 47  1  0  0  0  0
 44 67  1  0  0  0  0
 45 71  1  0  0  0  0
 46 66  1  0  0  0  0
 47 65  1  0  0  0  0
 48 56  1  0  0  0  0
 49 58  1  0  0  0  0
 50 60  1  0  0  0  0
 51 61  1  0  0  0  0
 52 61  1  0  0  0  0
 53 61  1  0  0  0  0
 54 74  1  0  0  0  0
 55 59  1  0  0  0  0
 55 60  1  0  0  0  0
 56 73  1  0  0  0  0
 57 61  1  0  0  0  0
 57 72  1  0  0  0  0
 58 74  1  0  0  0  0
 59 62  1  0  0  0  0
 59 73  1  0  0  0  0
 60 81  1  0  0  0  0
 62 84  1  0  0  0  0
 62 85  1  0  0  0  0
 62 86  1  0  0  0  0
 63 65  1  0  0  0  0
M  CHG  1  74   1
M  ISO  4  35 100  60 101  70 100  81 101
M  END
> <Batch ID>
0189

> <Smiles>
CNC(C)C(=O)NC(C(=O)N1Cc2cc([101O:1][101CH:1](C)CC(NC(C)c3csc([100NH:0][100C:0](=O)N4CCCC(n5nc(-c6ccc(Oc7ccc(F)cc7F)cc6)c(C(N)=O)c5N)C4)n3)C(F)(F)F)ccc2CC1C(=O)NC1CCCc2ccccc21)C(C)(C)C

> <Shape>
0.246

> <Color>
0.134

> <Negative vol penalty>
0.000

$$$$

  -OEChem-04052305183D

 85 93  0     1  0  0  0  0  0999 V2000
  -22.6745   -8.8271   24.3557 C   0  0  0  0  0  0  0  0  0  0  0  0
  -23.5377   -9.3652   23.4066 C   0  0  0  0  0  0  0  0  0  0  0  0
  -23.3708  -30.0091   20.6317 C   0  0  0  0  0  0  0  0  0  0  0  0
  -23.4288  -28.0354   22.0238 C   0  0  0  0  0  0  0  0  0  0  0  0
  -21.3739   -9.3162   24.4702 C   0  0  0  0  0  0  0  0  0  0  0  0
  -23.1004  -10.3920   22.5706 C   0  0  0  0  0  0  0  0  0  0  0  0
  -26.4988  -14.1208   22.1326 C   0  0  0  0  0  0  0  0  0  0  0  0
  -22.1639  -30.3881   21.2193 C   0  0  0  0  0  0  0  0  0  0  0  0
  -22.2219  -28.4144   22.6115 C   0  0  0  0  0  0  0  0  0  0  0  0
  -27.5811  -13.8992   21.2822 C   0  0  0  0  0  0  0  0  0  0  0  0
  -18.9331  -28.3163   21.8335 C   0  0  0  0  0  0  0  0  0  0  0  0
  -17.9554  -27.3350   21.9965 C   0  0  0  0  0  0  0  0  0  0  0  0
  -26.4887  -15.1934   19.5644 C   0  0  0  0  0  0  0  0  0  0  0  0
  -17.9946  -27.6928   24.3856 C   0  0  0  0  0  0  0  0  0  0  0  0
  -24.0033  -28.8327   21.0339 C   0  0  0  0  0  0  0  0  0  0  0  0
  -26.5474  -28.7798   20.8544 C   0  0  0  0  0  0  0  0  0  0  0  0
  -20.9235  -10.3562   23.6418 C   0  0  0  0  0  0  0  0  0  0  0  0
  -25.3966  -14.8725   21.7008 C   0  0  0  0  0  0  0  0  0  0  0  0
  -21.7921  -10.8946   22.6733 C   0  0  0  0  0  0  0  0  0  0  0  0
  -25.3947  -15.4253   20.4121 C   0  0  0  0  0  0  0  0  0  0  0  0
  -21.5894  -29.5908   22.2092 C   0  0  0  0  0  0  0  0  0  0  0  0
  -27.5749  -14.4331   19.9968 C   0  0  0  0  0  0  0  0  0  0  0  0
  -19.4417  -28.9858   22.9465 C   0  0  0  0  0  0  0  0  0  0  0  0
  -17.4861  -27.0232   23.2725 C   0  0  0  0  0  0  0  0  0  0  0  0
  -18.9725  -28.6741   24.2225 C   0  0  0  0  0  0  0  0  0  0  0  0
  -25.2498  -28.4404   20.4269 C   0  0  0  0  0  0  0  0  0  0  0  0
  -30.5156  -21.3171   19.8186 C   0  0  0  0  0  0  0  0  0  0  0  0
  -30.8797  -21.7084   18.5472 C   0  0  0  0  0  0  0  0  0  0  0  0
  -27.3786  -28.1653   19.9499 C   0  0  0  0  0  0  0  0  0  0  0  0
  -30.9365  -19.3380   18.9723 C   0  0  0  0  0  0  0  0  0  0  0  0
  -26.9642  -29.5790   21.9694 C   0  0  0  0  0  0  0  0  0  0  0  0
  -22.3027  -14.2780   21.2788 C   0  0  0  0  0  0  0  0  0  0  0  0
  -22.1703  -17.4642   20.6847 C   0  0  0  0  0  0  0  0  0  0  0  0
  -30.8984  -16.9307   19.7120 C   0  0  0  0  0  0  0  0  0  0  0  0
  -23.7988  -20.2987   19.7047 C   0  0  0  0  0  0  0  0  0  0  0  0
  -28.8099  -23.7193   16.8955 C   0  0  0  0  0  0  0  0  0  0  0  0
  -19.4941  -10.8197   23.7707 C   0  0  0  0  0  0  0  0  0  0  0  0
  -24.2487  -15.1249   22.6395 C   0  0  0  0  0  0  0  0  0  0  0  0
  -24.2446  -16.2565   19.9074 C   0  0  0  0  0  0  0  0  0  0  0  0
  -19.2271  -12.1647   23.1000 C   0  0  0  0  0  0  0  0  0  0  0  0
  -26.3528  -25.9105   15.5397 C   0  0  0  0  0  0  0  0  0  0  0  0
  -19.8397  -12.1958   21.7033 C   0  0  0  0  0  0  0  0  0  0  0  0
  -25.9497  -26.7872   16.7266 C   0  0  0  0  0  0  0  0  0  0  0  0
  -26.6391  -24.4737   15.9709 C   0  0  0  0  0  0  0  0  0  0  0  0
  -27.2199  -25.2155   18.2482 C   0  0  0  0  0  0  0  0  0  0  0  0
  -21.3625  -12.0262   21.7650 C   0  0  1  0  0  0  0  0  0  0  0  0
  -22.9513  -15.4738   21.9167 C   0  0  1  0  0  0  0  0  0  0  0  0
  -26.9754  -26.6868   17.8717 C   0  0  2  0  0  0  0  0  0  0  0  0
  -30.1021  -22.2117   20.9189 C   0  0  0  0  0  0  0  0  0  0  0  0
  -23.4179  -22.7425   19.2800 C   0  0  0  0  0  0  0  0  0  0  0  0
  -30.8232  -13.8631   17.2835 C   0  0  0  0  0  0  0  0  0  0  0  0
  -20.7903  -16.7885   18.0486 C   0  0  0  0  0  0  0  0  0  0  0  0
  -21.2923  -19.1144   17.2700 C   0  0  0  0  0  0  0  0  0  0  0  0
  -19.8268  -18.7551   19.2564 C   0  0  0  0  0  0  0  0  0  0  0  0
  -25.7446  -21.0835   21.7921 C   0  0  0  0  0  0  0  0  0  0  0  0
  -30.9557  -23.0575   17.9522 C   0  0  0  0  0  0  0  0  0  0  0  0
  -31.2341  -15.5718   19.1060 C   0  0  0  0  0  0  0  0  0  0  0  0
  -28.9136  -15.2308   18.2003 C   0  0  0  0  0  0  0  0  0  1  0  0
  -22.3110  -18.3293   19.4556 C   0  0  1  0  0  0  0  0  0  0  0  0
  -23.8375  -21.6949   20.2995 C   0  0  2  0  0  0  0  0  0  0  0  0
  -30.4091  -15.2245   17.8568 C   0  0  2  0  0  0  0  0  0  0  0  0
  -21.0761  -18.2296   18.5162 C   0  0  0  0  0  0  0  0  0  0  0  0
  -25.2513  -27.6702   19.3357 N   0  0  0  0  0  0  0  0  0  0  0  0
  -30.5472  -19.9582   20.0641 N   0  0  0  0  0  0  0  0  0  0  0  0
  -26.5601  -27.5206   19.0698 N   0  0  0  0  0  0  0  0  0  0  0  0
  -23.1430  -16.4698   20.8605 N   0  0  0  0  0  0  0  0  0  0  0  0
  -27.6204  -24.4484   17.0582 N   0  0  0  0  0  0  0  0  0  0  0  0
  -28.7224  -28.1190   19.8295 N   0  0  0  0  0  0  0  0  0  0  0  0
  -25.9800  -30.1353   22.7977 N   0  0  0  0  0  0  0  0  0  0  0  0
  -31.1067  -17.9459   18.7824 N   0  0  0  0  0  0  0  0  0  0  0  0
  -21.9932  -13.2654   22.1666 N   0  0  0  0  0  0  0  0  0  0  0  0
  -22.5892  -19.6786   19.9357 N   0  0  0  0  0  0  0  0  0  0  0  0
  -29.6882  -23.7531   17.9717 N   0  0  0  0  0  0  0  0  0  0  0  0
  -25.2142  -22.0202   20.7683 N   0  3  0  0  0  0  0  0  0  0  0  0
  -28.1732  -29.8071   22.2140 O   0  0  0  0  0  0  0  0  0  0  0  0
  -22.0967  -14.2750   20.0708 O   0  0  0  0  0  0  0  0  0  0  0  0
  -21.2361  -17.6681   21.4640 O   0  0  0  0  0  0  0  0  0  0  0  0
  -30.5268  -17.0530   20.8744 O   0  0  0  0  0  0  0  0  0  0  0  0
  -24.7456  -19.8088   19.0931 O   0  0  0  0  0  0  0  0  0  0  0  0
  -29.0723  -23.0894   15.8652 O   0  0  0  0  0  0  0  0  0  0  0  0
  -20.4118  -29.9604   22.7829 O   0  0  0  0  0  0  0  0  0  0  0  0
  -28.6298  -14.2178   19.1645 O   0  0  0  0  0  0  0  0  0  1  0  0
  -16.5461  -26.0819   23.4288 F   0  0  0  0  0  0  0  0  0  0  0  0
  -19.4564  -29.3147   25.2955 F   0  0  0  0  0  0  0  0  0  0  0  0
  -31.2817  -20.3273   17.6132 S   0  0  0  0  0  0  0  0  0  0  0  0
  1  2  1  0  0  0  0
  1  5  2  0  0  0  0
  2  6  2  0  0  0  0
  3  8  2  0  0  0  0
  3 15  1  0  0  0  0
  4  9  1  0  0  0  0
  4 15  2  0  0  0  0
  5 17  1  0  0  0  0
  6 19  1  0  0  0  0
  7 10  2  0  0  0  0
  7 18  1  0  0  0  0
  8 21  1  0  0  0  0
  9 21  2  0  0  0  0
 10 22  1  0  0  0  0
 11 12  2  0  0  0  0
 11 23  1  0  0  0  0
 12 24  1  0  0  0  0
 13 20  1  0  0  0  0
 13 22  2  0  0  0  0
 14 24  2  0  0  0  0
 14 25  1  0  0  0  0
 15 26  1  0  0  0  0
 16 26  1  0  0  0  0
 16 29  2  0  0  0  0
 16 31  1  0  0  0  0
 17 19  2  0  0  0  0
 17 37  1  0  0  0  0
 18 20  2  0  0  0  0
 18 38  1  0  0  0  0
 19 46  1  0  0  0  0
 20 39  1  0  0  0  0
 21 81  1  0  0  0  0
 22 82  1  0  0  0  0
 23 25  2  0  0  0  0
 23 81  1  0  0  0  0
 24 83  1  0  0  0  0
 25 84  1  0  0  0  0
 26 63  2  0  0  0  0
 27 28  2  0  0  0  0
 27 49  1  0  0  0  0
 27 64  1  0  0  0  0
 28 56  1  0  0  0  0
 28 85  1  0  0  0  0
 29 65  1  0  0  0  0
 29 68  1  0  0  0  0
 30 64  2  0  0  0  0
 30 70  1  0  0  0  0
 30 85  1  0  0  0  0
 31 69  1  0  0  0  0
 31 75  2  0  0  0  0
 32 47  1  0  0  0  0
 32 71  1  0  0  0  0
 32 76  2  0  0  0  0
 33 59  1  0  0  0  0
 33 66  1  0  0  0  0
 33 77  2  0  0  0  0
 34 57  1  0  0  0  0
 34 70  1  0  0  0  0
 34 78  2  0  0  0  0
 35 60  1  0  0  0  0
 35 72  1  0  0  0  0
 35 79  2  0  0  0  0
 36 67  1  0  0  0  0
 36 73  1  0  0  0  0
 36 80  2  0  0  0  0
 37 40  1  0  0  0  0
 38 47  1  0  0  0  0
 39 66  1  0  0  0  0
 40 42  1  0  0  0  0
 41 43  1  0  0  0  0
 41 44  1  0  0  0  0
 42 46  1  0  0  0  0
 43 48  1  0  0  0  0
 44 67  1  0  0  0  0
 45 48  1  0  0  0  0
 45 67  1  0  0  0  0
 46 71  1  0  0  0  0
 47 66  1  0  0  0  0
 48 65  1  0  0  0  0
 50 60  1  0  0  0  0
 51 61  1  0  0  0  0
 52 62  1  0  0  0  0
 53 62  1  0  0  0  0
 54 62  1  0  0  0  0
 55 74  1  0  0  0  0
 56 73  1  0  0  0  0
 57 61  1  0  0  0  0
 58 61  1  0  0  0  0
 58 82  1  0  0  0  0
 59 62  1  0  0  0  0
 59 72  1  0  0  0  0
 60 74  1  0  0  0  0
 63 65  1  0  0  0  0
M  CHG  1  74   1
M  ISO  4  36 100  58 101  73 100  82 101
M  END
> <Batch ID>
0189

> <Smiles>
CNC(C)C(=O)NC(C(=O)N1Cc2cc([101O:1][101CH2:1]C(C)CC(=O)Nc3nc(C)c(C[100NH:0][100C:0](=O)N4CCCC(n5nc(-c6ccc(Oc7ccc(F)cc7F)cc6)c(C(N)=O)c5N)C4)s3)ccc2CC1C(=O)NC1CCCc2ccccc21)C(C)(C)C

> <Shape>
0.223

> <Color>
0.060

> <Negative vol penalty>
0.000

$$$$

  -OEChem-04052305183D

 85 93  0     1  0  0  0  0  0999 V2000
  -20.6195  -33.8291   22.8653 C   0  0  0  0  0  0  0  0  0  0  0  0
  -21.8880  -33.2605   22.9210 C   0  0  0  0  0  0  0  0  0  0  0  0
  -24.5304  -10.5128   23.0569 C   0  0  0  0  0  0  0  0  0  0  0  0
  -24.3380  -12.2015   24.7740 C   0  0  0  0  0  0  0  0  0  0  0  0
  -19.4906  -33.0313   23.0467 C   0  0  0  0  0  0  0  0  0  0  0  0
  -22.0283  -31.8938   23.1593 C   0  0  0  0  0  0  0  0  0  0  0  0
  -26.3110  -28.1747   20.8502 C   0  0  0  0  0  0  0  0  0  0  0  0
  -24.0974   -9.5435   23.9617 C   0  0  0  0  0  0  0  0  0  0  0  0
  -23.9050  -11.2323   25.6788 C   0  0  0  0  0  0  0  0  0  0  0  0
  -27.5094  -27.6874   21.3700 C   0  0  0  0  0  0  0  0  0  0  0  0
  -25.2906   -8.8098   27.5874 C   0  0  0  0  0  0  0  0  0  0  0  0
  -25.8485   -8.8213   28.8657 C   0  0  0  0  0  0  0  0  0  0  0  0
  -26.3836  -25.6671   22.0555 C   0  0  0  0  0  0  0  0  0  0  0  0
  -23.6541   -9.1533   29.8204 C   0  0  0  0  0  0  0  0  0  0  0  0
  -27.2933  -20.5709   20.2200 C   0  0  0  0  0  0  0  0  0  0  0  0
  -24.6507  -11.8418   23.4631 C   0  0  0  0  0  0  0  0  0  0  0  0
  -24.2998  -13.6242   21.6720 C   0  0  0  0  0  0  0  0  0  0  0  0
  -19.6168  -31.6524   23.2778 C   0  0  0  0  0  0  0  0  0  0  0  0
  -25.1356  -27.4151   20.9390 C   0  0  0  0  0  0  0  0  0  0  0  0
  -20.9000  -31.0770   23.3453 C   0  0  0  0  0  0  0  0  0  0  0  0
  -25.1721  -26.1459   21.5338 C   0  0  0  0  0  0  0  0  0  0  0  0
  -23.7847   -9.9032   25.2726 C   0  0  0  0  0  0  0  0  0  0  0  0
  -27.5452  -26.4347   21.9753 C   0  0  0  0  0  0  0  0  0  0  0  0
  -23.9144   -8.9701   27.4255 C   0  0  0  0  0  0  0  0  0  0  0  0
  -25.0302   -8.9930   29.9822 C   0  0  0  0  0  0  0  0  0  0  0  0
  -23.0962   -9.1418   28.5420 C   0  0  0  0  0  0  0  0  0  0  0  0
  -25.0985  -12.8435   22.5291 C   0  0  0  0  0  0  0  0  0  0  0  0
  -28.4638  -19.8448   20.2894 C   0  0  0  0  0  0  0  0  0  0  0  0
  -25.1950  -14.4158   20.9950 C   0  0  0  0  0  0  0  0  0  0  0  0
  -29.2699  -21.6871   19.4139 C   0  0  0  0  0  0  0  0  0  0  0  0
  -22.8761  -13.6331   21.5032 C   0  0  0  0  0  0  0  0  0  0  0  0
  -22.3075  -27.8136   22.3343 C   0  0  0  0  0  0  0  0  0  0  0  0
  -21.5836  -25.0674   20.7669 C   0  0  0  0  0  0  0  0  0  0  0  0
  -22.6884  -22.1878   19.3061 C   0  0  0  0  0  0  0  0  0  0  0  0
  -29.6742  -17.7220   20.9016 C   0  0  0  0  0  0  0  0  0  0  0  0
  -18.3691  -30.8390   23.5149 C   0  0  0  0  0  0  0  0  0  0  0  0
  -23.8567  -27.9436   20.3496 C   0  0  0  0  0  0  0  0  0  0  0  0
  -23.9423  -25.2825   21.6363 C   0  0  0  0  0  0  0  0  0  0  0  0
  -18.5905  -29.3337   23.3902 C   0  0  0  0  0  0  0  0  0  0  0  0
  -30.2469  -14.2110   20.7530 C   0  0  0  0  0  0  0  0  0  0  0  0
  -19.8438  -28.9136   24.1515 C   0  0  0  0  0  0  0  0  0  0  0  0
  -28.8928  -13.6065   21.1313 C   0  0  0  0  0  0  0  0  0  0  0  0
  -30.5410  -15.4838   21.5450 C   0  0  0  0  0  0  0  0  0  0  0  0
  -28.1347  -15.9021   21.8678 C   0  0  0  0  0  0  0  0  0  0  0  0
  -21.0923  -29.5939   23.5771 C   0  0  1  0  0  0  0  0  0  0  0  0
  -22.6108  -27.3034   20.9540 C   0  0  1  0  0  0  0  0  0  0  0  0
  -27.7653  -14.6541   21.0494 C   0  0  2  0  0  0  0  0  0  0  0  0
  -21.8583  -20.1238   18.1448 C   0  0  0  0  0  0  0  0  0  0  0  0
  -20.7004  -23.9156   23.4507 C   0  0  0  0  0  0  0  0  0  0  0  0
  -20.7941  -21.6343   22.4236 C   0  0  0  0  0  0  0  0  0  0  0  0
  -19.2097  -23.3397   21.5270 C   0  0  0  0  0  0  0  0  0  0  0  0
  -31.3021  -24.9742   23.4160 C   0  0  0  0  0  0  0  0  0  0  0  0
  -32.2976  -25.8147   21.2847 C   0  0  0  0  0  0  0  0  0  0  0  0
  -24.1635  -22.8488   16.8269 C   0  0  0  0  0  0  0  0  0  0  0  0
  -30.5481  -23.9724   21.2605 C   0  0  0  0  0  0  0  0  0  0  0  0
  -29.9197  -26.3827   21.8514 C   0  0  0  0  0  0  0  0  0  1  0  0
  -21.6860  -23.5955   21.0860 C   0  0  1  0  0  0  0  0  0  0  0  0
  -22.3629  -21.5476   17.9687 C   0  0  2  0  0  0  0  0  0  0  0  0
  -20.6205  -23.1381   22.1218 C   0  0  0  0  0  0  0  0  0  0  0  0
  -31.0053  -25.2869   21.9344 C   0  0  0  0  0  0  0  0  0  0  0  0
  -26.4009  -13.1144   22.4092 N   0  0  0  0  0  0  0  0  0  0  0  0
  -29.5982  -20.4831   19.8272 N   0  0  0  0  0  0  0  0  0  0  0  0
  -26.4275  -14.0742   21.4689 N   0  0  0  0  0  0  0  0  0  0  0  0
  -22.7146  -25.8459   21.0507 N   0  0  0  0  0  0  0  0  0  0  0  0
  -29.4316  -16.4313   21.4174 N   0  0  0  0  0  0  0  0  0  0  0  0
  -25.0403  -15.3637   20.0463 N   0  0  0  0  0  0  0  0  0  0  0  0
  -22.1058  -12.7558   22.2786 N   0  0  0  0  0  0  0  0  0  0  0  0
  -28.5381  -18.5237   20.7961 N   0  0  0  0  0  0  0  0  0  0  0  0
  -21.5070  -28.9398   22.3546 N   0  0  0  0  0  0  0  0  0  0  0  0
  -21.6165  -22.8950   19.8082 N   0  0  0  0  0  0  0  0  0  0  0  0
  -30.2220  -24.1710   19.8288 N   0  0  0  0  0  0  0  0  0  0  0  0
  -23.5751  -21.5128   17.1024 N   0  3  0  0  0  0  0  0  0  0  0  0
  -22.3052  -14.3848   20.6769 O   0  0  0  0  0  0  0  0  0  0  0  0
  -22.7646  -27.2280   23.3089 O   0  0  0  0  0  0  0  0  0  0  0  0
  -20.5412  -25.5089   20.2769 O   0  0  0  0  0  0  0  0  0  0  0  0
  -23.7828  -22.0691   19.8526 O   0  0  0  0  0  0  0  0  0  0  0  0
  -30.8019  -18.0797   20.5519 O   0  0  0  0  0  0  0  0  0  0  0  0
  -31.7277  -22.3387   18.8271 O   0  0  0  0  0  0  0  0  0  0  0  0
  -29.8452  -23.2822   17.4524 O   0  0  0  0  0  0  0  0  0  0  0  0
  -23.3620   -8.9577   26.1557 O   0  0  0  0  0  0  0  0  0  0  0  0
  -28.7135  -25.9569   22.4841 O   0  0  0  0  0  0  0  0  0  1  0  0
  -25.5659   -9.0025   31.2099 F   0  0  0  0  0  0  0  0  0  0  0  0
  -21.7733   -9.2952   28.3928 F   0  0  0  0  0  0  0  0  0  0  0  0
  -27.6145  -22.1177   19.5525 S   0  0  0  0  0  0  0  0  0  0  0  0
  -30.3851  -22.8799   18.7370 S   0  0  0  0  0  0  0  0  0  0  0  0
  1  2  1  0  0  0  0
  1  5  2  0  0  0  0
  2  6  2  0  0  0  0
  3  8  2  0  0  0  0
  3 16  1  0  0  0  0
  4  9  1  0  0  0  0
  4 16  2  0  0  0  0
  5 18  1  0  0  0  0
  6 20  1  0  0  0  0
  7 10  2  0  0  0  0
  7 19  1  0  0  0  0
  8 22  1  0  0  0  0
  9 22  2  0  0  0  0
 10 23  1  0  0  0  0
 11 12  2  0  0  0  0
 11 24  1  0  0  0  0
 12 25  1  0  0  0  0
 13 21  1  0  0  0  0
 13 23  2  0  0  0  0
 14 25  2  0  0  0  0
 14 26  1  0  0  0  0
 15 28  2  0  0  0  0
 15 84  1  0  0  0  0
 16 27  1  0  0  0  0
 17 27  1  0  0  0  0
 17 29  2  0  0  0  0
 17 31  1  0  0  0  0
 18 20  2  0  0  0  0
 18 36  1  0  0  0  0
 19 21  2  0  0  0  0
 19 37  1  0  0  0  0
 20 45  1  0  0  0  0
 21 38  1  0  0  0  0
 22 80  1  0  0  0  0
 23 81  1  0  0  0  0
 24 26  2  0  0  0  0
 24 80  1  0  0  0  0
 25 82  1  0  0  0  0
 26 83  1  0  0  0  0
 27 61  2  0  0  0  0
 28 62  1  0  0  0  0
 28 68  1  0  0  0  0
 29 63  1  0  0  0  0
 29 66  1  0  0  0  0
 30 62  2  0  0  0  0
 30 84  1  0  0  0  0
 30 85  1  0  0  0  0
 31 67  1  0  0  0  0
 31 73  2  0  0  0  0
 32 46  1  0  0  0  0
 32 69  1  0  0  0  0
 32 74  2  0  0  0  0
 33 57  1  0  0  0  0
 33 64  1  0  0  0  0
 33 75  2  0  0  0  0
 34 58  1  0  0  0  0
 34 70  1  0  0  0  0
 34 76  2  0  0  0  0
 35 65  1  0  0  0  0
 35 68  1  0  0  0  0
 35 77  2  0  0  0  0
 36 39  1  0  0  0  0
 37 46  1  0  0  0  0
 38 64  1  0  0  0  0
 39 41  1  0  0  0  0
 40 42  1  0  0  0  0
 40 43  1  0  0  0  0
 41 45  1  0  0  0  0
 42 47  1  0  0  0  0
 43 65  1  0  0  0  0
 44 47  1  0  0  0  0
 44 65  1  0  0  0  0
 45 69  1  0  0  0  0
 46 64  1  0  0  0  0
 47 63  1  0  0  0  0
 48 58  1  0  0  0  0
 49 59  1  0  0  0  0
 50 59  1  0  0  0  0
 51 59  1  0  0  0  0
 52 60  1  0  0  0  0
 53 60  1  0  0  0  0
 54 72  1  0  0  0  0
 55 60  1  0  0  0  0
 55 71  1  0  0  0  0
 56 60  1  0  0  0  0
 56 81  1  0  0  0  0
 57 59  1  0  0  0  0
 57 70  1  0  0  0  0
 58 72  1  0  0  0  0
 61 63  1  0  0  0  0
 71 85  1  0  0  0  0
 78 85  2  0  0  0  0
 79 85  2  0  0  0  0
M  CHG  1  72   1
M  ISO  4  35 100  56 101  68 100  81 101
M  END
> <Batch ID>
0189

> <Smiles>
CNC(C)C(=O)NC(C(=O)N1Cc2cc([101O:1][101CH2:1]C(C)(C)CNS(=O)(=O)c3nc([100NH:0][100C:0](=O)N4CCCC(n5nc(-c6ccc(Oc7ccc(F)cc7F)cc6)c(C(N)=O)c5N)C4)cs3)ccc2CC1C(=O)NC1CCCc2ccccc21)C(C)(C)C

> <Shape>
0.197

> <Color>
0.111

> <Negative vol penalty>
0.000

$$$$

  -OEChem-04052305183D

 84 92  0     1  0  0  0  0  0999 V2000
  -25.3644  -26.3373   16.8900 C   0  0  0  0  0  0  0  0  0  0  0  0
  -26.6534  -25.8314   17.0239 C   0  0  0  0  0  0  0  0  0  0  0  0
  -23.0767   -9.8317   20.0037 C   0  0  0  0  0  0  0  0  0  0  0  0
  -23.7415  -10.0029   22.3201 C   0  0  0  0  0  0  0  0  0  0  0  0
  -24.8075  -27.1031   17.9134 C   0  0  0  0  0  0  0  0  0  0  0  0
  -27.3868  -26.0920   18.1809 C   0  0  0  0  0  0  0  0  0  0  0  0
  -29.7416  -21.9755   19.9568 C   0  0  0  0  0  0  0  0  0  0  0  0
  -22.3387   -8.6858   20.3001 C   0  0  0  0  0  0  0  0  0  0  0  0
  -23.0035   -8.8570   22.6166 C   0  0  0  0  0  0  0  0  0  0  0  0
  -30.9135  -21.5840   19.3109 C   0  0  0  0  0  0  0  0  0  0  0  0
  -23.3615   -5.5105   22.2947 C   0  0  0  0  0  0  0  0  0  0  0  0
  -23.9607   -4.5451   23.1037 C   0  0  0  0  0  0  0  0  0  0  0  0
  -32.2153  -22.6271   21.0534 C   0  0  0  0  0  0  0  0  0  0  0  0
  -22.1884   -4.8039   24.7252 C   0  0  0  0  0  0  0  0  0  0  0  0
  -30.0262  -19.1961   22.8505 C   0  0  0  0  0  0  0  0  0  0  0  0
  -23.7782  -10.4902   21.0136 C   0  0  0  0  0  0  0  0  0  0  0  0
  -24.0908  -13.0070   20.7389 C   0  0  0  0  0  0  0  0  0  0  0  0
  -25.5308  -27.3651   19.0876 C   0  0  0  0  0  0  0  0  0  0  0  0
  -29.7979  -22.7065   21.1522 C   0  0  0  0  0  0  0  0  0  0  0  0
  -26.8395  -26.8632   19.2204 C   0  0  0  0  0  0  0  0  0  0  0  0
  -31.0427  -23.0246   21.7138 C   0  0  0  0  0  0  0  0  0  0  0  0
  -22.3021   -8.1985   21.6065 C   0  0  0  0  0  0  0  0  0  0  0  0
  -32.1506  -21.9122   19.8577 C   0  0  0  0  0  0  0  0  0  0  0  0
  -22.1758   -6.1227   22.7009 C   0  0  0  0  0  0  0  0  0  0  0  0
  -23.3741   -4.1918   24.3189 C   0  0  0  0  0  0  0  0  0  0  0  0
  -21.5893   -5.7694   23.9161 C   0  0  0  0  0  0  0  0  0  0  0  0
  -29.5362  -17.9500   22.5163 C   0  0  0  0  0  0  0  0  0  0  0  0
  -24.5412  -11.6736   20.7079 C   0  0  0  0  0  0  0  0  0  0  0  0
  -30.3916  -17.1475   21.7893 C   0  0  0  0  0  0  0  0  0  0  0  0
  -25.1868  -13.7483   20.3704 C   0  0  0  0  0  0  0  0  0  0  0  0
  -31.9938  -18.7600   21.7990 C   0  0  0  0  0  0  0  0  0  0  0  0
  -22.7974  -13.5290   21.0711 C   0  0  0  0  0  0  0  0  0  0  0  0
  -28.8262  -25.5921   22.0648 C   0  0  0  0  0  0  0  0  0  0  0  0
  -35.0699  -19.2886   19.8582 C   0  0  0  0  0  0  0  0  0  0  0  0
  -29.8001  -24.5689   24.9848 C   0  0  0  0  0  0  0  0  0  0  0  0
  -31.7838  -22.4737   26.8075 C   0  0  0  0  0  0  0  0  0  0  0  0
  -30.6267  -14.8911   20.6940 C   0  0  0  0  0  0  0  0  0  0  0  0
  -24.9045  -28.2375   20.1465 C   0  0  0  0  0  0  0  0  0  0  0  0
  -28.5246  -23.0983   21.8506 C   0  0  0  0  0  0  0  0  0  0  0  0
  -31.1574  -23.7903   23.0057 C   0  0  0  0  0  0  0  0  0  0  0  0
  -25.6077  -28.1539   21.4989 C   0  0  0  0  0  0  0  0  0  0  0  0
  -29.6430  -12.3080   18.4496 C   0  0  0  0  0  0  0  0  0  0  0  0
  -27.1191  -28.2597   21.3221 C   0  0  0  0  0  0  0  0  0  0  0  0
  -28.1910  -12.0224   18.8396 C   0  0  0  0  0  0  0  0  0  0  0  0
  -30.5048  -12.6306   19.6690 C   0  0  0  0  0  0  0  0  0  0  0  0
  -28.5332  -13.4142   20.9211 C   0  0  0  0  0  0  0  0  0  0  0  0
  -27.6573  -27.1034   20.4709 C   0  0  1  0  0  0  0  0  0  0  0  0
  -28.7011  -24.2842   22.7938 C   0  0  1  0  0  0  0  0  0  0  0  0
  -27.6120  -13.1477   19.7194 C   0  0  2  0  0  0  0  0  0  0  0  0
  -32.3892  -21.8963   29.1734 C   0  0  0  0  0  0  0  0  0  0  0  0
  -31.5066  -27.0921   25.1614 C   0  0  0  0  0  0  0  0  0  0  0  0
  -32.7719  -26.0212   27.0377 C   0  0  0  0  0  0  0  0  0  0  0  0
  -30.3315  -26.4770   27.2815 C   0  0  0  0  0  0  0  0  0  0  0  0
  -30.8185  -19.6931   26.4985 C   0  0  0  0  0  0  0  0  0  0  0  0
  -34.6226  -19.6731   18.4550 C   0  0  0  0  0  0  0  0  0  0  0  0
  -34.1855  -18.3685   20.6726 C   0  0  0  0  0  0  0  0  0  0  0  0
  -33.2478  -20.3285   18.4635 C   0  0  0  0  0  0  0  0  0  1  0  0
  -31.0977  -24.6129   25.7551 C   0  0  1  0  0  0  0  0  0  0  0  0
  -31.4803  -21.5795   27.9960 C   0  0  2  0  0  0  0  0  0  0  0  0
  -31.4251  -26.0380   26.2836 C   0  0  0  0  0  0  0  0  0  0  0  0
  -31.2548  -19.6353   22.5070 N   0  0  0  0  0  0  0  0  0  0  0  0
  -25.8233  -11.5707   20.3481 N   0  0  0  0  0  0  0  0  0  0  0  0
  -31.6317  -17.5219   21.4121 N   0  0  0  0  0  0  0  0  0  0  0  0
  -26.1880  -12.8488   20.1494 N   0  0  0  0  0  0  0  0  0  0  0  0
  -29.8839  -24.1564   23.6474 N   0  0  0  0  0  0  0  0  0  0  0  0
  -29.8965  -13.7082   20.4524 N   0  0  0  0  0  0  0  0  0  0  0  0
  -25.3822  -15.0752   20.2171 N   0  0  0  0  0  0  0  0  0  0  0  0
  -21.7847  -12.6280   21.4275 N   0  0  0  0  0  0  0  0  0  0  0  0
  -29.9339  -15.8578   21.4221 N   0  0  0  0  0  0  0  0  0  0  0  0
  -33.2639  -19.1776   21.4308 N   0  0  0  0  0  0  0  0  0  0  0  0
  -27.7443  -25.8931   21.2595 N   0  0  0  0  0  0  0  0  0  0  0  0
  -30.9875  -23.5993   26.7987 N   0  0  0  0  0  0  0  0  0  0  0  0
  -31.6691  -20.1476   27.6285 N   0  3  0  0  0  0  0  0  0  0  0  0
  -22.5425  -14.7567   21.0365 O   0  0  0  0  0  0  0  0  0  0  0  0
  -29.8293  -26.2781   22.2224 O   0  0  0  0  0  0  0  0  0  0  0  0
  -28.7498  -24.8818   25.5510 O   0  0  0  0  0  0  0  0  0  0  0  0
  -32.6441  -22.2027   25.9726 O   0  0  0  0  0  0  0  0  0  0  0  0
  -31.7717  -15.0466   20.2618 O   0  0  0  0  0  0  0  0  0  0  0  0
  -21.5818   -7.0805   21.8962 O   0  0  0  0  0  0  0  0  0  0  0  0
  -33.2959  -21.5319   19.2289 O   0  0  0  0  0  0  0  0  0  1  0  0
  -23.9488   -3.2635   25.0950 F   0  0  0  0  0  0  0  0  0  0  0  0
  -20.4496   -6.3533   24.3112 F   0  0  0  0  0  0  0  0  0  0  0  0
  -28.3100  -17.5595   22.8791 F   0  0  0  0  0  0  0  0  0  0  0  0
  -36.5249  -19.8551   20.4857 S   0  0  0  0  0  0  0  0  0  0  0  0
  1  2  1  0  0  0  0
  1  5  2  0  0  0  0
  2  6  2  0  0  0  0
  3  8  2  0  0  0  0
  3 16  1  0  0  0  0
  4  9  1  0  0  0  0
  4 16  2  0  0  0  0
  5 18  1  0  0  0  0
  6 20  1  0  0  0  0
  7 10  2  0  0  0  0
  7 19  1  0  0  0  0
  8 22  1  0  0  0  0
  9 22  2  0  0  0  0
 10 23  1  0  0  0  0
 11 12  2  0  0  0  0
 11 24  1  0  0  0  0
 12 25  1  0  0  0  0
 13 21  1  0  0  0  0
 13 23  2  0  0  0  0
 14 25  2  0  0  0  0
 14 26  1  0  0  0  0
 15 27  1  0  0  0  0
 15 61  2  0  0  0  0
 16 28  1  0  0  0  0
 17 28  1  0  0  0  0
 17 30  2  0  0  0  0
 17 32  1  0  0  0  0
 18 20  2  0  0  0  0
 18 38  1  0  0  0  0
 19 21  2  0  0  0  0
 19 39  1  0  0  0  0
 20 47  1  0  0  0  0
 21 40  1  0  0  0  0
 22 79  1  0  0  0  0
 23 80  1  0  0  0  0
 24 26  2  0  0  0  0
 24 79  1  0  0  0  0
 25 81  1  0  0  0  0
 26 82  1  0  0  0  0
 27 29  2  0  0  0  0
 27 83  1  0  0  0  0
 28 62  2  0  0  0  0
 29 63  1  0  0  0  0
 29 69  1  0  0  0  0
 30 64  1  0  0  0  0
 30 67  1  0  0  0  0
 31 61  1  0  0  0  0
 31 63  2  0  0  0  0
 31 70  1  0  0  0  0
 32 68  1  0  0  0  0
 32 74  2  0  0  0  0
 33 48  1  0  0  0  0
 33 71  1  0  0  0  0
 33 75  2  0  0  0  0
 34 55  1  0  0  0  0
 34 56  1  0  0  0  0
 34 84  2  0  0  0  0
 35 58  1  0  0  0  0
 35 65  1  0  0  0  0
 35 76  2  0  0  0  0
 36 59  1  0  0  0  0
 36 72  1  0  0  0  0
 36 77  2  0  0  0  0
 37 66  1  0  0  0  0
 37 69  1  0  0  0  0
 37 78  2  0  0  0  0
 38 41  1  0  0  0  0
 39 48  1  0  0  0  0
 40 65  1  0  0  0  0
 41 43  1  0  0  0  0
 42 44  1  0  0  0  0
 42 45  1  0  0  0  0
 43 47  1  0  0  0  0
 44 49  1  0  0  0  0
 45 66  1  0  0  0  0
 46 49  1  0  0  0  0
 46 66  1  0  0  0  0
 47 71  1  0  0  0  0
 48 65  1  0  0  0  0
 49 64  1  0  0  0  0
 50 59  1  0  0  0  0
 51 60  1  0  0  0  0
 52 60  1  0  0  0  0
 53 60  1  0  0  0  0
 54 73  1  0  0  0  0
 55 57  1  0  0  0  0
 56 70  1  0  0  0  0
 57 80  1  0  0  0  0
 58 60  1  0  0  0  0
 58 72  1  0  0  0  0
 59 73  1  0  0  0  0
 62 64  1  0  0  0  0
M  CHG  1  73   1
M  ISO  4  37 100  57 101  69 100  80 101
M  END
> <Batch ID>
0189

> <Smiles>
CNC(C)C(=O)NC(C(=O)N1Cc2cc([101O:1][101CH2:1]CC(=S)CNc3ncc(F)c([100NH:0][100C:0](=O)N4CCCC(n5nc(-c6ccc(Oc7ccc(F)cc7F)cc6)c(C(N)=O)c5N)C4)n3)ccc2CC1C(=O)NC1CCCc2ccccc21)C(C)(C)C

> <Shape>
0.244

> <Color>
0.202

> <Negative vol penalty>
0.000

$$$$

  -OEChem-04052305183D

 88 96  0     1  0  0  0  0  0999 V2000
  -20.1250  -18.7918   26.5311 C   0  0  0  0  0  0  0  0  0  0  0  0
  -21.3799  -19.1374   26.0400 C   0  0  0  0  0  0  0  0  0  0  0  0
  -23.8424  -13.8582   21.1829 C   0  0  0  0  0  0  0  0  0  0  0  0
  -26.2479  -13.8533   20.9588 C   0  0  0  0  0  0  0  0  0  0  0  0
  -18.9827  -19.3989   26.0110 C   0  0  0  0  0  0  0  0  0  0  0  0
  -21.4931  -20.0896   25.0276 C   0  0  0  0  0  0  0  0  0  0  0  0
  -25.9963  -24.1767   24.3047 C   0  0  0  0  0  0  0  0  0  0  0  0
  -23.7956  -12.5470   20.7094 C   0  0  0  0  0  0  0  0  0  0  0  0
  -26.2012  -12.5421   20.4853 C   0  0  0  0  0  0  0  0  0  0  0  0
  -27.1320  -24.1879   23.4960 C   0  0  0  0  0  0  0  0  0  0  0  0
  -23.0742   -9.0770   19.9010 C   0  0  0  0  0  0  0  0  0  0  0  0
  -22.2573   -8.1717   20.5783 C   0  0  0  0  0  0  0  0  0  0  0  0
  -25.9381  -25.4831   21.8479 C   0  0  0  0  0  0  0  0  0  0  0  0
  -23.5321   -8.5330   22.5987 C   0  0  0  0  0  0  0  0  0  0  0  0
  -25.0686  -14.5114   21.3075 C   0  0  0  0  0  0  0  0  0  0  0  0
  -25.2433  -16.2829   23.1347 C   0  0  0  0  0  0  0  0  0  0  0  0
  -19.0827  -20.3661   24.9985 C   0  0  0  0  0  0  0  0  0  0  0  0
  -24.8177  -24.8104   23.8855 C   0  0  0  0  0  0  0  0  0  0  0  0
  -20.3510  -20.7092   24.4925 C   0  0  0  0  0  0  0  0  0  0  0  0
  -24.7897  -25.4807   22.6542 C   0  0  0  0  0  0  0  0  0  0  0  0
  -31.6490  -22.5696   18.1707 C   0  0  0  0  0  0  0  0  0  0  0  0
  -24.9749  -11.8889   20.3607 C   0  0  0  0  0  0  0  0  0  0  0  0
  -27.1021  -24.8387   22.2661 C   0  0  0  0  0  0  0  0  0  0  0  0
  -24.1201   -9.7103   20.5725 C   0  0  0  0  0  0  0  0  0  0  0  0
  -22.4862   -7.8997   21.9271 C   0  0  0  0  0  0  0  0  0  0  0  0
  -24.3490   -9.4383   21.9213 C   0  0  0  0  0  0  0  0  0  0  0  0
  -25.1175  -15.8660   21.7960 C   0  0  0  0  0  0  0  0  0  0  0  0
  -30.4752  -23.2563   17.9361 C   0  0  0  0  0  0  0  0  0  0  0  0
  -31.5040  -21.3005   18.6928 C   0  0  0  0  0  0  0  0  0  0  0  0
  -25.2408  -17.6548   23.0688 C   0  0  0  0  0  0  0  0  0  0  0  0
  -29.2402  -21.5055   18.6956 C   0  0  0  0  0  0  0  0  0  0  0  0
  -25.3527  -15.5001   24.3309 C   0  0  0  0  0  0  0  0  0  0  0  0
  -21.8568  -23.8457   23.2483 C   0  0  0  0  0  0  0  0  0  0  0  0
  -29.4283  -25.4856   19.4806 C   0  0  0  0  0  0  0  0  0  0  0  0
  -21.3033  -27.0271   22.9406 C   0  0  0  0  0  0  0  0  0  0  0  0
  -22.5564  -30.1382   22.3101 C   0  0  0  0  0  0  0  0  0  0  0  0
  -26.7225  -21.5381   18.7757 C   0  0  0  0  0  0  0  0  0  0  0  0
  -17.8163  -20.9604   24.4348 C   0  0  0  0  0  0  0  0  0  0  0  0
  -23.6095  -24.8120   24.7813 C   0  0  0  0  0  0  0  0  0  0  0  0
  -23.5555  -26.1935   22.1672 C   0  0  0  0  0  0  0  0  0  0  0  0
  -18.0490  -22.2329   23.6242 C   0  0  0  0  0  0  0  0  0  0  0  0
  -23.5716  -21.2732   20.4125 C   0  0  0  0  0  0  0  0  0  0  0  0
  -19.2134  -22.0443   22.6570 C   0  0  0  0  0  0  0  0  0  0  0  0
  -23.6243  -19.8970   21.0799 C   0  0  0  0  0  0  0  0  0  0  0  0
  -24.2675  -21.2710   19.0525 C   0  0  0  0  0  0  0  0  0  0  0  0
  -25.6956  -19.3803   19.7271 C   0  0  0  0  0  0  0  0  0  0  0  0
  -20.5165  -21.7558   23.4120 C   0  0  1  0  0  0  0  0  0  0  0  0
  -22.3058  -25.0505   24.0258 C   0  0  1  0  0  0  0  0  0  0  0  0
  -25.0641  -19.3490   21.1285 C   0  0  2  0  0  0  0  0  0  0  0  0
  -32.9902  -23.1412   17.8858 C   0  0  0  0  0  0  0  0  0  0  0  0
  -29.3649  -24.1443   15.1285 C   0  0  0  0  0  0  0  0  0  0  0  0
  -30.5630  -27.7473   17.7406 C   0  0  0  0  0  0  0  0  0  0  0  0
  -21.8543  -32.5373   22.0901 C   0  0  0  0  0  0  0  0  0  0  0  0
  -20.1373  -26.4306   20.1847 C   0  0  0  0  0  0  0  0  0  0  0  0
  -20.3392  -28.8678   19.6486 C   0  0  0  0  0  0  0  0  0  0  0  0
  -18.8607  -28.1211   21.5139 C   0  0  0  0  0  0  0  0  0  0  0  0
  -24.2887  -30.9724   24.5601 C   0  0  0  0  0  0  0  0  0  0  0  0
  -28.1080  -25.5362   20.2271 C   0  0  0  0  0  0  0  0  0  1  0  0
  -30.5958  -24.7276   15.8154 C   0  0  0  0  0  0  0  0  0  0  0  0
  -29.2845  -26.9725   17.4381 C   0  0  0  0  0  0  0  0  0  0  0  0
  -30.5100  -24.6688   17.3600 C   0  0  1  0  0  0  0  0  0  0  0  0
  -29.3433  -25.5202   17.9491 C   0  0  1  0  0  0  0  0  0  0  0  0
  -21.3702  -28.0189   21.8044 C   0  0  1  0  0  0  0  0  0  0  0  0
  -22.3756  -31.4620   23.0307 C   0  0  2  0  0  0  0  0  0  0  0  0
  -20.1997  -27.8446   20.7959 C   0  0  0  0  0  0  0  0  0  0  0  0
  -25.0405  -16.8902   20.9421 N   0  0  0  0  0  0  0  0  0  0  0  0
  -29.2490  -22.7528   18.1878 N   0  0  0  0  0  0  0  0  0  0  0  0
  -30.3104  -20.7351   18.9685 N   0  0  0  0  0  0  0  0  0  0  0  0
  -25.1181  -17.9642   21.7461 N   0  0  0  0  0  0  0  0  0  0  0  0
  -22.3979  -26.1614   23.0763 N   0  0  0  0  0  0  0  0  0  0  0  0
  -25.6279  -20.7432   19.1769 N   0  0  0  0  0  0  0  0  0  0  0  0
  -25.3315  -18.6147   24.0137 N   0  0  0  0  0  0  0  0  0  0  0  0
  -25.3387  -14.1031   24.2188 N   0  0  0  0  0  0  0  0  0  0  0  0
  -27.9688  -20.9439   18.9712 N   0  0  0  0  0  0  0  0  0  0  0  0
  -21.0594  -22.9766   23.9682 N   0  0  0  0  0  0  0  0  0  0  0  0
  -21.4373  -29.3401   22.4194 N   0  0  0  0  0  0  0  0  0  0  0  0
  -23.6734  -31.9238   23.5992 N   0  3  0  0  0  0  0  0  0  0  0  0
  -25.4432  -16.0239   25.4671 O   0  0  0  0  0  0  0  0  0  0  0  0
  -22.2067  -23.7150   22.0812 O   0  0  0  0  0  0  0  0  0  0  0  0
  -30.5029  -25.4025   20.0751 O   0  0  0  0  0  0  0  0  0  0  0  0
  -20.3195  -27.0254   23.6847 O   0  0  0  0  0  0  0  0  0  0  0  0
  -23.5860  -29.8432   21.7072 O   0  0  0  0  0  0  0  0  0  0  0  0
  -26.5671  -22.6737   18.3194 O   0  0  0  0  0  0  0  0  0  0  0  0
  -24.9297  -10.6094   19.8989 O   0  0  0  0  0  0  0  0  0  0  0  0
  -28.2090  -24.8506   21.4745 O   0  0  0  0  0  0  0  0  0  1  0  0
  -21.7008   -7.0315   22.5778 F   0  0  0  0  0  0  0  0  0  0  0  0
  -25.3514  -10.0445   22.5720 F   0  0  0  0  0  0  0  0  0  0  0  0
  -32.6013  -20.5706   18.9500 F   0  0  0  0  0  0  0  0  0  0  0  0
  1  2  1  0  0  0  0
  1  5  2  0  0  0  0
  2  6  2  0  0  0  0
  3  8  2  0  0  0  0
  3 15  1  0  0  0  0
  4  9  1  0  0  0  0
  4 15  2  0  0  0  0
  5 17  1  0  0  0  0
  6 19  1  0  0  0  0
  7 10  2  0  0  0  0
  7 18  1  0  0  0  0
  8 22  1  0  0  0  0
  9 22  2  0  0  0  0
 10 23  1  0  0  0  0
 11 12  2  0  0  0  0
 11 24  1  0  0  0  0
 12 25  1  0  0  0  0
 13 20  1  0  0  0  0
 13 23  2  0  0  0  0
 14 25  2  0  0  0  0
 14 26  1  0  0  0  0
 15 27  1  0  0  0  0
 16 27  1  0  0  0  0
 16 30  2  0  0  0  0
 16 32  1  0  0  0  0
 17 19  2  0  0  0  0
 17 38  1  0  0  0  0
 18 20  2  0  0  0  0
 18 39  1  0  0  0  0
 19 47  1  0  0  0  0
 20 40  1  0  0  0  0
 21 28  2  0  0  0  0
 21 29  1  0  0  0  0
 21 50  1  0  0  0  0
 22 84  1  0  0  0  0
 23 85  1  0  0  0  0
 24 26  2  0  0  0  0
 24 84  1  0  0  0  0
 25 86  1  0  0  0  0
 26 87  1  0  0  0  0
 27 66  2  0  0  0  0
 28 61  1  0  0  0  0
 28 67  1  0  0  0  0
 29 68  2  0  0  0  0
 29 88  1  0  0  0  0
 30 69  1  0  0  0  0
 30 72  1  0  0  0  0
 31 67  2  0  0  0  0
 31 68  1  0  0  0  0
 31 74  1  0  0  0  0
 32 73  1  0  0  0  0
 32 78  2  0  0  0  0
 33 48  1  0  0  0  0
 33 75  1  0  0  0  0
 33 79  2  0  0  0  0
 34 58  1  0  0  0  0
 34 62  1  0  0  0  0
 34 80  2  0  0  0  0
 35 63  1  0  0  0  0
 35 70  1  0  0  0  0
 35 81  2  0  0  0  0
 36 64  1  0  0  0  0
 36 76  1  0  0  0  0
 36 82  2  0  0  0  0
 37 71  1  0  0  0  0
 37 74  1  0  0  0  0
 37 83  2  0  0  0  0
 38 41  1  0  0  0  0
 39 48  1  0  0  0  0
 40 70  1  0  0  0  0
 41 43  1  0  0  0  0
 42 44  1  0  0  0  0
 42 45  1  0  0  0  0
 43 47  1  0  0  0  0
 44 49  1  0  0  0  0
 45 71  1  0  0  0  0
 46 49  1  0  0  0  0
 46 71  1  0  0  0  0
 47 75  1  0  0  0  0
 48 70  1  0  0  0  0
 49 69  1  0  0  0  0
 51 59  1  0  0  0  0
 52 60  1  0  0  0  0
 53 64  1  0  0  0  0
 54 65  1  0  0  0  0
 55 65  1  0  0  0  0
 56 65  1  0  0  0  0
 57 77  1  0  0  0  0
 58 85  1  0  0  0  0
 59 61  1  0  0  0  0
 60 62  1  0  0  0  0
 61 62  1  0  0  0  0
 63 65  1  0  0  0  0
 63 76  1  0  0  0  0
 64 77  1  0  0  0  0
 66 69  1  0  0  0  0
M  CHG  1  77   1
M  ISO  4  37 100  58 101  74 100  85 101
M  END
> <Batch ID>
0189

> <Smiles>
CCC(C(=O)[101CH2:1][101O:1]c1ccc2c(c1)CN(C(=O)C(NC(=O)C(C)NC)C(C)(C)C)C(C(=O)NC1CCCc3ccccc31)C2)C(CC)c1nc([100NH:0][100C:0](=O)N2CCCC(n3nc(-c4ccc(Oc5ccc(F)cc5F)cc4)c(C(N)=O)c3N)C2)nc(F)c1C

> <Shape>
0.189

> <Color>
0.071

> <Negative vol penalty>
0.000

$$$$

  -OEChem-04052305183D

 84 92  0     1  0  0  0  0  0999 V2000
  -30.1820  -32.4897   16.0813 C   0  0  0  0  0  0  0  0  0  0  0  0
  -30.7749  -31.4899   16.8457 C   0  0  0  0  0  0  0  0  0  0  0  0
  -22.9904   -9.9915   19.9215 C   0  0  0  0  0  0  0  0  0  0  0  0
  -23.8043   -9.8647   22.1927 C   0  0  0  0  0  0  0  0  0  0  0  0
  -28.7970  -32.6498   16.0984 C   0  0  0  0  0  0  0  0  0  0  0  0
  -29.9832  -30.6503   17.6285 C   0  0  0  0  0  0  0  0  0  0  0  0
  -31.3265  -25.7840   17.2279 C   0  0  0  0  0  0  0  0  0  0  0  0
  -22.2014   -8.8624   20.1412 C   0  0  0  0  0  0  0  0  0  0  0  0
  -23.0153   -8.7356   22.4124 C   0  0  0  0  0  0  0  0  0  0  0  0
  -32.4528  -25.3737   17.9398 C   0  0  0  0  0  0  0  0  0  0  0  0
  -20.9414   -6.0327   23.6819 C   0  0  0  0  0  0  0  0  0  0  0  0
  -20.2121   -5.9713   24.8693 C   0  0  0  0  0  0  0  0  0  0  0  0
  -31.0268  -24.4555   19.6551 C   0  0  0  0  0  0  0  0  0  0  0  0
  -19.0391   -7.9917   24.2533 C   0  0  0  0  0  0  0  0  0  0  0  0
  -30.1943  -17.4962   22.8585 C   0  0  0  0  0  0  0  0  0  0  0  0
  -23.7919  -10.4926   20.9472 C   0  0  0  0  0  0  0  0  0  0  0  0
  -24.2443  -13.0031   20.9261 C   0  0  0  0  0  0  0  0  0  0  0  0
  -27.9872  -31.8055   16.8742 C   0  0  0  0  0  0  0  0  0  0  0  0
  -30.0398  -25.5424   17.7305 C   0  0  0  0  0  0  0  0  0  0  0  0
  -28.5863  -30.8001   17.6569 C   0  0  0  0  0  0  0  0  0  0  0  0
  -29.8857  -24.8615   18.9465 C   0  0  0  0  0  0  0  0  0  0  0  0
  -22.2139   -8.2344   21.3866 C   0  0  0  0  0  0  0  0  0  0  0  0
  -32.3031  -24.7119   19.1550 C   0  0  0  0  0  0  0  0  0  0  0  0
  -20.7196   -7.0737   22.7802 C   0  0  0  0  0  0  0  0  0  0  0  0
  -19.2610   -6.9508   25.1550 C   0  0  0  0  0  0  0  0  0  0  0  0
  -19.7685   -8.0531   23.0659 C   0  0  0  0  0  0  0  0  0  0  0  0
  -24.6075  -11.6586   20.7207 C   0  0  0  0  0  0  0  0  0  0  0  0
  -30.8444  -16.6433   21.9913 C   0  0  0  0  0  0  0  0  0  0  0  0
  -25.3602  -13.7189   20.5671 C   0  0  0  0  0  0  0  0  0  0  0  0
  -32.3967  -18.1829   22.1652 C   0  0  0  0  0  0  0  0  0  0  0  0
  -23.0088  -13.5555   21.3993 C   0  0  0  0  0  0  0  0  0  0  0  0
  -27.6019  -27.3737   18.6285 C   0  0  0  0  0  0  0  0  0  0  0  0
  -26.0758  -24.5261   18.9185 C   0  0  0  0  0  0  0  0  0  0  0  0
  -26.3008  -21.1525   19.3825 C   0  0  0  0  0  0  0  0  0  0  0  0
  -30.8706  -14.5142   20.6450 C   0  0  0  0  0  0  0  0  0  0  0  0
  -26.4987  -32.0474   16.8972 C   0  0  0  0  0  0  0  0  0  0  0  0
  -28.8345  -25.9677   16.9375 C   0  0  0  0  0  0  0  0  0  0  0  0
  -28.5259  -24.5597   19.5196 C   0  0  0  0  0  0  0  0  0  0  0  0
  -25.6999  -30.8758   17.4625 C   0  0  0  0  0  0  0  0  0  0  0  0
  -29.5923  -12.2575   18.2057 C   0  0  0  0  0  0  0  0  0  0  0  0
  -26.3369  -30.3682   18.7522 C   0  0  0  0  0  0  0  0  0  0  0  0
  -28.1516  -12.0111   18.6595 C   0  0  0  0  0  0  0  0  0  0  0  0
  -30.5452  -12.3931   19.3920 C   0  0  0  0  0  0  0  0  0  0  0  0
  -28.7063  -13.1398   20.8516 C   0  0  0  0  0  0  0  0  0  0  0  0
  -27.7592  -29.8535   18.4996 C   0  0  1  0  0  0  0  0  0  0  0  0
  -27.5814  -26.1249   17.7932 C   0  0  1  0  0  0  0  0  0  0  0  0
  -27.6989  -13.0611   19.6929 C   0  0  2  0  0  0  0  0  0  0  0  0
  -34.6425  -18.2271   21.0046 C   0  0  0  0  0  0  0  0  0  0  0  0
  -24.8803  -19.0967   19.6127 C   0  0  0  0  0  0  0  0  0  0  0  0
  -35.1489  -22.0333   19.4076 C   0  0  0  0  0  0  0  0  0  0  0  0
  -34.5446  -21.6455   23.2360 C   0  0  0  0  0  0  0  0  0  0  0  0
  -25.3655  -25.3394   21.7723 C   0  0  0  0  0  0  0  0  0  0  0  0
  -24.8087  -22.9441   22.2421 C   0  0  0  0  0  0  0  0  0  0  0  0
  -23.5201  -24.2077   20.5201 C   0  0  0  0  0  0  0  0  0  0  0  0
  -27.5052  -19.9103   16.9814 C   0  0  0  0  0  0  0  0  0  0  0  0
  -33.2646  -23.1453   20.6640 C   0  0  0  0  0  0  0  0  0  1  0  0
  -33.6945  -18.9325   21.9711 C   0  0  1  0  0  0  0  0  0  0  0  0
  -25.9007  -23.5148   20.0257 C   0  0  1  0  0  0  0  0  0  0  0  0
  -25.6515  -19.9900   18.6535 C   0  0  2  0  0  0  0  0  0  0  0  0
  -34.6244  -22.4414   20.7933 C   0  0  1  0  0  0  0  0  0  0  0  0
  -34.6239  -21.2420   21.7679 C   0  0  2  0  0  0  0  0  0  0  0  0
  -24.9245  -24.0087   21.1305 C   0  0  0  0  0  0  0  0  0  0  0  0
  -25.8564  -11.5255   20.2662 N   0  0  0  0  0  0  0  0  0  0  0  0
  -32.1073  -17.0356   21.5924 N   0  0  0  0  0  0  0  0  0  0  0  0
  -26.2877  -12.7956   20.1830 N   0  0  0  0  0  0  0  0  0  0  0  0
  -27.3783  -25.0013   18.7100 N   0  0  0  0  0  0  0  0  0  0  0  0
  -30.0543  -13.4083   20.3266 N   0  0  0  0  0  0  0  0  0  0  0  0
  -25.6287  -15.0417   20.5455 N   0  0  0  0  0  0  0  0  0  0  0  0
  -21.9652  -12.6779   21.7235 N   0  0  0  0  0  0  0  0  0  0  0  0
  -30.2853  -15.4303   21.5184 N   0  0  0  0  0  0  0  0  0  0  0  0
  -27.7212  -28.5390   17.8954 N   0  0  0  0  0  0  0  0  0  0  0  0
  -25.4939  -22.2706   19.3815 N   0  0  0  0  0  0  0  0  0  0  0  0
  -26.6867  -19.1634   17.9709 N   0  3  0  0  0  0  0  0  0  0  0  0
  -33.4875  -20.3206   21.4839 N   0  3  0  0  0  0  0  0  0  0  0  0
  -22.8298  -14.7917   21.5151 O   0  0  0  0  0  0  0  0  0  0  0  0
  -27.5144  -27.2866   19.8477 O   0  0  0  0  0  0  0  0  0  0  0  0
  -25.0943  -24.8759   18.2583 O   0  0  0  0  0  0  0  0  0  0  0  0
  -27.4110  -21.0752   19.9040 O   0  0  0  0  0  0  0  0  0  0  0  0
  -31.9946  -14.6533   20.1560 O   0  0  0  0  0  0  0  0  0  0  0  0
  -21.4439   -7.1328   21.6014 O   0  0  0  0  0  0  0  0  0  0  0  0
  -33.4009  -24.3110   19.8522 O   0  0  0  0  0  0  0  0  0  1  0  0
  -18.5596   -6.8908   26.2946 F   0  0  0  0  0  0  0  0  0  0  0  0
  -19.5501   -9.0549   22.2030 F   0  0  0  0  0  0  0  0  0  0  0  0
  -31.1962  -18.8466   23.1964 S   0  0  0  0  0  0  0  0  0  0  0  0
  1  2  1  0  0  0  0
  1  5  2  0  0  0  0
  2  6  2  0  0  0  0
  3  8  2  0  0  0  0
  3 16  1  0  0  0  0
  4  9  1  0  0  0  0
  4 16  2  0  0  0  0
  5 18  1  0  0  0  0
  6 20  1  0  0  0  0
  7 10  2  0  0  0  0
  7 19  1  0  0  0  0
  8 22  1  0  0  0  0
  9 22  2  0  0  0  0
 10 23  1  0  0  0  0
 11 12  2  0  0  0  0
 11 24  1  0  0  0  0
 12 25  1  0  0  0  0
 13 21  1  0  0  0  0
 13 23  2  0  0  0  0
 14 25  2  0  0  0  0
 14 26  1  0  0  0  0
 15 28  2  0  0  0  0
 15 84  1  0  0  0  0
 16 27  1  0  0  0  0
 17 27  1  0  0  0  0
 17 29  2  0  0  0  0
 17 31  1  0  0  0  0
 18 20  2  0  0  0  0
 18 36  1  0  0  0  0
 19 21  2  0  0  0  0
 19 37  1  0  0  0  0
 20 45  1  0  0  0  0
 21 38  1  0  0  0  0
 22 80  1  0  0  0  0
 23 81  1  0  0  0  0
 24 26  2  0  0  0  0
 24 80  1  0  0  0  0
 25 82  1  0  0  0  0
 26 83  1  0  0  0  0
 27 63  2  0  0  0  0
 28 64  1  0  0  0  0
 28 70  1  0  0  0  0
 29 65  1  0  0  0  0
 29 68  1  0  0  0  0
 30 57  1  0  0  0  0
 30 64  2  0  0  0  0
 30 84  1  0  0  0  0
 31 69  1  0  0  0  0
 31 75  2  0  0  0  0
 32 46  1  0  0  0  0
 32 71  1  0  0  0  0
 32 76  2  0  0  0  0
 33 58  1  0  0  0  0
 33 66  1  0  0  0  0
 33 77  2  0  0  0  0
 34 59  1  0  0  0  0
 34 72  1  0  0  0  0
 34 78  2  0  0  0  0
 35 67  1  0  0  0  0
 35 70  1  0  0  0  0
 35 79  2  0  0  0  0
 36 39  1  0  0  0  0
 37 46  1  0  0  0  0
 38 66  1  0  0  0  0
 39 41  1  0  0  0  0
 40 42  1  0  0  0  0
 40 43  1  0  0  0  0
 41 45  1  0  0  0  0
 42 47  1  0  0  0  0
 43 67  1  0  0  0  0
 44 47  1  0  0  0  0
 44 67  1  0  0  0  0
 45 71  1  0  0  0  0
 46 66  1  0  0  0  0
 47 65  1  0  0  0  0
 48 57  1  0  0  0  0
 49 59  1  0  0  0  0
 50 60  1  0  0  0  0
 51 61  1  0  0  0  0
 52 62  1  0  0  0  0
 53 62  1  0  0  0  0
 54 62  1  0  0  0  0
 55 73  1  0  0  0  0
 56 60  1  0  0  0  0
 56 81  1  0  0  0  0
 57 74  1  0  0  0  0
 58 62  1  0  0  0  0
 58 72  1  0  0  0  0
 59 73  1  0  0  0  0
 60 61  1  0  0  0  0
 61 74  1  0  0  0  0
 63 65  1  0  0  0  0
M  CHG  2  73   1  74   1
M  ISO  4  35 100  56 101  70 100  81 101
M  END
> <Batch ID>
0189

> <Smiles>
CNC(C)C(=O)NC(C(=O)N1Cc2cc([101O:1][101CH2:1]C(C)C(C)NC(C)c3nc([100NH:0][100C:0](=O)N4CCCC(n5nc(-c6ccc(Oc7ccc(F)cc7F)cc6)c(C(N)=O)c5N)C4)cs3)ccc2CC1C(=O)NC1CCCc2ccccc21)C(C)(C)C

> <Shape>
0.219

> <Color>
0.186

> <Negative vol penalty>
0.000

$$$$

  -OEChem-04052305183D

 88 96  0     1  0  0  0  0  0999 V2000
  -18.1694  -25.1900   20.3139 C   0  0  0  0  0  0  0  0  0  0  0  0
  -19.3923  -25.5319   19.7455 C   0  0  0  0  0  0  0  0  0  0  0  0
  -26.3769  -11.1421   17.7789 C   0  0  0  0  0  0  0  0  0  0  0  0
  -27.3439  -12.9919   16.5624 C   0  0  0  0  0  0  0  0  0  0  0  0
  -17.7857  -25.7530   21.5303 C   0  0  0  0  0  0  0  0  0  0  0  0
  -20.2317  -26.4379   20.3927 C   0  0  0  0  0  0  0  0  0  0  0  0
  -25.0613  -24.9156   20.4454 C   0  0  0  0  0  0  0  0  0  0  0  0
  -25.5119  -10.8934   16.7133 C   0  0  0  0  0  0  0  0  0  0  0  0
  -26.4790  -12.7433   15.4967 C   0  0  0  0  0  0  0  0  0  0  0  0
  -25.7951  -25.0849   19.2721 C   0  0  0  0  0  0  0  0  0  0  0  0
  -25.6594   -9.4067   13.6800 C   0  0  0  0  0  0  0  0  0  0  0  0
  -25.4987   -8.0830   13.2708 C   0  0  0  0  0  0  0  0  0  0  0  0
  -26.7988  -27.0753   20.1943 C   0  0  0  0  0  0  0  0  0  0  0  0
  -28.5194  -20.4058   22.3465 C   0  0  0  0  0  0  0  0  0  0  0  0
  -23.1357   -8.2200   13.7551 C   0  0  0  0  0  0  0  0  0  0  0  0
  -29.6610  -19.8397   20.3383 C   0  0  0  0  0  0  0  0  0  0  0  0
  -27.2929  -12.1914   17.7035 C   0  0  0  0  0  0  0  0  0  0  0  0
  -29.4707  -11.9075   19.0013 C   0  0  0  0  0  0  0  0  0  0  0  0
  -18.6251  -26.6590   22.1975 C   0  0  0  0  0  0  0  0  0  0  0  0
  -25.1828  -25.8324   21.4995 C   0  0  0  0  0  0  0  0  0  0  0  0
  -19.8583  -27.0146   21.6186 C   0  0  0  0  0  0  0  0  0  0  0  0
  -26.0673  -26.9139   21.3809 C   0  0  0  0  0  0  0  0  0  0  0  0
  -29.0812  -19.4316   21.5287 C   0  0  0  0  0  0  0  0  0  0  0  0
  -25.5629  -11.6940   15.5722 C   0  0  0  0  0  0  0  0  0  0  0  0
  -26.6618  -26.1665   19.1452 C   0  0  0  0  0  0  0  0  0  0  0  0
  -24.5582  -10.1371   14.1269 C   0  0  0  0  0  0  0  0  0  0  0  0
  -24.2369   -7.4896   13.3083 C   0  0  0  0  0  0  0  0  0  0  0  0
  -28.5543  -21.7393   21.9545 C   0  0  0  0  0  0  0  0  0  0  0  0
  -23.2964   -9.5438   14.1644 C   0  0  0  0  0  0  0  0  0  0  0  0
  -28.1863  -12.4491   18.8042 C   0  0  0  0  0  0  0  0  0  0  0  0
  -29.1579  -22.0441   20.7451 C   0  0  0  0  0  0  0  0  0  0  0  0
  -29.8993  -12.4615   20.1828 C   0  0  0  0  0  0  0  0  0  0  0  0
  -30.2102  -10.9862   18.1890 C   0  0  0  0  0  0  0  0  0  0  0  0
  -29.2275  -23.4510   20.2731 C   0  0  0  0  0  0  0  0  0  0  0  0
  -23.1965  -27.8236   22.9805 C   0  0  0  0  0  0  0  0  0  0  0  0
  -25.7434  -28.2912   24.9342 C   0  0  0  0  0  0  0  0  0  0  0  0
  -29.1280  -28.1831   25.3582 C   0  0  0  0  0  0  0  0  0  0  0  0
  -28.5183  -17.5127   23.0608 C   0  0  0  0  0  0  0  0  0  0  0  0
  -18.1464  -27.2776   23.4870 C   0  0  0  0  0  0  0  0  0  0  0  0
  -24.4042  -25.6208   22.7689 C   0  0  0  0  0  0  0  0  0  0  0  0
  -26.2491  -27.9151   22.4912 C   0  0  0  0  0  0  0  0  0  0  0  0
  -19.2589  -27.9432   24.2931 C   0  0  0  0  0  0  0  0  0  0  0  0
  -28.2374  -14.1963   24.3256 C   0  0  0  0  0  0  0  0  0  0  0  0
  -20.1251  -28.8145   23.3891 C   0  0  0  0  0  0  0  0  0  0  0  0
  -28.3154  -13.3223   23.0717 C   0  0  0  0  0  0  0  0  0  0  0  0
  -27.4744  -15.4940   24.0658 C   0  0  0  0  0  0  0  0  0  0  0  0
  -28.0341  -15.4052   21.6683 C   0  0  0  0  0  0  0  0  0  0  0  0
  -20.8073  -27.9747   22.3024 C   0  0  1  0  0  0  0  0  0  0  0  0
  -24.2210  -26.9011   23.5780 C   0  0  1  0  0  0  0  0  0  0  0  0
  -28.8495  -14.1165   21.8636 C   0  0  2  0  0  0  0  0  0  0  0  0
  -30.9174  -28.6608   27.0514 C   0  0  0  0  0  0  0  0  0  0  0  0
  -32.2450  -25.2401   19.6752 C   0  0  0  0  0  0  0  0  0  0  0  0
  -32.2653  -24.5092   17.2787 C   0  0  0  0  0  0  0  0  0  0  0  0
  -27.0612  -25.2330   15.9157 C   0  0  0  0  0  0  0  0  0  0  0  0
  -25.4380  -31.2815   24.4096 C   0  0  0  0  0  0  0  0  0  0  0  0
  -27.7499  -31.6055   25.3142 C   0  0  0  0  0  0  0  0  0  0  0  0
  -25.9554  -30.6862   26.7829 C   0  0  0  0  0  0  0  0  0  0  0  0
  -30.0244  -25.3626   25.3780 C   0  0  0  0  0  0  0  0  0  0  0  0
  -29.2629  -25.0616   17.1298 C   0  0  0  0  0  0  0  0  0  0  0  0
  -26.9198  -29.2372   24.9492 C   0  0  1  0  0  0  0  0  0  0  0  0
  -29.9859  -27.6082   26.4709 C   0  0  2  0  0  0  0  0  0  0  0  0
  -31.5176  -25.3367   18.3287 C   0  0  0  0  0  0  0  0  0  0  0  0
  -30.0192  -24.9608   18.4704 C   0  0  2  0  0  0  0  0  0  0  0  0
  -27.7360  -25.1563   17.2793 C   0  0  1  0  0  0  0  0  0  1  0  0
  -26.5111  -30.6850   25.3421 C   0  0  0  0  0  0  0  0  0  0  0  0
  -29.7141  -21.1254   19.9240 N   0  0  0  0  0  0  0  0  0  0  0  0
  -27.8226  -13.2829   19.7822 N   0  0  0  0  0  0  0  0  0  0  0  0
  -28.8849  -13.2695   20.6052 N   0  0  0  0  0  0  0  0  0  0  0  0
  -25.4611  -27.6685   23.7101 N   0  0  0  0  0  0  0  0  0  0  0  0
  -28.0387  -16.1944   22.9100 N   0  0  0  0  0  0  0  0  0  0  0  0
  -31.0411  -12.3314   20.8911 N   0  0  0  0  0  0  0  0  0  0  0  0
  -29.6216  -10.5158   17.0073 N   0  0  0  0  0  0  0  0  0  0  0  0
  -29.0620  -18.0647   21.9014 N   0  0  0  0  0  0  0  0  0  0  0  0
  -29.8514  -23.6476   19.0518 N   0  0  0  0  0  0  0  0  0  0  0  0
  -21.9406  -27.2617   22.8517 N   0  0  0  0  0  0  0  0  0  0  0  0
  -27.9149  -28.6370   25.8312 N   0  0  0  0  0  0  0  0  0  0  0  0
  -30.8134  -26.4804   25.9569 N   0  3  0  0  0  0  0  0  0  0  0  0
  -31.3524  -10.5790   18.5102 O   0  0  0  0  0  0  0  0  0  0  0  0
  -28.7616  -24.3436   20.9765 O   0  0  0  0  0  0  0  0  0  0  0  0
  -23.5209  -28.9614   22.6615 O   0  0  0  0  0  0  0  0  0  0  0  0
  -25.1030  -28.1061   25.9721 O   0  0  0  0  0  0  0  0  0  0  0  0
  -29.4984  -28.2285   24.1872 O   0  0  0  0  0  0  0  0  0  0  0  0
  -28.4765  -18.0983   24.1459 O   0  0  0  0  0  0  0  0  0  0  0  0
  -24.7192  -11.4515   14.5321 O   0  0  0  0  0  0  0  0  0  0  0  0
  -27.3788  -26.3345   18.0009 O   0  0  0  0  0  0  0  0  0  1  0  0
  -24.0825   -6.2189   12.9138 F   0  0  0  0  0  0  0  0  0  0  0  0
  -28.0188  -22.6909   22.7292 F   0  0  0  0  0  0  0  0  0  0  0  0
  -22.2346  -10.2409   14.5915 F   0  0  0  0  0  0  0  0  0  0  0  0
  1  2  1  0  0  0  0
  1  5  2  0  0  0  0
  2  6  2  0  0  0  0
  3  8  2  0  0  0  0
  3 17  1  0  0  0  0
  4  9  1  0  0  0  0
  4 17  2  0  0  0  0
  5 19  1  0  0  0  0
  6 21  1  0  0  0  0
  7 10  2  0  0  0  0
  7 20  1  0  0  0  0
  8 24  1  0  0  0  0
  9 24  2  0  0  0  0
 10 25  1  0  0  0  0
 11 12  2  0  0  0  0
 11 26  1  0  0  0  0
 12 27  1  0  0  0  0
 13 22  1  0  0  0  0
 13 25  2  0  0  0  0
 14 23  2  0  0  0  0
 14 28  1  0  0  0  0
 15 27  2  0  0  0  0
 15 29  1  0  0  0  0
 16 23  1  0  0  0  0
 16 66  2  0  0  0  0
 17 30  1  0  0  0  0
 18 30  1  0  0  0  0
 18 32  2  0  0  0  0
 18 33  1  0  0  0  0
 19 21  2  0  0  0  0
 19 39  1  0  0  0  0
 20 22  2  0  0  0  0
 20 40  1  0  0  0  0
 21 48  1  0  0  0  0
 22 41  1  0  0  0  0
 23 73  1  0  0  0  0
 24 84  1  0  0  0  0
 25 85  1  0  0  0  0
 26 29  2  0  0  0  0
 26 84  1  0  0  0  0
 27 86  1  0  0  0  0
 28 31  2  0  0  0  0
 28 87  1  0  0  0  0
 29 88  1  0  0  0  0
 30 67  2  0  0  0  0
 31 34  1  0  0  0  0
 31 66  1  0  0  0  0
 32 68  1  0  0  0  0
 32 71  1  0  0  0  0
 33 72  1  0  0  0  0
 33 78  2  0  0  0  0
 34 74  1  0  0  0  0
 34 79  2  0  0  0  0
 35 49  1  0  0  0  0
 35 75  1  0  0  0  0
 35 80  2  0  0  0  0
 36 60  1  0  0  0  0
 36 69  1  0  0  0  0
 36 81  2  0  0  0  0
 37 61  1  0  0  0  0
 37 76  1  0  0  0  0
 37 82  2  0  0  0  0
 38 70  1  0  0  0  0
 38 73  1  0  0  0  0
 38 83  2  0  0  0  0
 39 42  1  0  0  0  0
 40 49  1  0  0  0  0
 41 69  1  0  0  0  0
 42 44  1  0  0  0  0
 43 45  1  0  0  0  0
 43 46  1  0  0  0  0
 44 48  1  0  0  0  0
 45 50  1  0  0  0  0
 46 70  1  0  0  0  0
 47 50  1  0  0  0  0
 47 70  1  0  0  0  0
 48 75  1  0  0  0  0
 49 69  1  0  0  0  0
 50 68  1  0  0  0  0
 51 61  1  0  0  0  0
 52 62  1  0  0  0  0
 53 62  1  0  0  0  0
 54 64  1  0  0  0  0
 55 65  1  0  0  0  0
 56 65  1  0  0  0  0
 57 65  1  0  0  0  0
 58 77  1  0  0  0  0
 59 63  1  0  0  0  0
 59 64  1  0  0  0  0
 60 65  1  0  0  0  0
 60 76  1  0  0  0  0
 61 77  1  0  0  0  0
 62 63  1  0  0  0  0
 63 74  1  0  0  0  0
 64 85  1  0  0  0  0
 67 68  1  0  0  0  0
M  CHG  1  77   1
M  ISO  4  38 100  64 101  73 100  85 101
M  END
> <Batch ID>
0189

> <Smiles>
CNC(C)C(=O)NC(C(=O)N1Cc2cc([101O:1][101CH:1](C)CC(NC(=O)c3ncc([100NH:0][100C:0](=O)N4CCCC(n5nc(-c6ccc(Oc7ccc(F)cc7F)cc6)c(C(N)=O)c5N)C4)cc3F)C(C)C)ccc2CC1C(=O)NC1CCCc2ccccc21)C(C)(C)C

> <Shape>
0.236

> <Color>
0.072

> <Negative vol penalty>
0.000

$$$$

  -OEChem-04052305183D

 84 92  0     1  0  0  0  0  0999 V2000
  -20.1068   -8.3991   19.2534 C   0  0  0  0  0  0  0  0  0  0  0  0
  -19.9208   -9.7458   19.5485 C   0  0  0  0  0  0  0  0  0  0  0  0
  -28.5368  -26.2414   19.8209 C   0  0  0  0  0  0  0  0  0  0  0  0
  -26.3917  -25.3586   19.1453 C   0  0  0  0  0  0  0  0  0  0  0  0
  -21.2610   -7.7455   19.6830 C   0  0  0  0  0  0  0  0  0  0  0  0
  -20.8884  -10.4395   20.2743 C   0  0  0  0  0  0  0  0  0  0  0  0
  -22.4830  -16.3146   19.6062 C   0  0  0  0  0  0  0  0  0  0  0  0
  -29.1278  -25.0053   19.5597 C   0  0  0  0  0  0  0  0  0  0  0  0
  -26.9828  -24.1225   18.8841 C   0  0  0  0  0  0  0  0  0  0  0  0
  -22.1243  -17.4688   20.3012 C   0  0  0  0  0  0  0  0  0  0  0  0
  -29.3844  -21.9970   21.0791 C   0  0  0  0  0  0  0  0  0  0  0  0
  -30.2769  -21.4933   22.0253 C   0  0  0  0  0  0  0  0  0  0  0  0
  -24.1162  -17.2700   21.6473 C   0  0  0  0  0  0  0  0  0  0  0  0
  -32.0291  -21.4733   20.3621 C   0  0  0  0  0  0  0  0  0  0  0  0
  -20.3701  -26.6942   25.0271 C   0  0  0  0  0  0  0  0  0  0  0  0
  -27.1687  -26.4181   19.6137 C   0  0  0  0  0  0  0  0  0  0  0  0
  -26.3982  -28.7678   18.9867 C   0  0  0  0  0  0  0  0  0  0  0  0
  -22.2478   -8.4339   20.4061 C   0  0  0  0  0  0  0  0  0  0  0  0
  -23.6575  -15.6222   19.9344 C   0  0  0  0  0  0  0  0  0  0  0  0
  -22.0563   -9.7942   20.7151 C   0  0  0  0  0  0  0  0  0  0  0  0
  -24.4889  -16.1088   20.9533 C   0  0  0  0  0  0  0  0  0  0  0  0
  -28.3508  -23.9458   19.0913 C   0  0  0  0  0  0  0  0  0  0  0  0
  -22.9395  -17.9450   21.3239 C   0  0  0  0  0  0  0  0  0  0  0  0
  -29.8143  -22.2387   19.7743 C   0  0  0  0  0  0  0  0  0  0  0  0
  -31.5992  -21.2315   21.6669 C   0  0  0  0  0  0  0  0  0  0  0  0
  -31.1366  -21.9769   19.4158 C   0  0  0  0  0  0  0  0  0  0  0  0
  -26.5575  -27.6947   19.8838 C   0  0  0  0  0  0  0  0  0  0  0  0
  -21.2965  -27.2176   24.1497 C   0  0  0  0  0  0  0  0  0  0  0  0
  -25.7655  -29.7396   19.7227 C   0  0  0  0  0  0  0  0  0  0  0  0
  -21.9893  -25.1368   24.1583 C   0  0  0  0  0  0  0  0  0  0  0  0
  -26.7873  -28.8763   17.6110 C   0  0  0  0  0  0  0  0  0  0  0  0
  -24.3151  -12.7036   21.0082 C   0  0  0  0  0  0  0  0  0  0  0  0
  -22.2736  -29.4402   24.6041 C   0  0  0  0  0  0  0  0  0  0  0  0
  -27.3834  -13.6439   20.5355 C   0  0  0  0  0  0  0  0  0  0  0  0
  -23.8019  -23.7535   23.0901 C   0  0  0  0  0  0  0  0  0  0  0  0
  -29.6182  -16.2085   20.2613 C   0  0  0  0  0  0  0  0  0  0  0  0
  -23.4567   -7.6730   20.8900 C   0  0  0  0  0  0  0  0  0  0  0  0
  -24.0440  -14.3938   19.1573 C   0  0  0  0  0  0  0  0  0  0  0  0
  -25.7706  -15.4136   21.3307 C   0  0  0  0  0  0  0  0  0  0  0  0
  -24.6072   -8.5742   21.3311 C   0  0  0  0  0  0  0  0  0  0  0  0
  -25.2842  -31.3404   24.1975 C   0  0  0  0  0  0  0  0  0  0  0  0
  -24.0930   -9.6960   22.2277 C   0  0  0  0  0  0  0  0  0  0  0  0
  -25.9513  -30.7000   22.9809 C   0  0  0  0  0  0  0  0  0  0  0  0
  -24.5490  -30.3039   25.0413 C   0  0  0  0  0  0  0  0  0  0  0  0
  -24.2111  -28.8588   23.0616 C   0  0  0  0  0  0  0  0  0  0  0  0
  -23.0946  -10.5871   21.4789 C   0  0  1  0  0  0  0  0  0  0  0  0
  -24.9994  -13.4807   19.9194 C   0  0  1  0  0  0  0  0  0  0  0  0
  -24.9393  -29.8761   22.1653 C   0  0  2  0  0  0  0  0  0  0  0  0
  -32.0614  -16.6637   19.9138 C   0  0  0  0  0  0  0  0  0  0  0  0
  -27.9401  -12.8523   23.4292 C   0  0  0  0  0  0  0  0  0  0  0  0
  -30.0595  -14.1798   23.3114 C   0  0  0  0  0  0  0  0  0  0  0  0
  -29.7357  -12.2147   21.8094 C   0  0  0  0  0  0  0  0  0  0  0  0
  -29.1034  -17.6944   17.7541 C   0  0  0  0  0  0  0  0  0  0  0  0
  -23.2098  -21.3296   22.5898 C   0  0  0  0  0  0  0  0  0  0  0  0
  -23.6531  -19.8696   22.5250 C   0  0  0  0  0  0  0  0  0  1  0  0
  -21.3704  -28.6258   23.7125 C   0  0  2  0  0  0  0  0  0  0  0  0
  -28.4308  -14.3360   21.3740 C   0  0  1  0  0  0  0  0  0  0  0  0
  -24.2723  -22.3038   23.1067 C   0  0  1  0  0  0  0  0  0  0  0  0
  -30.7077  -16.4906   19.2427 C   0  0  2  0  0  0  0  0  0  0  0  0
  -29.0164  -13.4079   22.4754 C   0  0  0  0  0  0  0  0  0  0  0  0
  -26.0658  -27.9596   21.0971 N   0  0  0  0  0  0  0  0  0  0  0  0
  -22.2261  -26.3261   23.6508 N   0  0  0  0  0  0  0  0  0  0  0  0
  -25.5914  -29.2103   20.9675 N   0  0  0  0  0  0  0  0  0  0  0  0
  -26.1020  -14.2129   20.5458 N   0  0  0  0  0  0  0  0  0  0  0  0
  -23.6135  -29.5272   24.2259 N   0  0  0  0  0  0  0  0  0  0  0  0
  -25.3467  -30.9868   19.4200 N   0  0  0  0  0  0  0  0  0  0  0  0
  -27.4272  -27.7841   17.0094 N   0  0  0  0  0  0  0  0  0  0  0  0
  -22.6984  -23.9360   23.9177 N   0  0  0  0  0  0  0  0  0  0  0  0
  -23.7923  -11.4939   20.5927 N   0  0  0  0  0  0  0  0  0  0  0  0
  -29.4239  -14.8552   20.4399 N   0  0  0  0  0  0  0  0  0  0  0  0
  -25.5258  -22.1524   22.3145 N   0  3  0  0  0  0  0  0  0  0  0  0
  -30.3972  -17.7346   18.4831 N   0  3  0  0  0  0  0  0  0  0  0  0
  -26.5886  -29.9173   16.9399 O   0  0  0  0  0  0  0  0  0  0  0  0
  -24.2662  -13.1666   22.1418 O   0  0  0  0  0  0  0  0  0  0  0  0
  -21.7999  -29.9845   25.6049 O   0  0  0  0  0  0  0  0  0  0  0  0
  -27.6927  -12.6396   19.8893 O   0  0  0  0  0  0  0  0  0  0  0  0
  -24.3694  -24.6041   22.4109 O   0  0  0  0  0  0  0  0  0  0  0  0
  -29.0037  -17.0996   20.8434 O   0  0  0  0  0  0  0  0  0  0  0  0
  -28.9273  -22.7395   18.8362 O   0  0  0  0  0  0  0  0  0  0  0  0
  -22.5913  -19.0710   22.0043 O   0  0  0  0  0  0  0  0  0  1  0  0
  -32.4565  -20.7493   22.5761 F   0  0  0  0  0  0  0  0  0  0  0  0
  -31.5557  -22.2083   18.1642 F   0  0  0  0  0  0  0  0  0  0  0  0
  -20.1464  -29.2517   23.6457 F   0  0  0  0  0  0  0  0  0  0  0  0
  -20.6641  -25.0183   25.2421 S   0  0  0  0  0  0  0  0  0  0  0  0
  1  2  1  0  0  0  0
  1  5  2  0  0  0  0
  2  6  2  0  0  0  0
  3  8  2  0  0  0  0
  3 16  1  0  0  0  0
  4  9  1  0  0  0  0
  4 16  2  0  0  0  0
  5 18  1  0  0  0  0
  6 20  1  0  0  0  0
  7 10  2  0  0  0  0
  7 19  1  0  0  0  0
  8 22  1  0  0  0  0
  9 22  2  0  0  0  0
 10 23  1  0  0  0  0
 11 12  2  0  0  0  0
 11 24  1  0  0  0  0
 12 25  1  0  0  0  0
 13 21  1  0  0  0  0
 13 23  2  0  0  0  0
 14 25  2  0  0  0  0
 14 26  1  0  0  0  0
 15 28  2  0  0  0  0
 15 84  1  0  0  0  0
 16 27  1  0  0  0  0
 17 27  1  0  0  0  0
 17 29  2  0  0  0  0
 17 31  1  0  0  0  0
 18 20  2  0  0  0  0
 18 37  1  0  0  0  0
 19 21  2  0  0  0  0
 19 38  1  0  0  0  0
 20 46  1  0  0  0  0
 21 39  1  0  0  0  0
 22 79  1  0  0  0  0
 23 80  1  0  0  0  0
 24 26  2  0  0  0  0
 24 79  1  0  0  0  0
 25 81  1  0  0  0  0
 26 82  1  0  0  0  0
 27 61  2  0  0  0  0
 28 56  1  0  0  0  0
 28 62  1  0  0  0  0
 29 63  1  0  0  0  0
 29 66  1  0  0  0  0
 30 62  2  0  0  0  0
 30 68  1  0  0  0  0
 30 84  1  0  0  0  0
 31 67  1  0  0  0  0
 31 73  2  0  0  0  0
 32 47  1  0  0  0  0
 32 69  1  0  0  0  0
 32 74  2  0  0  0  0
 33 56  1  0  0  0  0
 33 65  1  0  0  0  0
 33 75  2  0  0  0  0
 34 57  1  0  0  0  0
 34 64  1  0  0  0  0
 34 76  2  0  0  0  0
 35 58  1  0  0  0  0
 35 68  1  0  0  0  0
 35 77  2  0  0  0  0
 36 59  1  0  0  0  0
 36 70  1  0  0  0  0
 36 78  2  0  0  0  0
 37 40  1  0  0  0  0
 38 47  1  0  0  0  0
 39 64  1  0  0  0  0
 40 42  1  0  0  0  0
 41 43  1  0  0  0  0
 41 44  1  0  0  0  0
 42 46  1  0  0  0  0
 43 48  1  0  0  0  0
 44 65  1  0  0  0  0
 45 48  1  0  0  0  0
 45 65  1  0  0  0  0
 46 69  1  0  0  0  0
 47 64  1  0  0  0  0
 48 63  1  0  0  0  0
 49 59  1  0  0  0  0
 50 60  1  0  0  0  0
 51 60  1  0  0  0  0
 52 60  1  0  0  0  0
 53 72  1  0  0  0  0
 54 55  1  0  0  0  0
 54 58  1  0  0  0  0
 55 80  1  0  0  0  0
 56 83  1  0  0  0  0
 57 60  1  0  0  0  0
 57 70  1  0  0  0  0
 58 71  1  0  0  0  0
 59 72  1  0  0  0  0
 61 63  1  0  0  0  0
M  CHG  2  71   1  72   1
M  ISO  4  33 100  55 101  56 100  80 101
M  END
> <Batch ID>
0189

> <Smiles>
CNC(C)C(=O)NC(C(=O)N1Cc2cc([101O:1][101CH2:1]CC(N)C(=O)Nc3nc([100CH:0](F)[100C:0](=O)N4CCCC(n5nc(-c6ccc(Oc7ccc(F)cc7F)cc6)c(C(N)=O)c5N)C4)cs3)ccc2CC1C(=O)NC1CCCc2ccccc21)C(C)(C)C

> <Shape>
0.244

> <Color>
0.051

> <Negative vol penalty>
0.000

$$$$

  -OEChem-04052305183D

 84 91  0     1  0  0  0  0  0999 V2000
  -29.7344  -12.4371   20.3276 C   0  0  0  0  0  0  0  0  0  0  0  0
  -29.6000  -13.6137   21.0576 C   0  0  0  0  0  0  0  0  0  0  0  0
  -29.5350  -22.1561   19.8024 C   0  0  0  0  0  0  0  0  0  0  0  0
  -27.2908  -21.8048   18.9794 C   0  0  0  0  0  0  0  0  0  0  0  0
  -28.8957  -12.1926   19.2410 C   0  0  0  0  0  0  0  0  0  0  0  0
  -28.6275  -14.5471   20.7006 C   0  0  0  0  0  0  0  0  0  0  0  0
  -24.2264  -19.4062   23.5880 C   0  0  0  0  0  0  0  0  0  0  0  0
  -29.6962  -20.7786   19.9509 C   0  0  0  0  0  0  0  0  0  0  0  0
  -27.4521  -20.4272   19.1279 C   0  0  0  0  0  0  0  0  0  0  0  0
  -23.8710  -20.7482   23.4599 C   0  0  0  0  0  0  0  0  0  0  0  0
  -28.7806  -18.3876   22.1576 C   0  0  0  0  0  0  0  0  0  0  0  0
  -29.3586  -17.9273   23.3406 C   0  0  0  0  0  0  0  0  0  0  0  0
  -22.4261  -20.1829   21.6128 C   0  0  0  0  0  0  0  0  0  0  0  0
  -31.1485  -16.9150   22.0723 C   0  0  0  0  0  0  0  0  0  0  0  0
  -28.3323  -22.6692   19.3167 C   0  0  0  0  0  0  0  0  0  0  0  0
  -28.4612  -24.8653   18.0251 C   0  0  0  0  0  0  0  0  0  0  0  0
  -27.9060  -13.1190   18.8765 C   0  0  0  0  0  0  0  0  0  0  0  0
  -23.6919  -18.4424   22.7210 C   0  0  0  0  0  0  0  0  0  0  0  0
  -27.7757  -14.3154   19.6073 C   0  0  0  0  0  0  0  0  0  0  0  0
  -22.7744  -18.8289   21.7336 C   0  0  0  0  0  0  0  0  0  0  0  0
  -28.6548  -19.9141   19.6137 C   0  0  0  0  0  0  0  0  0  0  0  0
  -22.9729  -21.1371   22.4704 C   0  0  0  0  0  0  0  0  0  0  0  0
  -29.3865  -18.1115   20.9318 C   0  0  0  0  0  0  0  0  0  0  0  0
  -30.5425  -17.1910   23.2980 C   0  0  0  0  0  0  0  0  0  0  0  0
  -30.5704  -17.3753   20.8892 C   0  0  0  0  0  0  0  0  0  0  0  0
  -28.1650  -24.0921   19.1636 C   0  0  0  0  0  0  0  0  0  0  0  0
  -28.1275  -26.1481   18.3849 C   0  0  0  0  0  0  0  0  0  0  0  0
  -28.9906  -24.4601   16.7557 C   0  0  0  0  0  0  0  0  0  0  0  0
  -24.9064  -16.4302   20.5810 C   0  0  0  0  0  0  0  0  0  0  0  0
  -24.3002  -28.2976   22.4889 C   0  0  0  0  0  0  0  0  0  0  0  0
  -21.8508  -15.3508   20.4384 C   0  0  0  0  0  0  0  0  0  0  0  0
  -18.5301  -15.9824   20.9085 C   0  0  0  0  0  0  0  0  0  0  0  0
  -21.0097  -26.4425   21.9096 C   0  0  0  0  0  0  0  0  0  0  0  0
  -27.0542  -12.8325   17.6653 C   0  0  0  0  0  0  0  0  0  0  0  0
  -24.0649  -16.9950   22.8894 C   0  0  0  0  0  0  0  0  0  0  0  0
  -22.1565  -17.8303   20.7906 C   0  0  0  0  0  0  0  0  0  0  0  0
  -25.8017  -13.7012   17.5822 C   0  0  0  0  0  0  0  0  0  0  0  0
  -27.7992  -29.0117   22.1941 C   0  0  0  0  0  0  0  0  0  0  0  0
  -26.1464  -15.1621   17.8540 C   0  0  0  0  0  0  0  0  0  0  0  0
  -28.3217  -27.8853   21.3034 C   0  0  0  0  0  0  0  0  0  0  0  0
  -26.6822  -28.5252   23.1122 C   0  0  0  0  0  0  0  0  0  0  0  0
  -26.0630  -26.7520   21.5016 C   0  0  0  0  0  0  0  0  0  0  0  0
  -26.7164  -15.3409   19.2663 C   0  0  1  0  0  0  0  0  0  0  0  0
  -23.8542  -16.1723   21.6221 C   0  0  1  0  0  0  0  0  0  0  0  0
  -27.1718  -27.2083   20.5367 C   0  0  2  0  0  0  0  0  0  0  0  0
  -23.1818  -28.2044   20.2791 C   0  0  0  0  0  0  0  0  0  0  0  0
  -16.2696  -14.9192   20.6697 C   0  0  0  0  0  0  0  0  0  0  0  0
  -20.9450  -23.0093   23.9694 C   0  0  0  0  0  0  0  0  0  0  0  0
  -21.9777  -15.7651   17.4181 C   0  0  0  0  0  0  0  0  0  0  0  0
  -19.4793  -15.6122   17.3623 C   0  0  0  0  0  0  0  0  0  0  0  0
  -20.8295  -13.6623   18.1353 C   0  0  0  0  0  0  0  0  0  0  0  0
  -17.9792  -16.2299   23.8058 C   0  0  0  0  0  0  0  0  0  0  0  0
  -23.2626  -27.5752   21.6670 C   0  0  2  0  0  0  0  0  0  0  0  0
  -20.6310  -15.6991   19.6200 C   0  0  1  0  0  0  0  0  0  0  0  0
  -17.4413  -15.1839   21.6023 C   0  0  2  0  0  0  0  0  0  0  0  0
  -21.9330  -27.5295   22.4396 C   0  0  1  0  0  0  0  0  0  0  0  0
  -20.8811  -23.9747   21.6072 C   0  0  2  0  0  0  0  0  0  0  0  0
  -21.2426  -22.7686   22.4928 C   0  0  1  0  0  0  0  0  0  1  0  0
  -20.7423  -15.2040   18.1503 C   0  0  0  0  0  0  0  0  0  0  0  0
  -21.1776  -23.7249   20.1361 C   0  0  0  0  0  0  0  0  0  0  0  0
  -27.6805  -24.8228   20.1713 N   0  0  0  0  0  0  0  0  0  0  0  0
  -27.6699  -26.0685   19.6672 N   0  0  0  0  0  0  0  0  0  0  0  0
  -22.5577  -16.4280   20.9913 N   0  0  0  0  0  0  0  0  0  0  0  0
  -25.6200  -27.8683   22.3483 N   0  0  0  0  0  0  0  0  0  0  0  0
  -28.1840  -27.3252   17.7263 N   0  0  0  0  0  0  0  0  0  0  0  0
  -29.2778  -23.1032   16.5540 N   0  0  0  0  0  0  0  0  0  0  0  0
  -25.6528  -15.3161   20.2474 N   0  0  0  0  0  0  0  0  0  0  0  0
  -19.4853  -15.1622   20.3462 N   0  0  0  0  0  0  0  0  0  0  0  0
  -21.5586  -25.1761   22.0402 N   0  0  0  0  0  0  0  0  0  0  0  0
  -21.2438  -28.8516   22.4041 N   0  3  0  0  0  0  0  0  0  0  0  0
  -16.9360  -15.9233   22.7935 N   0  3  0  0  0  0  0  0  0  0  0  0
  -29.2181  -25.2795   15.8336 O   0  0  0  0  0  0  0  0  0  0  0  0
  -25.0309  -17.5562   20.1138 O   0  0  0  0  0  0  0  0  0  0  0  0
  -23.9466  -29.2176   23.2310 O   0  0  0  0  0  0  0  0  0  0  0  0
  -22.1608  -14.1662   20.5878 O   0  0  0  0  0  0  0  0  0  0  0  0
  -18.5311  -17.2107   20.8662 O   0  0  0  0  0  0  0  0  0  0  0  0
  -19.9087  -26.6892   21.4222 O   0  0  0  0  0  0  0  0  0  0  0  0
  -28.8118  -18.5699   19.7582 O   0  0  0  0  0  0  0  0  0  0  0  0
  -22.6247  -22.4465   22.3428 O   0  0  0  0  0  0  0  0  0  1  0  0
  -31.0983  -16.7504   24.4343 F   0  0  0  0  0  0  0  0  0  0  0  0
  -31.1578  -17.1079   19.7147 F   0  0  0  0  0  0  0  0  0  0  0  0
  -20.8503  -24.8023   19.3881 F   0  0  0  0  0  0  0  0  0  0  0  0
  -22.4954  -23.4889   19.9436 F   0  0  0  0  0  0  0  0  0  0  0  0
  -20.4971  -22.6651   19.6511 F   0  0  0  0  0  0  0  0  0  0  0  0
  1  2  1  0  0  0  0
  1  5  2  0  0  0  0
  2  6  2  0  0  0  0
  3  8  2  0  0  0  0
  3 15  1  0  0  0  0
  4  9  1  0  0  0  0
  4 15  2  0  0  0  0
  5 17  1  0  0  0  0
  6 19  1  0  0  0  0
  7 10  2  0  0  0  0
  7 18  1  0  0  0  0
  8 21  1  0  0  0  0
  9 21  2  0  0  0  0
 10 22  1  0  0  0  0
 11 12  2  0  0  0  0
 11 23  1  0  0  0  0
 12 24  1  0  0  0  0
 13 20  1  0  0  0  0
 13 22  2  0  0  0  0
 14 24  2  0  0  0  0
 14 25  1  0  0  0  0
 15 26  1  0  0  0  0
 16 26  1  0  0  0  0
 16 27  2  0  0  0  0
 16 28  1  0  0  0  0
 17 19  2  0  0  0  0
 17 34  1  0  0  0  0
 18 20  2  0  0  0  0
 18 35  1  0  0  0  0
 19 43  1  0  0  0  0
 20 36  1  0  0  0  0
 21 78  1  0  0  0  0
 22 79  1  0  0  0  0
 23 25  2  0  0  0  0
 23 78  1  0  0  0  0
 24 80  1  0  0  0  0
 25 81  1  0  0  0  0
 26 61  2  0  0  0  0
 27 62  1  0  0  0  0
 27 65  1  0  0  0  0
 28 66  1  0  0  0  0
 28 72  2  0  0  0  0
 29 44  1  0  0  0  0
 29 67  1  0  0  0  0
 29 73  2  0  0  0  0
 30 53  1  0  0  0  0
 30 64  1  0  0  0  0
 30 74  2  0  0  0  0
 31 54  1  0  0  0  0
 31 63  1  0  0  0  0
 31 75  2  0  0  0  0
 32 55  1  0  0  0  0
 32 68  1  0  0  0  0
 32 76  2  0  0  0  0
 33 56  1  0  0  0  0
 33 69  1  0  0  0  0
 33 77  2  0  0  0  0
 34 37  1  0  0  0  0
 35 44  1  0  0  0  0
 36 63  1  0  0  0  0
 37 39  1  0  0  0  0
 38 40  1  0  0  0  0
 38 41  1  0  0  0  0
 39 43  1  0  0  0  0
 40 45  1  0  0  0  0
 41 64  1  0  0  0  0
 42 45  1  0  0  0  0
 42 64  1  0  0  0  0
 43 67  1  0  0  0  0
 44 63  1  0  0  0  0
 45 62  1  0  0  0  0
 46 53  1  0  0  0  0
 47 55  1  0  0  0  0
 48 58  1  0  0  0  0
 49 59  1  0  0  0  0
 50 59  1  0  0  0  0
 51 59  1  0  0  0  0
 52 71  1  0  0  0  0
 53 56  1  0  0  0  0
 54 59  1  0  0  0  0
 54 68  1  0  0  0  0
 55 71  1  0  0  0  0
 56 70  1  0  0  0  0
 57 58  1  0  0  0  0
 57 60  1  0  0  0  0
 57 69  1  0  0  0  0
 58 79  1  0  0  0  0
 60 82  1  0  0  0  0
 60 83  1  0  0  0  0
 60 84  1  0  0  0  0
 61 62  1  0  0  0  0
M  CHG  2  70   1  71   1
M  ISO  4  30 100  53 100  58 101  79 101
M  END
> <Batch ID>
0189

> <Smiles>
CNC(C)C(=O)NC(C(=O)N1Cc2cc([101O:1][101CH:1](C)C(NC(=O)C(N)[100CH:0](C)[100C:0](=O)N3CCCC(n4nc(-c5ccc(Oc6ccc(F)cc6F)cc5)c(C(N)=O)c4N)C3)C(F)(F)F)ccc2CC1C(=O)NC1CCCc2ccccc21)C(C)(C)C

> <Shape>
0.198

> <Color>
0.071

> <Negative vol penalty>
0.000

$$$$

  -OEChem-04052305183D

 84 92  0     1  0  0  0  0  0999 V2000
  -18.3022  -28.1263   23.5747 C   0  0  0  0  0  0  0  0  0  0  0  0
  -19.6363  -27.9873   23.9439 C   0  0  0  0  0  0  0  0  0  0  0  0
  -24.3882  -13.9992   20.4965 C   0  0  0  0  0  0  0  0  0  0  0  0
  -26.7387  -13.6900   20.9614 C   0  0  0  0  0  0  0  0  0  0  0  0
  -17.8940  -27.7651   22.2914 C   0  0  0  0  0  0  0  0  0  0  0  0
  -20.5628  -27.4859   23.0303 C   0  0  0  0  0  0  0  0  0  0  0  0
  -24.8704  -30.1479   22.9731 C   0  0  0  0  0  0  0  0  0  0  0  0
  -24.2540  -12.6305   20.2641 C   0  0  0  0  0  0  0  0  0  0  0  0
  -26.6046  -12.3212   20.7291 C   0  0  0  0  0  0  0  0  0  0  0  0
  -25.7759  -29.9161   24.0076 C   0  0  0  0  0  0  0  0  0  0  0  0
  -23.2161   -9.1655   19.9012 C   0  0  0  0  0  0  0  0  0  0  0  0
  -22.1198   -8.5158   20.4683 C   0  0  0  0  0  0  0  0  0  0  0  0
  -27.0685  -28.4940   22.5495 C   0  0  0  0  0  0  0  0  0  0  0  0
  -22.8795   -9.1561   22.6705 C   0  0  0  0  0  0  0  0  0  0  0  0
  -28.6342  -23.4930   22.8245 C   0  0  0  0  0  0  0  0  0  0  0  0
  -25.6305  -14.5291   20.8450 C   0  0  0  0  0  0  0  0  0  0  0  0
  -25.6161  -16.6167   22.3111 C   0  0  0  0  0  0  0  0  0  0  0  0
  -18.8178  -27.2682   21.3585 C   0  0  0  0  0  0  0  0  0  0  0  0
  -25.0516  -29.5447   21.7202 C   0  0  0  0  0  0  0  0  0  0  0  0
  -20.1663  -27.1165   21.7338 C   0  0  0  0  0  0  0  0  0  0  0  0
  -26.1653  -28.7217   21.5000 C   0  0  0  0  0  0  0  0  0  0  0  0
  -25.3622  -11.7914   20.3805 C   0  0  0  0  0  0  0  0  0  0  0  0
  -26.8736  -29.0868   23.7968 C   0  0  0  0  0  0  0  0  0  0  0  0
  -24.1442   -9.8104   20.7187 C   0  0  0  0  0  0  0  0  0  0  0  0
  -21.9515   -8.5112   21.8529 C   0  0  0  0  0  0  0  0  0  0  0  0
  -23.9759   -9.8058   22.1034 C   0  0  0  0  0  0  0  0  0  0  0  0
  -25.7699  -15.9430   21.0846 C   0  0  0  0  0  0  0  0  0  0  0  0
  -30.1287  -25.3444   21.6138 C   0  0  0  0  0  0  0  0  0  0  0  0
  -28.9972  -23.3602   21.5024 C   0  0  0  0  0  0  0  0  0  0  0  0
  -29.7651  -25.4775   22.9357 C   0  0  0  0  0  0  0  0  0  0  0  0
  -25.8501  -17.9361   22.0099 C   0  0  0  0  0  0  0  0  0  0  0  0
  -25.2908  -16.0962   23.6069 C   0  0  0  0  0  0  0  0  0  0  0  0
  -23.3842  -27.4918   19.9569 C   0  0  0  0  0  0  0  0  0  0  0  0
  -25.6813  -28.1192   17.7542 C   0  0  0  0  0  0  0  0  0  0  0  0
  -28.8642  -29.1655   17.1049 C   0  0  0  0  0  0  0  0  0  0  0  0
  -28.8165  -21.8979   19.4590 C   0  0  0  0  0  0  0  0  0  0  0  0
  -18.3207  -26.8467   19.9984 C   0  0  0  0  0  0  0  0  0  0  0  0
  -24.0804  -29.8261   20.6067 C   0  0  0  0  0  0  0  0  0  0  0  0
  -26.4160  -28.0665   20.1673 C   0  0  0  0  0  0  0  0  0  0  0  0
  -19.4347  -26.6754   18.9689 C   0  0  0  0  0  0  0  0  0  0  0  0
  -26.3035  -20.2636   17.5379 C   0  0  0  0  0  0  0  0  0  0  0  0
  -20.5899  -25.8741   19.5606 C   0  0  0  0  0  0  0  0  0  0  0  0
  -25.9280  -19.0493   18.3902 C   0  0  0  0  0  0  0  0  0  0  0  0
  -27.7970  -20.5740   17.6197 C   0  0  0  0  0  0  0  0  0  0  0  0
  -27.9517  -19.5048   19.8338 C   0  0  0  0  0  0  0  0  0  0  0  0
  -21.2058  -26.5998   20.7629 C   0  0  1  0  0  0  0  0  0  0  0  0
  -24.0830  -28.7500   19.5253 C   0  0  1  0  0  0  0  0  0  0  0  0
  -26.4463  -19.1926   19.8346 C   0  0  2  0  0  0  0  0  0  0  0  0
  -30.9632  -26.3682   20.9211 C   0  0  0  0  0  0  0  0  0  0  0  0
  -30.4683  -29.5358   15.2109 C   0  0  0  0  0  0  0  0  0  0  0  0
  -30.7580  -25.9522   25.9046 C   0  0  0  0  0  0  0  0  0  0  0  0
  -29.2925  -30.6922   25.0084 C   0  0  0  0  0  0  0  0  0  0  0  0
  -26.1336  -25.1084   17.5518 C   0  0  0  0  0  0  0  0  0  0  0  0
  -28.3141  -25.5826   16.4165 C   0  0  0  0  0  0  0  0  0  0  0  0
  -26.1758  -26.3191   15.3639 C   0  0  0  0  0  0  0  0  0  0  0  0
  -29.0891  -32.0544   17.7070 C   0  0  0  0  0  0  0  0  0  0  0  0
  -30.0404  -28.3116   25.3744 C   0  0  0  0  0  0  0  0  0  0  0  0
  -27.0278  -27.5266   17.4152 C   0  0  1  0  0  0  0  0  0  0  0  0
  -29.4108  -30.1667   16.1033 C   0  0  2  0  0  0  0  0  0  0  0  0
  -29.8562  -26.8236   25.0346 C   0  0  1  0  0  0  0  0  0  0  0  0
  -29.1143  -29.2417   24.5784 C   0  0  1  0  0  0  0  0  0  1  0  0
  -26.9073  -26.1448   16.7127 C   0  0  0  0  0  0  0  0  0  0  0  0
  -29.0116  -24.5541   23.5649 N   0  0  0  0  0  0  0  0  0  0  0  0
  -26.0776  -16.7666   20.0791 N   0  0  0  0  0  0  0  0  0  0  0  0
  -29.7510  -24.2835   20.8733 N   0  0  0  0  0  0  0  0  0  0  0  0
  -26.1190  -17.9713   20.6733 N   0  0  0  0  0  0  0  0  0  0  0  0
  -25.4346  -28.3674   19.1119 N   0  0  0  0  0  0  0  0  0  0  0  0
  -28.2155  -20.7002   19.0175 N   0  0  0  0  0  0  0  0  0  0  0  0
  -25.8499  -19.0581   22.7606 N   0  0  0  0  0  0  0  0  0  0  0  0
  -25.0823  -14.7167   23.7397 N   0  0  0  0  0  0  0  0  0  0  0  0
  -28.5586  -22.2152   20.7922 N   0  0  0  0  0  0  0  0  0  0  0  0
  -30.1836  -26.5899   23.6436 N   0  0  0  0  0  0  0  0  0  0  0  0
  -22.0634  -27.6773   20.3179 N   0  0  0  0  0  0  0  0  0  0  0  0
  -27.7324  -28.5358   16.6319 N   0  0  0  0  0  0  0  0  0  0  0  0
  -30.0240  -31.3258   16.8115 N   0  3  0  0  0  0  0  0  0  0  0  0
  -25.1720  -16.8348   24.6138 O   0  0  0  0  0  0  0  0  0  0  0  0
  -23.9976  -26.4309   19.9606 O   0  0  0  0  0  0  0  0  0  0  0  0
  -24.8808  -28.3597   16.8471 O   0  0  0  0  0  0  0  0  0  0  0  0
  -29.3909  -28.9597   18.1961 O   0  0  0  0  0  0  0  0  0  0  0  0
  -29.4864  -22.6052   18.7020 O   0  0  0  0  0  0  0  0  0  0  0  0
  -25.2317  -10.4556   20.1541 O   0  0  0  0  0  0  0  0  0  0  0  0
  -27.7586  -28.8583   24.8050 O   0  0  0  0  0  0  0  0  0  1  0  0
  -20.8978   -7.8886   22.3973 F   0  0  0  0  0  0  0  0  0  0  0  0
  -24.8635  -10.4247   22.8939 F   0  0  0  0  0  0  0  0  0  0  0  0
  1  2  1  0  0  0  0
  1  5  2  0  0  0  0
  2  6  2  0  0  0  0
  3  8  2  0  0  0  0
  3 16  1  0  0  0  0
  4  9  1  0  0  0  0
  4 16  2  0  0  0  0
  5 18  1  0  0  0  0
  6 20  1  0  0  0  0
  7 10  2  0  0  0  0
  7 19  1  0  0  0  0
  8 22  1  0  0  0  0
  9 22  2  0  0  0  0
 10 23  1  0  0  0  0
 11 12  2  0  0  0  0
 11 24  1  0  0  0  0
 12 25  1  0  0  0  0
 13 21  1  0  0  0  0
 13 23  2  0  0  0  0
 14 25  2  0  0  0  0
 14 26  1  0  0  0  0
 15 29  1  0  0  0  0
 15 63  2  0  0  0  0
 16 27  1  0  0  0  0
 17 27  1  0  0  0  0
 17 31  2  0  0  0  0
 17 32  1  0  0  0  0
 18 20  2  0  0  0  0
 18 37  1  0  0  0  0
 19 21  2  0  0  0  0
 19 38  1  0  0  0  0
 20 46  1  0  0  0  0
 21 39  1  0  0  0  0
 22 81  1  0  0  0  0
 23 82  1  0  0  0  0
 24 26  2  0  0  0  0
 24 81  1  0  0  0  0
 25 83  1  0  0  0  0
 26 84  1  0  0  0  0
 27 64  2  0  0  0  0
 28 30  2  0  0  0  0
 28 49  1  0  0  0  0
 28 65  1  0  0  0  0
 29 65  2  0  0  0  0
 29 71  1  0  0  0  0
 30 63  1  0  0  0  0
 30 72  1  0  0  0  0
 31 66  1  0  0  0  0
 31 69  1  0  0  0  0
 32 70  1  0  0  0  0
 32 76  2  0  0  0  0
 33 47  1  0  0  0  0
 33 73  1  0  0  0  0
 33 77  2  0  0  0  0
 34 58  1  0  0  0  0
 34 67  1  0  0  0  0
 34 78  2  0  0  0  0
 35 59  1  0  0  0  0
 35 74  1  0  0  0  0
 35 79  2  0  0  0  0
 36 68  1  0  0  0  0
 36 71  1  0  0  0  0
 36 80  2  0  0  0  0
 37 40  1  0  0  0  0
 38 47  1  0  0  0  0
 39 67  1  0  0  0  0
 40 42  1  0  0  0  0
 41 43  1  0  0  0  0
 41 44  1  0  0  0  0
 42 46  1  0  0  0  0
 43 48  1  0  0  0  0
 44 68  1  0  0  0  0
 45 48  1  0  0  0  0
 45 68  1  0  0  0  0
 46 73  1  0  0  0  0
 47 67  1  0  0  0  0
 48 66  1  0  0  0  0
 50 59  1  0  0  0  0
 51 60  1  0  0  0  0
 52 61  1  0  0  0  0
 53 62  1  0  0  0  0
 54 62  1  0  0  0  0
 55 62  1  0  0  0  0
 56 75  1  0  0  0  0
 57 60  1  0  0  0  0
 57 61  1  0  0  0  0
 58 62  1  0  0  0  0
 58 74  1  0  0  0  0
 59 75  1  0  0  0  0
 60 72  1  0  0  0  0
 61 82  1  0  0  0  0
 64 66  1  0  0  0  0
M  CHG  1  75   1
M  ISO  4  36 100  61 101  71 100  82 101
M  END
> <Batch ID>
0189

> <Smiles>
CNC(C)C(=O)NC(C(=O)N1Cc2cc([101O:1][101CH:1](C)CC(C)Nc3ncc([100NH:0][100C:0](=O)N4CCCC(n5nc(-c6ccc(Oc7ccc(F)cc7F)cc6)c(C(N)=O)c5N)C4)nc3C)ccc2CC1C(=O)NC1CCCc2ccccc21)C(C)(C)C

> <Shape>
0.231

> <Color>
0.074

> <Negative vol penalty>
0.000

$$$$

  -OEChem-04052305183D

 85 93  0     1  0  0  0  0  0999 V2000
  -27.9899  -24.1423   17.0989 C   0  0  0  0  0  0  0  0  0  0  0  0
  -26.8305  -24.3631   17.8354 C   0  0  0  0  0  0  0  0  0  0  0  0
  -25.3906  -14.7223   19.9094 C   0  0  0  0  0  0  0  0  0  0  0  0
  -23.0870  -14.3751   20.5496 C   0  0  0  0  0  0  0  0  0  0  0  0
  -29.1958  -24.7061   17.5136 C   0  0  0  0  0  0  0  0  0  0  0  0
  -26.8764  -25.1471   18.9876 C   0  0  0  0  0  0  0  0  0  0  0  0
  -23.0487  -28.4530   19.2421 C   0  0  0  0  0  0  0  0  0  0  0  0
  -25.7269  -13.4792   20.4452 C   0  0  0  0  0  0  0  0  0  0  0  0
  -23.4233  -13.1320   21.0854 C   0  0  0  0  0  0  0  0  0  0  0  0
  -21.8060  -27.9591   19.6364 C   0  0  0  0  0  0  0  0  0  0  0  0
  -24.0427  -10.0132   19.9407 C   0  0  0  0  0  0  0  0  0  0  0  0
  -23.2076   -8.9353   19.6469 C   0  0  0  0  0  0  0  0  0  0  0  0
  -22.1884  -28.7946   21.8669 C   0  0  0  0  0  0  0  0  0  0  0  0
  -22.7717   -8.6307   22.0037 C   0  0  0  0  0  0  0  0  0  0  0  0
  -16.8635  -22.3886   23.7065 C   0  0  0  0  0  0  0  0  0  0  0  0
  -24.0706  -15.1704   19.9616 C   0  0  0  0  0  0  0  0  0  0  0  0
  -23.3145  -16.7301   18.0900 C   0  0  0  0  0  0  0  0  0  0  0  0
  -29.2547  -25.5053   18.6662 C   0  0  0  0  0  0  0  0  0  0  0  0
  -23.8767  -29.1129   20.1615 C   0  0  0  0  0  0  0  0  0  0  0  0
  -28.0845  -25.7210   19.4189 C   0  0  0  0  0  0  0  0  0  0  0  0
  -23.4401  -29.2982   21.4811 C   0  0  0  0  0  0  0  0  0  0  0  0
  -24.7433  -12.6840   21.0332 C   0  0  0  0  0  0  0  0  0  0  0  0
  -21.3769  -28.1273   20.9497 C   0  0  0  0  0  0  0  0  0  0  0  0
  -24.2423  -10.3999   21.2659 C   0  0  0  0  0  0  0  0  0  0  0  0
  -22.5721   -8.2440   20.6784 C   0  0  0  0  0  0  0  0  0  0  0  0
  -23.6068   -9.7087   22.2974 C   0  0  0  0  0  0  0  0  0  0  0  0
  -23.7227  -16.4547   19.4088 C   0  0  0  0  0  0  0  0  0  0  0  0
  -17.1269  -21.1152   23.2445 C   0  0  0  0  0  0  0  0  0  0  0  0
  -17.9321  -23.2616   23.6926 C   0  0  0  0  0  0  0  0  0  0  0  0
  -23.1041  -18.0873   18.0720 C   0  0  0  0  0  0  0  0  0  0  0  0
  -19.2965  -21.6575   22.8369 C   0  0  0  0  0  0  0  0  0  0  0  0
  -23.1409  -15.8389   16.9803 C   0  0  0  0  0  0  0  0  0  0  0  0
  -26.7707  -28.5762   21.3618 C   0  0  0  0  0  0  0  0  0  0  0  0
  -26.3212  -31.4878   22.7193 C   0  0  0  0  0  0  0  0  0  0  0  0
  -24.1337  -33.8727   23.8029 C   0  0  0  0  0  0  0  0  0  0  0  0
  -21.7281  -22.0612   22.3170 C   0  0  0  0  0  0  0  0  0  0  0  0
  -30.5902  -26.0545   19.1013 C   0  0  0  0  0  0  0  0  0  0  0  0
  -25.2029  -29.6633   19.7136 C   0  0  0  0  0  0  0  0  0  0  0  0
  -24.2826  -30.0173   22.5016 C   0  0  0  0  0  0  0  0  0  0  0  0
  -30.4811  -27.1809   20.1259 C   0  0  0  0  0  0  0  0  0  0  0  0
  -24.5710  -22.1323   20.1746 C   0  0  0  0  0  0  0  0  0  0  0  0
  -29.4964  -26.8057   21.2288 C   0  0  0  0  0  0  0  0  0  0  0  0
  -24.6354  -20.7111   19.6103 C   0  0  0  0  0  0  0  0  0  0  0  0
  -24.1156  -22.1435   21.6327 C   0  0  0  0  0  0  0  0  0  0  0  0
  -22.9242  -20.0082   21.3322 C   0  0  0  0  0  0  0  0  0  0  0  0
  -28.0891  -26.5860   20.6606 C   0  0  1  0  0  0  0  0  0  0  0  0
  -26.1845  -29.8669   20.8637 C   0  0  1  0  0  0  0  0  0  0  0  0
  -23.3157  -19.9507   19.8465 C   0  0  2  0  0  0  0  0  0  0  0  0
  -16.0336  -20.1004   23.2215 C   0  0  0  0  0  0  0  0  0  0  0  0
  -18.1184  -26.0986   26.6015 C   0  0  0  0  0  0  0  0  0  0  0  0
  -24.0631  -36.1275   24.9019 C   0  0  0  0  0  0  0  0  0  0  0  0
  -26.9652  -30.1951   25.4071 C   0  0  0  0  0  0  0  0  0  0  0  0
  -25.9700  -32.1990   26.5306 C   0  0  0  0  0  0  0  0  0  0  0  0
  -27.9750  -32.4580   25.0692 C   0  0  0  0  0  0  0  0  0  0  0  0
  -22.7816  -35.0954   21.4714 C   0  0  0  0  0  0  0  0  0  0  0  0
  -18.3509  -26.6580   25.2028 C   0  0  0  0  0  0  0  0  0  0  0  0
  -20.0315  -27.2422   22.6996 C   0  0  0  0  0  0  0  0  0  1  0  0
  -25.7264  -31.9826   24.0156 C   0  0  1  0  0  0  0  0  0  0  0  0
  -24.0890  -35.3738   23.5813 C   0  0  2  0  0  0  0  0  0  0  0  0
  -18.7389  -25.5693   24.1918 C   0  0  2  0  0  0  0  0  0  0  0  0
  -18.9782  -26.1380   22.7810 C   0  0  1  0  0  0  0  0  0  0  0  0
  -26.6439  -31.6934   25.2371 C   0  0  0  0  0  0  0  0  0  0  0  0
  -23.7697  -17.5489   20.1732 N   0  0  0  0  0  0  0  0  0  0  0  0
  -18.3362  -20.7141   22.8006 N   0  0  0  0  0  0  0  0  0  0  0  0
  -19.1669  -22.9284   23.2630 N   0  0  0  0  0  0  0  0  0  0  0  0
  -23.3884  -18.5252   19.3320 N   0  0  0  0  0  0  0  0  0  0  0  0
  -25.5740  -30.5317   22.0167 N   0  0  0  0  0  0  0  0  0  0  0  0
  -22.8575  -21.4083   21.7794 N   0  0  0  0  0  0  0  0  0  0  0  0
  -22.7056  -18.9368   17.1016 N   0  0  0  0  0  0  0  0  0  0  0  0
  -23.4005  -14.4750   17.1719 N   0  0  0  0  0  0  0  0  0  0  0  0
  -17.7094  -24.5468   24.1475 N   0  0  0  0  0  0  0  0  0  0  0  0
  -20.5803  -21.2717   22.3778 N   0  0  0  0  0  0  0  0  0  0  0  0
  -27.4471  -27.8557   20.3959 N   0  0  0  0  0  0  0  0  0  0  0  0
  -25.4276  -33.3963   23.8143 N   0  0  0  0  0  0  0  0  0  0  0  0
  -22.8738  -35.7467   22.8034 N   0  3  0  0  0  0  0  0  0  0  0  0
  -22.7825  -16.2425   15.8480 O   0  0  0  0  0  0  0  0  0  0  0  0
  -26.6217  -28.2583   22.5358 O   0  0  0  0  0  0  0  0  0  0  0  0
  -27.4052  -31.9383   22.3404 O   0  0  0  0  0  0  0  0  0  0  0  0
  -23.1220  -33.1914   23.9546 O   0  0  0  0  0  0  0  0  0  0  0  0
  -21.7685  -23.2426   22.6702 O   0  0  0  0  0  0  0  0  0  0  0  0
  -17.7334  -26.6538   22.2964 O   0  0  0  0  0  0  0  0  0  0  0  0
  -25.0710  -11.4708   21.5559 O   0  0  0  0  0  0  0  0  0  0  0  0
  -20.1646  -27.6456   21.3373 O   0  0  0  0  0  0  0  0  0  1  0  0
  -21.7690   -7.2099   20.3960 F   0  0  0  0  0  0  0  0  0  0  0  0
  -23.7937  -10.0763   23.5725 F   0  0  0  0  0  0  0  0  0  0  0  0
  1  2  1  0  0  0  0
  1  5  2  0  0  0  0
  2  6  2  0  0  0  0
  3  8  2  0  0  0  0
  3 16  1  0  0  0  0
  4  9  1  0  0  0  0
  4 16  2  0  0  0  0
  5 18  1  0  0  0  0
  6 20  1  0  0  0  0
  7 10  2  0  0  0  0
  7 19  1  0  0  0  0
  8 22  1  0  0  0  0
  9 22  2  0  0  0  0
 10 23  1  0  0  0  0
 11 12  2  0  0  0  0
 11 24  1  0  0  0  0
 12 25  1  0  0  0  0
 13 21  1  0  0  0  0
 13 23  2  0  0  0  0
 14 25  2  0  0  0  0
 14 26  1  0  0  0  0
 15 28  2  0  0  0  0
 15 29  1  0  0  0  0
 16 27  1  0  0  0  0
 17 27  1  0  0  0  0
 17 30  2  0  0  0  0
 17 32  1  0  0  0  0
 18 20  2  0  0  0  0
 18 37  1  0  0  0  0
 19 21  2  0  0  0  0
 19 38  1  0  0  0  0
 20 46  1  0  0  0  0
 21 39  1  0  0  0  0
 22 82  1  0  0  0  0
 23 83  1  0  0  0  0
 24 26  2  0  0  0  0
 24 82  1  0  0  0  0
 25 84  1  0  0  0  0
 26 85  1  0  0  0  0
 27 63  2  0  0  0  0
 28 49  1  0  0  0  0
 28 64  1  0  0  0  0
 29 65  2  0  0  0  0
 29 71  1  0  0  0  0
 30 66  1  0  0  0  0
 30 69  1  0  0  0  0
 31 64  2  0  0  0  0
 31 65  1  0  0  0  0
 31 72  1  0  0  0  0
 32 70  1  0  0  0  0
 32 76  2  0  0  0  0
 33 47  1  0  0  0  0
 33 73  1  0  0  0  0
 33 77  2  0  0  0  0
 34 58  1  0  0  0  0
 34 67  1  0  0  0  0
 34 78  2  0  0  0  0
 35 59  1  0  0  0  0
 35 74  1  0  0  0  0
 35 79  2  0  0  0  0
 36 68  1  0  0  0  0
 36 72  1  0  0  0  0
 36 80  2  0  0  0  0
 37 40  1  0  0  0  0
 38 47  1  0  0  0  0
 39 67  1  0  0  0  0
 40 42  1  0  0  0  0
 41 43  1  0  0  0  0
 41 44  1  0  0  0  0
 42 46  1  0  0  0  0
 43 48  1  0  0  0  0
 44 68  1  0  0  0  0
 45 48  1  0  0  0  0
 45 68  1  0  0  0  0
 46 73  1  0  0  0  0
 47 67  1  0  0  0  0
 48 66  1  0  0  0  0
 50 56  1  0  0  0  0
 51 59  1  0  0  0  0
 52 62  1  0  0  0  0
 53 62  1  0  0  0  0
 54 62  1  0  0  0  0
 55 75  1  0  0  0  0
 56 60  1  0  0  0  0
 57 61  1  0  0  0  0
 57 83  1  0  0  0  0
 58 62  1  0  0  0  0
 58 74  1  0  0  0  0
 59 75  1  0  0  0  0
 60 61  1  0  0  0  0
 60 71  1  0  0  0  0
 61 81  1  0  0  0  0
 63 66  1  0  0  0  0
M  CHG  1  75   1
M  ISO  4  36 100  57 101  72 100  83 101
M  END
> <Batch ID>
0189

> <Smiles>
CCC(Nc1cc(C)nc([100NH:0][100C:0](=O)N2CCCC(n3nc(-c4ccc(Oc5ccc(F)cc5F)cc4)c(C(N)=O)c3N)C2)n1)C(O)[101CH2:1][101O:1]c1ccc2c(c1)CN(C(=O)C(NC(=O)C(C)NC)C(C)(C)C)C(C(=O)NC1CCCc3ccccc31)C2

> <Shape>
0.268

> <Color>
0.068

> <Negative vol penalty>
0.000

$$$$

  -OEChem-04052305183D

 87 95  0     1  0  0  0  0  0999 V2000
  -27.5430  -23.0930   18.6623 C   0  0  0  0  0  0  0  0  0  0  0  0
  -26.4227  -23.4769   19.3922 C   0  0  0  0  0  0  0  0  0  0  0  0
  -26.2934  -13.6050   19.8476 C   0  0  0  0  0  0  0  0  0  0  0  0
  -24.6125  -13.6749   21.5816 C   0  0  0  0  0  0  0  0  0  0  0  0
  -28.7770  -23.6906   18.9154 C   0  0  0  0  0  0  0  0  0  0  0  0
  -26.5359  -24.4581   20.3766 C   0  0  0  0  0  0  0  0  0  0  0  0
  -22.7873  -27.8567   20.1724 C   0  0  0  0  0  0  0  0  0  0  0  0
  -26.2905  -12.2112   19.9009 C   0  0  0  0  0  0  0  0  0  0  0  0
  -24.6096  -12.2810   21.6349 C   0  0  0  0  0  0  0  0  0  0  0  0
  -21.5546  -27.4777   20.7022 C   0  0  0  0  0  0  0  0  0  0  0  0
  -23.8976   -8.7320   21.9747 C   0  0  0  0  0  0  0  0  0  0  0  0
  -22.6619   -8.0866   22.0203 C   0  0  0  0  0  0  0  0  0  0  0  0
  -22.0540  -28.6988   22.7218 C   0  0  0  0  0  0  0  0  0  0  0  0
  -22.0666   -9.0764   19.8982 C   0  0  0  0  0  0  0  0  0  0  0  0
  -25.4544  -14.3369   20.6880 C   0  0  0  0  0  0  0  0  0  0  0  0
  -24.6532  -16.5985   19.8215 C   0  0  0  0  0  0  0  0  0  0  0  0
  -28.9034  -24.6864   19.8967 C   0  0  0  0  0  0  0  0  0  0  0  0
  -23.6687  -28.6520   20.9189 C   0  0  0  0  0  0  0  0  0  0  0  0
  -27.7730  -25.0686   20.6440 C   0  0  0  0  0  0  0  0  0  0  0  0
  -23.2961  -29.0887   22.1982 C   0  0  0  0  0  0  0  0  0  0  0  0
  -25.4486  -11.5492   20.7946 C   0  0  0  0  0  0  0  0  0  0  0  0
  -21.1890  -27.8963   21.9782 C   0  0  0  0  0  0  0  0  0  0  0  0
  -24.2178   -9.5497   20.8909 C   0  0  0  0  0  0  0  0  0  0  0  0
  -21.7464   -8.2587   20.9821 C   0  0  0  0  0  0  0  0  0  0  0  0
  -23.3023   -9.7218   19.8527 C   0  0  0  0  0  0  0  0  0  0  0  0
  -25.4574  -15.7767   20.6338 C   0  0  0  0  0  0  0  0  0  0  0  0
  -23.9216  -24.1726   25.9908 C   0  0  0  0  0  0  0  0  0  0  0  0
  -25.0359  -17.8780   20.1420 C   0  0  0  0  0  0  0  0  0  0  0  0
  -22.8283  -24.0041   25.1672 C   0  0  0  0  0  0  0  0  0  0  0  0
  -24.6593  -22.4813   24.8053 C   0  0  0  0  0  0  0  0  0  0  0  0
  -23.6500  -16.2375   18.8629 C   0  0  0  0  0  0  0  0  0  0  0  0
  -26.6035  -28.2672   22.0774 C   0  0  0  0  0  0  0  0  0  0  0  0
  -26.2717  -31.3899   22.8901 C   0  0  0  0  0  0  0  0  0  0  0  0
  -20.5453  -24.4236   24.1897 C   0  0  0  0  0  0  0  0  0  0  0  0
  -24.1815  -33.9919   23.6027 C   0  0  0  0  0  0  0  0  0  0  0  0
  -26.7232  -21.0432   24.6693 C   0  0  0  0  0  0  0  0  0  0  0  0
  -30.2676  -25.2700   20.1672 C   0  0  0  0  0  0  0  0  0  0  0  0
  -24.9833  -29.0744   20.3226 C   0  0  0  0  0  0  0  0  0  0  0  0
  -24.1978  -29.9603   23.0324 C   0  0  0  0  0  0  0  0  0  0  0  0
  -30.2267  -26.5682   20.9692 C   0  0  0  0  0  0  0  0  0  0  0  0
  -29.0442  -19.8984   22.2240 C   0  0  0  0  0  0  0  0  0  0  0  0
  -29.2862  -26.4292   22.1622 C   0  0  0  0  0  0  0  0  0  0  0  0
  -28.2787  -18.7990   21.4841 C   0  0  0  0  0  0  0  0  0  0  0  0
  -28.7190  -19.9100   23.7166 C   0  0  0  0  0  0  0  0  0  0  0  0
  -26.5224  -18.8753   23.2998 C   0  0  0  0  0  0  0  0  0  0  0  0
  -27.8506  -26.1469   21.7030 C   0  0  1  0  0  0  0  0  0  0  0  0
  -26.0199  -29.4595   21.3736 C   0  0  1  0  0  0  0  0  0  0  0  0
  -26.7680  -18.8660   21.7821 C   0  0  2  0  0  0  0  0  0  0  0  0
  -24.2039  -36.4116   24.2675 C   0  0  0  0  0  0  0  0  0  0  0  0
  -17.3968  -26.6387   23.4867 C   0  0  0  0  0  0  0  0  0  0  0  0
  -22.9492  -25.0404   28.1465 C   0  0  0  0  0  0  0  0  0  0  0  0
  -23.9521  -26.6428   26.4844 C   0  0  0  0  0  0  0  0  0  0  0  0
  -25.4146  -25.1673   27.8502 C   0  0  0  0  0  0  0  0  0  0  0  0
  -27.0128  -30.5971   25.7418 C   0  0  0  0  0  0  0  0  0  0  0  0
  -26.1080  -32.7998   26.5150 C   0  0  0  0  0  0  0  0  0  0  0  0
  -28.0489  -32.7310   24.9495 C   0  0  0  0  0  0  0  0  0  0  0  0
  -22.7482  -34.8008   21.1430 C   0  0  0  0  0  0  0  0  0  0  0  0
  -19.3917  -25.3935   24.4247 C   0  0  0  0  0  0  0  0  0  0  0  0
  -19.4513  -26.2753   22.0710 C   0  0  0  0  0  0  0  0  0  1  0  0
  -25.7461  -32.1309   24.0958 C   0  0  1  0  0  0  0  0  0  0  0  0
  -24.1554  -35.4272   23.1093 C   0  0  2  0  0  0  0  0  0  0  0  0
  -18.5559  -25.6854   23.1686 C   0  0  2  0  0  0  0  0  0  0  0  0
  -24.0605  -25.1888   27.0541 C   0  0  0  0  0  0  0  0  0  0  0  0
  -26.7125  -32.0467   25.3108 C   0  0  0  0  0  0  0  0  0  0  0  0
  -26.2883  -16.4755   21.4118 N   0  0  0  0  0  0  0  0  0  0  0  0
  -24.9724  -23.3000   25.7850 N   0  0  0  0  0  0  0  0  0  0  0  0
  -26.0084  -17.7499   21.0897 N   0  0  0  0  0  0  0  0  0  0  0  0
  -25.4753  -30.3415   22.4079 N   0  0  0  0  0  0  0  0  0  0  0  0
  -27.2706  -19.9788   23.9221 N   0  0  0  0  0  0  0  0  0  0  0  0
  -24.6321  -19.0890   19.7029 N   0  0  0  0  0  0  0  0  0  0  0  0
  -23.3817  -14.8774   18.6566 N   0  0  0  0  0  0  0  0  0  0  0  0
  -21.5904  -24.6835   25.0720 N   0  0  0  0  0  0  0  0  0  0  0  0
  -25.4451  -21.4313   24.2688 N   0  0  0  0  0  0  0  0  0  0  0  0
  -27.2214  -27.3631   21.2346 N   0  0  0  0  0  0  0  0  0  0  0  0
  -25.4653  -33.4909   23.6487 N   0  0  0  0  0  0  0  0  0  0  0  0
  -22.9133  -35.6834   22.3265 N   0  3  0  0  0  0  0  0  0  0  0  0
  -23.0219  -17.0950   18.1968 O   0  0  0  0  0  0  0  0  0  0  0  0
  -26.5021  -28.1749   23.2952 O   0  0  0  0  0  0  0  0  0  0  0  0
  -27.3457  -31.7335   22.3900 O   0  0  0  0  0  0  0  0  0  0  0  0
  -20.5111  -23.5699   23.3098 O   0  0  0  0  0  0  0  0  0  0  0  0
  -23.1651  -33.3778   23.9195 O   0  0  0  0  0  0  0  0  0  0  0  0
  -27.3534  -21.5894   25.5783 O   0  0  0  0  0  0  0  0  0  0  0  0
  -25.4453  -10.1891   20.8467 O   0  0  0  0  0  0  0  0  0  0  0  0
  -19.9867  -27.5273   22.4980 O   0  0  0  0  0  0  0  0  0  1  0  0
  -20.5604   -7.6376   21.0252 F   0  0  0  0  0  0  0  0  0  0  0  0
  -23.6048  -10.5052   18.8083 F   0  0  0  0  0  0  0  0  0  0  0  0
  -23.1172  -22.7044   24.0861 S   0  0  0  0  0  0  0  0  0  0  0  0
  1  2  1  0  0  0  0
  1  5  2  0  0  0  0
  2  6  2  0  0  0  0
  3  8  2  0  0  0  0
  3 15  1  0  0  0  0
  4  9  1  0  0  0  0
  4 15  2  0  0  0  0
  5 17  1  0  0  0  0
  6 19  1  0  0  0  0
  7 10  2  0  0  0  0
  7 18  1  0  0  0  0
  8 21  1  0  0  0  0
  9 21  2  0  0  0  0
 10 22  1  0  0  0  0
 11 12  2  0  0  0  0
 11 23  1  0  0  0  0
 12 24  1  0  0  0  0
 13 20  1  0  0  0  0
 13 22  2  0  0  0  0
 14 24  2  0  0  0  0
 14 25  1  0  0  0  0
 15 26  1  0  0  0  0
 16 26  1  0  0  0  0
 16 28  2  0  0  0  0
 16 31  1  0  0  0  0
 17 19  2  0  0  0  0
 17 37  1  0  0  0  0
 18 20  2  0  0  0  0
 18 38  1  0  0  0  0
 19 46  1  0  0  0  0
 20 39  1  0  0  0  0
 21 83  1  0  0  0  0
 22 84  1  0  0  0  0
 23 25  2  0  0  0  0
 23 83  1  0  0  0  0
 24 85  1  0  0  0  0
 25 86  1  0  0  0  0
 26 65  2  0  0  0  0
 27 29  2  0  0  0  0
 27 63  1  0  0  0  0
 27 66  1  0  0  0  0
 28 67  1  0  0  0  0
 28 70  1  0  0  0  0
 29 72  1  0  0  0  0
 29 87  1  0  0  0  0
 30 66  2  0  0  0  0
 30 73  1  0  0  0  0
 30 87  1  0  0  0  0
 31 71  1  0  0  0  0
 31 77  2  0  0  0  0
 32 47  1  0  0  0  0
 32 74  1  0  0  0  0
 32 78  2  0  0  0  0
 33 60  1  0  0  0  0
 33 68  1  0  0  0  0
 33 79  2  0  0  0  0
 34 58  1  0  0  0  0
 34 72  1  0  0  0  0
 34 80  2  0  0  0  0
 35 61  1  0  0  0  0
 35 75  1  0  0  0  0
 35 81  2  0  0  0  0
 36 69  1  0  0  0  0
 36 73  1  0  0  0  0
 36 82  2  0  0  0  0
 37 40  1  0  0  0  0
 38 47  1  0  0  0  0
 39 68  1  0  0  0  0
 40 42  1  0  0  0  0
 41 43  1  0  0  0  0
 41 44  1  0  0  0  0
 42 46  1  0  0  0  0
 43 48  1  0  0  0  0
 44 69  1  0  0  0  0
 45 48  1  0  0  0  0
 45 69  1  0  0  0  0
 46 74  1  0  0  0  0
 47 68  1  0  0  0  0
 48 67  1  0  0  0  0
 49 61  1  0  0  0  0
 50 62  1  0  0  0  0
 51 63  1  0  0  0  0
 52 63  1  0  0  0  0
 53 63  1  0  0  0  0
 54 64  1  0  0  0  0
 55 64  1  0  0  0  0
 56 64  1  0  0  0  0
 57 76  1  0  0  0  0
 58 62  1  0  0  0  0
 59 62  1  0  0  0  0
 59 84  1  0  0  0  0
 60 64  1  0  0  0  0
 60 75  1  0  0  0  0
 61 76  1  0  0  0  0
 65 67  1  0  0  0  0
M  CHG  1  76   1
M  ISO  4  36 100  59 101  73 100  84 101
M  END
> <Batch ID>
0189

> <Smiles>
CNC(C)C(=O)NC(C(=O)N1Cc2cc([101O:1][101CH2:1]C(C)CC(=O)Nc3sc([100NH:0][100C:0](=O)N4CCCC(n5nc(-c6ccc(Oc7ccc(F)cc7F)cc6)c(C(N)=O)c5N)C4)nc3C(C)(C)C)ccc2CC1C(=O)NC1CCCc2ccccc21)C(C)(C)C

> <Shape>
0.263

> <Color>
0.064

> <Negative vol penalty>
0.000

$$$$

  -OEChem-04052305183D

 85 93  0     1  0  0  0  0  0999 V2000
  -37.6456  -24.6145   32.5550 C   0  0  0  0  0  0  0  0  0  0  0  0
  -36.7860  -24.5524   31.4629 C   0  0  0  0  0  0  0  0  0  0  0  0
  -22.9996   -9.8916   19.9826 C   0  0  0  0  0  0  0  0  0  0  0  0
  -23.7248   -9.9459   22.2866 C   0  0  0  0  0  0  0  0  0  0  0  0
  -38.9567  -24.1555   32.4355 C   0  0  0  0  0  0  0  0  0  0  0  0
  -37.2373  -24.0322   30.2504 C   0  0  0  0  0  0  0  0  0  0  0  0
  -33.9117  -20.8457   28.1454 C   0  0  0  0  0  0  0  0  0  0  0  0
  -22.2335   -8.7572   20.2505 C   0  0  0  0  0  0  0  0  0  0  0  0
  -22.9587   -8.8115   22.5545 C   0  0  0  0  0  0  0  0  0  0  0  0
  -32.8183  -21.4087   27.4886 C   0  0  0  0  0  0  0  0  0  0  0  0
  -23.2042   -5.4721   22.0871 C   0  0  0  0  0  0  0  0  0  0  0  0
  -23.7921   -4.4561   22.8406 C   0  0  0  0  0  0  0  0  0  0  0  0
  -33.9230  -21.0690   25.3712 C   0  0  0  0  0  0  0  0  0  0  0  0
  -22.0682   -4.7007   24.5155 C   0  0  0  0  0  0  0  0  0  0  0  0
  -23.7453  -10.4859   21.0007 C   0  0  0  0  0  0  0  0  0  0  0  0
  -24.1297  -13.0014   20.8212 C   0  0  0  0  0  0  0  0  0  0  0  0
  -39.4215  -23.6205   31.2237 C   0  0  0  0  0  0  0  0  0  0  0  0
  -35.0254  -20.3993   27.4196 C   0  0  0  0  0  0  0  0  0  0  0  0
  -38.5562  -23.5669   30.1143 C   0  0  0  0  0  0  0  0  0  0  0  0
  -35.0281  -20.4983   26.0210 C   0  0  0  0  0  0  0  0  0  0  0  0
  -22.2130   -8.2172   21.5364 C   0  0  0  0  0  0  0  0  0  0  0  0
  -32.8251  -21.5231   26.1016 C   0  0  0  0  0  0  0  0  0  0  0  0
  -22.0483   -6.1024   22.5479 C   0  0  0  0  0  0  0  0  0  0  0  0
  -23.2241   -4.0704   24.0548 C   0  0  0  0  0  0  0  0  0  0  0  0
  -21.4803   -5.7167   23.7621 C   0  0  0  0  0  0  0  0  0  0  0  0
  -24.5374  -11.6575   20.7244 C   0  0  0  0  0  0  0  0  0  0  0  0
  -31.8420  -18.6674   22.1996 C   0  0  0  0  0  0  0  0  0  0  0  0
  -25.2392  -13.7239   20.4558 C   0  0  0  0  0  0  0  0  0  0  0  0
  -30.7355  -19.0711   22.9169 C   0  0  0  0  0  0  0  0  0  0  0  0
  -30.5803  -16.9020   21.8808 C   0  0  0  0  0  0  0  0  0  0  0  0
  -22.8616  -13.5479   21.2070 C   0  0  0  0  0  0  0  0  0  0  0  0
  -38.1032  -21.1878   27.3237 C   0  0  0  0  0  0  0  0  0  0  0  0
  -38.2952  -18.6313   25.3363 C   0  0  0  0  0  0  0  0  0  0  0  0
  -29.2817  -20.5530   24.3438 C   0  0  0  0  0  0  0  0  0  0  0  0
  -36.7166  -16.5259   23.1631 C   0  0  0  0  0  0  0  0  0  0  0  0
  -30.7184  -14.6872   20.6884 C   0  0  0  0  0  0  0  0  0  0  0  0
  -40.8609  -23.1805   31.1291 C   0  0  0  0  0  0  0  0  0  0  0  0
  -36.1855  -19.7698   28.1410 C   0  0  0  0  0  0  0  0  0  0  0  0
  -36.1908  -20.0157   25.1941 C   0  0  0  0  0  0  0  0  0  0  0  0
  -41.1498  -22.2982   29.9173 C   0  0  0  0  0  0  0  0  0  0  0  0
  -29.6009  -12.2309   18.3657 C   0  0  0  0  0  0  0  0  0  0  0  0
  -40.5268  -22.8970   28.6603 C   0  0  0  0  0  0  0  0  0  0  0  0
  -28.1504  -11.9733   18.7803 C   0  0  0  0  0  0  0  0  0  0  0  0
  -30.5014  -12.4762   19.5751 C   0  0  0  0  0  0  0  0  0  0  0  0
  -28.5858  -13.2661   20.9077 C   0  0  0  0  0  0  0  0  0  0  0  0
  -39.0014  -22.9865   28.7895 C   0  0  1  0  0  0  0  0  0  0  0  0
  -37.4839  -19.8189   27.3415 C   0  0  1  0  0  0  0  0  0  0  0  0
  -27.6281  -13.0779   19.7198 C   0  0  2  0  0  0  0  0  0  0  0  0
  -33.0886  -19.4391   22.0171 C   0  0  0  0  0  0  0  0  0  0  0  0
  -28.7388  -24.2334   21.9205 C   0  0  0  0  0  0  0  0  0  0  0  0
  -37.1434  -14.5570   21.6670 C   0  0  0  0  0  0  0  0  0  0  0  0
  -39.6402  -20.4690   23.3057 C   0  0  0  0  0  0  0  0  0  0  0  0
  -39.1792  -18.7478   21.5469 C   0  0  0  0  0  0  0  0  0  0  0  0
  -40.6529  -18.1890   23.4805 C   0  0  0  0  0  0  0  0  0  0  0  0
  -34.8037  -14.8304   24.6548 C   0  0  0  0  0  0  0  0  0  0  0  0
  -28.4809  -23.1313   22.9363 C   0  0  0  0  0  0  0  0  0  0  0  0
  -29.6038  -23.0563   23.9765 C   0  0  0  0  0  0  0  0  0  0  0  0
  -30.4794  -21.9135   26.0681 C   0  0  0  0  0  0  0  0  0  1  0  0
  -38.1622  -18.4224   23.8471 C   0  0  1  0  0  0  0  0  0  0  0  0
  -29.3698  -21.9358   25.0069 C   0  0  2  0  0  0  0  0  0  0  0  0
  -36.7109  -15.0120   23.0521 C   0  0  2  0  0  0  0  0  0  0  0  0
  -39.3874  -18.9680   23.0605 C   0  0  0  0  0  0  0  0  0  0  0  0
  -25.8067  -11.5309   20.3284 N   0  0  0  0  0  0  0  0  0  0  0  0
  -31.7551  -17.4237   21.6050 N   0  0  0  0  0  0  0  0  0  0  0  0
  -26.2062  -12.8046   20.1730 N   0  0  0  0  0  0  0  0  0  0  0  0
  -37.3040  -19.4134   25.9460 N   0  0  0  0  0  0  0  0  0  0  0  0
  -29.9460  -13.5380   20.4171 N   0  0  0  0  0  0  0  0  0  0  0  0
  -25.4722  -15.0496   20.3519 N   0  0  0  0  0  0  0  0  0  0  0  0
  -21.8301  -12.6639   21.5518 N   0  0  0  0  0  0  0  0  0  0  0  0
  -30.4487  -20.2481   23.6487 N   0  0  0  0  0  0  0  0  0  0  0  0
  -30.0738  -15.6432   21.4728 N   0  0  0  0  0  0  0  0  0  0  0  0
  -38.3992  -21.6877   28.5774 N   0  0  0  0  0  0  0  0  0  0  0  0
  -37.9153  -16.9975   23.6551 N   0  0  0  0  0  0  0  0  0  0  0  0
  -35.3448  -14.4783   23.3168 N   0  3  0  0  0  0  0  0  0  0  0  0
  -22.6444  -14.7832   21.2291 O   0  0  0  0  0  0  0  0  0  0  0  0
  -38.2994  -21.7482   26.2517 O   0  0  0  0  0  0  0  0  0  0  0  0
  -39.2395  -18.1134   25.9376 O   0  0  0  0  0  0  0  0  0  0  0  0
  -28.2722  -19.8600   24.4322 O   0  0  0  0  0  0  0  0  0  0  0  0
  -35.7553  -17.2210   22.8418 O   0  0  0  0  0  0  0  0  0  0  0  0
  -31.8570  -14.8259   20.2342 O   0  0  0  0  0  0  0  0  0  0  0  0
  -21.4654   -7.1103   21.7983 O   0  0  0  0  0  0  0  0  0  0  0  0
  -31.7595  -22.0729   25.4581 O   0  0  0  0  0  0  0  0  0  1  0  0
  -23.7879   -3.0937   24.7775 F   0  0  0  0  0  0  0  0  0  0  0  0
  -20.3692   -6.3178   24.2093 F   0  0  0  0  0  0  0  0  0  0  0  0
  -29.5303  -17.8527   22.8496 S   0  0  0  0  0  0  0  0  0  0  0  0
  1  2  1  0  0  0  0
  1  5  2  0  0  0  0
  2  6  2  0  0  0  0
  3  8  2  0  0  0  0
  3 15  1  0  0  0  0
  4  9  1  0  0  0  0
  4 15  2  0  0  0  0
  5 17  1  0  0  0  0
  6 19  1  0  0  0  0
  7 10  2  0  0  0  0
  7 18  1  0  0  0  0
  8 21  1  0  0  0  0
  9 21  2  0  0  0  0
 10 22  1  0  0  0  0
 11 12  2  0  0  0  0
 11 23  1  0  0  0  0
 12 24  1  0  0  0  0
 13 20  1  0  0  0  0
 13 22  2  0  0  0  0
 14 24  2  0  0  0  0
 14 25  1  0  0  0  0
 15 26  1  0  0  0  0
 16 26  1  0  0  0  0
 16 28  2  0  0  0  0
 16 31  1  0  0  0  0
 17 19  2  0  0  0  0
 17 37  1  0  0  0  0
 18 20  2  0  0  0  0
 18 38  1  0  0  0  0
 19 46  1  0  0  0  0
 20 39  1  0  0  0  0
 21 81  1  0  0  0  0
 22 82  1  0  0  0  0
 23 25  2  0  0  0  0
 23 81  1  0  0  0  0
 24 83  1  0  0  0  0
 25 84  1  0  0  0  0
 26 63  2  0  0  0  0
 27 29  2  0  0  0  0
 27 49  1  0  0  0  0
 27 64  1  0  0  0  0
 28 65  1  0  0  0  0
 28 68  1  0  0  0  0
 29 70  1  0  0  0  0
 29 85  1  0  0  0  0
 30 64  2  0  0  0  0
 30 71  1  0  0  0  0
 30 85  1  0  0  0  0
 31 69  1  0  0  0  0
 31 75  2  0  0  0  0
 32 47  1  0  0  0  0
 32 72  1  0  0  0  0
 32 76  2  0  0  0  0
 33 59  1  0  0  0  0
 33 66  1  0  0  0  0
 33 77  2  0  0  0  0
 34 60  1  0  0  0  0
 34 70  1  0  0  0  0
 34 78  2  0  0  0  0
 35 61  1  0  0  0  0
 35 73  1  0  0  0  0
 35 79  2  0  0  0  0
 36 67  1  0  0  0  0
 36 71  1  0  0  0  0
 36 80  2  0  0  0  0
 37 40  1  0  0  0  0
 38 47  1  0  0  0  0
 39 66  1  0  0  0  0
 40 42  1  0  0  0  0
 41 43  1  0  0  0  0
 41 44  1  0  0  0  0
 42 46  1  0  0  0  0
 43 48  1  0  0  0  0
 44 67  1  0  0  0  0
 45 48  1  0  0  0  0
 45 67  1  0  0  0  0
 46 72  1  0  0  0  0
 47 66  1  0  0  0  0
 48 65  1  0  0  0  0
 50 56  1  0  0  0  0
 51 61  1  0  0  0  0
 52 62  1  0  0  0  0
 53 62  1  0  0  0  0
 54 62  1  0  0  0  0
 55 74  1  0  0  0  0
 56 57  1  0  0  0  0
 57 60  1  0  0  0  0
 58 60  1  0  0  0  0
 58 82  1  0  0  0  0
 59 62  1  0  0  0  0
 59 73  1  0  0  0  0
 61 74  1  0  0  0  0
 63 65  1  0  0  0  0
M  CHG  1  74   1
M  ISO  4  36 100  58 101  71 100  82 101
M  END
> <Batch ID>
0189

> <Smiles>
CCCC(C(=O)Nc1sc([100NH:0][100C:0](=O)N2CCCC(n3nc(-c4ccc(Oc5ccc(F)cc5F)cc4)c(C(N)=O)c3N)C2)nc1C)[101CH2:1][101O:1]c1ccc2c(c1)CN(C(=O)C(NC(=O)C(C)NC)C(C)(C)C)C(C(=O)NC1CCCc3ccccc31)C2

> <Shape>
0.176

> <Color>
0.190

> <Negative vol penalty>
0.000

$$$$

  -OEChem-04052305183D

 86 95  0     1  0  0  0  0  0999 V2000
  -16.7196  -29.7549   24.0862 C   0  0  0  0  0  0  0  0  0  0  0  0
  -17.3690  -28.5743   23.7402 C   0  0  0  0  0  0  0  0  0  0  0  0
  -23.8532   -9.3452   21.2878 C   0  0  0  0  0  0  0  0  0  0  0  0
  -24.4218  -10.3650   23.4029 C   0  0  0  0  0  0  0  0  0  0  0  0
  -17.2479  -30.9823   23.6883 C   0  0  0  0  0  0  0  0  0  0  0  0
  -18.5468  -28.6203   22.9951 C   0  0  0  0  0  0  0  0  0  0  0  0
  -23.3439  -24.8411   23.4544 C   0  0  0  0  0  0  0  0  0  0  0  0
  -23.3583   -8.2275   21.9598 C   0  0  0  0  0  0  0  0  0  0  0  0
  -23.9269   -9.2474   24.0749 C   0  0  0  0  0  0  0  0  0  0  0  0
  -23.7330  -23.7251   22.7148 C   0  0  0  0  0  0  0  0  0  0  0  0
  -20.5512   -7.3713   23.6390 C   0  0  0  0  0  0  0  0  0  0  0  0
  -19.3244   -6.8548   23.2220 C   0  0  0  0  0  0  0  0  0  0  0  0
  -29.8263  -20.8172   20.2365 C   0  0  0  0  0  0  0  0  0  0  0  0
  -25.1891  -25.1188   21.3894 C   0  0  0  0  0  0  0  0  0  0  0  0
  -20.3853   -4.7441   22.7155 C   0  0  0  0  0  0  0  0  0  0  0  0
  -30.7808  -19.9301   19.7824 C   0  0  0  0  0  0  0  0  0  0  0  0
  -28.3034  -22.5705   24.5745 C   0  0  0  0  0  0  0  0  0  0  0  0
  -28.1198  -22.7843   23.2314 C   0  0  0  0  0  0  0  0  0  0  0  0
  -24.3850  -10.4139   22.0094 C   0  0  0  0  0  0  0  0  0  0  0  0
  -24.1837  -12.7257   20.9498 C   0  0  0  0  0  0  0  0  0  0  0  0
  -18.4379  -31.0438   22.9462 C   0  0  0  0  0  0  0  0  0  0  0  0
  -23.8671  -26.1082   23.1594 C   0  0  0  0  0  0  0  0  0  0  0  0
  -19.0909  -29.8496   22.5857 C   0  0  0  0  0  0  0  0  0  0  0  0
  -24.8069  -26.2488   22.1283 C   0  0  0  0  0  0  0  0  0  0  0  0
  -23.3951   -8.1786   23.3533 C   0  0  0  0  0  0  0  0  0  0  0  0
  -24.6535  -23.8643   21.6803 C   0  0  0  0  0  0  0  0  0  0  0  0
  -21.6950   -6.5743   23.5942 C   0  0  0  0  0  0  0  0  0  0  0  0
  -19.2415   -5.5412   22.7603 C   0  0  0  0  0  0  0  0  0  0  0  0
  -21.6121   -5.2606   23.1325 C   0  0  0  0  0  0  0  0  0  0  0  0
  -24.8969  -11.5685   21.3159 C   0  0  0  0  0  0  0  0  0  0  0  0
  -28.6853  -20.2480   20.7643 C   0  0  0  0  0  0  0  0  0  0  0  0
  -25.1130  -13.5167   20.3195 C   0  0  0  0  0  0  0  0  0  0  0  0
  -29.4858  -18.1571   20.3714 C   0  0  0  0  0  0  0  0  0  0  0  0
  -22.8046  -13.0561   21.1607 C   0  0  0  0  0  0  0  0  0  0  0  0
  -22.6342  -28.8761   22.1988 C   0  0  0  0  0  0  0  0  0  0  0  0
  -25.6649  -29.9386   22.6552 C   0  0  0  0  0  0  0  0  0  0  0  0
  -28.9930  -29.2081   22.8477 C   0  0  0  0  0  0  0  0  0  0  0  0
  -30.1981  -15.7657   20.0248 C   0  0  0  0  0  0  0  0  0  0  0  0
  -18.9453  -32.3917   22.4984 C   0  0  0  0  0  0  0  0  0  0  0  0
  -23.4574  -27.2976   23.9840 C   0  0  0  0  0  0  0  0  0  0  0  0
  -25.4137  -27.5838   21.7849 C   0  0  0  0  0  0  0  0  0  0  0  0
  -20.3984  -32.3710   22.0312 C   0  0  0  0  0  0  0  0  0  0  0  0
  -29.8074  -12.4664   18.7445 C   0  0  0  0  0  0  0  0  0  0  0  0
  -20.6401  -31.1949   21.0904 C   0  0  0  0  0  0  0  0  0  0  0  0
  -28.4364  -12.0339   19.2692 C   0  0  0  0  0  0  0  0  0  0  0  0
  -30.5603  -13.3214   19.7623 C   0  0  0  0  0  0  0  0  0  0  0  0
  -28.4452  -14.0483   20.7953 C   0  0  0  0  0  0  0  0  0  0  0  0
  -20.3839  -29.8596   21.7995 C   0  0  1  0  0  0  0  0  0  0  0  0
  -23.6657  -28.6254   23.2622 C   0  0  1  0  0  0  0  0  0  0  0  0
  -27.6224  -13.2391   19.7795 C   0  0  2  0  0  0  0  0  0  0  0  0
  -31.2306  -30.2903   23.1932 C   0  0  0  0  0  0  0  0  0  0  0  0
  -25.8567  -20.3660   19.5610 C   0  0  0  0  0  0  0  0  0  0  0  0
  -25.5892  -31.0023   19.7964 C   0  0  0  0  0  0  0  0  0  0  0  0
  -28.0837  -31.1997   19.8778 C   0  0  0  0  0  0  0  0  0  0  0  0
  -26.6769  -32.5311   21.4498 C   0  0  0  0  0  0  0  0  0  0  0  0
  -29.5100  -27.6259   25.2949 C   0  0  0  0  0  0  0  0  0  0  0  0
  -25.0289  -21.5165   21.6257 C   0  0  0  0  0  0  0  0  0  1  0  0
  -27.5698  -21.1482   21.2955 C   0  0  1  0  0  0  0  0  0  0  0  0
  -26.9037  -30.0372   21.7981 C   0  0  1  0  0  0  0  0  0  0  0  0
  -30.0529  -29.5984   23.8620 C   0  0  2  0  0  0  0  0  0  0  0  0
  -26.1238  -20.5872   21.0612 C   0  0  2  0  0  0  0  0  0  0  0  0
  -26.8007  -31.1676   20.7355 C   0  0  0  0  0  0  0  0  0  0  0  0
  -30.6429  -18.5890   19.8346 N   0  0  0  0  0  0  0  0  0  0  0  0
  -28.1514  -21.2406   24.8530 N   0  0  0  0  0  0  0  0  0  0  0  0
  -26.1802  -11.6159   20.9486 N   0  0  0  0  0  0  0  0  0  0  0  0
  -28.4811  -18.9170   20.8475 N   0  0  0  0  0  0  0  0  0  0  0  0
  -27.8771  -20.6138   23.7142 N   0  0  0  0  0  0  0  0  0  0  0  0
  -27.8588  -21.5411   22.7431 N   0  0  0  0  0  0  0  0  0  0  0  0
  -26.2807  -12.8125   20.3451 N   0  0  0  0  0  0  0  0  0  0  0  0
  -24.9764  -28.7178   22.6159 N   0  0  0  0  0  0  0  0  0  0  0  0
  -29.7293  -14.4461   20.1973 N   0  0  0  0  0  0  0  0  0  0  0  0
  -25.0369  -14.7390   19.7514 N   0  0  0  0  0  0  0  0  0  0  0  0
  -21.9897  -12.1297   21.8256 N   0  0  0  0  0  0  0  0  0  0  0  0
  -29.3081  -16.7533   20.4457 N   0  0  0  0  0  0  0  0  0  0  0  0
  -21.5000  -29.5197   22.6557 N   0  0  0  0  0  0  0  0  0  0  0  0
  -28.0263  -30.1828   22.7184 N   0  0  0  0  0  0  0  0  0  0  0  0
  -30.5594  -28.3905   24.5729 N   0  3  0  0  0  0  0  0  0  0  0  0
  -22.3056  -14.1337   20.7566 O   0  0  0  0  0  0  0  0  0  0  0  0
  -22.8519  -28.5137   21.0485 O   0  0  0  0  0  0  0  0  0  0  0  0
  -25.3247  -30.9065   23.3401 O   0  0  0  0  0  0  0  0  0  0  0  0
  -29.0218  -28.1464   22.2292 O   0  0  0  0  0  0  0  0  0  0  0  0
  -31.2959  -16.0029   19.5145 O   0  0  0  0  0  0  0  0  0  0  0  0
  -22.9121   -7.0882   24.0093 O   0  0  0  0  0  0  0  0  0  0  0  0
  -25.0346  -22.7768   20.9564 O   0  0  0  0  0  0  0  0  0  1  0  0
  -18.0631   -5.0449   22.3613 F   0  0  0  0  0  0  0  0  0  0  0  0
  -22.7073   -4.4897   23.0883 F   0  0  0  0  0  0  0  0  0  0  0  0
  1  2  1  0  0  0  0
  1  5  2  0  0  0  0
  2  6  2  0  0  0  0
  3  8  2  0  0  0  0
  3 19  1  0  0  0  0
  4  9  1  0  0  0  0
  4 19  2  0  0  0  0
  5 21  1  0  0  0  0
  6 23  1  0  0  0  0
  7 10  2  0  0  0  0
  7 22  1  0  0  0  0
  8 25  1  0  0  0  0
  9 25  2  0  0  0  0
 10 26  1  0  0  0  0
 11 12  2  0  0  0  0
 11 27  1  0  0  0  0
 12 28  1  0  0  0  0
 13 16  2  0  0  0  0
 13 31  1  0  0  0  0
 14 24  1  0  0  0  0
 14 26  2  0  0  0  0
 15 28  2  0  0  0  0
 15 29  1  0  0  0  0
 16 63  1  0  0  0  0
 17 18  2  0  0  0  0
 17 64  1  0  0  0  0
 18 68  1  0  0  0  0
 19 30  1  0  0  0  0
 20 30  1  0  0  0  0
 20 32  2  0  0  0  0
 20 34  1  0  0  0  0
 21 23  2  0  0  0  0
 21 39  1  0  0  0  0
 22 24  2  0  0  0  0
 22 40  1  0  0  0  0
 23 48  1  0  0  0  0
 24 41  1  0  0  0  0
 25 83  1  0  0  0  0
 26 84  1  0  0  0  0
 27 29  2  0  0  0  0
 27 83  1  0  0  0  0
 28 85  1  0  0  0  0
 29 86  1  0  0  0  0
 30 65  2  0  0  0  0
 31 58  1  0  0  0  0
 31 66  2  0  0  0  0
 32 69  1  0  0  0  0
 32 72  1  0  0  0  0
 33 63  2  0  0  0  0
 33 66  1  0  0  0  0
 33 74  1  0  0  0  0
 34 73  1  0  0  0  0
 34 78  2  0  0  0  0
 35 49  1  0  0  0  0
 35 75  1  0  0  0  0
 35 79  2  0  0  0  0
 36 59  1  0  0  0  0
 36 70  1  0  0  0  0
 36 80  2  0  0  0  0
 37 60  1  0  0  0  0
 37 76  1  0  0  0  0
 37 81  2  0  0  0  0
 38 71  1  0  0  0  0
 38 74  1  0  0  0  0
 38 82  2  0  0  0  0
 39 42  1  0  0  0  0
 40 49  1  0  0  0  0
 41 70  1  0  0  0  0
 42 44  1  0  0  0  0
 43 45  1  0  0  0  0
 43 46  1  0  0  0  0
 44 48  1  0  0  0  0
 45 50  1  0  0  0  0
 46 71  1  0  0  0  0
 47 50  1  0  0  0  0
 47 71  1  0  0  0  0
 48 75  1  0  0  0  0
 49 70  1  0  0  0  0
 50 69  1  0  0  0  0
 51 60  1  0  0  0  0
 52 61  1  0  0  0  0
 53 62  1  0  0  0  0
 54 62  1  0  0  0  0
 55 62  1  0  0  0  0
 56 77  1  0  0  0  0
 57 61  1  0  0  0  0
 57 84  1  0  0  0  0
 58 61  1  0  0  0  0
 58 68  1  0  0  0  0
 59 62  1  0  0  0  0
 59 76  1  0  0  0  0
 60 77  1  0  0  0  0
 64 67  2  0  0  0  0
 65 69  1  0  0  0  0
 67 68  1  0  0  0  0
M  CHG  1  77   1
M  ISO  4  38 100  57 101  74 100  84 101
M  END
> <Batch ID>
0189

> <Smiles>
CNC(C)C(=O)NC(C(=O)N1Cc2cc([101O:1][101CH2:1]C(C)C(c3ccnc([100NH:0][100C:0](=O)N4CCCC(n5nc(-c6ccc(Oc7ccc(F)cc7F)cc6)c(C(N)=O)c5N)C4)n3)n3ccnn3)ccc2CC1C(=O)NC1CCCc2ccccc21)C(C)(C)C

> <Shape>
0.281

> <Color>
0.138

> <Negative vol penalty>
0.000

$$$$

  -OEChem-04052305183D

 84 92  0     1  0  0  0  0  0999 V2000
  -16.9854  -29.2309   24.5156 C   0  0  0  0  0  0  0  0  0  0  0  0
  -17.3772  -28.1335   23.7557 C   0  0  0  0  0  0  0  0  0  0  0  0
  -26.6292  -12.6415   20.7710 C   0  0  0  0  0  0  0  0  0  0  0  0
  -25.1410  -14.5150   21.1061 C   0  0  0  0  0  0  0  0  0  0  0  0
  -17.6263  -30.4578   24.3484 C   0  0  0  0  0  0  0  0  0  0  0  0
  -18.4096  -28.2625   22.8273 C   0  0  0  0  0  0  0  0  0  0  0  0
  -22.5680  -24.0224   21.3326 C   0  0  0  0  0  0  0  0  0  0  0  0
  -25.6668  -11.7822   21.3011 C   0  0  0  0  0  0  0  0  0  0  0  0
  -24.1786  -13.6557   21.6362 C   0  0  0  0  0  0  0  0  0  0  0  0
  -22.6518  -23.1246   20.2692 C   0  0  0  0  0  0  0  0  0  0  0  0
  -23.4636   -9.0449   22.2327 C   0  0  0  0  0  0  0  0  0  0  0  0
  -23.2232   -7.8467   21.5604 C   0  0  0  0  0  0  0  0  0  0  0  0
  -24.0705  -24.6729   19.0819 C   0  0  0  0  0  0  0  0  0  0  0  0
  -22.5802   -9.0832   19.5868 C   0  0  0  0  0  0  0  0  0  0  0  0
  -30.1031  -22.1147   21.3824 C   0  0  0  0  0  0  0  0  0  0  0  0
  -26.3663  -14.0080   20.6735 C   0  0  0  0  0  0  0  0  0  0  0  0
  -27.5204  -15.2651   18.7774 C   0  0  0  0  0  0  0  0  0  0  0  0
  -18.6736  -30.5995   23.4243 C   0  0  0  0  0  0  0  0  0  0  0  0
  -23.2270  -25.2588   21.2740 C   0  0  0  0  0  0  0  0  0  0  0  0
  -19.0642  -29.4928   22.6466 C   0  0  0  0  0  0  0  0  0  0  0  0
  -23.9955  -25.5834   20.1470 C   0  0  0  0  0  0  0  0  0  0  0  0
  -24.4415  -12.2893   21.7337 C   0  0  0  0  0  0  0  0  0  0  0  0
  -23.4008  -23.4510   19.1424 C   0  0  0  0  0  0  0  0  0  0  0  0
  -23.2623  -10.2623   21.5822 C   0  0  0  0  0  0  0  0  0  0  0  0
  -22.7815   -7.8658   20.2374 C   0  0  0  0  0  0  0  0  0  0  0  0
  -22.8206  -10.2814   20.2592 C   0  0  0  0  0  0  0  0  0  0  0  0
  -27.3602  -14.8962   20.1265 C   0  0  0  0  0  0  0  0  0  0  0  0
  -29.3742  -21.0227   21.8045 C   0  0  0  0  0  0  0  0  0  0  0  0
  -28.5956  -16.1197   18.7805 C   0  0  0  0  0  0  0  0  0  0  0  0
  -28.3216  -21.4134   19.9205 C   0  0  0  0  0  0  0  0  0  0  0  0
  -26.7649  -14.8706   17.6246 C   0  0  0  0  0  0  0  0  0  0  0  0
  -22.3005  -28.2990   21.3220 C   0  0  0  0  0  0  0  0  0  0  0  0
  -30.9459  -19.5959   23.0822 C   0  0  0  0  0  0  0  0  0  0  0  0
  -25.4931  -28.8645   21.4198 C   0  0  0  0  0  0  0  0  0  0  0  0
  -26.4007  -20.4537   18.6037 C   0  0  0  0  0  0  0  0  0  0  0  0
  -28.6525  -27.7625   20.7486 C   0  0  0  0  0  0  0  0  0  0  0  0
  -19.3047  -31.9575   23.2450 C   0  0  0  0  0  0  0  0  0  0  0  0
  -23.1485  -26.2048   22.4407 C   0  0  0  0  0  0  0  0  0  0  0  0
  -24.7385  -26.8894   20.0432 C   0  0  0  0  0  0  0  0  0  0  0  0
  -20.6404  -31.9158   22.5072 C   0  0  0  0  0  0  0  0  0  0  0  0
  -32.6227  -17.0750   21.1656 C   0  0  0  0  0  0  0  0  0  0  0  0
  -20.5382  -31.0328   21.2676 C   0  0  0  0  0  0  0  0  0  0  0  0
  -31.4784  -16.2469   20.5825 C   0  0  0  0  0  0  0  0  0  0  0  0
  -32.2872  -17.5843   22.5639 C   0  0  0  0  0  0  0  0  0  0  0  0
  -29.8663  -17.5339   22.0556 C   0  0  0  0  0  0  0  0  0  0  0  0
  -20.1965  -29.5868   21.6469 C   0  0  1  0  0  0  0  0  0  0  0  0
  -23.4404  -27.6522   22.0570 C   0  0  1  0  0  0  0  0  0  0  0  0
  -30.1518  -17.0256   20.6313 C   0  0  2  0  0  0  0  0  0  0  0  0
  -29.4492  -21.1201   24.3298 C   0  0  0  0  0  0  0  0  0  0  0  0
  -26.3547  -20.0408   16.1094 C   0  0  0  0  0  0  0  0  0  0  0  0
  -31.1619  -27.7574   20.7296 C   0  0  0  0  0  0  0  0  0  0  0  0
  -25.1170  -30.6905   19.0044 C   0  0  0  0  0  0  0  0  0  0  0  0
  -27.5910  -30.5928   18.6329 C   0  0  0  0  0  0  0  0  0  0  0  0
  -26.6859  -31.5694   20.7423 C   0  0  0  0  0  0  0  0  0  0  0  0
  -28.7851  -26.3744   23.3591 C   0  0  0  0  0  0  0  0  0  0  0  0
  -24.1756  -20.3798   17.3827 C   0  0  0  0  0  0  0  0  0  0  0  0
  -23.3912  -21.1872   18.4137 C   0  0  0  0  0  0  0  0  0  1  0  0
  -29.5965  -20.2684   23.0540 C   0  0  1  0  0  0  0  0  0  0  0  0
  -26.5748  -29.0688   20.3867 C   0  0  1  0  0  0  0  0  0  0  0  0
  -25.6689  -20.7362   17.2853 C   0  0  1  0  0  0  0  0  0  0  0  0
  -29.9120  -27.7380   21.5957 C   0  0  2  0  0  0  0  0  0  0  0  0
  -26.4767  -30.4565   19.6924 C   0  0  0  0  0  0  0  0  0  0  0  0
  -28.2616  -15.4694   20.9284 N   0  0  0  0  0  0  0  0  0  0  0  0
  -28.3520  -20.6193   20.9677 N   0  0  0  0  0  0  0  0  0  0  0  0
  -28.9986  -16.2071   20.0806 N   0  0  0  0  0  0  0  0  0  0  0  0
  -24.6257  -27.7837   21.2072 N   0  0  0  0  0  0  0  0  0  0  0  0
  -31.0095  -18.2989   22.5726 N   0  0  0  0  0  0  0  0  0  0  0  0
  -29.2263  -16.7974   17.7980 N   0  0  0  0  0  0  0  0  0  0  0  0
  -25.6919  -13.9860   17.7995 N   0  0  0  0  0  0  0  0  0  0  0  0
  -27.4350  -21.3599   18.8187 N   0  0  0  0  0  0  0  0  0  0  0  0
  -21.3709  -28.9042   22.1461 N   0  0  0  0  0  0  0  0  0  0  0  0
  -27.8418  -28.8306   21.0697 N   0  0  0  0  0  0  0  0  0  0  0  0
  -29.9445  -26.5105   22.4402 N   0  3  0  0  0  0  0  0  0  0  0  0
  -27.0434  -15.2772   16.4710 O   0  0  0  0  0  0  0  0  0  0  0  0
  -22.2676  -28.2536   20.0979 O   0  0  0  0  0  0  0  0  0  0  0  0
  -31.9140  -20.2078   23.5411 O   0  0  0  0  0  0  0  0  0  0  0  0
  -25.4250  -29.6312   22.3837 O   0  0  0  0  0  0  0  0  0  0  0  0
  -26.0664  -19.5276   19.3374 O   0  0  0  0  0  0  0  0  0  0  0  0
  -28.4137  -26.9206   19.8857 O   0  0  0  0  0  0  0  0  0  0  0  0
  -23.5021  -11.4510   22.2508 O   0  0  0  0  0  0  0  0  0  0  0  0
  -23.4837  -22.5769   18.1028 O   0  0  0  0  0  0  0  0  0  1  0  0
  -22.5522   -6.7151   19.5914 F   0  0  0  0  0  0  0  0  0  0  0  0
  -22.6266  -11.4478   19.6286 F   0  0  0  0  0  0  0  0  0  0  0  0
  -29.4939  -22.6660   19.8769 S   0  0  0  0  0  0  0  0  0  0  0  0
  1  2  1  0  0  0  0
  1  5  2  0  0  0  0
  2  6  2  0  0  0  0
  3  8  2  0  0  0  0
  3 16  1  0  0  0  0
  4  9  1  0  0  0  0
  4 16  2  0  0  0  0
  5 18  1  0  0  0  0
  6 20  1  0  0  0  0
  7 10  2  0  0  0  0
  7 19  1  0  0  0  0
  8 22  1  0  0  0  0
  9 22  2  0  0  0  0
 10 23  1  0  0  0  0
 11 12  2  0  0  0  0
 11 24  1  0  0  0  0
 12 25  1  0  0  0  0
 13 21  1  0  0  0  0
 13 23  2  0  0  0  0
 14 25  2  0  0  0  0
 14 26  1  0  0  0  0
 15 28  2  0  0  0  0
 15 84  1  0  0  0  0
 16 27  1  0  0  0  0
 17 27  1  0  0  0  0
 17 29  2  0  0  0  0
 17 31  1  0  0  0  0
 18 20  2  0  0  0  0
 18 37  1  0  0  0  0
 19 21  2  0  0  0  0
 19 38  1  0  0  0  0
 20 46  1  0  0  0  0
 21 39  1  0  0  0  0
 22 80  1  0  0  0  0
 23 81  1  0  0  0  0
 24 26  2  0  0  0  0
 24 80  1  0  0  0  0
 25 82  1  0  0  0  0
 26 83  1  0  0  0  0
 27 63  2  0  0  0  0
 28 58  1  0  0  0  0
 28 64  1  0  0  0  0
 29 65  1  0  0  0  0
 29 68  1  0  0  0  0
 30 64  2  0  0  0  0
 30 70  1  0  0  0  0
 30 84  1  0  0  0  0
 31 69  1  0  0  0  0
 31 74  2  0  0  0  0
 32 47  1  0  0  0  0
 32 71  1  0  0  0  0
 32 75  2  0  0  0  0
 33 58  1  0  0  0  0
 33 67  1  0  0  0  0
 33 76  2  0  0  0  0
 34 59  1  0  0  0  0
 34 66  1  0  0  0  0
 34 77  2  0  0  0  0
 35 60  1  0  0  0  0
 35 70  1  0  0  0  0
 35 78  2  0  0  0  0
 36 61  1  0  0  0  0
 36 72  1  0  0  0  0
 36 79  2  0  0  0  0
 37 40  1  0  0  0  0
 38 47  1  0  0  0  0
 39 66  1  0  0  0  0
 40 42  1  0  0  0  0
 41 43  1  0  0  0  0
 41 44  1  0  0  0  0
 42 46  1  0  0  0  0
 43 48  1  0  0  0  0
 44 67  1  0  0  0  0
 45 48  1  0  0  0  0
 45 67  1  0  0  0  0
 46 71  1  0  0  0  0
 47 66  1  0  0  0  0
 48 65  1  0  0  0  0
 49 58  1  0  0  0  0
 50 60  1  0  0  0  0
 51 61  1  0  0  0  0
 52 62  1  0  0  0  0
 53 62  1  0  0  0  0
 54 62  1  0  0  0  0
 55 73  1  0  0  0  0
 56 57  1  0  0  0  0
 56 60  1  0  0  0  0
 57 81  1  0  0  0  0
 59 62  1  0  0  0  0
 59 72  1  0  0  0  0
 61 73  1  0  0  0  0
 63 65  1  0  0  0  0
M  CHG  1  73   1
M  ISO  4  33 100  57 101  58 100  81 101
M  END
> <Batch ID>
0189

> <Smiles>
CNC(C)C(=O)NC(C(=O)N1Cc2cc([101O:1][101CH2:1]CC(C)C(=O)Nc3nc([100CH:0](C)[100C:0](=O)N4CCCC(n5nc(-c6ccc(Oc7ccc(F)cc7F)cc6)c(C(N)=O)c5N)C4)cs3)ccc2CC1C(=O)NC1CCCc2ccccc21)C(C)(C)C

> <Shape>
0.256

> <Color>
0.079

> <Negative vol penalty>
0.000

$$$$

  -OEChem-04052305183D

 79 86  0     1  0  0  0  0  0999 V2000
  -20.1502  -22.2506   17.6629 C   0  0  0  0  0  0  0  0  0  0  0  0
  -21.5261  -22.0527   17.7173 C   0  0  0  0  0  0  0  0  0  0  0  0
  -27.3775  -28.2535   20.6567 C   0  0  0  0  0  0  0  0  0  0  0  0
  -25.2600  -27.4332   19.8320 C   0  0  0  0  0  0  0  0  0  0  0  0
  -19.3117  -21.5518   18.5304 C   0  0  0  0  0  0  0  0  0  0  0  0
  -22.0646  -21.1566   18.6401 C   0  0  0  0  0  0  0  0  0  0  0  0
  -26.9718  -17.5760   17.8629 C   0  0  0  0  0  0  0  0  0  0  0  0
  -26.7982  -29.4973   20.9071 C   0  0  0  0  0  0  0  0  0  0  0  0
  -24.6806  -28.6771   20.0825 C   0  0  0  0  0  0  0  0  0  0  0  0
  -28.3029  -17.7107   18.2552 C   0  0  0  0  0  0  0  0  0  0  0  0
  -25.7882  -32.7795   22.0998 C   0  0  0  0  0  0  0  0  0  0  0  0
  -26.0728  -33.3937   23.3193 C   0  0  0  0  0  0  0  0  0  0  0  0
  -27.8572  -16.3662   20.2078 C   0  0  0  0  0  0  0  0  0  0  0  0
  -25.1118  -31.5123   24.4914 C   0  0  0  0  0  0  0  0  0  0  0  0
  -26.6084  -27.2214   20.1191 C   0  0  0  0  0  0  0  0  0  0  0  0
  -28.2874  -25.6596   19.0013 C   0  0  0  0  0  0  0  0  0  0  0  0
  -19.8394  -20.6395   19.4578 C   0  0  0  0  0  0  0  0  0  0  0  0
  -26.0693  -16.8432   18.6471 C   0  0  0  0  0  0  0  0  0  0  0  0
  -21.2325  -20.4459   19.5217 C   0  0  0  0  0  0  0  0  0  0  0  0
  -26.5158  -16.2215   19.8220 C   0  0  0  0  0  0  0  0  0  0  0  0
  -25.4497  -29.7092   20.6200 C   0  0  0  0  0  0  0  0  0  0  0  0
  -28.7451  -17.1082   19.4293 C   0  0  0  0  0  0  0  0  0  0  0  0
  -25.1652  -31.5316   22.0760 C   0  0  0  0  0  0  0  0  0  0  0  0
  -25.7347  -32.7602   24.5151 C   0  0  0  0  0  0  0  0  0  0  0  0
  -24.8271  -30.8980   23.2718 C   0  0  0  0  0  0  0  0  0  0  0  0
  -27.2064  -25.9364   19.8596 C   0  0  0  0  0  0  0  0  0  0  0  0
  -28.4700  -24.3023   19.1059 C   0  0  0  0  0  0  0  0  0  0  0  0
  -29.0577  -26.5497   18.1828 C   0  0  0  0  0  0  0  0  0  0  0  0
  -23.3906  -17.5280   20.2153 C   0  0  0  0  0  0  0  0  0  0  0  0
  -23.3144  -14.3212   20.6983 C   0  0  0  0  0  0  0  0  0  0  0  0
  -25.0328  -11.3792   20.8945 C   0  0  0  0  0  0  0  0  0  0  0  0
  -28.8446  -19.6654   22.1888 C   0  0  0  0  0  0  0  0  0  0  0  0
  -18.8972  -19.9425   20.4071 C   0  0  0  0  0  0  0  0  0  0  0  0
  -24.6431  -16.6850   18.1962 C   0  0  0  0  0  0  0  0  0  0  0  0
  -25.5916  -15.4072   20.6887 C   0  0  0  0  0  0  0  0  0  0  0  0
  -19.5168  -18.7323   21.1012 C   0  0  0  0  0  0  0  0  0  0  0  0
  -25.5836  -20.7481   21.2560 C   0  0  0  0  0  0  0  0  0  0  0  0
  -20.9048  -19.0747   21.6332 C   0  0  0  0  0  0  0  0  0  0  0  0
  -25.8035  -22.1730   20.7450 C   0  0  0  0  0  0  0  0  0  0  0  0
  -26.4991  -20.4236   22.4344 C   0  0  0  0  0  0  0  0  0  0  0  0
  -28.1537  -22.0854   21.6765 C   0  0  0  0  0  0  0  0  0  0  0  0
  -21.8524  -19.4640   20.4921 C   0  0  1  0  0  0  0  0  0  0  0  0
  -23.6898  -16.3455   19.3378 C   0  0  1  0  0  0  0  0  0  0  0  0
  -27.2922  -22.4403   20.4525 C   0  0  2  0  0  0  0  0  0  0  0  0
  -31.6219  -19.7285   24.3115 C   0  0  0  0  0  0  0  0  0  0  0  0
  -33.5728  -17.3311   19.1567 C   0  0  0  0  0  0  0  0  0  0  0  0
  -24.7038   -8.9317   21.3407 C   0  0  0  0  0  0  0  0  0  0  0  0
  -23.0506  -14.9030   23.6819 C   0  0  0  0  0  0  0  0  0  0  0  0
  -23.6779  -12.5212   24.1309 C   0  0  0  0  0  0  0  0  0  0  0  0
  -21.6018  -13.0421   22.8499 C   0  0  0  0  0  0  0  0  0  0  0  0
  -32.4911  -20.1242   19.9600 C   0  0  0  0  0  0  0  0  0  0  0  0
  -26.0187  -10.6378   18.2043 C   0  0  0  0  0  0  0  0  0  0  0  0
  -32.2586  -19.4875   22.9457 C   0  0  0  0  0  0  0  0  0  0  0  0
  -32.8992  -17.6656   20.4843 C   0  0  0  0  0  0  0  0  0  0  0  0
  -30.7176  -18.4368   19.4326 C   0  0  0  0  0  0  0  0  0  1  0  0
  -23.8538  -13.3859   21.7534 C   0  0  1  0  0  0  0  0  0  0  0  0
  -24.7716  -10.0170   20.2775 C   0  0  2  0  0  0  0  0  0  0  0  0
  -31.2300  -19.0532   21.8817 C   0  0  2  0  0  0  0  0  0  0  0  0
  -23.0632  -13.4799   23.0889 C   0  0  0  0  0  0  0  0  0  0  0  0
  -31.8359  -18.8054   20.4448 C   0  0  2  0  0  0  0  0  0  0  0  0
  -26.7353  -24.8428   20.4647 N   0  0  0  0  0  0  0  0  0  0  0  0
  -27.5239  -23.8656   19.9860 N   0  0  0  0  0  0  0  0  0  0  0  0
  -24.2050  -15.2870   20.2087 N   0  0  0  0  0  0  0  0  0  0  0  0
  -27.8967  -20.6973   22.0911 N   0  0  0  0  0  0  0  0  0  0  0  0
  -29.3459  -23.4517   18.5300 N   0  0  0  0  0  0  0  0  0  0  0  0
  -28.6309  -26.7871   16.8691 N   0  0  0  0  0  0  0  0  0  0  0  0
  -22.3134  -18.2836   19.7931 N   0  0  0  0  0  0  0  0  0  0  0  0
  -23.8597  -12.0554   21.1549 N   0  0  0  0  0  0  0  0  0  0  0  0
  -30.1450  -20.0079   21.8387 N   0  0  0  0  0  0  0  0  0  0  0  0
  -25.8559   -9.6670   19.3170 N   0  3  0  0  0  0  0  0  0  0  0  0
  -30.1028  -27.1050   18.5986 O   0  0  0  0  0  0  0  0  0  0  0  0
  -24.0847  -17.7383   21.2030 O   0  0  0  0  0  0  0  0  0  0  0  0
  -22.1480  -14.1948   20.3173 O   0  0  0  0  0  0  0  0  0  0  0  0
  -26.1642  -11.7997   21.1260 O   0  0  0  0  0  0  0  0  0  0  0  0
  -28.5527  -18.5220   22.5555 O   0  0  0  0  0  0  0  0  0  0  0  0
  -24.8840  -30.9227   20.8645 O   0  0  0  0  0  0  0  0  0  0  0  0
  -30.0524  -17.2396   19.8175 O   0  0  0  0  0  0  0  0  0  1  0  0
  -26.0095  -33.3495   25.6861 F   0  0  0  0  0  0  0  0  0  0  0  0
  -24.2296  -29.6987   23.2553 F   0  0  0  0  0  0  0  0  0  0  0  0
  1  2  1  0  0  0  0
  1  5  2  0  0  0  0
  2  6  2  0  0  0  0
  3  8  2  0  0  0  0
  3 15  1  0  0  0  0
  4  9  1  0  0  0  0
  4 15  2  0  0  0  0
  5 17  1  0  0  0  0
  6 19  1  0  0  0  0
  7 10  2  0  0  0  0
  7 18  1  0  0  0  0
  8 21  1  0  0  0  0
  9 21  2  0  0  0  0
 10 22  1  0  0  0  0
 11 12  2  0  0  0  0
 11 23  1  0  0  0  0
 12 24  1  0  0  0  0
 13 20  1  0  0  0  0
 13 22  2  0  0  0  0
 14 24  2  0  0  0  0
 14 25  1  0  0  0  0
 15 26  1  0  0  0  0
 16 26  1  0  0  0  0
 16 27  2  0  0  0  0
 16 28  1  0  0  0  0
 17 19  2  0  0  0  0
 17 33  1  0  0  0  0
 18 20  2  0  0  0  0
 18 34  1  0  0  0  0
 19 42  1  0  0  0  0
 20 35  1  0  0  0  0
 21 76  1  0  0  0  0
 22 77  1  0  0  0  0
 23 25  2  0  0  0  0
 23 76  1  0  0  0  0
 24 78  1  0  0  0  0
 25 79  1  0  0  0  0
 26 61  2  0  0  0  0
 27 62  1  0  0  0  0
 27 65  1  0  0  0  0
 28 66  1  0  0  0  0
 28 71  2  0  0  0  0
 29 43  1  0  0  0  0
 29 67  1  0  0  0  0
 29 72  2  0  0  0  0
 30 56  1  0  0  0  0
 30 63  1  0  0  0  0
 30 73  2  0  0  0  0
 31 57  1  0  0  0  0
 31 68  1  0  0  0  0
 31 74  2  0  0  0  0
 32 64  1  0  0  0  0
 32 69  1  0  0  0  0
 32 75  2  0  0  0  0
 33 36  1  0  0  0  0
 34 43  1  0  0  0  0
 35 63  1  0  0  0  0
 36 38  1  0  0  0  0
 37 39  1  0  0  0  0
 37 40  1  0  0  0  0
 38 42  1  0  0  0  0
 39 44  1  0  0  0  0
 40 64  1  0  0  0  0
 41 44  1  0  0  0  0
 41 64  1  0  0  0  0
 42 67  1  0  0  0  0
 43 63  1  0  0  0  0
 44 62  1  0  0  0  0
 45 53  1  0  0  0  0
 46 54  1  0  0  0  0
 47 57  1  0  0  0  0
 48 59  1  0  0  0  0
 49 59  1  0  0  0  0
 50 59  1  0  0  0  0
 51 60  1  0  0  0  0
 52 70  1  0  0  0  0
 53 58  1  0  0  0  0
 54 60  1  0  0  0  0
 55 60  1  0  0  0  0
 55 77  1  0  0  0  0
 56 59  1  0  0  0  0
 56 68  1  0  0  0  0
 57 70  1  0  0  0  0
 58 60  1  0  0  0  0
 58 69  1  0  0  0  0
 61 62  1  0  0  0  0
M  CHG  1  70   1
M  ISO  4  32 100  55 101  69 100  77 101
M  END
> <Batch ID>
0189

> <Smiles>
CCC([100NH:0][100C:0](=O)N1CCCC(n2nc(-c3ccc(Oc4ccc(F)cc4F)cc3)c(C(N)=O)c2N)C1)C(C)(CC)[101CH2:1][101O:1]c1ccc2c(c1)CN(C(=O)C(NC(=O)C(C)NC)C(C)(C)C)C(C(=O)NC1CCCc3ccccc31)C2

> <Shape>
0.211

> <Color>
0.072

> <Negative vol penalty>
0.000

$$$$

  -OEChem-04052305183D

 83 91  0     1  0  0  0  0  0999 V2000
  -21.9119  -12.3470   18.8190 C   0  0  0  0  0  0  0  0  0  0  0  0
  -21.8342  -13.6631   19.2630 C   0  0  0  0  0  0  0  0  0  0  0  0
  -30.0217  -27.1287   20.3687 C   0  0  0  0  0  0  0  0  0  0  0  0
  -28.2897  -27.4302   18.7115 C   0  0  0  0  0  0  0  0  0  0  0  0
  -23.0585  -11.5944   19.0698 C   0  0  0  0  0  0  0  0  0  0  0  0
  -22.9028  -14.2272   19.9590 C   0  0  0  0  0  0  0  0  0  0  0  0
  -24.0128  -18.9017   18.3585 C   0  0  0  0  0  0  0  0  0  0  0  0
  -30.8881  -26.6649   19.3788 C   0  0  0  0  0  0  0  0  0  0  0  0
  -29.1561  -26.9665   17.7216 C   0  0  0  0  0  0  0  0  0  0  0  0
  -23.1894  -19.9374   18.7977 C   0  0  0  0  0  0  0  0  0  0  0  0
  -31.7315  -28.1790   15.9002 C   0  0  0  0  0  0  0  0  0  0  0  0
  -31.7840  -28.8906   14.7017 C   0  0  0  0  0  0  0  0  0  0  0  0
  -24.8260  -20.5209   20.4711 C   0  0  0  0  0  0  0  0  0  0  0  0
  -31.0790  -26.9172   13.4992 C   0  0  0  0  0  0  0  0  0  0  0  0
  -19.5698  -28.9980   22.9032 C   0  0  0  0  0  0  0  0  0  0  0  0
  -28.7225  -27.5113   20.0351 C   0  0  0  0  0  0  0  0  0  0  0  0
  -27.6536  -29.3214   21.4803 C   0  0  0  0  0  0  0  0  0  0  0  0
  -24.1455  -12.1526   19.7608 C   0  0  0  0  0  0  0  0  0  0  0  0
  -25.2463  -18.6605   18.9804 C   0  0  0  0  0  0  0  0  0  0  0  0
  -24.0645  -13.4810   20.2204 C   0  0  0  0  0  0  0  0  0  0  0  0
  -25.6644  -19.4831   20.0362 C   0  0  0  0  0  0  0  0  0  0  0  0
  -30.4553  -26.5838   18.0553 C   0  0  0  0  0  0  0  0  0  0  0  0
  -23.5946  -20.7454   19.8561 C   0  0  0  0  0  0  0  0  0  0  0  0
  -31.3529  -26.8364   15.8982 C   0  0  0  0  0  0  0  0  0  0  0  0
  -31.4577  -28.2597   13.5012 C   0  0  0  0  0  0  0  0  0  0  0  0
  -31.0266  -26.2056   14.6977 C   0  0  0  0  0  0  0  0  0  0  0  0
  -27.8268  -27.9899   21.0573 C   0  0  0  0  0  0  0  0  0  0  0  0
  -19.7182  -26.8491   22.4908 C   0  0  0  0  0  0  0  0  0  0  0  0
  -26.6982  -29.2475   22.4642 C   0  0  0  0  0  0  0  0  0  0  0  0
  -18.4283  -26.8781   22.9783 C   0  0  0  0  0  0  0  0  0  0  0  0
  -28.2986  -30.5180   21.0246 C   0  0  0  0  0  0  0  0  0  0  0  0
  -26.5110  -16.2258   20.5855 C   0  0  0  0  0  0  0  0  0  0  0  0
  -29.1851  -18.0596   20.4913 C   0  0  0  0  0  0  0  0  0  0  0  0
  -30.5551  -21.1718   20.2012 C   0  0  0  0  0  0  0  0  0  0  0  0
  -22.3292  -25.3192   23.6184 C   0  0  0  0  0  0  0  0  0  0  0  0
  -25.3450  -11.2851   20.0494 C   0  0  0  0  0  0  0  0  0  0  0  0
  -26.1349  -17.5561   18.4773 C   0  0  0  0  0  0  0  0  0  0  0  0
  -26.9885  -19.2785   20.7244 C   0  0  0  0  0  0  0  0  0  0  0  0
  -26.5823  -12.0758   20.4667 C   0  0  0  0  0  0  0  0  0  0  0  0
  -24.9773  -26.2772   25.7970 C   0  0  0  0  0  0  0  0  0  0  0  0
  -26.2186  -13.1222   21.5153 C   0  0  0  0  0  0  0  0  0  0  0  0
  -25.9923  -26.9449   24.8675 C   0  0  0  0  0  0  0  0  0  0  0  0
  -24.2856  -25.0953   25.1214 C   0  0  0  0  0  0  0  0  0  0  0  0
  -24.6750  -26.0717   22.8923 C   0  0  0  0  0  0  0  0  0  0  0  0
  -25.2126  -14.1361   20.9571 C   0  0  1  0  0  0  0  0  0  0  0  0
  -27.1408  -17.0769   19.5194 C   0  0  1  0  0  0  0  0  0  0  0  0
  -25.3582  -27.3038   23.5101 C   0  0  2  0  0  0  0  0  0  0  0  0
  -32.7663  -22.3584   20.1995 C   0  0  0  0  0  0  0  0  0  0  0  0
  -20.7593  -26.5666   19.6564 C   0  0  0  0  0  0  0  0  0  0  0  0
  -29.3426  -17.7654   23.5242 C   0  0  0  0  0  0  0  0  0  0  0  0
  -30.9434  -19.6901   23.5579 C   0  0  0  0  0  0  0  0  0  0  0  0
  -31.5408  -17.5944   22.3439 C   0  0  0  0  0  0  0  0  0  0  0  0
  -30.1488  -22.1694   17.4447 C   0  0  0  0  0  0  0  0  0  0  0  0
  -20.6464  -22.7805   20.7147 C   0  0  0  0  0  0  0  0  0  0  0  0
  -21.0426  -24.0727   19.9975 C   0  0  0  0  0  0  0  0  0  0  0  0
  -21.3847  -21.5776   20.1379 C   0  0  0  0  0  0  0  0  0  1  0  0
  -20.4664  -25.6212   22.0066 C   0  0  1  0  0  0  0  0  0  0  0  0
  -29.7800  -19.1287   21.3757 C   0  0  1  0  0  0  0  0  0  0  0  0
  -31.6961  -21.6945   19.3471 C   0  0  2  0  0  0  0  0  0  0  0  0
  -20.3127  -25.3494   20.4824 C   0  0  1  0  0  0  0  0  0  0  0  0
  -30.3758  -18.5475   22.6889 C   0  0  0  0  0  0  0  0  0  0  0  0
  -20.3741  -28.0638   22.4466 N   0  0  0  0  0  0  0  0  0  0  0  0
  -27.0443  -27.1329   21.7184 N   0  0  0  0  0  0  0  0  0  0  0  0
  -26.3702  -27.9276   22.5670 N   0  0  0  0  0  0  0  0  0  0  0  0
  -27.8190  -18.1818   20.2002 N   0  0  0  0  0  0  0  0  0  0  0  0
  -23.7040  -25.5029   23.8401 N   0  0  0  0  0  0  0  0  0  0  0  0
  -26.1150  -30.1834   23.2430 N   0  0  0  0  0  0  0  0  0  0  0  0
  -17.5681  -25.8421   23.1283 N   0  0  0  0  0  0  0  0  0  0  0  0
  -29.2560  -30.4147   20.0062 N   0  0  0  0  0  0  0  0  0  0  0  0
  -25.8815  -15.0942   20.1033 N   0  0  0  0  0  0  0  0  0  0  0  0
  -30.7426  -19.8514   20.5513 N   0  0  0  0  0  0  0  0  0  0  0  0
  -21.8583  -25.7385   22.3801 N   0  0  0  0  0  0  0  0  0  0  0  0
  -31.1912  -22.6942   18.3639 N   0  3  0  0  0  0  0  0  0  0  0  0
  -28.0457  -31.6434   21.5175 O   0  0  0  0  0  0  0  0  0  0  0  0
  -26.5916  -16.5695   21.7590 O   0  0  0  0  0  0  0  0  0  0  0  0
  -29.9075  -17.1536   20.0682 O   0  0  0  0  0  0  0  0  0  0  0  0
  -29.5955  -21.8665   20.5285 O   0  0  0  0  0  0  0  0  0  0  0  0
  -21.5761  -24.8236   24.4635 O   0  0  0  0  0  0  0  0  0  0  0  0
  -31.3005  -26.1315   17.0890 O   0  0  0  0  0  0  0  0  0  0  0  0
  -22.7925  -21.7566   20.2872 O   0  0  0  0  0  0  0  0  0  1  0  0
  -31.5067  -28.9436   12.3505 F   0  0  0  0  0  0  0  0  0  0  0  0
  -30.6610  -24.9164   14.6897 F   0  0  0  0  0  0  0  0  0  0  0  0
  -18.0100  -28.4861   23.4034 S   0  0  0  0  0  0  0  0  0  0  0  0
  1  2  1  0  0  0  0
  1  5  2  0  0  0  0
  2  6  2  0  0  0  0
  3  8  2  0  0  0  0
  3 16  1  0  0  0  0
  4  9  1  0  0  0  0
  4 16  2  0  0  0  0
  5 18  1  0  0  0  0
  6 20  1  0  0  0  0
  7 10  2  0  0  0  0
  7 19  1  0  0  0  0
  8 22  1  0  0  0  0
  9 22  2  0  0  0  0
 10 23  1  0  0  0  0
 11 12  2  0  0  0  0
 11 24  1  0  0  0  0
 12 25  1  0  0  0  0
 13 21  1  0  0  0  0
 13 23  2  0  0  0  0
 14 25  2  0  0  0  0
 14 26  1  0  0  0  0
 15 62  2  0  0  0  0
 15 83  1  0  0  0  0
 16 27  1  0  0  0  0
 17 27  1  0  0  0  0
 17 29  2  0  0  0  0
 17 31  1  0  0  0  0
 18 20  2  0  0  0  0
 18 36  1  0  0  0  0
 19 21  2  0  0  0  0
 19 37  1  0  0  0  0
 20 45  1  0  0  0  0
 21 38  1  0  0  0  0
 22 79  1  0  0  0  0
 23 80  1  0  0  0  0
 24 26  2  0  0  0  0
 24 79  1  0  0  0  0
 25 81  1  0  0  0  0
 26 82  1  0  0  0  0
 27 63  2  0  0  0  0
 28 30  2  0  0  0  0
 28 57  1  0  0  0  0
 28 62  1  0  0  0  0
 29 64  1  0  0  0  0
 29 67  1  0  0  0  0
 30 68  1  0  0  0  0
 30 83  1  0  0  0  0
 31 69  1  0  0  0  0
 31 74  2  0  0  0  0
 32 46  1  0  0  0  0
 32 70  1  0  0  0  0
 32 75  2  0  0  0  0
 33 58  1  0  0  0  0
 33 65  1  0  0  0  0
 33 76  2  0  0  0  0
 34 59  1  0  0  0  0
 34 71  1  0  0  0  0
 34 77  2  0  0  0  0
 35 66  1  0  0  0  0
 35 72  1  0  0  0  0
 35 78  2  0  0  0  0
 36 39  1  0  0  0  0
 37 46  1  0  0  0  0
 38 65  1  0  0  0  0
 39 41  1  0  0  0  0
 40 42  1  0  0  0  0
 40 43  1  0  0  0  0
 41 45  1  0  0  0  0
 42 47  1  0  0  0  0
 43 66  1  0  0  0  0
 44 47  1  0  0  0  0
 44 66  1  0  0  0  0
 45 70  1  0  0  0  0
 46 65  1  0  0  0  0
 47 64  1  0  0  0  0
 48 59  1  0  0  0  0
 49 60  1  0  0  0  0
 50 61  1  0  0  0  0
 51 61  1  0  0  0  0
 52 61  1  0  0  0  0
 53 73  1  0  0  0  0
 54 55  1  0  0  0  0
 54 56  1  0  0  0  0
 55 60  1  0  0  0  0
 56 80  1  0  0  0  0
 57 60  1  0  0  0  0
 57 72  1  0  0  0  0
 58 61  1  0  0  0  0
 58 71  1  0  0  0  0
 59 73  1  0  0  0  0
 63 64  1  0  0  0  0
M  CHG  1  73   1
M  ISO  4  35 100  56 101  72 100  80 101
M  END
> <Batch ID>
0189

> <Smiles>
CNC(C)C(=O)NC(C(=O)N1Cc2cc([101O:1][101CH2:1]CCC(C)C([100NH:0][100C:0](=O)N3CCCC(n4nc(-c5ccc(Oc6ccc(F)cc6F)cc5)c(C(N)=O)c4N)C3)c3ncsc3N)ccc2CC1C(=O)NC1CCCc2ccccc21)C(C)(C)C

> <Shape>
0.200

> <Color>
0.061

> <Negative vol penalty>
0.000

$$$$

  -OEChem-04052305183D

 91 99  0     1  0  0  0  0  0999 V2000
  -31.6414   -8.8861   26.7724 C   0  0  0  0  0  0  0  0  0  0  0  0
  -31.7363   -9.9327   25.8607 C   0  0  0  0  0  0  0  0  0  0  0  0
  -22.4880  -27.7679   23.1771 C   0  0  0  0  0  0  0  0  0  0  0  0
  -22.2997  -26.9350   20.9170 C   0  0  0  0  0  0  0  0  0  0  0  0
  -30.6058   -7.9591   26.6624 C   0  0  0  0  0  0  0  0  0  0  0  0
  -30.7961  -10.0522   24.8379 C   0  0  0  0  0  0  0  0  0  0  0  0
  -28.6121  -15.2439   22.4332 C   0  0  0  0  0  0  0  0  0  0  0  0
  -21.3731  -28.5803   22.9706 C   0  0  0  0  0  0  0  0  0  0  0  0
  -21.1848  -27.7473   20.7105 C   0  0  0  0  0  0  0  0  0  0  0  0
  -28.9395  -15.9533   21.2786 C   0  0  0  0  0  0  0  0  0  0  0  0
  -18.3596  -30.6050   23.1556 C   0  0  0  0  0  0  0  0  0  0  0  0
  -17.3897  -30.6421   24.1573 C   0  0  0  0  0  0  0  0  0  0  0  0
  -27.1350  -14.8643   20.1050 C   0  0  0  0  0  0  0  0  0  0  0  0
  -17.0402  -28.2646   23.9070 C   0  0  0  0  0  0  0  0  0  0  0  0
  -22.9514  -26.9453   22.1503 C   0  0  0  0  0  0  0  0  0  0  0  0
  -24.1147  -24.7850   22.8486 C   0  0  0  0  0  0  0  0  0  0  0  0
  -29.6469   -8.0729   25.6436 C   0  0  0  0  0  0  0  0  0  0  0  0
  -27.5487  -14.3298   22.4295 C   0  0  0  0  0  0  0  0  0  0  0  0
  -29.7474   -9.1251   24.7134 C   0  0  0  0  0  0  0  0  0  0  0  0
  -26.7945  -14.1465   21.2617 C   0  0  0  0  0  0  0  0  0  0  0  0
  -20.7215  -28.5700   21.7373 C   0  0  0  0  0  0  0  0  0  0  0  0
  -28.2028  -15.7614   20.1134 C   0  0  0  0  0  0  0  0  0  0  0  0
  -18.6697  -29.3977   22.5294 C   0  0  0  0  0  0  0  0  0  0  0  0
  -16.7300  -29.4719   24.5331 C   0  0  0  0  0  0  0  0  0  0  0  0
  -18.0101  -28.2275   22.9052 C   0  0  0  0  0  0  0  0  0  0  0  0
  -24.1033  -26.1063   22.3628 C   0  0  0  0  0  0  0  0  0  0  0  0
  -30.6062  -24.0778   17.4863 C   0  0  0  0  0  0  0  0  0  0  0  0
  -31.7005  -23.5839   16.8077 C   0  0  0  0  0  0  0  0  0  0  0  0
  -25.4433  -24.4368   22.8654 C   0  0  0  0  0  0  0  0  0  0  0  0
  -30.4830  -21.9876   18.1387 C   0  0  0  0  0  0  0  0  0  0  0  0
  -23.0221  -23.9473   23.2488 C   0  0  0  0  0  0  0  0  0  0  0  0
  -27.2809  -11.1983   22.9048 C   0  0  0  0  0  0  0  0  0  0  0  0
  -27.1319  -19.3002   20.6719 C   0  0  0  0  0  0  0  0  0  0  0  0
  -24.1067  -11.8314   22.6916 C   0  0  0  0  0  0  0  0  0  0  0  0
  -21.6323  -13.8843   21.5469 C   0  0  0  0  0  0  0  0  0  0  0  0
  -30.2018  -26.3606   19.7822 C   0  0  0  0  0  0  0  0  0  0  0  0
  -28.5728   -7.0195   25.5367 C   0  0  0  0  0  0  0  0  0  0  0  0
  -27.1913  -13.5921   23.6907 C   0  0  0  0  0  0  0  0  0  0  0  0
  -25.6307  -13.1918   21.2110 C   0  0  0  0  0  0  0  0  0  0  0  0
  -27.4014   -7.4320   24.6490 C   0  0  0  0  0  0  0  0  0  0  0  0
  -29.8082  -26.3424   23.3207 C   0  0  0  0  0  0  0  0  0  0  0  0
  -27.9079   -8.0365   23.3434 C   0  0  0  0  0  0  0  0  0  0  0  0
  -28.3025  -26.1606   23.5203 C   0  0  0  0  0  0  0  0  0  0  0  0
  -30.1151  -27.2151   22.1057 C   0  0  0  0  0  0  0  0  0  0  0  0
  -27.9789  -26.5886   21.0483 C   0  0  0  0  0  0  0  0  0  0  0  0
  -28.7325   -9.3027   23.6050 C   0  0  1  0  0  0  0  0  0  0  0  0
  -26.4127  -12.3062   23.4306 C   0  0  1  0  0  0  0  0  0  0  0  0
  -27.6209  -25.6698   22.2289 C   0  0  2  0  0  0  0  0  0  0  0  0
  -24.7922  -19.9961   21.2444 C   0  0  0  0  0  0  0  0  0  0  0  0
  -32.6377  -23.7158   14.4714 C   0  0  0  0  0  0  0  0  0  0  0  0
  -34.1055  -24.2491   16.4503 C   0  0  0  0  0  0  0  0  0  0  0  0
  -19.1345  -14.1207   21.4970 C   0  0  0  0  0  0  0  0  0  0  0  0
  -29.2922  -21.4189   20.9832 C   0  0  0  0  0  0  0  0  0  0  0  0
  -27.1439  -16.7943   17.0486 C   0  0  0  0  0  0  0  0  0  0  0  0
  -23.9476   -9.6717   20.5421 C   0  0  0  0  0  0  0  0  0  0  0  0
  -21.7168  -10.5944   19.8787 C   0  0  0  0  0  0  0  0  0  0  0  0
  -22.0489   -9.6654   22.1698 C   0  0  0  0  0  0  0  0  0  0  0  0
  -21.7298  -16.4517   23.0159 C   0  0  0  0  0  0  0  0  0  0  0  0
  -30.1283  -25.4755   17.4648 C   0  0  0  0  0  0  0  0  0  0  0  0
  -25.9095  -20.0788   20.2250 C   0  0  0  0  0  0  0  0  0  0  0  0
  -28.0038  -18.7545   18.3915 C   0  0  0  0  0  0  0  0  0  0  0  0
  -32.6552  -24.2704   15.9146 C   0  0  0  0  0  0  0  0  0  0  0  0
  -28.3715  -19.3473   19.7744 C   0  0  1  0  0  0  0  0  0  0  0  0
  -23.1002  -11.8845   21.5677 C   0  0  1  0  0  0  0  0  0  0  0  0
  -20.4157  -14.4763   22.2352 C   0  0  2  0  0  0  0  0  0  0  0  0
  -28.8825  -20.8049   19.6439 C   0  0  2  0  0  0  0  0  0  0  0  0
  -27.5102  -17.3009   18.4383 C   0  0  2  0  0  0  0  0  0  1  0  0
  -22.7265  -10.4706   21.0396 C   0  0  0  0  0  0  0  0  0  0  0  0
  -25.3275  -26.5662   22.0908 N   0  0  0  0  0  0  0  0  0  0  0  0
  -29.9066  -23.1638   18.2498 N   0  0  0  0  0  0  0  0  0  0  0  0
  -26.1205  -25.5283   22.4068 N   0  0  0  0  0  0  0  0  0  0  0  0
  -25.3245  -12.4893   22.4681 N   0  0  0  0  0  0  0  0  0  0  0  0
  -29.4403  -26.6944   20.9143 N   0  0  0  0  0  0  0  0  0  0  0  0
  -26.0865  -23.3066   23.2276 N   0  0  0  0  0  0  0  0  0  0  0  0
  -21.7211  -24.4622   23.1682 N   0  0  0  0  0  0  0  0  0  0  0  0
  -30.0424  -20.8417   18.7727 N   0  0  0  0  0  0  0  0  0  0  0  0
  -27.8618  -10.4229   23.8902 N   0  0  0  0  0  0  0  0  0  0  0  0
  -21.9669  -12.6534   22.0705 N   0  0  0  0  0  0  0  0  0  0  0  0
  -29.4847  -25.8683   18.6986 N   0  0  0  0  0  0  0  0  0  0  0  0
  -20.5263  -15.9612   22.2962 N   0  3  0  0  0  0  0  0  0  0  0  0
  -23.1958  -22.7826   23.6811 O   0  0  0  0  0  0  0  0  0  0  0  0
  -27.4128  -11.0564   21.6948 O   0  0  0  0  0  0  0  0  0  0  0  0
  -27.1198  -18.6624   21.7261 O   0  0  0  0  0  0  0  0  0  0  0  0
  -23.8200  -11.2346   23.7324 O   0  0  0  0  0  0  0  0  0  0  0  0
  -22.2243  -14.4550   20.6334 O   0  0  0  0  0  0  0  0  0  0  0  0
  -31.4304  -26.4866   19.7420 O   0  0  0  0  0  0  0  0  0  0  0  0
  -19.6334  -29.3624   21.5356 O   0  0  0  0  0  0  0  0  0  0  0  0
  -28.5227  -16.4563   18.9779 O   0  0  0  0  0  0  0  0  0  1  0  0
  -15.7998  -29.5074   25.4962 F   0  0  0  0  0  0  0  0  0  0  0  0
  -18.3046  -27.0645   22.3081 F   0  0  0  0  0  0  0  0  0  0  0  0
  -31.8711  -21.9087   17.1328 S   0  0  0  0  0  0  0  0  0  0  0  0
  1  2  1  0  0  0  0
  1  5  2  0  0  0  0
  2  6  2  0  0  0  0
  3  8  2  0  0  0  0
  3 15  1  0  0  0  0
  4  9  1  0  0  0  0
  4 15  2  0  0  0  0
  5 17  1  0  0  0  0
  6 19  1  0  0  0  0
  7 10  2  0  0  0  0
  7 18  1  0  0  0  0
  8 21  1  0  0  0  0
  9 21  2  0  0  0  0
 10 22  1  0  0  0  0
 11 12  2  0  0  0  0
 11 23  1  0  0  0  0
 12 24  1  0  0  0  0
 13 20  1  0  0  0  0
 13 22  2  0  0  0  0
 14 24  2  0  0  0  0
 14 25  1  0  0  0  0
 15 26  1  0  0  0  0
 16 26  1  0  0  0  0
 16 29  2  0  0  0  0
 16 31  1  0  0  0  0
 17 19  2  0  0  0  0
 17 37  1  0  0  0  0
 18 20  2  0  0  0  0
 18 38  1  0  0  0  0
 19 46  1  0  0  0  0
 20 39  1  0  0  0  0
 21 87  1  0  0  0  0
 22 88  1  0  0  0  0
 23 25  2  0  0  0  0
 23 87  1  0  0  0  0
 24 89  1  0  0  0  0
 25 90  1  0  0  0  0
 26 69  2  0  0  0  0
 27 28  2  0  0  0  0
 27 59  1  0  0  0  0
 27 70  1  0  0  0  0
 28 62  1  0  0  0  0
 28 91  1  0  0  0  0
 29 71  1  0  0  0  0
 29 74  1  0  0  0  0
 30 70  2  0  0  0  0
 30 76  1  0  0  0  0
 30 91  1  0  0  0  0
 31 75  1  0  0  0  0
 31 81  2  0  0  0  0
 32 47  1  0  0  0  0
 32 77  1  0  0  0  0
 32 82  2  0  0  0  0
 33 60  1  0  0  0  0
 33 63  1  0  0  0  0
 33 83  2  0  0  0  0
 34 64  1  0  0  0  0
 34 72  1  0  0  0  0
 34 84  2  0  0  0  0
 35 65  1  0  0  0  0
 35 78  1  0  0  0  0
 35 85  2  0  0  0  0
 36 73  1  0  0  0  0
 36 79  1  0  0  0  0
 36 86  2  0  0  0  0
 37 40  1  0  0  0  0
 38 47  1  0  0  0  0
 39 72  1  0  0  0  0
 40 42  1  0  0  0  0
 41 43  1  0  0  0  0
 41 44  1  0  0  0  0
 42 46  1  0  0  0  0
 43 48  1  0  0  0  0
 44 73  1  0  0  0  0
 45 48  1  0  0  0  0
 45 73  1  0  0  0  0
 46 77  1  0  0  0  0
 47 72  1  0  0  0  0
 48 71  1  0  0  0  0
 49 60  1  0  0  0  0
 50 62  1  0  0  0  0
 51 62  1  0  0  0  0
 52 65  1  0  0  0  0
 53 66  1  0  0  0  0
 54 67  1  0  0  0  0
 55 68  1  0  0  0  0
 56 68  1  0  0  0  0
 57 68  1  0  0  0  0
 58 80  1  0  0  0  0
 59 79  1  0  0  0  0
 61 63  1  0  0  0  0
 61 67  1  0  0  0  0
 63 66  1  0  0  0  0
 64 68  1  0  0  0  0
 64 78  1  0  0  0  0
 65 80  1  0  0  0  0
 66 76  1  0  0  0  0
 67 88  1  0  0  0  0
 69 71  1  0  0  0  0
M  CHG  1  80   1
M  ISO  4  36 100  67 101  79 100  88 101
M  END
> <Batch ID>
0189

> <Smiles>
CCC(=O)C(C[101CH:1](C)[101O:1]c1ccc2c(c1)CN(C(=O)C(NC(=O)C(C)NC)C(C)(C)C)C(C(=O)NC1CCCc3ccccc31)C2)C(C)Nc1nc(C[100NH:0][100C:0](=O)N2CCCC(n3nc(-c4ccc(Oc5ccc(F)cc5F)cc4)c(C(N)=O)c3N)C2)c(C(C)C)s1

> <Shape>
0.214

> <Color>
0.061

> <Negative vol penalty>
0.000

$$$$

  -OEChem-04052305183D

 85 93  0     1  0  0  0  0  0999 V2000
  -16.5689  -28.5858   23.4474 C   0  0  0  0  0  0  0  0  0  0  0  0
  -17.1803  -28.8410   22.2240 C   0  0  0  0  0  0  0  0  0  0  0  0
  -22.1936  -15.1477   19.9308 C   0  0  0  0  0  0  0  0  0  0  0  0
  -23.4852  -15.3211   17.8964 C   0  0  0  0  0  0  0  0  0  0  0  0
  -17.1744  -29.0092   24.6297 C   0  0  0  0  0  0  0  0  0  0  0  0
  -18.3971  -29.5207   22.1823 C   0  0  0  0  0  0  0  0  0  0  0  0
  -25.2066  -27.3956   18.9978 C   0  0  0  0  0  0  0  0  0  0  0  0
  -21.0150  -15.1908   19.1862 C   0  0  0  0  0  0  0  0  0  0  0  0
  -22.3066  -15.3641   17.1517 C   0  0  0  0  0  0  0  0  0  0  0  0
  -26.5050  -27.0624   18.6113 C   0  0  0  0  0  0  0  0  0  0  0  0
  -19.1773  -13.0644   17.3062 C   0  0  0  0  0  0  0  0  0  0  0  0
  -18.1743  -12.1497   17.6268 C   0  0  0  0  0  0  0  0  0  0  0  0
  -27.3994  -28.5365   20.3069 C   0  0  0  0  0  0  0  0  0  0  0  0
  -16.6663  -13.9736   18.1130 C   0  0  0  0  0  0  0  0  0  0  0  0
  -30.1685  -21.2738   16.9942 C   0  0  0  0  0  0  0  0  0  0  0  0
  -23.4288  -15.2130   19.2859 C   0  0  0  0  0  0  0  0  0  0  0  0
  -25.3794  -14.0246   20.4220 C   0  0  0  0  0  0  0  0  0  0  0  0
  -18.4040  -29.6860   24.6031 C   0  0  0  0  0  0  0  0  0  0  0  0
  -24.9995  -28.2899   20.0518 C   0  0  0  0  0  0  0  0  0  0  0  0
  -19.0190  -29.9548   23.3653 C   0  0  0  0  0  0  0  0  0  0  0  0
  -26.1012  -28.8645   20.7067 C   0  0  0  0  0  0  0  0  0  0  0  0
  -21.0714  -15.2989   17.7966 C   0  0  0  0  0  0  0  0  0  0  0  0
  -27.5986  -27.6317   19.2641 C   0  0  0  0  0  0  0  0  0  0  0  0
  -18.9249  -14.4338   17.3891 C   0  0  0  0  0  0  0  0  0  0  0  0
  -16.9188  -12.6043   18.0301 C   0  0  0  0  0  0  0  0  0  0  0  0
  -17.6694  -14.8884   17.7924 C   0  0  0  0  0  0  0  0  0  0  0  0
  -24.6467  -15.1692   20.0546 C   0  0  0  0  0  0  0  0  0  0  0  0
  -30.3190  -21.2247   18.3643 C   0  0  0  0  0  0  0  0  0  0  0  0
  -26.4440  -14.5139   21.1387 C   0  0  0  0  0  0  0  0  0  0  0  0
  -29.8119  -23.3491   18.1641 C   0  0  0  0  0  0  0  0  0  0  0  0
  -25.1207  -12.6427   20.1406 C   0  0  0  0  0  0  0  0  0  0  0  0
  -22.5287  -30.0991   22.2192 C   0  0  0  0  0  0  0  0  0  0  0  0
  -28.2922  -24.7159   20.5564 C   0  0  0  0  0  0  0  0  0  0  0  0
  -24.8169  -29.1863   24.0472 C   0  0  0  0  0  0  0  0  0  0  0  0
  -26.8379  -27.3278   25.5848 C   0  0  0  0  0  0  0  0  0  0  0  0
  -29.2500  -19.8032   21.1736 C   0  0  0  0  0  0  0  0  0  0  0  0
  -18.9969  -30.1659   25.9042 C   0  0  0  0  0  0  0  0  0  0  0  0
  -23.6186  -28.7247   20.4614 C   0  0  0  0  0  0  0  0  0  0  0  0
  -25.8305  -29.8481   21.8122 C   0  0  0  0  0  0  0  0  0  0  0  0
  -20.4704  -30.5500   25.7971 C   0  0  0  0  0  0  0  0  0  0  0  0
  -27.7029  -18.1821   23.9405 C   0  0  0  0  0  0  0  0  0  0  0  0
  -20.7070  -31.4213   24.5676 C   0  0  0  0  0  0  0  0  0  0  0  0
  -26.8104  -17.1228   23.2915 C   0  0  0  0  0  0  0  0  0  0  0  0
  -27.7478  -19.4656   23.1142 C   0  0  0  0  0  0  0  0  0  0  0  0
  -27.2314  -18.2198   21.0514 C   0  0  0  0  0  0  0  0  0  0  0  0
  -20.3513  -30.6675   23.2805 C   0  0  1  0  0  0  0  0  0  0  0  0
  -23.4877  -28.9712   21.9751 C   0  0  1  0  0  0  0  0  0  0  0  0
  -27.1990  -16.8874   21.8195 C   0  0  2  0  0  0  0  0  0  0  0  0
  -27.1122  -23.9470   22.6575 C   0  0  0  0  0  0  0  0  0  0  0  0
  -28.2866  -26.6990   27.5350 C   0  0  0  0  0  0  0  0  0  0  0  0
  -31.1305  -27.1590   19.6144 C   0  0  0  0  0  0  0  0  0  0  0  0
  -25.9810  -32.0044   23.9613 C   0  0  0  0  0  0  0  0  0  0  0  0
  -27.5772  -31.3235   25.7660 C   0  0  0  0  0  0  0  0  0  0  0  0
  -25.1211  -31.2983   26.2011 C   0  0  0  0  0  0  0  0  0  0  0  0
  -25.3902  -24.7780   25.9868 C   0  0  0  0  0  0  0  0  0  0  0  0
  -30.6705  -20.0257   19.1508 C   0  0  0  0  0  0  0  0  0  0  0  0
  -28.4172  -24.4228   22.0440 C   0  0  0  0  0  0  0  0  0  0  0  0
  -29.5665  -25.1711   19.8510 C   0  0  2  0  0  0  0  0  0  0  0  0
  -26.1317  -29.5344   24.6979 C   0  0  1  0  0  0  0  0  0  0  0  0
  -26.9253  -26.5358   26.8769 C   0  0  2  0  0  0  0  0  0  0  0  0
  -29.7004  -26.6993   19.8730 C   0  0  2  0  0  0  0  0  0  1  0  0
  -26.2016  -31.0258   25.1320 C   0  0  0  0  0  0  0  0  0  0  0  0
  -25.1991  -16.3003   20.5011 N   0  0  0  0  0  0  0  0  0  0  0  0
  -30.1153  -22.4139   19.0368 N   0  0  0  0  0  0  0  0  0  0  0  0
  -26.2902  -15.8689   21.1565 N   0  0  0  0  0  0  0  0  0  0  0  0
  -24.7317  -29.3605   22.6605 N   0  0  0  0  0  0  0  0  0  0  0  0
  -28.1240  -19.1732   21.7290 N   0  0  0  0  0  0  0  0  0  0  0  0
  -27.4874  -13.9129   21.7490 N   0  0  0  0  0  0  0  0  0  0  0  0
  -23.9827  -12.3152   19.3910 N   0  0  0  0  0  0  0  0  0  0  0  0
  -29.5447  -24.6656   18.4941 N   0  0  0  0  0  0  0  0  0  0  0  0
  -21.4029  -29.7358   22.9334 N   0  0  0  0  0  0  0  0  0  0  0  0
  -26.3102  -28.5849   25.7910 N   0  0  0  0  0  0  0  0  0  0  0  0
  -29.5403  -19.4653   19.8575 N   0  0  0  0  0  0  0  0  0  0  0  0
  -26.7021  -25.0863   26.6121 N   0  3  0  0  0  0  0  0  0  0  0  0
  -25.8676  -11.7244   20.5559 O   0  0  0  0  0  0  0  0  0  0  0  0
  -22.7905  -31.2178   21.7928 O   0  0  0  0  0  0  0  0  0  0  0  0
  -27.2205  -24.6111   19.9593 O   0  0  0  0  0  0  0  0  0  0  0  0
  -23.8871  -28.7763   24.7476 O   0  0  0  0  0  0  0  0  0  0  0  0
  -27.2047  -26.8778   24.5016 O   0  0  0  0  0  0  0  0  0  0  0  0
  -29.9481  -20.6032   21.8057 O   0  0  0  0  0  0  0  0  0  0  0  0
  -19.9215  -15.3406   17.0697 O   0  0  0  0  0  0  0  0  0  0  0  0
  -28.8635  -27.2985   18.8847 O   0  0  0  0  0  0  0  0  0  1  0  0
  -15.9552  -11.7257   18.3364 F   0  0  0  0  0  0  0  0  0  0  0  0
  -17.4206  -16.2027   17.8728 F   0  0  0  0  0  0  0  0  0  0  0  0
  -29.7532  -22.8681   16.5178 S   0  0  0  0  0  0  0  0  0  0  0  0
  1  2  1  0  0  0  0
  1  5  2  0  0  0  0
  2  6  2  0  0  0  0
  3  8  2  0  0  0  0
  3 16  1  0  0  0  0
  4  9  1  0  0  0  0
  4 16  2  0  0  0  0
  5 18  1  0  0  0  0
  6 20  1  0  0  0  0
  7 10  2  0  0  0  0
  7 19  1  0  0  0  0
  8 22  1  0  0  0  0
  9 22  2  0  0  0  0
 10 23  1  0  0  0  0
 11 12  2  0  0  0  0
 11 24  1  0  0  0  0
 12 25  1  0  0  0  0
 13 21  1  0  0  0  0
 13 23  2  0  0  0  0
 14 25  2  0  0  0  0
 14 26  1  0  0  0  0
 15 28  2  0  0  0  0
 15 85  1  0  0  0  0
 16 27  1  0  0  0  0
 17 27  1  0  0  0  0
 17 29  2  0  0  0  0
 17 31  1  0  0  0  0
 18 20  2  0  0  0  0
 18 37  1  0  0  0  0
 19 21  2  0  0  0  0
 19 38  1  0  0  0  0
 20 46  1  0  0  0  0
 21 39  1  0  0  0  0
 22 81  1  0  0  0  0
 23 82  1  0  0  0  0
 24 26  2  0  0  0  0
 24 81  1  0  0  0  0
 25 83  1  0  0  0  0
 26 84  1  0  0  0  0
 27 63  2  0  0  0  0
 28 56  1  0  0  0  0
 28 64  1  0  0  0  0
 29 65  1  0  0  0  0
 29 68  1  0  0  0  0
 30 64  2  0  0  0  0
 30 70  1  0  0  0  0
 30 85  1  0  0  0  0
 31 69  1  0  0  0  0
 31 75  2  0  0  0  0
 32 47  1  0  0  0  0
 32 71  1  0  0  0  0
 32 76  2  0  0  0  0
 33 57  1  0  0  0  0
 33 58  1  0  0  0  0
 33 77  2  0  0  0  0
 34 59  1  0  0  0  0
 34 66  1  0  0  0  0
 34 78  2  0  0  0  0
 35 60  1  0  0  0  0
 35 72  1  0  0  0  0
 35 79  2  0  0  0  0
 36 67  1  0  0  0  0
 36 73  1  0  0  0  0
 36 80  2  0  0  0  0
 37 40  1  0  0  0  0
 38 47  1  0  0  0  0
 39 66  1  0  0  0  0
 40 42  1  0  0  0  0
 41 43  1  0  0  0  0
 41 44  1  0  0  0  0
 42 46  1  0  0  0  0
 43 48  1  0  0  0  0
 44 67  1  0  0  0  0
 45 48  1  0  0  0  0
 45 67  1  0  0  0  0
 46 71  1  0  0  0  0
 47 66  1  0  0  0  0
 48 65  1  0  0  0  0
 49 57  1  0  0  0  0
 50 60  1  0  0  0  0
 51 61  1  0  0  0  0
 52 62  1  0  0  0  0
 53 62  1  0  0  0  0
 54 62  1  0  0  0  0
 55 74  1  0  0  0  0
 56 73  1  0  0  0  0
 58 61  1  0  0  0  0
 58 70  1  0  0  0  0
 59 62  1  0  0  0  0
 59 72  1  0  0  0  0
 60 74  1  0  0  0  0
 61 82  1  0  0  0  0
 63 65  1  0  0  0  0
M  CHG  1  74   1
M  ISO  4  36 100  61 101  73 100  82 101
M  END
> <Batch ID>
0189

> <Smiles>
CCC(=O)C(Nc1nc(C[100NH:0][100C:0](=O)N2CCCC(n3nc(-c4ccc(Oc5ccc(F)cc5F)cc4)c(C(N)=O)c3N)C2)cs1)[101CH:1](C)[101O:1]c1ccc2c(c1)CN(C(=O)C(NC(=O)C(C)NC)C(C)(C)C)C(C(=O)NC1CCCc3ccccc31)C2

> <Shape>
0.253

> <Color>
0.099

> <Negative vol penalty>
0.000

$$$$

  -OEChem-04052305183D

 85 93  0     1  0  0  0  0  0999 V2000
  -27.3880  -18.1114   19.4305 C   0  0  0  0  0  0  0  0  0  0  0  0
  -26.3919  -19.0817   19.4730 C   0  0  0  0  0  0  0  0  0  0  0  0
  -23.8618  -14.6544   19.7117 C   0  0  0  0  0  0  0  0  0  0  0  0
  -24.9733  -14.3207   21.8307 C   0  0  0  0  0  0  0  0  0  0  0  0
  -28.6206  -18.3525   20.0359 C   0  0  0  0  0  0  0  0  0  0  0  0
  -26.6275  -20.2932   20.1220 C   0  0  0  0  0  0  0  0  0  0  0  0
  -24.9327  -27.2438   19.7574 C   0  0  0  0  0  0  0  0  0  0  0  0
  -24.7958  -13.8249   19.0911 C   0  0  0  0  0  0  0  0  0  0  0  0
  -25.9073  -13.4911   21.2102 C   0  0  0  0  0  0  0  0  0  0  0  0
  -24.4297  -28.2729   20.5522 C   0  0  0  0  0  0  0  0  0  0  0  0
  -28.6768  -13.8465   19.3037 C   0  0  0  0  0  0  0  0  0  0  0  0
  -30.0219  -14.0333   19.6220 C   0  0  0  0  0  0  0  0  0  0  0  0
  -26.6247  -28.6099   21.4944 C   0  0  0  0  0  0  0  0  0  0  0  0
  -30.1443  -11.7624   20.4375 C   0  0  0  0  0  0  0  0  0  0  0  0
  -23.9506  -14.9024   21.0815 C   0  0  0  0  0  0  0  0  0  0  0  0
  -21.7629  -15.3770   22.3047 C   0  0  0  0  0  0  0  0  0  0  0  0
  -28.8748  -19.5713   20.6843 C   0  0  0  0  0  0  0  0  0  0  0  0
  -26.2855  -26.8822   19.8332 C   0  0  0  0  0  0  0  0  0  0  0  0
  -27.8642  -20.5502   20.7378 C   0  0  0  0  0  0  0  0  0  0  0  0
  -27.1429  -27.5776   20.6976 C   0  0  0  0  0  0  0  0  0  0  0  0
  -25.8186  -13.2432   19.8404 C   0  0  0  0  0  0  0  0  0  0  0  0
  -25.2751  -28.9542   21.4230 C   0  0  0  0  0  0  0  0  0  0  0  0
  -28.0654  -12.6176   19.5525 C   0  0  0  0  0  0  0  0  0  0  0  0
  -30.7557  -12.9912   20.1889 C   0  0  0  0  0  0  0  0  0  0  0  0
  -28.7991  -11.5756   20.1193 C   0  0  0  0  0  0  0  0  0  0  0  0
  -22.9864  -15.7596   21.7230 C   0  0  0  0  0  0  0  0  0  0  0  0
  -23.2121  -24.9099   26.1044 C   0  0  0  0  0  0  0  0  0  0  0  0
  -21.9342  -24.9636   26.6203 C   0  0  0  0  0  0  0  0  0  0  0  0
  -21.2237  -16.5501   22.7732 C   0  0  0  0  0  0  0  0  0  0  0  0
  -22.9593  -27.0883   26.1327 C   0  0  0  0  0  0  0  0  0  0  0  0
  -21.1670  -14.0773   22.4121 C   0  0  0  0  0  0  0  0  0  0  0  0
  -27.8598  -24.2441   20.6493 C   0  0  0  0  0  0  0  0  0  0  0  0
  -30.4375  -25.9412   19.6504 C   0  0  0  0  0  0  0  0  0  0  0  0
  -31.8472  -28.9937   19.0661 C   0  0  0  0  0  0  0  0  0  0  0  0
  -23.7194  -21.6228   24.4746 C   0  0  0  0  0  0  0  0  0  0  0  0
  -30.2062  -19.7676   21.3651 C   0  0  0  0  0  0  0  0  0  0  0  0
  -26.8182  -25.7876   18.9497 C   0  0  0  0  0  0  0  0  0  0  0  0
  -28.6074  -27.2415   20.8017 C   0  0  0  0  0  0  0  0  0  0  0  0
  -30.5057  -21.2245   21.7088 C   0  0  0  0  0  0  0  0  0  0  0  0
  -21.1853  -21.2589   21.9166 C   0  0  0  0  0  0  0  0  0  0  0  0
  -29.2928  -21.8790   22.3624 C   0  0  0  0  0  0  0  0  0  0  0  0
  -21.2502  -19.7565   21.6358 C   0  0  0  0  0  0  0  0  0  0  0  0
  -22.5738  -21.8313   22.1863 C   0  0  0  0  0  0  0  0  0  0  0  0
  -23.3821  -19.6532   23.0085 C   0  0  0  0  0  0  0  0  0  0  0  0
  -28.0903  -21.8866   21.4109 C   0  0  1  0  0  0  0  0  0  0  0  0
  -28.1024  -25.1606   19.4836 C   0  0  1  0  0  0  0  0  0  0  0  0
  -22.0072  -19.0103   22.7503 C   0  0  2  0  0  0  0  0  0  0  0  0
  -21.0251  -23.8728   27.0249 C   0  0  0  0  0  0  0  0  0  0  0  0
  -33.9803  -30.0619   18.2875 C   0  0  0  0  0  0  0  0  0  0  0  0
  -25.5329  -28.8838   26.5532 C   0  0  0  0  0  0  0  0  0  0  0  0
  -31.7182  -25.3501   22.3560 C   0  0  0  0  0  0  0  0  0  0  0  0
  -33.3650  -27.1794   21.8978 C   0  0  0  0  0  0  0  0  0  0  0  0
  -33.2750  -25.1823   20.4059 C   0  0  0  0  0  0  0  0  0  0  0  0
  -30.5021  -30.2702   16.7596 C   0  0  0  0  0  0  0  0  0  0  0  0
  -23.9882  -23.6830   25.8312 C   0  0  0  0  0  0  0  0  0  0  0  0
  -24.2838  -30.3947   24.9722 C   0  0  0  0  0  0  0  0  0  0  0  0
  -23.4191  -29.8661   22.5976 C   0  0  0  0  0  0  0  0  0  1  0  0
  -31.4126  -26.8892   20.3057 C   0  0  1  0  0  0  0  0  0  0  0  0
  -32.6139  -29.5376   17.8742 C   0  0  2  0  0  0  0  0  0  0  0  0
  -24.4734  -28.9527   25.4568 C   0  0  2  0  0  0  0  0  0  0  0  0
  -23.1849  -30.5800   23.9221 C   0  0  2  0  0  0  0  0  0  0  0  0
  -32.4148  -26.1555   21.2410 C   0  0  0  0  0  0  0  0  0  0  0  0
  -23.2114  -17.0732   21.8124 N   0  0  0  0  0  0  0  0  0  0  0  0
  -23.8014  -26.1272   25.8238 N   0  0  0  0  0  0  0  0  0  0  0  0
  -22.1219  -17.5262   22.4557 N   0  0  0  0  0  0  0  0  0  0  0  0
  -29.0793  -26.1595   19.9219 N   0  0  0  0  0  0  0  0  0  0  0  0
  -23.2330  -21.0887   23.2698 N   0  0  0  0  0  0  0  0  0  0  0  0
  -20.0736  -16.8317   23.4216 N   0  0  0  0  0  0  0  0  0  0  0  0
  -21.8559  -12.9802   21.8771 N   0  0  0  0  0  0  0  0  0  0  0  0
  -23.2253  -28.4372   25.9788 N   0  0  0  0  0  0  0  0  0  0  0  0
  -28.2347  -22.9337   20.4223 N   0  0  0  0  0  0  0  0  0  0  0  0
  -32.0433  -27.6380   19.2241 N   0  0  0  0  0  0  0  0  0  0  0  0
  -23.5451  -22.9912   24.6412 N   0  0  0  0  0  0  0  0  0  0  0  0
  -31.8568  -30.6512   17.2356 N   0  3  0  0  0  0  0  0  0  0  0  0
  -20.0490  -13.8966   22.9514 O   0  0  0  0  0  0  0  0  0  0  0  0
  -27.3701  -24.6930   21.6791 O   0  0  0  0  0  0  0  0  0  0  0  0
  -30.8645  -25.0446   18.9187 O   0  0  0  0  0  0  0  0  0  0  0  0
  -31.1476  -29.7014   19.7874 O   0  0  0  0  0  0  0  0  0  0  0  0
  -24.2643  -20.9301   25.3409 O   0  0  0  0  0  0  0  0  0  0  0  0
  -26.7300  -12.4335   19.2352 O   0  0  0  0  0  0  0  0  0  0  0  0
  -24.7866  -29.9587   22.2003 O   0  0  0  0  0  0  0  0  0  1  0  0
  -32.0478  -13.1702   20.4930 F   0  0  0  0  0  0  0  0  0  0  0  0
  -28.2175  -10.3924   20.3595 F   0  0  0  0  0  0  0  0  0  0  0  0
  -23.1006  -31.9191   23.6569 F   0  0  0  0  0  0  0  0  0  0  0  0
  -21.4410  -26.5998   26.7660 S   0  0  0  0  0  0  0  0  0  0  0  0
  1  2  1  0  0  0  0
  1  5  2  0  0  0  0
  2  6  2  0  0  0  0
  3  8  2  0  0  0  0
  3 15  1  0  0  0  0
  4  9  1  0  0  0  0
  4 15  2  0  0  0  0
  5 17  1  0  0  0  0
  6 19  1  0  0  0  0
  7 10  2  0  0  0  0
  7 18  1  0  0  0  0
  8 21  1  0  0  0  0
  9 21  2  0  0  0  0
 10 22  1  0  0  0  0
 11 12  2  0  0  0  0
 11 23  1  0  0  0  0
 12 24  1  0  0  0  0
 13 20  1  0  0  0  0
 13 22  2  0  0  0  0
 14 24  2  0  0  0  0
 14 25  1  0  0  0  0
 15 26  1  0  0  0  0
 16 26  1  0  0  0  0
 16 29  2  0  0  0  0
 16 31  1  0  0  0  0
 17 19  2  0  0  0  0
 17 36  1  0  0  0  0
 18 20  2  0  0  0  0
 18 37  1  0  0  0  0
 19 45  1  0  0  0  0
 20 38  1  0  0  0  0
 21 80  1  0  0  0  0
 22 81  1  0  0  0  0
 23 25  2  0  0  0  0
 23 80  1  0  0  0  0
 24 82  1  0  0  0  0
 25 83  1  0  0  0  0
 26 63  2  0  0  0  0
 27 28  2  0  0  0  0
 27 55  1  0  0  0  0
 27 64  1  0  0  0  0
 28 48  1  0  0  0  0
 28 85  1  0  0  0  0
 29 65  1  0  0  0  0
 29 68  1  0  0  0  0
 30 64  2  0  0  0  0
 30 70  1  0  0  0  0
 30 85  1  0  0  0  0
 31 69  1  0  0  0  0
 31 75  2  0  0  0  0
 32 46  1  0  0  0  0
 32 71  1  0  0  0  0
 32 76  2  0  0  0  0
 33 58  1  0  0  0  0
 33 66  1  0  0  0  0
 33 77  2  0  0  0  0
 34 59  1  0  0  0  0
 34 72  1  0  0  0  0
 34 78  2  0  0  0  0
 35 67  1  0  0  0  0
 35 73  1  0  0  0  0
 35 79  2  0  0  0  0
 36 39  1  0  0  0  0
 37 46  1  0  0  0  0
 38 66  1  0  0  0  0
 39 41  1  0  0  0  0
 40 42  1  0  0  0  0
 40 43  1  0  0  0  0
 41 45  1  0  0  0  0
 42 47  1  0  0  0  0
 43 67  1  0  0  0  0
 44 47  1  0  0  0  0
 44 67  1  0  0  0  0
 45 71  1  0  0  0  0
 46 66  1  0  0  0  0
 47 65  1  0  0  0  0
 49 59  1  0  0  0  0
 50 60  1  0  0  0  0
 51 62  1  0  0  0  0
 52 62  1  0  0  0  0
 53 62  1  0  0  0  0
 54 74  1  0  0  0  0
 55 73  1  0  0  0  0
 56 60  1  0  0  0  0
 56 61  1  0  0  0  0
 57 61  1  0  0  0  0
 57 81  1  0  0  0  0
 58 62  1  0  0  0  0
 58 72  1  0  0  0  0
 59 74  1  0  0  0  0
 60 70  1  0  0  0  0
 61 84  1  0  0  0  0
 63 65  1  0  0  0  0
M  CHG  1  74   1
M  ISO  4  35 100  57 101  73 100  81 101
M  END
> <Batch ID>
0189

> <Smiles>
CNC(C)C(=O)NC(C(=O)N1Cc2cc([101O:1][101CH2:1]C(F)CC(C)Nc3nc(C[100NH:0][100C:0](=O)N4CCCC(n5nc(-c6ccc(Oc7ccc(F)cc7F)cc6)c(C(N)=O)c5N)C4)c(C)s3)ccc2CC1C(=O)NC1CCCc2ccccc21)C(C)(C)C

> <Shape>
0.210

> <Color>
0.062

> <Negative vol penalty>
0.000

$$$$

  -OEChem-04052305183D

 82 89  0     1  0  0  0  0  0999 V2000
  -29.4048  -23.4856   15.6423 C   0  0  0  0  0  0  0  0  0  0  0  0
  -29.1625  -23.2953   16.9989 C   0  0  0  0  0  0  0  0  0  0  0  0
  -24.1810  -12.4578   19.5813 C   0  0  0  0  0  0  0  0  0  0  0  0
  -25.3795  -12.4458   21.6791 C   0  0  0  0  0  0  0  0  0  0  0  0
  -29.1300  -24.7187   15.0525 C   0  0  0  0  0  0  0  0  0  0  0  0
  -28.6462  -24.3384   17.7669 C   0  0  0  0  0  0  0  0  0  0  0  0
  -24.9118  -22.8278   20.8356 C   0  0  0  0  0  0  0  0  0  0  0  0
  -24.3520  -11.0775   19.4757 C   0  0  0  0  0  0  0  0  0  0  0  0
  -25.5504  -11.0654   21.5736 C   0  0  0  0  0  0  0  0  0  0  0  0
  -25.2780  -22.1593   22.0030 C   0  0  0  0  0  0  0  0  0  0  0  0
  -23.7072   -8.2818   22.0973 C   0  0  0  0  0  0  0  0  0  0  0  0
  -23.4678   -7.5117   23.2354 C   0  0  0  0  0  0  0  0  0  0  0  0
  -24.9833  -24.1992   23.2565 C   0  0  0  0  0  0  0  0  0  0  0  0
  -25.7481   -6.7157   23.1765 C   0  0  0  0  0  0  0  0  0  0  0  0
  -24.6948  -13.1420   20.6830 C   0  0  0  0  0  0  0  0  0  0  0  0
  -23.4506  -15.2481   21.4068 C   0  0  0  0  0  0  0  0  0  0  0  0
  -28.6010  -25.7745   15.8116 C   0  0  0  0  0  0  0  0  0  0  0  0
  -24.5885  -24.1920   20.8682 C   0  0  0  0  0  0  0  0  0  0  0  0
  -28.3653  -25.5873   17.1870 C   0  0  0  0  0  0  0  0  0  0  0  0
  -24.6108  -24.8821   22.0885 C   0  0  0  0  0  0  0  0  0  0  0  0
  -25.0366  -10.3813   20.4718 C   0  0  0  0  0  0  0  0  0  0  0  0
  -25.3166  -22.8457   23.2132 C   0  0  0  0  0  0  0  0  0  0  0  0
  -24.9671   -8.2687   21.4987 C   0  0  0  0  0  0  0  0  0  0  0  0
  -24.4882   -6.7287   23.7750 C   0  0  0  0  0  0  0  0  0  0  0  0
  -25.9875   -7.4857   22.0383 C   0  0  0  0  0  0  0  0  0  0  0  0
  -24.5191  -14.5679   20.7923 C   0  0  0  0  0  0  0  0  0  0  0  0
  -23.7512  -16.5783   21.2437 C   0  0  0  0  0  0  0  0  0  0  0  0
  -22.2902  -14.7243   22.0662 C   0  0  0  0  0  0  0  0  0  0  0  0
  -25.7978  -26.8160   19.5431 C   0  0  0  0  0  0  0  0  0  0  0  0
  -29.4433  -22.5584   23.3806 C   0  0  0  0  0  0  0  0  0  0  0  0
  -23.1899  -28.2171   20.8690 C   0  0  0  0  0  0  0  0  0  0  0  0
  -20.7675  -28.1421   23.2717 C   0  0  0  0  0  0  0  0  0  0  0  0
  -28.9015  -19.5270   20.4492 C   0  0  0  0  0  0  0  0  0  0  0  0
  -28.3643  -27.1040   15.1400 C   0  0  0  0  0  0  0  0  0  0  0  0
  -24.1696  -24.8922   19.6046 C   0  0  0  0  0  0  0  0  0  0  0  0
  -24.2530  -26.3423   22.1805 C   0  0  0  0  0  0  0  0  0  0  0  0
  -27.4671  -28.0415   15.9441 C   0  0  0  0  0  0  0  0  0  0  0  0
  -26.0615  -19.5616   18.3020 C   0  0  0  0  0  0  0  0  0  0  0  0
  -27.9027  -28.0740   17.4056 C   0  0  0  0  0  0  0  0  0  0  0  0
  -25.2478  -18.3471   18.7522 C   0  0  0  0  0  0  0  0  0  0  0  0
  -27.5632  -19.2943   18.3776 C   0  0  0  0  0  0  0  0  0  0  0  0
  -27.2284  -17.6032   20.1388 C   0  0  0  0  0  0  0  0  0  0  0  0
  -27.7825  -26.6868   18.0481 C   0  0  1  0  0  0  0  0  0  0  0  0
  -24.3581  -26.4047   19.6690 C   0  0  1  0  0  0  0  0  0  0  0  0
  -25.7090  -17.8437   20.1332 C   0  0  2  0  0  0  0  0  0  0  0  0
  -29.9910  -24.4312   21.7751 C   0  0  0  0  0  0  0  0  0  0  0  0
  -18.8003  -29.4443   24.1270 C   0  0  0  0  0  0  0  0  0  0  0  0
  -31.3131  -18.6690   22.8402 C   0  0  0  0  0  0  0  0  0  0  0  0
  -26.4051  -23.1488   26.4359 C   0  0  0  0  0  0  0  0  0  0  0  0
  -25.0861  -30.2122   22.1856 C   0  0  0  0  0  0  0  0  0  0  0  0
  -23.2240  -30.8567   23.7301 C   0  0  0  0  0  0  0  0  0  0  0  0
  -22.9851  -31.2159   21.2732 C   0  0  0  0  0  0  0  0  0  0  0  0
  -18.9022  -25.9128   22.7149 C   0  0  0  0  0  0  0  0  0  0  0  0
  -29.0908  -23.2421   22.0673 C   0  0  0  0  0  0  0  0  0  0  0  0
  -29.5139  -20.0700   23.9137 C   0  0  0  0  0  0  0  0  0  0  0  0
  -27.8798  -21.5757   25.1288 C   0  0  0  0  0  0  0  0  0  0  0  0
  -28.6320  -21.3310   23.8048 C   0  0  1  0  0  0  0  0  0  0  0  0
  -22.8837  -28.8650   22.1977 C   0  0  1  0  0  0  0  0  0  0  0  0
  -19.2641  -28.3375   23.1929 C   0  0  2  0  0  0  0  0  0  0  0  0
  -30.1586  -19.6340   22.5863 C   0  0  2  0  0  0  0  0  0  0  0  0
  -26.8237  -22.6861   25.0460 C   0  0  1  0  0  0  0  0  0  1  0  0
  -23.5534  -30.2604   22.3449 C   0  0  0  0  0  0  0  0  0  0  0  0
  -25.4303  -15.3975   20.2771 N   0  0  0  0  0  0  0  0  0  0  0  0
  -24.9352  -16.6127   20.5674 N   0  0  0  0  0  0  0  0  0  0  0  0
  -23.8560  -26.9843   20.9165 N   0  0  0  0  0  0  0  0  0  0  0  0
  -27.9353  -18.8214   19.7132 N   0  0  0  0  0  0  0  0  0  0  0  0
  -23.1157  -17.7102   21.6141 N   0  0  0  0  0  0  0  0  0  0  0  0
  -22.1372  -13.3333   22.1448 N   0  0  0  0  0  0  0  0  0  0  0  0
  -26.4020  -26.3981   18.3728 N   0  0  0  0  0  0  0  0  0  0  0  0
  -21.4298  -28.8844   22.3170 N   0  0  0  0  0  0  0  0  0  0  0  0
  -29.1910  -19.0150   21.7080 N   0  0  0  0  0  0  0  0  0  0  0  0
  -18.5579  -27.0797   23.5674 N   0  3  0  0  0  0  0  0  0  0  0  0
  -21.4068  -15.4678   22.5563 O   0  0  0  0  0  0  0  0  0  0  0  0
  -26.3213  -27.4657   20.4407 O   0  0  0  0  0  0  0  0  0  0  0  0
  -30.3564  -22.9685   24.1012 O   0  0  0  0  0  0  0  0  0  0  0  0
  -22.8442  -28.7805   19.8275 O   0  0  0  0  0  0  0  0  0  0  0  0
  -21.3012  -27.4074   24.1000 O   0  0  0  0  0  0  0  0  0  0  0  0
  -29.4606  -20.5414   20.0185 O   0  0  0  0  0  0  0  0  0  0  0  0
  -25.2034   -9.0344   20.3693 O   0  0  0  0  0  0  0  0  0  0  0  0
  -25.6766  -22.1918   24.3610 O   0  0  0  0  0  0  0  0  0  1  0  0
  -24.2586   -5.9905   24.8688 F   0  0  0  0  0  0  0  0  0  0  0  0
  -27.2003   -7.4700   21.4684 F   0  0  0  0  0  0  0  0  0  0  0  0
  1  2  1  0  0  0  0
  1  5  2  0  0  0  0
  2  6  2  0  0  0  0
  3  8  2  0  0  0  0
  3 15  1  0  0  0  0
  4  9  1  0  0  0  0
  4 15  2  0  0  0  0
  5 17  1  0  0  0  0
  6 19  1  0  0  0  0
  7 10  2  0  0  0  0
  7 18  1  0  0  0  0
  8 21  1  0  0  0  0
  9 21  2  0  0  0  0
 10 22  1  0  0  0  0
 11 12  2  0  0  0  0
 11 23  1  0  0  0  0
 12 24  1  0  0  0  0
 13 20  1  0  0  0  0
 13 22  2  0  0  0  0
 14 24  2  0  0  0  0
 14 25  1  0  0  0  0
 15 26  1  0  0  0  0
 16 26  1  0  0  0  0
 16 27  2  0  0  0  0
 16 28  1  0  0  0  0
 17 19  2  0  0  0  0
 17 34  1  0  0  0  0
 18 20  2  0  0  0  0
 18 35  1  0  0  0  0
 19 43  1  0  0  0  0
 20 36  1  0  0  0  0
 21 79  1  0  0  0  0
 22 80  1  0  0  0  0
 23 25  2  0  0  0  0
 23 79  1  0  0  0  0
 24 81  1  0  0  0  0
 25 82  1  0  0  0  0
 26 63  2  0  0  0  0
 27 64  1  0  0  0  0
 27 67  1  0  0  0  0
 28 68  1  0  0  0  0
 28 73  2  0  0  0  0
 29 44  1  0  0  0  0
 29 69  1  0  0  0  0
 29 74  2  0  0  0  0
 30 54  1  0  0  0  0
 30 57  1  0  0  0  0
 30 75  2  0  0  0  0
 31 58  1  0  0  0  0
 31 65  1  0  0  0  0
 31 76  2  0  0  0  0
 32 59  1  0  0  0  0
 32 70  1  0  0  0  0
 32 77  2  0  0  0  0
 33 66  1  0  0  0  0
 33 71  1  0  0  0  0
 33 78  2  0  0  0  0
 34 37  1  0  0  0  0
 35 44  1  0  0  0  0
 36 65  1  0  0  0  0
 37 39  1  0  0  0  0
 38 40  1  0  0  0  0
 38 41  1  0  0  0  0
 39 43  1  0  0  0  0
 40 45  1  0  0  0  0
 41 66  1  0  0  0  0
 42 45  1  0  0  0  0
 42 66  1  0  0  0  0
 43 69  1  0  0  0  0
 44 65  1  0  0  0  0
 45 64  1  0  0  0  0
 46 54  1  0  0  0  0
 47 59  1  0  0  0  0
 48 60  1  0  0  0  0
 49 61  1  0  0  0  0
 50 62  1  0  0  0  0
 51 62  1  0  0  0  0
 52 62  1  0  0  0  0
 53 72  1  0  0  0  0
 55 57  1  0  0  0  0
 55 60  1  0  0  0  0
 56 57  1  0  0  0  0
 56 61  1  0  0  0  0
 58 62  1  0  0  0  0
 58 70  1  0  0  0  0
 59 72  1  0  0  0  0
 60 71  1  0  0  0  0
 61 80  1  0  0  0  0
 63 64  1  0  0  0  0
M  CHG  1  72   1
M  ISO  4  33 100  61 101  71 100  80 101
M  END
> <Batch ID>
0189

> <Smiles>
CCC(=O)C(CC(C)[100NH:0][100C:0](=O)N1CCCC(n2nc(-c3ccc(Oc4ccc(F)cc4F)cc3)c(C(N)=O)c2N)C1)C[101CH:1](C)[101O:1]c1ccc2c(c1)CN(C(=O)C(NC(=O)C(C)NC)C(C)(C)C)C(C(=O)NC1CCCc3ccccc31)C2

> <Shape>
0.202

> <Color>
0.075

> <Negative vol penalty>
0.000

$$$$

  -OEChem-04052305183D

 82 90  0     1  0  0  0  0  0999 V2000
  -19.9268  -34.2795   22.1313 C   0  0  0  0  0  0  0  0  0  0  0  0
  -21.1597  -33.8444   21.6557 C   0  0  0  0  0  0  0  0  0  0  0  0
  -25.2927  -14.6428   20.5225 C   0  0  0  0  0  0  0  0  0  0  0  0
  -27.0471  -14.2321   22.1320 C   0  0  0  0  0  0  0  0  0  0  0  0
  -19.2512  -33.5347   23.0971 C   0  0  0  0  0  0  0  0  0  0  0  0
  -21.7182  -32.6647   22.1465 C   0  0  0  0  0  0  0  0  0  0  0  0
  -25.1095  -28.6242   19.0353 C   0  0  0  0  0  0  0  0  0  0  0  0
  -25.1523  -13.2692   20.3250 C   0  0  0  0  0  0  0  0  0  0  0  0
  -26.9067  -12.8585   21.9345 C   0  0  0  0  0  0  0  0  0  0  0  0
  -26.4868  -28.4272   18.9462 C   0  0  0  0  0  0  0  0  0  0  0  0
  -24.0841   -9.8579   19.6640 C   0  0  0  0  0  0  0  0  0  0  0  0
  -22.7908   -9.3367   19.6283 C   0  0  0  0  0  0  0  0  0  0  0  0
  -31.3422  -23.6019   24.9121 C   0  0  0  0  0  0  0  0  0  0  0  0
  -30.6930  -24.8496   24.7538 C   0  0  0  0  0  0  0  0  0  0  0  0
  -26.3473  -26.7243   20.6491 C   0  0  0  0  0  0  0  0  0  0  0  0
  -22.4060  -10.1377   21.8749 C   0  0  0  0  0  0  0  0  0  0  0  0
  -26.2402  -15.1243   21.4260 C   0  0  0  0  0  0  0  0  0  0  0  0
  -25.7089  -17.3406   22.5720 C   0  0  0  0  0  0  0  0  0  0  0  0
  -19.7973  -32.3403   23.5930 C   0  0  0  0  0  0  0  0  0  0  0  0
  -24.3410  -27.8792   19.9414 C   0  0  0  0  0  0  0  0  0  0  0  0
  -21.0499  -31.9040   23.1209 C   0  0  0  0  0  0  0  0  0  0  0  0
  -24.9601  -26.9120   20.7460 C   0  0  0  0  0  0  0  0  0  0  0  0
  -25.9593  -12.3770   21.0310 C   0  0  0  0  0  0  0  0  0  0  0  0
  -27.1063  -27.4791   19.7552 C   0  0  0  0  0  0  0  0  0  0  0  0
  -24.5384  -10.5190   20.8052 C   0  0  0  0  0  0  0  0  0  0  0  0
  -21.9517   -9.4766   20.7337 C   0  0  0  0  0  0  0  0  0  0  0  0
  -23.6994  -10.6589   21.9106 C   0  0  0  0  0  0  0  0  0  0  0  0
  -26.3860  -16.5432   21.6300 C   0  0  0  0  0  0  0  0  0  0  0  0
  -31.5594  -23.1204   23.6421 C   0  0  0  0  0  0  0  0  0  0  0  0
  -26.1974  -18.6073   22.3640 C   0  0  0  0  0  0  0  0  0  0  0  0
  -30.5600  -25.0417   23.3983 C   0  0  0  0  0  0  0  0  0  0  0  0
  -24.7262  -16.9695   23.5478 C   0  0  0  0  0  0  0  0  0  0  0  0
  -22.5296  -28.5840   22.4564 C   0  0  0  0  0  0  0  0  0  0  0  0
  -21.8198  -25.4209   22.3409 C   0  0  0  0  0  0  0  0  0  0  0  0
  -22.7364  -22.2795   21.3726 C   0  0  0  0  0  0  0  0  0  0  0  0
  -29.8953  -26.2078   21.2681 C   0  0  0  0  0  0  0  0  0  0  0  0
  -31.1103  -21.3279   20.9581 C   0  0  0  0  0  0  0  0  0  0  0  0
  -19.0520  -31.5939   24.6710 C   0  0  0  0  0  0  0  0  0  0  0  0
  -22.8525  -28.0849   20.0064 C   0  0  0  0  0  0  0  0  0  0  0  0
  -24.1770  -26.0719   21.7205 C   0  0  0  0  0  0  0  0  0  0  0  0
  -19.5375  -30.1599   24.8660 C   0  0  0  0  0  0  0  0  0  0  0  0
  -28.4660  -20.8944   18.6136 C   0  0  0  0  0  0  0  0  0  0  0  0
  -21.0612  -30.1152   24.9225 C   0  0  0  0  0  0  0  0  0  0  0  0
  -27.5971  -19.8023   19.2400 C   0  0  0  0  0  0  0  0  0  0  0  0
  -29.9511  -20.6535   18.8753 C   0  0  0  0  0  0  0  0  0  0  0  0
  -29.4392  -19.3779   20.9209 C   0  0  0  0  0  0  0  0  0  0  0  0
  -21.6769  -30.6166   23.6106 C   0  0  1  0  0  0  0  0  0  0  0  0
  -22.2439  -27.6317   21.3299 C   0  0  1  0  0  0  0  0  0  0  0  0
  -27.9300  -19.6076   20.7315 C   0  0  2  0  0  0  0  0  0  0  0  0
  -21.9696  -19.8913   21.4518 C   0  0  0  0  0  0  0  0  0  0  0  0
  -30.2283  -28.6156   20.5966 C   0  0  0  0  0  0  0  0  0  0  0  0
  -22.6383  -25.2579   25.2758 C   0  0  0  0  0  0  0  0  0  0  0  0
  -22.7674  -22.7698   25.0294 C   0  0  0  0  0  0  0  0  0  0  0  0
  -20.5930  -23.9439   24.6887 C   0  0  0  0  0  0  0  0  0  0  0  0
  -22.6327  -22.0934   18.4207 C   0  0  0  0  0  0  0  0  0  0  0  0
  -32.1809  -21.8934   23.1245 C   0  0  0  0  0  0  0  0  0  0  0  0
  -22.4102  -24.1700   22.9455 C   0  0  1  0  0  0  0  0  0  0  0  0
  -21.9716  -21.1844   20.6513 C   0  0  2  0  0  0  0  0  0  0  0  0
  -29.2150  -27.5102   20.8545 C   0  0  1  0  0  0  0  0  0  1  0  0
  -22.1175  -24.0524   24.4680 C   0  0  0  0  0  0  0  0  0  0  0  0
  -27.2396  -17.2445   20.8793 N   0  0  0  0  0  0  0  0  0  0  0  0
  -27.1020  -18.4960   21.3493 N   0  0  0  0  0  0  0  0  0  0  0  0
  -22.7253  -26.3147   21.7517 N   0  0  0  0  0  0  0  0  0  0  0  0
  -30.1995  -20.4785   20.3084 N   0  0  0  0  0  0  0  0  0  0  0  0
  -25.9370  -19.7944   22.9517 N   0  0  0  0  0  0  0  0  0  0  0  0
  -24.3377  -15.6252   23.6271 N   0  0  0  0  0  0  0  0  0  0  0  0
  -29.9932  -26.1020   22.6517 N   0  0  0  0  0  0  0  0  0  0  0  0
  -21.5954  -29.5934   22.5905 N   0  0  0  0  0  0  0  0  0  0  0  0
  -21.9044  -23.0552   22.1519 N   0  0  0  0  0  0  0  0  0  0  0  0
  -31.2824  -21.0981   22.3176 N   0  0  0  0  0  0  0  0  0  0  0  0
  -22.5867  -20.9128   19.3213 N   0  3  0  0  0  0  0  0  0  0  0  0
  -24.1958  -17.8081   24.3154 O   0  0  0  0  0  0  0  0  0  0  0  0
  -23.5232  -28.4148   23.1534 O   0  0  0  0  0  0  0  0  0  0  0  0
  -20.5993  -25.5952   22.3834 O   0  0  0  0  0  0  0  0  0  0  0  0
  -23.9510  -22.4293   21.2592 O   0  0  0  0  0  0  0  0  0  0  0  0
  -30.2696  -25.3915   20.4310 O   0  0  0  0  0  0  0  0  0  0  0  0
  -31.7205  -22.2280   20.3713 O   0  0  0  0  0  0  0  0  0  0  0  0
  -31.0857  -23.9922   22.7136 O   0  0  0  0  0  0  0  0  0  0  0  0
  -25.8224  -11.0365   20.8387 O   0  0  0  0  0  0  0  0  0  0  0  0
  -28.4506  -27.2853   19.6707 O   0  0  0  0  0  0  0  0  0  1  0  0
  -20.7093   -8.9774   20.6987 F   0  0  0  0  0  0  0  0  0  0  0  0
  -24.1298  -11.2940   23.0093 F   0  0  0  0  0  0  0  0  0  0  0  0
  1  2  1  0  0  0  0
  1  5  2  0  0  0  0
  2  6  2  0  0  0  0
  3  8  2  0  0  0  0
  3 17  1  0  0  0  0
  4  9  1  0  0  0  0
  4 17  2  0  0  0  0
  5 19  1  0  0  0  0
  6 21  1  0  0  0  0
  7 10  2  0  0  0  0
  7 20  1  0  0  0  0
  8 23  1  0  0  0  0
  9 23  2  0  0  0  0
 10 24  1  0  0  0  0
 11 12  2  0  0  0  0
 11 25  1  0  0  0  0
 12 26  1  0  0  0  0
 13 14  1  0  0  0  0
 13 29  2  0  0  0  0
 14 31  2  0  0  0  0
 15 22  1  0  0  0  0
 15 24  2  0  0  0  0
 16 26  2  0  0  0  0
 16 27  1  0  0  0  0
 17 28  1  0  0  0  0
 18 28  1  0  0  0  0
 18 30  2  0  0  0  0
 18 32  1  0  0  0  0
 19 21  2  0  0  0  0
 19 38  1  0  0  0  0
 20 22  2  0  0  0  0
 20 39  1  0  0  0  0
 21 47  1  0  0  0  0
 22 40  1  0  0  0  0
 23 79  1  0  0  0  0
 24 80  1  0  0  0  0
 25 27  2  0  0  0  0
 25 79  1  0  0  0  0
 26 81  1  0  0  0  0
 27 82  1  0  0  0  0
 28 61  2  0  0  0  0
 29 56  1  0  0  0  0
 29 78  1  0  0  0  0
 30 62  1  0  0  0  0
 30 65  1  0  0  0  0
 31 67  1  0  0  0  0
 31 78  1  0  0  0  0
 32 66  1  0  0  0  0
 32 72  2  0  0  0  0
 33 48  1  0  0  0  0
 33 68  1  0  0  0  0
 33 73  2  0  0  0  0
 34 57  1  0  0  0  0
 34 63  1  0  0  0  0
 34 74  2  0  0  0  0
 35 58  1  0  0  0  0
 35 69  1  0  0  0  0
 35 75  2  0  0  0  0
 36 59  1  0  0  0  0
 36 67  1  0  0  0  0
 36 76  2  0  0  0  0
 37 64  1  0  0  0  0
 37 70  1  0  0  0  0
 37 77  2  0  0  0  0
 38 41  1  0  0  0  0
 39 48  1  0  0  0  0
 40 63  1  0  0  0  0
 41 43  1  0  0  0  0
 42 44  1  0  0  0  0
 42 45  1  0  0  0  0
 43 47  1  0  0  0  0
 44 49  1  0  0  0  0
 45 64  1  0  0  0  0
 46 49  1  0  0  0  0
 46 64  1  0  0  0  0
 47 68  1  0  0  0  0
 48 63  1  0  0  0  0
 49 62  1  0  0  0  0
 50 58  1  0  0  0  0
 51 59  1  0  0  0  0
 52 60  1  0  0  0  0
 53 60  1  0  0  0  0
 54 60  1  0  0  0  0
 55 71  1  0  0  0  0
 56 70  1  0  0  0  0
 57 60  1  0  0  0  0
 57 69  1  0  0  0  0
 58 71  1  0  0  0  0
 59 80  1  0  0  0  0
 61 62  1  0  0  0  0
M  CHG  1  71   1
M  ISO  4  37 100  59 101  70 100  80 101
M  END
> <Batch ID>
0189

> <Smiles>
CNC(C)C(=O)NC(C(=O)N1Cc2cc([101O:1][101CH:1](C)C(=O)Nc3ccc(C[100NH:0][100C:0](=O)N4CCCC(n5nc(-c6ccc(Oc7ccc(F)cc7F)cc6)c(C(N)=O)c5N)C4)o3)ccc2CC1C(=O)NC1CCCc2ccccc21)C(C)(C)C

> <Shape>
0.180

> <Color>
0.084

> <Negative vol penalty>
0.000

$$$$

  -OEChem-04052305183D

 86 94  0     1  0  0  0  0  0999 V2000
  -33.5156  -25.5155   22.3795 C   0  0  0  0  0  0  0  0  0  0  0  0
  -32.1390  -25.4191   22.2037 C   0  0  0  0  0  0  0  0  0  0  0  0
  -24.5141   -9.6130   21.4458 C   0  0  0  0  0  0  0  0  0  0  0  0
  -24.8993  -10.7189   23.5589 C   0  0  0  0  0  0  0  0  0  0  0  0
  -34.0369  -26.4066   23.3165 C   0  0  0  0  0  0  0  0  0  0  0  0
  -31.2827  -26.2131   22.9658 C   0  0  0  0  0  0  0  0  0  0  0  0
  -27.5992  -28.3114   20.1955 C   0  0  0  0  0  0  0  0  0  0  0  0
  -24.2292   -8.4253   22.1193 C   0  0  0  0  0  0  0  0  0  0  0  0
  -24.6143   -9.5312   24.2325 C   0  0  0  0  0  0  0  0  0  0  0  0
  -26.5224  -27.4974   19.8468 C   0  0  0  0  0  0  0  0  0  0  0  0
  -21.6261   -7.0825   23.8087 C   0  0  0  0  0  0  0  0  0  0  0  0
  -20.5097   -6.3552   23.3961 C   0  0  0  0  0  0  0  0  0  0  0  0
  -25.2216  -28.4629   21.6342 C   0  0  0  0  0  0  0  0  0  0  0  0
  -21.9284   -4.4675   22.8853 C   0  0  0  0  0  0  0  0  0  0  0  0
  -24.8493  -10.7599   22.1656 C   0  0  0  0  0  0  0  0  0  0  0  0
  -24.2346  -12.9981   21.1073 C   0  0  0  0  0  0  0  0  0  0  0  0
  -33.1870  -27.2189   24.0836 C   0  0  0  0  0  0  0  0  0  0  0  0
  -27.4988  -29.2010   21.2748 C   0  0  0  0  0  0  0  0  0  0  0  0
  -31.7930  -27.1150   23.9149 C   0  0  0  0  0  0  0  0  0  0  0  0
  -26.2977  -29.2890   21.9929 C   0  0  0  0  0  0  0  0  0  0  0  0
  -24.2792   -8.3843   23.5126 C   0  0  0  0  0  0  0  0  0  0  0  0
  -25.3343  -27.5710   20.5680 C   0  0  0  0  0  0  0  0  0  0  0  0
  -22.8937   -6.5024   23.7595 C   0  0  0  0  0  0  0  0  0  0  0  0
  -20.6609   -5.0476   22.9345 C   0  0  0  0  0  0  0  0  0  0  0  0
  -23.0448   -5.1949   23.2978 C   0  0  0  0  0  0  0  0  0  0  0  0
  -25.1443  -11.9869   21.4704 C   0  0  0  0  0  0  0  0  0  0  0  0
  -27.6556  -21.5425   20.7148 C   0  0  0  0  0  0  0  0  0  0  0  0
  -28.9049  -21.4089   20.1461 C   0  0  0  0  0  0  0  0  0  0  0  0
  -25.0054  -13.9420   20.4737 C   0  0  0  0  0  0  0  0  0  0  0  0
  -28.4801  -19.2884   20.5106 C   0  0  0  0  0  0  0  0  0  0  0  0
  -22.8194  -13.0771   21.3234 C   0  0  0  0  0  0  0  0  0  0  0  0
  -26.8482  -22.7579   20.9942 C   0  0  0  0  0  0  0  0  0  0  0  0
  -29.0020  -29.5323   24.0559 C   0  0  0  0  0  0  0  0  0  0  0  0
  -27.2156  -32.2324   24.2561 C   0  0  0  0  0  0  0  0  0  0  0  0
  -24.4144  -33.9306   23.2989 C   0  0  0  0  0  0  0  0  0  0  0  0
  -29.6064  -17.0624   20.1607 C   0  0  0  0  0  0  0  0  0  0  0  0
  -33.7950  -28.1331   25.1176 C   0  0  0  0  0  0  0  0  0  0  0  0
  -28.6605  -30.0914   21.6214 C   0  0  0  0  0  0  0  0  0  0  0  0
  -26.1319  -30.2420   23.1474 C   0  0  0  0  0  0  0  0  0  0  0  0
  -32.8349  -29.2085   25.6197 C   0  0  0  0  0  0  0  0  0  0  0  0
  -29.8061  -13.7458   18.8809 C   0  0  0  0  0  0  0  0  0  0  0  0
  -31.4763  -28.5990   25.9504 C   0  0  0  0  0  0  0  0  0  0  0  0
  -28.5362  -13.0758   19.4106 C   0  0  0  0  0  0  0  0  0  0  0  0
  -30.3981  -14.7218   19.8962 C   0  0  0  0  0  0  0  0  0  0  0  0
  -28.1911  -15.0600   20.9373 C   0  0  0  0  0  0  0  0  0  0  0  0
  -30.8327  -27.9773   24.7051 C   0  0  1  0  0  0  0  0  0  0  0  0
  -28.6204  -30.5924   23.0619 C   0  0  1  0  0  0  0  0  0  0  0  0
  -27.5221  -14.1166   19.9243 C   0  0  2  0  0  0  0  0  0  0  0  0
  -29.7622  -22.5099   19.6607 C   0  0  0  0  0  0  0  0  0  0  0  0
  -23.2075  -36.1012   23.6585 C   0  0  0  0  0  0  0  0  0  0  0  0
  -26.2498  -31.2421   26.9757 C   0  0  0  0  0  0  0  0  0  0  0  0
  -24.3889  -32.9120   26.8451 C   0  0  0  0  0  0  0  0  0  0  0  0
  -26.7593  -33.6886   26.8771 C   0  0  0  0  0  0  0  0  0  0  0  0
  -21.7741  -24.6730   22.1183 C   0  0  0  0  0  0  0  0  0  0  0  0
  -21.8851  -25.1800   19.6747 C   0  0  0  0  0  0  0  0  0  0  0  0
  -24.6402  -34.6634   20.4404 C   0  0  0  0  0  0  0  0  0  0  0  0
  -23.7611  -23.9034   20.7253 C   0  0  0  0  0  0  0  0  0  0  0  0
  -24.7025  -23.6188   21.8946 C   0  0  0  0  0  0  0  0  0  0  0  0
  -23.3989  -26.3871   21.2811 C   0  0  0  0  0  0  0  0  0  1  0  0
  -25.8487  -32.5722   24.7995 C   0  0  1  0  0  0  0  0  0  0  0  0
  -24.2181  -35.3522   22.8039 C   0  0  2  0  0  0  0  0  0  0  0  0
  -25.8151  -32.5843   26.3539 C   0  0  0  0  0  0  0  0  0  0  0  0
  -22.7239  -25.0356   20.9628 C   0  0  0  0  0  0  0  0  0  0  0  0
  -26.3971  -12.2625   21.0983 N   0  0  0  0  0  0  0  0  0  0  0  0
  -29.3795  -20.1171   20.0286 N   0  0  0  0  0  0  0  0  0  0  0  0
  -26.2802  -13.4576   20.4948 N   0  0  0  0  0  0  0  0  0  0  0  0
  -27.2984  -31.0871   23.4516 N   0  0  0  0  0  0  0  0  0  0  0  0
  -29.3813  -15.6804   20.3345 N   0  0  0  0  0  0  0  0  0  0  0  0
  -24.7103  -15.1308   19.9062 N   0  0  0  0  0  0  0  0  0  0  0  0
  -22.1855  -12.0204   21.9911 N   0  0  0  0  0  0  0  0  0  0  0  0
  -28.5560  -17.8755   20.5852 N   0  0  0  0  0  0  0  0  0  0  0  0
  -25.6092  -22.5450   21.5851 N   0  0  0  0  0  0  0  0  0  0  0  0
  -30.2654  -29.0075   23.8616 N   0  0  0  0  0  0  0  0  0  0  0  0
  -25.4679  -33.8388   24.1837 N   0  0  0  0  0  0  0  0  0  0  0  0
  -23.7311  -35.3477   21.3955 N   0  3  0  0  0  0  0  0  0  0  0  0
  -22.1347  -14.0482   20.9213 O   0  0  0  0  0  0  0  0  0  0  0  0
  -27.2927  -23.8589   20.6798 O   0  0  0  0  0  0  0  0  0  0  0  0
  -28.2094  -29.2150   24.9351 O   0  0  0  0  0  0  0  0  0  0  0  0
  -28.1731  -32.9605   24.5293 O   0  0  0  0  0  0  0  0  0  0  0  0
  -23.7018  -32.9959   22.9397 O   0  0  0  0  0  0  0  0  0  0  0  0
  -30.6424  -17.4915   19.6464 O   0  0  0  0  0  0  0  0  0  0  0  0
  -24.0010   -7.2256   24.1702 O   0  0  0  0  0  0  0  0  0  0  0  0
  -24.2819  -26.7771   20.2302 O   0  0  0  0  0  0  0  0  0  1  0  0
  -19.5885   -4.3487   22.5397 F   0  0  0  0  0  0  0  0  0  0  0  0
  -24.2599   -4.6318   23.2494 F   0  0  0  0  0  0  0  0  0  0  0  0
  -27.0398  -19.9942   21.1210 S   0  0  0  0  0  0  0  0  0  0  0  0
  1  2  1  0  0  0  0
  1  5  2  0  0  0  0
  2  6  2  0  0  0  0
  3  8  2  0  0  0  0
  3 15  1  0  0  0  0
  4  9  1  0  0  0  0
  4 15  2  0  0  0  0
  5 17  1  0  0  0  0
  6 19  1  0  0  0  0
  7 10  2  0  0  0  0
  7 18  1  0  0  0  0
  8 21  1  0  0  0  0
  9 21  2  0  0  0  0
 10 22  1  0  0  0  0
 11 12  2  0  0  0  0
 11 23  1  0  0  0  0
 12 24  1  0  0  0  0
 13 20  1  0  0  0  0
 13 22  2  0  0  0  0
 14 24  2  0  0  0  0
 14 25  1  0  0  0  0
 15 26  1  0  0  0  0
 16 26  1  0  0  0  0
 16 29  2  0  0  0  0
 16 31  1  0  0  0  0
 17 19  2  0  0  0  0
 17 37  1  0  0  0  0
 18 20  2  0  0  0  0
 18 38  1  0  0  0  0
 19 46  1  0  0  0  0
 20 39  1  0  0  0  0
 21 82  1  0  0  0  0
 22 83  1  0  0  0  0
 23 25  2  0  0  0  0
 23 82  1  0  0  0  0
 24 84  1  0  0  0  0
 25 85  1  0  0  0  0
 26 64  2  0  0  0  0
 27 28  2  0  0  0  0
 27 32  1  0  0  0  0
 27 86  1  0  0  0  0
 28 49  1  0  0  0  0
 28 65  1  0  0  0  0
 29 66  1  0  0  0  0
 29 69  1  0  0  0  0
 30 65  2  0  0  0  0
 30 71  1  0  0  0  0
 30 86  1  0  0  0  0
 31 70  1  0  0  0  0
 31 76  2  0  0  0  0
 32 72  1  0  0  0  0
 32 77  2  0  0  0  0
 33 47  1  0  0  0  0
 33 73  1  0  0  0  0
 33 78  2  0  0  0  0
 34 60  1  0  0  0  0
 34 67  1  0  0  0  0
 34 79  2  0  0  0  0
 35 61  1  0  0  0  0
 35 74  1  0  0  0  0
 35 80  2  0  0  0  0
 36 68  1  0  0  0  0
 36 71  1  0  0  0  0
 36 81  2  0  0  0  0
 37 40  1  0  0  0  0
 38 47  1  0  0  0  0
 39 67  1  0  0  0  0
 40 42  1  0  0  0  0
 41 43  1  0  0  0  0
 41 44  1  0  0  0  0
 42 46  1  0  0  0  0
 43 48  1  0  0  0  0
 44 68  1  0  0  0  0
 45 48  1  0  0  0  0
 45 68  1  0  0  0  0
 46 73  1  0  0  0  0
 47 67  1  0  0  0  0
 48 66  1  0  0  0  0
 50 61  1  0  0  0  0
 51 62  1  0  0  0  0
 52 62  1  0  0  0  0
 53 62  1  0  0  0  0
 54 63  1  0  0  0  0
 55 63  1  0  0  0  0
 56 75  1  0  0  0  0
 57 58  1  0  0  0  0
 57 63  1  0  0  0  0
 58 72  1  0  0  0  0
 59 63  1  0  0  0  0
 59 83  1  0  0  0  0
 60 62  1  0  0  0  0
 60 74  1  0  0  0  0
 61 75  1  0  0  0  0
 64 66  1  0  0  0  0
M  CHG  1  75   1
M  ISO  4  36 100  59 101  71 100  83 101
M  END
> <Batch ID>
0189

> <Smiles>
CNC(C)C(=O)NC(C(=O)N1Cc2cc([101O:1][101CH2:1]C(C)(C)CCNC(=O)c3sc([100NH:0][100C:0](=O)N4CCCC(n5nc(-c6ccc(Oc7ccc(F)cc7F)cc6)c(C(N)=O)c5N)C4)nc3C)ccc2CC1C(=O)NC1CCCc2ccccc21)C(C)(C)C

> <Shape>
0.291

> <Color>
0.149

> <Negative vol penalty>
0.000

$$$$

  -OEChem-04052305183D

 88 96  0     1  0  0  0  0  0999 V2000
  -21.5774  -28.8811   22.6204 C   0  0  0  0  0  0  0  0  0  0  0  0
  -21.5899  -27.7749   21.7769 C   0  0  0  0  0  0  0  0  0  0  0  0
  -23.2118   -9.8266   20.0310 C   0  0  0  0  0  0  0  0  0  0  0  0
  -23.8560  -10.0489   22.3489 C   0  0  0  0  0  0  0  0  0  0  0  0
  -22.6786  -29.7352   22.6643 C   0  0  0  0  0  0  0  0  0  0  0  0
  -22.7031  -27.5226   20.9761 C   0  0  0  0  0  0  0  0  0  0  0  0
  -27.1812  -21.1390   20.5031 C   0  0  0  0  0  0  0  0  0  0  0  0
  -22.5292   -8.6485   20.3336 C   0  0  0  0  0  0  0  0  0  0  0  0
  -23.1734   -8.8708   22.6516 C   0  0  0  0  0  0  0  0  0  0  0  0
  -28.1395  -20.1269   20.4439 C   0  0  0  0  0  0  0  0  0  0  0  0
  -23.6960   -5.5433   22.3593 C   0  0  0  0  0  0  0  0  0  0  0  0
  -24.3375   -4.6149   23.1791 C   0  0  0  0  0  0  0  0  0  0  0  0
  -30.9058  -17.0730   24.9859 C   0  0  0  0  0  0  0  0  0  0  0  0
  -30.2882  -16.1538   24.1451 C   0  0  0  0  0  0  0  0  0  0  0  0
  -29.8040  -21.7298   19.7311 C   0  0  0  0  0  0  0  0  0  0  0  0
  -22.5467   -4.8000   24.7902 C   0  0  0  0  0  0  0  0  0  0  0  0
  -23.8753  -10.5268   21.0386 C   0  0  0  0  0  0  0  0  0  0  0  0
  -24.0660  -13.0536   20.7442 C   0  0  0  0  0  0  0  0  0  0  0  0
  -23.8098  -29.4879   21.8708 C   0  0  0  0  0  0  0  0  0  0  0  0
  -27.5349  -22.4547   20.1910 C   0  0  0  0  0  0  0  0  0  0  0  0
  -23.8200  -28.3749   21.0084 C   0  0  0  0  0  0  0  0  0  0  0  0
  -28.8515  -22.7499   19.8007 C   0  0  0  0  0  0  0  0  0  0  0  0
  -22.5099   -8.1706   21.6439 C   0  0  0  0  0  0  0  0  0  0  0  0
  -29.4475  -20.4215   20.0586 C   0  0  0  0  0  0  0  0  0  0  0  0
  -22.4798   -6.1001   22.7550 C   0  0  0  0  0  0  0  0  0  0  0  0
  -23.7629   -4.2432   24.3945 C   0  0  0  0  0  0  0  0  0  0  0  0
  -32.1841  -17.5312   24.6866 C   0  0  0  0  0  0  0  0  0  0  0  0
  -21.9052   -5.7285   23.9705 C   0  0  0  0  0  0  0  0  0  0  0  0
  -24.5811  -11.7436   20.7264 C   0  0  0  0  0  0  0  0  0  0  0  0
  -30.9858  -15.7273   23.0264 C   0  0  0  0  0  0  0  0  0  0  0  0
  -32.7968  -17.0429   23.5438 C   0  0  0  0  0  0  0  0  0  0  0  0
  -25.1263  -13.8445   20.3745 C   0  0  0  0  0  0  0  0  0  0  0  0
  -22.7470  -13.5144   21.0661 C   0  0  0  0  0  0  0  0  0  0  0  0
  -26.4396  -26.0290   19.8740 C   0  0  0  0  0  0  0  0  0  0  0  0
  -29.2334  -26.0622   21.1406 C   0  0  0  0  0  0  0  0  0  0  0  0
  -32.1282  -25.6465   22.8969 C   0  0  0  0  0  0  0  0  0  0  0  0
  -30.8548  -14.2310   21.0040 C   0  0  0  0  0  0  0  0  0  0  0  0
  -24.9572  -30.4657   21.9174 C   0  0  0  0  0  0  0  0  0  0  0  0
  -26.5209  -23.5662   20.1817 C   0  0  0  0  0  0  0  0  0  0  0  0
  -29.1782  -24.1735   19.4405 C   0  0  0  0  0  0  0  0  0  0  0  0
  -26.2484  -29.9188   21.3142 C   0  0  0  0  0  0  0  0  0  0  0  0
  -29.3846  -13.0671   17.9773 C   0  0  0  0  0  0  0  0  0  0  0  0
  -25.9686  -29.2462   19.9741 C   0  0  0  0  0  0  0  0  0  0  0  0
  -27.9453  -12.7348   18.3777 C   0  0  0  0  0  0  0  0  0  0  0  0
  -30.3759  -12.7234   19.0876 C   0  0  0  0  0  0  0  0  0  0  0  0
  -28.6230  -12.9687   20.8011 C   0  0  0  0  0  0  0  0  0  0  0  0
  -25.0190  -28.0540   20.1428 C   0  0  1  0  0  0  0  0  0  0  0  0
  -27.1027  -24.9177   20.6334 C   0  0  1  0  0  0  0  0  0  0  0  0
  -27.5811  -13.3578   19.7396 C   0  0  2  0  0  0  0  0  0  0  0  0
  -36.2994  -15.0393   21.7802 C   0  0  0  0  0  0  0  0  0  0  0  0
  -33.9449  -26.9494   24.0367 C   0  0  0  0  0  0  0  0  0  0  0  0
  -36.7321  -18.7899   22.7289 C   0  0  0  0  0  0  0  0  0  0  0  0
  -34.7257  -19.3056   19.9724 C   0  0  0  0  0  0  0  0  0  0  0  0
  -30.4332  -26.7586   18.4241 C   0  0  0  0  0  0  0  0  0  0  0  0
  -32.6170  -27.1762   19.5750 C   0  0  0  0  0  0  0  0  0  0  0  0
  -30.6242  -28.5648   20.1433 C   0  0  0  0  0  0  0  0  0  0  0  0
  -31.5170  -24.4245   25.5222 C   0  0  0  0  0  0  0  0  0  0  0  0
  -36.7168  -16.2906   22.5398 C   0  0  0  0  0  0  0  0  0  0  0  0
  -32.4642  -18.6063   20.8742 C   0  0  0  0  0  0  0  0  0  0  0  0
  -31.7339  -19.7979   20.2625 C   0  0  0  0  0  0  0  0  0  1  0  0
  -30.7215  -26.1605   20.9191 C   0  0  1  0  0  0  0  0  0  0  0  0
  -32.6071  -26.2465   24.2065 C   0  0  2  0  0  0  0  0  0  0  0  0
  -36.1400  -17.6027   21.9547 C   0  0  1  0  0  0  0  0  0  0  0  0
  -33.9482  -18.8829   21.2264 C   0  0  1  0  0  0  0  0  0  0  0  0
  -34.5843  -17.6288   21.9044 C   0  0  2  0  0  0  0  0  0  0  0  0
  -31.0859  -27.1398   19.7678 C   0  0  0  0  0  0  0  0  0  0  0  0
  -25.8685  -11.7005   20.3733 N   0  0  0  0  0  0  0  0  0  0  0  0
  -32.2286  -16.1497   22.7030 N   0  0  0  0  0  0  0  0  0  0  0  0
  -26.1713  -12.9933   20.1656 N   0  0  0  0  0  0  0  0  0  0  0  0
  -28.5464  -25.0922   20.4005 N   0  0  0  0  0  0  0  0  0  0  0  0
  -29.9690  -13.3512   20.3466 N   0  0  0  0  0  0  0  0  0  0  0  0
  -25.2575  -15.1781   20.2110 N   0  0  0  0  0  0  0  0  0  0  0  0
  -21.7778  -12.5679   21.4255 N   0  0  0  0  0  0  0  0  0  0  0  0
  -30.3463  -14.7928   22.1747 N   0  0  0  0  0  0  0  0  0  0  0  0
  -34.0650  -17.5052   23.2573 N   0  0  0  0  0  0  0  0  0  0  0  0
  -25.7324  -26.9102   20.6695 N   0  0  0  0  0  0  0  0  0  0  0  0
  -31.3039  -26.5123   22.2096 N   0  0  0  0  0  0  0  0  0  0  0  0
  -32.7630  -25.1819   25.2376 N   0  3  0  0  0  0  0  0  0  0  0  0
  -22.4327  -14.7279   21.0201 O   0  0  0  0  0  0  0  0  0  0  0  0
  -26.5611  -26.0849   18.6559 O   0  0  0  0  0  0  0  0  0  0  0  0
  -28.6912  -26.8272   21.9431 O   0  0  0  0  0  0  0  0  0  0  0  0
  -32.4557  -24.5237   22.5194 O   0  0  0  0  0  0  0  0  0  0  0  0
  -31.9710  -14.4897   20.5467 O   0  0  0  0  0  0  0  0  0  0  0  0
  -21.8437   -7.0211   21.9397 O   0  0  0  0  0  0  0  0  0  0  0  0
  -30.3853  -19.4228   20.0070 O   0  0  0  0  0  0  0  0  0  1  0  0
  -24.3784   -3.3505   25.1809 F   0  0  0  0  0  0  0  0  0  0  0  0
  -32.7917  -18.4148   25.4886 F   0  0  0  0  0  0  0  0  0  0  0  0
  -20.7364   -6.2591   24.3554 F   0  0  0  0  0  0  0  0  0  0  0  0
  1  2  1  0  0  0  0
  1  5  2  0  0  0  0
  2  6  2  0  0  0  0
  3  8  2  0  0  0  0
  3 17  1  0  0  0  0
  4  9  1  0  0  0  0
  4 17  2  0  0  0  0
  5 19  1  0  0  0  0
  6 21  1  0  0  0  0
  7 10  2  0  0  0  0
  7 20  1  0  0  0  0
  8 23  1  0  0  0  0
  9 23  2  0  0  0  0
 10 24  1  0  0  0  0
 11 12  2  0  0  0  0
 11 25  1  0  0  0  0
 12 26  1  0  0  0  0
 13 14  2  0  0  0  0
 13 27  1  0  0  0  0
 14 30  1  0  0  0  0
 15 22  1  0  0  0  0
 15 24  2  0  0  0  0
 16 26  2  0  0  0  0
 16 28  1  0  0  0  0
 17 29  1  0  0  0  0
 18 29  1  0  0  0  0
 18 32  2  0  0  0  0
 18 33  1  0  0  0  0
 19 21  2  0  0  0  0
 19 38  1  0  0  0  0
 20 22  2  0  0  0  0
 20 39  1  0  0  0  0
 21 47  1  0  0  0  0
 22 40  1  0  0  0  0
 23 84  1  0  0  0  0
 24 85  1  0  0  0  0
 25 28  2  0  0  0  0
 25 84  1  0  0  0  0
 26 86  1  0  0  0  0
 27 31  2  0  0  0  0
 27 87  1  0  0  0  0
 28 88  1  0  0  0  0
 29 67  2  0  0  0  0
 30 68  2  0  0  0  0
 30 74  1  0  0  0  0
 31 68  1  0  0  0  0
 31 75  1  0  0  0  0
 32 69  1  0  0  0  0
 32 72  1  0  0  0  0
 33 73  1  0  0  0  0
 33 79  2  0  0  0  0
 34 48  1  0  0  0  0
 34 76  1  0  0  0  0
 34 80  2  0  0  0  0
 35 61  1  0  0  0  0
 35 70  1  0  0  0  0
 35 81  2  0  0  0  0
 36 62  1  0  0  0  0
 36 77  1  0  0  0  0
 36 82  2  0  0  0  0
 37 71  1  0  0  0  0
 37 74  1  0  0  0  0
 37 83  2  0  0  0  0
 38 41  1  0  0  0  0
 39 48  1  0  0  0  0
 40 70  1  0  0  0  0
 41 43  1  0  0  0  0
 42 44  1  0  0  0  0
 42 45  1  0  0  0  0
 43 47  1  0  0  0  0
 44 49  1  0  0  0  0
 45 71  1  0  0  0  0
 46 49  1  0  0  0  0
 46 71  1  0  0  0  0
 47 76  1  0  0  0  0
 48 70  1  0  0  0  0
 49 69  1  0  0  0  0
 50 58  1  0  0  0  0
 51 62  1  0  0  0  0
 52 63  1  0  0  0  0
 53 64  1  0  0  0  0
 54 66  1  0  0  0  0
 55 66  1  0  0  0  0
 56 66  1  0  0  0  0
 57 78  1  0  0  0  0
 58 63  1  0  0  0  0
 59 60  1  0  0  0  0
 59 64  1  0  0  0  0
 60 85  1  0  0  0  0
 61 66  1  0  0  0  0
 61 77  1  0  0  0  0
 62 78  1  0  0  0  0
 63 65  1  0  0  0  0
 64 65  1  0  0  0  0
 65 75  1  0  0  0  0
 67 69  1  0  0  0  0
M  CHG  1  78   1
M  ISO  4  37 100  60 101  74 100  85 101
M  END
> <Batch ID>
0189

> <Smiles>
CCC(C)C(Nc1nc([100NH:0][100C:0](=O)N2CCCC(n3nc(-c4ccc(Oc5ccc(F)cc5F)cc4)c(C(N)=O)c3N)C2)ccc1F)C(C)C[101CH2:1][101O:1]c1ccc2c(c1)CN(C(=O)C(NC(=O)C(C)NC)C(C)(C)C)C(C(=O)NC1CCCc3ccccc31)C2

> <Shape>
0.321

> <Color>
0.190

> <Negative vol penalty>
0.000

$$$$

  -OEChem-04052305183D

 91 99  0     1  0  0  0  0  0999 V2000
  -25.0355  -34.5811   27.0689 C   0  0  0  0  0  0  0  0  0  0  0  0
  -25.8770  -33.7501   26.3362 C   0  0  0  0  0  0  0  0  0  0  0  0
  -26.7473  -12.9212   21.0096 C   0  0  0  0  0  0  0  0  0  0  0  0
  -26.8965  -13.0610   18.6022 C   0  0  0  0  0  0  0  0  0  0  0  0
  -23.7016  -34.2247   27.2624 C   0  0  0  0  0  0  0  0  0  0  0  0
  -25.3853  -32.5617   25.7975 C   0  0  0  0  0  0  0  0  0  0  0  0
  -27.0241  -29.9663   20.4981 C   0  0  0  0  0  0  0  0  0  0  0  0
  -26.2476  -11.6233   20.9032 C   0  0  0  0  0  0  0  0  0  0  0  0
  -26.3969  -11.7631   18.4959 C   0  0  0  0  0  0  0  0  0  0  0  0
  -27.9083  -28.9322   20.1940 C   0  0  0  0  0  0  0  0  0  0  0  0
  -23.2952  -10.1424   20.1860 C   0  0  0  0  0  0  0  0  0  0  0  0
  -22.1948   -9.8057   20.9743 C   0  0  0  0  0  0  0  0  0  0  0  0
  -26.0689  -27.3716   20.1801 C   0  0  0  0  0  0  0  0  0  0  0  0
  -27.0775  -23.1366   15.7694 C   0  0  0  0  0  0  0  0  0  0  0  0
  -23.4907   -8.0678   22.0409 C   0  0  0  0  0  0  0  0  0  0  0  0
  -27.0717  -13.6401   19.8591 C   0  0  0  0  0  0  0  0  0  0  0  0
  -28.9371  -15.3669   20.0741 C   0  0  0  0  0  0  0  0  0  0  0  0
  -23.1907  -33.0361   26.7176 C   0  0  0  0  0  0  0  0  0  0  0  0
  -25.6548  -29.7086   20.6564 C   0  0  0  0  0  0  0  0  0  0  0  0
  -24.0435  -32.1885   25.9850 C   0  0  0  0  0  0  0  0  0  0  0  0
  -25.1690  -28.4047   20.4837 C   0  0  0  0  0  0  0  0  0  0  0  0
  -27.7959  -23.6222   14.6388 C   0  0  0  0  0  0  0  0  0  0  0  0
  -26.0724  -11.0442   19.6464 C   0  0  0  0  0  0  0  0  0  0  0  0
  -27.4312  -27.6341   20.0379 C   0  0  0  0  0  0  0  0  0  0  0  0
  -24.4933   -9.4417   20.3251 C   0  0  0  0  0  0  0  0  0  0  0  0
  -22.2926   -8.7685   21.9018 C   0  0  0  0  0  0  0  0  0  0  0  0
  -24.5911   -8.4045   21.2526 C   0  0  0  0  0  0  0  0  0  0  0  0
  -27.5874  -14.9811   19.9683 C   0  0  0  0  0  0  0  0  0  0  0  0
  -28.6080  -22.6556   14.0875 C   0  0  0  0  0  0  0  0  0  0  0  0
  -28.8975  -16.7376   20.1505 C   0  0  0  0  0  0  0  0  0  0  0  0
  -27.3677  -21.8172   16.0391 C   0  0  0  0  0  0  0  0  0  0  0  0
  -29.4796  -22.7384   12.9587 C   0  0  0  0  0  0  0  0  0  0  0  0
  -30.1209  -14.5584   20.1010 C   0  0  0  0  0  0  0  0  0  0  0  0
  -23.5802  -29.9954   23.0475 C   0  0  0  0  0  0  0  0  0  0  0  0
  -21.4304  -29.1607   20.7663 C   0  0  0  0  0  0  0  0  0  0  0  0
  -20.8225  -27.6145   17.7853 C   0  0  0  0  0  0  0  0  0  0  0  0
  -25.9682  -21.2538   18.0566 C   0  0  0  0  0  0  0  0  0  0  0  0
  -21.7539  -32.6698   26.9934 C   0  0  0  0  0  0  0  0  0  0  0  0
  -24.7103  -30.8397   20.9580 C   0  0  0  0  0  0  0  0  0  0  0  0
  -23.7051  -28.0788   20.6232 C   0  0  0  0  0  0  0  0  0  0  0  0
  -21.2161  -31.5777   26.0723 C   0  0  0  0  0  0  0  0  0  0  0  0
  -25.4409  -20.0616   21.3698 C   0  0  0  0  0  0  0  0  0  0  0  0
  -22.2138  -30.4285   25.9677 C   0  0  0  0  0  0  0  0  0  0  0  0
  -26.0722  -18.6675   21.3583 C   0  0  0  0  0  0  0  0  0  0  0  0
  -24.7551  -20.3846   20.0435 C   0  0  0  0  0  0  0  0  0  0  0  0
  -26.2269  -18.8177   18.8402 C   0  0  0  0  0  0  0  0  0  0  0  0
  -23.5409  -30.9033   25.3638 C   0  0  1  0  0  0  0  0  0  0  0  0
  -23.4086  -30.3750   21.6039 C   0  0  1  0  0  0  0  0  0  0  0  0
  -26.9855  -18.4726   20.1321 C   0  0  2  0  0  0  0  0  0  0  0  0
  -25.2693  -27.8580   16.3135 C   0  0  0  0  0  0  0  0  0  0  0  0
  -19.5254  -26.8707   15.7699 C   0  0  0  0  0  0  0  0  0  0  0  0
  -30.1942  -24.5493   18.9115 C   0  0  0  0  0  0  0  0  0  0  0  0
  -29.9486  -26.4899   15.0133 C   0  0  0  0  0  0  0  0  0  0  0  0
  -20.4935  -26.9411   22.6385 C   0  0  0  0  0  0  0  0  0  0  0  0
  -19.3506  -25.8709   20.6849 C   0  0  0  0  0  0  0  0  0  0  0  0
  -18.6548  -28.1432   21.4435 C   0  0  0  0  0  0  0  0  0  0  0  0
  -27.5882  -27.8322   13.1231 C   0  0  0  0  0  0  0  0  0  0  0  0
  -25.4328  -26.6164   13.4617 C   0  0  0  0  0  0  0  0  0  0  0  0
  -21.4867  -30.0874   16.3012 C   0  0  0  0  0  0  0  0  0  0  0  0
  -26.1938  -28.3103   15.1866 C   0  0  0  0  0  0  0  0  0  0  0  0
  -28.8044  -25.4509   17.0238 C   0  0  0  0  0  0  0  0  0  0  0  0
  -29.4538  -26.9596   18.9844 C   0  0  0  0  0  0  0  0  0  1  0  0
  -20.8672  -27.8572   20.2538 C   0  0  1  0  0  0  0  0  0  0  0  0
  -20.0486  -28.0614   16.5581 C   0  0  2  0  0  0  0  0  0  0  0  0
  -29.8793  -25.7983   18.0759 C   0  0  1  0  0  0  0  0  0  0  0  0
  -28.6514  -26.4410   15.8353 C   0  0  2  0  0  0  0  0  0  0  0  0
  -27.3803  -26.0548   15.0064 C   0  0  1  0  0  0  0  0  0  0  0  0
  -19.8694  -27.2086   21.2544 C   0  0  0  0  0  0  0  0  0  0  0  0
  -26.6698  -27.2053   14.1867 C   0  0  0  0  0  0  0  0  0  0  0  0
  -26.7513  -16.0227   19.9764 N   0  0  0  0  0  0  0  0  0  0  0  0
  -29.6487  -23.8187   12.2294 N   0  0  0  0  0  0  0  0  0  0  0  0
  -27.5778  -17.0764   20.0885 N   0  0  0  0  0  0  0  0  0  0  0  0
  -22.8223  -29.2177   20.9248 N   0  0  0  0  0  0  0  0  0  0  0  0
  -25.6818  -20.1815   18.9278 N   0  0  0  0  0  0  0  0  0  0  0  0
  -29.8631  -17.6742   20.2640 N   0  0  0  0  0  0  0  0  0  0  0  0
  -29.9816  -13.1666   20.0122 N   0  0  0  0  0  0  0  0  0  0  0  0
  -27.6839  -24.9108   14.1597 N   0  0  0  0  0  0  0  0  0  0  0  0
  -26.8879  -20.9514   17.0530 N   0  0  0  0  0  0  0  0  0  0  0  0
  -23.4203  -31.0476   23.9288 N   0  0  0  0  0  0  0  0  0  0  0  0
  -20.2957  -28.1467   18.9431 N   0  0  0  0  0  0  0  0  0  0  0  0
  -20.9214  -28.8713   15.6619 N   0  3  0  0  0  0  0  0  0  0  0  0
  -31.2672  -15.0545   20.2172 O   0  0  0  0  0  0  0  0  0  0  0  0
  -23.8371  -28.8335   23.3403 O   0  0  0  0  0  0  0  0  0  0  0  0
  -20.6643  -30.0963   21.0100 O   0  0  0  0  0  0  0  0  0  0  0  0
  -21.7946  -26.8650   17.7234 O   0  0  0  0  0  0  0  0  0  0  0  0
  -25.4574  -22.3666   18.2073 O   0  0  0  0  0  0  0  0  0  0  0  0
  -25.5851   -9.7776   19.5422 O   0  0  0  0  0  0  0  0  0  0  0  0
  -28.2979  -26.6160   19.7397 O   0  0  0  0  0  0  0  0  0  1  0  0
  -21.2363   -8.4463   22.6599 F   0  0  0  0  0  0  0  0  0  0  0  0
  -25.7398   -7.7285   21.3915 F   0  0  0  0  0  0  0  0  0  0  0  0
  -28.5023  -21.1696   14.9320 S   0  0  0  0  0  0  0  0  0  0  0  0
  1  2  1  0  0  0  0
  1  5  2  0  0  0  0
  2  6  2  0  0  0  0
  3  8  2  0  0  0  0
  3 16  1  0  0  0  0
  4  9  1  0  0  0  0
  4 16  2  0  0  0  0
  5 18  1  0  0  0  0
  6 20  1  0  0  0  0
  7 10  2  0  0  0  0
  7 19  1  0  0  0  0
  8 23  1  0  0  0  0
  9 23  2  0  0  0  0
 10 24  1  0  0  0  0
 11 12  2  0  0  0  0
 11 25  1  0  0  0  0
 12 26  1  0  0  0  0
 13 21  1  0  0  0  0
 13 24  2  0  0  0  0
 14 22  1  0  0  0  0
 14 31  2  0  0  0  0
 15 26  2  0  0  0  0
 15 27  1  0  0  0  0
 16 28  1  0  0  0  0
 17 28  1  0  0  0  0
 17 30  2  0  0  0  0
 17 33  1  0  0  0  0
 18 20  2  0  0  0  0
 18 38  1  0  0  0  0
 19 21  2  0  0  0  0
 19 39  1  0  0  0  0
 20 47  1  0  0  0  0
 21 40  1  0  0  0  0
 22 29  2  0  0  0  0
 22 77  1  0  0  0  0
 23 87  1  0  0  0  0
 24 88  1  0  0  0  0
 25 27  2  0  0  0  0
 25 87  1  0  0  0  0
 26 89  1  0  0  0  0
 27 90  1  0  0  0  0
 28 70  2  0  0  0  0
 29 32  1  0  0  0  0
 29 91  1  0  0  0  0
 30 72  1  0  0  0  0
 30 75  1  0  0  0  0
 31 78  1  0  0  0  0
 31 91  1  0  0  0  0
 32 71  2  0  0  0  0
 33 76  1  0  0  0  0
 33 82  2  0  0  0  0
 34 48  1  0  0  0  0
 34 79  1  0  0  0  0
 34 83  2  0  0  0  0
 35 63  1  0  0  0  0
 35 73  1  0  0  0  0
 35 84  2  0  0  0  0
 36 64  1  0  0  0  0
 36 80  1  0  0  0  0
 36 85  2  0  0  0  0
 37 74  1  0  0  0  0
 37 78  1  0  0  0  0
 37 86  2  0  0  0  0
 38 41  1  0  0  0  0
 39 48  1  0  0  0  0
 40 73  1  0  0  0  0
 41 43  1  0  0  0  0
 42 44  1  0  0  0  0
 42 45  1  0  0  0  0
 43 47  1  0  0  0  0
 44 49  1  0  0  0  0
 45 74  1  0  0  0  0
 46 49  1  0  0  0  0
 46 74  1  0  0  0  0
 47 79  1  0  0  0  0
 48 73  1  0  0  0  0
 49 72  1  0  0  0  0
 50 60  1  0  0  0  0
 51 64  1  0  0  0  0
 52 65  1  0  0  0  0
 53 66  1  0  0  0  0
 54 68  1  0  0  0  0
 55 68  1  0  0  0  0
 56 68  1  0  0  0  0
 57 69  1  0  0  0  0
 58 69  1  0  0  0  0
 59 81  1  0  0  0  0
 60 69  1  0  0  0  0
 61 65  1  0  0  0  0
 61 66  1  0  0  0  0
 62 65  1  0  0  0  0
 62 88  1  0  0  0  0
 63 68  1  0  0  0  0
 63 80  1  0  0  0  0
 64 81  1  0  0  0  0
 66 67  1  0  0  0  0
 67 69  1  0  0  0  0
 67 77  1  0  0  0  0
 70 72  1  0  0  0  0
M  CHG  1  81   1
M  ISO  4  37 100  62 101  78 100  88 101
M  END
> <Batch ID>
0189

> <Smiles>
CCC(C)(C)C(Nc1cc([100NH:0][100C:0](=O)N2CCCC(n3nc(-c4ccc(Oc5ccc(F)cc5F)cc4)c(C(N)=O)c3N)C2)sc1C=N)C(C)CC(C)[101CH2:1][101O:1]c1ccc2c(c1)CN(C(=O)C(NC(=O)C(C)NC)C(C)(C)C)C(C(=O)NC1CCCc3ccccc31)C2

> <Shape>
0.236

> <Color>
0.095

> <Negative vol penalty>
0.000

$$$$

  -OEChem-04052305183D

 83 91  0     1  0  0  0  0  0999 V2000
  -29.0371  -22.1903   36.6366 C   0  0  0  0  0  0  0  0  0  0  0  0
  -28.8083  -21.3029   35.5898 C   0  0  0  0  0  0  0  0  0  0  0  0
  -23.1454   -9.8482   19.9327 C   0  0  0  0  0  0  0  0  0  0  0  0
  -23.6452   -9.9822   22.2927 C   0  0  0  0  0  0  0  0  0  0  0  0
  -27.9678  -22.6552   37.4011 C   0  0  0  0  0  0  0  0  0  0  0  0
  -27.5101  -20.8791   35.3077 C   0  0  0  0  0  0  0  0  0  0  0  0
  -25.1618  -19.6322   29.7908 C   0  0  0  0  0  0  0  0  0  0  0  0
  -22.3870   -8.6995   20.1585 C   0  0  0  0  0  0  0  0  0  0  0  0
  -22.8868   -8.8335   22.5185 C   0  0  0  0  0  0  0  0  0  0  0  0
  -24.9639  -18.4349   29.1044 C   0  0  0  0  0  0  0  0  0  0  0  0
  -23.2630   -5.4916   22.1709 C   0  0  0  0  0  0  0  0  0  0  0  0
  -23.8024   -4.5125   23.0051 C   0  0  0  0  0  0  0  0  0  0  0  0
  -22.6837  -18.3690   29.8888 C   0  0  0  0  0  0  0  0  0  0  0  0
  -21.9204   -4.7503   24.5013 C   0  0  0  0  0  0  0  0  0  0  0  0
  -28.3559  -14.2625   24.4567 C   0  0  0  0  0  0  0  0  0  0  0  0
  -23.7745  -10.4895   20.9998 C   0  0  0  0  0  0  0  0  0  0  0  0
  -24.1085  -13.0096   20.7868 C   0  0  0  0  0  0  0  0  0  0  0  0
  -26.6548  -22.2444   37.1221 C   0  0  0  0  0  0  0  0  0  0  0  0
  -24.1236  -20.2022   30.5415 C   0  0  0  0  0  0  0  0  0  0  0  0
  -26.4225  -21.3379   36.0701 C   0  0  0  0  0  0  0  0  0  0  0  0
  -22.8702  -19.5749   30.5817 C   0  0  0  0  0  0  0  0  0  0  0  0
  -22.2577   -8.1922   21.4514 C   0  0  0  0  0  0  0  0  0  0  0  0
  -23.7256  -17.8016   29.1557 C   0  0  0  0  0  0  0  0  0  0  0  0
  -22.0522   -6.1001   22.5019 C   0  0  0  0  0  0  0  0  0  0  0  0
  -23.1311   -4.1418   24.1703 C   0  0  0  0  0  0  0  0  0  0  0  0
  -21.3809   -5.7295   23.6670 C   0  0  0  0  0  0  0  0  0  0  0  0
  -24.5585  -11.6758   20.7671 C   0  0  0  0  0  0  0  0  0  0  0  0
  -28.5421  -15.2235   23.4852 C   0  0  0  0  0  0  0  0  0  0  0  0
  -25.2286  -13.7540   20.5081 C   0  0  0  0  0  0  0  0  0  0  0  0
  -26.6952  -15.5933   24.9868 C   0  0  0  0  0  0  0  0  0  0  0  0
  -22.7955  -13.5292   21.0349 C   0  0  0  0  0  0  0  0  0  0  0  0
  -23.6975  -20.8985   33.6135 C   0  0  0  0  0  0  0  0  0  0  0  0
  -20.9638  -22.2627   32.5235 C   0  0  0  0  0  0  0  0  0  0  0  0
  -18.5607  -22.4031   30.1043 C   0  0  0  0  0  0  0  0  0  0  0  0
  -24.8515  -15.7106   26.6973 C   0  0  0  0  0  0  0  0  0  0  0  0
  -30.9995  -13.3286   21.7729 C   0  0  0  0  0  0  0  0  0  0  0  0
  -25.5366  -22.7372   38.0061 C   0  0  0  0  0  0  0  0  0  0  0  0
  -24.3451  -21.5080   31.2545 C   0  0  0  0  0  0  0  0  0  0  0  0
  -21.7170  -20.1562   31.3568 C   0  0  0  0  0  0  0  0  0  0  0  0
  -24.1488  -22.5313   37.4046 C   0  0  0  0  0  0  0  0  0  0  0  0
  -29.5912  -12.8526   18.3830 C   0  0  0  0  0  0  0  0  0  0  0  0
  -24.0142  -21.1192   36.8436 C   0  0  0  0  0  0  0  0  0  0  0  0
  -28.1211  -12.5538   18.6720 C   0  0  0  0  0  0  0  0  0  0  0  0
  -30.4947  -12.4208   19.5341 C   0  0  0  0  0  0  0  0  0  0  0  0
  -28.6353  -12.6928   21.1412 C   0  0  0  0  0  0  0  0  0  0  0  0
  -25.0258  -20.8744   35.7174 C   0  0  1  0  0  0  0  0  0  0  0  0
  -23.3710  -21.7323   32.4069 C   0  0  1  0  0  0  0  0  0  0  0  0
  -27.6932  -13.1582   20.0207 C   0  0  2  0  0  0  0  0  0  0  0  0
  -16.4321  -23.5913   29.5088 C   0  0  0  0  0  0  0  0  0  0  0  0
  -22.4100  -16.2624   26.3906 C   0  0  0  0  0  0  0  0  0  0  0  0
  -19.4554  -20.5846   34.5774 C   0  0  0  0  0  0  0  0  0  0  0  0
  -17.3440  -21.0754   33.3246 C   0  0  0  0  0  0  0  0  0  0  0  0
  -18.6429  -22.9393   34.3548 C   0  0  0  0  0  0  0  0  0  0  0  0
  -31.6474  -14.8022   23.6407 C   0  0  0  0  0  0  0  0  0  0  0  0
  -19.7334  -23.5028   27.6194 C   0  0  0  0  0  0  0  0  0  0  0  0
  -29.5626  -15.3074   22.4226 C   0  0  0  0  0  0  0  0  0  0  0  0
  -19.5493  -21.7874   32.2948 C   0  0  1  0  0  0  0  0  0  0  0  0
  -17.9458  -23.5760   29.3623 C   0  0  2  0  0  0  0  0  0  0  0  0
  -23.7124  -16.6552   27.0720 C   0  0  1  0  0  0  0  0  0  1  0  0
  -18.7700  -21.5845   33.6248 C   0  0  0  0  0  0  0  0  0  0  0  0
  -27.2976  -14.4730   25.3190 N   0  0  0  0  0  0  0  0  0  0  0  0
  -25.8627  -11.5756   20.4970 N   0  0  0  0  0  0  0  0  0  0  0  0
  -26.2419  -12.8558   20.3445 N   0  0  0  0  0  0  0  0  0  0  0  0
  -21.9851  -21.4313   32.0423 N   0  0  0  0  0  0  0  0  0  0  0  0
  -30.0402  -12.9743   20.8101 N   0  0  0  0  0  0  0  0  0  0  0  0
  -25.4358  -15.0827   20.3895 N   0  0  0  0  0  0  0  0  0  0  0  0
  -21.7592  -12.6250   21.3050 N   0  0  0  0  0  0  0  0  0  0  0  0
  -25.5678  -16.1859   25.6038 N   0  0  0  0  0  0  0  0  0  0  0  0
  -24.5787  -21.5004   34.4915 N   0  0  0  0  0  0  0  0  0  0  0  0
  -18.9376  -22.7496   31.3846 N   0  0  0  0  0  0  0  0  0  0  0  0
  -30.6804  -14.3901   22.6333 N   0  0  0  0  0  0  0  0  0  0  0  0
  -18.2768  -23.5020   27.9111 N   0  3  0  0  0  0  0  0  0  0  0  0
  -22.5450  -14.7578   21.0014 O   0  0  0  0  0  0  0  0  0  0  0  0
  -23.1867  -19.7918   33.7394 O   0  0  0  0  0  0  0  0  0  0  0  0
  -21.1553  -23.3356   33.1012 O   0  0  0  0  0  0  0  0  0  0  0  0
  -18.6902  -21.2899   29.6000 O   0  0  0  0  0  0  0  0  0  0  0  0
  -25.0628  -14.6836   27.3360 O   0  0  0  0  0  0  0  0  0  0  0  0
  -32.0835  -12.7366   21.8525 O   0  0  0  0  0  0  0  0  0  0  0  0
  -21.5176   -7.0714   21.6722 O   0  0  0  0  0  0  0  0  0  0  0  0
  -23.5300  -16.6326   28.4872 O   0  0  0  0  0  0  0  0  0  1  0  0
  -23.6485   -3.2005   24.9705 F   0  0  0  0  0  0  0  0  0  0  0  0
  -20.2168   -6.3097   23.9896 F   0  0  0  0  0  0  0  0  0  0  0  0
  -27.3482  -16.4441   23.6471 S   0  0  0  0  0  0  0  0  0  0  0  0
  1  2  1  0  0  0  0
  1  5  2  0  0  0  0
  2  6  2  0  0  0  0
  3  8  2  0  0  0  0
  3 16  1  0  0  0  0
  4  9  1  0  0  0  0
  4 16  2  0  0  0  0
  5 18  1  0  0  0  0
  6 20  1  0  0  0  0
  7 10  2  0  0  0  0
  7 19  1  0  0  0  0
  8 22  1  0  0  0  0
  9 22  2  0  0  0  0
 10 23  1  0  0  0  0
 11 12  2  0  0  0  0
 11 24  1  0  0  0  0
 12 25  1  0  0  0  0
 13 21  1  0  0  0  0
 13 23  2  0  0  0  0
 14 25  2  0  0  0  0
 14 26  1  0  0  0  0
 15 28  2  0  0  0  0
 15 61  1  0  0  0  0
 16 27  1  0  0  0  0
 17 27  1  0  0  0  0
 17 29  2  0  0  0  0
 17 31  1  0  0  0  0
 18 20  2  0  0  0  0
 18 37  1  0  0  0  0
 19 21  2  0  0  0  0
 19 38  1  0  0  0  0
 20 46  1  0  0  0  0
 21 39  1  0  0  0  0
 22 79  1  0  0  0  0
 23 80  1  0  0  0  0
 24 26  2  0  0  0  0
 24 79  1  0  0  0  0
 25 81  1  0  0  0  0
 26 82  1  0  0  0  0
 27 62  2  0  0  0  0
 28 56  1  0  0  0  0
 28 83  1  0  0  0  0
 29 63  1  0  0  0  0
 29 66  1  0  0  0  0
 30 61  2  0  0  0  0
 30 68  1  0  0  0  0
 30 83  1  0  0  0  0
 31 67  1  0  0  0  0
 31 73  2  0  0  0  0
 32 47  1  0  0  0  0
 32 69  1  0  0  0  0
 32 74  2  0  0  0  0
 33 57  1  0  0  0  0
 33 64  1  0  0  0  0
 33 75  2  0  0  0  0
 34 58  1  0  0  0  0
 34 70  1  0  0  0  0
 34 76  2  0  0  0  0
 35 59  1  0  0  0  0
 35 68  1  0  0  0  0
 35 77  2  0  0  0  0
 36 65  1  0  0  0  0
 36 71  1  0  0  0  0
 36 78  2  0  0  0  0
 37 40  1  0  0  0  0
 38 47  1  0  0  0  0
 39 64  1  0  0  0  0
 40 42  1  0  0  0  0
 41 43  1  0  0  0  0
 41 44  1  0  0  0  0
 42 46  1  0  0  0  0
 43 48  1  0  0  0  0
 44 65  1  0  0  0  0
 45 48  1  0  0  0  0
 45 65  1  0  0  0  0
 46 69  1  0  0  0  0
 47 64  1  0  0  0  0
 48 63  1  0  0  0  0
 49 58  1  0  0  0  0
 50 59  1  0  0  0  0
 51 60  1  0  0  0  0
 52 60  1  0  0  0  0
 53 60  1  0  0  0  0
 54 71  1  0  0  0  0
 55 72  1  0  0  0  0
 56 71  1  0  0  0  0
 57 60  1  0  0  0  0
 57 70  1  0  0  0  0
 58 72  1  0  0  0  0
 59 80  1  0  0  0  0
 62 63  1  0  0  0  0
M  CHG  1  72   1
M  ISO  4  36 100  59 101  71 100  80 101
M  END
> <Batch ID>
0189

> <Smiles>
CNC(C)C(=O)NC(C(=O)N1Cc2cc([101O:1][101CH:1](C)C(=O)Nc3ncc(C[100N:0](C)[100C:0](=O)N4CCCC(n5nc(-c6ccc(Oc7ccc(F)cc7F)cc6)c(C(N)=O)c5N)C4)s3)ccc2CC1C(=O)NC1CCCc2ccccc21)C(C)(C)C

> <Shape>
0.150

> <Color>
0.179

> <Negative vol penalty>
0.000

$$$$

  -OEChem-04052305183D

 88 97  0     1  0  0  0  0  0999 V2000
  -22.0234  -16.9522   27.2065 C   0  0  0  0  0  0  0  0  0  0  0  0
  -21.8990  -18.2907   27.5649 C   0  0  0  0  0  0  0  0  0  0  0  0
  -26.7871  -31.9246   23.9840 C   0  0  0  0  0  0  0  0  0  0  0  0
  -29.4182  -16.8773   20.1262 C   0  0  0  0  0  0  0  0  0  0  0  0
  -27.0696  -17.4393   20.1996 C   0  0  0  0  0  0  0  0  0  0  0  0
  -22.6878  -16.6055   26.0308 C   0  0  0  0  0  0  0  0  0  0  0  0
  -22.4398  -19.2832   26.7482 C   0  0  0  0  0  0  0  0  0  0  0  0
  -21.2691  -26.0277   24.6371 C   0  0  0  0  0  0  0  0  0  0  0  0
  -29.1418  -15.6449   20.7181 C   0  0  0  0  0  0  0  0  0  0  0  0
  -26.7932  -16.2069   20.7915 C   0  0  0  0  0  0  0  0  0  0  0  0
  -21.9204  -27.2573   24.5495 C   0  0  0  0  0  0  0  0  0  0  0  0
  -26.4517  -12.9926   19.8055 C   0  0  0  0  0  0  0  0  0  0  0  0
  -25.3648  -12.2689   19.3149 C   0  0  0  0  0  0  0  0  0  0  0  0
  -26.1318  -31.2436   22.9178 C   0  0  0  0  0  0  0  0  0  0  0  0
  -22.9777  -26.5447   22.5017 C   0  0  0  0  0  0  0  0  0  0  0  0
  -24.3342  -12.3363   21.4991 C   0  0  0  0  0  0  0  0  0  0  0  0
  -25.8915  -32.5021   24.8570 C   0  0  0  0  0  0  0  0  0  0  0  0
  -28.3821  -17.7745   19.8669 C   0  0  0  0  0  0  0  0  0  0  0  0
  -28.6945  -19.3435   17.8798 C   0  0  0  0  0  0  0  0  0  0  0  0
  -23.2286  -17.5947   25.1944 C   0  0  0  0  0  0  0  0  0  0  0  0
  -21.4760  -25.0416   23.6618 C   0  0  0  0  0  0  0  0  0  0  0  0
  -23.1131  -18.9492   25.5609 C   0  0  0  0  0  0  0  0  0  0  0  0
  -22.3259  -25.3044   22.5778 C   0  0  0  0  0  0  0  0  0  0  0  0
  -27.8293  -15.3097   21.0508 C   0  0  0  0  0  0  0  0  0  0  0  0
  -22.7771  -27.5149   23.4833 C   0  0  0  0  0  0  0  0  0  0  0  0
  -26.4798  -13.3881   21.1429 C   0  0  0  0  0  0  0  0  0  0  0  0
  -24.3061  -11.9408   20.1617 C   0  0  0  0  0  0  0  0  0  0  0  0
  -25.4211  -13.0599   21.9896 C   0  0  0  0  0  0  0  0  0  0  0  0
  -28.6670  -19.0480   19.2560 C   0  0  0  0  0  0  0  0  0  0  0  0
  -25.1194  -27.6602   18.8443 C   0  0  0  0  0  0  0  0  0  0  0  0
  -24.7602  -31.3263   23.0166 C   0  0  0  0  0  0  0  0  0  0  0  0
  -26.3882  -27.9009   18.3603 C   0  0  0  0  0  0  0  0  0  0  0  0
  -29.0113  -20.6786   17.8216 C   0  0  0  0  0  0  0  0  0  0  0  0
  -25.3092  -29.7603   19.4472 C   0  0  0  0  0  0  0  0  0  0  0  0
  -28.4550  -18.4876   16.7548 C   0  0  0  0  0  0  0  0  0  0  0  0
  -22.6590  -22.0913   23.6705 C   0  0  0  0  0  0  0  0  0  0  0  0
  -21.6820  -22.1088   20.5773 C   0  0  0  0  0  0  0  0  0  0  0  0
  -20.8995  -23.9256   17.7964 C   0  0  0  0  0  0  0  0  0  0  0  0
  -28.3604  -25.9183   19.6293 C   0  0  0  0  0  0  0  0  0  0  0  0
  -23.9792  -17.1687   23.9576 C   0  0  0  0  0  0  0  0  0  0  0  0
  -20.7453  -23.7304   23.7564 C   0  0  0  0  0  0  0  0  0  0  0  0
  -22.5662  -24.2868   21.4938 C   0  0  0  0  0  0  0  0  0  0  0  0
  -24.1972  -18.3010   22.9572 C   0  0  0  0  0  0  0  0  0  0  0  0
  -30.6250  -23.8396   21.4259 C   0  0  0  0  0  0  0  0  0  0  0  0
  -24.6952  -19.5544   23.6697 C   0  0  0  0  0  0  0  0  0  0  0  0
  -30.3154  -22.4322   20.9127 C   0  0  0  0  0  0  0  0  0  0  0  0
  -29.3621  -24.6914   21.5340 C   0  0  0  0  0  0  0  0  0  0  0  0
  -28.2474  -23.3573   19.7872 C   0  0  0  0  0  0  0  0  0  0  0  0
  -23.6648  -20.0560   24.6886 C   0  0  1  0  0  0  0  0  0  0  0  0
  -21.4284  -22.6083   22.9806 C   0  0  1  0  0  0  0  0  0  0  0  0
  -29.4972  -22.4785   19.6082 C   0  0  2  0  0  0  0  0  0  0  0  0
  -24.3825  -26.3830   18.7539 C   0  0  0  0  0  0  0  0  0  0  0  0
  -20.1719  -23.6590   15.4096 C   0  0  0  0  0  0  0  0  0  0  0  0
  -23.4977  -32.8049   20.5710 C   0  0  0  0  0  0  0  0  0  0  0  0
  -24.5167  -21.2827   19.8080 C   0  0  0  0  0  0  0  0  0  0  0  0
  -23.9974  -21.9512   17.4518 C   0  0  0  0  0  0  0  0  0  0  0  0
  -22.7081  -20.1124   18.5377 C   0  0  0  0  0  0  0  0  0  0  0  0
  -18.3884  -25.4173   18.2737 C   0  0  0  0  0  0  0  0  0  0  0  0
  -27.3227  -27.0029   17.6530 C   0  0  0  0  0  0  0  0  0  0  0  0
  -23.7164  -29.1951   22.0867 C   0  0  0  0  0  0  0  0  0  1  0  0
  -23.7039  -30.7367   22.0864 C   0  0  2  0  0  0  0  0  0  0  0  0
  -22.3075  -22.5017   19.2608 C   0  0  1  0  0  0  0  0  0  0  0  0
  -19.7168  -23.8555   16.8473 C   0  0  2  0  0  0  0  0  0  0  0  0
  -23.7502  -31.2996   20.6411 C   0  0  2  0  0  0  0  0  0  0  0  0
  -23.3796  -21.4807   18.7859 C   0  0  0  0  0  0  0  0  0  0  0  0
  -28.9444  -20.1100   20.0170 N   0  0  0  0  0  0  0  0  0  0  0  0
  -24.4993  -28.7251   19.4682 N   0  0  0  0  0  0  0  0  0  0  0  0
  -29.1493  -21.0858   19.1160 N   0  0  0  0  0  0  0  0  0  0  0  0
  -21.8337  -23.0175   21.6343 N   0  0  0  0  0  0  0  0  0  0  0  0
  -28.6332  -24.6949   20.2634 N   0  0  0  0  0  0  0  0  0  0  0  0
  -29.1826  -21.5324   16.7900 N   0  0  0  0  0  0  0  0  0  0  0  0
  -28.1413  -17.1426   16.9933 N   0  0  0  0  0  0  0  0  0  0  0  0
  -25.0068  -30.9974   19.9862 N   0  0  0  0  0  0  0  0  0  0  0  0
  -22.5900  -20.7557   24.0179 N   0  0  0  0  0  0  0  0  0  0  0  0
  -21.2045  -22.6889   18.3245 N   0  0  0  0  0  0  0  0  0  0  0  0
  -27.6709  -25.8316   18.4261 N   0  0  0  0  0  0  0  0  0  0  0  0
  -18.9191  -25.1122   16.9201 N   0  3  0  0  0  0  0  0  0  0  0  0
  -28.5334  -18.8993   15.5725 O   0  0  0  0  0  0  0  0  0  0  0  0
  -23.6019  -22.8478   23.8713 O   0  0  0  0  0  0  0  0  0  0  0  0
  -21.0748  -21.0384   20.6628 O   0  0  0  0  0  0  0  0  0  0  0  0
  -21.4957  -24.9720   18.0417 O   0  0  0  0  0  0  0  0  0  0  0  0
  -28.7104  -27.0068   20.0980 O   0  0  0  0  0  0  0  0  0  0  0  0
  -27.5592  -14.1071   21.6282 O   0  0  0  0  0  0  0  0  0  0  0  0
  -23.4145  -28.7140   23.3958 O   0  0  0  0  0  0  0  0  0  1  0  0
  -23.2617  -11.2472   19.6901 F   0  0  0  0  0  0  0  0  0  0  0  0
  -25.4419  -13.4381   23.2751 F   0  0  0  0  0  0  0  0  0  0  0  0
  -24.2679  -32.2224   24.3902 S   0  0  0  0  0  0  0  0  0  0  0  0
  -26.8323  -29.5238   18.6926 S   0  0  0  0  0  0  0  0  0  0  0  0
  1  2  1  0  0  0  0
  1  6  2  0  0  0  0
  2  7  2  0  0  0  0
  3 14  1  0  0  0  0
  3 17  2  0  0  0  0
  4  9  2  0  0  0  0
  4 18  1  0  0  0  0
  5 10  1  0  0  0  0
  5 18  2  0  0  0  0
  6 20  1  0  0  0  0
  7 22  1  0  0  0  0
  8 11  2  0  0  0  0
  8 21  1  0  0  0  0
  9 24  1  0  0  0  0
 10 24  2  0  0  0  0
 11 25  1  0  0  0  0
 12 13  2  0  0  0  0
 12 26  1  0  0  0  0
 13 27  1  0  0  0  0
 14 31  2  0  0  0  0
 15 23  1  0  0  0  0
 15 25  2  0  0  0  0
 16 27  2  0  0  0  0
 16 28  1  0  0  0  0
 17 87  1  0  0  0  0
 18 29  1  0  0  0  0
 19 29  1  0  0  0  0
 19 33  2  0  0  0  0
 19 35  1  0  0  0  0
 20 22  2  0  0  0  0
 20 40  1  0  0  0  0
 21 23  2  0  0  0  0
 21 41  1  0  0  0  0
 22 49  1  0  0  0  0
 23 42  1  0  0  0  0
 24 83  1  0  0  0  0
 25 84  1  0  0  0  0
 26 28  2  0  0  0  0
 26 83  1  0  0  0  0
 27 85  1  0  0  0  0
 28 86  1  0  0  0  0
 29 66  2  0  0  0  0
 30 32  2  0  0  0  0
 30 52  1  0  0  0  0
 30 67  1  0  0  0  0
 31 61  1  0  0  0  0
 31 87  1  0  0  0  0
 32 59  1  0  0  0  0
 32 88  1  0  0  0  0
 33 68  1  0  0  0  0
 33 71  1  0  0  0  0
 34 67  2  0  0  0  0
 34 73  1  0  0  0  0
 34 88  1  0  0  0  0
 35 72  1  0  0  0  0
 35 78  2  0  0  0  0
 36 50  1  0  0  0  0
 36 74  1  0  0  0  0
 36 79  2  0  0  0  0
 37 62  1  0  0  0  0
 37 69  1  0  0  0  0
 37 80  2  0  0  0  0
 38 63  1  0  0  0  0
 38 75  1  0  0  0  0
 38 81  2  0  0  0  0
 39 70  1  0  0  0  0
 39 76  1  0  0  0  0
 39 82  2  0  0  0  0
 40 43  1  0  0  0  0
 41 50  1  0  0  0  0
 42 69  1  0  0  0  0
 43 45  1  0  0  0  0
 44 46  1  0  0  0  0
 44 47  1  0  0  0  0
 45 49  1  0  0  0  0
 46 51  1  0  0  0  0
 47 70  1  0  0  0  0
 48 51  1  0  0  0  0
 48 70  1  0  0  0  0
 49 74  1  0  0  0  0
 50 69  1  0  0  0  0
 51 68  1  0  0  0  0
 53 63  1  0  0  0  0
 54 64  1  0  0  0  0
 55 65  1  0  0  0  0
 56 65  1  0  0  0  0
 57 65  1  0  0  0  0
 58 77  1  0  0  0  0
 59 76  1  0  0  0  0
 60 61  1  0  0  0  0
 60 84  1  0  0  0  0
 61 64  1  0  0  0  0
 62 65  1  0  0  0  0
 62 75  1  0  0  0  0
 63 77  1  0  0  0  0
 64 73  1  0  0  0  0
 66 68  1  0  0  0  0
M  CHG  1  77   1
M  ISO  4  39 100  60 101  76 100  84 101
M  END
> <Batch ID>
0189

> <Smiles>
CNC(C)C(=O)NC(C(=O)N1Cc2cc([101O:1][101CH2:1]C(c3cccs3)C(C)Nc3nc(C)c(C[100NH:0][100C:0](=O)N4CCCC(n5nc(-c6ccc(Oc7ccc(F)cc7F)cc6)c(C(N)=O)c5N)C4)s3)ccc2CC1C(=O)NC1CCCc2ccccc21)C(C)(C)C

> <Shape>
0.193

> <Color>
0.070

> <Negative vol penalty>
0.000

$$$$

  -OEChem-04052305183D

 83 91  0     1  0  0  0  0  0999 V2000
  -28.0740  -13.2588   17.9375 C   0  0  0  0  0  0  0  0  0  0  0  0
  -27.4901  -14.5208   17.8950 C   0  0  0  0  0  0  0  0  0  0  0  0
  -29.0942  -26.0094   21.2280 C   0  0  0  0  0  0  0  0  0  0  0  0
  -27.1073  -24.6364   21.1643 C   0  0  0  0  0  0  0  0  0  0  0  0
  -27.5448  -12.2748   18.7716 C   0  0  0  0  0  0  0  0  0  0  0  0
  -26.3758  -14.7992   18.6857 C   0  0  0  0  0  0  0  0  0  0  0  0
  -25.0024  -20.1325   21.3645 C   0  0  0  0  0  0  0  0  0  0  0  0
  -29.7890  -24.9749   21.8544 C   0  0  0  0  0  0  0  0  0  0  0  0
  -27.8021  -23.6018   21.7907 C   0  0  0  0  0  0  0  0  0  0  0  0
  -24.1452  -21.1707   21.0025 C   0  0  0  0  0  0  0  0  0  0  0  0
  -29.1526  -20.4691   23.0479 C   0  0  0  0  0  0  0  0  0  0  0  0
  -28.9971  -19.1803   22.5376 C   0  0  0  0  0  0  0  0  0  0  0  0
  -22.4233  -20.2303   22.4060 C   0  0  0  0  0  0  0  0  0  0  0  0
  -29.8691  -19.9181   20.4086 C   0  0  0  0  0  0  0  0  0  0  0  0
  -18.8331  -27.6748   23.7683 C   0  0  0  0  0  0  0  0  0  0  0  0
  -27.7533  -25.8402   20.8829 C   0  0  0  0  0  0  0  0  0  0  0  0
  -26.9192  -27.1399   18.8525 C   0  0  0  0  0  0  0  0  0  0  0  0
  -26.4293  -12.5443   19.5802 C   0  0  0  0  0  0  0  0  0  0  0  0
  -24.5721  -19.1277   22.2430 C   0  0  0  0  0  0  0  0  0  0  0  0
  -25.8303  -13.8175   19.5304 C   0  0  0  0  0  0  0  0  0  0  0  0
  -23.2778  -19.1818   22.7796 C   0  0  0  0  0  0  0  0  0  0  0  0
  -29.1430  -23.7711   22.1358 C   0  0  0  0  0  0  0  0  0  0  0  0
  -22.8544  -21.2181   21.5209 C   0  0  0  0  0  0  0  0  0  0  0  0
  -29.6663  -21.4824   22.2385 C   0  0  0  0  0  0  0  0  0  0  0  0
  -29.3554  -18.9048   21.2180 C   0  0  0  0  0  0  0  0  0  0  0  0
  -30.0246  -21.2069   20.9189 C   0  0  0  0  0  0  0  0  0  0  0  0
  -27.0348  -26.9088   20.2363 C   0  0  0  0  0  0  0  0  0  0  0  0
  -19.5267  -28.0548   22.6385 C   0  0  0  0  0  0  0  0  0  0  0  0
  -26.1416  -28.2680   18.7566 C   0  0  0  0  0  0  0  0  0  0  0  0
  -19.3574  -25.9095   22.2154 C   0  0  0  0  0  0  0  0  0  0  0  0
  -27.4657  -26.4009   17.7521 C   0  0  0  0  0  0  0  0  0  0  0  0
  -24.1828  -15.9800   22.0328 C   0  0  0  0  0  0  0  0  0  0  0  0
  -23.5565  -16.2377   25.2051 C   0  0  0  0  0  0  0  0  0  0  0  0
  -22.5329  -18.1953   27.8065 C   0  0  0  0  0  0  0  0  0  0  0  0
  -20.0442  -24.2891   20.4184 C   0  0  0  0  0  0  0  0  0  0  0  0
  -22.0706  -30.7352   22.3886 C   0  0  0  0  0  0  0  0  0  0  0  0
  -25.8640  -11.4343   20.4304 C   0  0  0  0  0  0  0  0  0  0  0  0
  -25.5179  -18.0292   22.6446 C   0  0  0  0  0  0  0  0  0  0  0  0
  -22.7742  -18.1387   23.7423 C   0  0  0  0  0  0  0  0  0  0  0  0
  -24.9096  -11.9246   21.5163 C   0  0  0  0  0  0  0  0  0  0  0  0
  -25.0332  -32.2655   21.1404 C   0  0  0  0  0  0  0  0  0  0  0  0
  -23.9154  -12.9278   20.9400 C   0  0  0  0  0  0  0  0  0  0  0  0
  -25.8717  -31.0870   20.6423 C   0  0  0  0  0  0  0  0  0  0  0  0
  -24.2522  -31.9086   22.4032 C   0  0  0  0  0  0  0  0  0  0  0  0
  -24.2543  -29.5204   21.7948 C   0  0  0  0  0  0  0  0  0  0  0  0
  -24.6357  -14.1655   20.3917 C   0  0  1  0  0  0  0  0  0  0  0  0
  -24.8026  -16.7781   23.1449 C   0  0  1  0  0  0  0  0  0  0  0  0
  -25.0166  -29.8145   20.4915 C   0  0  2  0  0  0  0  0  0  0  0  0
  -22.0859  -18.1160   30.2746 C   0  0  0  0  0  0  0  0  0  0  0  0
  -20.9395  -14.7590   24.6811 C   0  0  0  0  0  0  0  0  0  0  0  0
  -20.1322  -15.5376   26.9194 C   0  0  0  0  0  0  0  0  0  0  0  0
  -22.1347  -14.0584   26.7632 C   0  0  0  0  0  0  0  0  0  0  0  0
  -24.5952  -20.2436   28.3635 C   0  0  0  0  0  0  0  0  0  0  0  0
  -19.9623  -29.4280   22.3154 C   0  0  0  0  0  0  0  0  0  0  0  0
  -20.6187  -21.9383   21.1482 C   0  0  0  0  0  0  0  0  0  1  0  0
  -22.3171  -16.4725   26.0345 C   0  0  1  0  0  0  0  0  0  0  0  0
  -23.1126  -18.4125   29.1926 C   0  0  2  0  0  0  0  0  0  0  0  0
  -19.9129  -22.8062   20.1169 C   0  0  2  0  0  0  0  0  0  0  0  0
  -21.3894  -15.2256   26.0799 C   0  0  0  0  0  0  0  0  0  0  0  0
  -26.3830  -27.8172   20.9670 N   0  0  0  0  0  0  0  0  0  0  0  0
  -19.8286  -27.0439   21.7470 N   0  0  0  0  0  0  0  0  0  0  0  0
  -25.8504  -28.6302   20.0388 N   0  0  0  0  0  0  0  0  0  0  0  0
  -23.7344  -17.0814   24.0995 N   0  0  0  0  0  0  0  0  0  0  0  0
  -23.4610  -30.6938   22.1931 N   0  0  0  0  0  0  0  0  0  0  0  0
  -25.6855  -28.9758   17.7013 N   0  0  0  0  0  0  0  0  0  0  0  0
  -28.2414  -25.2668   18.0285 N   0  0  0  0  0  0  0  0  0  0  0  0
  -19.4427  -24.6268   21.6241 N   0  0  0  0  0  0  0  0  0  0  0  0
  -25.0296  -15.0419   21.4740 N   0  0  0  0  0  0  0  0  0  0  0  0
  -22.7807  -16.9204   27.3433 N   0  0  0  0  0  0  0  0  0  0  0  0
  -21.3956  -29.5420   22.1619 N   0  0  0  0  0  0  0  0  0  0  0  0
  -23.5662  -19.8234   29.3491 N   0  3  0  0  0  0  0  0  0  0  0  0
  -27.2855  -26.7457   16.5596 O   0  0  0  0  0  0  0  0  0  0  0  0
  -23.0218  -16.1982   21.7069 O   0  0  0  0  0  0  0  0  0  0  0  0
  -24.3415  -15.3436   25.5305 O   0  0  0  0  0  0  0  0  0  0  0  0
  -21.9184  -19.0680   27.1973 O   0  0  0  0  0  0  0  0  0  0  0  0
  -20.6185  -25.0355   19.6310 O   0  0  0  0  0  0  0  0  0  0  0  0
  -21.4744  -31.7609   22.7340 O   0  0  0  0  0  0  0  0  0  0  0  0
  -29.8208  -22.7613   22.7469 O   0  0  0  0  0  0  0  0  0  0  0  0
  -22.0154  -22.2300   21.1687 O   0  0  0  0  0  0  0  0  0  1  0  0
  -29.2074  -17.6667   20.7286 F   0  0  0  0  0  0  0  0  0  0  0  0
  -30.5198  -22.1760   20.1370 F   0  0  0  0  0  0  0  0  0  0  0  0
  -20.4403  -22.5208   18.8915 F   0  0  0  0  0  0  0  0  0  0  0  0
  -18.5399  -25.9856   23.7224 S   0  0  0  0  0  0  0  0  0  0  0  0
  1  2  1  0  0  0  0
  1  5  2  0  0  0  0
  2  6  2  0  0  0  0
  3  8  2  0  0  0  0
  3 16  1  0  0  0  0
  4  9  1  0  0  0  0
  4 16  2  0  0  0  0
  5 18  1  0  0  0  0
  6 20  1  0  0  0  0
  7 10  2  0  0  0  0
  7 19  1  0  0  0  0
  8 22  1  0  0  0  0
  9 22  2  0  0  0  0
 10 23  1  0  0  0  0
 11 12  2  0  0  0  0
 11 24  1  0  0  0  0
 12 25  1  0  0  0  0
 13 21  1  0  0  0  0
 13 23  2  0  0  0  0
 14 25  2  0  0  0  0
 14 26  1  0  0  0  0
 15 28  2  0  0  0  0
 15 83  1  0  0  0  0
 16 27  1  0  0  0  0
 17 27  1  0  0  0  0
 17 29  2  0  0  0  0
 17 31  1  0  0  0  0
 18 20  2  0  0  0  0
 18 37  1  0  0  0  0
 19 21  2  0  0  0  0
 19 38  1  0  0  0  0
 20 46  1  0  0  0  0
 21 39  1  0  0  0  0
 22 78  1  0  0  0  0
 23 79  1  0  0  0  0
 24 26  2  0  0  0  0
 24 78  1  0  0  0  0
 25 80  1  0  0  0  0
 26 81  1  0  0  0  0
 27 60  2  0  0  0  0
 28 54  1  0  0  0  0
 28 61  1  0  0  0  0
 29 62  1  0  0  0  0
 29 65  1  0  0  0  0
 30 61  2  0  0  0  0
 30 67  1  0  0  0  0
 30 83  1  0  0  0  0
 31 66  1  0  0  0  0
 31 72  2  0  0  0  0
 32 47  1  0  0  0  0
 32 68  1  0  0  0  0
 32 73  2  0  0  0  0
 33 56  1  0  0  0  0
 33 63  1  0  0  0  0
 33 74  2  0  0  0  0
 34 57  1  0  0  0  0
 34 69  1  0  0  0  0
 34 75  2  0  0  0  0
 35 58  1  0  0  0  0
 35 67  1  0  0  0  0
 35 76  2  0  0  0  0
 36 64  1  0  0  0  0
 36 70  1  0  0  0  0
 36 77  2  0  0  0  0
 37 40  1  0  0  0  0
 38 47  1  0  0  0  0
 39 63  1  0  0  0  0
 40 42  1  0  0  0  0
 41 43  1  0  0  0  0
 41 44  1  0  0  0  0
 42 46  1  0  0  0  0
 43 48  1  0  0  0  0
 44 64  1  0  0  0  0
 45 48  1  0  0  0  0
 45 64  1  0  0  0  0
 46 68  1  0  0  0  0
 47 63  1  0  0  0  0
 48 62  1  0  0  0  0
 49 57  1  0  0  0  0
 50 59  1  0  0  0  0
 51 59  1  0  0  0  0
 52 59  1  0  0  0  0
 53 71  1  0  0  0  0
 54 70  1  0  0  0  0
 55 58  1  0  0  0  0
 55 79  1  0  0  0  0
 56 59  1  0  0  0  0
 56 69  1  0  0  0  0
 57 71  1  0  0  0  0
 58 82  1  0  0  0  0
 60 62  1  0  0  0  0
M  CHG  1  71   1
M  ISO  4  36 100  55 101  70 100  79 101
M  END
> <Batch ID>
0189

> <Smiles>
CNC(C)C(=O)NC(C(=O)N1Cc2cc([101O:1][101CH2:1]C(F)C(=O)Nc3nc(C[100NH:0][100C:0](=O)N4CCCC(n5nc(-c6ccc(Oc7ccc(F)cc7F)cc6)c(C(N)=O)c5N)C4)cs3)ccc2CC1C(=O)NC1CCCc2ccccc21)C(C)(C)C

> <Shape>
0.195

> <Color>
0.070

> <Negative vol penalty>
0.000

$$$$

  -OEChem-04052305183D

 85 93  0     1  0  0  0  0  0999 V2000
  -29.9512  -31.4471   17.0470 C   0  0  0  0  0  0  0  0  0  0  0  0
  -29.3171  -30.5440   17.8942 C   0  0  0  0  0  0  0  0  0  0  0  0
  -23.0706   -9.8934   19.9327 C   0  0  0  0  0  0  0  0  0  0  0  0
  -23.8377   -9.8654   22.2236 C   0  0  0  0  0  0  0  0  0  0  0  0
  -30.1397  -31.1263   15.7034 C   0  0  0  0  0  0  0  0  0  0  0  0
  -28.8702  -29.3199   17.3979 C   0  0  0  0  0  0  0  0  0  0  0  0
  -30.0203  -25.4483   20.4530 C   0  0  0  0  0  0  0  0  0  0  0  0
  -22.3237   -8.7393   20.1686 C   0  0  0  0  0  0  0  0  0  0  0  0
  -23.0907   -8.7112   22.4595 C   0  0  0  0  0  0  0  0  0  0  0  0
  -29.2248  -25.2719   21.5843 C   0  0  0  0  0  0  0  0  0  0  0  0
  -19.9299   -6.0052   20.2657 C   0  0  0  0  0  0  0  0  0  0  0  0
  -18.6226   -5.9684   19.7808 C   0  0  0  0  0  0  0  0  0  0  0  0
  -28.0041  -23.5297   20.4468 C   0  0  0  0  0  0  0  0  0  0  0  0
  -18.0679   -7.8942   21.1302 C   0  0  0  0  0  0  0  0  0  0  0  0
  -23.8277  -10.4565   20.9602 C   0  0  0  0  0  0  0  0  0  0  0  0
  -24.1775  -12.9819   20.8749 C   0  0  0  0  0  0  0  0  0  0  0  0
  -29.7036  -29.8937   15.1925 C   0  0  0  0  0  0  0  0  0  0  0  0
  -29.8062  -24.6730   19.3043 C   0  0  0  0  0  0  0  0  0  0  0  0
  -29.0519  -28.9828   16.0459 C   0  0  0  0  0  0  0  0  0  0  0  0
  -28.7999  -23.6965   19.3031 C   0  0  0  0  0  0  0  0  0  0  0  0
  -22.3337   -8.1482   21.4320 C   0  0  0  0  0  0  0  0  0  0  0  0
  -28.2146  -24.3145   21.5803 C   0  0  0  0  0  0  0  0  0  0  0  0
  -20.3063   -6.9865   21.1828 C   0  0  0  0  0  0  0  0  0  0  0  0
  -17.6916   -6.9129   20.2131 C   0  0  0  0  0  0  0  0  0  0  0  0
  -19.3753   -7.9310   21.6151 C   0  0  0  0  0  0  0  0  0  0  0  0
  -24.5999  -11.6483   20.7169 C   0  0  0  0  0  0  0  0  0  0  0  0
  -30.7441  -19.0517   23.0887 C   0  0  0  0  0  0  0  0  0  0  0  0
  -31.8427  -18.6900   22.3375 C   0  0  0  0  0  0  0  0  0  0  0  0
  -25.2710  -13.7329   20.5189 C   0  0  0  0  0  0  0  0  0  0  0  0
  -30.5978  -16.9214   21.9738 C   0  0  0  0  0  0  0  0  0  0  0  0
  -22.9100  -13.4959   21.3051 C   0  0  0  0  0  0  0  0  0  0  0  0
  -30.4884  -20.2711   23.8980 C   0  0  0  0  0  0  0  0  0  0  0  0
  -28.9849  -25.2971   16.2977 C   0  0  0  0  0  0  0  0  0  0  0  0
  -27.5920  -22.0523   24.7617 C   0  0  0  0  0  0  0  0  0  0  0  0
  -29.5493  -22.1281   15.8962 C   0  0  0  0  0  0  0  0  0  0  0  0
  -29.7531  -19.0216   17.2945 C   0  0  0  0  0  0  0  0  0  0  0  0
  -30.7412  -14.7579   20.6913 C   0  0  0  0  0  0  0  0  0  0  0  0
  -29.8874  -29.6111   13.7225 C   0  0  0  0  0  0  0  0  0  0  0  0
  -30.6904  -24.8572   18.1015 C   0  0  0  0  0  0  0  0  0  0  0  0
  -28.5427  -22.8244   18.1024 C   0  0  0  0  0  0  0  0  0  0  0  0
  -29.7192  -28.1379   13.3597 C   0  0  0  0  0  0  0  0  0  0  0  0
  -29.6114  -12.3818   18.2924 C   0  0  0  0  0  0  0  0  0  0  0  0
  -28.4708  -27.5641   14.0222 C   0  0  0  0  0  0  0  0  0  0  0  0
  -28.1721  -12.0888   18.7223 C   0  0  0  0  0  0  0  0  0  0  0  0
  -30.5310  -12.5904   19.4943 C   0  0  0  0  0  0  0  0  0  0  0  0
  -28.6308  -13.3014   20.8917 C   0  0  0  0  0  0  0  0  0  0  0  0
  -28.5752  -27.6347   15.5504 C   0  0  1  0  0  0  0  0  0  0  0  0
  -30.0487  -24.3663   16.8074 C   0  0  1  0  0  0  0  0  0  0  0  0
  -27.6537  -13.1481   19.7146 C   0  0  2  0  0  0  0  0  0  0  0  0
  -33.0764  -19.4837   22.1621 C   0  0  0  0  0  0  0  0  0  0  0  0
  -30.2077  -16.5578   17.4376 C   0  0  0  0  0  0  0  0  0  0  0  0
  -26.7548  -21.9106   14.6908 C   0  0  0  0  0  0  0  0  0  0  0  0
  -26.8871  -19.4306   15.0071 C   0  0  0  0  0  0  0  0  0  0  0  0
  -28.5096  -20.5826   13.5027 C   0  0  0  0  0  0  0  0  0  0  0  0
  -32.5885  -19.4689   18.0154 C   0  0  0  0  0  0  0  0  0  0  0  0
  -27.3914  -23.5403   25.0131 C   0  0  0  0  0  0  0  0  0  0  0  0
  -28.8561  -21.4538   25.3446 C   0  0  0  0  0  0  0  0  0  0  0  0
  -28.0328  -24.4180   23.9493 C   0  0  0  0  0  0  0  0  0  1  0  0
  -28.7191  -20.8720   16.0056 C   0  0  1  0  0  0  0  0  0  0  0  0
  -30.8047  -17.9327   17.1805 C   0  0  2  0  0  0  0  0  0  0  0  0
  -27.7210  -20.7166   14.8237 C   0  0  0  0  0  0  0  0  0  0  0  0
  -25.8631  -11.5543   20.2934 N   0  0  0  0  0  0  0  0  0  0  0  0
  -31.7608  -17.4686   21.6978 N   0  0  0  0  0  0  0  0  0  0  0  0
  -26.2439  -12.8383   20.1821 N   0  0  0  0  0  0  0  0  0  0  0  0
  -29.4297  -23.0468   16.9486 N   0  0  0  0  0  0  0  0  0  0  0  0
  -29.9782  -13.6105   20.3880 N   0  0  0  0  0  0  0  0  0  0  0  0
  -25.4856  -15.0646   20.4641 N   0  0  0  0  0  0  0  0  0  0  0  0
  -21.8962  -12.5853   21.6326 N   0  0  0  0  0  0  0  0  0  0  0  0
  -30.0995  -15.6733   21.5248 N   0  0  0  0  0  0  0  0  0  0  0  0
  -29.2582  -20.3332   24.5476 N   0  0  0  0  0  0  0  0  0  0  0  0
  -29.4327  -26.5802   16.0476 N   0  0  0  0  0  0  0  0  0  0  0  0
  -29.6640  -19.7684   16.1388 N   0  0  0  0  0  0  0  0  0  0  0  0
  -31.8975  -18.1626   18.1674 N   0  3  0  0  0  0  0  0  0  0  0  0
  -22.6780  -14.7263   21.3806 O   0  0  0  0  0  0  0  0  0  0  0  0
  -31.3416  -21.1536   23.9394 O   0  0  0  0  0  0  0  0  0  0  0  0
  -27.8427  -24.8814   16.1414 O   0  0  0  0  0  0  0  0  0  0  0  0
  -26.8100  -21.3880   24.0825 O   0  0  0  0  0  0  0  0  0  0  0  0
  -30.2826  -22.2849   14.9168 O   0  0  0  0  0  0  0  0  0  0  0  0
  -29.0758  -19.1902   18.3060 O   0  0  0  0  0  0  0  0  0  0  0  0
  -31.8694  -14.9296   20.2225 O   0  0  0  0  0  0  0  0  0  0  0  0
  -21.6048   -7.0221   21.6627 O   0  0  0  0  0  0  0  0  0  0  0  0
  -27.4363  -24.1406   22.6829 O   0  0  0  0  0  0  0  0  0  1  0  0
  -16.4366   -6.8784   19.7462 F   0  0  0  0  0  0  0  0  0  0  0  0
  -19.7313   -8.8767   22.4952 F   0  0  0  0  0  0  0  0  0  0  0  0
  -29.5534  -17.8209   22.9960 S   0  0  0  0  0  0  0  0  0  0  0  0
  1  2  1  0  0  0  0
  1  5  2  0  0  0  0
  2  6  2  0  0  0  0
  3  8  2  0  0  0  0
  3 15  1  0  0  0  0
  4  9  1  0  0  0  0
  4 15  2  0  0  0  0
  5 17  1  0  0  0  0
  6 19  1  0  0  0  0
  7 10  2  0  0  0  0
  7 18  1  0  0  0  0
  8 21  1  0  0  0  0
  9 21  2  0  0  0  0
 10 22  1  0  0  0  0
 11 12  2  0  0  0  0
 11 23  1  0  0  0  0
 12 24  1  0  0  0  0
 13 20  1  0  0  0  0
 13 22  2  0  0  0  0
 14 24  2  0  0  0  0
 14 25  1  0  0  0  0
 15 26  1  0  0  0  0
 16 26  1  0  0  0  0
 16 29  2  0  0  0  0
 16 31  1  0  0  0  0
 17 19  2  0  0  0  0
 17 38  1  0  0  0  0
 18 20  2  0  0  0  0
 18 39  1  0  0  0  0
 19 47  1  0  0  0  0
 20 40  1  0  0  0  0
 21 81  1  0  0  0  0
 22 82  1  0  0  0  0
 23 25  2  0  0  0  0
 23 81  1  0  0  0  0
 24 83  1  0  0  0  0
 25 84  1  0  0  0  0
 26 62  2  0  0  0  0
 27 28  2  0  0  0  0
 27 32  1  0  0  0  0
 27 85  1  0  0  0  0
 28 50  1  0  0  0  0
 28 63  1  0  0  0  0
 29 64  1  0  0  0  0
 29 67  1  0  0  0  0
 30 63  2  0  0  0  0
 30 69  1  0  0  0  0
 30 85  1  0  0  0  0
 31 68  1  0  0  0  0
 31 74  2  0  0  0  0
 32 70  1  0  0  0  0
 32 75  2  0  0  0  0
 33 48  1  0  0  0  0
 33 71  1  0  0  0  0
 33 76  2  0  0  0  0
 34 56  1  0  0  0  0
 34 57  1  0  0  0  0
 34 77  2  0  0  0  0
 35 59  1  0  0  0  0
 35 65  1  0  0  0  0
 35 78  2  0  0  0  0
 36 60  1  0  0  0  0
 36 72  1  0  0  0  0
 36 79  2  0  0  0  0
 37 66  1  0  0  0  0
 37 69  1  0  0  0  0
 37 80  2  0  0  0  0
 38 41  1  0  0  0  0
 39 48  1  0  0  0  0
 40 65  1  0  0  0  0
 41 43  1  0  0  0  0
 42 44  1  0  0  0  0
 42 45  1  0  0  0  0
 43 47  1  0  0  0  0
 44 49  1  0  0  0  0
 45 66  1  0  0  0  0
 46 49  1  0  0  0  0
 46 66  1  0  0  0  0
 47 71  1  0  0  0  0
 48 65  1  0  0  0  0
 49 64  1  0  0  0  0
 51 60  1  0  0  0  0
 52 61  1  0  0  0  0
 53 61  1  0  0  0  0
 54 61  1  0  0  0  0
 55 73  1  0  0  0  0
 56 58  1  0  0  0  0
 57 70  1  0  0  0  0
 58 82  1  0  0  0  0
 59 61  1  0  0  0  0
 59 72  1  0  0  0  0
 60 73  1  0  0  0  0
 62 64  1  0  0  0  0
M  CHG  1  73   1
M  ISO  4  37 100  58 101  69 100  82 101
M  END
> <Batch ID>
0189

> <Smiles>
CNC(C)C(=O)NC(C(=O)N1Cc2cc([101O:1][101CH2:1]CC(=O)CNC(=O)c3sc([100NH:0][100C:0](=O)N4CCCC(n5nc(-c6ccc(Oc7ccc(F)cc7F)cc6)c(C(N)=O)c5N)C4)nc3C)ccc2CC1C(=O)NC1CCCc2ccccc21)C(C)(C)C

> <Shape>
0.208

> <Color>
0.184

> <Negative vol penalty>
0.000

$$$$

  -OEChem-04052305183D

 88 96  0     1  0  0  0  0  0999 V2000
  -28.5799  -20.9719   27.2593 C   0  0  0  0  0  0  0  0  0  0  0  0
  -28.6424  -21.5389   25.9904 C   0  0  0  0  0  0  0  0  0  0  0  0
  -24.5861   -9.8465   21.7871 C   0  0  0  0  0  0  0  0  0  0  0  0
  -24.6685  -11.1244   23.8358 C   0  0  0  0  0  0  0  0  0  0  0  0
  -27.3547  -20.8719   27.9173 C   0  0  0  0  0  0  0  0  0  0  0  0
  -27.4796  -22.0053   25.3783 C   0  0  0  0  0  0  0  0  0  0  0  0
  -28.1078  -26.5410   23.2154 C   0  0  0  0  0  0  0  0  0  0  0  0
  -24.2487   -8.7043   22.5131 C   0  0  0  0  0  0  0  0  0  0  0  0
  -24.3310   -9.9822   24.5619 C   0  0  0  0  0  0  0  0  0  0  0  0
  -28.7607  -26.5742   21.9840 C   0  0  0  0  0  0  0  0  0  0  0  0
  -23.0123   -5.5334   23.7904 C   0  0  0  0  0  0  0  0  0  0  0  0
  -21.9799   -4.7342   23.2993 C   0  0  0  0  0  0  0  0  0  0  0  0
  -26.6302  -26.7475   20.8659 C   0  0  0  0  0  0  0  0  0  0  0  0
  -20.4540   -6.5994   23.4721 C   0  0  0  0  0  0  0  0  0  0  0  0
  -24.7961  -11.0566   22.4485 C   0  0  0  0  0  0  0  0  0  0  0  0
  -24.2632  -13.1833   21.1443 C   0  0  0  0  0  0  0  0  0  0  0  0
  -26.1777  -21.3461   27.3169 C   0  0  0  0  0  0  0  0  0  0  0  0
  -26.7083  -26.5999   23.2809 C   0  0  0  0  0  0  0  0  0  0  0  0
  -26.2373  -21.9104   26.0284 C   0  0  0  0  0  0  0  0  0  0  0  0
  -25.9621  -26.7174   22.0995 C   0  0  0  0  0  0  0  0  0  0  0  0
  -24.1211   -8.7721   23.9005 C   0  0  0  0  0  0  0  0  0  0  0  0
  -28.0218  -26.6746   20.8089 C   0  0  0  0  0  0  0  0  0  0  0  0
  -22.7655   -6.8655   24.1225 C   0  0  0  0  0  0  0  0  0  0  0  0
  -20.7008   -5.2672   23.1401 C   0  0  0  0  0  0  0  0  0  0  0  0
  -21.4863   -7.3985   23.9633 C   0  0  0  0  0  0  0  0  0  0  0  0
  -25.1452  -12.2367   21.6991 C   0  0  0  0  0  0  0  0  0  0  0  0
  -28.7943  -21.6607   20.1042 C   0  0  0  0  0  0  0  0  0  0  0  0
  -25.0836  -14.1033   20.5385 C   0  0  0  0  0  0  0  0  0  0  0  0
  -27.4798  -21.7914   20.5007 C   0  0  0  0  0  0  0  0  0  0  0  0
  -28.3828  -19.5596   20.5799 C   0  0  0  0  0  0  0  0  0  0  0  0
  -22.8304  -13.2271   21.1741 C   0  0  0  0  0  0  0  0  0  0  0  0
  -29.6235  -22.7966   19.6542 C   0  0  0  0  0  0  0  0  0  0  0  0
  -24.4284  -24.6549   24.3405 C   0  0  0  0  0  0  0  0  0  0  0  0
  -22.5043  -27.1783   23.6679 C   0  0  0  0  0  0  0  0  0  0  0  0
  -21.9989  -30.0404   21.8792 C   0  0  0  0  0  0  0  0  0  0  0  0
  -29.6029  -17.3558   20.5548 C   0  0  0  0  0  0  0  0  0  0  0  0
  -24.8696  -21.1734   28.0475 C   0  0  0  0  0  0  0  0  0  0  0  0
  -26.0205  -26.5898   24.6185 C   0  0  0  0  0  0  0  0  0  0  0  0
  -24.4585  -26.8042   22.1166 C   0  0  0  0  0  0  0  0  0  0  0  0
  -23.7398  -22.0322   27.4852 C   0  0  0  0  0  0  0  0  0  0  0  0
  -30.0521  -13.9604   19.5818 C   0  0  0  0  0  0  0  0  0  0  0  0
  -23.6994  -21.9317   25.9637 C   0  0  0  0  0  0  0  0  0  0  0  0
  -28.7430  -13.2871   20.0003 C   0  0  0  0  0  0  0  0  0  0  0  0
  -30.4834  -15.0322   20.5813 C   0  0  0  0  0  0  0  0  0  0  0  0
  -28.1531  -15.3687   21.3065 C   0  0  0  0  0  0  0  0  0  0  0  0
  -25.0015  -22.4503   25.3417 C   0  0  1  0  0  0  0  0  0  0  0  0
  -24.5655  -26.1379   24.5388 C   0  0  1  0  0  0  0  0  0  0  0  0
  -27.6444  -14.3266   20.2970 C   0  0  2  0  0  0  0  0  0  0  0  0
  -20.3151  -31.8656   21.5170 C   0  0  0  0  0  0  0  0  0  0  0  0
  -32.9772  -24.3991   15.5451 C   0  0  0  0  0  0  0  0  0  0  0  0
  -32.7684  -25.8561   17.5692 C   0  0  0  0  0  0  0  0  0  0  0  0
  -28.1798  -25.0801   16.2390 C   0  0  0  0  0  0  0  0  0  0  0  0
  -20.8085  -25.2773   21.9884 C   0  0  0  0  0  0  0  0  0  0  0  0
  -19.7486  -27.2782   20.9201 C   0  0  0  0  0  0  0  0  0  0  0  0
  -19.4990  -26.8970   23.3726 C   0  0  0  0  0  0  0  0  0  0  0  0
  -23.8849  -32.1235   22.8079 C   0  0  0  0  0  0  0  0  0  0  0  0
  -31.0109  -24.0753   17.0740 C   0  0  0  0  0  0  0  0  0  0  0  0
  -27.9574  -26.1658   18.4866 C   0  0  0  0  0  0  0  0  0  1  0  0
  -21.7340  -27.6420   22.4552 C   0  0  1  0  0  0  0  0  0  0  0  0
  -21.5409  -31.4247   22.3017 C   0  0  2  0  0  0  0  0  0  0  0  0
  -31.9953  -25.1035   16.4858 C   0  0  0  0  0  0  0  0  0  0  0  0
  -28.9512  -25.6437   17.4356 C   0  0  1  0  0  0  0  0  0  0  0  0
  -29.9580  -24.6376   18.0431 C   0  0  1  0  0  0  0  0  0  0  0  0
  -20.4757  -26.7701   22.1833 C   0  0  0  0  0  0  0  0  0  0  0  0
  -26.4277  -12.5284   21.4662 N   0  0  0  0  0  0  0  0  0  0  0  0
  -29.3139  -20.3817   20.1494 N   0  0  0  0  0  0  0  0  0  0  0  0
  -26.3575  -13.6686   20.7584 N   0  0  0  0  0  0  0  0  0  0  0  0
  -23.8318  -26.7841   23.4487 N   0  0  0  0  0  0  0  0  0  0  0  0
  -29.3940  -15.9839   20.8099 N   0  0  0  0  0  0  0  0  0  0  0  0
  -24.8323  -15.2336   19.8444 N   0  0  0  0  0  0  0  0  0  0  0  0
  -26.7275  -22.9176   20.5553 N   0  0  0  0  0  0  0  0  0  0  0  0
  -22.1443  -12.2024   21.8400 N   0  0  0  0  0  0  0  0  0  0  0  0
  -30.7345  -23.0727   20.3371 N   0  0  0  0  0  0  0  0  0  0  0  0
  -28.4858  -18.1603   20.7771 N   0  0  0  0  0  0  0  0  0  0  0  0
  -25.0171  -23.8975   25.3351 N   0  0  0  0  0  0  0  0  0  0  0  0
  -21.4461  -29.0559   22.6706 N   0  0  0  0  0  0  0  0  0  0  0  0
  -29.2153  -23.4878   18.5892 N   0  3  0  0  0  0  0  0  0  0  0  0
  -22.6265  -32.4206   22.0764 N   0  3  0  0  0  0  0  0  0  0  0  0
  -22.1773  -14.1390   20.6123 O   0  0  0  0  0  0  0  0  0  0  0  0
  -23.8314  -24.2292   23.3587 O   0  0  0  0  0  0  0  0  0  0  0  0
  -21.9508  -27.1730   24.7703 O   0  0  0  0  0  0  0  0  0  0  0  0
  -22.7670  -29.8511   20.9386 O   0  0  0  0  0  0  0  0  0  0  0  0
  -30.6846  -17.7816   20.1416 O   0  0  0  0  0  0  0  0  0  0  0  0
  -23.7916   -7.6578   24.6092 O   0  0  0  0  0  0  0  0  0  0  0  0
  -28.6610  -26.7068   19.5969 O   0  0  0  0  0  0  0  0  0  1  0  0
  -19.7099   -4.5001   22.6670 F   0  0  0  0  0  0  0  0  0  0  0  0
  -21.2434   -8.6779   24.2794 F   0  0  0  0  0  0  0  0  0  0  0  0
  -26.8587  -20.2568   20.9485 S   0  0  0  0  0  0  0  0  0  0  0  0
  1  2  1  0  0  0  0
  1  5  2  0  0  0  0
  2  6  2  0  0  0  0
  3  8  2  0  0  0  0
  3 15  1  0  0  0  0
  4  9  1  0  0  0  0
  4 15  2  0  0  0  0
  5 17  1  0  0  0  0
  6 19  1  0  0  0  0
  7 10  2  0  0  0  0
  7 18  1  0  0  0  0
  8 21  1  0  0  0  0
  9 21  2  0  0  0  0
 10 22  1  0  0  0  0
 11 12  2  0  0  0  0
 11 23  1  0  0  0  0
 12 24  1  0  0  0  0
 13 20  1  0  0  0  0
 13 22  2  0  0  0  0
 14 24  2  0  0  0  0
 14 25  1  0  0  0  0
 15 26  1  0  0  0  0
 16 26  1  0  0  0  0
 16 28  2  0  0  0  0
 16 31  1  0  0  0  0
 17 19  2  0  0  0  0
 17 37  1  0  0  0  0
 18 20  2  0  0  0  0
 18 38  1  0  0  0  0
 19 46  1  0  0  0  0
 20 39  1  0  0  0  0
 21 84  1  0  0  0  0
 22 85  1  0  0  0  0
 23 25  2  0  0  0  0
 23 84  1  0  0  0  0
 24 86  1  0  0  0  0
 25 87  1  0  0  0  0
 26 65  2  0  0  0  0
 27 29  2  0  0  0  0
 27 32  1  0  0  0  0
 27 66  1  0  0  0  0
 28 67  1  0  0  0  0
 28 70  1  0  0  0  0
 29 71  1  0  0  0  0
 29 88  1  0  0  0  0
 30 66  2  0  0  0  0
 30 74  1  0  0  0  0
 30 88  1  0  0  0  0
 31 72  1  0  0  0  0
 31 79  2  0  0  0  0
 32 73  1  0  0  0  0
 32 77  2  0  0  0  0
 33 47  1  0  0  0  0
 33 75  1  0  0  0  0
 33 80  2  0  0  0  0
 34 59  1  0  0  0  0
 34 68  1  0  0  0  0
 34 81  2  0  0  0  0
 35 60  1  0  0  0  0
 35 76  1  0  0  0  0
 35 82  2  0  0  0  0
 36 69  1  0  0  0  0
 36 74  1  0  0  0  0
 36 83  2  0  0  0  0
 37 40  1  0  0  0  0
 38 47  1  0  0  0  0
 39 68  1  0  0  0  0
 40 42  1  0  0  0  0
 41 43  1  0  0  0  0
 41 44  1  0  0  0  0
 42 46  1  0  0  0  0
 43 48  1  0  0  0  0
 44 69  1  0  0  0  0
 45 48  1  0  0  0  0
 45 69  1  0  0  0  0
 46 75  1  0  0  0  0
 47 68  1  0  0  0  0
 48 67  1  0  0  0  0
 49 60  1  0  0  0  0
 50 61  1  0  0  0  0
 51 61  1  0  0  0  0
 52 62  1  0  0  0  0
 53 64  1  0  0  0  0
 54 64  1  0  0  0  0
 55 64  1  0  0  0  0
 56 78  1  0  0  0  0
 57 61  1  0  0  0  0
 57 63  1  0  0  0  0
 58 62  1  0  0  0  0
 58 85  1  0  0  0  0
 59 64  1  0  0  0  0
 59 76  1  0  0  0  0
 60 78  1  0  0  0  0
 62 63  1  0  0  0  0
 63 77  1  0  0  0  0
 65 67  1  0  0  0  0
M  CHG  2  77   1  78   1
M  ISO  4  36 100  58 101  74 100  85 101
M  END
> <Batch ID>
0189

> <Smiles>
CNC(C)C(=O)NC(C(=O)N1Cc2cc([101O:1][101CH2:1]C(C)C(CC(C)C)NC(=N)c3nc([100NH:0][100C:0](=O)N4CCCC(n5nc(-c6ccc(Oc7ccc(F)cc7F)cc6)c(C(N)=O)c5N)C4)sc3N)ccc2CC1C(=O)NC1CCCc2ccccc21)C(C)(C)C

> <Shape>
0.277

> <Color>
0.132

> <Negative vol penalty>
0.000

$$$$

  -OEChem-04052305183D

 87 95  0     1  0  0  0  0  0999 V2000
  -27.1042  -36.3567   22.6714 C   0  0  0  0  0  0  0  0  0  0  0  0
  -28.0714  -35.4526   22.2441 C   0  0  0  0  0  0  0  0  0  0  0  0
  -23.1736   -9.6968   20.0010 C   0  0  0  0  0  0  0  0  0  0  0  0
  -23.8172   -9.9113   22.3198 C   0  0  0  0  0  0  0  0  0  0  0  0
  -25.9486  -35.8943   23.2997 C   0  0  0  0  0  0  0  0  0  0  0  0
  -27.8841  -34.0857   22.4459 C   0  0  0  0  0  0  0  0  0  0  0  0
  -29.3332  -27.7480   19.4374 C   0  0  0  0  0  0  0  0  0  0  0  0
  -22.4810   -8.5240   20.3017 C   0  0  0  0  0  0  0  0  0  0  0  0
  -23.1245   -8.7385   22.6205 C   0  0  0  0  0  0  0  0  0  0  0  0
  -29.9014  -26.5133   19.7477 C   0  0  0  0  0  0  0  0  0  0  0  0
  -23.6201   -5.4071   22.3253 C   0  0  0  0  0  0  0  0  0  0  0  0
  -24.2532   -4.4726   23.1447 C   0  0  0  0  0  0  0  0  0  0  0  0
  -27.8295  -25.8242   20.7733 C   0  0  0  0  0  0  0  0  0  0  0  0
  -22.4622   -4.6707   24.7542 C   0  0  0  0  0  0  0  0  0  0  0  0
  -29.2968  -18.1010   22.4892 C   0  0  0  0  0  0  0  0  0  0  0  0
  -23.8417  -10.3905   21.0101 C   0  0  0  0  0  0  0  0  0  0  0  0
  -24.0535  -12.9159   20.7186 C   0  0  0  0  0  0  0  0  0  0  0  0
  -25.7426  -34.5203   23.5007 C   0  0  0  0  0  0  0  0  0  0  0  0
  -28.0101  -28.0347   19.8031 C   0  0  0  0  0  0  0  0  0  0  0  0
  -26.7253  -33.6046   23.0788 C   0  0  0  0  0  0  0  0  0  0  0  0
  -27.2460  -27.0624   20.4642 C   0  0  0  0  0  0  0  0  0  0  0  0
  -22.4564   -8.0449   21.6114 C   0  0  0  0  0  0  0  0  0  0  0  0
  -29.1505  -25.5522   20.4182 C   0  0  0  0  0  0  0  0  0  0  0  0
  -22.4081   -5.9735   22.7203 C   0  0  0  0  0  0  0  0  0  0  0  0
  -23.6742   -4.1044   24.3591 C   0  0  0  0  0  0  0  0  0  0  0  0
  -21.8292   -5.6053   23.9347 C   0  0  0  0  0  0  0  0  0  0  0  0
  -24.5578  -11.6017   20.7000 C   0  0  0  0  0  0  0  0  0  0  0  0
  -30.8284  -19.7991   22.5063 C   0  0  0  0  0  0  0  0  0  0  0  0
  -30.1746  -17.3165   21.7741 C   0  0  0  0  0  0  0  0  0  0  0  0
  -31.7065  -19.0144   21.7918 C   0  0  0  0  0  0  0  0  0  0  0  0
  -25.1206  -13.6985   20.3509 C   0  0  0  0  0  0  0  0  0  0  0  0
  -22.7380  -13.3871   21.0396 C   0  0  0  0  0  0  0  0  0  0  0  0
  -31.1406  -21.1772   22.9351 C   0  0  0  0  0  0  0  0  0  0  0  0
  -26.6190  -30.1828   21.6883 C   0  0  0  0  0  0  0  0  0  0  0  0
  -23.8938  -28.9038   20.4803 C   0  0  0  0  0  0  0  0  0  0  0  0
  -22.3412  -26.2318   19.0323 C   0  0  0  0  0  0  0  0  0  0  0  0
  -30.5076  -15.0638   20.6967 C   0  0  0  0  0  0  0  0  0  0  0  0
  -24.4994  -34.0713   24.2270 C   0  0  0  0  0  0  0  0  0  0  0  0
  -27.4032  -29.3615   19.4375 C   0  0  0  0  0  0  0  0  0  0  0  0
  -25.8148  -27.3132   20.8608 C   0  0  0  0  0  0  0  0  0  0  0  0
  -24.2048  -32.5820   24.0668 C   0  0  0  0  0  0  0  0  0  0  0  0
  -29.6430  -12.4270   18.4659 C   0  0  0  0  0  0  0  0  0  0  0  0
  -25.4703  -31.7604   24.2910 C   0  0  0  0  0  0  0  0  0  0  0  0
  -28.2015  -12.0853   18.8497 C   0  0  0  0  0  0  0  0  0  0  0  0
  -30.4837  -12.7930   19.6877 C   0  0  0  0  0  0  0  0  0  0  0  0
  -28.4745  -13.5047   20.9229 C   0  0  0  0  0  0  0  0  0  0  0  0
  -26.5470  -32.1125   23.2575 C   0  0  1  0  0  0  0  0  0  0  0  0
  -26.2113  -29.7350   20.3132 C   0  0  1  0  0  0  0  0  0  0  0  0
  -27.5720  -13.1923   19.7180 C   0  0  2  0  0  0  0  0  0  0  0  0
  -20.1009  -25.4707   18.1961 C   0  0  0  0  0  0  0  0  0  0  0  0
  -29.0688  -23.1635   24.8600 C   0  0  0  0  0  0  0  0  0  0  0  0
  -29.4377  -25.5101   24.0932 C   0  0  0  0  0  0  0  0  0  0  0  0
  -32.0429  -23.7860   20.7860 C   0  0  0  0  0  0  0  0  0  0  0  0
  -22.9692  -28.4737   23.3561 C   0  0  0  0  0  0  0  0  0  0  0  0
  -21.2300  -26.8962   22.4873 C   0  0  0  0  0  0  0  0  0  0  0  0
  -21.1912  -29.2939   21.8003 C   0  0  0  0  0  0  0  0  0  0  0  0
  -23.3598  -25.8809   16.2758 C   0  0  0  0  0  0  0  0  0  0  0  0
  -22.9806  -27.7675   20.8727 C   0  0  1  0  0  0  0  0  0  0  0  0
  -21.4203  -26.1321   17.8295 C   0  0  2  0  0  0  0  0  0  0  0  0
  -29.3175  -24.0542   23.6352 C   0  0  0  0  0  0  0  0  0  0  0  0
  -30.5656  -23.5772   22.8557 C   0  0  2  0  0  0  0  0  0  0  0  0
  -30.8579  -24.3542   21.5609 C   0  0  2  0  0  0  0  0  0  1  0  0
  -22.1203  -28.1035   22.1235 C   0  0  0  0  0  0  0  0  0  0  0  0
  -29.6079  -19.3565   22.8682 N   0  0  0  0  0  0  0  0  0  0  0  0
  -25.8452  -11.5484   20.3481 N   0  0  0  0  0  0  0  0  0  0  0  0
  -31.3953  -17.7591   21.4126 N   0  0  0  0  0  0  0  0  0  0  0  0
  -26.1588  -12.8389   20.1422 N   0  0  0  0  0  0  0  0  0  0  0  0
  -25.2685  -28.6281   20.4867 N   0  0  0  0  0  0  0  0  0  0  0  0
  -29.8275  -13.8505   20.4597 N   0  0  0  0  0  0  0  0  0  0  0  0
  -32.9719  -19.5387   21.4441 N   0  0  0  0  0  0  0  0  0  0  0  0
  -25.2629  -15.0311   20.1889 N   0  0  0  0  0  0  0  0  0  0  0  0
  -21.7606  -12.4483   21.3969 N   0  0  0  0  0  0  0  0  0  0  0  0
  -32.1904  -21.3634   23.7353 N   0  0  0  0  0  0  0  0  0  0  0  0
  -29.7718  -16.0066   21.4138 N   0  0  0  0  0  0  0  0  0  0  0  0
  -26.2547  -31.4816   21.9882 N   0  0  0  0  0  0  0  0  0  0  0  0
  -22.2026  -27.4396   19.6829 N   0  0  0  0  0  0  0  0  0  0  0  0
  -30.3540  -22.1622   22.5005 N   0  3  0  0  0  0  0  0  0  0  0  0
  -22.0635  -25.3313   16.7497 N   0  3  0  0  0  0  0  0  0  0  0  0
  -22.4336  -14.6032   20.9946 O   0  0  0  0  0  0  0  0  0  0  0  0
  -27.2185  -29.4069   22.4234 O   0  0  0  0  0  0  0  0  0  0  0  0
  -23.4050  -29.9937   20.1722 O   0  0  0  0  0  0  0  0  0  0  0  0
  -23.1042  -25.3272   19.3638 O   0  0  0  0  0  0  0  0  0  0  0  0
  -31.6479  -15.2626   20.2699 O   0  0  0  0  0  0  0  0  0  0  0  0
  -21.7805   -6.9006   21.9053 O   0  0  0  0  0  0  0  0  0  0  0  0
  -29.7029  -24.3464   20.7228 O   0  0  0  0  0  0  0  0  0  1  0  0
  -24.2815   -3.2058   25.1453 F   0  0  0  0  0  0  0  0  0  0  0  0
  -20.6644   -6.1451   24.3190 F   0  0  0  0  0  0  0  0  0  0  0  0
  1  2  1  0  0  0  0
  1  5  2  0  0  0  0
  2  6  2  0  0  0  0
  3  8  2  0  0  0  0
  3 16  1  0  0  0  0
  4  9  1  0  0  0  0
  4 16  2  0  0  0  0
  5 18  1  0  0  0  0
  6 20  1  0  0  0  0
  7 10  2  0  0  0  0
  7 19  1  0  0  0  0
  8 22  1  0  0  0  0
  9 22  2  0  0  0  0
 10 23  1  0  0  0  0
 11 12  2  0  0  0  0
 11 24  1  0  0  0  0
 12 25  1  0  0  0  0
 13 21  1  0  0  0  0
 13 23  2  0  0  0  0
 14 25  2  0  0  0  0
 14 26  1  0  0  0  0
 15 29  1  0  0  0  0
 15 64  2  0  0  0  0
 16 27  1  0  0  0  0
 17 27  1  0  0  0  0
 17 31  2  0  0  0  0
 17 32  1  0  0  0  0
 18 20  2  0  0  0  0
 18 38  1  0  0  0  0
 19 21  2  0  0  0  0
 19 39  1  0  0  0  0
 20 47  1  0  0  0  0
 21 40  1  0  0  0  0
 22 84  1  0  0  0  0
 23 85  1  0  0  0  0
 24 26  2  0  0  0  0
 24 84  1  0  0  0  0
 25 86  1  0  0  0  0
 26 87  1  0  0  0  0
 27 65  2  0  0  0  0
 28 30  2  0  0  0  0
 28 33  1  0  0  0  0
 28 64  1  0  0  0  0
 29 66  2  0  0  0  0
 29 74  1  0  0  0  0
 30 66  1  0  0  0  0
 30 70  1  0  0  0  0
 31 67  1  0  0  0  0
 31 71  1  0  0  0  0
 32 72  1  0  0  0  0
 32 79  2  0  0  0  0
 33 73  1  0  0  0  0
 33 77  2  0  0  0  0
 34 48  1  0  0  0  0
 34 75  1  0  0  0  0
 34 80  2  0  0  0  0
 35 58  1  0  0  0  0
 35 68  1  0  0  0  0
 35 81  2  0  0  0  0
 36 59  1  0  0  0  0
 36 76  1  0  0  0  0
 36 82  2  0  0  0  0
 37 69  1  0  0  0  0
 37 74  1  0  0  0  0
 37 83  2  0  0  0  0
 38 41  1  0  0  0  0
 39 48  1  0  0  0  0
 40 68  1  0  0  0  0
 41 43  1  0  0  0  0
 42 44  1  0  0  0  0
 42 45  1  0  0  0  0
 43 47  1  0  0  0  0
 44 49  1  0  0  0  0
 45 69  1  0  0  0  0
 46 49  1  0  0  0  0
 46 69  1  0  0  0  0
 47 75  1  0  0  0  0
 48 68  1  0  0  0  0
 49 67  1  0  0  0  0
 50 59  1  0  0  0  0
 51 60  1  0  0  0  0
 52 60  1  0  0  0  0
 53 62  1  0  0  0  0
 54 63  1  0  0  0  0
 55 63  1  0  0  0  0
 56 63  1  0  0  0  0
 57 78  1  0  0  0  0
 58 63  1  0  0  0  0
 58 76  1  0  0  0  0
 59 78  1  0  0  0  0
 60 61  1  0  0  0  0
 61 62  1  0  0  0  0
 61 77  1  0  0  0  0
 62 85  1  0  0  0  0
 65 67  1  0  0  0  0
M  CHG  2  77   1  78   1
M  ISO  4  37 100  62 101  74 100  85 101
M  END
> <Batch ID>
0189

> <Smiles>
CNC(C)C(=O)NC(C(=O)N1Cc2cc([101O:1][101CH:1](C)C(NC(=N)c3ncc([100NH:0][100C:0](=O)N4CCCC(n5nc(-c6ccc(Oc7ccc(F)cc7F)cc6)c(C(N)=O)c5N)C4)nc3N)C(C)C)ccc2CC1C(=O)NC1CCCc2ccccc21)C(C)(C)C

> <Shape>
0.358

> <Color>
0.179

> <Negative vol penalty>
0.000

$$$$

  -OEChem-04052305183D

 86 94  0     1  0  0  0  0  0999 V2000
  -27.7802  -37.3449   26.9551 C   0  0  0  0  0  0  0  0  0  0  0  0
  -28.3379  -36.8177   25.7948 C   0  0  0  0  0  0  0  0  0  0  0  0
  -24.5412   -9.2906   22.0325 C   0  0  0  0  0  0  0  0  0  0  0  0
  -24.3028   -8.7294   19.6947 C   0  0  0  0  0  0  0  0  0  0  0  0
  -26.7749  -36.6473   27.6234 C   0  0  0  0  0  0  0  0  0  0  0  0
  -27.8913  -35.5918   25.3026 C   0  0  0  0  0  0  0  0  0  0  0  0
  -26.8501  -32.0960   19.1373 C   0  0  0  0  0  0  0  0  0  0  0  0
  -23.3701   -8.5897   22.3202 C   0  0  0  0  0  0  0  0  0  0  0  0
  -23.1317   -8.0284   19.9824 C   0  0  0  0  0  0  0  0  0  0  0  0
  -27.1672  -30.8884   18.5170 C   0  0  0  0  0  0  0  0  0  0  0  0
  -22.4320   -5.3667   22.7265 C   0  0  0  0  0  0  0  0  0  0  0  0
  -22.4410   -4.5149   23.8310 C   0  0  0  0  0  0  0  0  0  0  0  0
  -25.3699  -29.8100   19.7111 C   0  0  0  0  0  0  0  0  0  0  0  0
  -29.3676  -22.2621   21.1105 C   0  0  0  0  0  0  0  0  0  0  0  0
  -20.6477   -5.7898   24.8288 C   0  0  0  0  0  0  0  0  0  0  0  0
  -25.0076   -9.3605   20.7197 C   0  0  0  0  0  0  0  0  0  0  0  0
  -27.5303   -9.5780   20.4094 C   0  0  0  0  0  0  0  0  0  0  0  0
  -26.3090  -35.4169   27.1338 C   0  0  0  0  0  0  0  0  0  0  0  0
  -25.7956  -32.1675   20.0589 C   0  0  0  0  0  0  0  0  0  0  0  0
  -26.8798  -34.8764   25.9657 C   0  0  0  0  0  0  0  0  0  0  0  0
  -25.0397  -31.0203   20.3398 C   0  0  0  0  0  0  0  0  0  0  0  0
  -29.0349  -21.0485   21.7788 C   0  0  0  0  0  0  0  0  0  0  0  0
  -22.6653   -7.9586   21.2951 C   0  0  0  0  0  0  0  0  0  0  0  0
  -26.4290  -29.7445   18.8061 C   0  0  0  0  0  0  0  0  0  0  0  0
  -21.5309   -6.4301   22.6731 C   0  0  0  0  0  0  0  0  0  0  0  0
  -21.5489   -4.7264   24.8822 C   0  0  0  0  0  0  0  0  0  0  0  0
  -20.6387   -6.6416   23.7243 C   0  0  0  0  0  0  0  0  0  0  0  0
  -26.2170  -10.0848   20.4218 C   0  0  0  0  0  0  0  0  0  0  0  0
  -28.7721  -20.0259   20.8941 C   0  0  0  0  0  0  0  0  0  0  0  0
  -28.3111  -10.6558   20.0702 C   0  0  0  0  0  0  0  0  0  0  0  0
  -29.3467  -22.1207   19.7403 C   0  0  0  0  0  0  0  0  0  0  0  0
  -28.4114  -18.6865   21.1625 C   0  0  0  0  0  0  0  0  0  0  0  0
  -27.6507  -17.8620   20.3679 C   0  0  0  0  0  0  0  0  0  0  0  0
  -28.0022   -8.2515   20.6802 C   0  0  0  0  0  0  0  0  0  0  0  0
  -27.3671  -16.4740   20.7847 C   0  0  0  0  0  0  0  0  0  0  0  0
  -25.5595  -32.8865   23.1461 C   0  0  0  0  0  0  0  0  0  0  0  0
  -22.3787  -32.6364   22.5614 C   0  0  0  0  0  0  0  0  0  0  0  0
  -29.9639  -24.3935   18.8469 C   0  0  0  0  0  0  0  0  0  0  0  0
  -19.8812  -31.3443   20.6274 C   0  0  0  0  0  0  0  0  0  0  0  0
  -25.2535  -34.6769   27.9167 C   0  0  0  0  0  0  0  0  0  0  0  0
  -25.4492  -33.4837   20.6992 C   0  0  0  0  0  0  0  0  0  0  0  0
  -23.8851  -31.0485   21.3064 C   0  0  0  0  0  0  0  0  0  0  0  0
  -24.5749  -33.5636   27.1228 C   0  0  0  0  0  0  0  0  0  0  0  0
  -28.1922  -14.7645   17.6496 C   0  0  0  0  0  0  0  0  0  0  0  0
  -25.6143  -32.7175   26.3943 C   0  0  0  0  0  0  0  0  0  0  0  0
  -27.8480  -13.3202   18.0033 C   0  0  0  0  0  0  0  0  0  0  0  0
  -27.2580  -15.7595   18.3364 C   0  0  0  0  0  0  0  0  0  0  0  0
  -26.8466  -14.1449   20.1706 C   0  0  0  0  0  0  0  0  0  0  0  0
  -26.4047  -33.5613   25.3869 C   0  0  1  0  0  0  0  0  0  0  0  0
  -24.6823  -33.3275   22.0088 C   0  0  1  0  0  0  0  0  0  0  0  0
  -27.8035  -13.1289   19.5276 C   0  0  1  0  0  0  0  0  0  0  0  0
  -28.9837  -20.9231   23.2566 C   0  0  0  0  0  0  0  0  0  0  0  0
  -31.6004  -24.8250   17.0246 C   0  0  0  0  0  0  0  0  0  0  0  0
  -17.3811  -31.2854   20.4192 C   0  0  0  0  0  0  0  0  0  0  0  0
  -22.2342  -30.6624   24.8835 C   0  0  0  0  0  0  0  0  0  0  0  0
  -19.9925  -29.9373   24.0365 C   0  0  0  0  0  0  0  0  0  0  0  0
  -20.3405  -32.2926   24.7808 C   0  0  0  0  0  0  0  0  0  0  0  0
  -19.9583  -32.6083   17.9525 C   0  0  0  0  0  0  0  0  0  0  0  0
  -28.3989  -26.8627   17.8828 C   0  0  0  0  0  0  0  0  0  0  0  0
  -29.8571  -26.5700   17.5205 C   0  0  0  0  0  0  0  0  0  0  0  0
  -28.1018  -28.3556   17.8424 C   0  0  0  0  0  0  0  0  0  1  0  0
  -21.3684  -31.5155   22.6056 C   0  0  1  0  0  0  0  0  0  0  0  0
  -30.1590  -25.0622   17.4807 C   0  0  2  0  0  0  0  0  0  0  0  0
  -18.6610  -31.9889   19.9951 C   0  0  2  0  0  0  0  0  0  0  0  0
  -21.0068  -31.1006   24.0598 C   0  0  0  0  0  0  0  0  0  0  0  0
  -26.1626  -11.3837   20.1151 N   0  0  0  0  0  0  0  0  0  0  0  0
  -27.4515  -11.7021   19.9068 N   0  0  0  0  0  0  0  0  0  0  0  0
  -27.1870  -15.5191   19.7855 N   0  0  0  0  0  0  0  0  0  0  0  0
  -23.5894  -32.3577   21.9116 N   0  0  0  0  0  0  0  0  0  0  0  0
  -29.6422  -10.8012   19.8988 N   0  0  0  0  0  0  0  0  0  0  0  0
  -27.0651   -7.2640   21.0136 N   0  0  0  0  0  0  0  0  0  0  0  0
  -29.6084  -23.0546   18.7096 N   0  0  0  0  0  0  0  0  0  0  0  0
  -25.6204  -33.7877   24.1918 N   0  0  0  0  0  0  0  0  0  0  0  0
  -20.2293  -31.9610   21.8106 N   0  0  0  0  0  0  0  0  0  0  0  0
  -18.7575  -31.9335   18.5089 N   0  3  0  0  0  0  0  0  0  0  0  0
  -29.2204   -7.9546   20.6441 O   0  0  0  0  0  0  0  0  0  0  0  0
  -27.3022  -16.2454   21.9939 O   0  0  0  0  0  0  0  0  0  0  0  0
  -26.1372  -31.8077   23.0804 O   0  0  0  0  0  0  0  0  0  0  0  0
  -22.1009  -33.7216   23.0779 O   0  0  0  0  0  0  0  0  0  0  0  0
  -30.1389  -25.0081   19.8950 O   0  0  0  0  0  0  0  0  0  0  0  0
  -20.4649  -30.3869   20.1242 O   0  0  0  0  0  0  0  0  0  0  0  0
  -21.5226   -7.2744   21.5755 O   0  0  0  0  0  0  0  0  0  0  0  0
  -26.7368  -28.5643   18.2026 O   0  0  0  0  0  0  0  0  0  1  0  0
  -21.5566   -3.9075   25.9421 F   0  0  0  0  0  0  0  0  0  0  0  0
  -19.7698   -7.6608   23.6781 F   0  0  0  0  0  0  0  0  0  0  0  0
  -28.9269  -20.5300   19.2649 S   0  0  0  0  0  0  0  0  0  0  0  0
  1  2  1  0  0  0  0
  1  5  2  0  0  0  0
  2  6  2  0  0  0  0
  3  8  2  0  0  0  0
  3 16  1  0  0  0  0
  4  9  1  0  0  0  0
  4 16  2  0  0  0  0
  5 18  1  0  0  0  0
  6 20  1  0  0  0  0
  7 10  2  0  0  0  0
  7 19  1  0  0  0  0
  8 23  1  0  0  0  0
  9 23  2  0  0  0  0
 10 24  1  0  0  0  0
 11 12  2  0  0  0  0
 11 25  1  0  0  0  0
 12 26  1  0  0  0  0
 13 21  1  0  0  0  0
 13 24  2  0  0  0  0
 14 22  1  0  0  0  0
 14 31  2  0  0  0  0
 15 26  2  0  0  0  0
 15 27  1  0  0  0  0
 16 28  1  0  0  0  0
 17 28  1  0  0  0  0
 17 30  2  0  0  0  0
 17 34  1  0  0  0  0
 18 20  2  0  0  0  0
 18 40  1  0  0  0  0
 19 21  2  0  0  0  0
 19 41  1  0  0  0  0
 20 49  1  0  0  0  0
 21 42  1  0  0  0  0
 22 29  2  0  0  0  0
 22 52  1  0  0  0  0
 23 82  1  0  0  0  0
 24 83  1  0  0  0  0
 25 27  2  0  0  0  0
 25 82  1  0  0  0  0
 26 84  1  0  0  0  0
 27 85  1  0  0  0  0
 28 66  2  0  0  0  0
 29 32  1  0  0  0  0
 29 86  1  0  0  0  0
 30 67  1  0  0  0  0
 30 70  1  0  0  0  0
 31 72  1  0  0  0  0
 31 86  1  0  0  0  0
 32 33  2  0  0  0  0
 33 35  1  0  0  0  0
 34 71  1  0  0  0  0
 34 76  2  0  0  0  0
 35 68  1  0  0  0  0
 35 77  2  0  0  0  0
 36 50  1  0  0  0  0
 36 73  1  0  0  0  0
 36 78  2  0  0  0  0
 37 62  1  0  0  0  0
 37 69  1  0  0  0  0
 37 79  2  0  0  0  0
 38 63  1  0  0  0  0
 38 72  1  0  0  0  0
 38 80  2  0  0  0  0
 39 64  1  0  0  0  0
 39 74  1  0  0  0  0
 39 81  2  0  0  0  0
 40 43  1  0  0  0  0
 41 50  1  0  0  0  0
 42 69  1  0  0  0  0
 43 45  1  0  0  0  0
 44 46  1  0  0  0  0
 44 47  1  0  0  0  0
 45 49  1  0  0  0  0
 46 51  1  0  0  0  0
 47 68  1  0  0  0  0
 48 51  1  0  0  0  0
 48 68  1  0  0  0  0
 49 73  1  0  0  0  0
 50 69  1  0  0  0  0
 51 67  1  0  0  0  0
 53 63  1  0  0  0  0
 54 64  1  0  0  0  0
 55 65  1  0  0  0  0
 56 65  1  0  0  0  0
 57 65  1  0  0  0  0
 58 75  1  0  0  0  0
 59 60  1  0  0  0  0
 59 61  1  0  0  0  0
 60 63  1  0  0  0  0
 61 83  1  0  0  0  0
 62 65  1  0  0  0  0
 62 74  1  0  0  0  0
 64 75  1  0  0  0  0
 66 67  1  0  0  0  0
M  CHG  1  75   1
M  ISO  4  33 100  35 100  61 101  83 101
M  END
> <Batch ID>
0189

> <Smiles>
CNC(C)C(=O)NC(C(=O)N1Cc2cc([101O:1][101CH2:1]CCC(C)C(=O)Nc3cc(C)c(C=[100CH:0][100C:0](=O)N4CCCC(n5nc(-c6ccc(Oc7ccc(F)cc7F)cc6)c(C(N)=O)c5N)C4)s3)ccc2CC1C(=O)NC1CCCc2ccccc21)C(C)(C)C

> <Shape>
0.263

> <Color>
0.084

> <Negative vol penalty>
0.000

$$$$

  -OEChem-04052305183D

 85 93  0     1  0  0  0  0  0999 V2000
  -27.5921  -28.4576   16.8130 C   0  0  0  0  0  0  0  0  0  0  0  0
  -27.5382  -27.0683   16.8622 C   0  0  0  0  0  0  0  0  0  0  0  0
  -31.0285  -21.2388   20.4228 C   0  0  0  0  0  0  0  0  0  0  0  0
  -29.1839  -20.8609   18.9090 C   0  0  0  0  0  0  0  0  0  0  0  0
  -27.1209  -29.2109   17.8875 C   0  0  0  0  0  0  0  0  0  0  0  0
  -27.0139  -26.4315   17.9865 C   0  0  0  0  0  0  0  0  0  0  0  0
  -23.3374  -20.5833   19.8836 C   0  0  0  0  0  0  0  0  0  0  0  0
  -31.2257  -22.5028   19.8671 C   0  0  0  0  0  0  0  0  0  0  0  0
  -29.3810  -22.1250   18.3533 C   0  0  0  0  0  0  0  0  0  0  0  0
  -23.4055  -19.5083   20.7688 C   0  0  0  0  0  0  0  0  0  0  0  0
  -31.9850  -25.9722   19.0913 C   0  0  0  0  0  0  0  0  0  0  0  0
  -32.1946  -27.0392   19.9649 C   0  0  0  0  0  0  0  0  0  0  0  0
  -22.5479  -20.9137   22.5320 C   0  0  0  0  0  0  0  0  0  0  0  0
  -30.0348  -26.6397   20.9711 C   0  0  0  0  0  0  0  0  0  0  0  0
  -25.0884  -10.9057   19.4439 C   0  0  0  0  0  0  0  0  0  0  0  0
  -30.0077  -20.4178   19.9437 C   0  0  0  0  0  0  0  0  0  0  0  0
  -28.9767  -18.7814   21.6072 C   0  0  0  0  0  0  0  0  0  0  0  0
  -26.5817  -28.5831   19.0214 C   0  0  0  0  0  0  0  0  0  0  0  0
  -22.8836  -21.8365   20.3194 C   0  0  0  0  0  0  0  0  0  0  0  0
  -26.5362  -27.1770   19.0777 C   0  0  0  0  0  0  0  0  0  0  0  0
  -22.4726  -22.0023   21.6497 C   0  0  0  0  0  0  0  0  0  0  0  0
  -30.4019  -22.9460   18.8324 C   0  0  0  0  0  0  0  0  0  0  0  0
  -23.0134  -19.6742   22.0939 C   0  0  0  0  0  0  0  0  0  0  0  0
  -30.8002  -25.2390   19.1575 C   0  0  0  0  0  0  0  0  0  0  0  0
  -31.2196  -27.3729   20.9048 C   0  0  0  0  0  0  0  0  0  0  0  0
  -29.8251  -25.5727   20.0975 C   0  0  0  0  0  0  0  0  0  0  0  0
  -29.8039  -19.1117   20.5170 C   0  0  0  0  0  0  0  0  0  0  0  0
  -25.9478  -11.5095   20.3377 C   0  0  0  0  0  0  0  0  0  0  0  0
  -29.1308  -17.4248   21.7566 C   0  0  0  0  0  0  0  0  0  0  0  0
  -24.0942  -12.5233   20.9263 C   0  0  0  0  0  0  0  0  0  0  0  0
  -28.1433  -19.6254   22.4127 C   0  0  0  0  0  0  0  0  0  0  0  0
  -24.1617  -24.7401   20.5184 C   0  0  0  0  0  0  0  0  0  0  0  0
  -21.1504  -25.5813   21.3829 C   0  0  0  0  0  0  0  0  0  0  0  0
  -23.3438  -14.2529   22.5966 C   0  0  0  0  0  0  0  0  0  0  0  0
  -18.1439  -24.6415   22.6960 C   0  0  0  0  0  0  0  0  0  0  0  0
  -29.4692  -12.2964   19.5816 C   0  0  0  0  0  0  0  0  0  0  0  0
  -26.1282  -29.4384   20.1779 C   0  0  0  0  0  0  0  0  0  0  0  0
  -22.7908  -22.9791   19.3455 C   0  0  0  0  0  0  0  0  0  0  0  0
  -21.9588  -23.3220   22.1624 C   0  0  0  0  0  0  0  0  0  0  0  0
  -25.2433  -28.6949   21.1751 C   0  0  0  0  0  0  0  0  0  0  0  0
  -32.4526  -14.2381   19.6595 C   0  0  0  0  0  0  0  0  0  0  0  0
  -25.8480  -27.3367   21.5163 C   0  0  0  0  0  0  0  0  0  0  0  0
  -31.9606  -15.6522   19.9731 C   0  0  0  0  0  0  0  0  0  0  0  0
  -31.4769  -13.4888   18.7547 C   0  0  0  0  0  0  0  0  0  0  0  0
  -29.5940  -14.8616   19.5570 C   0  0  0  0  0  0  0  0  0  0  0  0
  -25.9518  -26.4501   20.2694 C   0  0  1  0  0  0  0  0  0  0  0  0
  -22.7986  -24.3452   20.0246 C   0  0  1  0  0  0  0  0  0  0  0  0
  -30.5175  -15.6371   20.5121 C   0  0  2  0  0  0  0  0  0  0  0  0
  -27.8124  -10.7132   21.8380 C   0  0  0  0  0  0  0  0  0  0  0  0
  -21.2655  -14.1433   24.0328 C   0  0  0  0  0  0  0  0  0  0  0  0
  -15.8908  -25.5582   23.3131 C   0  0  0  0  0  0  0  0  0  0  0  0
  -22.3590  -26.8707   23.8702 C   0  0  0  0  0  0  0  0  0  0  0  0
  -20.0671  -26.9126   24.8770 C   0  0  0  0  0  0  0  0  0  0  0  0
  -20.5343  -28.1965   22.7898 C   0  0  0  0  0  0  0  0  0  0  0  0
  -16.7625  -22.8425   20.7949 C   0  0  0  0  0  0  0  0  0  0  0  0
  -22.3066  -16.3987   23.4725 C   0  0  0  0  0  0  0  0  0  0  0  0
  -22.9065  -17.3200   22.4135 C   0  0  0  0  0  0  0  0  0  1  0  0
  -27.3960  -11.2468   20.4530 C   0  0  2  0  0  0  0  0  0  0  0  0
  -20.3997  -25.6738   22.6894 C   0  0  1  0  0  0  0  0  0  0  0  0
  -22.0427  -14.9588   22.9997 C   0  0  1  0  0  0  0  0  0  0  0  0
  -16.7202  -24.8866   22.2296 C   0  0  2  0  0  0  0  0  0  0  0  0
  -20.8515  -26.8889   23.5477 C   0  0  0  0  0  0  0  0  0  0  0  0
  -30.4368  -18.0504   20.0099 N   0  0  0  0  0  0  0  0  0  0  0  0
  -25.3796  -12.4376   21.1883 N   0  0  0  0  0  0  0  0  0  0  0  0
  -30.0072  -17.0400   20.7849 N   0  0  0  0  0  0  0  0  0  0  0  0
  -21.8928  -24.4105   21.1733 N   0  0  0  0  0  0  0  0  0  0  0  0
  -30.1271  -13.5103   19.3235 N   0  0  0  0  0  0  0  0  0  0  0  0
  -28.6010  -16.5355   22.6231 N   0  0  0  0  0  0  0  0  0  0  0  0
  -28.1016  -20.9960   22.1226 N   0  0  0  0  0  0  0  0  0  0  0  0
  -23.1350  -13.3497   21.5584 N   0  0  0  0  0  0  0  0  0  0  0  0
  -24.6587  -25.8912   19.9377 N   0  0  0  0  0  0  0  0  0  0  0  0
  -18.9818  -25.6791   22.3459 N   0  0  0  0  0  0  0  0  0  0  0  0
  -28.1958  -12.4064   20.1266 N   0  0  0  0  0  0  0  0  0  0  0  0
  -16.0649  -23.5982   21.8669 N   0  3  0  0  0  0  0  0  0  0  0  0
  -27.4687  -19.1801   23.3719 O   0  0  0  0  0  0  0  0  0  0  0  0
  -24.7203  -24.0522   21.3648 O   0  0  0  0  0  0  0  0  0  0  0  0
  -21.0750  -26.5104   20.5750 O   0  0  0  0  0  0  0  0  0  0  0  0
  -24.4077  -14.4992   23.1578 O   0  0  0  0  0  0  0  0  0  0  0  0
  -18.4784  -23.6324   23.3127 O   0  0  0  0  0  0  0  0  0  0  0  0
  -29.9810  -11.1960   19.3488 O   0  0  0  0  0  0  0  0  0  0  0  0
  -30.5938  -24.1795   18.2900 O   0  0  0  0  0  0  0  0  0  0  0  0
  -23.0795  -18.6267   22.9601 O   0  0  0  0  0  0  0  0  0  1  0  0
  -31.4217  -28.3966   21.7447 F   0  0  0  0  0  0  0  0  0  0  0  0
  -28.6854  -24.8713   20.1667 F   0  0  0  0  0  0  0  0  0  0  0  0
  -23.5016  -11.5158   19.6698 S   0  0  0  0  0  0  0  0  0  0  0  0
  1  2  1  0  0  0  0
  1  5  2  0  0  0  0
  2  6  2  0  0  0  0
  3  8  2  0  0  0  0
  3 16  1  0  0  0  0
  4  9  1  0  0  0  0
  4 16  2  0  0  0  0
  5 18  1  0  0  0  0
  6 20  1  0  0  0  0
  7 10  2  0  0  0  0
  7 19  1  0  0  0  0
  8 22  1  0  0  0  0
  9 22  2  0  0  0  0
 10 23  1  0  0  0  0
 11 12  2  0  0  0  0
 11 24  1  0  0  0  0
 12 25  1  0  0  0  0
 13 21  1  0  0  0  0
 13 23  2  0  0  0  0
 14 25  2  0  0  0  0
 14 26  1  0  0  0  0
 15 28  2  0  0  0  0
 15 85  1  0  0  0  0
 16 27  1  0  0  0  0
 17 27  1  0  0  0  0
 17 29  2  0  0  0  0
 17 31  1  0  0  0  0
 18 20  2  0  0  0  0
 18 37  1  0  0  0  0
 19 21  2  0  0  0  0
 19 38  1  0  0  0  0
 20 46  1  0  0  0  0
 21 39  1  0  0  0  0
 22 81  1  0  0  0  0
 23 82  1  0  0  0  0
 24 26  2  0  0  0  0
 24 81  1  0  0  0  0
 25 83  1  0  0  0  0
 26 84  1  0  0  0  0
 27 63  2  0  0  0  0
 28 58  1  0  0  0  0
 28 64  1  0  0  0  0
 29 65  1  0  0  0  0
 29 68  1  0  0  0  0
 30 64  2  0  0  0  0
 30 70  1  0  0  0  0
 30 85  1  0  0  0  0
 31 69  1  0  0  0  0
 31 75  2  0  0  0  0
 32 47  1  0  0  0  0
 32 71  1  0  0  0  0
 32 76  2  0  0  0  0
 33 59  1  0  0  0  0
 33 66  1  0  0  0  0
 33 77  2  0  0  0  0
 34 60  1  0  0  0  0
 34 70  1  0  0  0  0
 34 78  2  0  0  0  0
 35 61  1  0  0  0  0
 35 72  1  0  0  0  0
 35 79  2  0  0  0  0
 36 67  1  0  0  0  0
 36 73  1  0  0  0  0
 36 80  2  0  0  0  0
 37 40  1  0  0  0  0
 38 47  1  0  0  0  0
 39 66  1  0  0  0  0
 40 42  1  0  0  0  0
 41 43  1  0  0  0  0
 41 44  1  0  0  0  0
 42 46  1  0  0  0  0
 43 48  1  0  0  0  0
 44 67  1  0  0  0  0
 45 48  1  0  0  0  0
 45 67  1  0  0  0  0
 46 71  1  0  0  0  0
 47 66  1  0  0  0  0
 48 65  1  0  0  0  0
 49 58  1  0  0  0  0
 50 60  1  0  0  0  0
 51 61  1  0  0  0  0
 52 62  1  0  0  0  0
 53 62  1  0  0  0  0
 54 62  1  0  0  0  0
 55 74  1  0  0  0  0
 56 57  1  0  0  0  0
 56 60  1  0  0  0  0
 57 82  1  0  0  0  0
 58 73  1  0  0  0  0
 59 62  1  0  0  0  0
 59 72  1  0  0  0  0
 61 74  1  0  0  0  0
 63 65  1  0  0  0  0
M  CHG  1  74   1
M  ISO  4  36 100  57 101  73 100  82 101
M  END
> <Batch ID>
0189

> <Smiles>
CNC(C)C(=O)NC(C(=O)N1Cc2cc([101O:1][101CH2:1]CC(C)C(=O)Nc3nc(C(C)[100NH:0][100C:0](=O)N4CCCC(n5nc(-c6ccc(Oc7ccc(F)cc7F)cc6)c(C(N)=O)c5N)C4)cs3)ccc2CC1C(=O)NC1CCCc2ccccc21)C(C)(C)C

> <Shape>
0.232

> <Color>
0.049

> <Negative vol penalty>
0.000

$$$$

  -OEChem-04052305183D

 85 93  0     1  0  0  0  0  0999 V2000
  -30.6536  -35.7504   24.2686 C   0  0  0  0  0  0  0  0  0  0  0  0
  -30.7213  -34.6439   23.4280 C   0  0  0  0  0  0  0  0  0  0  0  0
  -24.6997   -7.7973   19.9831 C   0  0  0  0  0  0  0  0  0  0  0  0
  -23.1248   -9.6202   19.7994 C   0  0  0  0  0  0  0  0  0  0  0  0
  -29.7269  -35.7776   25.3100 C   0  0  0  0  0  0  0  0  0  0  0  0
  -29.8630  -33.5635   23.6291 C   0  0  0  0  0  0  0  0  0  0  0  0
  -27.3888  -29.9767   19.3257 C   0  0  0  0  0  0  0  0  0  0  0  0
  -23.7634   -7.0616   20.7094 C   0  0  0  0  0  0  0  0  0  0  0  0
  -22.1885   -8.8845   20.5256 C   0  0  0  0  0  0  0  0  0  0  0  0
  -27.7407  -28.7195   18.8364 C   0  0  0  0  0  0  0  0  0  0  0  0
  -21.0082   -5.2102   20.0658 C   0  0  0  0  0  0  0  0  0  0  0  0
  -20.8327   -3.8689   19.7257 C   0  0  0  0  0  0  0  0  0  0  0  0
  -26.1566  -27.6972   20.3414 C   0  0  0  0  0  0  0  0  0  0  0  0
  -21.4821   -3.2175   21.9598 C   0  0  0  0  0  0  0  0  0  0  0  0
  -25.6442  -19.1666   19.6988 C   0  0  0  0  0  0  0  0  0  0  0  0
  -24.3805   -9.0767   19.5281 C   0  0  0  0  0  0  0  0  0  0  0  0
  -25.5226   -9.8482   17.3815 C   0  0  0  0  0  0  0  0  0  0  0  0
  -28.8503  -34.7011   25.5180 C   0  0  0  0  0  0  0  0  0  0  0  0
  -26.4245  -30.1030   20.3359 C   0  0  0  0  0  0  0  0  0  0  0  0
  -28.9246  -33.5758   24.6751 C   0  0  0  0  0  0  0  0  0  0  0  0
  -25.7925  -28.9573   20.8399 C   0  0  0  0  0  0  0  0  0  0  0  0
  -22.5077   -7.6051   20.9807 C   0  0  0  0  0  0  0  0  0  0  0  0
  -27.1266  -27.5793   19.3463 C   0  0  0  0  0  0  0  0  0  0  0  0
  -21.4207   -5.5552   21.3528 C   0  0  0  0  0  0  0  0  0  0  0  0
  -21.0697   -2.8725   20.6727 C   0  0  0  0  0  0  0  0  0  0  0  0
  -21.6576   -4.5588   22.2998 C   0  0  0  0  0  0  0  0  0  0  0  0
  -25.3475   -9.8375   18.7783 C   0  0  0  0  0  0  0  0  0  0  0  0
  -26.9694  -19.3944   20.0057 C   0  0  0  0  0  0  0  0  0  0  0  0
  -26.5597  -10.7242   17.1723 C   0  0  0  0  0  0  0  0  0  0  0  0
  -27.0133  -17.2021   19.9613 C   0  0  0  0  0  0  0  0  0  0  0  0
  -24.8114   -9.1307   16.3642 C   0  0  0  0  0  0  0  0  0  0  0  0
  -26.4267  -31.2186   23.3123 C   0  0  0  0  0  0  0  0  0  0  0  0
  -23.2347  -30.6810   23.1016 C   0  0  0  0  0  0  0  0  0  0  0  0
  -20.6754  -28.9750   21.6229 C   0  0  0  0  0  0  0  0  0  0  0  0
  -28.6887  -15.3510   20.2971 C   0  0  0  0  0  0  0  0  0  0  0  0
  -27.8976  -34.7560   26.6859 C   0  0  0  0  0  0  0  0  0  0  0  0
  -26.0368  -31.4683   20.8341 C   0  0  0  0  0  0  0  0  0  0  0  0
  -24.7365  -29.0403   21.9106 C   0  0  0  0  0  0  0  0  0  0  0  0
  -26.7699  -33.7306   26.6007 C   0  0  0  0  0  0  0  0  0  0  0  0
  -30.4911  -12.4487   19.2945 C   0  0  0  0  0  0  0  0  0  0  0  0
  -27.3223  -32.3596   26.2240 C   0  0  0  0  0  0  0  0  0  0  0  0
  -29.3926  -11.4528   18.9155 C   0  0  0  0  0  0  0  0  0  0  0  0
  -30.0892  -13.3076   20.4922 C   0  0  0  0  0  0  0  0  0  0  0  0
  -27.6995  -12.9981   19.9795 C   0  0  0  0  0  0  0  0  0  0  0  0
  -27.9937  -32.3950   24.8458 C   0  0  1  0  0  0  0  0  0  0  0  0
  -25.4129  -31.4415   22.2260 C   0  0  1  0  0  0  0  0  0  0  0  0
  -28.0322  -12.1549   18.7377 C   0  0  2  0  0  0  0  0  0  0  0  0
  -18.1795  -28.7228   21.6874 C   0  0  0  0  0  0  0  0  0  0  0  0
  -29.9348  -22.6277   19.2188 C   0  0  0  0  0  0  0  0  0  0  0  0
  -23.4694  -29.0365   25.6610 C   0  0  0  0  0  0  0  0  0  0  0  0
  -21.2222  -28.0559   25.1542 C   0  0  0  0  0  0  0  0  0  0  0  0
  -21.4508  -30.5085   25.5482 C   0  0  0  0  0  0  0  0  0  0  0  0
  -25.5582  -23.2628   17.8304 C   0  0  0  0  0  0  0  0  0  0  0  0
  -26.5653  -25.0359   16.3959 C   0  0  0  0  0  0  0  0  0  0  0  0
  -20.3967  -29.8652   18.8142 C   0  0  0  0  0  0  0  0  0  0  0  0
  -27.6086  -20.7399   20.1847 C   0  0  0  0  0  0  0  0  0  0  0  0
  -28.0977  -23.6695   17.8233 C   0  0  0  0  0  0  0  0  0  0  0  0
  -26.4584  -25.3432   18.8887 C   0  0  0  0  0  0  0  0  0  1  0  0
  -22.3257  -29.5121   23.3956 C   0  0  1  0  0  0  0  0  0  0  0  0
  -19.3531  -29.4452   21.0443 C   0  0  2  0  0  0  0  0  0  0  0  0
  -28.4286  -22.8123   19.0572 C   0  0  1  0  0  0  0  0  0  0  0  0
  -22.1383  -29.2762   24.9209 C   0  0  0  0  0  0  0  0  0  0  0  0
  -26.6779  -24.3121   17.7574 C   0  0  0  0  0  0  0  0  0  0  0  0
  -26.2047  -10.6425   19.4117 N   0  0  0  0  0  0  0  0  0  0  0  0
  -27.7559  -18.2691   20.1570 N   0  0  0  0  0  0  0  0  0  0  0  0
  -26.9285  -11.1673   18.4083 N   0  0  0  0  0  0  0  0  0  0  0  0
  -24.3965  -30.3972   22.3697 N   0  0  0  0  0  0  0  0  0  0  0  0
  -28.7928  -13.9447   20.2505 N   0  0  0  0  0  0  0  0  0  0  0  0
  -27.1829  -11.1508   16.0534 N   0  0  0  0  0  0  0  0  0  0  0  0
  -23.7739   -8.2725   16.7532 N   0  0  0  0  0  0  0  0  0  0  0  0
  -27.4144  -15.8444   20.0189 N   0  0  0  0  0  0  0  0  0  0  0  0
  -26.9963  -32.3804   23.7972 N   0  0  0  0  0  0  0  0  0  0  0  0
  -21.0842  -29.7688   22.6737 N   0  0  0  0  0  0  0  0  0  0  0  0
  -19.3118  -29.1944   19.5759 N   0  3  0  0  0  0  0  0  0  0  0  0
  -27.8385  -21.4499   18.9014 N   0  3  0  0  0  0  0  0  0  0  0  0
  -25.0987   -9.2345   15.1475 O   0  0  0  0  0  0  0  0  0  0  0  0
  -26.6728  -30.0772   23.6841 O   0  0  0  0  0  0  0  0  0  0  0  0
  -22.9218  -31.8056   23.5002 O   0  0  0  0  0  0  0  0  0  0  0  0
  -21.2829  -27.9988   21.1888 O   0  0  0  0  0  0  0  0  0  0  0  0
  -29.6646  -16.0664   20.5373 O   0  0  0  0  0  0  0  0  0  0  0  0
  -21.5937   -6.8873   21.6891 O   0  0  0  0  0  0  0  0  0  0  0  0
  -27.4687  -26.3509   18.8709 O   0  0  0  0  0  0  0  0  0  1  0  0
  -20.8996   -1.5846   20.3464 F   0  0  0  0  0  0  0  0  0  0  0  0
  -22.0530   -4.8842   23.5382 F   0  0  0  0  0  0  0  0  0  0  0  0
  -25.3606  -17.4787   19.5908 S   0  0  0  0  0  0  0  0  0  0  0  0
  1  2  1  0  0  0  0
  1  5  2  0  0  0  0
  2  6  2  0  0  0  0
  3  8  2  0  0  0  0
  3 16  1  0  0  0  0
  4  9  1  0  0  0  0
  4 16  2  0  0  0  0
  5 18  1  0  0  0  0
  6 20  1  0  0  0  0
  7 10  2  0  0  0  0
  7 19  1  0  0  0  0
  8 22  1  0  0  0  0
  9 22  2  0  0  0  0
 10 23  1  0  0  0  0
 11 12  2  0  0  0  0
 11 24  1  0  0  0  0
 12 25  1  0  0  0  0
 13 21  1  0  0  0  0
 13 23  2  0  0  0  0
 14 25  2  0  0  0  0
 14 26  1  0  0  0  0
 15 28  2  0  0  0  0
 15 85  1  0  0  0  0
 16 27  1  0  0  0  0
 17 27  1  0  0  0  0
 17 29  2  0  0  0  0
 17 31  1  0  0  0  0
 18 20  2  0  0  0  0
 18 36  1  0  0  0  0
 19 21  2  0  0  0  0
 19 37  1  0  0  0  0
 20 45  1  0  0  0  0
 21 38  1  0  0  0  0
 22 81  1  0  0  0  0
 23 82  1  0  0  0  0
 24 26  2  0  0  0  0
 24 81  1  0  0  0  0
 25 83  1  0  0  0  0
 26 84  1  0  0  0  0
 27 64  2  0  0  0  0
 28 56  1  0  0  0  0
 28 65  1  0  0  0  0
 29 66  1  0  0  0  0
 29 69  1  0  0  0  0
 30 65  2  0  0  0  0
 30 71  1  0  0  0  0
 30 85  1  0  0  0  0
 31 70  1  0  0  0  0
 31 76  2  0  0  0  0
 32 46  1  0  0  0  0
 32 72  1  0  0  0  0
 32 77  2  0  0  0  0
 33 59  1  0  0  0  0
 33 67  1  0  0  0  0
 33 78  2  0  0  0  0
 34 60  1  0  0  0  0
 34 73  1  0  0  0  0
 34 79  2  0  0  0  0
 35 68  1  0  0  0  0
 35 71  1  0  0  0  0
 35 80  2  0  0  0  0
 36 39  1  0  0  0  0
 37 46  1  0  0  0  0
 38 67  1  0  0  0  0
 39 41  1  0  0  0  0
 40 42  1  0  0  0  0
 40 43  1  0  0  0  0
 41 45  1  0  0  0  0
 42 47  1  0  0  0  0
 43 68  1  0  0  0  0
 44 47  1  0  0  0  0
 44 68  1  0  0  0  0
 45 72  1  0  0  0  0
 46 67  1  0  0  0  0
 47 66  1  0  0  0  0
 48 60  1  0  0  0  0
 49 61  1  0  0  0  0
 50 62  1  0  0  0  0
 51 62  1  0  0  0  0
 52 62  1  0  0  0  0
 53 63  1  0  0  0  0
 54 63  1  0  0  0  0
 55 74  1  0  0  0  0
 56 75  1  0  0  0  0
 57 61  1  0  0  0  0
 57 63  1  0  0  0  0
 58 63  1  0  0  0  0
 58 82  1  0  0  0  0
 59 62  1  0  0  0  0
 59 73  1  0  0  0  0
 60 74  1  0  0  0  0
 61 75  1  0  0  0  0
 64 66  1  0  0  0  0
M  CHG  2  74   1  75   1
M  ISO  4  35 100  58 101  71 100  82 101
M  END
> <Batch ID>
0189

> <Smiles>
CNC(C)C(=O)NC(C(=O)N1Cc2cc([101O:1][101CH2:1]C(C)(C)CC(C)NCc3csc([100NH:0][100C:0](=O)N4CCCC(n5nc(-c6ccc(Oc7ccc(F)cc7F)cc6)c(C(N)=O)c5N)C4)n3)ccc2CC1C(=O)NC1CCCc2ccccc21)C(C)(C)C

> <Shape>
0.261

> <Color>
0.083

> <Negative vol penalty>
0.000

$$$$

  -OEChem-04052305183D

 86 94  0     1  0  0  0  0  0999 V2000
  -25.5056  -36.5605   19.6230 C   0  0  0  0  0  0  0  0  0  0  0  0
  -26.0914  -35.6131   18.7894 C   0  0  0  0  0  0  0  0  0  0  0  0
  -21.2850  -10.4257   21.2693 C   0  0  0  0  0  0  0  0  0  0  0  0
  -23.3746   -9.8180   22.3187 C   0  0  0  0  0  0  0  0  0  0  0  0
  -25.4531  -36.3396   20.9986 C   0  0  0  0  0  0  0  0  0  0  0  0
  -26.6260  -34.4447   19.3313 C   0  0  0  0  0  0  0  0  0  0  0  0
  -27.6029  -27.5164   17.7951 C   0  0  0  0  0  0  0  0  0  0  0  0
  -20.9874   -9.0761   21.0803 C   0  0  0  0  0  0  0  0  0  0  0  0
  -23.0770   -8.4684   22.1297 C   0  0  0  0  0  0  0  0  0  0  0  0
  -28.6100  -26.5529   17.7583 C   0  0  0  0  0  0  0  0  0  0  0  0
  -21.1419   -6.1172   23.5953 C   0  0  0  0  0  0  0  0  0  0  0  0
  -21.3619   -5.2506   24.6659 C   0  0  0  0  0  0  0  0  0  0  0  0
  -28.5351  -19.8467   20.7034 C   0  0  0  0  0  0  0  0  0  0  0  0
  -28.3917  -26.2424   20.1405 C   0  0  0  0  0  0  0  0  0  0  0  0
  -22.9225   -3.9870   23.3222 C   0  0  0  0  0  0  0  0  0  0  0  0
  -28.4107  -18.6404   21.3483 C   0  0  0  0  0  0  0  0  0  0  0  0
  -22.4786  -10.7967   21.8884 C   0  0  0  0  0  0  0  0  0  0  0  0
  -22.4588  -12.9860   23.1977 C   0  0  0  0  0  0  0  0  0  0  0  0
  -25.9787  -35.1636   21.5565 C   0  0  0  0  0  0  0  0  0  0  0  0
  -26.9892  -27.8585   19.0087 C   0  0  0  0  0  0  0  0  0  0  0  0
  -26.5817  -34.2086   20.7158 C   0  0  0  0  0  0  0  0  0  0  0  0
  -27.3753  -27.2086   20.1897 C   0  0  0  0  0  0  0  0  0  0  0  0
  -21.8834   -8.0975   21.5105 C   0  0  0  0  0  0  0  0  0  0  0  0
  -29.0065  -25.9178   18.9315 C   0  0  0  0  0  0  0  0  0  0  0  0
  -21.8121   -5.9188   22.3882 C   0  0  0  0  0  0  0  0  0  0  0  0
  -22.2522   -4.1855   24.5294 C   0  0  0  0  0  0  0  0  0  0  0  0
  -22.7024   -4.8537   22.2517 C   0  0  0  0  0  0  0  0  0  0  0  0
  -22.7868  -12.1906   22.0834 C   0  0  0  0  0  0  0  0  0  0  0  0
  -29.7652  -19.7575   20.0245 C   0  0  0  0  0  0  0  0  0  0  0  0
  -22.9706  -14.2248   22.8979 C   0  0  0  0  0  0  0  0  0  0  0  0
  -21.7545  -12.6363   24.3966 C   0  0  0  0  0  0  0  0  0  0  0  0
  -26.7586  -30.5179   20.7344 C   0  0  0  0  0  0  0  0  0  0  0  0
  -24.7546  -28.7115   22.5353 C   0  0  0  0  0  0  0  0  0  0  0  0
  -29.7545  -22.0354   18.9497 C   0  0  0  0  0  0  0  0  0  0  0  0
  -23.7704  -25.6018   23.5394 C   0  0  0  0  0  0  0  0  0  0  0  0
  -27.4271  -16.0422   19.3359 C   0  0  0  0  0  0  0  0  0  0  0  0
  -25.9411  -34.9908   23.0543 C   0  0  0  0  0  0  0  0  0  0  0  0
  -25.8859  -28.8806   19.0274 C   0  0  0  0  0  0  0  0  0  0  0  0
  -26.7339  -27.5252   21.5151 C   0  0  0  0  0  0  0  0  0  0  0  0
  -26.1951  -33.5557   23.5085 C   0  0  0  0  0  0  0  0  0  0  0  0
  -24.0143  -17.0443   19.1761 C   0  0  0  0  0  0  0  0  0  0  0  0
  -27.3974  -32.9688   22.7757 C   0  0  0  0  0  0  0  0  0  0  0  0
  -23.2831  -15.9858   20.0036 C   0  0  0  0  0  0  0  0  0  0  0  0
  -25.1742  -16.4415   18.3865 C   0  0  0  0  0  0  0  0  0  0  0  0
  -25.4070  -14.6118   20.0211 C   0  0  0  0  0  0  0  0  0  0  0  0
  -27.1503  -32.9174   21.2632 C   0  0  1  0  0  0  0  0  0  0  0  0
  -25.6868  -29.5199   20.3982 C   0  0  1  0  0  0  0  0  0  0  0  0
  -24.2639  -15.1818   20.8783 C   0  0  2  0  0  0  0  0  0  0  0  0
  -22.1310  -24.4456   25.0470 C   0  0  0  0  0  0  0  0  0  0  0  0
  -29.9979  -13.5522   21.9962 C   0  0  0  0  0  0  0  0  0  0  0  0
  -30.2385  -13.2155   19.5241 C   0  0  0  0  0  0  0  0  0  0  0  0
  -26.4538  -29.4631   24.9555 C   0  0  0  0  0  0  0  0  0  0  0  0
  -25.3814  -27.5781   26.2064 C   0  0  0  0  0  0  0  0  0  0  0  0
  -23.9874  -29.4701   25.3698 C   0  0  0  0  0  0  0  0  0  0  0  0
  -22.4972  -24.1948   21.2682 C   0  0  0  0  0  0  0  0  0  0  0  0
  -30.6693  -22.8377   18.0312 C   0  0  0  0  0  0  0  0  0  0  0  0
  -29.8532  -16.5950   21.4733 C   0  0  0  0  0  0  0  0  0  0  0  0
  -30.1210  -24.2170   17.6982 C   0  0  0  0  0  0  0  0  0  1  0  0
  -24.9185  -27.7934   23.7224 C   0  0  1  0  0  0  0  0  0  0  0  0
  -22.3965  -24.9644   23.6423 C   0  0  2  0  0  0  0  0  0  0  0  0
  -30.3910  -14.2180   20.6740 C   0  0  0  0  0  0  0  0  0  0  0  0
  -29.6171  -15.5299   20.3849 C   0  0  1  0  0  0  0  0  0  0  0  0
  -25.1989  -28.5714   25.0390 C   0  0  0  0  0  0  0  0  0  0  0  0
  -23.4552  -12.8673   21.1457 N   0  0  0  0  0  0  0  0  0  0  0  0
  -30.3785  -18.5872   20.2202 N   0  0  0  0  0  0  0  0  0  0  0  0
  -29.5303  -17.9299   21.0293 N   0  0  0  0  0  0  0  0  0  0  0  0
  -23.5512  -14.1010   21.6699 N   0  0  0  0  0  0  0  0  0  0  0  0
  -25.6641  -28.5362   21.4827 N   0  0  0  0  0  0  0  0  0  0  0  0
  -26.0678  -15.6938   19.2744 N   0  0  0  0  0  0  0  0  0  0  0  0
  -22.9761  -15.3970   23.5674 N   0  0  0  0  0  0  0  0  0  0  0  0
  -21.2972  -11.3195   24.5429 N   0  0  0  0  0  0  0  0  0  0  0  0
  -30.3077  -20.7862   19.2181 N   0  0  0  0  0  0  0  0  0  0  0  0
  -26.2895  -31.8030   20.9292 N   0  0  0  0  0  0  0  0  0  0  0  0
  -23.7207  -26.9615   23.7634 N   0  0  0  0  0  0  0  0  0  0  0  0
  -28.2028  -15.2873   20.2072 N   0  0  0  0  0  0  0  0  0  0  0  0
  -22.2822  -23.8234   22.6905 N   0  3  0  0  0  0  0  0  0  0  0  0
  -21.5227  -13.4710   25.3038 O   0  0  0  0  0  0  0  0  0  0  0  0
  -27.9246  -30.1490   20.8127 O   0  0  0  0  0  0  0  0  0  0  0  0
  -23.8484  -29.5484   22.5386 O   0  0  0  0  0  0  0  0  0  0  0  0
  -28.6894  -22.4819   19.3625 O   0  0  0  0  0  0  0  0  0  0  0  0
  -24.7866  -24.9574   23.2893 O   0  0  0  0  0  0  0  0  0  0  0  0
  -27.9124  -16.9617   18.6681 O   0  0  0  0  0  0  0  0  0  0  0  0
  -21.5932   -6.7805   21.3265 O   0  0  0  0  0  0  0  0  0  0  0  0
  -29.9897  -24.9775   18.8985 O   0  0  0  0  0  0  0  0  0  1  0  0
  -22.4645   -3.3542   25.5580 F   0  0  0  0  0  0  0  0  0  0  0  0
  -23.3501   -4.6586   21.0948 F   0  0  0  0  0  0  0  0  0  0  0  0
  1  2  1  0  0  0  0
  1  5  2  0  0  0  0
  2  6  2  0  0  0  0
  3  8  2  0  0  0  0
  3 17  1  0  0  0  0
  4  9  1  0  0  0  0
  4 17  2  0  0  0  0
  5 19  1  0  0  0  0
  6 21  1  0  0  0  0
  7 10  2  0  0  0  0
  7 20  1  0  0  0  0
  8 23  1  0  0  0  0
  9 23  2  0  0  0  0
 10 24  1  0  0  0  0
 11 12  2  0  0  0  0
 11 25  1  0  0  0  0
 12 26  1  0  0  0  0
 13 16  2  0  0  0  0
 13 29  1  0  0  0  0
 14 22  1  0  0  0  0
 14 24  2  0  0  0  0
 15 26  2  0  0  0  0
 15 27  1  0  0  0  0
 16 66  1  0  0  0  0
 17 28  1  0  0  0  0
 18 28  1  0  0  0  0
 18 30  2  0  0  0  0
 18 31  1  0  0  0  0
 19 21  2  0  0  0  0
 19 37  1  0  0  0  0
 20 22  2  0  0  0  0
 20 38  1  0  0  0  0
 21 46  1  0  0  0  0
 22 39  1  0  0  0  0
 23 83  1  0  0  0  0
 24 84  1  0  0  0  0
 25 27  2  0  0  0  0
 25 83  1  0  0  0  0
 26 85  1  0  0  0  0
 27 86  1  0  0  0  0
 28 64  2  0  0  0  0
 29 65  2  0  0  0  0
 29 72  1  0  0  0  0
 30 67  1  0  0  0  0
 30 70  1  0  0  0  0
 31 71  1  0  0  0  0
 31 77  2  0  0  0  0
 32 47  1  0  0  0  0
 32 73  1  0  0  0  0
 32 78  2  0  0  0  0
 33 59  1  0  0  0  0
 33 68  1  0  0  0  0
 33 79  2  0  0  0  0
 34 56  1  0  0  0  0
 34 72  1  0  0  0  0
 34 80  2  0  0  0  0
 35 60  1  0  0  0  0
 35 74  1  0  0  0  0
 35 81  2  0  0  0  0
 36 69  1  0  0  0  0
 36 75  1  0  0  0  0
 36 82  2  0  0  0  0
 37 40  1  0  0  0  0
 38 47  1  0  0  0  0
 39 68  1  0  0  0  0
 40 42  1  0  0  0  0
 41 43  1  0  0  0  0
 41 44  1  0  0  0  0
 42 46  1  0  0  0  0
 43 48  1  0  0  0  0
 44 69  1  0  0  0  0
 45 48  1  0  0  0  0
 45 69  1  0  0  0  0
 46 73  1  0  0  0  0
 47 68  1  0  0  0  0
 48 67  1  0  0  0  0
 49 60  1  0  0  0  0
 50 61  1  0  0  0  0
 51 61  1  0  0  0  0
 52 63  1  0  0  0  0
 53 63  1  0  0  0  0
 54 63  1  0  0  0  0
 55 76  1  0  0  0  0
 56 58  1  0  0  0  0
 57 62  1  0  0  0  0
 57 66  1  0  0  0  0
 58 84  1  0  0  0  0
 59 63  1  0  0  0  0
 59 74  1  0  0  0  0
 60 76  1  0  0  0  0
 61 62  1  0  0  0  0
 62 75  1  0  0  0  0
 64 67  1  0  0  0  0
 65 66  1  0  0  0  0
M  CHG  1  76   1
M  ISO  4  36 100  58 101  75 100  84 101
M  END
> <Batch ID>
0189

> <Smiles>
CNC(C)C(=O)NC(C(=O)N1Cc2cc([101O:1][101CH2:1]CC(=O)Nc3ccn(CC([100NH:0][100C:0](=O)N4CCCC(n5nc(-c6ccc(Oc7ccc(F)cc7F)cc6)c(C(N)=O)c5N)C4)C(C)C)n3)ccc2CC1C(=O)NC1CCCc2ccccc21)C(C)(C)C

> <Shape>
0.285

> <Color>
0.085

> <Negative vol penalty>
0.000

$$$$

  -OEChem-04052305183D

 84 92  0     1  0  0  0  0  0999 V2000
  -31.4261  -12.0766   19.3769 C   0  0  0  0  0  0  0  0  0  0  0  0
  -31.0737  -13.4223   19.3973 C   0  0  0  0  0  0  0  0  0  0  0  0
  -23.0256  -29.2138   22.1846 C   0  0  0  0  0  0  0  0  0  0  0  0
  -22.7852  -29.8063   19.8547 C   0  0  0  0  0  0  0  0  0  0  0  0
  -30.4358  -11.0969   19.4350 C   0  0  0  0  0  0  0  0  0  0  0  0
  -29.7306  -13.7890   19.4746 C   0  0  0  0  0  0  0  0  0  0  0  0
  -28.9212  -17.5064   22.8169 C   0  0  0  0  0  0  0  0  0  0  0  0
  -21.7992  -29.8165   22.4644 C   0  0  0  0  0  0  0  0  0  0  0  0
  -21.5588  -30.4090   20.1345 C   0  0  0  0  0  0  0  0  0  0  0  0
  -29.2447  -18.8026   22.4183 C   0  0  0  0  0  0  0  0  0  0  0  0
  -18.5621  -30.8827   23.7292 C   0  0  0  0  0  0  0  0  0  0  0  0
  -17.6726  -30.1916   24.5519 C   0  0  0  0  0  0  0  0  0  0  0  0
  -26.9192  -19.2291   21.9390 C   0  0  0  0  0  0  0  0  0  0  0  0
  -17.6293  -28.3652   22.9709 C   0  0  0  0  0  0  0  0  0  0  0  0
  -30.6457  -24.4901   16.6821 C   0  0  0  0  0  0  0  0  0  0  0  0
  -23.5187  -29.2088   20.8798 C   0  0  0  0  0  0  0  0  0  0  0  0
  -25.0110  -27.2459   20.2258 C   0  0  0  0  0  0  0  0  0  0  0  0
  -29.0805  -11.4518   19.5228 C   0  0  0  0  0  0  0  0  0  0  0  0
  -27.5935  -17.0575   22.7692 C   0  0  0  0  0  0  0  0  0  0  0  0
  -28.7212  -12.8131   19.5326 C   0  0  0  0  0  0  0  0  0  0  0  0
  -26.5812  -17.9276   22.3400 C   0  0  0  0  0  0  0  0  0  0  0  0
  -21.0658  -30.4141   21.4394 C   0  0  0  0  0  0  0  0  0  0  0  0
  -28.2441  -19.6633   21.9765 C   0  0  0  0  0  0  0  0  0  0  0  0
  -18.9852  -30.3150   22.5273 C   0  0  0  0  0  0  0  0  0  0  0  0
  -17.2063  -28.9329   24.1728 C   0  0  0  0  0  0  0  0  0  0  0  0
  -18.5188  -29.0563   22.1482 C   0  0  0  0  0  0  0  0  0  0  0  0
  -24.7857  -28.5869   20.5902 C   0  0  0  0  0  0  0  0  0  0  0  0
  -31.4925  -25.2519   17.4598 C   0  0  0  0  0  0  0  0  0  0  0  0
  -26.3719  -27.1584   20.0623 C   0  0  0  0  0  0  0  0  0  0  0  0
  -30.1472  -23.6407   18.6417 C   0  0  0  0  0  0  0  0  0  0  0  0
  -24.0738  -26.1750   20.0506 C   0  0  0  0  0  0  0  0  0  0  0  0
  -26.0592  -14.7546   21.2051 C   0  0  0  0  0  0  0  0  0  0  0  0
  -23.5712  -15.6829   23.0680 C   0  0  0  0  0  0  0  0  0  0  0  0
  -22.1022  -18.1393   24.9268 C   0  0  0  0  0  0  0  0  0  0  0  0
  -31.1810  -29.2103   18.1109 C   0  0  0  0  0  0  0  0  0  0  0  0
  -28.0428  -10.3574   19.5356 C   0  0  0  0  0  0  0  0  0  0  0  0
  -27.2573  -15.6650   23.2279 C   0  0  0  0  0  0  0  0  0  0  0  0
  -25.1376  -17.5009   22.2891 C   0  0  0  0  0  0  0  0  0  0  0  0
  -26.6654  -10.8293   19.9942 C   0  0  0  0  0  0  0  0  0  0  0  0
  -30.0483  -30.4187   21.2626 C   0  0  0  0  0  0  0  0  0  0  0  0
  -26.2872  -12.1312   19.2951 C   0  0  0  0  0  0  0  0  0  0  0  0
  -28.5957  -29.9448   21.3355 C   0  0  0  0  0  0  0  0  0  0  0  0
  -30.4405  -30.8198   19.8423 C   0  0  0  0  0  0  0  0  0  0  0  0
  -28.7357  -29.3168   18.8891 C   0  0  0  0  0  0  0  0  0  0  0  0
  -27.2765  -13.2507   19.6408 C   0  0  1  0  0  0  0  0  0  0  0  0
  -25.9435  -15.1467   22.6510 C   0  0  1  0  0  0  0  0  0  0  0  0
  -28.3105  -28.8485   20.2914 C   0  0  2  0  0  0  0  0  0  0  0  0
  -33.5690  -25.7822   16.1442 C   0  0  0  0  0  0  0  0  0  0  0  0
  -20.0542  -18.6146   26.2970 C   0  0  0  0  0  0  0  0  0  0  0  0
  -29.2472  -20.6108   18.7596 C   0  0  0  0  0  0  0  0  0  0  0  0
  -27.0288  -22.7378   21.1767 C   0  0  0  0  0  0  0  0  0  0  0  0
  -21.9364  -15.9972   20.5110 C   0  0  0  0  0  0  0  0  0  0  0  0
  -20.2802  -17.3450   21.8183 C   0  0  0  0  0  0  0  0  0  0  0  0
  -20.6977  -14.9604   22.4202 C   0  0  0  0  0  0  0  0  0  0  0  0
  -23.7046  -18.6118   27.3698 C   0  0  0  0  0  0  0  0  0  0  0  0
  -31.7722  -27.5346   16.3784 C   0  0  0  0  0  0  0  0  0  0  0  0
  -32.4412  -26.3109   17.0649 C   0  0  1  0  0  0  0  0  0  0  0  0
  -22.4601  -16.6970   22.9404 C   0  0  1  0  0  0  0  0  0  0  0  0
  -21.4930  -18.1223   26.3172 C   0  0  2  0  0  0  0  0  0  0  0  0
  -28.5514  -21.8478   19.3233 C   0  0  1  0  0  0  0  0  0  0  0  0
  -27.7328  -21.5220   20.5839 C   0  0  1  0  0  0  0  0  0  1  0  0
  -21.3710  -16.2576   21.9215 C   0  0  0  0  0  0  0  0  0  0  0  0
  -29.8738  -23.5655   17.3581 N   0  0  0  0  0  0  0  0  0  0  0  0
  -25.9132  -29.3000   20.6547 N   0  0  0  0  0  0  0  0  0  0  0  0
  -26.8601  -28.4037   20.3287 N   0  0  0  0  0  0  0  0  0  0  0  0
  -24.8602  -16.1278   22.7420 N   0  0  0  0  0  0  0  0  0  0  0  0
  -30.1459  -29.7362   18.9015 N   0  0  0  0  0  0  0  0  0  0  0  0
  -27.1866  -26.1385   19.7181 N   0  0  0  0  0  0  0  0  0  0  0  0
  -22.7128  -26.4375   20.2585 N   0  0  0  0  0  0  0  0  0  0  0  0
  -29.5539  -22.8542   19.6117 N   0  0  0  0  0  0  0  0  0  0  0  0
  -27.0040  -13.7761   20.9614 N   0  0  0  0  0  0  0  0  0  0  0  0
  -21.9578  -16.9243   24.2911 N   0  0  0  0  0  0  0  0  0  0  0  0
  -30.8174  -28.1815   17.2506 N   0  0  0  0  0  0  0  0  0  0  0  0
  -22.2757  -18.9960   27.2364 N   0  3  0  0  0  0  0  0  0  0  0  0
  -24.4342  -25.0156   19.7355 O   0  0  0  0  0  0  0  0  0  0  0  0
  -25.3431  -15.2983   20.3725 O   0  0  0  0  0  0  0  0  0  0  0  0
  -23.3062  -14.5404   23.4500 O   0  0  0  0  0  0  0  0  0  0  0  0
  -22.6480  -19.1323   24.4508 O   0  0  0  0  0  0  0  0  0  0  0  0
  -32.3441  -29.6231   18.1714 O   0  0  0  0  0  0  0  0  0  0  0  0
  -19.8689  -31.0021   21.7120 O   0  0  0  0  0  0  0  0  0  0  0  0
  -28.5572  -20.9288   21.5863 O   0  0  0  0  0  0  0  0  0  1  0  0
  -16.3533  -28.2687   24.9636 F   0  0  0  0  0  0  0  0  0  0  0  0
  -18.9226  -28.5054   20.9953 F   0  0  0  0  0  0  0  0  0  0  0  0
  -31.3223  -24.8019   19.1060 S   0  0  0  0  0  0  0  0  0  0  0  0
  1  2  1  0  0  0  0
  1  5  2  0  0  0  0
  2  6  2  0  0  0  0
  3  8  2  0  0  0  0
  3 16  1  0  0  0  0
  4  9  1  0  0  0  0
  4 16  2  0  0  0  0
  5 18  1  0  0  0  0
  6 20  1  0  0  0  0
  7 10  2  0  0  0  0
  7 19  1  0  0  0  0
  8 22  1  0  0  0  0
  9 22  2  0  0  0  0
 10 23  1  0  0  0  0
 11 12  2  0  0  0  0
 11 24  1  0  0  0  0
 12 25  1  0  0  0  0
 13 21  1  0  0  0  0
 13 23  2  0  0  0  0
 14 25  2  0  0  0  0
 14 26  1  0  0  0  0
 15 28  2  0  0  0  0
 15 63  1  0  0  0  0
 16 27  1  0  0  0  0
 17 27  1  0  0  0  0
 17 29  2  0  0  0  0
 17 31  1  0  0  0  0
 18 20  2  0  0  0  0
 18 36  1  0  0  0  0
 19 21  2  0  0  0  0
 19 37  1  0  0  0  0
 20 45  1  0  0  0  0
 21 38  1  0  0  0  0
 22 80  1  0  0  0  0
 23 81  1  0  0  0  0
 24 26  2  0  0  0  0
 24 80  1  0  0  0  0
 25 82  1  0  0  0  0
 26 83  1  0  0  0  0
 27 64  2  0  0  0  0
 28 57  1  0  0  0  0
 28 84  1  0  0  0  0
 29 65  1  0  0  0  0
 29 68  1  0  0  0  0
 30 63  2  0  0  0  0
 30 70  1  0  0  0  0
 30 84  1  0  0  0  0
 31 69  1  0  0  0  0
 31 75  2  0  0  0  0
 32 46  1  0  0  0  0
 32 71  1  0  0  0  0
 32 76  2  0  0  0  0
 33 58  1  0  0  0  0
 33 66  1  0  0  0  0
 33 77  2  0  0  0  0
 34 59  1  0  0  0  0
 34 72  1  0  0  0  0
 34 78  2  0  0  0  0
 35 67  1  0  0  0  0
 35 73  1  0  0  0  0
 35 79  2  0  0  0  0
 36 39  1  0  0  0  0
 37 46  1  0  0  0  0
 38 66  1  0  0  0  0
 39 41  1  0  0  0  0
 40 42  1  0  0  0  0
 40 43  1  0  0  0  0
 41 45  1  0  0  0  0
 42 47  1  0  0  0  0
 43 67  1  0  0  0  0
 44 47  1  0  0  0  0
 44 67  1  0  0  0  0
 45 71  1  0  0  0  0
 46 66  1  0  0  0  0
 47 65  1  0  0  0  0
 48 57  1  0  0  0  0
 49 59  1  0  0  0  0
 50 60  1  0  0  0  0
 51 61  1  0  0  0  0
 52 62  1  0  0  0  0
 53 62  1  0  0  0  0
 54 62  1  0  0  0  0
 55 74  1  0  0  0  0
 56 57  1  0  0  0  0
 56 73  1  0  0  0  0
 58 62  1  0  0  0  0
 58 72  1  0  0  0  0
 59 74  1  0  0  0  0
 60 61  1  0  0  0  0
 60 70  1  0  0  0  0
 61 81  1  0  0  0  0
 64 65  1  0  0  0  0
M  CHG  1  74   1
M  ISO  4  35 100  61 101  73 100  81 101
M  END
> <Batch ID>
0189

> <Smiles>
CNC(C)C(=O)NC(C(=O)N1Cc2cc([101O:1][101CH:1](C)C(C)Nc3ncc(C(C)C[100NH:0][100C:0](=O)N4CCCC(n5nc(-c6ccc(Oc7ccc(F)cc7F)cc6)c(C(N)=O)c5N)C4)s3)ccc2CC1C(=O)NC1CCCc2ccccc21)C(C)(C)C

> <Shape>
0.236

> <Color>
0.062

> <Negative vol penalty>
0.000

$$$$

  -OEChem-04052305183D

 85 93  0     1  0  0  0  0  0999 V2000
  -27.3360  -33.6332   26.4606 C   0  0  0  0  0  0  0  0  0  0  0  0
  -27.5574  -32.3317   26.0217 C   0  0  0  0  0  0  0  0  0  0  0  0
  -24.5677   -9.2609   21.6433 C   0  0  0  0  0  0  0  0  0  0  0  0
  -23.9139  -10.9936   23.1948 C   0  0  0  0  0  0  0  0  0  0  0  0
  -26.0499  -34.1705   26.4246 C   0  0  0  0  0  0  0  0  0  0  0  0
  -26.4926  -31.5664   25.5475 C   0  0  0  0  0  0  0  0  0  0  0  0
  -27.6321  -29.0831   21.2838 C   0  0  0  0  0  0  0  0  0  0  0  0
  -24.0957   -8.2910   22.5276 C   0  0  0  0  0  0  0  0  0  0  0  0
  -23.4419  -10.0237   24.0792 C   0  0  0  0  0  0  0  0  0  0  0  0
  -28.3997  -27.9257   21.4068 C   0  0  0  0  0  0  0  0  0  0  0  0
  -22.7347   -5.3754   24.2194 C   0  0  0  0  0  0  0  0  0  0  0  0
  -21.9659   -4.3373   23.6934 C   0  0  0  0  0  0  0  0  0  0  0  0
  -26.4019  -26.5875   21.2147 C   0  0  0  0  0  0  0  0  0  0  0  0
  -20.3421   -5.9413   22.9012 C   0  0  0  0  0  0  0  0  0  0  0  0
  -24.4768  -10.6123   21.9769 C   0  0  0  0  0  0  0  0  0  0  0  0
  -24.2413  -12.2576   20.0416 C   0  0  0  0  0  0  0  0  0  0  0  0
  -24.9705  -33.4147   25.9407 C   0  0  0  0  0  0  0  0  0  0  0  0
  -26.2400  -29.0015   21.1360 C   0  0  0  0  0  0  0  0  0  0  0  0
  -25.1906  -32.0936   25.5063 C   0  0  0  0  0  0  0  0  0  0  0  0
  -25.6191  -27.7452   21.0875 C   0  0  0  0  0  0  0  0  0  0  0  0
  -23.5328   -8.6723   23.7455 C   0  0  0  0  0  0  0  0  0  0  0  0
  -27.7843  -26.6778   21.3751 C   0  0  0  0  0  0  0  0  0  0  0  0
  -22.3072   -6.6965   24.0865 C   0  0  0  0  0  0  0  0  0  0  0  0
  -20.7696   -4.6202   23.0343 C   0  0  0  0  0  0  0  0  0  0  0  0
  -21.1109   -6.9794   23.4273 C   0  0  0  0  0  0  0  0  0  0  0  0
  -24.9646  -11.6147   21.0640 C   0  0  0  0  0  0  0  0  0  0  0  0
  -28.2925  -20.8074   18.0484 C   0  0  0  0  0  0  0  0  0  0  0  0
  -26.9144  -20.8343   17.9992 C   0  0  0  0  0  0  0  0  0  0  0  0
  -25.1474  -13.1151   19.4670 C   0  0  0  0  0  0  0  0  0  0  0  0
  -27.8921  -18.8469   18.9463 C   0  0  0  0  0  0  0  0  0  0  0  0
  -22.8727  -12.0942   19.6466 C   0  0  0  0  0  0  0  0  0  0  0  0
  -23.7421  -29.9945   22.8326 C   0  0  0  0  0  0  0  0  0  0  0  0
  -30.0476  -22.4816   18.7187 C   0  0  0  0  0  0  0  0  0  0  0  0
  -22.0677  -28.9094   20.2750 C   0  0  0  0  0  0  0  0  0  0  0  0
  -21.9313  -26.8314   17.5714 C   0  0  0  0  0  0  0  0  0  0  0  0
  -29.2025  -16.9084   19.8797 C   0  0  0  0  0  0  0  0  0  0  0  0
  -23.5902  -34.0221   25.9652 C   0  0  0  0  0  0  0  0  0  0  0  0
  -25.4292  -30.2584   20.9778 C   0  0  0  0  0  0  0  0  0  0  0  0
  -24.1302  -27.6027   20.9104 C   0  0  0  0  0  0  0  0  0  0  0  0
  -22.5803  -33.2745   25.0984 C   0  0  0  0  0  0  0  0  0  0  0  0
  -30.1618  -13.4839   20.0509 C   0  0  0  0  0  0  0  0  0  0  0  0
  -22.6777  -31.7716   25.3408 C   0  0  0  0  0  0  0  0  0  0  0  0
  -28.8357  -12.7452   20.2456 C   0  0  0  0  0  0  0  0  0  0  0  0
  -30.1831  -14.8172   20.7963 C   0  0  0  0  0  0  0  0  0  0  0  0
  -27.7261  -14.9694   20.7020 C   0  0  0  0  0  0  0  0  0  0  0  0
  -24.0655  -31.2405   24.9619 C   0  0  1  0  0  0  0  0  0  0  0  0
  -23.9609  -30.0729   21.3481 C   0  0  1  0  0  0  0  0  0  0  0  0
  -27.6326  -13.6508   19.9170 C   0  0  2  0  0  0  0  0  0  0  0  0
  -26.0008  -21.8777   17.4927 C   0  0  0  0  0  0  0  0  0  0  0  0
  -30.1200  -21.4079   16.4283 C   0  0  0  0  0  0  0  0  0  0  0  0
  -20.4184  -26.1403   15.6923 C   0  0  0  0  0  0  0  0  0  0  0  0
  -20.4130  -27.2432   22.2233 C   0  0  0  0  0  0  0  0  0  0  0  0
  -19.5987  -25.8997   20.2740 C   0  0  0  0  0  0  0  0  0  0  0  0
  -19.0918  -28.3387   20.4043 C   0  0  0  0  0  0  0  0  0  0  0  0
  -23.8587  -27.7566   15.5248 C   0  0  0  0  0  0  0  0  0  0  0  0
  -29.4239  -23.6583   19.4653 C   0  0  0  0  0  0  0  0  0  0  0  0
  -29.8711  -25.5979   21.0074 C   0  0  0  0  0  0  0  0  0  1  0  0
  -29.2237  -21.9009   17.5666 C   0  0  1  0  0  0  0  0  0  0  0  0
  -21.4496  -27.5888   19.8841 C   0  0  1  0  0  0  0  0  0  0  0  0
  -21.5311  -27.0808   16.1284 C   0  0  2  0  0  0  0  0  0  0  0  0
  -30.3237  -24.2057   20.5738 C   0  0  1  0  0  0  0  0  0  0  0  0
  -20.1661  -27.2700   20.7017 C   0  0  0  0  0  0  0  0  0  0  0  0
  -26.2325  -12.0283   21.1371 N   0  0  0  0  0  0  0  0  0  0  0  0
  -28.8548  -19.6687   18.5916 N   0  0  0  0  0  0  0  0  0  0  0  0
  -26.3130  -12.9403   20.1533 N   0  0  0  0  0  0  0  0  0  0  0  0
  -23.3800  -28.8612   20.7663 N   0  0  0  0  0  0  0  0  0  0  0  0
  -29.0161  -15.6234   20.4319 N   0  0  0  0  0  0  0  0  0  0  0  0
  -25.0528  -13.9940   18.4468 N   0  0  0  0  0  0  0  0  0  0  0  0
  -22.0818  -11.1706   20.3436 N   0  0  0  0  0  0  0  0  0  0  0  0
  -28.0210  -17.5679   19.5423 N   0  0  0  0  0  0  0  0  0  0  0  0
  -24.1805  -31.1068   23.5254 N   0  0  0  0  0  0  0  0  0  0  0  0
  -21.2398  -27.6474   18.4415 N   0  0  0  0  0  0  0  0  0  0  0  0
  -22.6987  -26.8784   15.2246 N   0  3  0  0  0  0  0  0  0  0  0  0
  -22.3707  -12.7360   18.6929 O   0  0  0  0  0  0  0  0  0  0  0  0
  -23.2133  -28.9992   23.3136 O   0  0  0  0  0  0  0  0  0  0  0  0
  -31.1473  -22.0207   19.0252 O   0  0  0  0  0  0  0  0  0  0  0  0
  -21.4129  -29.9464   20.1425 O   0  0  0  0  0  0  0  0  0  0  0  0
  -22.7706  -25.9937   17.8946 O   0  0  0  0  0  0  0  0  0  0  0  0
  -30.3282  -17.3774   19.6928 O   0  0  0  0  0  0  0  0  0  0  0  0
  -30.2297  -23.3236   21.6937 O   0  0  0  0  0  0  0  0  0  0  0  0
  -23.0720   -7.7261   24.6086 O   0  0  0  0  0  0  0  0  0  0  0  0
  -28.5311  -25.5466   21.4956 O   0  0  0  0  0  0  0  0  0  1  0  0
  -20.0322   -3.6232   22.5278 F   0  0  0  0  0  0  0  0  0  0  0  0
  -20.6956   -8.2467   23.2954 F   0  0  0  0  0  0  0  0  0  0  0  0
  -26.2868  -19.3793   18.6552 S   0  0  0  0  0  0  0  0  0  0  0  0
  1  2  1  0  0  0  0
  1  5  2  0  0  0  0
  2  6  2  0  0  0  0
  3  8  2  0  0  0  0
  3 15  1  0  0  0  0
  4  9  1  0  0  0  0
  4 15  2  0  0  0  0
  5 17  1  0  0  0  0
  6 19  1  0  0  0  0
  7 10  2  0  0  0  0
  7 18  1  0  0  0  0
  8 21  1  0  0  0  0
  9 21  2  0  0  0  0
 10 22  1  0  0  0  0
 11 12  2  0  0  0  0
 11 23  1  0  0  0  0
 12 24  1  0  0  0  0
 13 20  1  0  0  0  0
 13 22  2  0  0  0  0
 14 24  2  0  0  0  0
 14 25  1  0  0  0  0
 15 26  1  0  0  0  0
 16 26  1  0  0  0  0
 16 29  2  0  0  0  0
 16 31  1  0  0  0  0
 17 19  2  0  0  0  0
 17 37  1  0  0  0  0
 18 20  2  0  0  0  0
 18 38  1  0  0  0  0
 19 46  1  0  0  0  0
 20 39  1  0  0  0  0
 21 81  1  0  0  0  0
 22 82  1  0  0  0  0
 23 25  2  0  0  0  0
 23 81  1  0  0  0  0
 24 83  1  0  0  0  0
 25 84  1  0  0  0  0
 26 63  2  0  0  0  0
 27 28  2  0  0  0  0
 27 58  1  0  0  0  0
 27 64  1  0  0  0  0
 28 49  1  0  0  0  0
 28 85  1  0  0  0  0
 29 65  1  0  0  0  0
 29 68  1  0  0  0  0
 30 64  2  0  0  0  0
 30 70  1  0  0  0  0
 30 85  1  0  0  0  0
 31 69  1  0  0  0  0
 31 74  2  0  0  0  0
 32 47  1  0  0  0  0
 32 71  1  0  0  0  0
 32 75  2  0  0  0  0
 33 56  1  0  0  0  0
 33 58  1  0  0  0  0
 33 76  2  0  0  0  0
 34 59  1  0  0  0  0
 34 66  1  0  0  0  0
 34 77  2  0  0  0  0
 35 60  1  0  0  0  0
 35 72  1  0  0  0  0
 35 78  2  0  0  0  0
 36 67  1  0  0  0  0
 36 70  1  0  0  0  0
 36 79  2  0  0  0  0
 37 40  1  0  0  0  0
 38 47  1  0  0  0  0
 39 66  1  0  0  0  0
 40 42  1  0  0  0  0
 41 43  1  0  0  0  0
 41 44  1  0  0  0  0
 42 46  1  0  0  0  0
 43 48  1  0  0  0  0
 44 67  1  0  0  0  0
 45 48  1  0  0  0  0
 45 67  1  0  0  0  0
 46 71  1  0  0  0  0
 47 66  1  0  0  0  0
 48 65  1  0  0  0  0
 50 58  1  0  0  0  0
 51 60  1  0  0  0  0
 52 62  1  0  0  0  0
 53 62  1  0  0  0  0
 54 62  1  0  0  0  0
 55 73  1  0  0  0  0
 56 61  1  0  0  0  0
 57 61  1  0  0  0  0
 57 82  1  0  0  0  0
 59 62  1  0  0  0  0
 59 72  1  0  0  0  0
 60 73  1  0  0  0  0
 61 80  1  0  0  0  0
 63 65  1  0  0  0  0
M  CHG  1  73   1
M  ISO  4  36 100  57 101  70 100  82 101
M  END
> <Batch ID>
0189

> <Smiles>
CNC(C)C(=O)NC(C(=O)N1Cc2cc([101O:1][101CH2:1]C(O)CC(=O)C(C)c3nc([100NH:0][100C:0](=O)N4CCCC(n5nc(-c6ccc(Oc7ccc(F)cc7F)cc6)c(C(N)=O)c5N)C4)sc3C)ccc2CC1C(=O)NC1CCCc2ccccc21)C(C)(C)C

> <Shape>
0.309

> <Color>
0.085

> <Negative vol penalty>
0.000

$$$$

  -OEChem-04052305183D

 91 99  0     1  0  0  0  0  0999 V2000
  -18.9865  -11.0363   23.4916 C   0  0  0  0  0  0  0  0  0  0  0  0
  -20.2304  -10.8961   24.0965 C   0  0  0  0  0  0  0  0  0  0  0  0
  -23.2026   -9.8515   19.9562 C   0  0  0  0  0  0  0  0  0  0  0  0
  -23.9056   -9.9371   22.2661 C   0  0  0  0  0  0  0  0  0  0  0  0
  -18.3544  -12.2779   23.4859 C   0  0  0  0  0  0  0  0  0  0  0  0
  -20.8372  -11.9946   24.7064 C   0  0  0  0  0  0  0  0  0  0  0  0
  -24.9747  -11.1471   27.2296 C   0  0  0  0  0  0  0  0  0  0  0  0
  -22.5094   -8.6682   20.2110 C   0  0  0  0  0  0  0  0  0  0  0  0
  -23.2123   -8.7538   22.5209 C   0  0  0  0  0  0  0  0  0  0  0  0
  -26.1872  -10.8471   26.6102 C   0  0  0  0  0  0  0  0  0  0  0  0
  -23.2339   -5.3874   20.5792 C   0  0  0  0  0  0  0  0  0  0  0  0
  -23.3730   -4.3454   19.6624 C   0  0  0  0  0  0  0  0  0  0  0  0
  -26.9492  -13.0980   27.0251 C   0  0  0  0  0  0  0  0  0  0  0  0
  -20.9925   -4.3885   19.2522 C   0  0  0  0  0  0  0  0  0  0  0  0
  -32.7324  -11.9877   26.5276 C   0  0  0  0  0  0  0  0  0  0  0  0
  -23.9007  -10.4859   20.9838 C   0  0  0  0  0  0  0  0  0  0  0  0
  -24.1231  -13.0221   20.8230 C   0  0  0  0  0  0  0  0  0  0  0  0
  -18.9601  -13.3945   24.0853 C   0  0  0  0  0  0  0  0  0  0  0  0
  -24.7358  -12.4302   27.7425 C   0  0  0  0  0  0  0  0  0  0  0  0
  -20.2044  -13.2506   24.7321 C   0  0  0  0  0  0  0  0  0  0  0  0
  -25.7338  -13.4110   27.6528 C   0  0  0  0  0  0  0  0  0  0  0  0
  -22.5142   -8.1194   21.4934 C   0  0  0  0  0  0  0  0  0  0  0  0
  -27.1736  -11.8234   26.5053 C   0  0  0  0  0  0  0  0  0  0  0  0
  -21.9741   -5.9299   20.8325 C   0  0  0  0  0  0  0  0  0  0  0  0
  -22.2523   -3.8460   18.9989 C   0  0  0  0  0  0  0  0  0  0  0  0
  -20.8534   -5.4305   20.1690 C   0  0  0  0  0  0  0  0  0  0  0  0
  -24.6175  -11.7080   20.7211 C   0  0  0  0  0  0  0  0  0  0  0  0
  -31.6489  -11.6749   25.7336 C   0  0  0  0  0  0  0  0  0  0  0  0
  -25.1863  -13.8172   20.4709 C   0  0  0  0  0  0  0  0  0  0  0  0
  -31.7713  -13.8201   25.2942 C   0  0  0  0  0  0  0  0  0  0  0  0
  -22.8195  -13.4830   21.2022 C   0  0  0  0  0  0  0  0  0  0  0  0
  -31.0969  -10.3543   25.6201 C   0  0  0  0  0  0  0  0  0  0  0  0
  -22.6358  -14.7361   27.1290 C   0  0  0  0  0  0  0  0  0  0  0  0
  -30.9669  -13.9523   21.0308 C   0  0  0  0  0  0  0  0  0  0  0  0
  -24.0162  -16.1435   29.7049 C   0  0  0  0  0  0  0  0  0  0  0  0
  -26.7464  -16.4329   31.7321 C   0  0  0  0  0  0  0  0  0  0  0  0
  -18.2280  -14.7130   24.0569 C   0  0  0  0  0  0  0  0  0  0  0  0
  -23.4329  -12.7301   28.4316 C   0  0  0  0  0  0  0  0  0  0  0  0
  -25.5347  -14.7979   28.2053 C   0  0  0  0  0  0  0  0  0  0  0  0
  -19.1389  -15.9048   24.3327 C   0  0  0  0  0  0  0  0  0  0  0  0
  -29.3636  -13.1413   17.9305 C   0  0  0  0  0  0  0  0  0  0  0  0
  -19.9722  -15.6448   25.5787 C   0  0  0  0  0  0  0  0  0  0  0  0
  -27.9368  -12.7857   18.3465 C   0  0  0  0  0  0  0  0  0  0  0  0
  -30.3778  -12.7005   18.9813 C   0  0  0  0  0  0  0  0  0  0  0  0
  -28.6766  -12.8764   20.7692 C   0  0  0  0  0  0  0  0  0  0  0  0
  -20.8974  -14.4384   25.3750 C   0  0  1  0  0  0  0  0  0  0  0  0
  -23.1012  -14.2189   28.4607 C   0  0  1  0  0  0  0  0  0  0  0  0
  -27.6177  -13.3318   19.7495 C   0  0  2  0  0  0  0  0  0  0  0  0
  -29.9541  -15.8014   26.6771 C   0  0  0  0  0  0  0  0  0  0  0  0
  -27.5907  -17.6926   33.7315 C   0  0  0  0  0  0  0  0  0  0  0  0
  -35.5557  -17.4092   24.0579 C   0  0  0  0  0  0  0  0  0  0  0  0
  -34.9782  -16.3660   21.8593 C   0  0  0  0  0  0  0  0  0  0  0  0
  -24.4734  -18.6036   27.9588 C   0  0  0  0  0  0  0  0  0  0  0  0
  -26.1154  -19.4217   29.6626 C   0  0  0  0  0  0  0  0  0  0  0  0
  -23.7222  -19.1047   30.2910 C   0  0  0  0  0  0  0  0  0  0  0  0
  -27.0659  -13.9481   33.3078 C   0  0  0  0  0  0  0  0  0  0  0  0
  -30.9982  -18.7505   21.8480 C   0  0  0  0  0  0  0  0  0  0  0  0
  -29.8745  -10.0875   24.7028 C   0  0  0  0  0  0  0  0  0  0  0  0
  -30.5313  -14.4586   22.3828 C   0  0  0  0  0  0  0  0  0  0  0  0
  -30.0932  -15.7558   25.1579 C   0  0  0  0  0  0  0  0  0  0  0  0
  -33.1235  -17.3067   23.2710 C   0  0  0  0  0  0  0  0  0  0  0  0
  -28.5232  -10.2098   25.3959 C   0  0  0  0  0  0  0  0  0  1  0  0
  -31.4624  -15.1939   24.6990 C   0  0  2  0  0  0  0  0  0  0  0  0
  -25.1842  -17.0765   29.9155 C   0  0  1  0  0  0  0  0  0  0  0  0
  -26.8823  -16.4383   33.2440 C   0  0  2  0  0  0  0  0  0  0  0  0
  -34.5007  -16.6074   23.2951 C   0  0  0  0  0  0  0  0  0  0  0  0
  -31.6800  -15.1623   23.1399 C   0  0  2  0  0  0  0  0  0  0  0  0
  -31.9998  -16.5633   22.5201 C   0  0  1  0  0  0  0  0  0  0  0  0
  -24.8772  -18.5261   29.4447 C   0  0  0  0  0  0  0  0  0  0  0  0
  -25.8952  -11.6663   20.3342 N   0  0  0  0  0  0  0  0  0  0  0  0
  -31.0963  -12.7244   25.0259 N   0  0  0  0  0  0  0  0  0  0  0  0
  -26.2127  -12.9641   20.1900 N   0  0  0  0  0  0  0  0  0  0  0  0
  -24.2415  -15.0442   28.8644 N   0  0  0  0  0  0  0  0  0  0  0  0
  -30.0272  -13.2210   20.3040 N   0  0  0  0  0  0  0  0  0  0  0  0
  -25.3339  -15.1558   20.3771 N   0  0  0  0  0  0  0  0  0  0  0  0
  -21.8447  -12.5319   21.5334 N   0  0  0  0  0  0  0  0  0  0  0  0
  -21.5131  -14.0970   26.6384 N   0  0  0  0  0  0  0  0  0  0  0  0
  -25.5430  -16.9695   31.3256 N   0  0  0  0  0  0  0  0  0  0  0  0
  -27.6615  -15.2519   33.6983 N   0  3  0  0  0  0  0  0  0  0  0  0
  -30.7833  -17.4195   22.4739 N   0  3  0  0  0  0  0  0  0  0  0  0
  -22.5228  -14.7015   21.2303 O   0  0  0  0  0  0  0  0  0  0  0  0
  -31.5829   -9.3834   26.2549 O   0  0  0  0  0  0  0  0  0  0  0  0
  -23.2489  -15.6484   26.5873 O   0  0  0  0  0  0  0  0  0  0  0  0
  -32.1076  -14.2027   20.6330 O   0  0  0  0  0  0  0  0  0  0  0  0
  -22.9456  -16.3776   30.2712 O   0  0  0  0  0  0  0  0  0  0  0  0
  -27.6218  -15.9996   30.9861 O   0  0  0  0  0  0  0  0  0  0  0  0
  -21.8377   -6.9649   21.7424 O   0  0  0  0  0  0  0  0  0  0  0  0
  -28.3660  -11.5314   25.8963 O   0  0  0  0  0  0  0  0  0  1  0  0
  -22.3863   -2.8464   18.1174 F   0  0  0  0  0  0  0  0  0  0  0  0
  -19.6406   -5.9484   20.4074 F   0  0  0  0  0  0  0  0  0  0  0  0
  -33.0833  -13.6607   26.3888 S   0  0  0  0  0  0  0  0  0  0  0  0
  1  2  1  0  0  0  0
  1  5  2  0  0  0  0
  2  6  2  0  0  0  0
  3  8  2  0  0  0  0
  3 16  1  0  0  0  0
  4  9  1  0  0  0  0
  4 16  2  0  0  0  0
  5 18  1  0  0  0  0
  6 20  1  0  0  0  0
  7 10  2  0  0  0  0
  7 19  1  0  0  0  0
  8 22  1  0  0  0  0
  9 22  2  0  0  0  0
 10 23  1  0  0  0  0
 11 12  2  0  0  0  0
 11 24  1  0  0  0  0
 12 25  1  0  0  0  0
 13 21  1  0  0  0  0
 13 23  2  0  0  0  0
 14 25  2  0  0  0  0
 14 26  1  0  0  0  0
 15 28  2  0  0  0  0
 15 91  1  0  0  0  0
 16 27  1  0  0  0  0
 17 27  1  0  0  0  0
 17 29  2  0  0  0  0
 17 31  1  0  0  0  0
 18 20  2  0  0  0  0
 18 37  1  0  0  0  0
 19 21  2  0  0  0  0
 19 38  1  0  0  0  0
 20 46  1  0  0  0  0
 21 39  1  0  0  0  0
 22 87  1  0  0  0  0
 23 88  1  0  0  0  0
 24 26  2  0  0  0  0
 24 87  1  0  0  0  0
 25 89  1  0  0  0  0
 26 90  1  0  0  0  0
 27 70  2  0  0  0  0
 28 32  1  0  0  0  0
 28 71  1  0  0  0  0
 29 72  1  0  0  0  0
 29 75  1  0  0  0  0
 30 63  1  0  0  0  0
 30 71  2  0  0  0  0
 30 91  1  0  0  0  0
 31 76  1  0  0  0  0
 31 81  2  0  0  0  0
 32 58  1  0  0  0  0
 32 82  2  0  0  0  0
 33 47  1  0  0  0  0
 33 77  1  0  0  0  0
 33 83  2  0  0  0  0
 34 59  1  0  0  0  0
 34 74  1  0  0  0  0
 34 84  2  0  0  0  0
 35 64  1  0  0  0  0
 35 73  1  0  0  0  0
 35 85  2  0  0  0  0
 36 65  1  0  0  0  0
 36 78  1  0  0  0  0
 36 86  2  0  0  0  0
 37 40  1  0  0  0  0
 38 47  1  0  0  0  0
 39 73  1  0  0  0  0
 40 42  1  0  0  0  0
 41 43  1  0  0  0  0
 41 44  1  0  0  0  0
 42 46  1  0  0  0  0
 43 48  1  0  0  0  0
 44 74  1  0  0  0  0
 45 48  1  0  0  0  0
 45 74  1  0  0  0  0
 46 77  1  0  0  0  0
 47 73  1  0  0  0  0
 48 72  1  0  0  0  0
 49 60  1  0  0  0  0
 50 65  1  0  0  0  0
 51 66  1  0  0  0  0
 52 66  1  0  0  0  0
 53 69  1  0  0  0  0
 54 69  1  0  0  0  0
 55 69  1  0  0  0  0
 56 79  1  0  0  0  0
 57 80  1  0  0  0  0
 58 62  1  0  0  0  0
 59 67  1  0  0  0  0
 60 63  1  0  0  0  0
 61 66  1  0  0  0  0
 61 68  1  0  0  0  0
 62 88  1  0  0  0  0
 63 67  1  0  0  0  0
 64 69  1  0  0  0  0
 64 78  1  0  0  0  0
 65 79  1  0  0  0  0
 67 68  1  0  0  0  0
 68 80  1  0  0  0  0
 70 72  1  0  0  0  0
M  CHG  2  79   1  80   1
M  ISO  4  34 100  59 100  62 101  88 101
M  END
> <Batch ID>
0189

> <Smiles>
CCC(c1nc(C(=O)C[101CH2:1][101O:1]c2ccc3c(c2)CN(C(=O)C(NC(=O)C(C)NC)C(C)(C)C)C(C(=O)NC2CCCc4ccccc42)C3)cs1)C([100CH2:0][100C:0](=O)N1CCCC(n2nc(-c3ccc(Oc4ccc(F)cc4F)cc3)c(C(N)=O)c2N)C1)C(CC(C)C)NC

> <Shape>
0.143

> <Color>
0.167

> <Negative vol penalty>
0.000

$$$$

  -OEChem-04052305183D

 84 92  0     1  0  0  0  0  0999 V2000
  -19.9478  -21.4694   20.9944 C   0  0  0  0  0  0  0  0  0  0  0  0
  -21.3086  -21.4794   20.7052 C   0  0  0  0  0  0  0  0  0  0  0  0
  -25.2097  -11.7537   24.2871 C   0  0  0  0  0  0  0  0  0  0  0  0
  -24.2057  -13.6855   25.3345 C   0  0  0  0  0  0  0  0  0  0  0  0
  -19.2205  -22.6584   20.9611 C   0  0  0  0  0  0  0  0  0  0  0  0
  -21.9426  -22.6784   20.3814 C   0  0  0  0  0  0  0  0  0  0  0  0
  -27.6795  -24.3036   21.7790 C   0  0  0  0  0  0  0  0  0  0  0  0
  -24.8630  -10.9749   25.3911 C   0  0  0  0  0  0  0  0  0  0  0  0
  -23.8590  -12.9067   26.4386 C   0  0  0  0  0  0  0  0  0  0  0  0
  -28.8663  -24.2775   21.0479 C   0  0  0  0  0  0  0  0  0  0  0  0
  -22.0960   -9.4465   26.5913 C   0  0  0  0  0  0  0  0  0  0  0  0
  -21.5318   -8.1940   26.3496 C   0  0  0  0  0  0  0  0  0  0  0  0
  -28.5469  -26.5947   20.4582 C   0  0  0  0  0  0  0  0  0  0  0  0
  -23.3565   -7.1433   27.5344 C   0  0  0  0  0  0  0  0  0  0  0  0
  -26.4414  -22.7364   17.4881 C   0  0  0  0  0  0  0  0  0  0  0  0
  -24.8810  -13.1090   24.2588 C   0  0  0  0  0  0  0  0  0  0  0  0
  -24.4691  -14.1411   21.9625 C   0  0  0  0  0  0  0  0  0  0  0  0
  -19.8480  -23.8741   20.6462 C   0  0  0  0  0  0  0  0  0  0  0  0
  -26.9106  -25.4743   21.8464 C   0  0  0  0  0  0  0  0  0  0  0  0
  -21.2228  -23.8846   20.3426 C   0  0  0  0  0  0  0  0  0  0  0  0
  -27.3520  -26.6338   21.1930 C   0  0  0  0  0  0  0  0  0  0  0  0
  -24.1877  -11.5514   26.4669 C   0  0  0  0  0  0  0  0  0  0  0  0
  -29.2987  -25.4223   20.3849 C   0  0  0  0  0  0  0  0  0  0  0  0
  -23.2906   -9.5474   27.3045 C   0  0  0  0  0  0  0  0  0  0  0  0
  -22.1619   -7.0424   26.8212 C   0  0  0  0  0  0  0  0  0  0  0  0
  -23.9207   -8.3959   27.7760 C   0  0  0  0  0  0  0  0  0  0  0  0
  -25.2393  -13.9142   23.1189 C   0  0  0  0  0  0  0  0  0  0  0  0
  -27.7307  -22.4935   17.9161 C   0  0  0  0  0  0  0  0  0  0  0  0
  -25.4739  -21.8970   18.0014 C   0  0  0  0  0  0  0  0  0  0  0  0
  -25.2473  -14.9664   21.1881 C   0  0  0  0  0  0  0  0  0  0  0  0
  -27.0289  -20.7597   19.2078 C   0  0  0  0  0  0  0  0  0  0  0  0
  -23.1666  -13.6498   21.6192 C   0  0  0  0  0  0  0  0  0  0  0  0
  -23.9689  -26.2805   20.9517 C   0  0  0  0  0  0  0  0  0  0  0  0
  -24.6823  -29.0505   22.4816 C   0  0  0  0  0  0  0  0  0  0  0  0
  -27.0779  -31.2076   23.6018 C   0  0  0  0  0  0  0  0  0  0  0  0
  -28.5957  -19.3782   20.6159 C   0  0  0  0  0  0  0  0  0  0  0  0
  -19.0106  -25.1265   20.5766 C   0  0  0  0  0  0  0  0  0  0  0  0
  -25.6465  -25.4936   22.6613 C   0  0  0  0  0  0  0  0  0  0  0  0
  -26.5734  -27.9217   21.2507 C   0  0  0  0  0  0  0  0  0  0  0  0
  -19.8344  -26.4116   20.5907 C   0  0  0  0  0  0  0  0  0  0  0  0
  -30.0985  -16.3280   21.6720 C   0  0  0  0  0  0  0  0  0  0  0  0
  -21.0030  -26.3073   19.6158 C   0  0  0  0  0  0  0  0  0  0  0  0
  -28.9049  -15.4468   22.0474 C   0  0  0  0  0  0  0  0  0  0  0  0
  -29.8637  -17.7904   22.0463 C   0  0  0  0  0  0  0  0  0  0  0  0
  -27.4226  -17.4889   21.9081 C   0  0  0  0  0  0  0  0  0  0  0  0
  -21.9513  -25.1689   20.0112 C   0  0  1  0  0  0  0  0  0  0  0  0
  -24.6794  -26.5949   22.2378 C   0  0  1  0  0  0  0  0  0  0  0  0
  -27.5857  -16.0180   21.4916 C   0  0  2  0  0  0  0  0  0  0  0  0
  -27.3537  -33.4051   24.7817 C   0  0  0  0  0  0  0  0  0  0  0  0
  -30.7245  -22.0117   17.0050 C   0  0  0  0  0  0  0  0  0  0  0  0
  -31.1906  -26.9362   17.9799 C   0  0  0  0  0  0  0  0  0  0  0  0
  -23.8962  -30.5190   19.9252 C   0  0  0  0  0  0  0  0  0  0  0  0
  -25.0684  -32.5458   20.8118 C   0  0  0  0  0  0  0  0  0  0  0  0
  -23.1092  -31.6049   22.0361 C   0  0  0  0  0  0  0  0  0  0  0  0
  -28.5593  -29.9540   25.8363 C   0  0  0  0  0  0  0  0  0  0  0  0
  -30.8760  -24.4854   17.4750 C   0  0  0  0  0  0  0  0  0  0  0  0
  -25.3108  -30.3628   22.0793 C   0  0  1  0  0  0  0  0  0  0  0  0
  -27.2670  -31.8953   24.9419 C   0  0  2  0  0  0  0  0  0  0  0  0
  -30.1261  -23.1795   17.7845 C   0  0  1  0  0  0  0  0  0  0  0  0
  -30.3648  -25.6908   18.2761 C   0  0  1  0  0  0  0  0  0  1  0  0
  -24.3600  -31.2335   21.2102 C   0  0  0  0  0  0  0  0  0  0  0  0
  -26.4165  -14.5443   23.0861 N   0  0  0  0  0  0  0  0  0  0  0  0
  -28.0614  -21.5101   18.7785 N   0  0  0  0  0  0  0  0  0  0  0  0
  -25.7332  -20.8946   18.8664 N   0  0  0  0  0  0  0  0  0  0  0  0
  -26.3919  -15.1753   21.8998 N   0  0  0  0  0  0  0  0  0  0  0  0
  -25.3408  -27.8885   22.0551 N   0  0  0  0  0  0  0  0  0  0  0  0
  -28.5982  -18.2642   21.4818 N   0  0  0  0  0  0  0  0  0  0  0  0
  -25.0574  -15.5266   19.9746 N   0  0  0  0  0  0  0  0  0  0  0  0
  -22.5070  -12.8126   22.5293 N   0  0  0  0  0  0  0  0  0  0  0  0
  -28.7301  -23.3137   17.4239 N   0  0  0  0  0  0  0  0  0  0  0  0
  -27.3390  -19.7167   20.1154 N   0  0  0  0  0  0  0  0  0  0  0  0
  -22.7932  -25.5735   21.1167 N   0  0  0  0  0  0  0  0  0  0  0  0
  -25.7445  -31.0038   23.3160 N   0  0  0  0  0  0  0  0  0  0  0  0
  -28.5185  -31.4195   25.5963 N   0  3  0  0  0  0  0  0  0  0  0  0
  -22.6113  -13.9312   20.5302 O   0  0  0  0  0  0  0  0  0  0  0  0
  -24.4510  -26.6532   19.8885 O   0  0  0  0  0  0  0  0  0  0  0  0
  -23.6493  -29.0562   23.1557 O   0  0  0  0  0  0  0  0  0  0  0  0
  -28.0188  -30.8869   22.8791 O   0  0  0  0  0  0  0  0  0  0  0  0
  -29.6361  -19.9703   20.3174 O   0  0  0  0  0  0  0  0  0  0  0  0
  -23.8491  -10.7917   27.5443 O   0  0  0  0  0  0  0  0  0  0  0  0
  -30.4564  -25.3995   19.6701 O   0  0  0  0  0  0  0  0  0  1  0  0
  -21.6192   -5.8398   26.5903 F   0  0  0  0  0  0  0  0  0  0  0  0
  -25.0679   -8.4866   28.4628 F   0  0  0  0  0  0  0  0  0  0  0  0
  -24.1986  -22.0786   17.6258 F   0  0  0  0  0  0  0  0  0  0  0  0
  1  2  1  0  0  0  0
  1  5  2  0  0  0  0
  2  6  2  0  0  0  0
  3  8  2  0  0  0  0
  3 16  1  0  0  0  0
  4  9  1  0  0  0  0
  4 16  2  0  0  0  0
  5 18  1  0  0  0  0
  6 20  1  0  0  0  0
  7 10  2  0  0  0  0
  7 19  1  0  0  0  0
  8 22  1  0  0  0  0
  9 22  2  0  0  0  0
 10 23  1  0  0  0  0
 11 12  2  0  0  0  0
 11 24  1  0  0  0  0
 12 25  1  0  0  0  0
 13 21  1  0  0  0  0
 13 23  2  0  0  0  0
 14 25  2  0  0  0  0
 14 26  1  0  0  0  0
 15 28  1  0  0  0  0
 15 29  2  0  0  0  0
 16 27  1  0  0  0  0
 17 27  1  0  0  0  0
 17 30  2  0  0  0  0
 17 32  1  0  0  0  0
 18 20  2  0  0  0  0
 18 37  1  0  0  0  0
 19 21  2  0  0  0  0
 19 38  1  0  0  0  0
 20 46  1  0  0  0  0
 21 39  1  0  0  0  0
 22 80  1  0  0  0  0
 23 81  1  0  0  0  0
 24 26  2  0  0  0  0
 24 80  1  0  0  0  0
 25 82  1  0  0  0  0
 26 83  1  0  0  0  0
 27 62  2  0  0  0  0
 28 63  2  0  0  0  0
 28 70  1  0  0  0  0
 29 64  1  0  0  0  0
 29 84  1  0  0  0  0
 30 65  1  0  0  0  0
 30 68  1  0  0  0  0
 31 63  1  0  0  0  0
 31 64  2  0  0  0  0
 31 71  1  0  0  0  0
 32 69  1  0  0  0  0
 32 75  2  0  0  0  0
 33 47  1  0  0  0  0
 33 72  1  0  0  0  0
 33 76  2  0  0  0  0
 34 57  1  0  0  0  0
 34 66  1  0  0  0  0
 34 77  2  0  0  0  0
 35 58  1  0  0  0  0
 35 73  1  0  0  0  0
 35 78  2  0  0  0  0
 36 67  1  0  0  0  0
 36 71  1  0  0  0  0
 36 79  2  0  0  0  0
 37 40  1  0  0  0  0
 38 47  1  0  0  0  0
 39 66  1  0  0  0  0
 40 42  1  0  0  0  0
 41 43  1  0  0  0  0
 41 44  1  0  0  0  0
 42 46  1  0  0  0  0
 43 48  1  0  0  0  0
 44 67  1  0  0  0  0
 45 48  1  0  0  0  0
 45 67  1  0  0  0  0
 46 72  1  0  0  0  0
 47 66  1  0  0  0  0
 48 65  1  0  0  0  0
 49 58  1  0  0  0  0
 50 59  1  0  0  0  0
 51 60  1  0  0  0  0
 52 61  1  0  0  0  0
 53 61  1  0  0  0  0
 54 61  1  0  0  0  0
 55 74  1  0  0  0  0
 56 59  1  0  0  0  0
 56 60  1  0  0  0  0
 57 61  1  0  0  0  0
 57 73  1  0  0  0  0
 58 74  1  0  0  0  0
 59 70  1  0  0  0  0
 60 81  1  0  0  0  0
 62 65  1  0  0  0  0
M  CHG  1  74   1
M  ISO  4  36 100  60 101  71 100  81 101
M  END
> <Batch ID>
0189

> <Smiles>
CNC(C)C(=O)NC(C(=O)N1Cc2cc([101O:1][101CH:1](C)CC(C)Nc3cc(F)nc([100NH:0][100C:0](=O)N4CCCC(n5nc(-c6ccc(Oc7ccc(F)cc7F)cc6)c(C(N)=O)c5N)C4)n3)ccc2CC1C(=O)NC1CCCc2ccccc21)C(C)(C)C

> <Shape>
0.209

> <Color>
0.096

> <Negative vol penalty>
0.000

$$$$

  -OEChem-04052305183D

 89 97  0     1  0  0  0  0  0999 V2000
  -25.9802   -6.5820   21.4501 C   0  0  0  0  0  0  0  0  0  0  0  0
  -26.7332   -7.5574   20.8044 C   0  0  0  0  0  0  0  0  0  0  0  0
  -23.9352  -31.1783   21.9072 C   0  0  0  0  0  0  0  0  0  0  0  0
  -23.8462  -29.3492   23.4831 C   0  0  0  0  0  0  0  0  0  0  0  0
  -24.6509   -6.8369   21.7843 C   0  0  0  0  0  0  0  0  0  0  0  0
  -26.1569   -8.7881   20.4917 C   0  0  0  0  0  0  0  0  0  0  0  0
  -28.9226  -14.2523   20.4825 C   0  0  0  0  0  0  0  0  0  0  0  0
  -22.5456  -31.2882   21.9562 C   0  0  0  0  0  0  0  0  0  0  0  0
  -22.4565  -29.4591   23.5322 C   0  0  0  0  0  0  0  0  0  0  0  0
  -29.4678  -15.0259   19.4588 C   0  0  0  0  0  0  0  0  0  0  0  0
  -19.8161  -28.5403   21.6309 C   0  0  0  0  0  0  0  0  0  0  0  0
  -19.0700  -27.3638   21.5604 C   0  0  0  0  0  0  0  0  0  0  0  0
  -27.5736  -20.3638   20.0263 C   0  0  0  0  0  0  0  0  0  0  0  0
  -27.4073  -16.2715   19.3108 C   0  0  0  0  0  0  0  0  0  0  0  0
  -29.7037  -21.4649   20.2126 C   0  0  0  0  0  0  0  0  0  0  0  0
  -18.1106  -27.8424   23.7255 C   0  0  0  0  0  0  0  0  0  0  0  0
  -27.0801  -21.2813   20.9397 C   0  0  0  0  0  0  0  0  0  0  0  0
  -24.5855  -30.2088   22.6706 C   0  0  0  0  0  0  0  0  0  0  0  0
  -26.9558  -30.7547   23.4395 C   0  0  0  0  0  0  0  0  0  0  0  0
  -24.0608   -8.0748   21.4842 C   0  0  0  0  0  0  0  0  0  0  0  0
  -27.6096  -14.4757   20.9214 C   0  0  0  0  0  0  0  0  0  0  0  0
  -24.8180   -9.0593   20.8210 C   0  0  0  0  0  0  0  0  0  0  0  0
  -26.8486  -15.5011   20.3420 C   0  0  0  0  0  0  0  0  0  0  0  0
  -28.9114  -20.4642   19.6611 C   0  0  0  0  0  0  0  0  0  0  0  0
  -21.8062  -30.4287   22.7687 C   0  0  0  0  0  0  0  0  0  0  0  0
  -28.7092  -16.0338   18.8708 C   0  0  0  0  0  0  0  0  0  0  0  0
  -19.7095  -29.3678   22.7488 C   0  0  0  0  0  0  0  0  0  0  0  0
  -18.2173  -27.0149   22.6076 C   0  0  0  0  0  0  0  0  0  0  0  0
  -18.8567  -29.0189   23.7960 C   0  0  0  0  0  0  0  0  0  0  0  0
  -26.0209  -30.0944   22.6199 C   0  0  0  0  0  0  0  0  0  0  0  0
  -29.1148  -22.3333   21.1176 C   0  0  0  0  0  0  0  0  0  0  0  0
  -28.1769  -30.3106   22.9943 C   0  0  0  0  0  0  0  0  0  0  0  0
  -26.7398  -31.6862   24.5078 C   0  0  0  0  0  0  0  0  0  0  0  0
  -24.9420  -12.7485   20.9872 C   0  0  0  0  0  0  0  0  0  0  0  0
  -23.7964  -15.2952   22.6377 C   0  0  0  0  0  0  0  0  0  0  0  0
  -30.7746  -19.5040   18.2631 C   0  0  0  0  0  0  0  0  0  0  0  0
  -24.0238  -18.6245   23.3524 C   0  0  0  0  0  0  0  0  0  0  0  0
  -29.9181  -25.3353   20.1544 C   0  0  0  0  0  0  0  0  0  0  0  0
  -22.6065   -8.2870   21.8229 C   0  0  0  0  0  0  0  0  0  0  0  0
  -27.0453  -13.6501   22.0450 C   0  0  0  0  0  0  0  0  0  0  0  0
  -25.4412  -15.7946   20.7909 C   0  0  0  0  0  0  0  0  0  0  0  0
  -22.1815   -9.7528   21.7919 C   0  0  0  0  0  0  0  0  0  0  0  0
  -30.3657  -28.6934   19.0593 C   0  0  0  0  0  0  0  0  0  0  0  0
  -22.7030  -10.4333   20.5302 C   0  0  0  0  0  0  0  0  0  0  0  0
  -29.3873  -29.4928   19.9216 C   0  0  0  0  0  0  0  0  0  0  0  0
  -29.7999  -27.3255   18.6842 C   0  0  0  0  0  0  0  0  0  0  0  0
  -28.3645  -27.3097   20.6875 C   0  0  0  0  0  0  0  0  0  0  0  0
  -24.2358  -10.4157   20.4872 C   0  0  1  0  0  0  0  0  0  0  0  0
  -25.5200  -13.6260   22.0612 C   0  0  1  0  0  0  0  0  0  0  0  0
  -28.9137  -28.6743   21.1377 C   0  0  2  0  0  0  0  0  0  0  0  0
  -32.4083  -18.3736   16.7459 C   0  0  0  0  0  0  0  0  0  0  0  0
  -22.9255  -20.4276   24.7089 C   0  0  0  0  0  0  0  0  0  0  0  0
  -32.5147  -23.5686   23.6393 C   0  0  0  0  0  0  0  0  0  0  0  0
  -31.0154  -25.5621   23.6610 C   0  0  0  0  0  0  0  0  0  0  0  0
  -30.9476  -23.9421   25.5587 C   0  0  0  0  0  0  0  0  0  0  0  0
  -21.5048  -15.4092   20.6263 C   0  0  0  0  0  0  0  0  0  0  0  0
  -21.0028  -17.7249   21.4347 C   0  0  0  0  0  0  0  0  0  0  0  0
  -20.8270  -15.7928   23.0028 C   0  0  0  0  0  0  0  0  0  0  0  0
  -26.4969  -19.1293   24.8977 C   0  0  0  0  0  0  0  0  0  0  0  0
  -29.9830  -23.3115   23.2807 C   0  0  0  0  0  0  0  0  0  0  0  0
  -30.6503  -16.9984   17.8922 C   0  0  0  0  0  0  0  0  0  1  0  0
  -29.9362  -23.4184   21.7306 C   0  0  2  0  0  0  0  0  0  0  0  0
  -23.1114  -16.5886   22.2676 C   0  0  1  0  0  0  0  0  0  0  0  0
  -30.9702  -18.3564   17.2626 C   0  0  1  0  0  0  0  0  0  0  0  0
  -24.0214  -19.3738   24.6727 C   0  0  2  0  0  0  0  0  0  0  0  0
  -31.1168  -24.0680   24.0345 C   0  0  0  0  0  0  0  0  0  0  0  0
  -21.6373  -16.3723   21.8228 C   0  0  0  0  0  0  0  0  0  0  0  0
  -27.8188  -22.2670   21.4968 N   0  0  0  0  0  0  0  0  0  0  0  0
  -26.5986  -29.2919   21.7219 N   0  0  0  0  0  0  0  0  0  0  0  0
  -27.9096  -29.4452   21.9746 N   0  0  0  0  0  0  0  0  0  0  0  0
  -24.9319  -14.9559   21.8885 N   0  0  0  0  0  0  0  0  0  0  0  0
  -29.3707  -26.5999   19.8822 N   0  0  0  0  0  0  0  0  0  0  0  0
  -29.4424  -30.5799   23.3794 N   0  0  0  0  0  0  0  0  0  0  0  0
  -25.4220  -32.0335   24.8353 N   0  0  0  0  0  0  0  0  0  0  0  0
  -29.4647  -19.5500   18.7330 N   0  0  0  0  0  0  0  0  0  0  0  0
  -24.7777  -11.4298   21.3660 N   0  0  0  0  0  0  0  0  0  0  0  0
  -23.2650  -17.4750   23.4161 N   0  0  0  0  0  0  0  0  0  0  0  0
  -29.4617  -24.7189   21.3131 N   0  0  0  0  0  0  0  0  0  0  0  0
  -25.3317  -20.0508   24.8865 N   0  3  0  0  0  0  0  0  0  0  0  0
  -27.6878  -32.2081   25.1421 O   0  0  0  0  0  0  0  0  0  0  0  0
  -24.6641  -13.2323   19.8961 O   0  0  0  0  0  0  0  0  0  0  0  0
  -23.3449  -14.6148   23.5622 O   0  0  0  0  0  0  0  0  0  0  0  0
  -31.6937  -20.2598   18.5649 O   0  0  0  0  0  0  0  0  0  0  0  0
  -24.6346  -19.0214   22.3624 O   0  0  0  0  0  0  0  0  0  0  0  0
  -30.7559  -24.7978   19.4221 O   0  0  0  0  0  0  0  0  0  0  0  0
  -20.4502  -30.5358   22.8170 O   0  0  0  0  0  0  0  0  0  0  0  0
  -29.2387  -16.7899   17.8709 O   0  0  0  0  0  0  0  0  0  1  0  0
  -17.4998  -25.8859   22.5390 F   0  0  0  0  0  0  0  0  0  0  0  0
  -18.7492  -29.8104   24.8720 F   0  0  0  0  0  0  0  0  0  0  0  0
  1  2  1  0  0  0  0
  1  5  2  0  0  0  0
  2  6  2  0  0  0  0
  3  8  2  0  0  0  0
  3 18  1  0  0  0  0
  4  9  1  0  0  0  0
  4 18  2  0  0  0  0
  5 20  1  0  0  0  0
  6 22  1  0  0  0  0
  7 10  2  0  0  0  0
  7 21  1  0  0  0  0
  8 25  1  0  0  0  0
  9 25  2  0  0  0  0
 10 26  1  0  0  0  0
 11 12  2  0  0  0  0
 11 27  1  0  0  0  0
 12 28  1  0  0  0  0
 13 17  2  0  0  0  0
 13 24  1  0  0  0  0
 14 23  1  0  0  0  0
 14 26  2  0  0  0  0
 15 24  2  0  0  0  0
 15 31  1  0  0  0  0
 16 28  2  0  0  0  0
 16 29  1  0  0  0  0
 17 68  1  0  0  0  0
 18 30  1  0  0  0  0
 19 30  1  0  0  0  0
 19 32  2  0  0  0  0
 19 33  1  0  0  0  0
 20 22  2  0  0  0  0
 20 39  1  0  0  0  0
 21 23  2  0  0  0  0
 21 40  1  0  0  0  0
 22 48  1  0  0  0  0
 23 41  1  0  0  0  0
 24 75  1  0  0  0  0
 25 86  1  0  0  0  0
 26 87  1  0  0  0  0
 27 29  2  0  0  0  0
 27 86  1  0  0  0  0
 28 88  1  0  0  0  0
 29 89  1  0  0  0  0
 30 69  2  0  0  0  0
 31 62  1  0  0  0  0
 31 68  2  0  0  0  0
 32 70  1  0  0  0  0
 32 73  1  0  0  0  0
 33 74  1  0  0  0  0
 33 80  2  0  0  0  0
 34 49  1  0  0  0  0
 34 76  1  0  0  0  0
 34 81  2  0  0  0  0
 35 63  1  0  0  0  0
 35 71  1  0  0  0  0
 35 82  2  0  0  0  0
 36 64  1  0  0  0  0
 36 75  1  0  0  0  0
 36 83  2  0  0  0  0
 37 65  1  0  0  0  0
 37 77  1  0  0  0  0
 37 84  2  0  0  0  0
 38 72  1  0  0  0  0
 38 78  1  0  0  0  0
 38 85  2  0  0  0  0
 39 42  1  0  0  0  0
 40 49  1  0  0  0  0
 41 71  1  0  0  0  0
 42 44  1  0  0  0  0
 43 45  1  0  0  0  0
 43 46  1  0  0  0  0
 44 48  1  0  0  0  0
 45 50  1  0  0  0  0
 46 72  1  0  0  0  0
 47 50  1  0  0  0  0
 47 72  1  0  0  0  0
 48 76  1  0  0  0  0
 49 71  1  0  0  0  0
 50 70  1  0  0  0  0
 51 64  1  0  0  0  0
 52 65  1  0  0  0  0
 53 66  1  0  0  0  0
 54 66  1  0  0  0  0
 55 66  1  0  0  0  0
 56 67  1  0  0  0  0
 57 67  1  0  0  0  0
 58 67  1  0  0  0  0
 59 79  1  0  0  0  0
 60 62  1  0  0  0  0
 60 66  1  0  0  0  0
 61 64  1  0  0  0  0
 61 87  1  0  0  0  0
 62 78  1  0  0  0  0
 63 67  1  0  0  0  0
 63 77  1  0  0  0  0
 65 79  1  0  0  0  0
 69 70  1  0  0  0  0
M  CHG  1  79   1
M  ISO  4  38 100  61 101  78 100  87 101
M  END
> <Batch ID>
0189

> <Smiles>
CNC(C)C(=O)NC(C(=O)N1Cc2cc([101O:1][101CH2:1]C(C)C(=O)Nc3ccnc(C(CC(C)(C)C)[100NH:0][100C:0](=O)N4CCCC(n5nc(-c6ccc(Oc7ccc(F)cc7F)cc6)c(C(N)=O)c5N)C4)c3)ccc2CC1C(=O)NC1CCCc2ccccc21)C(C)(C)C

> <Shape>
0.282

> <Color>
0.042

> <Negative vol penalty>
0.000

$$$$

  -OEChem-04052305183D

 87 95  0     1  0  0  0  0  0999 V2000
  -15.5504  -30.0965   24.4576 C   0  0  0  0  0  0  0  0  0  0  0  0
  -16.5000  -29.9082   23.4586 C   0  0  0  0  0  0  0  0  0  0  0  0
  -24.0243   -9.5811   21.9448 C   0  0  0  0  0  0  0  0  0  0  0  0
  -22.2907  -10.2196   20.3879 C   0  0  0  0  0  0  0  0  0  0  0  0
  -15.9022  -30.7496   25.6381 C   0  0  0  0  0  0  0  0  0  0  0  0
  -17.8019  -30.3740   23.6391 C   0  0  0  0  0  0  0  0  0  0  0  0
  -21.2907  -26.9831   22.2338 C   0  0  0  0  0  0  0  0  0  0  0  0
  -23.4984   -8.2904   22.0011 C   0  0  0  0  0  0  0  0  0  0  0  0
  -21.7648   -8.9289   20.4442 C   0  0  0  0  0  0  0  0  0  0  0  0
  -21.5354  -26.8501   20.8677 C   0  0  0  0  0  0  0  0  0  0  0  0
  -20.9265   -6.7135   23.5252 C   0  0  0  0  0  0  0  0  0  0  0  0
  -20.7968   -6.1216   24.7816 C   0  0  0  0  0  0  0  0  0  0  0  0
  -23.5014  -28.2298   21.0916 C   0  0  0  0  0  0  0  0  0  0  0  0
  -22.2681   -4.3339   24.0912 C   0  0  0  0  0  0  0  0  0  0  0  0
  -24.4364  -20.8651   17.8569 C   0  0  0  0  0  0  0  0  0  0  0  0
  -23.4204  -10.5457   21.1382 C   0  0  0  0  0  0  0  0  0  0  0  0
  -24.9403  -12.3613   20.1890 C   0  0  0  0  0  0  0  0  0  0  0  0
  -17.2115  -31.2151   25.8372 C   0  0  0  0  0  0  0  0  0  0  0  0
  -22.1449  -27.7507   23.0384 C   0  0  0  0  0  0  0  0  0  0  0  0
  -18.1713  -31.0351   24.8228 C   0  0  0  0  0  0  0  0  0  0  0  0
  -23.2668  -28.3689   22.4681 C   0  0  0  0  0  0  0  0  0  0  0  0
  -22.3687   -7.9643   21.2508 C   0  0  0  0  0  0  0  0  0  0  0  0
  -22.6392  -27.4758   20.2958 C   0  0  0  0  0  0  0  0  0  0  0  0
  -21.7270   -6.1156   22.5518 C   0  0  0  0  0  0  0  0  0  0  0  0
  -21.4676   -4.9318   25.0646 C   0  0  0  0  0  0  0  0  0  0  0  0
  -22.3978   -4.9258   22.8348 C   0  0  0  0  0  0  0  0  0  0  0  0
  -24.1414  -19.7225   18.5796 C   0  0  0  0  0  0  0  0  0  0  0  0
  -23.9629  -11.8793   21.0801 C   0  0  0  0  0  0  0  0  0  0  0  0
  -24.3145  -22.0829   18.4955 C   0  0  0  0  0  0  0  0  0  0  0  0
  -23.7443  -19.8733   19.8931 C   0  0  0  0  0  0  0  0  0  0  0  0
  -25.1072  -13.6782   20.5420 C   0  0  0  0  0  0  0  0  0  0  0  0
  -25.6353  -11.6797   19.1363 C   0  0  0  0  0  0  0  0  0  0  0  0
  -21.8048  -30.3643   24.8152 C   0  0  0  0  0  0  0  0  0  0  0  0
  -24.8608  -29.7027   25.6788 C   0  0  0  0  0  0  0  0  0  0  0  0
  -27.8247  -28.1925   24.9161 C   0  0  0  0  0  0  0  0  0  0  0  0
  -23.0228  -18.6405   21.9682 C   0  0  0  0  0  0  0  0  0  0  0  0
  -17.5325  -31.9571   27.1104 C   0  0  0  0  0  0  0  0  0  0  0  0
  -21.8821  -27.8623   24.5152 C   0  0  0  0  0  0  0  0  0  0  0  0
  -24.2258  -29.1874   23.2920 C   0  0  0  0  0  0  0  0  0  0  0  0
  -19.0297  -32.0884   27.3779 C   0  0  0  0  0  0  0  0  0  0  0  0
  -23.4347  -16.2459   24.5708 C   0  0  0  0  0  0  0  0  0  0  0  0
  -19.7604  -32.5349   26.1155 C   0  0  0  0  0  0  0  0  0  0  0  0
  -23.6892  -14.9361   23.8213 C   0  0  0  0  0  0  0  0  0  0  0  0
  -22.4198  -17.1269   23.8445 C   0  0  0  0  0  0  0  0  0  0  0  0
  -22.9816  -16.0844   21.6842 C   0  0  0  0  0  0  0  0  0  0  0  0
  -19.6002  -31.5041   24.9916 C   0  0  1  0  0  0  0  0  0  0  0  0
  -22.5302  -29.0908   25.1462 C   0  0  1  0  0  0  0  0  0  0  0  0
  -24.0457  -15.1922   22.3439 C   0  0  2  0  0  0  0  0  0  0  0  0
  -30.1499  -27.8586   25.7989 C   0  0  0  0  0  0  0  0  0  0  0  0
  -26.8560  -23.3692   19.9165 C   0  0  0  0  0  0  0  0  0  0  0  0
  -27.3892  -25.5596   18.8515 C   0  0  0  0  0  0  0  0  0  0  0  0
  -25.5747  -32.5573   24.8715 C   0  0  0  0  0  0  0  0  0  0  0  0
  -27.9845  -31.8784   24.8640 C   0  0  0  0  0  0  0  0  0  0  0  0
  -26.6652  -31.7653   26.9781 C   0  0  0  0  0  0  0  0  0  0  0  0
  -27.4856  -25.2545   25.0265 C   0  0  0  0  0  0  0  0  0  0  0  0
  -23.3260  -25.8375   17.1282 C   0  0  0  0  0  0  0  0  0  0  0  0
  -22.4509  -26.1390   18.3379 C   0  0  0  0  0  0  0  0  0  1  0  0
  -26.2253  -30.0744   25.1507 C   0  0  1  0  0  0  0  0  0  0  0  0
  -28.7382  -27.2967   25.7330 C   0  0  2  0  0  0  0  0  0  0  0  0
  -26.6455  -24.2331   18.6637 C   0  0  0  0  0  0  0  0  0  0  0  0
  -25.1322  -24.4371   18.3742 C   0  0  1  0  0  0  0  0  0  0  0  0
  -24.8192  -25.6334   17.4462 C   0  0  1  0  0  0  0  0  0  0  0  0
  -26.5934  -31.5551   25.4499 C   0  0  0  0  0  0  0  0  0  0  0  0
  -23.5387  -12.8138   21.9349 N   0  0  0  0  0  0  0  0  0  0  0  0
  -23.9236  -22.2007   19.7821 N   0  0  0  0  0  0  0  0  0  0  0  0
  -23.6340  -21.0777   20.4924 N   0  0  0  0  0  0  0  0  0  0  0  0
  -24.2530  -13.8962   21.5827 N   0  0  0  0  0  0  0  0  0  0  0  0
  -23.9225  -29.2719   24.7302 N   0  0  0  0  0  0  0  0  0  0  0  0
  -22.8253  -17.3298   22.4519 N   0  0  0  0  0  0  0  0  0  0  0  0
  -25.8998  -14.6592   20.0606 N   0  0  0  0  0  0  0  0  0  0  0  0
  -25.3430  -10.3281   18.9086 N   0  0  0  0  0  0  0  0  0  0  0  0
  -23.4388  -18.7078   20.6389 N   0  0  0  0  0  0  0  0  0  0  0  0
  -24.6080  -23.2217   17.7730 N   0  0  0  0  0  0  0  0  0  0  0  0
  -20.4808  -30.3767   25.2104 N   0  0  0  0  0  0  0  0  0  0  0  0
  -27.1582  -29.1020   25.7098 N   0  0  0  0  0  0  0  0  0  0  0  0
  -28.8020  -25.9349   25.1309 N   0  3  0  0  0  0  0  0  0  0  0  0
  -26.5020  -12.2480   18.4296 O   0  0  0  0  0  0  0  0  0  0  0  0
  -22.4026  -31.2694   24.2447 O   0  0  0  0  0  0  0  0  0  0  0  0
  -24.6379  -29.7845   26.8892 O   0  0  0  0  0  0  0  0  0  0  0  0
  -27.7161  -28.0976   23.6956 O   0  0  0  0  0  0  0  0  0  0  0  0
  -22.8629  -19.6291   22.6886 O   0  0  0  0  0  0  0  0  0  0  0  0
  -25.5237  -25.4665   16.2134 O   0  0  0  0  0  0  0  0  0  0  0  0
  -21.8554   -6.7049   21.3053 O   0  0  0  0  0  0  0  0  0  0  0  0
  -22.8800  -27.3482   18.9626 O   0  0  0  0  0  0  0  0  0  1  0  0
  -21.3442   -4.3643   26.2716 F   0  0  0  0  0  0  0  0  0  0  0  0
  -23.1692   -4.3473   21.9042 F   0  0  0  0  0  0  0  0  0  0  0  0
  -24.2444  -18.5149   18.0104 F   0  0  0  0  0  0  0  0  0  0  0  0
  1  2  1  0  0  0  0
  1  5  2  0  0  0  0
  2  6  2  0  0  0  0
  3  8  2  0  0  0  0
  3 16  1  0  0  0  0
  4  9  1  0  0  0  0
  4 16  2  0  0  0  0
  5 18  1  0  0  0  0
  6 20  1  0  0  0  0
  7 10  2  0  0  0  0
  7 19  1  0  0  0  0
  8 22  1  0  0  0  0
  9 22  2  0  0  0  0
 10 23  1  0  0  0  0
 11 12  2  0  0  0  0
 11 24  1  0  0  0  0
 12 25  1  0  0  0  0
 13 21  1  0  0  0  0
 13 23  2  0  0  0  0
 14 25  2  0  0  0  0
 14 26  1  0  0  0  0
 15 27  2  0  0  0  0
 15 29  1  0  0  0  0
 16 28  1  0  0  0  0
 17 28  1  0  0  0  0
 17 31  2  0  0  0  0
 17 32  1  0  0  0  0
 18 20  2  0  0  0  0
 18 37  1  0  0  0  0
 19 21  2  0  0  0  0
 19 38  1  0  0  0  0
 20 46  1  0  0  0  0
 21 39  1  0  0  0  0
 22 83  1  0  0  0  0
 23 84  1  0  0  0  0
 24 26  2  0  0  0  0
 24 83  1  0  0  0  0
 25 85  1  0  0  0  0
 26 86  1  0  0  0  0
 27 30  1  0  0  0  0
 27 87  1  0  0  0  0
 28 64  2  0  0  0  0
 29 65  2  0  0  0  0
 29 73  1  0  0  0  0
 30 66  2  0  0  0  0
 30 72  1  0  0  0  0
 31 67  1  0  0  0  0
 31 70  1  0  0  0  0
 32 71  1  0  0  0  0
 32 77  2  0  0  0  0
 33 47  1  0  0  0  0
 33 74  1  0  0  0  0
 33 78  2  0  0  0  0
 34 58  1  0  0  0  0
 34 68  1  0  0  0  0
 34 79  2  0  0  0  0
 35 59  1  0  0  0  0
 35 75  1  0  0  0  0
 35 80  2  0  0  0  0
 36 69  1  0  0  0  0
 36 72  1  0  0  0  0
 36 81  2  0  0  0  0
 37 40  1  0  0  0  0
 38 47  1  0  0  0  0
 39 68  1  0  0  0  0
 40 42  1  0  0  0  0
 41 43  1  0  0  0  0
 41 44  1  0  0  0  0
 42 46  1  0  0  0  0
 43 48  1  0  0  0  0
 44 69  1  0  0  0  0
 45 48  1  0  0  0  0
 45 69  1  0  0  0  0
 46 74  1  0  0  0  0
 47 68  1  0  0  0  0
 48 67  1  0  0  0  0
 49 59  1  0  0  0  0
 50 60  1  0  0  0  0
 51 60  1  0  0  0  0
 52 63  1  0  0  0  0
 53 63  1  0  0  0  0
 54 63  1  0  0  0  0
 55 76  1  0  0  0  0
 56 57  1  0  0  0  0
 56 62  1  0  0  0  0
 57 84  1  0  0  0  0
 58 63  1  0  0  0  0
 58 75  1  0  0  0  0
 59 76  1  0  0  0  0
 60 61  1  0  0  0  0
 61 62  1  0  0  0  0
 61 73  1  0  0  0  0
 62 82  1  0  0  0  0
 64 67  1  0  0  0  0
 65 66  1  0  0  0  0
M  CHG  1  76   1
M  ISO  4  36 100  57 101  72 100  84 101
M  END
> <Batch ID>
0189

> <Smiles>
CNC(C)C(=O)NC(C(=O)N1Cc2cc([101O:1][101CH2:1]CC(O)C(Nc3cc(F)c([100NH:0][100C:0](=O)N4CCCC(n5nc(-c6ccc(Oc7ccc(F)cc7F)cc6)c(C(N)=O)c5N)C4)nn3)C(C)C)ccc2CC1C(=O)NC1CCCc2ccccc21)C(C)(C)C

> <Shape>
0.217

> <Color>
0.090

> <Negative vol penalty>
0.000

$$$$

  -OEChem-04052305183D

 84 92  0     1  0  0  0  0  0999 V2000
  -17.2368  -26.4792   21.9128 C   0  0  0  0  0  0  0  0  0  0  0  0
  -18.4358  -25.8605   22.2519 C   0  0  0  0  0  0  0  0  0  0  0  0
  -24.4445   -9.7708   21.5730 C   0  0  0  0  0  0  0  0  0  0  0  0
  -22.1791  -10.5373   21.2299 C   0  0  0  0  0  0  0  0  0  0  0  0
  -17.2483  -27.7390   21.3157 C   0  0  0  0  0  0  0  0  0  0  0  0
  -19.6471  -26.5009   21.9931 C   0  0  0  0  0  0  0  0  0  0  0  0
  -24.7444  -26.2439   25.3780 C   0  0  0  0  0  0  0  0  0  0  0  0
  -24.0004   -8.4487   21.5523 C   0  0  0  0  0  0  0  0  0  0  0  0
  -21.7350   -9.2152   21.2092 C   0  0  0  0  0  0  0  0  0  0  0  0
  -25.9101  -25.4880   25.2622 C   0  0  0  0  0  0  0  0  0  0  0  0
  -23.0993   -6.1596   19.2326 C   0  0  0  0  0  0  0  0  0  0  0  0
  -23.8322   -5.2413   18.4809 C   0  0  0  0  0  0  0  0  0  0  0  0
  -26.9795  -27.3233   24.1190 C   0  0  0  0  0  0  0  0  0  0  0  0
  -26.4591  -21.4733   21.1927 C   0  0  0  0  0  0  0  0  0  0  0  0
  -24.2472   -3.9408   20.4744 C   0  0  0  0  0  0  0  0  0  0  0  0
  -23.5339  -10.8151   21.4118 C   0  0  0  0  0  0  0  0  0  0  0  0
  -24.4189  -12.9521   20.3359 C   0  0  0  0  0  0  0  0  0  0  0  0
  -18.4600  -28.3994   21.0582 C   0  0  0  0  0  0  0  0  0  0  0  0
  -24.6838  -27.5434   24.8546 C   0  0  0  0  0  0  0  0  0  0  0  0
  -19.6749  -27.7702   21.3907 C   0  0  0  0  0  0  0  0  0  0  0  0
  -25.8126  -28.0946   24.2317 C   0  0  0  0  0  0  0  0  0  0  0  0
  -25.2396  -20.7370   21.1628 C   0  0  0  0  0  0  0  0  0  0  0  0
  -22.6456   -8.1709   21.3704 C   0  0  0  0  0  0  0  0  0  0  0  0
  -27.0270  -26.0266   24.6301 C   0  0  0  0  0  0  0  0  0  0  0  0
  -22.9404   -5.9687   20.6052 C   0  0  0  0  0  0  0  0  0  0  0  0
  -24.4061   -4.1318   19.1018 C   0  0  0  0  0  0  0  0  0  0  0  0
  -23.5143   -4.8592   21.2261 C   0  0  0  0  0  0  0  0  0  0  0  0
  -23.9920  -12.1810   21.4336 C   0  0  0  0  0  0  0  0  0  0  0  0
  -24.5262  -20.8696   22.3338 C   0  0  0  0  0  0  0  0  0  0  0  0
  -24.7479  -14.1700   20.8790 C   0  0  0  0  0  0  0  0  0  0  0  0
  -26.6312  -22.1408   22.3855 C   0  0  0  0  0  0  0  0  0  0  0  0
  -24.5099  -12.5990   18.9493 C   0  0  0  0  0  0  0  0  0  0  0  0
  -22.9427  -28.9819   22.6179 C   0  0  0  0  0  0  0  0  0  0  0  0
  -24.4740  -31.6353   23.6841 C   0  0  0  0  0  0  0  0  0  0  0  0
  -28.8359  -23.3366   22.1462 C   0  0  0  0  0  0  0  0  0  0  0  0
  -27.1893  -32.9787   25.2555 C   0  0  0  0  0  0  0  0  0  0  0  0
  -23.6359  -18.4287   24.3102 C   0  0  0  0  0  0  0  0  0  0  0  0
  -18.4238  -29.7399   20.3679 C   0  0  0  0  0  0  0  0  0  0  0  0
  -23.4275  -28.3556   25.0113 C   0  0  0  0  0  0  0  0  0  0  0  0
  -25.8057  -29.4924   23.6709 C   0  0  0  0  0  0  0  0  0  0  0  0
  -19.7362  -30.5128   20.4692 C   0  0  0  0  0  0  0  0  0  0  0  0
  -25.2691  -15.5895   25.7060 C   0  0  0  0  0  0  0  0  0  0  0  0
  -20.9178  -29.6028   20.1488 C   0  0  0  0  0  0  0  0  0  0  0  0
  -25.1121  -14.5122   24.6314 C   0  0  0  0  0  0  0  0  0  0  0  0
  -24.0348  -16.4844   25.7925 C   0  0  0  0  0  0  0  0  0  0  0  0
  -23.4650  -16.0181   23.4406 C   0  0  0  0  0  0  0  0  0  0  0  0
  -21.0083  -28.4435   21.1485 C   0  0  1  0  0  0  0  0  0  0  0  0
  -23.3112  -29.4799   23.9868 C   0  0  1  0  0  0  0  0  0  0  0  0
  -24.7073  -15.1255   23.2775 C   0  0  2  0  0  0  0  0  0  0  0  0
  -24.8007  -19.9269   20.0017 C   0  0  0  0  0  0  0  0  0  0  0  0
  -30.9955  -24.5939   22.2070 C   0  0  0  0  0  0  0  0  0  0  0  0
  -28.1769  -35.1802   25.9450 C   0  0  0  0  0  0  0  0  0  0  0  0
  -25.3015  -32.1661   20.7955 C   0  0  0  0  0  0  0  0  0  0  0  0
  -27.0196  -33.7710   21.6559 C   0  0  0  0  0  0  0  0  0  0  0  0
  -24.5972  -34.1997   22.0694 C   0  0  0  0  0  0  0  0  0  0  0  0
  -27.1295  -32.2399   28.1207 C   0  0  0  0  0  0  0  0  0  0  0  0
  -23.2223  -20.2717   22.7004 C   0  0  0  0  0  0  0  0  0  0  0  0
  -28.9926  -25.5463   23.3805 C   0  0  0  0  0  0  0  0  0  1  0  0
  -25.7601  -32.3422   23.3302 C   0  0  1  0  0  0  0  0  0  0  0  0
  -29.7256  -24.2609   22.9892 C   0  0  1  0  0  0  0  0  0  0  0  0
  -27.3037  -34.0082   26.3653 C   0  0  2  0  0  0  0  0  0  0  0  0
  -25.6694  -33.0927   21.9715 C   0  0  0  0  0  0  0  0  0  0  0  0
  -24.0441  -12.8527   22.5870 N   0  0  0  0  0  0  0  0  0  0  0  0
  -24.5077  -14.0586   22.2170 N   0  0  0  0  0  0  0  0  0  0  0  0
  -24.5518  -30.2445   23.8433 N   0  0  0  0  0  0  0  0  0  0  0  0
  -23.7052  -17.0356   24.4759 N   0  0  0  0  0  0  0  0  0  0  0  0
  -25.2163  -15.3146   20.3379 N   0  0  0  0  0  0  0  0  0  0  0  0
  -24.1317  -11.3060   18.5629 N   0  0  0  0  0  0  0  0  0  0  0  0
  -27.6814  -22.9758   22.8360 N   0  0  0  0  0  0  0  0  0  0  0  0
  -21.5812  -28.8970   22.3977 N   0  0  0  0  0  0  0  0  0  0  0  0
  -26.0805  -33.1997   24.4662 N   0  0  0  0  0  0  0  0  0  0  0  0
  -23.3239  -18.8673   23.0292 N   0  0  0  0  0  0  0  0  0  0  0  0
  -27.8994  -33.3916   27.5843 N   0  3  0  0  0  0  0  0  0  0  0  0
  -24.9301  -13.4010   18.0811 O   0  0  0  0  0  0  0  0  0  0  0  0
  -23.8281  -28.6972   21.8199 O   0  0  0  0  0  0  0  0  0  0  0  0
  -23.4400  -32.2938   23.8213 O   0  0  0  0  0  0  0  0  0  0  0  0
  -29.1595  -22.9861   21.0151 O   0  0  0  0  0  0  0  0  0  0  0  0
  -28.0042  -32.0716   25.1018 O   0  0  0  0  0  0  0  0  0  0  0  0
  -23.8423  -19.2228   25.2341 O   0  0  0  0  0  0  0  0  0  0  0  0
  -22.2119   -6.8809   21.3500 O   0  0  0  0  0  0  0  0  0  0  0  0
  -28.1659  -25.2907   24.5152 O   0  0  0  0  0  0  0  0  0  1  0  0
  -25.1085   -3.2492   18.3795 F   0  0  0  0  0  0  0  0  0  0  0  0
  -23.3641   -4.6698   22.5441 F   0  0  0  0  0  0  0  0  0  0  0  0
  -25.3262  -21.8785   23.4627 S   0  0  0  0  0  0  0  0  0  0  0  0
  1  2  1  0  0  0  0
  1  5  2  0  0  0  0
  2  6  2  0  0  0  0
  3  8  2  0  0  0  0
  3 16  1  0  0  0  0
  4  9  1  0  0  0  0
  4 16  2  0  0  0  0
  5 18  1  0  0  0  0
  6 20  1  0  0  0  0
  7 10  2  0  0  0  0
  7 19  1  0  0  0  0
  8 23  1  0  0  0  0
  9 23  2  0  0  0  0
 10 24  1  0  0  0  0
 11 12  2  0  0  0  0
 11 25  1  0  0  0  0
 12 26  1  0  0  0  0
 13 21  1  0  0  0  0
 13 24  2  0  0  0  0
 14 22  1  0  0  0  0
 14 31  2  0  0  0  0
 15 26  2  0  0  0  0
 15 27  1  0  0  0  0
 16 28  1  0  0  0  0
 17 28  1  0  0  0  0
 17 30  2  0  0  0  0
 17 32  1  0  0  0  0
 18 20  2  0  0  0  0
 18 38  1  0  0  0  0
 19 21  2  0  0  0  0
 19 39  1  0  0  0  0
 20 47  1  0  0  0  0
 21 40  1  0  0  0  0
 22 29  2  0  0  0  0
 22 50  1  0  0  0  0
 23 80  1  0  0  0  0
 24 81  1  0  0  0  0
 25 27  2  0  0  0  0
 25 80  1  0  0  0  0
 26 82  1  0  0  0  0
 27 83  1  0  0  0  0
 28 63  2  0  0  0  0
 29 57  1  0  0  0  0
 29 84  1  0  0  0  0
 30 64  1  0  0  0  0
 30 67  1  0  0  0  0
 31 69  1  0  0  0  0
 31 84  1  0  0  0  0
 32 68  1  0  0  0  0
 32 74  2  0  0  0  0
 33 48  1  0  0  0  0
 33 70  1  0  0  0  0
 33 75  2  0  0  0  0
 34 59  1  0  0  0  0
 34 65  1  0  0  0  0
 34 76  2  0  0  0  0
 35 60  1  0  0  0  0
 35 69  1  0  0  0  0
 35 77  2  0  0  0  0
 36 61  1  0  0  0  0
 36 71  1  0  0  0  0
 36 78  2  0  0  0  0
 37 66  1  0  0  0  0
 37 72  1  0  0  0  0
 37 79  2  0  0  0  0
 38 41  1  0  0  0  0
 39 48  1  0  0  0  0
 40 65  1  0  0  0  0
 41 43  1  0  0  0  0
 42 44  1  0  0  0  0
 42 45  1  0  0  0  0
 43 47  1  0  0  0  0
 44 49  1  0  0  0  0
 45 66  1  0  0  0  0
 46 49  1  0  0  0  0
 46 66  1  0  0  0  0
 47 70  1  0  0  0  0
 48 65  1  0  0  0  0
 49 64  1  0  0  0  0
 51 60  1  0  0  0  0
 52 61  1  0  0  0  0
 53 62  1  0  0  0  0
 54 62  1  0  0  0  0
 55 62  1  0  0  0  0
 56 73  1  0  0  0  0
 57 72  1  0  0  0  0
 58 60  1  0  0  0  0
 58 81  1  0  0  0  0
 59 62  1  0  0  0  0
 59 71  1  0  0  0  0
 61 73  1  0  0  0  0
 63 64  1  0  0  0  0
M  CHG  1  73   1
M  ISO  4  37 100  58 101  72 100  81 101
M  END
> <Batch ID>
0189

> <Smiles>
CNC(C)C(=O)NC(C(=O)N1Cc2cc([101O:1][101CH2:1]C(C)C(=O)Nc3cc(C)c(C[100NH:0][100C:0](=O)N4CCCC(n5nc(-c6ccc(Oc7ccc(F)cc7F)cc6)c(C(N)=O)c5N)C4)s3)ccc2CC1C(=O)NC1CCCc2ccccc21)C(C)(C)C

> <Shape>
0.194

> <Color>
0.120

> <Negative vol penalty>
0.000

$$$$

  -OEChem-04052305183D

 85 93  0     1  0  0  0  0  0999 V2000
  -23.9788  -19.6567   19.5053 C   0  0  0  0  0  0  0  0  0  0  0  0
  -23.5566  -20.9816   19.5475 C   0  0  0  0  0  0  0  0  0  0  0  0
  -24.0008  -13.8669   21.3522 C   0  0  0  0  0  0  0  0  0  0  0  0
  -25.8350  -15.4348   21.2312 C   0  0  0  0  0  0  0  0  0  0  0  0
  -25.1859  -19.2916   20.1001 C   0  0  0  0  0  0  0  0  0  0  0  0
  -24.3407  -21.9421   20.1855 C   0  0  0  0  0  0  0  0  0  0  0  0
  -25.0189  -27.8091   18.5657 C   0  0  0  0  0  0  0  0  0  0  0  0
  -19.8869  -27.2642   22.7954 C   0  0  0  0  0  0  0  0  0  0  0  0
  -24.6541  -13.0326   20.4452 C   0  0  0  0  0  0  0  0  0  0  0  0
  -26.4884  -14.6004   20.3242 C   0  0  0  0  0  0  0  0  0  0  0  0
  -24.4264  -28.9839   19.0266 C   0  0  0  0  0  0  0  0  0  0  0  0
  -28.8042  -12.7124   18.2530 C   0  0  0  0  0  0  0  0  0  0  0  0
  -30.1658  -12.4810   18.4481 C   0  0  0  0  0  0  0  0  0  0  0  0
  -19.5988  -26.0337   23.3753 C   0  0  0  0  0  0  0  0  0  0  0  0
  -26.3132  -29.3569   20.4827 C   0  0  0  0  0  0  0  0  0  0  0  0
  -29.6938  -11.5362   20.6211 C   0  0  0  0  0  0  0  0  0  0  0  0
  -21.9751  -27.2531   23.9338 C   0  0  0  0  0  0  0  0  0  0  0  0
  -24.5912  -15.0680   21.7452 C   0  0  0  0  0  0  0  0  0  0  0  0
  -24.0253  -15.9119   24.0851 C   0  0  0  0  0  0  0  0  0  0  0  0
  -25.9899  -20.2499   20.7373 C   0  0  0  0  0  0  0  0  0  0  0  0
  -26.2600  -27.3930   19.0686 C   0  0  0  0  0  0  0  0  0  0  0  0
  -25.5590  -21.5892   20.7905 C   0  0  0  0  0  0  0  0  0  0  0  0
  -26.9205  -28.1778   20.0246 C   0  0  0  0  0  0  0  0  0  0  0  0
  -21.0956  -27.8922   23.0748 C   0  0  0  0  0  0  0  0  0  0  0  0
  -25.8979  -13.3993   19.9312 C   0  0  0  0  0  0  0  0  0  0  0  0
  -25.0722  -29.7566   19.9874 C   0  0  0  0  0  0  0  0  0  0  0  0
  -27.8874  -12.3557   19.2419 C   0  0  0  0  0  0  0  0  0  0  0  0
  -30.6106  -11.8929   19.6321 C   0  0  0  0  0  0  0  0  0  0  0  0
  -28.3322  -11.7676   20.4259 C   0  0  0  0  0  0  0  0  0  0  0  0
  -23.9166  -15.9305   22.6817 C   0  0  0  0  0  0  0  0  0  0  0  0
  -20.5454  -25.4778   24.2207 C   0  0  0  0  0  0  0  0  0  0  0  0
  -23.1929  -16.9195   24.5074 C   0  0  0  0  0  0  0  0  0  0  0  0
  -24.8088  -15.0600   24.9314 C   0  0  0  0  0  0  0  0  0  0  0  0
  -27.2917  -24.8507   20.6737 C   0  0  0  0  0  0  0  0  0  0  0  0
  -30.1967  -26.2115   20.1928 C   0  0  0  0  0  0  0  0  0  0  0  0
  -22.5778  -29.8909   22.6822 C   0  0  0  0  0  0  0  0  0  0  0  0
  -32.0054  -29.0396   19.5784 C   0  0  0  0  0  0  0  0  0  0  0  0
  -21.3738  -22.0657   24.1136 C   0  0  0  0  0  0  0  0  0  0  0  0
  -27.2638  -19.7991   21.4070 C   0  0  0  0  0  0  0  0  0  0  0  0
  -26.8981  -26.1371   18.5414 C   0  0  0  0  0  0  0  0  0  0  0  0
  -28.2637  -27.7855   20.5817 C   0  0  0  0  0  0  0  0  0  0  0  0
  -28.2167  -20.9450   21.7373 C   0  0  0  0  0  0  0  0  0  0  0  0
  -19.7584  -19.6351   21.9734 C   0  0  0  0  0  0  0  0  0  0  0  0
  -27.4607  -22.0954   22.3946 C   0  0  0  0  0  0  0  0  0  0  0  0
  -20.7150  -18.4467   22.0867 C   0  0  0  0  0  0  0  0  0  0  0  0
  -20.5191  -20.9578   21.9608 C   0  0  0  0  0  0  0  0  0  0  0  0
  -22.3790  -19.9739   23.2438 C   0  0  0  0  0  0  0  0  0  0  0  0
  -26.3938  -22.6645   21.4516 C   0  0  1  0  0  0  0  0  0  0  0  0
  -27.9253  -25.5413   19.4993 C   0  0  1  0  0  0  0  0  0  0  0  0
  -21.6697  -18.6081   23.2845 C   0  0  2  0  0  0  0  0  0  0  0  0
  -23.2912  -32.3035   22.6237 C   0  0  0  0  0  0  0  0  0  0  0  0
  -34.3634  -29.8429   19.2759 C   0  0  0  0  0  0  0  0  0  0  0  0
  -22.6409  -32.0423   19.4722 C   0  0  0  0  0  0  0  0  0  0  0  0
  -30.6457  -26.0202   23.2048 C   0  0  0  0  0  0  0  0  0  0  0  0
  -32.5272  -27.6534   22.9577 C   0  0  0  0  0  0  0  0  0  0  0  0
  -32.6412  -25.4396   21.8137 C   0  0  0  0  0  0  0  0  0  0  0  0
  -31.4560  -29.9764   16.8253 C   0  0  0  0  0  0  0  0  0  0  0  0
  -20.2694  -24.1583   24.8607 C   0  0  0  0  0  0  0  0  0  0  0  0
  -31.0507  -27.2029   20.9457 C   0  0  1  0  0  0  0  0  0  0  0  0
  -22.5380  -31.1991   21.8776 C   0  0  1  0  0  0  0  0  0  0  0  0
  -33.1117  -29.3308   18.5805 C   0  0  2  0  0  0  0  0  0  0  0  0
  -23.0698  -30.9537   20.4489 C   0  0  2  0  0  0  0  0  0  1  0  0
  -31.6900  -26.5857   22.2216 C   0  0  0  0  0  0  0  0  0  0  0  0
  -21.7303  -26.0578   24.5160 N   0  0  0  0  0  0  0  0  0  0  0  0
  -23.0809  -16.8750   22.2418 N   0  0  0  0  0  0  0  0  0  0  0  0
  -22.6568  -17.4592   23.3753 N   0  0  0  0  0  0  0  0  0  0  0  0
  -28.8438  -26.5458   20.0393 N   0  0  0  0  0  0  0  0  0  0  0  0
  -21.3954  -21.0566   23.1366 N   0  0  0  0  0  0  0  0  0  0  0  0
  -22.8745  -17.3876   25.7329 N   0  0  0  0  0  0  0  0  0  0  0  0
  -25.6087  -14.0769   24.3332 N   0  0  0  0  0  0  0  0  0  0  0  0
  -21.4169  -29.1445   22.4995 N   0  0  0  0  0  0  0  0  0  0  0  0
  -27.0039  -23.5171   20.4540 N   0  0  0  0  0  0  0  0  0  0  0  0
  -32.0175  -27.7218   19.9842 N   0  0  0  0  0  0  0  0  0  0  0  0
  -20.4171  -23.0574   23.9349 N   0  0  0  0  0  0  0  0  0  0  0  0
  -32.6657  -30.3589   17.5982 N   0  3  0  0  0  0  0  0  0  0  0  0
  -24.7871  -15.1567   26.1819 O   0  0  0  0  0  0  0  0  0  0  0  0
  -27.0808  -25.4807   21.7034 O   0  0  0  0  0  0  0  0  0  0  0  0
  -30.7126  -25.1818   19.7509 O   0  0  0  0  0  0  0  0  0  0  0  0
  -23.5485  -29.5903   23.3712 O   0  0  0  0  0  0  0  0  0  0  0  0
  -31.2123  -29.8963   19.9625 O   0  0  0  0  0  0  0  0  0  0  0  0
  -22.1469  -22.0791   25.0776 O   0  0  0  0  0  0  0  0  0  0  0  0
  -26.5358  -12.5854   19.0463 O   0  0  0  0  0  0  0  0  0  0  0  0
  -24.4959  -30.9034   20.4396 O   0  0  0  0  0  0  0  0  0  1  0  0
  -31.9181  -11.6693   19.8188 F   0  0  0  0  0  0  0  0  0  0  0  0
  -27.4560  -11.4217   21.3791 F   0  0  0  0  0  0  0  0  0  0  0  0
  1  2  1  0  0  0  0
  1  5  2  0  0  0  0
  2  6  2  0  0  0  0
  3  9  2  0  0  0  0
  3 18  1  0  0  0  0
  4 10  1  0  0  0  0
  4 18  2  0  0  0  0
  5 20  1  0  0  0  0
  6 22  1  0  0  0  0
  7 11  2  0  0  0  0
  7 21  1  0  0  0  0
  8 14  2  0  0  0  0
  8 24  1  0  0  0  0
  9 25  1  0  0  0  0
 10 25  2  0  0  0  0
 11 26  1  0  0  0  0
 12 13  2  0  0  0  0
 12 27  1  0  0  0  0
 13 28  1  0  0  0  0
 14 31  1  0  0  0  0
 15 23  1  0  0  0  0
 15 26  2  0  0  0  0
 16 28  2  0  0  0  0
 16 29  1  0  0  0  0
 17 24  2  0  0  0  0
 17 64  1  0  0  0  0
 18 30  1  0  0  0  0
 19 30  1  0  0  0  0
 19 32  2  0  0  0  0
 19 33  1  0  0  0  0
 20 22  2  0  0  0  0
 20 39  1  0  0  0  0
 21 23  2  0  0  0  0
 21 40  1  0  0  0  0
 22 48  1  0  0  0  0
 23 41  1  0  0  0  0
 24 71  1  0  0  0  0
 25 82  1  0  0  0  0
 26 83  1  0  0  0  0
 27 29  2  0  0  0  0
 27 82  1  0  0  0  0
 28 84  1  0  0  0  0
 29 85  1  0  0  0  0
 30 65  2  0  0  0  0
 31 58  1  0  0  0  0
 31 64  2  0  0  0  0
 32 66  1  0  0  0  0
 32 69  1  0  0  0  0
 33 70  1  0  0  0  0
 33 76  2  0  0  0  0
 34 49  1  0  0  0  0
 34 72  1  0  0  0  0
 34 77  2  0  0  0  0
 35 59  1  0  0  0  0
 35 67  1  0  0  0  0
 35 78  2  0  0  0  0
 36 60  1  0  0  0  0
 36 71  1  0  0  0  0
 36 79  2  0  0  0  0
 37 61  1  0  0  0  0
 37 73  1  0  0  0  0
 37 80  2  0  0  0  0
 38 68  1  0  0  0  0
 38 74  1  0  0  0  0
 38 81  2  0  0  0  0
 39 42  1  0  0  0  0
 40 49  1  0  0  0  0
 41 67  1  0  0  0  0
 42 44  1  0  0  0  0
 43 45  1  0  0  0  0
 43 46  1  0  0  0  0
 44 48  1  0  0  0  0
 45 50  1  0  0  0  0
 46 68  1  0  0  0  0
 47 50  1  0  0  0  0
 47 68  1  0  0  0  0
 48 72  1  0  0  0  0
 49 67  1  0  0  0  0
 50 66  1  0  0  0  0
 51 60  1  0  0  0  0
 52 61  1  0  0  0  0
 53 62  1  0  0  0  0
 54 63  1  0  0  0  0
 55 63  1  0  0  0  0
 56 63  1  0  0  0  0
 57 75  1  0  0  0  0
 58 74  1  0  0  0  0
 59 63  1  0  0  0  0
 59 73  1  0  0  0  0
 60 62  1  0  0  0  0
 61 75  1  0  0  0  0
 62 83  1  0  0  0  0
 65 66  1  0  0  0  0
M  CHG  1  75   1
M  ISO  4  38 100  62 101  74 100  83 101
M  END
> <Batch ID>
0189

> <Smiles>
CNC(C)C(=O)NC(C(=O)N1Cc2cc([101O:1][101CH:1](C)C(C)C(=O)Nc3ccc(C[100NH:0][100C:0](=O)N4CCCC(n5nc(-c6ccc(Oc7ccc(F)cc7F)cc6)c(C(N)=O)c5N)C4)nc3)ccc2CC1C(=O)NC1CCCc2ccccc21)C(C)(C)C

> <Shape>
0.213

> <Color>
0.068

> <Negative vol penalty>
0.000

$$$$

  -OEChem-04052305183D

 83 91  0     1  0  0  0  0  0999 V2000
  -29.0023  -10.3516   16.7582 C   0  0  0  0  0  0  0  0  0  0  0  0
  -27.6857  -10.7980   16.7069 C   0  0  0  0  0  0  0  0  0  0  0  0
  -26.1326  -31.3221   21.5238 C   0  0  0  0  0  0  0  0  0  0  0  0
  -25.9345  -29.6781   23.2830 C   0  0  0  0  0  0  0  0  0  0  0  0
  -29.8568  -10.8180   17.7564 C   0  0  0  0  0  0  0  0  0  0  0  0
  -27.2225  -11.7103   17.6543 C   0  0  0  0  0  0  0  0  0  0  0  0
  -22.6585  -17.1854   18.3680 C   0  0  0  0  0  0  0  0  0  0  0  0
  -26.1408  -32.3408   22.4766 C   0  0  0  0  0  0  0  0  0  0  0  0
  -25.9428  -30.6968   24.2359 C   0  0  0  0  0  0  0  0  0  0  0  0
  -21.6071  -17.6126   19.1778 C   0  0  0  0  0  0  0  0  0  0  0  0
  -23.8853  -33.9908   24.3778 C   0  0  0  0  0  0  0  0  0  0  0  0
  -23.0893  -35.1103   24.1355 C   0  0  0  0  0  0  0  0  0  0  0  0
  -23.1955  -18.4098   20.8090 C   0  0  0  0  0  0  0  0  0  0  0  0
  -25.0531  -36.5169   24.1834 C   0  0  0  0  0  0  0  0  0  0  0  0
  -26.0293  -29.9908   21.9270 C   0  0  0  0  0  0  0  0  0  0  0  0
  -27.1331  -28.2492   20.4249 C   0  0  0  0  0  0  0  0  0  0  0  0
  -29.4066  -11.7437   18.7108 C   0  0  0  0  0  0  0  0  0  0  0  0
  -23.9883  -17.3576   18.7782 C   0  0  0  0  0  0  0  0  0  0  0  0
  -28.0714  -12.1884   18.6670 C   0  0  0  0  0  0  0  0  0  0  0  0
  -24.2620  -17.9861   20.0014 C   0  0  0  0  0  0  0  0  0  0  0  0
  -26.0460  -32.0281   23.8326 C   0  0  0  0  0  0  0  0  0  0  0  0
  -21.8755  -18.2223   20.3999 C   0  0  0  0  0  0  0  0  0  0  0  0
  -25.2652  -34.1343   24.5230 C   0  0  0  0  0  0  0  0  0  0  0  0
  -23.6732  -36.3733   24.0383 C   0  0  0  0  0  0  0  0  0  0  0  0
  -25.8491  -35.3974   24.4257 C   0  0  0  0  0  0  0  0  0  0  0  0
  -26.0202  -28.9381   20.9432 C   0  0  0  0  0  0  0  0  0  0  0  0
  -26.5974  -27.3552   19.5303 C   0  0  0  0  0  0  0  0  0  0  0  0
  -21.1809  -23.0228   20.8869 C   0  0  0  0  0  0  0  0  0  0  0  0
  -20.8793  -21.2117   22.3688 C   0  0  0  0  0  0  0  0  0  0  0  0
  -28.5265  -28.4035   20.7254 C   0  0  0  0  0  0  0  0  0  0  0  0
  -26.4081  -15.4000   19.4233 C   0  0  0  0  0  0  0  0  0  0  0  0
  -28.0696  -18.1730   19.6924 C   0  0  0  0  0  0  0  0  0  0  0  0
  -28.0216  -21.5331   20.2873 C   0  0  0  0  0  0  0  0  0  0  0  0
  -21.2339  -24.7624   19.0656 C   0  0  0  0  0  0  0  0  0  0  0  0
  -30.3537  -12.1831   19.7992 C   0  0  0  0  0  0  0  0  0  0  0  0
  -25.1116  -16.9153   17.8809 C   0  0  0  0  0  0  0  0  0  0  0  0
  -25.6725  -18.2128   20.4783 C   0  0  0  0  0  0  0  0  0  0  0  0
  -29.8910  -13.4346   20.5407 C   0  0  0  0  0  0  0  0  0  0  0  0
  -22.8478  -26.7719   16.6090 C   0  0  0  0  0  0  0  0  0  0  0  0
  -28.4164  -13.3196   20.9136 C   0  0  0  0  0  0  0  0  0  0  0  0
  -23.9496  -27.4881   17.3933 C   0  0  0  0  0  0  0  0  0  0  0  0
  -21.5753  -26.6093   17.4385 C   0  0  0  0  0  0  0  0  0  0  0  0
  -22.8675  -26.6931   19.5343 C   0  0  0  0  0  0  0  0  0  0  0  0
  -27.5388  -13.1965   19.6621 C   0  0  1  0  0  0  0  0  0  0  0  0
  -26.4179  -16.6773   18.6320 C   0  0  1  0  0  0  0  0  0  0  0  0
  -24.1908  -26.8223   18.7623 C   0  0  2  0  0  0  0  0  0  0  0  0
  -28.8985  -23.8765   20.4796 C   0  0  0  0  0  0  0  0  0  0  0  0
  -19.3286  -19.7145   25.7900 C   0  0  0  0  0  0  0  0  0  0  0  0
  -21.2490  -18.1196   25.5524 C   0  0  0  0  0  0  0  0  0  0  0  0
  -19.9595  -16.7786   22.3488 C   0  0  0  0  0  0  0  0  0  0  0  0
  -28.9582  -17.2267   22.4538 C   0  0  0  0  0  0  0  0  0  0  0  0
  -29.6486  -19.5792   22.9611 C   0  0  0  0  0  0  0  0  0  0  0  0
  -30.7498  -18.3312   21.1030 C   0  0  0  0  0  0  0  0  0  0  0  0
  -27.4911  -22.0900   17.4295 C   0  0  0  0  0  0  0  0  0  0  0  0
  -28.3698  -19.1346   20.8168 C   0  0  1  0  0  0  0  0  0  0  0  0
  -28.6623  -22.6957   19.5508 C   0  0  2  0  0  0  0  0  0  0  0  0
  -19.9493  -18.6188   24.9135 C   0  0  0  0  0  0  0  0  0  0  0  0
  -20.1197  -19.0945   23.4486 C   0  0  2  0  0  0  0  0  0  0  0  0
  -20.7624  -18.0647   22.4956 C   0  0  2  0  0  0  0  0  0  1  0  0
  -29.4049  -18.5621   21.8258 C   0  0  0  0  0  0  0  0  0  0  0  0
  -24.8648  -28.5180   20.4211 N   0  0  0  0  0  0  0  0  0  0  0  0
  -20.3093  -22.1528   20.4228 N   0  0  0  0  0  0  0  0  0  0  0  0
  -20.1317  -21.0910   21.2925 N   0  0  0  0  0  0  0  0  0  0  0  0
  -25.2488  -27.5554   19.5655 N   0  0  0  0  0  0  0  0  0  0  0  0
  -26.7364  -17.7572   19.5684 N   0  0  0  0  0  0  0  0  0  0  0  0
  -21.8802  -25.9679   18.7193 N   0  0  0  0  0  0  0  0  0  0  0  0
  -27.1532  -26.4252   18.7249 N   0  0  0  0  0  0  0  0  0  0  0  0
  -28.9036  -29.3688   21.6689 N   0  0  0  0  0  0  0  0  0  0  0  0
  -21.6280  -24.2286   20.2921 N   0  0  0  0  0  0  0  0  0  0  0  0
  -20.9183  -20.3102   23.4123 N   0  0  0  0  0  0  0  0  0  0  0  0
  -27.3713  -14.4891   19.0332 N   0  0  0  0  0  0  0  0  0  0  0  0
  -28.7786  -20.3851   20.1862 N   0  0  0  0  0  0  0  0  0  0  0  0
  -27.7867  -23.1457   18.4319 N   0  3  0  0  0  0  0  0  0  0  0  0
  -29.4123  -27.7173   20.1615 O   0  0  0  0  0  0  0  0  0  0  0  0
  -25.5885  -15.2524   20.3222 O   0  0  0  0  0  0  0  0  0  0  0  0
  -28.9831  -17.8099   18.9472 O   0  0  0  0  0  0  0  0  0  0  0  0
  -26.9581  -21.6343   20.8949 O   0  0  0  0  0  0  0  0  0  0  0  0
  -20.4129  -24.2277   18.3160 O   0  0  0  0  0  0  0  0  0  0  0  0
  -26.0542  -33.0219   24.7627 O   0  0  0  0  0  0  0  0  0  0  0  0
  -20.8511  -18.6397   21.1926 O   0  0  0  0  0  0  0  0  0  1  0  0
  -22.9088  -37.4481   23.8041 F   0  0  0  0  0  0  0  0  0  0  0  0
  -27.1743  -35.5414   24.5631 F   0  0  0  0  0  0  0  0  0  0  0  0
  -21.8553  -22.6213   22.4120 S   0  0  0  0  0  0  0  0  0  0  0  0
  1  2  1  0  0  0  0
  1  5  2  0  0  0  0
  2  6  2  0  0  0  0
  3  8  2  0  0  0  0
  3 15  1  0  0  0  0
  4  9  1  0  0  0  0
  4 15  2  0  0  0  0
  5 17  1  0  0  0  0
  6 19  1  0  0  0  0
  7 10  2  0  0  0  0
  7 18  1  0  0  0  0
  8 21  1  0  0  0  0
  9 21  2  0  0  0  0
 10 22  1  0  0  0  0
 11 12  2  0  0  0  0
 11 23  1  0  0  0  0
 12 24  1  0  0  0  0
 13 20  1  0  0  0  0
 13 22  2  0  0  0  0
 14 24  2  0  0  0  0
 14 25  1  0  0  0  0
 15 26  1  0  0  0  0
 16 26  1  0  0  0  0
 16 27  2  0  0  0  0
 16 30  1  0  0  0  0
 17 19  2  0  0  0  0
 17 35  1  0  0  0  0
 18 20  2  0  0  0  0
 18 36  1  0  0  0  0
 19 44  1  0  0  0  0
 20 37  1  0  0  0  0
 21 79  1  0  0  0  0
 22 80  1  0  0  0  0
 23 25  2  0  0  0  0
 23 79  1  0  0  0  0
 24 81  1  0  0  0  0
 25 82  1  0  0  0  0
 26 61  2  0  0  0  0
 27 64  1  0  0  0  0
 27 67  1  0  0  0  0
 28 62  2  0  0  0  0
 28 69  1  0  0  0  0
 28 83  1  0  0  0  0
 29 63  2  0  0  0  0
 29 70  1  0  0  0  0
 29 83  1  0  0  0  0
 30 68  1  0  0  0  0
 30 74  2  0  0  0  0
 31 45  1  0  0  0  0
 31 71  1  0  0  0  0
 31 75  2  0  0  0  0
 32 55  1  0  0  0  0
 32 65  1  0  0  0  0
 32 76  2  0  0  0  0
 33 56  1  0  0  0  0
 33 72  1  0  0  0  0
 33 77  2  0  0  0  0
 34 66  1  0  0  0  0
 34 69  1  0  0  0  0
 34 78  2  0  0  0  0
 35 38  1  0  0  0  0
 36 45  1  0  0  0  0
 37 65  1  0  0  0  0
 38 40  1  0  0  0  0
 39 41  1  0  0  0  0
 39 42  1  0  0  0  0
 40 44  1  0  0  0  0
 41 46  1  0  0  0  0
 42 66  1  0  0  0  0
 43 46  1  0  0  0  0
 43 66  1  0  0  0  0
 44 71  1  0  0  0  0
 45 65  1  0  0  0  0
 46 64  1  0  0  0  0
 47 56  1  0  0  0  0
 48 57  1  0  0  0  0
 49 57  1  0  0  0  0
 50 59  1  0  0  0  0
 51 60  1  0  0  0  0
 52 60  1  0  0  0  0
 53 60  1  0  0  0  0
 54 73  1  0  0  0  0
 55 60  1  0  0  0  0
 55 72  1  0  0  0  0
 56 73  1  0  0  0  0
 57 58  1  0  0  0  0
 58 59  1  0  0  0  0
 58 70  1  0  0  0  0
 59 80  1  0  0  0  0
 61 64  1  0  0  0  0
 62 63  1  0  0  0  0
M  CHG  1  73   1
M  ISO  4  34 100  59 101  69 100  80 101
M  END
> <Batch ID>
0189

> <Smiles>
CNC(C)C(=O)NC(C(=O)N1Cc2cc([101O:1][101CH:1](C)C(Nc3nnc([100NH:0][100C:0](=O)N4CCCC(n5nc(-c6ccc(Oc7ccc(F)cc7F)cc6)c(C(N)=O)c5N)C4)s3)C(C)C)ccc2CC1C(=O)NC1CCCc2ccccc21)C(C)(C)C

> <Shape>
0.256

> <Color>
0.057

> <Negative vol penalty>
0.000

$$$$

  -OEChem-04052305183D

 83 91  0     1  0  0  0  0  0999 V2000
  -27.9265  -36.0948   20.8296 C   0  0  0  0  0  0  0  0  0  0  0  0
  -28.2015  -34.7420   21.0016 C   0  0  0  0  0  0  0  0  0  0  0  0
  -23.5697  -14.3046   20.8728 C   0  0  0  0  0  0  0  0  0  0  0  0
  -25.9467  -14.5259   21.2440 C   0  0  0  0  0  0  0  0  0  0  0  0
  -26.7267  -36.6265   21.3005 C   0  0  0  0  0  0  0  0  0  0  0  0
  -27.2773  -33.9202   21.6457 C   0  0  0  0  0  0  0  0  0  0  0  0
  -26.5882  -29.5158   19.2433 C   0  0  0  0  0  0  0  0  0  0  0  0
  -23.7460  -12.9603   20.5450 C   0  0  0  0  0  0  0  0  0  0  0  0
  -26.1231  -13.1816   20.9162 C   0  0  0  0  0  0  0  0  0  0  0  0
  -27.5665  -28.5374   19.4143 C   0  0  0  0  0  0  0  0  0  0  0  0
  -24.2180  -10.0387   22.1804 C   0  0  0  0  0  0  0  0  0  0  0  0
  -23.3315   -9.1149   22.7337 C   0  0  0  0  0  0  0  0  0  0  0  0
  -26.1740  -27.4395   21.0498 C   0  0  0  0  0  0  0  0  0  0  0  0
  -22.6369   -8.4533   20.5163 C   0  0  0  0  0  0  0  0  0  0  0  0
  -24.6701  -15.0874   21.2223 C   0  0  0  0  0  0  0  0  0  0  0  0
  -24.2394  -17.0147   22.8370 C   0  0  0  0  0  0  0  0  0  0  0  0
  -25.7831  -35.8088   21.9421 C   0  0  0  0  0  0  0  0  0  0  0  0
  -25.3980  -29.4694   19.9834 C   0  0  0  0  0  0  0  0  0  0  0  0
  -26.0643  -34.4417   22.1269 C   0  0  0  0  0  0  0  0  0  0  0  0
  -25.1811  -28.4171   20.8844 C   0  0  0  0  0  0  0  0  0  0  0  0
  -25.0227  -12.3988   20.5667 C   0  0  0  0  0  0  0  0  0  0  0  0
  -27.3608  -27.5006   20.3197 C   0  0  0  0  0  0  0  0  0  0  0  0
  -24.3139  -10.1699   20.7950 C   0  0  0  0  0  0  0  0  0  0  0  0
  -22.5410   -8.3221   21.9017 C   0  0  0  0  0  0  0  0  0  0  0  0
  -23.5234   -9.3772   19.9630 C   0  0  0  0  0  0  0  0  0  0  0  0
  -24.4887  -16.4762   21.5605 C   0  0  0  0  0  0  0  0  0  0  0  0
  -24.1470  -18.3688   22.6264 C   0  0  0  0  0  0  0  0  0  0  0  0
  -30.4851  -23.5874   18.7021 C   0  0  0  0  0  0  0  0  0  0  0  0
  -28.8099  -22.2256   18.9751 C   0  0  0  0  0  0  0  0  0  0  0  0
  -24.1035  -16.3504   24.1003 C   0  0  0  0  0  0  0  0  0  0  0  0
  -24.0071  -31.3724   22.1160 C   0  0  0  0  0  0  0  0  0  0  0  0
  -21.5736  -29.2442   21.8491 C   0  0  0  0  0  0  0  0  0  0  0  0
  -20.5633  -26.0834   21.0517 C   0  0  0  0  0  0  0  0  0  0  0  0
  -26.3589  -22.0082   18.4350 C   0  0  0  0  0  0  0  0  0  0  0  0
  -24.5208  -36.4383   22.4762 C   0  0  0  0  0  0  0  0  0  0  0  0
  -24.3412  -30.5177   19.7678 C   0  0  0  0  0  0  0  0  0  0  0  0
  -23.9120  -28.3106   21.6885 C   0  0  0  0  0  0  0  0  0  0  0  0
  -23.4309  -35.4247   22.8149 C   0  0  0  0  0  0  0  0  0  0  0  0
  -22.9272  -21.5624   19.2727 C   0  0  0  0  0  0  0  0  0  0  0  0
  -24.0127  -34.2612   23.6115 C   0  0  0  0  0  0  0  0  0  0  0  0
  -22.9163  -20.2597   20.0758 C   0  0  0  0  0  0  0  0  0  0  0  0
  -23.9420  -21.5168   18.1317 C   0  0  0  0  0  0  0  0  0  0  0  0
  -25.2958  -19.8448   19.3320 C   0  0  0  0  0  0  0  0  0  0  0  0
  -25.0760  -33.5130   22.7985 C   0  0  1  0  0  0  0  0  0  0  0  0
  -23.3868  -30.6560   20.9499 C   0  0  1  0  0  0  0  0  0  0  0  0
  -24.3352  -19.8672   20.5323 C   0  0  2  0  0  0  0  0  0  0  0  0
  -31.0550  -25.0202   16.6983 C   0  0  0  0  0  0  0  0  0  0  0  0
  -18.5188  -24.6306   20.9700 C   0  0  0  0  0  0  0  0  0  0  0  0
  -32.0985  -26.5423   20.7095 C   0  0  0  0  0  0  0  0  0  0  0  0
  -29.6100  -27.0270   22.4577 C   0  0  0  0  0  0  0  0  0  0  0  0
  -21.6652  -28.9488   24.8846 C   0  0  0  0  0  0  0  0  0  0  0  0
  -20.3154  -26.8531   24.6516 C   0  0  0  0  0  0  0  0  0  0  0  0
  -19.3620  -29.0371   23.9141 C   0  0  0  0  0  0  0  0  0  0  0  0
  -20.8272  -25.6765   18.1321 C   0  0  0  0  0  0  0  0  0  0  0  0
  -31.1519  -24.8522   18.2126 C   0  0  1  0  0  0  0  0  0  0  0  0
  -21.1953  -27.9598   22.5464 C   0  0  1  0  0  0  0  0  0  0  0  0
  -19.4183  -25.5787   20.1923 C   0  0  2  0  0  0  0  0  0  0  0  0
  -30.6930  -26.0827   20.3372 C   0  0  1  0  0  0  0  0  0  0  0  0
  -29.5986  -26.9798   20.9337 C   0  0  1  0  0  0  0  0  0  1  0  0
  -20.6593  -28.2025   23.9856 C   0  0  0  0  0  0  0  0  0  0  0  0
  -24.5506  -17.4118   20.6092 N   0  0  0  0  0  0  0  0  0  0  0  0
  -29.1387  -23.3855   18.4502 N   0  0  0  0  0  0  0  0  0  0  0  0
  -31.1982  -22.6800   19.3690 N   0  0  0  0  0  0  0  0  0  0  0  0
  -24.3388  -18.5519   21.2885 N   0  0  0  0  0  0  0  0  0  0  0  0
  -22.9114  -29.3632   21.4468 N   0  0  0  0  0  0  0  0  0  0  0  0
  -25.2636  -21.1426   18.6397 N   0  0  0  0  0  0  0  0  0  0  0  0
  -23.9213  -19.4089   23.4569 N   0  0  0  0  0  0  0  0  0  0  0  0
  -24.2268  -14.9548   24.1379 N   0  0  0  0  0  0  0  0  0  0  0  0
  -27.5577  -21.5626   18.9908 N   0  0  0  0  0  0  0  0  0  0  0  0
  -24.4495  -32.6480   21.8219 N   0  0  0  0  0  0  0  0  0  0  0  0
  -20.2532  -27.2789   21.6649 N   0  0  0  0  0  0  0  0  0  0  0  0
  -19.9449  -24.8552   19.0005 N   0  3  0  0  0  0  0  0  0  0  0  0
  -30.5988  -26.0748   18.8488 N   0  3  0  0  0  0  0  0  0  0  0  0
  -23.8631  -16.9743   25.1617 O   0  0  0  0  0  0  0  0  0  0  0  0
  -24.0777  -30.8100   23.2025 O   0  0  0  0  0  0  0  0  0  0  0  0
  -20.7121  -30.1070   21.6617 O   0  0  0  0  0  0  0  0  0  0  0  0
  -21.6251  -25.4760   21.1703 O   0  0  0  0  0  0  0  0  0  0  0  0
  -26.2361  -23.0798   17.8360 O   0  0  0  0  0  0  0  0  0  0  0  0
  -25.1951  -11.0870   20.2471 O   0  0  0  0  0  0  0  0  0  0  0  0
  -28.3143  -26.5446   20.4891 O   0  0  0  0  0  0  0  0  0  1  0  0
  -21.6909   -7.4339   22.4332 F   0  0  0  0  0  0  0  0  0  0  0  0
  -23.6120   -9.4979   18.6313 F   0  0  0  0  0  0  0  0  0  0  0  0
  -30.1327  -21.4436   19.7389 S   0  0  0  0  0  0  0  0  0  0  0  0
  1  2  1  0  0  0  0
  1  5  2  0  0  0  0
  2  6  2  0  0  0  0
  3  8  2  0  0  0  0
  3 15  1  0  0  0  0
  4  9  1  0  0  0  0
  4 15  2  0  0  0  0
  5 17  1  0  0  0  0
  6 19  1  0  0  0  0
  7 10  2  0  0  0  0
  7 18  1  0  0  0  0
  8 21  1  0  0  0  0
  9 21  2  0  0  0  0
 10 22  1  0  0  0  0
 11 12  2  0  0  0  0
 11 23  1  0  0  0  0
 12 24  1  0  0  0  0
 13 20  1  0  0  0  0
 13 22  2  0  0  0  0
 14 24  2  0  0  0  0
 14 25  1  0  0  0  0
 15 26  1  0  0  0  0
 16 26  1  0  0  0  0
 16 27  2  0  0  0  0
 16 30  1  0  0  0  0
 17 19  2  0  0  0  0
 17 35  1  0  0  0  0
 18 20  2  0  0  0  0
 18 36  1  0  0  0  0
 19 44  1  0  0  0  0
 20 37  1  0  0  0  0
 21 79  1  0  0  0  0
 22 80  1  0  0  0  0
 23 25  2  0  0  0  0
 23 79  1  0  0  0  0
 24 81  1  0  0  0  0
 25 82  1  0  0  0  0
 26 61  2  0  0  0  0
 27 64  1  0  0  0  0
 27 67  1  0  0  0  0
 28 55  1  0  0  0  0
 28 62  1  0  0  0  0
 28 63  2  0  0  0  0
 29 62  2  0  0  0  0
 29 69  1  0  0  0  0
 29 83  1  0  0  0  0
 30 68  1  0  0  0  0
 30 74  2  0  0  0  0
 31 45  1  0  0  0  0
 31 70  1  0  0  0  0
 31 75  2  0  0  0  0
 32 56  1  0  0  0  0
 32 65  1  0  0  0  0
 32 76  2  0  0  0  0
 33 57  1  0  0  0  0
 33 71  1  0  0  0  0
 33 77  2  0  0  0  0
 34 66  1  0  0  0  0
 34 69  1  0  0  0  0
 34 78  2  0  0  0  0
 35 38  1  0  0  0  0
 36 45  1  0  0  0  0
 37 65  1  0  0  0  0
 38 40  1  0  0  0  0
 39 41  1  0  0  0  0
 39 42  1  0  0  0  0
 40 44  1  0  0  0  0
 41 46  1  0  0  0  0
 42 66  1  0  0  0  0
 43 46  1  0  0  0  0
 43 66  1  0  0  0  0
 44 70  1  0  0  0  0
 45 65  1  0  0  0  0
 46 64  1  0  0  0  0
 47 55  1  0  0  0  0
 48 57  1  0  0  0  0
 49 58  1  0  0  0  0
 50 59  1  0  0  0  0
 51 60  1  0  0  0  0
 52 60  1  0  0  0  0
 53 60  1  0  0  0  0
 54 72  1  0  0  0  0
 55 73  1  0  0  0  0
 56 60  1  0  0  0  0
 56 71  1  0  0  0  0
 57 72  1  0  0  0  0
 58 59  1  0  0  0  0
 58 73  1  0  0  0  0
 59 80  1  0  0  0  0
 61 64  1  0  0  0  0
 63 83  1  0  0  0  0
M  CHG  2  72   1  73   1
M  ISO  4  34 100  59 101  69 100  80 101
M  END
> <Batch ID>
0189

> <Smiles>
CNC(C)C(=O)NC(C(=O)N1Cc2cc([101O:1][101CH:1](C)C(C)NC(C)c3nsc([100NH:0][100C:0](=O)N4CCCC(n5nc(-c6ccc(Oc7ccc(F)cc7F)cc6)c(C(N)=O)c5N)C4)n3)ccc2CC1C(=O)NC1CCCc2ccccc21)C(C)(C)C

> <Shape>
0.280

> <Color>
0.083

> <Negative vol penalty>
0.000

$$$$

  -OEChem-04052305183D

 84 92  0     1  0  0  0  0  0999 V2000
  -16.4595  -30.0216   22.7346 C   0  0  0  0  0  0  0  0  0  0  0  0
  -17.6483  -29.7253   22.0756 C   0  0  0  0  0  0  0  0  0  0  0  0
  -26.1962  -14.7469   22.4925 C   0  0  0  0  0  0  0  0  0  0  0  0
  -25.5713  -14.1887   20.2264 C   0  0  0  0  0  0  0  0  0  0  0  0
  -16.2677  -29.5971   24.0487 C   0  0  0  0  0  0  0  0  0  0  0  0
  -18.6466  -29.0051   22.7308 C   0  0  0  0  0  0  0  0  0  0  0  0
  -20.6353  -25.3613   19.8303 C   0  0  0  0  0  0  0  0  0  0  0  0
  -25.2726  -13.8199   22.9755 C   0  0  0  0  0  0  0  0  0  0  0  0
  -24.6477  -13.2617   20.7095 C   0  0  0  0  0  0  0  0  0  0  0  0
  -21.5612  -25.7513   18.8636 C   0  0  0  0  0  0  0  0  0  0  0  0
  -22.3815  -10.4892   21.3386 C   0  0  0  0  0  0  0  0  0  0  0  0
  -22.3390   -9.2362   20.7274 C   0  0  0  0  0  0  0  0  0  0  0  0
  -23.3594  -25.0636   20.3172 C   0  0  0  0  0  0  0  0  0  0  0  0
  -24.6471   -8.8615   21.3350 C   0  0  0  0  0  0  0  0  0  0  0  0
  -31.3353  -26.8457   21.1198 C   0  0  0  0  0  0  0  0  0  0  0  0
  -26.3455  -14.9313   21.1179 C   0  0  0  0  0  0  0  0  0  0  0  0
  -28.6511  -15.6572   20.3025 C   0  0  0  0  0  0  0  0  0  0  0  0
  -17.2602  -28.8630   24.7171 C   0  0  0  0  0  0  0  0  0  0  0  0
  -21.0656  -24.8288   21.0541 C   0  0  0  0  0  0  0  0  0  0  0  0
  -18.4684  -28.5715   24.0556 C   0  0  0  0  0  0  0  0  0  0  0  0
  -22.4369  -24.6653   21.2967 C   0  0  0  0  0  0  0  0  0  0  0  0
  -24.4984  -13.0773   22.0840 C   0  0  0  0  0  0  0  0  0  0  0  0
  -22.9235  -25.6051   19.1081 C   0  0  0  0  0  0  0  0  0  0  0  0
  -23.5568  -10.9285   21.9480 C   0  0  0  0  0  0  0  0  0  0  0  0
  -23.4718   -8.4223   20.7256 C   0  0  0  0  0  0  0  0  0  0  0  0
  -24.6896  -10.1147   21.9462 C   0  0  0  0  0  0  0  0  0  0  0  0
  -27.2990  -15.8891   20.6184 C   0  0  0  0  0  0  0  0  0  0  0  0
  -30.2376  -26.0460   20.8798 C   0  0  0  0  0  0  0  0  0  0  0  0
  -29.1172  -16.8756   19.8729 C   0  0  0  0  0  0  0  0  0  0  0  0
  -29.3647  -27.9796   20.3238 C   0  0  0  0  0  0  0  0  0  0  0  0
  -30.2066  -24.6471   21.0653 C   0  0  0  0  0  0  0  0  0  0  0  0
  -29.4633  -23.7354   20.3525 C   0  0  0  0  0  0  0  0  0  0  0  0
  -29.4172  -14.4484   20.3894 C   0  0  0  0  0  0  0  0  0  0  0  0
  -29.5477  -22.2939   20.6621 C   0  0  0  0  0  0  0  0  0  0  0  0
  -20.7917  -25.6986   24.0992 C   0  0  0  0  0  0  0  0  0  0  0  0
  -22.1959  -22.8251   24.6410 C   0  0  0  0  0  0  0  0  0  0  0  0
  -24.1628  -20.2947   23.4684 C   0  0  0  0  0  0  0  0  0  0  0  0
  -17.0264  -28.4664   26.1534 C   0  0  0  0  0  0  0  0  0  0  0  0
  -20.0535  -24.3882   22.0758 C   0  0  0  0  0  0  0  0  0  0  0  0
  -22.9499  -24.0801   22.5862 C   0  0  0  0  0  0  0  0  0  0  0  0
  -17.9824  -27.3849   26.6499 C   0  0  0  0  0  0  0  0  0  0  0  0
  -26.6697  -21.1298   18.7143 C   0  0  0  0  0  0  0  0  0  0  0  0
  -19.4168  -27.7154   26.2496 C   0  0  0  0  0  0  0  0  0  0  0  0
  -26.6665  -19.6421   19.0556 C   0  0  0  0  0  0  0  0  0  0  0  0
  -27.1335  -21.9856   19.8920 C   0  0  0  0  0  0  0  0  0  0  0  0
  -28.4555  -20.0881   20.7821 C   0  0  0  0  0  0  0  0  0  0  0  0
  -19.5649  -27.7710   24.7243 C   0  0  1  0  0  0  0  0  0  0  0  0
  -20.6182  -24.3351   23.4920 C   0  0  1  0  0  0  0  0  0  0  0  0
  -28.0371  -19.2048   19.5964 C   0  0  1  0  0  0  0  0  0  0  0  0
  -25.1642  -18.0983   24.1546 C   0  0  0  0  0  0  0  0  0  0  0  0
  -27.5760  -29.0440   17.0583 C   0  0  0  0  0  0  0  0  0  0  0  0
  -26.2222  -29.8516   19.6721 C   0  0  0  0  0  0  0  0  0  0  0  0
  -24.2837  -24.3002   26.3068 C   0  0  0  0  0  0  0  0  0  0  0  0
  -25.7352  -22.2654   26.1624 C   0  0  0  0  0  0  0  0  0  0  0  0
  -23.5112  -22.1318   27.2843 C   0  0  0  0  0  0  0  0  0  0  0  0
  -22.7188  -18.8377   21.3352 C   0  0  0  0  0  0  0  0  0  0  0  0
  -25.6576  -27.4853   17.6716 C   0  0  0  0  0  0  0  0  0  0  0  0
  -25.0997  -26.4386   18.6329 C   0  0  0  0  0  0  0  0  0  1  0  0
  -23.6191  -22.3374   24.7668 C   0  0  1  0  0  0  0  0  0  0  0  0
  -23.9834  -18.7874   23.4885 C   0  0  2  0  0  0  0  0  0  0  0  0
  -27.0503  -28.0169   18.0719 C   0  0  2  0  0  0  0  0  0  0  0  0
  -27.0933  -28.6086   19.5048 C   0  0  1  0  0  0  0  0  0  0  0  0
  -24.2780  -22.7716   26.1065 C   0  0  0  0  0  0  0  0  0  0  0  0
  -26.9301  -17.1554   20.4076 N   0  0  0  0  0  0  0  0  0  0  0  0
  -29.1066  -26.6945   20.4237 N   0  0  0  0  0  0  0  0  0  0  0  0
  -28.0574  -17.7302   19.9548 N   0  0  0  0  0  0  0  0  0  0  0  0
  -28.4180  -21.5116   20.4288 N   0  0  0  0  0  0  0  0  0  0  0  0
  -21.9212  -23.6701   23.5564 N   0  0  0  0  0  0  0  0  0  0  0  0
  -30.3262  -17.2888   19.4370 N   0  0  0  0  0  0  0  0  0  0  0  0
  -28.7828  -13.2871   20.8512 N   0  0  0  0  0  0  0  0  0  0  0  0
  -28.4518  -28.9263   19.8968 N   0  0  0  0  0  0  0  0  0  0  0  0
  -19.6242  -26.4342   24.1732 N   0  0  0  0  0  0  0  0  0  0  0  0
  -23.5753  -20.8936   24.5627 N   0  0  0  0  0  0  0  0  0  0  0  0
  -23.8553  -18.2624   22.0996 N   0  3  0  0  0  0  0  0  0  0  0  0
  -30.6327  -14.4033   20.0828 O   0  0  0  0  0  0  0  0  0  0  0  0
  -30.6135  -21.8707   21.1135 O   0  0  0  0  0  0  0  0  0  0  0  0
  -21.9022  -26.0561   24.4741 O   0  0  0  0  0  0  0  0  0  0  0  0
  -21.3573  -22.4637   25.4702 O   0  0  0  0  0  0  0  0  0  0  0  0
  -24.7672  -20.8817   22.5736 O   0  0  0  0  0  0  0  0  0  0  0  0
  -23.5972  -12.1725   22.5550 O   0  0  0  0  0  0  0  0  0  0  0  0
  -23.8294  -25.9855   18.1665 O   0  0  0  0  0  0  0  0  0  1  0  0
  -23.4303   -7.2183   20.1400 F   0  0  0  0  0  0  0  0  0  0  0  0
  -25.8213  -10.5307   22.5310 F   0  0  0  0  0  0  0  0  0  0  0  0
  -30.9476  -28.4775   20.7615 S   0  0  0  0  0  0  0  0  0  0  0  0
  1  2  1  0  0  0  0
  1  5  2  0  0  0  0
  2  6  2  0  0  0  0
  3  8  2  0  0  0  0
  3 16  1  0  0  0  0
  4  9  1  0  0  0  0
  4 16  2  0  0  0  0
  5 18  1  0  0  0  0
  6 20  1  0  0  0  0
  7 10  2  0  0  0  0
  7 19  1  0  0  0  0
  8 22  1  0  0  0  0
  9 22  2  0  0  0  0
 10 23  1  0  0  0  0
 11 12  2  0  0  0  0
 11 24  1  0  0  0  0
 12 25  1  0  0  0  0
 13 21  1  0  0  0  0
 13 23  2  0  0  0  0
 14 25  2  0  0  0  0
 14 26  1  0  0  0  0
 15 28  2  0  0  0  0
 15 84  1  0  0  0  0
 16 27  1  0  0  0  0
 17 27  1  0  0  0  0
 17 29  2  0  0  0  0
 17 33  1  0  0  0  0
 18 20  2  0  0  0  0
 18 38  1  0  0  0  0
 19 21  2  0  0  0  0
 19 39  1  0  0  0  0
 20 47  1  0  0  0  0
 21 40  1  0  0  0  0
 22 80  1  0  0  0  0
 23 81  1  0  0  0  0
 24 26  2  0  0  0  0
 24 80  1  0  0  0  0
 25 82  1  0  0  0  0
 26 83  1  0  0  0  0
 27 64  2  0  0  0  0
 28 31  1  0  0  0  0
 28 65  1  0  0  0  0
 29 66  1  0  0  0  0
 29 69  1  0  0  0  0
 30 65  2  0  0  0  0
 30 71  1  0  0  0  0
 30 84  1  0  0  0  0
 31 32  2  0  0  0  0
 32 34  1  0  0  0  0
 33 70  1  0  0  0  0
 33 75  2  0  0  0  0
 34 67  1  0  0  0  0
 34 76  2  0  0  0  0
 35 48  1  0  0  0  0
 35 72  1  0  0  0  0
 35 77  2  0  0  0  0
 36 59  1  0  0  0  0
 36 68  1  0  0  0  0
 36 78  2  0  0  0  0
 37 60  1  0  0  0  0
 37 73  1  0  0  0  0
 37 79  2  0  0  0  0
 38 41  1  0  0  0  0
 39 48  1  0  0  0  0
 40 68  1  0  0  0  0
 41 43  1  0  0  0  0
 42 44  1  0  0  0  0
 42 45  1  0  0  0  0
 43 47  1  0  0  0  0
 44 49  1  0  0  0  0
 45 67  1  0  0  0  0
 46 49  1  0  0  0  0
 46 67  1  0  0  0  0
 47 72  1  0  0  0  0
 48 68  1  0  0  0  0
 49 66  1  0  0  0  0
 50 60  1  0  0  0  0
 51 61  1  0  0  0  0
 52 62  1  0  0  0  0
 53 63  1  0  0  0  0
 54 63  1  0  0  0  0
 55 63  1  0  0  0  0
 56 74  1  0  0  0  0
 57 58  1  0  0  0  0
 57 61  1  0  0  0  0
 58 81  1  0  0  0  0
 59 63  1  0  0  0  0
 59 73  1  0  0  0  0
 60 74  1  0  0  0  0
 61 62  1  0  0  0  0
 62 71  1  0  0  0  0
 64 66  1  0  0  0  0
M  CHG  1  74   1
M  ISO  4  32 100  34 100  58 101  81 101
M  END
> <Batch ID>
0189

> <Smiles>
CNC(C)C(=O)NC(C(=O)N1Cc2cc([101O:1][101CH2:1]CC(C)C(C)Nc3nc(C=[100CH:0][100C:0](=O)N4CCCC(n5nc(-c6ccc(Oc7ccc(F)cc7F)cc6)c(C(N)=O)c5N)C4)cs3)ccc2CC1C(=O)NC1CCCc2ccccc21)C(C)(C)C

> <Shape>
0.213

> <Color>
0.058

> <Negative vol penalty>
0.000

$$$$

  -OEChem-04052305183D

 85 93  0     1  0  0  0  0  0999 V2000
  -20.1541  -27.2168   26.7463 C   0  0  0  0  0  0  0  0  0  0  0  0
  -21.3049  -26.8022   26.0836 C   0  0  0  0  0  0  0  0  0  0  0  0
  -24.7434  -10.4935   22.8727 C   0  0  0  0  0  0  0  0  0  0  0  0
  -24.7467  -12.6783   23.9041 C   0  0  0  0  0  0  0  0  0  0  0  0
  -19.1259  -27.8343   26.0355 C   0  0  0  0  0  0  0  0  0  0  0  0
  -21.4276  -27.0040   24.7093 C   0  0  0  0  0  0  0  0  0  0  0  0
  -26.5578  -28.2874   21.6207 C   0  0  0  0  0  0  0  0  0  0  0  0
  -24.6475   -9.8995   24.1311 C   0  0  0  0  0  0  0  0  0  0  0  0
  -24.6507  -12.0843   25.1626 C   0  0  0  0  0  0  0  0  0  0  0  0
  -27.4339  -27.4907   20.8849 C   0  0  0  0  0  0  0  0  0  0  0  0
  -22.2398   -9.3126   26.4315 C   0  0  0  0  0  0  0  0  0  0  0  0
  -21.3213   -8.2750   26.5902 C   0  0  0  0  0  0  0  0  0  0  0  0
  -26.2771  -28.1010   18.8580 C   0  0  0  0  0  0  0  0  0  0  0  0
  -23.1162   -6.7807   27.2089 C   0  0  0  0  0  0  0  0  0  0  0  0
  -29.1781  -19.1483   20.5604 C   0  0  0  0  0  0  0  0  0  0  0  0
  -30.6587  -18.8401   18.9642 C   0  0  0  0  0  0  0  0  0  0  0  0
  -24.7931  -11.8829   22.7592 C   0  0  0  0  0  0  0  0  0  0  0  0
  -23.8322  -12.8937   20.6232 C   0  0  0  0  0  0  0  0  0  0  0  0
  -19.2402  -28.0525   24.6534 C   0  0  0  0  0  0  0  0  0  0  0  0
  -25.5263  -28.9896   20.9808 C   0  0  0  0  0  0  0  0  0  0  0  0
  -20.3994  -27.6238   23.9791 C   0  0  0  0  0  0  0  0  0  0  0  0
  -25.3909  -28.9080   19.5876 C   0  0  0  0  0  0  0  0  0  0  0  0
  -29.6795  -18.1822   19.6676 C   0  0  0  0  0  0  0  0  0  0  0  0
  -24.6011  -10.6949   25.2760 C   0  0  0  0  0  0  0  0  0  0  0  0
  -27.2919  -27.3951   19.5037 C   0  0  0  0  0  0  0  0  0  0  0  0
  -23.5966   -9.0843   26.6614 C   0  0  0  0  0  0  0  0  0  0  0  0
  -21.7594   -7.0091   26.9789 C   0  0  0  0  0  0  0  0  0  0  0  0
  -24.0347   -7.8184   27.0501 C   0  0  0  0  0  0  0  0  0  0  0  0
  -24.8928  -12.4970   21.4596 C   0  0  0  0  0  0  0  0  0  0  0  0
  -24.4480  -13.4178   19.5130 C   0  0  0  0  0  0  0  0  0  0  0  0
  -31.6123  -21.1262   18.9531 C   0  0  0  0  0  0  0  0  0  0  0  0
  -22.4169  -12.7971   20.8312 C   0  0  0  0  0  0  0  0  0  0  0  0
  -31.7062  -22.3973   19.3907 C   0  0  0  0  0  0  0  0  0  0  0  0
  -22.3517  -28.9448   21.1336 C   0  0  0  0  0  0  0  0  0  0  0  0
  -22.6088  -31.4952   19.1457 C   0  0  0  0  0  0  0  0  0  0  0  0
  -24.4614  -33.1941   16.8373 C   0  0  0  0  0  0  0  0  0  0  0  0
  -29.5806  -24.8662   19.5867 C   0  0  0  0  0  0  0  0  0  0  0  0
  -29.8072  -15.9005   18.6074 C   0  0  0  0  0  0  0  0  0  0  0  0
  -18.0824  -28.6815   23.9196 C   0  0  0  0  0  0  0  0  0  0  0  0
  -24.6061  -29.8659   21.7856 C   0  0  0  0  0  0  0  0  0  0  0  0
  -24.3125  -29.6579   18.8504 C   0  0  0  0  0  0  0  0  0  0  0  0
  -18.4492  -29.1959   22.5300 C   0  0  0  0  0  0  0  0  0  0  0  0
  -28.4701  -13.0533   16.9392 C   0  0  0  0  0  0  0  0  0  0  0  0
  -19.2620  -28.1515   21.7715 C   0  0  0  0  0  0  0  0  0  0  0  0
  -27.3007  -12.6273   17.8298 C   0  0  0  0  0  0  0  0  0  0  0  0
  -29.6501  -13.5695   17.7608 C   0  0  0  0  0  0  0  0  0  0  0  0
  -28.1520  -14.2062   19.6100 C   0  0  0  0  0  0  0  0  0  0  0  0
  -20.5803  -27.8474   22.4933 C   0  0  1  0  0  0  0  0  0  0  0  0
  -23.2738  -30.1304   21.0910 C   0  0  1  0  0  0  0  0  0  0  0  0
  -26.9155  -13.7398   18.8245 C   0  0  2  0  0  0  0  0  0  0  0  0
  -32.7153  -23.3317   18.7732 C   0  0  0  0  0  0  0  0  0  0  0  0
  -24.3918  -35.2232   15.3625 C   0  0  0  0  0  0  0  0  0  0  0  0
  -27.7852  -24.4173   17.8775 C   0  0  0  0  0  0  0  0  0  0  0  0
  -20.7158  -30.0442   17.2427 C   0  0  0  0  0  0  0  0  0  0  0  0
  -21.4279  -31.6272   15.4385 C   0  0  0  0  0  0  0  0  0  0  0  0
  -20.2824  -32.4961   17.4770 C   0  0  0  0  0  0  0  0  0  0  0  0
  -26.8291  -34.3793   18.1596 C   0  0  0  0  0  0  0  0  0  0  0  0
  -30.8969  -22.9792   20.5200 C   0  0  0  0  0  0  0  0  0  0  0  0
  -22.6698  -31.6821   17.6489 C   0  0  1  0  0  0  0  0  0  0  0  0
  -24.8129  -34.6656   16.7132 C   0  0  2  0  0  0  0  0  0  0  0  0
  -28.1833  -25.2271   19.1020 C   0  0  2  0  0  0  0  0  0  1  0  0
  -21.2932  -31.4466   16.9656 C   0  0  0  0  0  0  0  0  0  0  0  0
  -29.7885  -20.3299   20.4376 N   0  0  0  0  0  0  0  0  0  0  0  0
  -26.0915  -12.7475   20.9263 N   0  0  0  0  0  0  0  0  0  0  0  0
  -30.6836  -20.1107   19.4594 N   0  0  0  0  0  0  0  0  0  0  0  0
  -25.7879  -13.3072   19.7428 N   0  0  0  0  0  0  0  0  0  0  0  0
  -23.4338  -30.4965   19.6823 N   0  0  0  0  0  0  0  0  0  0  0  0
  -29.2105  -14.6239   18.6773 N   0  0  0  0  0  0  0  0  0  0  0  0
  -23.9688  -13.9578   18.3723 N   0  0  0  0  0  0  0  0  0  0  0  0
  -21.9545  -12.2321   22.0276 N   0  0  0  0  0  0  0  0  0  0  0  0
  -29.2855  -16.8308   19.5057 N   0  0  0  0  0  0  0  0  0  0  0  0
  -21.5428  -28.9012   22.2531 N   0  0  0  0  0  0  0  0  0  0  0  0
  -29.6750  -23.5462   19.9995 N   0  0  0  0  0  0  0  0  0  0  0  0
  -23.2279  -33.0115   17.4260 N   0  0  0  0  0  0  0  0  0  0  0  0
  -26.2824  -34.8618   16.8652 N   0  3  0  0  0  0  0  0  0  0  0  0
  -21.5869  -13.1848   19.9743 O   0  0  0  0  0  0  0  0  0  0  0  0
  -22.3714  -28.1308   20.2178 O   0  0  0  0  0  0  0  0  0  0  0  0
  -21.8622  -32.2137   19.8149 O   0  0  0  0  0  0  0  0  0  0  0  0
  -25.2049  -32.2965   16.4474 O   0  0  0  0  0  0  0  0  0  0  0  0
  -30.5001  -25.6815   19.6157 O   0  0  0  0  0  0  0  0  0  0  0  0
  -30.6954  -16.1579   17.7908 O   0  0  0  0  0  0  0  0  0  0  0  0
  -24.5072  -10.1157   26.5042 O   0  0  0  0  0  0  0  0  0  0  0  0
  -28.1452  -26.6175   18.7832 O   0  0  0  0  0  0  0  0  0  1  0  0
  -20.8771   -6.0131   27.1328 F   0  0  0  0  0  0  0  0  0  0  0  0
  -25.3367   -7.5933   27.2736 F   0  0  0  0  0  0  0  0  0  0  0  0
  1  2  1  0  0  0  0
  1  5  2  0  0  0  0
  2  6  2  0  0  0  0
  3  8  2  0  0  0  0
  3 17  1  0  0  0  0
  4  9  1  0  0  0  0
  4 17  2  0  0  0  0
  5 19  1  0  0  0  0
  6 21  1  0  0  0  0
  7 10  2  0  0  0  0
  7 20  1  0  0  0  0
  8 24  1  0  0  0  0
  9 24  2  0  0  0  0
 10 25  1  0  0  0  0
 11 12  2  0  0  0  0
 11 26  1  0  0  0  0
 12 27  1  0  0  0  0
 13 22  1  0  0  0  0
 13 25  2  0  0  0  0
 14 27  2  0  0  0  0
 14 28  1  0  0  0  0
 15 23  1  0  0  0  0
 15 63  2  0  0  0  0
 16 23  2  0  0  0  0
 16 65  1  0  0  0  0
 17 29  1  0  0  0  0
 18 29  1  0  0  0  0
 18 30  2  0  0  0  0
 18 32  1  0  0  0  0
 19 21  2  0  0  0  0
 19 39  1  0  0  0  0
 20 22  2  0  0  0  0
 20 40  1  0  0  0  0
 21 48  1  0  0  0  0
 22 41  1  0  0  0  0
 23 71  1  0  0  0  0
 24 82  1  0  0  0  0
 25 83  1  0  0  0  0
 26 28  2  0  0  0  0
 26 82  1  0  0  0  0
 27 84  1  0  0  0  0
 28 85  1  0  0  0  0
 29 64  2  0  0  0  0
 30 66  1  0  0  0  0
 30 69  1  0  0  0  0
 31 33  2  0  0  0  0
 31 65  1  0  0  0  0
 32 70  1  0  0  0  0
 32 76  2  0  0  0  0
 33 51  1  0  0  0  0
 33 58  1  0  0  0  0
 34 49  1  0  0  0  0
 34 72  1  0  0  0  0
 34 77  2  0  0  0  0
 35 59  1  0  0  0  0
 35 67  1  0  0  0  0
 35 78  2  0  0  0  0
 36 60  1  0  0  0  0
 36 74  1  0  0  0  0
 36 79  2  0  0  0  0
 37 61  1  0  0  0  0
 37 73  1  0  0  0  0
 37 80  2  0  0  0  0
 38 68  1  0  0  0  0
 38 71  1  0  0  0  0
 38 81  2  0  0  0  0
 39 42  1  0  0  0  0
 40 49  1  0  0  0  0
 41 67  1  0  0  0  0
 42 44  1  0  0  0  0
 43 45  1  0  0  0  0
 43 46  1  0  0  0  0
 44 48  1  0  0  0  0
 45 50  1  0  0  0  0
 46 68  1  0  0  0  0
 47 50  1  0  0  0  0
 47 68  1  0  0  0  0
 48 72  1  0  0  0  0
 49 67  1  0  0  0  0
 50 66  1  0  0  0  0
 52 60  1  0  0  0  0
 53 61  1  0  0  0  0
 54 62  1  0  0  0  0
 55 62  1  0  0  0  0
 56 62  1  0  0  0  0
 57 75  1  0  0  0  0
 58 73  1  0  0  0  0
 59 62  1  0  0  0  0
 59 74  1  0  0  0  0
 60 75  1  0  0  0  0
 61 83  1  0  0  0  0
 63 65  1  0  0  0  0
 64 66  1  0  0  0  0
M  CHG  1  75   1
M  ISO  4  38 100  61 101  71 100  83 101
M  END
> <Batch ID>
0189

> <Smiles>
CNC(C)C(=O)NC(C(=O)N1Cc2cc([101O:1][101CH:1](C)C(=O)NCC(C)=Cn3cc([100NH:0][100C:0](=O)N4CCCC(n5nc(-c6ccc(Oc7ccc(F)cc7F)cc6)c(C(N)=O)c5N)C4)cn3)ccc2CC1C(=O)NC1CCCc2ccccc21)C(C)(C)C

> <Shape>
0.224

> <Color>
0.119

> <Negative vol penalty>
0.000

$$$$

  -OEChem-04052305183D

 85 93  0     1  0  0  0  0  0999 V2000
  -17.7878  -32.3617   23.3330 C   0  0  0  0  0  0  0  0  0  0  0  0
  -18.9554  -32.5524   22.6011 C   0  0  0  0  0  0  0  0  0  0  0  0
  -25.9297  -13.1821   21.8633 C   0  0  0  0  0  0  0  0  0  0  0  0
  -25.9278  -13.8450   19.5400 C   0  0  0  0  0  0  0  0  0  0  0  0
  -17.7079  -31.3210   24.2574 C   0  0  0  0  0  0  0  0  0  0  0  0
  -20.0444  -31.7031   22.7940 C   0  0  0  0  0  0  0  0  0  0  0  0
  -25.5076  -28.7341   19.2367 C   0  0  0  0  0  0  0  0  0  0  0  0
  -24.7741  -12.4307   21.6498 C   0  0  0  0  0  0  0  0  0  0  0  0
  -24.7722  -13.0936   19.3265 C   0  0  0  0  0  0  0  0  0  0  0  0
  -26.8923  -28.5912   19.3136 C   0  0  0  0  0  0  0  0  0  0  0  0
  -23.9657   -9.4257   20.3272 C   0  0  0  0  0  0  0  0  0  0  0  0
  -23.9193   -8.1405   20.8671 C   0  0  0  0  0  0  0  0  0  0  0  0
  -27.3483  -22.7267   16.5097 C   0  0  0  0  0  0  0  0  0  0  0  0
  -27.3040  -21.8188   17.5619 C   0  0  0  0  0  0  0  0  0  0  0  0
  -26.6123  -26.7784   20.8803 C   0  0  0  0  0  0  0  0  0  0  0  0
  -21.9831   -8.7591   22.1732 C   0  0  0  0  0  0  0  0  0  0  0  0
  -26.5066  -13.8893   20.8084 C   0  0  0  0  0  0  0  0  0  0  0  0
  -29.0328  -14.2309   20.9028 C   0  0  0  0  0  0  0  0  0  0  0  0
  -18.7931  -30.4526   24.4547 C   0  0  0  0  0  0  0  0  0  0  0  0
  -24.6637  -27.9059   19.9907 C   0  0  0  0  0  0  0  0  0  0  0  0
  -19.9795  -30.6506   23.7229 C   0  0  0  0  0  0  0  0  0  0  0  0
  -25.2171  -26.9111   20.8092 C   0  0  0  0  0  0  0  0  0  0  0  0
  -24.1954  -12.3864   20.3815 C   0  0  0  0  0  0  0  0  0  0  0  0
  -27.4449  -27.6152   20.1377 C   0  0  0  0  0  0  0  0  0  0  0  0
  -23.0209  -10.3778   20.7103 C   0  0  0  0  0  0  0  0  0  0  0  0
  -22.9280   -7.8071   21.7901 C   0  0  0  0  0  0  0  0  0  0  0  0
  -28.1566  -23.8540   16.6051 C   0  0  0  0  0  0  0  0  0  0  0  0
  -22.0296  -10.0444   21.6333 C   0  0  0  0  0  0  0  0  0  0  0  0
  -27.7000  -14.6662   21.0283 C   0  0  0  0  0  0  0  0  0  0  0  0
  -28.0808  -22.0819   18.6786 C   0  0  0  0  0  0  0  0  0  0  0  0
  -28.8952  -24.0261   17.7647 C   0  0  0  0  0  0  0  0  0  0  0  0
  -29.7859  -15.3358   21.2166 C   0  0  0  0  0  0  0  0  0  0  0  0
  -29.5445  -12.9429   20.5354 C   0  0  0  0  0  0  0  0  0  0  0  0
  -22.5213  -28.3839   22.2897 C   0  0  0  0  0  0  0  0  0  0  0  0
  -21.9675  -25.2120   21.8962 C   0  0  0  0  0  0  0  0  0  0  0  0
  -23.1322  -22.1732   20.8686 C   0  0  0  0  0  0  0  0  0  0  0  0
  -28.7222  -21.2098   20.9534 C   0  0  0  0  0  0  0  0  0  0  0  0
  -18.6765  -29.3708   25.4992 C   0  0  0  0  0  0  0  0  0  0  0  0
  -23.1714  -28.0551   19.8761 C   0  0  0  0  0  0  0  0  0  0  0  0
  -24.3542  -25.9832   21.6234 C   0  0  0  0  0  0  0  0  0  0  0  0
  -19.7426  -28.2855   25.3737 C   0  0  0  0  0  0  0  0  0  0  0  0
  -29.6472  -19.3405   23.8391 C   0  0  0  0  0  0  0  0  0  0  0  0
  -21.1202  -28.9106   25.1779 C   0  0  0  0  0  0  0  0  0  0  0  0
  -29.3798  -17.8896   23.4322 C   0  0  0  0  0  0  0  0  0  0  0  0
  -28.6029  -20.2935   23.2601 C   0  0  0  0  0  0  0  0  0  0  0  0
  -28.1428  -18.7441   21.4008 C   0  0  0  0  0  0  0  0  0  0  0  0
  -21.1734  -29.7351   23.8860 C   0  0  1  0  0  0  0  0  0  0  0  0
  -22.4208  -27.4967   21.0812 C   0  0  1  0  0  0  0  0  0  0  0  0
  -29.2056  -17.7551   21.9067 C   0  0  2  0  0  0  0  0  0  0  0  0
  -22.4642  -19.7597   20.7066 C   0  0  0  0  0  0  0  0  0  0  0  0
  -32.7174  -24.8282   20.2034 C   0  0  0  0  0  0  0  0  0  0  0  0
  -32.6093  -24.8052   17.6987 C   0  0  0  0  0  0  0  0  0  0  0  0
  -22.4159  -24.8889   24.8970 C   0  0  0  0  0  0  0  0  0  0  0  0
  -22.6812  -22.4278   24.5218 C   0  0  0  0  0  0  0  0  0  0  0  0
  -20.5189  -23.5451   23.9750 C   0  0  0  0  0  0  0  0  0  0  0  0
  -23.4093  -22.1742   17.9221 C   0  0  0  0  0  0  0  0  0  0  0  0
  -30.8204  -26.9676   19.0259 C   0  0  0  0  0  0  0  0  0  0  0  0
  -29.5526  -27.8172   19.0548 C   0  0  0  0  0  0  0  0  0  1  0  0
  -22.5300  -23.9460   22.4961 C   0  0  1  0  0  0  0  0  0  0  0  0
  -22.5119  -21.1009   19.9913 C   0  0  2  0  0  0  0  0  0  0  0  0
  -31.8095  -24.6000   18.9906 C   0  0  0  0  0  0  0  0  0  0  0  0
  -30.5217  -25.4609   18.9981 C   0  0  2  0  0  0  0  0  0  0  0  0
  -22.0531  -23.7206   23.9587 C   0  0  0  0  0  0  0  0  0  0  0  0
  -27.6083  -15.9477   21.3935 N   0  0  0  0  0  0  0  0  0  0  0  0
  -28.8781  -23.1660   18.8076 N   0  0  0  0  0  0  0  0  0  0  0  0
  -28.8931  -16.3271   21.5003 N   0  0  0  0  0  0  0  0  0  0  0  0
  -22.9010  -26.1728   21.4823 N   0  0  0  0  0  0  0  0  0  0  0  0
  -28.4956  -20.1124   21.8108 N   0  0  0  0  0  0  0  0  0  0  0  0
  -31.1181  -15.5464   21.2749 N   0  0  0  0  0  0  0  0  0  0  0  0
  -28.6320  -11.9195   20.2449 N   0  0  0  0  0  0  0  0  0  0  0  0
  -28.0307  -21.1490   19.7440 N   0  0  0  0  0  0  0  0  0  0  0  0
  -29.6949  -25.1501   17.8476 N   0  0  0  0  0  0  0  0  0  0  0  0
  -21.3057  -28.8656   22.7367 N   0  0  0  0  0  0  0  0  0  0  0  0
  -22.1763  -22.8677   21.5794 N   0  0  0  0  0  0  0  0  0  0  0  0
  -23.3007  -20.9371   18.7375 N   0  3  0  0  0  0  0  0  0  0  0  0
  -30.7744  -12.7019   20.4826 O   0  0  0  0  0  0  0  0  0  0  0  0
  -23.6202  -28.6132   22.7812 O   0  0  0  0  0  0  0  0  0  0  0  0
  -20.7451  -25.3406   21.7919 O   0  0  0  0  0  0  0  0  0  0  0  0
  -24.3439  -22.3722   20.9213 O   0  0  0  0  0  0  0  0  0  0  0  0
  -29.4953  -22.1219   21.2572 O   0  0  0  0  0  0  0  0  0  0  0  0
  -23.0679  -11.6531   20.1728 O   0  0  0  0  0  0  0  0  0  0  0  0
  -28.7962  -27.4741   20.2151 O   0  0  0  0  0  0  0  0  0  1  0  0
  -22.8826   -6.5724   22.3073 F   0  0  0  0  0  0  0  0  0  0  0  0
  -28.2073  -24.7378   15.6003 F   0  0  0  0  0  0  0  0  0  0  0  0
  -21.1185  -10.9544   22.0043 F   0  0  0  0  0  0  0  0  0  0  0  0
  1  2  1  0  0  0  0
  1  5  2  0  0  0  0
  2  6  2  0  0  0  0
  3  8  2  0  0  0  0
  3 17  1  0  0  0  0
  4  9  1  0  0  0  0
  4 17  2  0  0  0  0
  5 19  1  0  0  0  0
  6 21  1  0  0  0  0
  7 10  2  0  0  0  0
  7 20  1  0  0  0  0
  8 23  1  0  0  0  0
  9 23  2  0  0  0  0
 10 24  1  0  0  0  0
 11 12  2  0  0  0  0
 11 25  1  0  0  0  0
 12 26  1  0  0  0  0
 13 14  2  0  0  0  0
 13 27  1  0  0  0  0
 14 30  1  0  0  0  0
 15 22  1  0  0  0  0
 15 24  2  0  0  0  0
 16 26  2  0  0  0  0
 16 28  1  0  0  0  0
 17 29  1  0  0  0  0
 18 29  1  0  0  0  0
 18 32  2  0  0  0  0
 18 33  1  0  0  0  0
 19 21  2  0  0  0  0
 19 38  1  0  0  0  0
 20 22  2  0  0  0  0
 20 39  1  0  0  0  0
 21 47  1  0  0  0  0
 22 40  1  0  0  0  0
 23 81  1  0  0  0  0
 24 82  1  0  0  0  0
 25 28  2  0  0  0  0
 25 81  1  0  0  0  0
 26 83  1  0  0  0  0
 27 31  2  0  0  0  0
 27 84  1  0  0  0  0
 28 85  1  0  0  0  0
 29 64  2  0  0  0  0
 30 65  2  0  0  0  0
 30 71  1  0  0  0  0
 31 65  1  0  0  0  0
 31 72  1  0  0  0  0
 32 66  1  0  0  0  0
 32 69  1  0  0  0  0
 33 70  1  0  0  0  0
 33 76  2  0  0  0  0
 34 48  1  0  0  0  0
 34 73  1  0  0  0  0
 34 77  2  0  0  0  0
 35 59  1  0  0  0  0
 35 67  1  0  0  0  0
 35 78  2  0  0  0  0
 36 60  1  0  0  0  0
 36 74  1  0  0  0  0
 36 79  2  0  0  0  0
 37 68  1  0  0  0  0
 37 71  1  0  0  0  0
 37 80  2  0  0  0  0
 38 41  1  0  0  0  0
 39 48  1  0  0  0  0
 40 67  1  0  0  0  0
 41 43  1  0  0  0  0
 42 44  1  0  0  0  0
 42 45  1  0  0  0  0
 43 47  1  0  0  0  0
 44 49  1  0  0  0  0
 45 68  1  0  0  0  0
 46 49  1  0  0  0  0
 46 68  1  0  0  0  0
 47 73  1  0  0  0  0
 48 67  1  0  0  0  0
 49 66  1  0  0  0  0
 50 60  1  0  0  0  0
 51 61  1  0  0  0  0
 52 61  1  0  0  0  0
 53 63  1  0  0  0  0
 54 63  1  0  0  0  0
 55 63  1  0  0  0  0
 56 75  1  0  0  0  0
 57 58  1  0  0  0  0
 57 62  1  0  0  0  0
 58 82  1  0  0  0  0
 59 63  1  0  0  0  0
 59 74  1  0  0  0  0
 60 75  1  0  0  0  0
 61 62  1  0  0  0  0
 62 72  1  0  0  0  0
 64 66  1  0  0  0  0
M  CHG  1  75   1
M  ISO  4  37 100  58 101  71 100  82 101
M  END
> <Batch ID>
0189

> <Smiles>
CNC(C)C(=O)NC(C(=O)N1Cc2cc([101O:1][101CH2:1]CC(Nc3nc([100NH:0][100C:0](=O)N4CCCC(n5nc(-c6ccc(Oc7ccc(F)cc7F)cc6)c(C(N)=O)c5N)C4)ccc3F)C(C)C)ccc2CC1C(=O)NC1CCCc2ccccc21)C(C)(C)C

> <Shape>
0.268

> <Color>
0.105

> <Negative vol penalty>
0.000

$$$$

  -OEChem-04052305183D

 90 98  0     1  0  0  0  0  0999 V2000
  -13.5810  -16.0546   19.2382 C   0  0  0  0  0  0  0  0  0  0  0  0
  -14.8521  -15.6388   19.6212 C   0  0  0  0  0  0  0  0  0  0  0  0
  -22.6879  -29.8694   19.9238 C   0  0  0  0  0  0  0  0  0  0  0  0
  -22.4783  -28.1894   21.6474 C   0  0  0  0  0  0  0  0  0  0  0  0
  -13.4093  -17.2966   18.6284 C   0  0  0  0  0  0  0  0  0  0  0  0
  -15.9525  -16.4645   19.3937 C   0  0  0  0  0  0  0  0  0  0  0  0
  -20.9116  -17.0497   22.9392 C   0  0  0  0  0  0  0  0  0  0  0  0
  -21.3076  -30.0686   19.9502 C   0  0  0  0  0  0  0  0  0  0  0  0
  -21.0980  -28.3887   21.6739 C   0  0  0  0  0  0  0  0  0  0  0  0
  -22.1869  -16.4907   22.8680 C   0  0  0  0  0  0  0  0  0  0  0  0
  -18.9316  -30.6332   22.9735 C   0  0  0  0  0  0  0  0  0  0  0  0
  -18.3167  -30.7343   24.2214 C   0  0  0  0  0  0  0  0  0  0  0  0
  -22.9840  -18.4681   21.7396 C   0  0  0  0  0  0  0  0  0  0  0  0
  -16.9465  -28.8134   23.7019 C   0  0  0  0  0  0  0  0  0  0  0  0
  -23.2733  -28.9297   20.7724 C   0  0  0  0  0  0  0  0  0  0  0  0
  -25.6697  -29.3914   21.5149 C   0  0  0  0  0  0  0  0  0  0  0  0
  -14.5068  -18.1420   18.4021 C   0  0  0  0  0  0  0  0  0  0  0  0
  -20.6601  -18.3197   22.4005 C   0  0  0  0  0  0  0  0  0  0  0  0
  -15.7955  -17.7184   18.7791 C   0  0  0  0  0  0  0  0  0  0  0  0
  -21.7053  -19.0420   21.8075 C   0  0  0  0  0  0  0  0  0  0  0  0
  -20.5127  -29.3283   20.8253 C   0  0  0  0  0  0  0  0  0  0  0  0
  -23.2226  -17.1987   22.2656 C   0  0  0  0  0  0  0  0  0  0  0  0
  -18.5539  -29.6222   22.0897 C   0  0  0  0  0  0  0  0  0  0  0  0
  -17.3242  -29.8245   24.5857 C   0  0  0  0  0  0  0  0  0  0  0  0
  -17.5613  -28.7124   22.4540 C   0  0  0  0  0  0  0  0  0  0  0  0
  -24.6990  -28.7230   20.7451 C   0  0  0  0  0  0  0  0  0  0  0  0
  -28.9930  -19.9583   21.2172 C   0  0  0  0  0  0  0  0  0  0  0  0
  -26.8626  -28.8366   21.1203 C   0  0  0  0  0  0  0  0  0  0  0  0
  -28.1849  -20.1572   22.3170 C   0  0  0  0  0  0  0  0  0  0  0  0
  -28.1458  -21.9021   20.6568 C   0  0  0  0  0  0  0  0  0  0  0  0
  -25.5077  -30.4217   22.4988 C   0  0  0  0  0  0  0  0  0  0  0  0
  -18.7843  -19.4470   20.0953 C   0  0  0  0  0  0  0  0  0  0  0  0
  -19.8336  -22.3181   21.1809 C   0  0  0  0  0  0  0  0  0  0  0  0
  -21.8368  -23.7648   23.1313 C   0  0  0  0  0  0  0  0  0  0  0  0
  -28.3199  -23.5460   18.7558 C   0  0  0  0  0  0  0  0  0  0  0  0
  -14.2782  -19.4555   17.6969 C   0  0  0  0  0  0  0  0  0  0  0  0
  -19.2851  -18.9198   22.5092 C   0  0  0  0  0  0  0  0  0  0  0  0
  -21.4921  -20.4175   21.2321 C   0  0  0  0  0  0  0  0  0  0  0  0
  -15.4453  -20.4302   17.8312 C   0  0  0  0  0  0  0  0  0  0  0  0
  -28.9594  -26.7547   17.3516 C   0  0  0  0  0  0  0  0  0  0  0  0
  -16.7676  -19.7206   17.5575 C   0  0  0  0  0  0  0  0  0  0  0  0
  -28.0322  -27.6854   18.1367 C   0  0  0  0  0  0  0  0  0  0  0  0
  -28.3131  -25.3945   17.0951 C   0  0  0  0  0  0  0  0  0  0  0  0
  -26.8712  -25.6469   19.0767 C   0  0  0  0  0  0  0  0  0  0  0  0
  -17.0106  -18.5964   18.5717 C   0  0  1  0  0  0  0  0  0  0  0  0
  -19.0231  -20.0052   21.4697 C   0  0  1  0  0  0  0  0  0  0  0  0
  -27.5036  -27.0066   19.4155 C   0  0  2  0  0  0  0  0  0  0  0  0
  -23.2618  -25.2755   24.5401 C   0  0  0  0  0  0  0  0  0  0  0  0
  -33.1031  -19.0439   23.2665 C   0  0  0  0  0  0  0  0  0  0  0  0
  -31.5782  -20.9403   22.7604 C   0  0  0  0  0  0  0  0  0  0  0  0
  -32.8457  -19.8235   20.9082 C   0  0  0  0  0  0  0  0  0  0  0  0
  -20.6587  -22.9596   18.3142 C   0  0  0  0  0  0  0  0  0  0  0  0
  -22.0676  -24.8248   19.2111 C   0  0  0  0  0  0  0  0  0  0  0  0
  -19.5956  -24.8601   19.5439 C   0  0  0  0  0  0  0  0  0  0  0  0
  -19.7193  -24.0439   25.1800 C   0  0  0  0  0  0  0  0  0  0  0  0
  -29.0281  -17.4598   20.8439 C   0  0  0  0  0  0  0  0  0  0  0  0
  -30.9622  -18.5361   22.0727 C   0  0  0  0  0  0  0  0  0  0  0  0
  -27.1897  -16.2331   19.5534 C   0  0  0  0  0  0  0  0  0  0  0  0
  -25.2800  -17.0338   21.0840 C   0  0  0  0  0  0  0  0  0  1  0  0
  -29.8831  -18.7517   20.9749 C   0  0  2  0  0  0  0  0  0  0  0  0
  -21.0002  -23.2209   20.8601 C   0  0  1  0  0  0  0  0  0  0  0  0
  -21.8431  -24.8778   24.1637 C   0  0  2  0  0  0  0  0  0  0  0  0
  -26.2670  -15.9210   20.7360 C   0  0  1  0  0  0  0  0  0  0  0  0
  -28.0282  -17.5042   19.6830 C   0  0  2  0  0  0  0  0  0  0  0  0
  -32.0965  -19.5940   22.2306 C   0  0  0  0  0  0  0  0  0  0  0  0
  -20.8344  -23.9397   19.4914 C   0  0  0  0  0  0  0  0  0  0  0  0
  -25.2292  -27.8131   19.9235 N   0  0  0  0  0  0  0  0  0  0  0  0
  -28.9716  -20.9577   20.2640 N   0  0  0  0  0  0  0  0  0  0  0  0
  -26.5462  -27.9060   20.1747 N   0  0  0  0  0  0  0  0  0  0  0  0
  -20.1287  -20.9588   21.3571 N   0  0  0  0  0  0  0  0  0  0  0  0
  -27.8401  -24.8099   18.3519 N   0  0  0  0  0  0  0  0  0  0  0  0
  -28.1408  -29.0589   21.4934 N   0  0  0  0  0  0  0  0  0  0  0  0
  -24.2127  -30.8761   22.7833 N   0  0  0  0  0  0  0  0  0  0  0  0
  -27.8249  -23.1067   19.9832 N   0  0  0  0  0  0  0  0  0  0  0  0
  -17.4620  -19.1429   19.8335 N   0  0  0  0  0  0  0  0  0  0  0  0
  -21.1413  -24.1249   21.9964 N   0  0  0  0  0  0  0  0  0  0  0  0
  -21.1336  -24.4418   25.3997 N   0  3  0  0  0  0  0  0  0  0  0  0
  -26.4837  -30.9359   23.0958 O   0  0  0  0  0  0  0  0  0  0  0  0
  -19.7295  -19.3043   19.3285 O   0  0  0  0  0  0  0  0  0  0  0  0
  -18.7032  -22.8022   21.2787 O   0  0  0  0  0  0  0  0  0  0  0  0
  -22.3963  -22.6856   23.3120 O   0  0  0  0  0  0  0  0  0  0  0  0
  -29.1325  -22.9130   18.0768 O   0  0  0  0  0  0  0  0  0  0  0  0
  -25.5319  -14.7416   20.3983 O   0  0  0  0  0  0  0  0  0  0  0  0
  -19.1658  -29.5227   20.8515 O   0  0  0  0  0  0  0  0  0  0  0  0
  -24.4768  -16.6514   22.1936 O   0  0  0  0  0  0  0  0  0  1  0  0
  -16.7349  -29.9207   25.7847 F   0  0  0  0  0  0  0  0  0  0  0  0
  -17.1951  -27.7383   21.6097 F   0  0  0  0  0  0  0  0  0  0  0  0
  -28.0611  -19.3171   23.3478 F   0  0  0  0  0  0  0  0  0  0  0  0
  -28.7370  -17.6378   18.5223 F   0  0  0  0  0  0  0  0  0  0  0  0
  -27.3616  -21.6538   22.1629 S   0  0  0  0  0  0  0  0  0  0  0  0
  1  2  1  0  0  0  0
  1  5  2  0  0  0  0
  2  6  2  0  0  0  0
  3  8  2  0  0  0  0
  3 15  1  0  0  0  0
  4  9  1  0  0  0  0
  4 15  2  0  0  0  0
  5 17  1  0  0  0  0
  6 19  1  0  0  0  0
  7 10  2  0  0  0  0
  7 18  1  0  0  0  0
  8 21  1  0  0  0  0
  9 21  2  0  0  0  0
 10 22  1  0  0  0  0
 11 12  2  0  0  0  0
 11 23  1  0  0  0  0
 12 24  1  0  0  0  0
 13 20  1  0  0  0  0
 13 22  2  0  0  0  0
 14 24  2  0  0  0  0
 14 25  1  0  0  0  0
 15 26  1  0  0  0  0
 16 26  1  0  0  0  0
 16 28  2  0  0  0  0
 16 31  1  0  0  0  0
 17 19  2  0  0  0  0
 17 36  1  0  0  0  0
 18 20  2  0  0  0  0
 18 37  1  0  0  0  0
 19 45  1  0  0  0  0
 20 38  1  0  0  0  0
 21 84  1  0  0  0  0
 22 85  1  0  0  0  0
 23 25  2  0  0  0  0
 23 84  1  0  0  0  0
 24 86  1  0  0  0  0
 25 87  1  0  0  0  0
 26 67  2  0  0  0  0
 27 29  2  0  0  0  0
 27 60  1  0  0  0  0
 27 68  1  0  0  0  0
 28 69  1  0  0  0  0
 28 72  1  0  0  0  0
 29 88  1  0  0  0  0
 29 90  1  0  0  0  0
 30 68  2  0  0  0  0
 30 74  1  0  0  0  0
 30 90  1  0  0  0  0
 31 73  1  0  0  0  0
 31 78  2  0  0  0  0
 32 46  1  0  0  0  0
 32 75  1  0  0  0  0
 32 79  2  0  0  0  0
 33 61  1  0  0  0  0
 33 70  1  0  0  0  0
 33 80  2  0  0  0  0
 34 62  1  0  0  0  0
 34 76  1  0  0  0  0
 34 81  2  0  0  0  0
 35 71  1  0  0  0  0
 35 74  1  0  0  0  0
 35 82  2  0  0  0  0
 36 39  1  0  0  0  0
 37 46  1  0  0  0  0
 38 70  1  0  0  0  0
 39 41  1  0  0  0  0
 40 42  1  0  0  0  0
 40 43  1  0  0  0  0
 41 45  1  0  0  0  0
 42 47  1  0  0  0  0
 43 71  1  0  0  0  0
 44 47  1  0  0  0  0
 44 71  1  0  0  0  0
 45 75  1  0  0  0  0
 46 70  1  0  0  0  0
 47 69  1  0  0  0  0
 48 62  1  0  0  0  0
 49 65  1  0  0  0  0
 50 65  1  0  0  0  0
 51 65  1  0  0  0  0
 52 66  1  0  0  0  0
 53 66  1  0  0  0  0
 54 66  1  0  0  0  0
 55 77  1  0  0  0  0
 56 60  1  0  0  0  0
 56 64  1  0  0  0  0
 57 60  1  0  0  0  0
 57 65  1  0  0  0  0
 58 63  1  0  0  0  0
 58 64  1  0  0  0  0
 59 63  1  0  0  0  0
 59 85  1  0  0  0  0
 61 66  1  0  0  0  0
 61 76  1  0  0  0  0
 62 77  1  0  0  0  0
 63 83  1  0  0  0  0
 64 89  1  0  0  0  0
 67 69  1  0  0  0  0
M  CHG  1  77   1
M  ISO  4  35 100  59 101  74 100  85 101
M  END
> <Batch ID>
0189

> <Smiles>
CNC(C)C(=O)NC(C(=O)N1Cc2cc([101O:1][101CH2:1]C(O)CC(F)CC(CC(C)(C)C)c3nc([100NH:0][100C:0](=O)N4CCCC(n5nc(-c6ccc(Oc7ccc(F)cc7F)cc6)c(C(N)=O)c5N)C4)sc3F)ccc2CC1C(=O)NC1CCCc2ccccc21)C(C)(C)C

> <Shape>
0.182

> <Color>
0.078

> <Negative vol penalty>
0.000

$$$$

  -OEChem-04052305183D

 88 96  0     1  0  0  0  0  0999 V2000
  -17.8005  -25.3731   21.2857 C   0  0  0  0  0  0  0  0  0  0  0  0
  -19.1302  -25.2614   20.8924 C   0  0  0  0  0  0  0  0  0  0  0  0
  -22.5070  -14.4969   21.7824 C   0  0  0  0  0  0  0  0  0  0  0  0
  -24.2798  -14.1815   23.3932 C   0  0  0  0  0  0  0  0  0  0  0  0
  -17.4037  -26.4282   22.1063 C   0  0  0  0  0  0  0  0  0  0  0  0
  -20.0638  -26.2055   21.3185 C   0  0  0  0  0  0  0  0  0  0  0  0
  -24.3825  -24.0888   22.9037 C   0  0  0  0  0  0  0  0  0  0  0  0
  -21.6334  -13.7854   22.6046 C   0  0  0  0  0  0  0  0  0  0  0  0
  -23.4061  -13.4700   24.2155 C   0  0  0  0  0  0  0  0  0  0  0  0
  -25.2767  -23.6569   21.9251 C   0  0  0  0  0  0  0  0  0  0  0  0
  -20.9909  -10.5514   23.3481 C   0  0  0  0  0  0  0  0  0  0  0  0
  -20.1750   -9.5919   22.7489 C   0  0  0  0  0  0  0  0  0  0  0  0
  -26.5780  -25.6640   22.2369 C   0  0  0  0  0  0  0  0  0  0  0  0
  -18.2155  -10.7806   23.5133 C   0  0  0  0  0  0  0  0  0  0  0  0
  -30.5369  -15.7952   19.3266 C   0  0  0  0  0  0  0  0  0  0  0  0
  -23.8303  -14.6949   22.1767 C   0  0  0  0  0  0  0  0  0  0  0  0
  -24.9712  -16.8168   21.3379 C   0  0  0  0  0  0  0  0  0  0  0  0
  -18.3347  -27.3802   22.5506 C   0  0  0  0  0  0  0  0  0  0  0  0
  -24.5737  -25.3186   23.5497 C   0  0  0  0  0  0  0  0  0  0  0  0
  -19.6788  -27.2751   22.1447 C   0  0  0  0  0  0  0  0  0  0  0  0
  -25.6863  -26.1080   23.2252 C   0  0  0  0  0  0  0  0  0  0  0  0
  -22.0829  -13.2720   23.8211 C   0  0  0  0  0  0  0  0  0  0  0  0
  -26.3730  -24.4459   21.5895 C   0  0  0  0  0  0  0  0  0  0  0  0
  -20.4191  -11.6256   24.0301 C   0  0  0  0  0  0  0  0  0  0  0  0
  -18.7873   -9.7065   22.8315 C   0  0  0  0  0  0  0  0  0  0  0  0
  -19.0314  -11.7402   24.1126 C   0  0  0  0  0  0  0  0  0  0  0  0
  -24.7335  -15.4293   21.3276 C   0  0  0  0  0  0  0  0  0  0  0  0
  -25.9050  -17.0126   20.3499 C   0  0  0  0  0  0  0  0  0  0  0  0
  -30.3762  -16.7521   20.2886 C   0  0  0  0  0  0  0  0  0  0  0  0
  -30.2161  -14.7705   21.2625 C   0  0  0  0  0  0  0  0  0  0  0  0
  -24.3992  -17.8374   22.1667 C   0  0  0  0  0  0  0  0  0  0  0  0
  -22.9158  -28.0223   23.7622 C   0  0  0  0  0  0  0  0  0  0  0  0
  -29.9884  -13.3443   17.9042 C   0  0  0  0  0  0  0  0  0  0  0  0
  -25.2374  -28.8228   25.8817 C   0  0  0  0  0  0  0  0  0  0  0  0
  -28.4307  -28.3598   26.9929 C   0  0  0  0  0  0  0  0  0  0  0  0
  -17.8495  -28.5297   23.3978 C   0  0  0  0  0  0  0  0  0  0  0  0
  -23.6148  -25.7578   24.6221 C   0  0  0  0  0  0  0  0  0  0  0  0
  -25.9477  -27.4271   23.9036 C   0  0  0  0  0  0  0  0  0  0  0  0
  -18.9731  -29.2770   24.1116 C   0  0  0  0  0  0  0  0  0  0  0  0
  -27.4238  -15.1833   16.2068 C   0  0  0  0  0  0  0  0  0  0  0  0
  -20.1191  -29.5657   23.1472 C   0  0  0  0  0  0  0  0  0  0  0  0
  -26.4503  -15.5565   17.3241 C   0  0  0  0  0  0  0  0  0  0  0  0
  -28.0478  -13.8118   16.4448 C   0  0  0  0  0  0  0  0  0  0  0  0
  -27.7506  -14.0457   18.8899 C   0  0  0  0  0  0  0  0  0  0  0  0
  -20.7259  -28.2653   22.6064 C   0  0  1  0  0  0  0  0  0  0  0  0
  -23.6239  -27.2662   24.8506 C   0  0  1  0  0  0  0  0  0  0  0  0
  -27.1210  -15.4376   18.7041 C   0  0  2  0  0  0  0  0  0  0  0  0
  -28.6547  -13.7714   22.9705 C   0  0  0  0  0  0  0  0  0  0  0  0
  -31.1414  -13.7732   23.3845 C   0  0  0  0  0  0  0  0  0  0  0  0
  -31.9788  -12.7689   19.2761 C   0  0  0  0  0  0  0  0  0  0  0  0
  -30.0551  -29.1850   28.7185 C   0  0  0  0  0  0  0  0  0  0  0  0
  -31.5635  -20.8788   20.3454 C   0  0  0  0  0  0  0  0  0  0  0  0
  -25.6794  -31.3615   24.2479 C   0  0  0  0  0  0  0  0  0  0  0  0
  -27.8730  -31.6502   25.4196 C   0  0  0  0  0  0  0  0  0  0  0  0
  -25.7484  -31.6906   26.7260 C   0  0  0  0  0  0  0  0  0  0  0  0
  -28.6613  -25.6792   28.2260 C   0  0  0  0  0  0  0  0  0  0  0  0
  -29.0639  -20.8328   19.8113 C   0  0  0  0  0  0  0  0  0  0  0  0
  -30.5769  -18.9222   19.0737 C   0  0  0  0  0  0  0  0  0  0  0  0
  -27.4180  -22.6184   20.4830 C   0  0  0  0  0  0  0  0  0  1  0  0
  -30.0442  -13.7241   22.3002 C   0  0  0  0  0  0  0  0  0  0  0  0
  -30.5438  -13.2891   19.3050 C   0  0  1  0  0  0  0  0  0  0  0  0
  -26.5847  -29.4971   25.7874 C   0  0  1  0  0  0  0  0  0  0  0  0
  -28.9913  -28.1498   28.3879 C   0  0  2  0  0  0  0  0  0  0  0  0
  -30.4852  -20.4336   19.3531 C   0  0  2  0  0  0  0  0  0  0  0  0
  -28.8448  -22.3385   20.0165 C   0  0  2  0  0  0  0  0  0  0  0  0
  -26.4657  -31.0260   25.5309 C   0  0  0  0  0  0  0  0  0  0  0  0
  -25.4577  -14.7890   20.4059 N   0  0  0  0  0  0  0  0  0  0  0  0
  -30.4336  -14.5788   19.9573 N   0  0  0  0  0  0  0  0  0  0  0  0
  -26.1596  -15.7786   19.8278 N   0  0  0  0  0  0  0  0  0  0  0  0
  -30.1792  -16.0897   21.4763 N   0  3  0  0  0  0  0  0  0  0  0  0
  -24.9781  -27.8160   24.9410 N   0  0  0  0  0  0  0  0  0  0  0  0
  -28.6545  -13.7318   17.7747 N   0  0  0  0  0  0  0  0  0  0  0  0
  -26.5248  -18.1182   19.8853 N   0  0  0  0  0  0  0  0  0  0  0  0
  -23.4545  -17.4628   23.1319 N   0  0  0  0  0  0  0  0  0  0  0  0
  -30.3785  -18.1375   20.2696 N   0  0  0  0  0  0  0  0  0  0  0  0
  -21.5922  -27.6619   23.5963 N   0  0  0  0  0  0  0  0  0  0  0  0
  -27.3012  -29.1504   27.0101 N   0  0  0  0  0  0  0  0  0  0  0  0
  -29.6021  -26.7952   28.5022 N   0  3  0  0  0  0  0  0  0  0  0  0
  -24.7042  -19.0479   22.0436 O   0  0  0  0  0  0  0  0  0  0  0  0
  -23.5248  -28.8710   23.1215 O   0  0  0  0  0  0  0  0  0  0  0  0
  -30.7205  -13.0543   16.9544 O   0  0  0  0  0  0  0  0  0  0  0  0
  -24.4469  -29.1715   26.7621 O   0  0  0  0  0  0  0  0  0  0  0  0
  -28.9456  -27.8743   25.9880 O   0  0  0  0  0  0  0  0  0  0  0  0
  -29.0410  -23.0331   18.7861 O   0  0  0  0  0  0  0  0  0  0  0  0
  -21.2305  -12.5778   24.6238 O   0  0  0  0  0  0  0  0  0  0  0  0
  -27.2470  -24.0271   20.6341 O   0  0  0  0  0  0  0  0  0  1  0  0
  -18.0038   -8.7858   22.2547 F   0  0  0  0  0  0  0  0  0  0  0  0
  -18.4763  -12.7706   24.7654 F   0  0  0  0  0  0  0  0  0  0  0  0
  1  2  1  0  0  0  0
  1  5  2  0  0  0  0
  2  6  2  0  0  0  0
  3  8  2  0  0  0  0
  3 16  1  0  0  0  0
  4  9  1  0  0  0  0
  4 16  2  0  0  0  0
  5 18  1  0  0  0  0
  6 20  1  0  0  0  0
  7 10  2  0  0  0  0
  7 19  1  0  0  0  0
  8 22  1  0  0  0  0
  9 22  2  0  0  0  0
 10 23  1  0  0  0  0
 11 12  2  0  0  0  0
 11 24  1  0  0  0  0
 12 25  1  0  0  0  0
 13 21  1  0  0  0  0
 13 23  2  0  0  0  0
 14 25  2  0  0  0  0
 14 26  1  0  0  0  0
 15 29  2  0  0  0  0
 15 68  1  0  0  0  0
 16 27  1  0  0  0  0
 17 27  1  0  0  0  0
 17 28  2  0  0  0  0
 17 31  1  0  0  0  0
 18 20  2  0  0  0  0
 18 36  1  0  0  0  0
 19 21  2  0  0  0  0
 19 37  1  0  0  0  0
 20 45  1  0  0  0  0
 21 38  1  0  0  0  0
 22 85  1  0  0  0  0
 23 86  1  0  0  0  0
 24 26  2  0  0  0  0
 24 85  1  0  0  0  0
 25 87  1  0  0  0  0
 26 88  1  0  0  0  0
 27 67  2  0  0  0  0
 28 69  1  0  0  0  0
 28 73  1  0  0  0  0
 29 70  1  0  0  0  0
 29 75  1  0  0  0  0
 30 60  1  0  0  0  0
 30 68  1  0  0  0  0
 30 70  2  0  0  0  0
 31 74  1  0  0  0  0
 31 79  2  0  0  0  0
 32 46  1  0  0  0  0
 32 76  1  0  0  0  0
 32 80  2  0  0  0  0
 33 61  1  0  0  0  0
 33 72  1  0  0  0  0
 33 81  2  0  0  0  0
 34 62  1  0  0  0  0
 34 71  1  0  0  0  0
 34 82  2  0  0  0  0
 35 63  1  0  0  0  0
 35 77  1  0  0  0  0
 35 83  2  0  0  0  0
 36 39  1  0  0  0  0
 37 46  1  0  0  0  0
 38 71  1  0  0  0  0
 39 41  1  0  0  0  0
 40 42  1  0  0  0  0
 40 43  1  0  0  0  0
 41 45  1  0  0  0  0
 42 47  1  0  0  0  0
 43 72  1  0  0  0  0
 44 47  1  0  0  0  0
 44 72  1  0  0  0  0
 45 76  1  0  0  0  0
 46 71  1  0  0  0  0
 47 69  1  0  0  0  0
 48 60  1  0  0  0  0
 49 60  1  0  0  0  0
 50 61  1  0  0  0  0
 51 63  1  0  0  0  0
 52 64  1  0  0  0  0
 53 66  1  0  0  0  0
 54 66  1  0  0  0  0
 55 66  1  0  0  0  0
 56 78  1  0  0  0  0
 57 64  1  0  0  0  0
 57 65  1  0  0  0  0
 58 64  1  0  0  0  0
 58 75  1  0  0  0  0
 59 65  1  0  0  0  0
 59 86  1  0  0  0  0
 61 68  1  0  0  0  0
 62 66  1  0  0  0  0
 62 77  1  0  0  0  0
 63 78  1  0  0  0  0
 65 84  1  0  0  0  0
 67 69  1  0  0  0  0
M  CHG  2  70   1  78   1
M  ISO  4  33 100  59 101  61 100  86 101
M  END
> <Batch ID>
0189

> <Smiles>
CNC(C)C(=O)NC(C(=O)N1Cc2cc([101O:1][101CH2:1]C(O)CC(C)CNc3cn([100CH:0](C)[100C:0](=O)N4CCCC(n5nc(-c6ccc(Oc7ccc(F)cc7F)cc6)c(C(N)=O)c5N)C4)c(C(C)C)n3)ccc2CC1C(=O)NC1CCCc2ccccc21)C(C)(C)C

> <Shape>
0.218

> <Color>
0.078

> <Negative vol penalty>
0.000

$$$$

  -OEChem-04052305183D

 83 91  0     1  0  0  0  0  0999 V2000
  -28.1075  -31.2909   27.7738 C   0  0  0  0  0  0  0  0  0  0  0  0
  -28.3072  -30.4195   26.7079 C   0  0  0  0  0  0  0  0  0  0  0  0
  -23.3779   -9.7912   21.5560 C   0  0  0  0  0  0  0  0  0  0  0  0
  -23.8634  -10.9302   23.6306 C   0  0  0  0  0  0  0  0  0  0  0  0
  -26.8177  -31.5261   28.2482 C   0  0  0  0  0  0  0  0  0  0  0  0
  -27.2173  -29.7820   26.1163 C   0  0  0  0  0  0  0  0  0  0  0  0
  -27.4247  -29.8723   21.0573 C   0  0  0  0  0  0  0  0  0  0  0  0
  -22.7445   -8.7703   22.2647 C   0  0  0  0  0  0  0  0  0  0  0  0
  -23.2300   -9.9093   24.3393 C   0  0  0  0  0  0  0  0  0  0  0  0
  -28.2825  -28.9638   20.4389 C   0  0  0  0  0  0  0  0  0  0  0  0
  -23.6487   -6.0554   24.0636 C   0  0  0  0  0  0  0  0  0  0  0  0
  -23.9383   -4.7399   23.7015 C   0  0  0  0  0  0  0  0  0  0  0  0
  -26.4064  -27.5225   19.9674 C   0  0  0  0  0  0  0  0  0  0  0  0
  -21.6066   -4.3675   23.1901 C   0  0  0  0  0  0  0  0  0  0  0  0
  -30.9057  -18.7191   20.0829 C   0  0  0  0  0  0  0  0  0  0  0  0
  -23.9374  -10.8711   22.2389 C   0  0  0  0  0  0  0  0  0  0  0  0
  -24.0049  -13.1002   21.0003 C   0  0  0  0  0  0  0  0  0  0  0  0
  -25.7105  -30.8985   27.6559 C   0  0  0  0  0  0  0  0  0  0  0  0
  -26.0505  -29.6072   21.1452 C   0  0  0  0  0  0  0  0  0  0  0  0
  -25.9116  -30.0080   26.5841 C   0  0  0  0  0  0  0  0  0  0  0  0
  -25.5329  -28.4305   20.5852 C   0  0  0  0  0  0  0  0  0  0  0  0
  -22.6705   -8.8294   23.6563 C   0  0  0  0  0  0  0  0  0  0  0  0
  -27.7739  -27.7873   19.8964 C   0  0  0  0  0  0  0  0  0  0  0  0
  -22.3380   -6.5270   23.9890 C   0  0  0  0  0  0  0  0  0  0  0  0
  -22.9172   -3.8959   23.2647 C   0  0  0  0  0  0  0  0  0  0  0  0
  -21.3170   -5.6830   23.5522 C   0  0  0  0  0  0  0  0  0  0  0  0
  -24.5924  -11.9256   21.5075 C   0  0  0  0  0  0  0  0  0  0  0  0
  -25.0405  -13.7673   20.3927 C   0  0  0  0  0  0  0  0  0  0  0  0
  -29.7670  -18.0587   20.4945 C   0  0  0  0  0  0  0  0  0  0  0  0
  -29.6424  -20.4643   20.4926 C   0  0  0  0  0  0  0  0  0  0  0  0
  -22.6449  -13.5482   21.0721 C   0  0  0  0  0  0  0  0  0  0  0  0
  -29.2241  -21.8926   20.6119 C   0  0  0  0  0  0  0  0  0  0  0  0
  -23.9953  -29.1870   23.5333 C   0  0  0  0  0  0  0  0  0  0  0  0
  -21.8149  -29.1414   21.1321 C   0  0  0  0  0  0  0  0  0  0  0  0
  -21.1553  -28.6021   17.8274 C   0  0  0  0  0  0  0  0  0  0  0  0
  -30.2981  -15.6001   20.3548 C   0  0  0  0  0  0  0  0  0  0  0  0
  -24.3398  -31.1476   28.2339 C   0  0  0  0  0  0  0  0  0  0  0  0
  -25.1347  -30.6100   21.7918 C   0  0  0  0  0  0  0  0  0  0  0  0
  -24.0625  -28.1085   20.6353 C   0  0  0  0  0  0  0  0  0  0  0  0
  -23.2023  -30.7211   27.3095 C   0  0  0  0  0  0  0  0  0  0  0  0
  -29.7415  -12.2482   19.2908 C   0  0  0  0  0  0  0  0  0  0  0  0
  -23.4695  -29.3313   26.7403 C   0  0  0  0  0  0  0  0  0  0  0  0
  -28.3040  -11.9621   19.7310 C   0  0  0  0  0  0  0  0  0  0  0  0
  -30.4809  -13.1224   20.3022 C   0  0  0  0  0  0  0  0  0  0  0  0
  -28.3586  -14.0847   21.1015 C   0  0  0  0  0  0  0  0  0  0  0  0
  -24.7522  -29.3166   25.9000 C   0  0  1  0  0  0  0  0  0  0  0  0
  -23.8256  -29.9966   22.2789 C   0  0  1  0  0  0  0  0  0  0  0  0
  -27.5533  -13.2613   20.0831 C   0  0  2  0  0  0  0  0  0  0  0  0
  -19.2727  -28.6062   16.1682 C   0  0  0  0  0  0  0  0  0  0  0  0
  -20.8349  -26.4731   22.2411 C   0  0  0  0  0  0  0  0  0  0  0  0
  -19.6570  -26.0814   20.0669 C   0  0  0  0  0  0  0  0  0  0  0  0
  -19.0192  -28.0235   21.4966 C   0  0  0  0  0  0  0  0  0  0  0  0
  -22.4288  -30.7305   16.2129 C   0  0  0  0  0  0  0  0  0  0  0  0
  -30.2245  -22.9806   20.2399 C   0  0  0  0  0  0  0  0  0  0  0  0
  -30.4707  -25.4150   19.6037 C   0  0  0  0  0  0  0  0  0  0  0  0
  -29.9512  -26.8385   19.7739 C   0  0  0  0  0  0  0  0  0  1  0  0
  -21.2182  -28.0714   20.2500 C   0  0  1  0  0  0  0  0  0  0  0  0
  -20.3862  -29.4215   16.8070 C   0  0  2  0  0  0  0  0  0  0  0  0
  -29.6454  -24.3929   20.3919 C   0  0  2  0  0  0  0  0  0  0  0  0
  -20.2104  -27.1672   21.0143 C   0  0  0  0  0  0  0  0  0  0  0  0
  -30.8360  -20.0985   20.0808 N   0  0  0  0  0  0  0  0  0  0  0  0
  -25.8996  -11.8480   21.2447 N   0  0  0  0  0  0  0  0  0  0  0  0
  -26.1422  -12.9821   20.5658 N   0  0  0  0  0  0  0  0  0  0  0  0
  -23.2085  -29.1174   21.2837 N   0  0  0  0  0  0  0  0  0  0  0  0
  -29.7126  -14.3370   20.5839 N   0  0  0  0  0  0  0  0  0  0  0  0
  -25.1070  -14.9429   19.7325 N   0  0  0  0  0  0  0  0  0  0  0  0
  -21.7095  -12.7408   21.7335 N   0  0  0  0  0  0  0  0  0  0  0  0
  -29.4611  -16.6816   20.6277 N   0  0  0  0  0  0  0  0  0  0  0  0
  -24.5104  -29.9011   24.5984 N   0  0  0  0  0  0  0  0  0  0  0  0
  -20.6472  -28.7627   19.0992 N   0  0  0  0  0  0  0  0  0  0  0  0
  -21.2994  -29.8956   15.7289 N   0  3  0  0  0  0  0  0  0  0  0  0
  -22.2668  -14.6246   20.5506 O   0  0  0  0  0  0  0  0  0  0  0  0
  -28.0887  -22.1527   21.0030 O   0  0  0  0  0  0  0  0  0  0  0  0
  -23.6808  -28.0026   23.5353 O   0  0  0  0  0  0  0  0  0  0  0  0
  -21.0725  -29.9723   21.6613 O   0  0  0  0  0  0  0  0  0  0  0  0
  -22.1090  -27.8878   17.5260 O   0  0  0  0  0  0  0  0  0  0  0  0
  -31.4473  -15.7136   19.9208 O   0  0  0  0  0  0  0  0  0  0  0  0
  -29.6427  -24.7513   21.7734 O   0  0  0  0  0  0  0  0  0  0  0  0
  -22.0523   -7.8335   24.3481 O   0  0  0  0  0  0  0  0  0  0  0  0
  -28.6091  -26.8985   19.2928 O   0  0  0  0  0  0  0  0  0  1  0  0
  -23.1957   -2.6331   22.9155 F   0  0  0  0  0  0  0  0  0  0  0  0
  -20.0561   -6.1307   23.4773 F   0  0  0  0  0  0  0  0  0  0  0  0
  -28.5540  -19.2015   20.8995 S   0  0  0  0  0  0  0  0  0  0  0  0
  1  2  1  0  0  0  0
  1  5  2  0  0  0  0
  2  6  2  0  0  0  0
  3  8  2  0  0  0  0
  3 16  1  0  0  0  0
  4  9  1  0  0  0  0
  4 16  2  0  0  0  0
  5 18  1  0  0  0  0
  6 20  1  0  0  0  0
  7 10  2  0  0  0  0
  7 19  1  0  0  0  0
  8 22  1  0  0  0  0
  9 22  2  0  0  0  0
 10 23  1  0  0  0  0
 11 12  2  0  0  0  0
 11 24  1  0  0  0  0
 12 25  1  0  0  0  0
 13 21  1  0  0  0  0
 13 23  2  0  0  0  0
 14 25  2  0  0  0  0
 14 26  1  0  0  0  0
 15 29  2  0  0  0  0
 15 61  1  0  0  0  0
 16 27  1  0  0  0  0
 17 27  1  0  0  0  0
 17 28  2  0  0  0  0
 17 31  1  0  0  0  0
 18 20  2  0  0  0  0
 18 37  1  0  0  0  0
 19 21  2  0  0  0  0
 19 38  1  0  0  0  0
 20 46  1  0  0  0  0
 21 39  1  0  0  0  0
 22 79  1  0  0  0  0
 23 80  1  0  0  0  0
 24 26  2  0  0  0  0
 24 79  1  0  0  0  0
 25 81  1  0  0  0  0
 26 82  1  0  0  0  0
 27 62  2  0  0  0  0
 28 63  1  0  0  0  0
 28 66  1  0  0  0  0
 29 68  1  0  0  0  0
 29 83  1  0  0  0  0
 30 32  1  0  0  0  0
 30 61  2  0  0  0  0
 30 83  1  0  0  0  0
 31 67  1  0  0  0  0
 31 72  2  0  0  0  0
 32 54  1  0  0  0  0
 32 73  2  0  0  0  0
 33 47  1  0  0  0  0
 33 69  1  0  0  0  0
 33 74  2  0  0  0  0
 34 57  1  0  0  0  0
 34 64  1  0  0  0  0
 34 75  2  0  0  0  0
 35 58  1  0  0  0  0
 35 70  1  0  0  0  0
 35 76  2  0  0  0  0
 36 65  1  0  0  0  0
 36 68  1  0  0  0  0
 36 77  2  0  0  0  0
 37 40  1  0  0  0  0
 38 47  1  0  0  0  0
 39 64  1  0  0  0  0
 40 42  1  0  0  0  0
 41 43  1  0  0  0  0
 41 44  1  0  0  0  0
 42 46  1  0  0  0  0
 43 48  1  0  0  0  0
 44 65  1  0  0  0  0
 45 48  1  0  0  0  0
 45 65  1  0  0  0  0
 46 69  1  0  0  0  0
 47 64  1  0  0  0  0
 48 63  1  0  0  0  0
 49 58  1  0  0  0  0
 50 60  1  0  0  0  0
 51 60  1  0  0  0  0
 52 60  1  0  0  0  0
 53 71  1  0  0  0  0
 54 59  1  0  0  0  0
 55 56  1  0  0  0  0
 55 59  1  0  0  0  0
 56 80  1  0  0  0  0
 57 60  1  0  0  0  0
 57 70  1  0  0  0  0
 58 71  1  0  0  0  0
 59 78  1  0  0  0  0
 62 63  1  0  0  0  0
M  CHG  1  71   1
M  ISO  4  36 100  56 101  68 100  80 101
M  END
> <Batch ID>
0189

> <Smiles>
CNC(C)C(=O)NC(C(=O)N1Cc2cc([101O:1][101CH2:1]CC(=O)CC(O)c3ncc([100NH:0][100C:0](=O)N4CCCC(n5nc(-c6ccc(Oc7ccc(F)cc7F)cc6)c(C(N)=O)c5N)C4)s3)ccc2CC1C(=O)NC1CCCc2ccccc21)C(C)(C)C

> <Shape>
0.346

> <Color>
0.152

> <Negative vol penalty>
0.000

$$$$

  -OEChem-04052305183D

 83 91  0     1  0  0  0  0  0999 V2000
  -26.4605  -24.3236   14.1170 C   0  0  0  0  0  0  0  0  0  0  0  0
  -27.2216  -23.3179   14.7041 C   0  0  0  0  0  0  0  0  0  0  0  0
  -23.9281  -24.4627   21.2060 C   0  0  0  0  0  0  0  0  0  0  0  0
  -22.3665  -23.6091   22.8400 C   0  0  0  0  0  0  0  0  0  0  0  0
  -26.6385  -25.6497   14.5091 C   0  0  0  0  0  0  0  0  0  0  0  0
  -28.1619  -23.6378   15.6828 C   0  0  0  0  0  0  0  0  0  0  0  0
  -27.9846  -20.4936   19.6486 C   0  0  0  0  0  0  0  0  0  0  0  0
  -23.4401  -25.7528   21.4135 C   0  0  0  0  0  0  0  0  0  0  0  0
  -21.8785  -24.8992   23.0476 C   0  0  0  0  0  0  0  0  0  0  0  0
  -28.5799  -19.2421   19.4961 C   0  0  0  0  0  0  0  0  0  0  0  0
  -19.7759  -27.0466   21.4987 C   0  0  0  0  0  0  0  0  0  0  0  0
  -18.3924  -27.2150   21.5540 C   0  0  0  0  0  0  0  0  0  0  0  0
  -30.5283  -20.0313   20.6794 C   0  0  0  0  0  0  0  0  0  0  0  0
  -18.5880  -28.0843   23.7997 C   0  0  0  0  0  0  0  0  0  0  0  0
  -25.8718  -14.0748   20.9276 C   0  0  0  0  0  0  0  0  0  0  0  0
  -26.1668  -11.9394   20.4700 C   0  0  0  0  0  0  0  0  0  0  0  0
  -23.3913  -23.3908   21.9192 C   0  0  0  0  0  0  0  0  0  0  0  0
  -24.9527  -21.4287   22.3878 C   0  0  0  0  0  0  0  0  0  0  0  0
  -27.5746  -25.9850   15.5001 C   0  0  0  0  0  0  0  0  0  0  0  0
  -28.6623  -21.5283   20.3093 C   0  0  0  0  0  0  0  0  0  0  0  0
  -28.3534  -24.9698   16.0876 C   0  0  0  0  0  0  0  0  0  0  0  0
  -29.9384  -21.2942   20.8412 C   0  0  0  0  0  0  0  0  0  0  0  0
  -22.4153  -25.9711   22.3343 C   0  0  0  0  0  0  0  0  0  0  0  0
  -29.8531  -19.0117   20.0089 C   0  0  0  0  0  0  0  0  0  0  0  0
  -20.5655  -27.3969   22.5939 C   0  0  0  0  0  0  0  0  0  0  0  0
  -17.7984  -27.7339   22.7045 C   0  0  0  0  0  0  0  0  0  0  0  0
  -19.9715  -27.9158   23.7444 C   0  0  0  0  0  0  0  0  0  0  0  0
  -23.8946  -22.0578   21.7049 C   0  0  0  0  0  0  0  0  0  0  0  0
  -24.7116  -13.3580   21.1028 C   0  0  0  0  0  0  0  0  0  0  0  0
  -25.0362  -20.1819   21.8176 C   0  0  0  0  0  0  0  0  0  0  0  0
  -25.7856  -21.9267   23.4433 C   0  0  0  0  0  0  0  0  0  0  0  0
  -29.7105  -24.4119   19.4787 C   0  0  0  0  0  0  0  0  0  0  0  0
  -30.4156  -24.6373   22.6370 C   0  0  0  0  0  0  0  0  0  0  0  0
  -31.1147  -23.0398   25.5706 C   0  0  0  0  0  0  0  0  0  0  0  0
  -22.6119  -15.5380   19.8937 C   0  0  0  0  0  0  0  0  0  0  0  0
  -27.7649  -27.4379   15.8572 C   0  0  0  0  0  0  0  0  0  0  0  0
  -27.9955  -22.8646   20.4889 C   0  0  0  0  0  0  0  0  0  0  0  0
  -30.6998  -22.3657   21.5765 C   0  0  0  0  0  0  0  0  0  0  0  0
  -28.5174  -27.6493   17.1684 C   0  0  0  0  0  0  0  0  0  0  0  0
  -22.8374  -18.3064   17.6662 C   0  0  0  0  0  0  0  0  0  0  0  0
  -29.7532  -26.7569   17.2245 C   0  0  0  0  0  0  0  0  0  0  0  0
  -23.2135  -19.4777   18.5754 C   0  0  0  0  0  0  0  0  0  0  0  0
  -21.8798  -17.3392   18.3588 C   0  0  0  0  0  0  0  0  0  0  0  0
  -22.7186  -18.0116   20.5765 C   0  0  0  0  0  0  0  0  0  0  0  0
  -29.3659  -25.2741   17.1704 C   0  0  1  0  0  0  0  0  0  0  0  0
  -28.9865  -23.9993   20.7290 C   0  0  1  0  0  0  0  0  0  0  0  0
  -23.7268  -18.9847   19.9417 C   0  0  2  0  0  0  0  0  0  0  0  0
  -31.6843  -23.4915   27.9724 C   0  0  0  0  0  0  0  0  0  0  0  0
  -29.9474  -14.4994   16.8800 C   0  0  0  0  0  0  0  0  0  0  0  0
  -33.2621  -25.3732   21.8210 C   0  0  0  0  0  0  0  0  0  0  0  0
  -33.9873  -24.8809   24.1662 C   0  0  0  0  0  0  0  0  0  0  0  0
  -32.3455  -26.7071   23.7276 C   0  0  0  0  0  0  0  0  0  0  0  0
  -28.6880  -21.6432   26.5295 C   0  0  0  0  0  0  0  0  0  0  0  0
  -23.3946  -13.8494   21.5355 C   0  0  0  0  0  0  0  0  0  0  0  0
  -28.3873  -14.0557   18.7997 C   0  0  0  0  0  0  0  0  0  0  0  0
  -30.5067  -15.5073   19.1375 C   0  0  0  0  0  0  0  0  0  0  0  0
  -28.2406  -13.4233   20.1874 C   0  0  0  0  0  0  0  0  0  0  0  0
  -29.6876  -16.7927   19.1693 C   0  0  0  0  0  0  0  0  0  1  0  0
  -31.6129  -24.2988   23.4919 C   0  0  1  0  0  0  0  0  0  0  0  0
  -30.5679  -23.2265   26.9744 C   0  0  2  0  0  0  0  0  0  0  0  0
  -29.8514  -14.3247   18.3995 C   0  0  2  0  0  0  0  0  0  0  0  0
  -32.7887  -25.2952   23.2861 C   0  0  0  0  0  0  0  0  0  0  0  0
  -24.9020  -12.0293   20.8166 N   0  0  0  0  0  0  0  0  0  0  0  0
  -23.3454  -21.2754   20.7721 N   0  0  0  0  0  0  0  0  0  0  0  0
  -26.7951  -13.1526   20.5226 N   0  0  0  0  0  0  0  0  0  0  0  0
  -24.0613  -20.1418   20.8647 N   0  0  0  0  0  0  0  0  0  0  0  0
  -30.0080  -23.6572   21.7208 N   0  0  0  0  0  0  0  0  0  0  0  0
  -22.4263  -16.9084   19.6479 N   0  0  0  0  0  0  0  0  0  0  0  0
  -25.8479  -19.1271   22.0433 N   0  0  0  0  0  0  0  0  0  0  0  0
  -25.5643  -23.2292   23.9110 N   0  0  0  0  0  0  0  0  0  0  0  0
  -28.8779  -24.8318   18.4590 N   0  0  0  0  0  0  0  0  0  0  0  0
  -31.1260  -24.2245   24.8651 N   0  0  0  0  0  0  0  0  0  0  0  0
  -23.1404  -15.2162   21.1379 N   0  0  0  0  0  0  0  0  0  0  0  0
  -29.8288  -22.0075   27.4087 N   0  3  0  0  0  0  0  0  0  0  0  0
  -26.7098  -21.2429   23.9451 O   0  0  0  0  0  0  0  0  0  0  0  0
  -30.9341  -24.3550   19.4424 O   0  0  0  0  0  0  0  0  0  0  0  0
  -29.8580  -25.7280   22.7819 O   0  0  0  0  0  0  0  0  0  0  0  0
  -31.4973  -21.9525   25.1439 O   0  0  0  0  0  0  0  0  0  0  0  0
  -22.3327  -14.6661   19.0638 O   0  0  0  0  0  0  0  0  0  0  0  0
  -21.9390  -27.2299   22.5372 O   0  0  0  0  0  0  0  0  0  0  0  0
  -30.4367  -17.7913   19.8609 O   0  0  0  0  0  0  0  0  0  1  0  0
  -16.4699  -27.8970   22.7569 F   0  0  0  0  0  0  0  0  0  0  0  0
  -20.7250  -28.2553   24.7993 F   0  0  0  0  0  0  0  0  0  0  0  0
  1  2  1  0  0  0  0
  1  5  2  0  0  0  0
  2  6  2  0  0  0  0
  3  8  2  0  0  0  0
  3 17  1  0  0  0  0
  4  9  1  0  0  0  0
  4 17  2  0  0  0  0
  5 19  1  0  0  0  0
  6 21  1  0  0  0  0
  7 10  2  0  0  0  0
  7 20  1  0  0  0  0
  8 23  1  0  0  0  0
  9 23  2  0  0  0  0
 10 24  1  0  0  0  0
 11 12  2  0  0  0  0
 11 25  1  0  0  0  0
 12 26  1  0  0  0  0
 13 22  1  0  0  0  0
 13 24  2  0  0  0  0
 14 26  2  0  0  0  0
 14 27  1  0  0  0  0
 15 29  2  0  0  0  0
 15 65  1  0  0  0  0
 16 63  2  0  0  0  0
 16 65  1  0  0  0  0
 17 28  1  0  0  0  0
 18 28  1  0  0  0  0
 18 30  2  0  0  0  0
 18 31  1  0  0  0  0
 19 21  2  0  0  0  0
 19 36  1  0  0  0  0
 20 22  2  0  0  0  0
 20 37  1  0  0  0  0
 21 45  1  0  0  0  0
 22 38  1  0  0  0  0
 23 80  1  0  0  0  0
 24 81  1  0  0  0  0
 25 27  2  0  0  0  0
 25 80  1  0  0  0  0
 26 82  1  0  0  0  0
 27 83  1  0  0  0  0
 28 64  2  0  0  0  0
 29 54  1  0  0  0  0
 29 63  1  0  0  0  0
 30 66  1  0  0  0  0
 30 69  1  0  0  0  0
 31 70  1  0  0  0  0
 31 75  2  0  0  0  0
 32 46  1  0  0  0  0
 32 71  1  0  0  0  0
 32 76  2  0  0  0  0
 33 59  1  0  0  0  0
 33 67  1  0  0  0  0
 33 77  2  0  0  0  0
 34 60  1  0  0  0  0
 34 72  1  0  0  0  0
 34 78  2  0  0  0  0
 35 68  1  0  0  0  0
 35 73  1  0  0  0  0
 35 79  2  0  0  0  0
 36 39  1  0  0  0  0
 37 46  1  0  0  0  0
 38 67  1  0  0  0  0
 39 41  1  0  0  0  0
 40 42  1  0  0  0  0
 40 43  1  0  0  0  0
 41 45  1  0  0  0  0
 42 47  1  0  0  0  0
 43 68  1  0  0  0  0
 44 47  1  0  0  0  0
 44 68  1  0  0  0  0
 45 71  1  0  0  0  0
 46 67  1  0  0  0  0
 47 66  1  0  0  0  0
 48 60  1  0  0  0  0
 49 61  1  0  0  0  0
 50 62  1  0  0  0  0
 51 62  1  0  0  0  0
 52 62  1  0  0  0  0
 53 74  1  0  0  0  0
 54 73  1  0  0  0  0
 55 57  1  0  0  0  0
 55 61  1  0  0  0  0
 56 58  1  0  0  0  0
 56 61  1  0  0  0  0
 57 65  1  0  0  0  0
 58 81  1  0  0  0  0
 59 62  1  0  0  0  0
 59 72  1  0  0  0  0
 60 74  1  0  0  0  0
 64 66  1  0  0  0  0
M  CHG  1  74   1
M  ISO  4  35 100  58 101  73 100  81 101
M  END
> <Batch ID>
0189

> <Smiles>
CNC(C)C(=O)NC(C(=O)N1Cc2cc([101O:1][101CH2:1]CC(C)CCn3cnc(C[100NH:0][100C:0](=O)N4CCCC(n5nc(-c6ccc(Oc7ccc(F)cc7F)cc6)c(C(N)=O)c5N)C4)c3)ccc2CC1C(=O)NC1CCCc2ccccc21)C(C)(C)C

> <Shape>
0.179

> <Color>
0.065

> <Negative vol penalty>
0.000

$$$$

  -OEChem-04052305183D

 83 91  0     1  0  0  0  0  0999 V2000
  -30.5422  -33.2391   23.9489 C   0  0  0  0  0  0  0  0  0  0  0  0
  -30.2901  -32.0800   23.2221 C   0  0  0  0  0  0  0  0  0  0  0  0
  -23.8161  -11.1676   19.7211 C   0  0  0  0  0  0  0  0  0  0  0  0
  -25.1339  -11.6032   21.6987 C   0  0  0  0  0  0  0  0  0  0  0  0
  -29.7656  -33.5425   25.0664 C   0  0  0  0  0  0  0  0  0  0  0  0
  -29.2619  -31.2230   23.6130 C   0  0  0  0  0  0  0  0  0  0  0  0
  -26.4402  -29.6658   19.7068 C   0  0  0  0  0  0  0  0  0  0  0  0
  -23.8614   -9.8001   19.9921 C   0  0  0  0  0  0  0  0  0  0  0  0
  -25.1792  -10.2356   21.9697 C   0  0  0  0  0  0  0  0  0  0  0  0
  -26.9671  -28.6554   18.9035 C   0  0  0  0  0  0  0  0  0  0  0  0
  -22.3090   -7.6166   22.0548 C   0  0  0  0  0  0  0  0  0  0  0  0
  -21.1219   -6.8933   21.9401 C   0  0  0  0  0  0  0  0  0  0  0  0
  -25.6028  -27.0348   20.0574 C   0  0  0  0  0  0  0  0  0  0  0  0
  -22.1350   -5.4991   20.2469 C   0  0  0  0  0  0  0  0  0  0  0  0
  -30.1866  -19.9788   22.2691 C   0  0  0  0  0  0  0  0  0  0  0  0
  -24.4523  -12.0692   20.5744 C   0  0  0  0  0  0  0  0  0  0  0  0
  -23.4392  -14.4048   20.7362 C   0  0  0  0  0  0  0  0  0  0  0  0
  -28.7211  -32.6938   25.4655 C   0  0  0  0  0  0  0  0  0  0  0  0
  -25.4971  -29.3661   20.7004 C   0  0  0  0  0  0  0  0  0  0  0  0
  -28.4714  -31.5147   24.7376 C   0  0  0  0  0  0  0  0  0  0  0  0
  -25.0636  -28.0435   20.8703 C   0  0  0  0  0  0  0  0  0  0  0  0
  -24.5430   -9.3341   21.1163 C   0  0  0  0  0  0  0  0  0  0  0  0
  -26.5506  -27.3393   19.0806 C   0  0  0  0  0  0  0  0  0  0  0  0
  -23.4091   -7.2812   21.2655 C   0  0  0  0  0  0  0  0  0  0  0  0
  -21.0349   -5.8345   21.0362 C   0  0  0  0  0  0  0  0  0  0  0  0
  -23.3221   -6.2224   20.3616 C   0  0  0  0  0  0  0  0  0  0  0  0
  -24.4063  -13.4819   20.2948 C   0  0  0  0  0  0  0  0  0  0  0  0
  -30.1220  -19.5721   20.9529 C   0  0  0  0  0  0  0  0  0  0  0  0
  -23.8422  -15.6053   20.2042 C   0  0  0  0  0  0  0  0  0  0  0  0
  -29.2819  -21.5843   20.7178 C   0  0  0  0  0  0  0  0  0  0  0  0
  -22.2803  -14.1957   21.5540 C   0  0  0  0  0  0  0  0  0  0  0  0
  -25.4128  -29.6335   23.8667 C   0  0  0  0  0  0  0  0  0  0  0  0
  -22.3367  -28.6810   23.4754 C   0  0  0  0  0  0  0  0  0  0  0  0
  -20.0292  -27.0541   21.5583 C   0  0  0  0  0  0  0  0  0  0  0  0
  -29.1685  -17.7061   18.4526 C   0  0  0  0  0  0  0  0  0  0  0  0
  -27.9393  -33.0396   26.7080 C   0  0  0  0  0  0  0  0  0  0  0  0
  -24.9185  -30.4713   21.5408 C   0  0  0  0  0  0  0  0  0  0  0  0
  -24.0384  -27.6723   21.9093 C   0  0  0  0  0  0  0  0  0  0  0  0
  -26.6270  -32.2701   26.8358 C   0  0  0  0  0  0  0  0  0  0  0  0
  -26.2172  -17.4413   16.4787 C   0  0  0  0  0  0  0  0  0  0  0  0
  -26.8469  -30.7883   26.5484 C   0  0  0  0  0  0  0  0  0  0  0  0
  -25.3312  -16.4798   17.2727 C   0  0  0  0  0  0  0  0  0  0  0  0
  -27.6922  -17.0571   16.5722 C   0  0  0  0  0  0  0  0  0  0  0  0
  -27.3211  -15.9452   18.7401 C   0  0  0  0  0  0  0  0  0  0  0  0
  -27.3490  -30.5727   25.1156 C   0  0  1  0  0  0  0  0  0  0  0  0
  -24.3461  -29.9773   22.8658 C   0  0  1  0  0  0  0  0  0  0  0  0
  -25.8304  -16.3243   18.7218 C   0  0  2  0  0  0  0  0  0  0  0  0
  -17.6046  -26.4081   21.5182 C   0  0  0  0  0  0  0  0  0  0  0  0
  -29.6658  -25.0412   18.5918 C   0  0  0  0  0  0  0  0  0  0  0  0
  -27.1812  -22.0235   18.4020 C   0  0  0  0  0  0  0  0  0  0  0  0
  -22.8946  -26.4707   25.5036 C   0  0  0  0  0  0  0  0  0  0  0  0
  -20.8114  -25.3231   24.7215 C   0  0  0  0  0  0  0  0  0  0  0  0
  -20.6712  -27.5862   25.7614 C   0  0  0  0  0  0  0  0  0  0  0  0
  -19.5367  -28.6065   19.0873 C   0  0  0  0  0  0  0  0  0  0  0  0
  -30.5573  -18.2604   20.4333 C   0  0  0  0  0  0  0  0  0  0  0  0
  -27.1551  -25.0485   18.8739 C   0  0  0  0  0  0  0  0  0  1  0  0
  -21.6271  -27.3492   23.4328 C   0  0  1  0  0  0  0  0  0  0  0  0
  -18.6343  -27.4496   21.1086 C   0  0  2  0  0  0  0  0  0  0  0  0
  -28.3572  -24.2990   18.2785 C   0  0  2  0  0  0  0  0  0  0  0  0
  -28.4468  -22.8181   18.7164 C   0  0  1  0  0  0  0  0  0  0  0  0
  -21.5219  -26.6887   24.8364 C   0  0  0  0  0  0  0  0  0  0  0  0
  -25.3523  -14.0475   19.5404 N   0  0  0  0  0  0  0  0  0  0  0  0
  -29.6031  -20.4912   20.0620 N   0  0  0  0  0  0  0  0  0  0  0  0
  -24.9816  -15.3387   19.5036 N   0  0  0  0  0  0  0  0  0  0  0  0
  -23.5069  -28.7874   22.7104 N   0  0  0  0  0  0  0  0  0  0  0  0
  -28.1026  -16.9274   17.9725 N   0  0  0  0  0  0  0  0  0  0  0  0
  -23.3296  -16.8522   20.2721 N   0  0  0  0  0  0  0  0  0  0  0  0
  -22.0137  -12.8996   22.0161 N   0  0  0  0  0  0  0  0  0  0  0  0
  -28.7328  -22.7105   20.1330 N   0  0  0  0  0  0  0  0  0  0  0  0
  -26.2552  -30.6847   24.1746 N   0  0  0  0  0  0  0  0  0  0  0  0
  -20.3408  -27.5924   22.7889 N   0  0  0  0  0  0  0  0  0  0  0  0
  -29.4889  -17.5264   19.7927 N   0  0  0  0  0  0  0  0  0  0  0  0
  -18.5901  -27.5963   19.6262 N   0  3  0  0  0  0  0  0  0  0  0  0
  -21.4951  -15.1274   21.8521 O   0  0  0  0  0  0  0  0  0  0  0  0
  -25.4666  -28.4990   24.3267 O   0  0  0  0  0  0  0  0  0  0  0  0
  -21.8661  -29.5955   24.1564 O   0  0  0  0  0  0  0  0  0  0  0  0
  -20.7670  -26.3361   20.8870 O   0  0  0  0  0  0  0  0  0  0  0  0
  -29.7853  -18.5063   17.7412 O   0  0  0  0  0  0  0  0  0  0  0  0
  -24.5873   -7.9998   21.3811 O   0  0  0  0  0  0  0  0  0  0  0  0
  -27.0638  -26.3511   18.2984 O   0  0  0  0  0  0  0  0  0  1  0  0
  -19.8953   -5.1390   20.9272 F   0  0  0  0  0  0  0  0  0  0  0  0
  -24.3760   -5.8948   19.6015 F   0  0  0  0  0  0  0  0  0  0  0  0
  -29.5774  -21.5759   22.4083 S   0  0  0  0  0  0  0  0  0  0  0  0
  1  2  1  0  0  0  0
  1  5  2  0  0  0  0
  2  6  2  0  0  0  0
  3  8  2  0  0  0  0
  3 16  1  0  0  0  0
  4  9  1  0  0  0  0
  4 16  2  0  0  0  0
  5 18  1  0  0  0  0
  6 20  1  0  0  0  0
  7 10  2  0  0  0  0
  7 19  1  0  0  0  0
  8 22  1  0  0  0  0
  9 22  2  0  0  0  0
 10 23  1  0  0  0  0
 11 12  2  0  0  0  0
 11 24  1  0  0  0  0
 12 25  1  0  0  0  0
 13 21  1  0  0  0  0
 13 23  2  0  0  0  0
 14 25  2  0  0  0  0
 14 26  1  0  0  0  0
 15 28  2  0  0  0  0
 15 83  1  0  0  0  0
 16 27  1  0  0  0  0
 17 27  1  0  0  0  0
 17 29  2  0  0  0  0
 17 31  1  0  0  0  0
 18 20  2  0  0  0  0
 18 36  1  0  0  0  0
 19 21  2  0  0  0  0
 19 37  1  0  0  0  0
 20 45  1  0  0  0  0
 21 38  1  0  0  0  0
 22 79  1  0  0  0  0
 23 80  1  0  0  0  0
 24 26  2  0  0  0  0
 24 79  1  0  0  0  0
 25 81  1  0  0  0  0
 26 82  1  0  0  0  0
 27 62  2  0  0  0  0
 28 55  1  0  0  0  0
 28 63  1  0  0  0  0
 29 64  1  0  0  0  0
 29 67  1  0  0  0  0
 30 63  2  0  0  0  0
 30 69  1  0  0  0  0
 30 83  1  0  0  0  0
 31 68  1  0  0  0  0
 31 74  2  0  0  0  0
 32 46  1  0  0  0  0
 32 70  1  0  0  0  0
 32 75  2  0  0  0  0
 33 57  1  0  0  0  0
 33 65  1  0  0  0  0
 33 76  2  0  0  0  0
 34 58  1  0  0  0  0
 34 71  1  0  0  0  0
 34 77  2  0  0  0  0
 35 66  1  0  0  0  0
 35 72  1  0  0  0  0
 35 78  2  0  0  0  0
 36 39  1  0  0  0  0
 37 46  1  0  0  0  0
 38 65  1  0  0  0  0
 39 41  1  0  0  0  0
 40 42  1  0  0  0  0
 40 43  1  0  0  0  0
 41 45  1  0  0  0  0
 42 47  1  0  0  0  0
 43 66  1  0  0  0  0
 44 47  1  0  0  0  0
 44 66  1  0  0  0  0
 45 70  1  0  0  0  0
 46 65  1  0  0  0  0
 47 64  1  0  0  0  0
 48 58  1  0  0  0  0
 49 59  1  0  0  0  0
 50 60  1  0  0  0  0
 51 61  1  0  0  0  0
 52 61  1  0  0  0  0
 53 61  1  0  0  0  0
 54 73  1  0  0  0  0
 55 72  1  0  0  0  0
 56 59  1  0  0  0  0
 56 80  1  0  0  0  0
 57 61  1  0  0  0  0
 57 71  1  0  0  0  0
 58 73  1  0  0  0  0
 59 60  1  0  0  0  0
 60 69  1  0  0  0  0
 62 64  1  0  0  0  0
M  CHG  1  73   1
M  ISO  4  35 100  56 101  72 100  80 101
M  END
> <Batch ID>
0189

> <Smiles>
CNC(C)C(=O)NC(C(=O)N1Cc2cc([101O:1][101CH2:1]C(C)C(C)Nc3nc(C[100NH:0][100C:0](=O)N4CCCC(n5nc(-c6ccc(Oc7ccc(F)cc7F)cc6)c(C(N)=O)c5N)C4)cs3)ccc2CC1C(=O)NC1CCCc2ccccc21)C(C)(C)C

> <Shape>
0.297

> <Color>
0.062

> <Negative vol penalty>
0.000

$$$$

  -OEChem-04052305183D

 83 91  0     1  0  0  0  0  0999 V2000
  -30.3368  -23.0892   17.4624 C   0  0  0  0  0  0  0  0  0  0  0  0
  -29.8776  -22.7710   18.7365 C   0  0  0  0  0  0  0  0  0  0  0  0
  -23.1466   -9.8646   21.4822 C   0  0  0  0  0  0  0  0  0  0  0  0
  -23.8281  -10.8183   23.5948 C   0  0  0  0  0  0  0  0  0  0  0  0
  -30.6070  -24.4164   17.1313 C   0  0  0  0  0  0  0  0  0  0  0  0
  -29.6893  -23.7797   19.6806 C   0  0  0  0  0  0  0  0  0  0  0  0
  -25.3158  -23.3015   22.1883 C   0  0  0  0  0  0  0  0  0  0  0  0
  -22.4378   -8.8720   22.1589 C   0  0  0  0  0  0  0  0  0  0  0  0
  -23.1192   -9.8257   24.2715 C   0  0  0  0  0  0  0  0  0  0  0  0
  -25.2660  -22.3498   23.2059 C   0  0  0  0  0  0  0  0  0  0  0  0
  -23.1219   -5.9735   23.7573 C   0  0  0  0  0  0  0  0  0  0  0  0
  -23.2582   -4.6601   23.3080 C   0  0  0  0  0  0  0  0  0  0  0  0
  -25.5876  -24.0920   24.8430 C   0  0  0  0  0  0  0  0  0  0  0  0
  -20.8824   -4.5597   22.8808 C   0  0  0  0  0  0  0  0  0  0  0  0
  -29.8867  -20.1338   23.2927 C   0  0  0  0  0  0  0  0  0  0  0  0
  -23.8418  -10.8377   22.2001 C   0  0  0  0  0  0  0  0  0  0  0  0
  -24.0942  -13.1202   21.0893 C   0  0  0  0  0  0  0  0  0  0  0  0
  -30.4127  -25.4430   18.0689 C   0  0  0  0  0  0  0  0  0  0  0  0
  -25.5131  -24.6567   22.4903 C   0  0  0  0  0  0  0  0  0  0  0  0
  -29.9584  -25.1217   19.3622 C   0  0  0  0  0  0  0  0  0  0  0  0
  -25.6370  -25.0593   23.8277 C   0  0  0  0  0  0  0  0  0  0  0  0
  -22.4240   -8.8526   23.5535 C   0  0  0  0  0  0  0  0  0  0  0  0
  -25.4048  -22.7445   24.5333 C   0  0  0  0  0  0  0  0  0  0  0  0
  -21.8658   -6.5800   23.7685 C   0  0  0  0  0  0  0  0  0  0  0  0
  -22.1385   -3.9532   22.8697 C   0  0  0  0  0  0  0  0  0  0  0  0
  -20.7461   -5.8731   23.3302 C   0  0  0  0  0  0  0  0  0  0  0  0
  -24.5747  -11.8629   21.5016 C   0  0  0  0  0  0  0  0  0  0  0  0
  -28.7435  -19.3928   23.0777 C   0  0  0  0  0  0  0  0  0  0  0  0
  -25.1696  -13.7143   20.4752 C   0  0  0  0  0  0  0  0  0  0  0  0
  -30.0642  -18.3843   21.6463 C   0  0  0  0  0  0  0  0  0  0  0  0
  -22.7922  -13.6994   21.2473 C   0  0  0  0  0  0  0  0  0  0  0  0
  -27.7516  -26.8055   21.8010 C   0  0  0  0  0  0  0  0  0  0  0  0
  -25.6966  -28.8423   23.2675 C   0  0  0  0  0  0  0  0  0  0  0  0
  -23.1405  -29.2802   25.4860 C   0  0  0  0  0  0  0  0  0  0  0  0
  -27.2621  -20.5761   24.7343 C   0  0  0  0  0  0  0  0  0  0  0  0
  -30.6026  -14.9819   20.3306 C   0  0  0  0  0  0  0  0  0  0  0  0
  -30.7634  -26.8573   17.6798 C   0  0  0  0  0  0  0  0  0  0  0  0
  -25.5376  -25.6743   21.3830 C   0  0  0  0  0  0  0  0  0  0  0  0
  -25.8304  -26.5043   24.2061 C   0  0  0  0  0  0  0  0  0  0  0  0
  -30.1806  -27.9098   18.6195 C   0  0  0  0  0  0  0  0  0  0  0  0
  -29.6346  -11.7945   19.0737 C   0  0  0  0  0  0  0  0  0  0  0  0
  -30.4154  -27.5154   20.0742 C   0  0  0  0  0  0  0  0  0  0  0  0
  -28.1952  -11.6295   19.5645 C   0  0  0  0  0  0  0  0  0  0  0  0
  -30.5021  -12.5174   20.1018 C   0  0  0  0  0  0  0  0  0  0  0  0
  -28.5291  -13.6486   21.0512 C   0  0  0  0  0  0  0  0  0  0  0  0
  -29.7180  -26.1907   20.4061 C   0  0  1  0  0  0  0  0  0  0  0  0
  -26.2575  -26.9622   21.7709 C   0  0  1  0  0  0  0  0  0  0  0  0
  -27.6022  -12.9746   20.0251 C   0  0  2  0  0  0  0  0  0  0  0  0
  -30.3583  -17.9769   19.1747 C   0  0  0  0  0  0  0  0  0  0  0  0
  -21.6979  -31.0645   26.5021 C   0  0  0  0  0  0  0  0  0  0  0  0
  -25.6738  -19.6141   26.4406 C   0  0  0  0  0  0  0  0  0  0  0  0
  -28.0152  -29.6932   25.0591 C   0  0  0  0  0  0  0  0  0  0  0  0
  -26.3444  -30.7197   26.6158 C   0  0  0  0  0  0  0  0  0  0  0  0
  -26.5562  -31.5690   24.2799 C   0  0  0  0  0  0  0  0  0  0  0  0
  -20.6717  -28.0715   24.3891 C   0  0  0  0  0  0  0  0  0  0  0  0
  -30.5474  -17.4474   20.6089 C   0  0  2  0  0  0  0  0  0  0  0  0
  -25.4887  -29.3135   24.6866 C   0  0  1  0  0  0  0  0  0  0  0  0
  -21.8349  -30.0474   25.3799 C   0  0  2  0  0  0  0  0  0  0  0  0
  -25.8147  -20.5029   25.2137 C   0  0  1  0  0  0  0  0  0  1  0  0
  -26.5995  -30.2963   25.1534 C   0  0  0  0  0  0  0  0  0  0  0  0
  -25.8556  -11.6686   21.1767 N   0  0  0  0  0  0  0  0  0  0  0  0
  -28.8433  -18.3895   22.1337 N   0  0  0  0  0  0  0  0  0  0  0  0
  -26.1891  -12.8117   20.5536 N   0  0  0  0  0  0  0  0  0  0  0  0
  -25.8539  -27.4608   23.0872 N   0  0  0  0  0  0  0  0  0  0  0  0
  -29.8844  -13.7861   20.4954 N   0  0  0  0  0  0  0  0  0  0  0  0
  -25.3331  -14.9154   19.8810 N   0  0  0  0  0  0  0  0  0  0  0  0
  -21.8037  -12.9525   21.9025 N   0  0  0  0  0  0  0  0  0  0  0  0
  -27.5257  -19.6154   23.7634 N   0  0  0  0  0  0  0  0  0  0  0  0
  -28.2991  -26.4008   20.5986 N   0  0  0  0  0  0  0  0  0  0  0  0
  -24.1401  -29.8673   24.7395 N   0  0  0  0  0  0  0  0  0  0  0  0
  -29.9416  -16.1395   20.7229 N   0  0  0  0  0  0  0  0  0  0  0  0
  -20.6771  -29.1117   25.4498 N   0  3  0  0  0  0  0  0  0  0  0  0
  -22.5089  -14.8388   20.8056 O   0  0  0  0  0  0  0  0  0  0  0  0
  -28.3625  -27.0363   22.8379 O   0  0  0  0  0  0  0  0  0  0  0  0
  -25.7114  -29.6689   22.3520 O   0  0  0  0  0  0  0  0  0  0  0  0
  -23.2625  -28.2639   26.1663 O   0  0  0  0  0  0  0  0  0  0  0  0
  -28.0389  -21.4152   25.1811 O   0  0  0  0  0  0  0  0  0  0  0  0
  -31.7459  -15.0161   19.8631 O   0  0  0  0  0  0  0  0  0  0  0  0
  -21.7322   -7.8843   24.2142 O   0  0  0  0  0  0  0  0  0  0  0  0
  -25.3573  -21.8175   25.5284 O   0  0  0  0  0  0  0  0  0  1  0  0
  -22.2698   -2.6924   22.4367 F   0  0  0  0  0  0  0  0  0  0  0  0
  -19.5370   -6.4509   23.3375 F   0  0  0  0  0  0  0  0  0  0  0  0
  -31.1444  -19.5583   22.2785 S   0  0  0  0  0  0  0  0  0  0  0  0
  1  2  1  0  0  0  0
  1  5  2  0  0  0  0
  2  6  2  0  0  0  0
  3  8  2  0  0  0  0
  3 16  1  0  0  0  0
  4  9  1  0  0  0  0
  4 16  2  0  0  0  0
  5 18  1  0  0  0  0
  6 20  1  0  0  0  0
  7 10  2  0  0  0  0
  7 19  1  0  0  0  0
  8 22  1  0  0  0  0
  9 22  2  0  0  0  0
 10 23  1  0  0  0  0
 11 12  2  0  0  0  0
 11 24  1  0  0  0  0
 12 25  1  0  0  0  0
 13 21  1  0  0  0  0
 13 23  2  0  0  0  0
 14 25  2  0  0  0  0
 14 26  1  0  0  0  0
 15 28  2  0  0  0  0
 15 83  1  0  0  0  0
 16 27  1  0  0  0  0
 17 27  1  0  0  0  0
 17 29  2  0  0  0  0
 17 31  1  0  0  0  0
 18 20  2  0  0  0  0
 18 37  1  0  0  0  0
 19 21  2  0  0  0  0
 19 38  1  0  0  0  0
 20 46  1  0  0  0  0
 21 39  1  0  0  0  0
 22 79  1  0  0  0  0
 23 80  1  0  0  0  0
 24 26  2  0  0  0  0
 24 79  1  0  0  0  0
 25 81  1  0  0  0  0
 26 82  1  0  0  0  0
 27 61  2  0  0  0  0
 28 62  1  0  0  0  0
 28 68  1  0  0  0  0
 29 63  1  0  0  0  0
 29 66  1  0  0  0  0
 30 56  1  0  0  0  0
 30 62  2  0  0  0  0
 30 83  1  0  0  0  0
 31 67  1  0  0  0  0
 31 73  2  0  0  0  0
 32 47  1  0  0  0  0
 32 69  1  0  0  0  0
 32 74  2  0  0  0  0
 33 57  1  0  0  0  0
 33 64  1  0  0  0  0
 33 75  2  0  0  0  0
 34 58  1  0  0  0  0
 34 70  1  0  0  0  0
 34 76  2  0  0  0  0
 35 59  1  0  0  0  0
 35 68  1  0  0  0  0
 35 77  2  0  0  0  0
 36 65  1  0  0  0  0
 36 71  1  0  0  0  0
 36 78  2  0  0  0  0
 37 40  1  0  0  0  0
 38 47  1  0  0  0  0
 39 64  1  0  0  0  0
 40 42  1  0  0  0  0
 41 43  1  0  0  0  0
 41 44  1  0  0  0  0
 42 46  1  0  0  0  0
 43 48  1  0  0  0  0
 44 65  1  0  0  0  0
 45 48  1  0  0  0  0
 45 65  1  0  0  0  0
 46 69  1  0  0  0  0
 47 64  1  0  0  0  0
 48 63  1  0  0  0  0
 49 56  1  0  0  0  0
 50 58  1  0  0  0  0
 51 59  1  0  0  0  0
 52 60  1  0  0  0  0
 53 60  1  0  0  0  0
 54 60  1  0  0  0  0
 55 72  1  0  0  0  0
 56 71  1  0  0  0  0
 57 60  1  0  0  0  0
 57 70  1  0  0  0  0
 58 72  1  0  0  0  0
 59 80  1  0  0  0  0
 61 63  1  0  0  0  0
M  CHG  1  72   1
M  ISO  4  36 100  59 101  71 100  80 101
M  END
> <Batch ID>
0189

> <Smiles>
CNC(C)C(=O)NC(C(=O)N1Cc2cc([101O:1][101CH:1](C)C(=O)Nc3csc(C(C)[100NH:0][100C:0](=O)N4CCCC(n5nc(-c6ccc(Oc7ccc(F)cc7F)cc6)c(C(N)=O)c5N)C4)n3)ccc2CC1C(=O)NC1CCCc2ccccc21)C(C)(C)C

> <Shape>
0.284

> <Color>
0.157

> <Negative vol penalty>
0.000

$$$$

  -OEChem-04052305183D

 92100  0     1  0  0  0  0  0999 V2000
  -26.3096  -35.7258   24.0228 C   0  0  0  0  0  0  0  0  0  0  0  0
  -26.9206  -34.5779   23.5284 C   0  0  0  0  0  0  0  0  0  0  0  0
  -24.2972  -10.5795   23.0831 C   0  0  0  0  0  0  0  0  0  0  0  0
  -24.0460   -9.2649   21.0717 C   0  0  0  0  0  0  0  0  0  0  0  0
  -25.0416  -35.6470   24.5972 C   0  0  0  0  0  0  0  0  0  0  0  0
  -26.2643  -33.3502   23.6091 C   0  0  0  0  0  0  0  0  0  0  0  0
  -26.5157  -28.7678   19.5540 C   0  0  0  0  0  0  0  0  0  0  0  0
  -23.3142   -9.8118   23.7076 C   0  0  0  0  0  0  0  0  0  0  0  0
  -23.0630   -8.4972   21.6962 C   0  0  0  0  0  0  0  0  0  0  0  0
  -27.2580  -27.5883   19.5163 C   0  0  0  0  0  0  0  0  0  0  0  0
  -22.9285   -5.9500   23.9130 C   0  0  0  0  0  0  0  0  0  0  0  0
  -22.9958   -4.5652   23.7608 C   0  0  0  0  0  0  0  0  0  0  0  0
  -25.3963  -26.3931   20.4780 C   0  0  0  0  0  0  0  0  0  0  0  0
  -20.8124   -4.5727   22.7266 C   0  0  0  0  0  0  0  0  0  0  0  0
  -30.2421  -19.6541   18.5907 C   0  0  0  0  0  0  0  0  0  0  0  0
  -24.6631  -10.3060   21.7651 C   0  0  0  0  0  0  0  0  0  0  0  0
  -27.0647  -10.8566   21.1044 C   0  0  0  0  0  0  0  0  0  0  0  0
  -24.3654  -34.4193   24.6762 C   0  0  0  0  0  0  0  0  0  0  0  0
  -25.2098  -28.7710   20.0648 C   0  0  0  0  0  0  0  0  0  0  0  0
  -24.9867  -33.2547   24.1863 C   0  0  0  0  0  0  0  0  0  0  0  0
  -24.6386  -27.5735   20.5186 C   0  0  0  0  0  0  0  0  0  0  0  0
  -22.6971   -8.7707   23.0141 C   0  0  0  0  0  0  0  0  0  0  0  0
  -26.6994  -26.4012   19.9810 C   0  0  0  0  0  0  0  0  0  0  0  0
  -21.8030   -6.6463   23.4721 C   0  0  0  0  0  0  0  0  0  0  0  0
  -21.9378   -3.8765   23.1676 C   0  0  0  0  0  0  0  0  0  0  0  0
  -20.7450   -5.9576   22.8789 C   0  0  0  0  0  0  0  0  0  0  0  0
  -25.6781  -11.0990   21.1193 C   0  0  0  0  0  0  0  0  0  0  0  0
  -29.6526  -19.4255   19.8164 C   0  0  0  0  0  0  0  0  0  0  0  0
  -27.5858  -11.8891   20.3635 C   0  0  0  0  0  0  0  0  0  0  0  0
  -29.0555  -21.5187   19.5487 C   0  0  0  0  0  0  0  0  0  0  0  0
  -27.8147   -9.7932   21.7063 C   0  0  0  0  0  0  0  0  0  0  0  0
  -29.7343  -18.1282   20.5100 C   0  0  0  0  0  0  0  0  0  0  0  0
  -23.7586  -30.2029   22.5035 C   0  0  0  0  0  0  0  0  0  0  0  0
  -21.1046  -28.8659   21.2032 C   0  0  0  0  0  0  0  0  0  0  0  0
  -19.7552  -26.4106   19.2544 C   0  0  0  0  0  0  0  0  0  0  0  0
  -27.6467  -17.4731   19.3250 C   0  0  0  0  0  0  0  0  0  0  0  0
  -23.0160  -34.3757   25.3485 C   0  0  0  0  0  0  0  0  0  0  0  0
  -24.4127  -30.0465   20.0738 C   0  0  0  0  0  0  0  0  0  0  0  0
  -23.2333  -27.5196   21.0578 C   0  0  0  0  0  0  0  0  0  0  0  0
  -22.2312  -33.0993   25.0569 C   0  0  0  0  0  0  0  0  0  0  0  0
  -25.3470  -15.3536   17.4778 C   0  0  0  0  0  0  0  0  0  0  0  0
  -23.1245  -31.8739   25.2216 C   0  0  0  0  0  0  0  0  0  0  0  0
  -25.2865  -14.0705   18.2994 C   0  0  0  0  0  0  0  0  0  0  0  0
  -25.5695  -16.5676   18.3704 C   0  0  0  0  0  0  0  0  0  0  0  0
  -26.7842  -15.1750   20.0319 C   0  0  0  0  0  0  0  0  0  0  0  0
  -24.2965  -31.9087   24.2332 C   0  0  1  0  0  0  0  0  0  0  0  0
  -23.2757  -30.0334   21.0908 C   0  0  1  0  0  0  0  0  0  0  0  0
  -26.5490  -13.9261   19.1609 C   0  0  1  0  0  0  0  0  0  0  0  0
  -31.4713  -25.6919   21.5406 C   0  0  0  0  0  0  0  0  0  0  0  0
  -17.5535  -25.5545   18.4079 C   0  0  0  0  0  0  0  0  0  0  0  0
  -29.1913  -24.6408   23.2196 C   0  0  0  0  0  0  0  0  0  0  0  0
  -31.6303  -17.0016   23.4299 C   0  0  0  0  0  0  0  0  0  0  0  0
  -31.7879  -15.7067   21.2728 C   0  0  0  0  0  0  0  0  0  0  0  0
  -20.5258  -27.6531   23.9425 C   0  0  0  0  0  0  0  0  0  0  0  0
  -18.9153  -26.0900   22.8329 C   0  0  0  0  0  0  0  0  0  0  0  0
  -18.5171  -28.5513   22.7538 C   0  0  0  0  0  0  0  0  0  0  0  0
  -20.5339  -26.8575   16.4344 C   0  0  0  0  0  0  0  0  0  0  0  0
  -30.2093  -25.0839   20.9439 C   0  0  0  0  0  0  0  0  0  0  0  0
  -20.3797  -27.5518   21.3668 C   0  0  1  0  0  0  0  0  0  0  0  0
  -18.7400  -26.4633   18.1271 C   0  0  2  0  0  0  0  0  0  0  0  0
  -28.9433  -25.2152   21.8150 C   0  0  1  0  0  0  0  0  0  0  0  0
  -27.7215  -23.0672   20.9798 C   0  0  1  0  0  0  0  0  0  0  0  0
  -30.9487  -16.6488   22.1190 C   0  0  0  0  0  0  0  0  0  0  0  0
  -27.6645  -24.5960   21.1917 C   0  0  2  0  0  0  0  0  0  1  0  0
  -19.6117  -27.4626   22.7157 C   0  0  0  0  0  0  0  0  0  0  0  0
  -26.3432  -22.4325   20.8558 C   0  0  0  0  0  0  0  0  0  0  0  0
  -25.3396  -12.1993   20.4419 N   0  0  0  0  0  0  0  0  0  0  0  0
  -28.9721  -20.4936   20.3675 N   0  0  0  0  0  0  0  0  0  0  0  0
  -26.5211  -12.6575   19.9944 N   0  0  0  0  0  0  0  0  0  0  0  0
  -22.4966  -28.7942   21.0517 N   0  0  0  0  0  0  0  0  0  0  0  0
  -26.7405  -16.4122   19.2371 N   0  0  0  0  0  0  0  0  0  0  0  0
  -28.8463  -12.2057   19.9983 N   0  0  0  0  0  0  0  0  0  0  0  0
  -27.1220   -8.8151   22.4329 N   0  0  0  0  0  0  0  0  0  0  0  0
  -28.4855  -22.7553   19.7882 N   0  0  0  0  0  0  0  0  0  0  0  0
  -28.7536  -17.2543   20.2304 N   0  0  0  0  0  0  0  0  0  0  0  0
  -23.8544  -31.5198   22.9112 N   0  0  0  0  0  0  0  0  0  0  0  0
  -19.5347  -27.4021   20.1870 N   0  0  0  0  0  0  0  0  0  0  0  0
  -30.7401  -17.8882   21.3611 N   0  3  0  0  0  0  0  0  0  0  0  0
  -19.3671  -26.0347   16.8449 N   0  3  0  0  0  0  0  0  0  0  0  0
  -29.0639   -9.7217   21.6167 O   0  0  0  0  0  0  0  0  0  0  0  0
  -24.0232  -29.2123   23.1745 O   0  0  0  0  0  0  0  0  0  0  0  0
  -20.4586  -29.9168   21.2025 O   0  0  0  0  0  0  0  0  0  0  0  0
  -20.6517  -25.5714   19.3049 O   0  0  0  0  0  0  0  0  0  0  0  0
  -27.5520  -18.5430   18.7332 O   0  0  0  0  0  0  0  0  0  0  0  0
  -21.7380   -8.0212   23.6233 O   0  0  0  0  0  0  0  0  0  0  0  0
  -27.4220  -25.2486   19.9461 O   0  0  0  0  0  0  0  0  0  1  0  0
  -22.0033   -2.5468   23.0200 F   0  0  0  0  0  0  0  0  0  0  0  0
  -19.6617   -6.6211   22.4522 F   0  0  0  0  0  0  0  0  0  0  0  0
  -25.6174  -22.6378   21.9778 F   0  0  0  0  0  0  0  0  0  0  0  0
  -26.4426  -21.0949   20.6817 F   0  0  0  0  0  0  0  0  0  0  0  0
  -25.6415  -22.9295   19.8157 F   0  0  0  0  0  0  0  0  0  0  0  0
  -29.9368  -21.2681   18.0977 S   0  0  0  0  0  0  0  0  0  0  0  0
  1  2  1  0  0  0  0
  1  5  2  0  0  0  0
  2  6  2  0  0  0  0
  3  8  2  0  0  0  0
  3 16  1  0  0  0  0
  4  9  1  0  0  0  0
  4 16  2  0  0  0  0
  5 18  1  0  0  0  0
  6 20  1  0  0  0  0
  7 10  2  0  0  0  0
  7 19  1  0  0  0  0
  8 22  1  0  0  0  0
  9 22  2  0  0  0  0
 10 23  1  0  0  0  0
 11 12  2  0  0  0  0
 11 24  1  0  0  0  0
 12 25  1  0  0  0  0
 13 21  1  0  0  0  0
 13 23  2  0  0  0  0
 14 25  2  0  0  0  0
 14 26  1  0  0  0  0
 15 28  2  0  0  0  0
 15 92  1  0  0  0  0
 16 27  1  0  0  0  0
 17 27  1  0  0  0  0
 17 29  2  0  0  0  0
 17 31  1  0  0  0  0
 18 20  2  0  0  0  0
 18 37  1  0  0  0  0
 19 21  2  0  0  0  0
 19 38  1  0  0  0  0
 20 46  1  0  0  0  0
 21 39  1  0  0  0  0
 22 85  1  0  0  0  0
 23 86  1  0  0  0  0
 24 26  2  0  0  0  0
 24 85  1  0  0  0  0
 25 87  1  0  0  0  0
 26 88  1  0  0  0  0
 27 67  2  0  0  0  0
 28 32  1  0  0  0  0
 28 68  1  0  0  0  0
 29 69  1  0  0  0  0
 29 72  1  0  0  0  0
 30 68  2  0  0  0  0
 30 74  1  0  0  0  0
 30 92  1  0  0  0  0
 31 73  1  0  0  0  0
 31 80  2  0  0  0  0
 32 75  1  0  0  0  0
 32 78  2  0  0  0  0
 33 47  1  0  0  0  0
 33 76  1  0  0  0  0
 33 81  2  0  0  0  0
 34 59  1  0  0  0  0
 34 70  1  0  0  0  0
 34 82  2  0  0  0  0
 35 60  1  0  0  0  0
 35 77  1  0  0  0  0
 35 83  2  0  0  0  0
 36 71  1  0  0  0  0
 36 75  1  0  0  0  0
 36 84  2  0  0  0  0
 37 40  1  0  0  0  0
 38 47  1  0  0  0  0
 39 70  1  0  0  0  0
 40 42  1  0  0  0  0
 41 43  1  0  0  0  0
 41 44  1  0  0  0  0
 42 46  1  0  0  0  0
 43 48  1  0  0  0  0
 44 71  1  0  0  0  0
 45 48  1  0  0  0  0
 45 71  1  0  0  0  0
 46 76  1  0  0  0  0
 47 70  1  0  0  0  0
 48 69  1  0  0  0  0
 49 58  1  0  0  0  0
 50 60  1  0  0  0  0
 51 61  1  0  0  0  0
 52 63  1  0  0  0  0
 53 63  1  0  0  0  0
 54 65  1  0  0  0  0
 55 65  1  0  0  0  0
 56 65  1  0  0  0  0
 57 79  1  0  0  0  0
 58 61  1  0  0  0  0
 59 65  1  0  0  0  0
 59 77  1  0  0  0  0
 60 79  1  0  0  0  0
 61 64  1  0  0  0  0
 62 64  1  0  0  0  0
 62 66  1  0  0  0  0
 62 74  1  0  0  0  0
 63 78  1  0  0  0  0
 64 86  1  0  0  0  0
 66 89  1  0  0  0  0
 66 90  1  0  0  0  0
 66 91  1  0  0  0  0
 67 69  1  0  0  0  0
M  CHG  2  78   1  79   1
M  ISO  4  36 100  64 101  75 100  86 101
M  END
> <Batch ID>
0189

> <Smiles>
CCC(C)[101CH:1](C(Nc1nc(C(=NC(C)C)[100NH:0][100C:0](=O)N2CCCC(n3nc(-c4ccc(Oc5ccc(F)cc5F)cc4)c(C(N)=O)c3N)C2)cs1)C(F)(F)F)[101O:1]c1ccc2c(c1)CN(C(=O)C(NC(=O)C(C)NC)C(C)(C)C)C(C(=O)NC1CCCc3ccccc31)C2

> <Shape>
0.337

> <Color>
0.066

> <Negative vol penalty>
0.000

$$$$

  -OEChem-04052305183D

 85 93  0     1  0  0  0  0  0999 V2000
  -28.8862  -20.9813   27.3987 C   0  0  0  0  0  0  0  0  0  0  0  0
  -29.2821  -21.3123   26.1067 C   0  0  0  0  0  0  0  0  0  0  0  0
  -23.7455   -9.6355   19.7685 C   0  0  0  0  0  0  0  0  0  0  0  0
  -24.4207   -9.6694   22.0880 C   0  0  0  0  0  0  0  0  0  0  0  0
  -27.5328  -20.9823   27.7336 C   0  0  0  0  0  0  0  0  0  0  0  0
  -28.3246  -21.6433   25.1486 C   0  0  0  0  0  0  0  0  0  0  0  0
  -29.6133  -25.7261   22.4440 C   0  0  0  0  0  0  0  0  0  0  0  0
  -23.2834   -8.3284   19.9221 C   0  0  0  0  0  0  0  0  0  0  0  0
  -23.9585   -8.3623   22.2416 C   0  0  0  0  0  0  0  0  0  0  0  0
  -30.5547  -25.5478   21.4311 C   0  0  0  0  0  0  0  0  0  0  0  0
  -22.6283   -5.1615   23.3387 C   0  0  0  0  0  0  0  0  0  0  0  0
  -21.8715   -4.8696   24.4734 C   0  0  0  0  0  0  0  0  0  0  0  0
  -28.7787  -25.4847   19.7998 C   0  0  0  0  0  0  0  0  0  0  0  0
  -20.2312   -6.5114   23.8017 C   0  0  0  0  0  0  0  0  0  0  0  0
  -27.8765  -19.6606   21.3709 C   0  0  0  0  0  0  0  0  0  0  0  0
  -24.3142  -10.3060   20.8514 C   0  0  0  0  0  0  0  0  0  0  0  0
  -24.0633  -12.8443   20.8883 C   0  0  0  0  0  0  0  0  0  0  0  0
  -26.5589  -21.3228   26.7817 C   0  0  0  0  0  0  0  0  0  0  0  0
  -28.2445  -25.7742   22.1430 C   0  0  0  0  0  0  0  0  0  0  0  0
  -26.9568  -21.6475   25.4707 C   0  0  0  0  0  0  0  0  0  0  0  0
  -27.8221  -25.6663   20.8103 C   0  0  0  0  0  0  0  0  0  0  0  0
  -23.3899   -7.6918   21.1587 C   0  0  0  0  0  0  0  0  0  0  0  0
  -30.1373  -25.4242   20.1092 C   0  0  0  0  0  0  0  0  0  0  0  0
  -22.1867   -6.1284   22.4355 C   0  0  0  0  0  0  0  0  0  0  0  0
  -20.6729   -5.5445   24.7049 C   0  0  0  0  0  0  0  0  0  0  0  0
  -20.9881   -6.8033   22.6669 C   0  0  0  0  0  0  0  0  0  0  0  0
  -24.7923  -11.6560   20.6932 C   0  0  0  0  0  0  0  0  0  0  0  0
  -29.1645  -19.1942   21.5313 C   0  0  0  0  0  0  0  0  0  0  0  0
  -24.9609  -13.8469   20.6132 C   0  0  0  0  0  0  0  0  0  0  0  0
  -29.5583  -20.7392   20.0253 C   0  0  0  0  0  0  0  0  0  0  0  0
  -22.6969  -13.0257   21.2829 C   0  0  0  0  0  0  0  0  0  0  0  0
  -25.7134  -24.0162   22.9219 C   0  0  0  0  0  0  0  0  0  0  0  0
  -24.0974  -26.3479   21.3491 C   0  0  0  0  0  0  0  0  0  0  0  0
  -31.5200  -21.6708   18.7554 C   0  0  0  0  0  0  0  0  0  0  0  0
  -24.1442  -28.8343   19.0119 C   0  0  0  0  0  0  0  0  0  0  0  0
  -30.0507  -16.0866   21.0847 C   0  0  0  0  0  0  0  0  0  0  0  0
  -25.1048  -21.2639   27.1778 C   0  0  0  0  0  0  0  0  0  0  0  0
  -27.2434  -25.9939   23.2440 C   0  0  0  0  0  0  0  0  0  0  0  0
  -26.3657  -25.7316   20.4323 C   0  0  0  0  0  0  0  0  0  0  0  0
  -24.1788  -21.9903   26.2056 C   0  0  0  0  0  0  0  0  0  0  0  0
  -29.5631  -13.6632   18.5223 C   0  0  0  0  0  0  0  0  0  0  0  0
  -24.5179  -21.6177   24.7659 C   0  0  0  0  0  0  0  0  0  0  0  0
  -28.2221  -13.0192   18.8783 C   0  0  0  0  0  0  0  0  0  0  0  0
  -30.3711  -14.0113   19.7705 C   0  0  0  0  0  0  0  0  0  0  0  0
  -28.3147  -14.1941   21.1166 C   0  0  0  0  0  0  0  0  0  0  0  0
  -25.9496  -22.0363   24.4102 C   0  0  1  0  0  0  0  0  0  0  0  0
  -25.8418  -25.5127   22.8818 C   0  0  1  0  0  0  0  0  0  0  0  0
  -27.4400  -13.8762   19.8918 C   0  0  2  0  0  0  0  0  0  0  0  0
  -31.4599  -21.0905   15.7937 C   0  0  0  0  0  0  0  0  0  0  0  0
  -22.6616  -30.5387   17.9190 C   0  0  0  0  0  0  0  0  0  0  0  0
  -22.8193  -24.1505   19.6616 C   0  0  0  0  0  0  0  0  0  0  0  0
  -22.1227  -25.9104   18.0229 C   0  0  0  0  0  0  0  0  0  0  0  0
  -21.2549  -25.9720   20.3608 C   0  0  0  0  0  0  0  0  0  0  0  0
  -25.8001  -31.0791   20.0008 C   0  0  0  0  0  0  0  0  0  0  0  0
  -29.5818  -18.1103   22.4426 C   0  0  0  0  0  0  0  0  0  0  0  0
  -32.3970  -22.1232   16.4071 C   0  0  0  0  0  0  0  0  0  0  0  0
  -32.8001  -23.8161   18.2480 C   0  0  0  0  0  0  0  0  0  0  0  0
  -32.2594  -24.5673   19.4624 C   0  0  0  0  0  0  0  0  0  1  0  0
  -23.6702  -26.5745   19.9190 C   0  0  1  0  0  0  0  0  0  0  0  0
  -31.8371  -22.7409   17.7024 C   0  0  2  0  0  0  0  0  0  0  0  0
  -23.6376  -30.2647   19.0527 C   0  0  2  0  0  0  0  0  0  0  0  0
  -22.4942  -25.6486   19.4981 C   0  0  0  0  0  0  0  0  0  0  0  0
  -26.0557  -11.8810   20.3227 N   0  0  0  0  0  0  0  0  0  0  0  0
  -30.1301  -19.8112   20.7602 N   0  0  0  0  0  0  0  0  0  0  0  0
  -26.1275  -13.2224   20.2826 N   0  0  0  0  0  0  0  0  0  0  0  0
  -25.4249  -25.9413   21.5451 N   0  0  0  0  0  0  0  0  0  0  0  0
  -29.5729  -14.8262   20.6896 N   0  0  0  0  0  0  0  0  0  0  0  0
  -24.8581  -15.1929   20.6242 N   0  0  0  0  0  0  0  0  0  0  0  0
  -21.9151  -11.8882   21.5263 N   0  0  0  0  0  0  0  0  0  0  0  0
  -30.1753  -21.6090   19.0945 N   0  0  0  0  0  0  0  0  0  0  0  0
  -26.0107  -23.4588   24.1509 N   0  0  0  0  0  0  0  0  0  0  0  0
  -23.3809  -27.9994   19.8003 N   0  0  0  0  0  0  0  0  0  0  0  0
  -29.2297  -16.7963   21.9524 N   0  0  0  0  0  0  0  0  0  0  0  0
  -24.7749  -31.2206   18.9351 N   0  3  0  0  0  0  0  0  0  0  0  0
  -22.1798  -14.1626   21.3998 O   0  0  0  0  0  0  0  0  0  0  0  0
  -25.3688  -23.4120   21.9130 O   0  0  0  0  0  0  0  0  0  0  0  0
  -23.2854  -26.5321   22.2592 O   0  0  0  0  0  0  0  0  0  0  0  0
  -32.4288  -20.9754   19.2053 O   0  0  0  0  0  0  0  0  0  0  0  0
  -25.1174  -28.4911   18.3443 O   0  0  0  0  0  0  0  0  0  0  0  0
  -31.1267  -16.5477   20.6889 O   0  0  0  0  0  0  0  0  0  0  0  0
  -22.9388   -6.4165   21.3090 O   0  0  0  0  0  0  0  0  0  0  0  0
  -31.0540  -25.2494   19.1187 O   0  0  0  0  0  0  0  0  0  1  0  0
  -19.9455   -5.2630   25.7938 F   0  0  0  0  0  0  0  0  0  0  0  0
  -20.5580   -7.7323   21.8022 F   0  0  0  0  0  0  0  0  0  0  0  0
  -27.8624  -20.9242   20.2115 S   0  0  0  0  0  0  0  0  0  0  0  0
  1  2  1  0  0  0  0
  1  5  2  0  0  0  0
  2  6  2  0  0  0  0
  3  8  2  0  0  0  0
  3 16  1  0  0  0  0
  4  9  1  0  0  0  0
  4 16  2  0  0  0  0
  5 18  1  0  0  0  0
  6 20  1  0  0  0  0
  7 10  2  0  0  0  0
  7 19  1  0  0  0  0
  8 22  1  0  0  0  0
  9 22  2  0  0  0  0
 10 23  1  0  0  0  0
 11 12  2  0  0  0  0
 11 24  1  0  0  0  0
 12 25  1  0  0  0  0
 13 21  1  0  0  0  0
 13 23  2  0  0  0  0
 14 25  2  0  0  0  0
 14 26  1  0  0  0  0
 15 28  2  0  0  0  0
 15 85  1  0  0  0  0
 16 27  1  0  0  0  0
 17 27  1  0  0  0  0
 17 29  2  0  0  0  0
 17 31  1  0  0  0  0
 18 20  2  0  0  0  0
 18 37  1  0  0  0  0
 19 21  2  0  0  0  0
 19 38  1  0  0  0  0
 20 46  1  0  0  0  0
 21 39  1  0  0  0  0
 22 81  1  0  0  0  0
 23 82  1  0  0  0  0
 24 26  2  0  0  0  0
 24 81  1  0  0  0  0
 25 83  1  0  0  0  0
 26 84  1  0  0  0  0
 27 63  2  0  0  0  0
 28 55  1  0  0  0  0
 28 64  1  0  0  0  0
 29 65  1  0  0  0  0
 29 68  1  0  0  0  0
 30 64  2  0  0  0  0
 30 70  1  0  0  0  0
 30 85  1  0  0  0  0
 31 69  1  0  0  0  0
 31 75  2  0  0  0  0
 32 47  1  0  0  0  0
 32 71  1  0  0  0  0
 32 76  2  0  0  0  0
 33 59  1  0  0  0  0
 33 66  1  0  0  0  0
 33 77  2  0  0  0  0
 34 60  1  0  0  0  0
 34 70  1  0  0  0  0
 34 78  2  0  0  0  0
 35 61  1  0  0  0  0
 35 72  1  0  0  0  0
 35 79  2  0  0  0  0
 36 67  1  0  0  0  0
 36 73  1  0  0  0  0
 36 80  2  0  0  0  0
 37 40  1  0  0  0  0
 38 47  1  0  0  0  0
 39 66  1  0  0  0  0
 40 42  1  0  0  0  0
 41 43  1  0  0  0  0
 41 44  1  0  0  0  0
 42 46  1  0  0  0  0
 43 48  1  0  0  0  0
 44 67  1  0  0  0  0
 45 48  1  0  0  0  0
 45 67  1  0  0  0  0
 46 71  1  0  0  0  0
 47 66  1  0  0  0  0
 48 65  1  0  0  0  0
 49 56  1  0  0  0  0
 50 61  1  0  0  0  0
 51 62  1  0  0  0  0
 52 62  1  0  0  0  0
 53 62  1  0  0  0  0
 54 74  1  0  0  0  0
 55 73  1  0  0  0  0
 56 60  1  0  0  0  0
 57 58  1  0  0  0  0
 57 60  1  0  0  0  0
 58 82  1  0  0  0  0
 59 62  1  0  0  0  0
 59 72  1  0  0  0  0
 61 74  1  0  0  0  0
 63 65  1  0  0  0  0
M  CHG  1  74   1
M  ISO  4  36 100  58 101  73 100  82 101
M  END
> <Batch ID>
0189

> <Smiles>
CCC(C[101CH2:1][101O:1]c1ccc2c(c1)CN(C(=O)C(NC(=O)C(C)NC)C(C)(C)C)C(C(=O)NC1CCCc3ccccc31)C2)C(=O)Nc1nc(C[100NH:0][100C:0](=O)N2CCCC(n3nc(-c4ccc(Oc5ccc(F)cc5F)cc4)c(C(N)=O)c3N)C2)cs1

> <Shape>
0.248

> <Color>
0.133

> <Negative vol penalty>
0.000

$$$$

  -OEChem-04052305183D

 90 98  0     1  0  0  0  0  0999 V2000
  -27.9272  -12.1645   13.1856 C   0  0  0  0  0  0  0  0  0  0  0  0
  -29.0583  -12.1578   13.9940 C   0  0  0  0  0  0  0  0  0  0  0  0
  -23.2881   -9.8005   19.9134 C   0  0  0  0  0  0  0  0  0  0  0  0
  -23.7424   -9.9398   22.2822 C   0  0  0  0  0  0  0  0  0  0  0  0
  -26.9564  -11.1777   13.3437 C   0  0  0  0  0  0  0  0  0  0  0  0
  -29.2247  -11.1577   14.9526 C   0  0  0  0  0  0  0  0  0  0  0  0
  -33.5587  -10.3912   19.1665 C   0  0  0  0  0  0  0  0  0  0  0  0
  -22.5625   -8.6276   20.1215 C   0  0  0  0  0  0  0  0  0  0  0  0
  -23.0168   -8.7668   22.4903 C   0  0  0  0  0  0  0  0  0  0  0  0
  -33.7723  -10.7425   20.4987 C   0  0  0  0  0  0  0  0  0  0  0  0
  -20.9807   -6.0050   23.6924 C   0  0  0  0  0  0  0  0  0  0  0  0
  -20.0808   -5.9786   24.7577 C   0  0  0  0  0  0  0  0  0  0  0  0
  -32.9676   -8.5768   21.1925 C   0  0  0  0  0  0  0  0  0  0  0  0
  -18.8689   -7.8258   23.7797 C   0  0  0  0  0  0  0  0  0  0  0  0
  -23.8780  -10.4566   20.9938 C   0  0  0  0  0  0  0  0  0  0  0  0
  -24.1360  -12.9869   20.7964 C   0  0  0  0  0  0  0  0  0  0  0  0
  -27.1058  -10.1725   14.3134 C   0  0  0  0  0  0  0  0  0  0  0  0
  -33.0368   -9.1320   18.8374 C   0  0  0  0  0  0  0  0  0  0  0  0
  -28.2675  -10.1392   15.1113 C   0  0  0  0  0  0  0  0  0  0  0  0
  -32.7507   -8.2110   19.8553 C   0  0  0  0  0  0  0  0  0  0  0  0
  -22.4269   -8.1107   21.4099 C   0  0  0  0  0  0  0  0  0  0  0  0
  -33.4741   -9.8364   21.5121 C   0  0  0  0  0  0  0  0  0  0  0  0
  -20.8249   -6.9418   22.6707 C   0  0  0  0  0  0  0  0  0  0  0  0
  -19.0248   -6.8890   24.8014 C   0  0  0  0  0  0  0  0  0  0  0  0
  -19.7690   -7.8522   22.7144 C   0  0  0  0  0  0  0  0  0  0  0  0
  -24.6281  -11.6681   20.7794 C   0  0  0  0  0  0  0  0  0  0  0  0
  -33.0790  -13.7577   25.2167 C   0  0  0  0  0  0  0  0  0  0  0  0
  -25.2367  -13.7675   20.5403 C   0  0  0  0  0  0  0  0  0  0  0  0
  -32.0905  -13.5243   26.1497 C   0  0  0  0  0  0  0  0  0  0  0  0
  -31.4572  -13.2052   23.8476 C   0  0  0  0  0  0  0  0  0  0  0  0
  -22.8030  -13.4638   21.0236 C   0  0  0  0  0  0  0  0  0  0  0  0
  -30.4021   -8.1056   17.3852 C   0  0  0  0  0  0  0  0  0  0  0  0
  -31.8468   -5.2140   17.6577 C   0  0  0  0  0  0  0  0  0  0  0  0
  -34.1078   -3.2474   19.2909 C   0  0  0  0  0  0  0  0  0  0  0  0
  -31.0987  -12.9551   21.3666 C   0  0  0  0  0  0  0  0  0  0  0  0
  -26.0279   -9.1245   14.4365 C   0  0  0  0  0  0  0  0  0  0  0  0
  -32.8372   -8.7584   17.3941 C   0  0  0  0  0  0  0  0  0  0  0  0
  -32.2076   -6.8390   19.5537 C   0  0  0  0  0  0  0  0  0  0  0  0
  -26.0764   -8.3749   15.7639 C   0  0  0  0  0  0  0  0  0  0  0  0
  -29.4602  -13.6610   18.2853 C   0  0  0  0  0  0  0  0  0  0  0  0
  -27.4932   -7.8929   16.0373 C   0  0  0  0  0  0  0  0  0  0  0  0
  -27.9895  -13.3559   18.5786 C   0  0  0  0  0  0  0  0  0  0  0  0
  -30.3949  -12.6857   18.9987 C   0  0  0  0  0  0  0  0  0  0  0  0
  -28.7046  -12.2557   20.7385 C   0  0  0  0  0  0  0  0  0  0  0  0
  -28.4553   -9.0789   16.1813 C   0  0  1  0  0  0  0  0  0  0  0  0
  -31.8186   -7.6391   17.2019 C   0  0  1  0  0  0  0  0  0  0  0  0
  -27.7268  -13.2516   20.0937 C   0  0  2  0  0  0  0  0  0  0  0  0
  -35.0405   -0.9178   19.3107 C   0  0  0  0  0  0  0  0  0  0  0  0
  -36.3122  -12.0382   26.4731 C   0  0  0  0  0  0  0  0  0  0  0  0
  -29.3005   -4.2087   19.0052 C   0  0  0  0  0  0  0  0  0  0  0  0
  -30.6012   -2.2367   19.8346 C   0  0  0  0  0  0  0  0  0  0  0  0
  -30.3253   -2.6049   17.3829 C   0  0  0  0  0  0  0  0  0  0  0  0
  -35.4861  -16.9804   24.3498 C   0  0  0  0  0  0  0  0  0  0  0  0
  -36.9723  -15.7998   22.7163 C   0  0  0  0  0  0  0  0  0  0  0  0
  -37.9506  -16.9466   24.7038 C   0  0  0  0  0  0  0  0  0  0  0  0
  -36.8451   -4.2139   18.7148 C   0  0  0  0  0  0  0  0  0  0  0  0
  -34.8242  -11.3238   24.5887 C   0  0  0  0  0  0  0  0  0  0  0  0
  -34.7394  -11.0946   23.0843 C   0  0  0  0  0  0  0  0  0  1  0  0
  -31.8626   -4.1207   18.6986 C   0  0  1  0  0  0  0  0  0  0  0  0
  -35.2039   -2.3321   18.7760 C   0  0  2  0  0  0  0  0  0  0  0  0
  -35.9193  -12.3279   25.0174 C   0  0  1  0  0  0  0  0  0  0  0  0
  -35.5311  -13.8153   24.7589 C   0  0  2  0  0  0  0  0  0  0  0  0
  -30.5308   -3.3192   18.7364 C   0  0  0  0  0  0  0  0  0  0  0  0
  -36.7480  -16.1142   24.2062 C   0  0  0  0  0  0  0  0  0  0  0  0
  -36.6736  -14.8105   25.0519 C   0  0  0  0  0  0  0  0  0  0  0  0
  -25.9394  -11.6102   20.5318 N   0  0  0  0  0  0  0  0  0  0  0  0
  -32.7178  -13.5749   23.8961 N   0  0  0  0  0  0  0  0  0  0  0  0
  -26.2805  -12.9024   20.3909 N   0  0  0  0  0  0  0  0  0  0  0  0
  -32.0238   -6.5231   18.1275 N   0  0  0  0  0  0  0  0  0  0  0  0
  -30.0903  -12.6427   20.4305 N   0  0  0  0  0  0  0  0  0  0  0  0
  -25.4039  -15.1025   20.4305 N   0  0  0  0  0  0  0  0  0  0  0  0
  -21.7913  -12.5262   21.2720 N   0  0  0  0  0  0  0  0  0  0  0  0
  -34.3630  -14.1509   25.5474 N   0  0  0  0  0  0  0  0  0  0  0  0
  -30.6835  -12.9124   22.6972 N   0  0  0  0  0  0  0  0  0  0  0  0
  -29.8128   -8.5824   16.2298 N   0  0  0  0  0  0  0  0  0  0  0  0
  -33.0414   -3.3079   18.4189 N   0  0  0  0  0  0  0  0  0  0  0  0
  -36.5415   -2.8404   19.1925 N   0  3  0  0  0  0  0  0  0  0  0  0
  -22.5146  -14.6841   20.9905 O   0  0  0  0  0  0  0  0  0  0  0  0
  -29.8818   -8.0365   18.4925 O   0  0  0  0  0  0  0  0  0  0  0  0
  -31.6905   -4.9168   16.4708 O   0  0  0  0  0  0  0  0  0  0  0  0
  -34.1879   -3.8458   20.3614 O   0  0  0  0  0  0  0  0  0  0  0  0
  -32.2388  -13.2662   21.0127 O   0  0  0  0  0  0  0  0  0  0  0  0
  -21.7188   -6.9662   21.6133 O   0  0  0  0  0  0  0  0  0  0  0  0
  -33.6825  -10.1793   22.8222 O   0  0  0  0  0  0  0  0  0  1  0  0
  -18.1598   -6.8625   25.8237 F   0  0  0  0  0  0  0  0  0  0  0  0
  -19.6134   -8.7538   21.7352 F   0  0  0  0  0  0  0  0  0  0  0  0
  -32.2286  -13.6415   27.4732 F   0  0  0  0  0  0  0  0  0  0  0  0
  -37.8554  -14.1435   24.8810 F   0  0  0  0  0  0  0  0  0  0  0  0
  -36.6335  -15.1564   26.3703 F   0  0  0  0  0  0  0  0  0  0  0  0
  -30.6454  -13.0581   25.3524 S   0  0  0  0  0  0  0  0  0  0  0  0
  1  2  1  0  0  0  0
  1  5  2  0  0  0  0
  2  6  2  0  0  0  0
  3  8  2  0  0  0  0
  3 15  1  0  0  0  0
  4  9  1  0  0  0  0
  4 15  2  0  0  0  0
  5 17  1  0  0  0  0
  6 19  1  0  0  0  0
  7 10  2  0  0  0  0
  7 18  1  0  0  0  0
  8 21  1  0  0  0  0
  9 21  2  0  0  0  0
 10 22  1  0  0  0  0
 11 12  2  0  0  0  0
 11 23  1  0  0  0  0
 12 24  1  0  0  0  0
 13 20  1  0  0  0  0
 13 22  2  0  0  0  0
 14 24  2  0  0  0  0
 14 25  1  0  0  0  0
 15 26  1  0  0  0  0
 16 26  1  0  0  0  0
 16 28  2  0  0  0  0
 16 31  1  0  0  0  0
 17 19  2  0  0  0  0
 17 36  1  0  0  0  0
 18 20  2  0  0  0  0
 18 37  1  0  0  0  0
 19 45  1  0  0  0  0
 20 38  1  0  0  0  0
 21 83  1  0  0  0  0
 22 84  1  0  0  0  0
 23 25  2  0  0  0  0
 23 83  1  0  0  0  0
 24 85  1  0  0  0  0
 25 86  1  0  0  0  0
 26 66  2  0  0  0  0
 27 29  2  0  0  0  0
 27 67  1  0  0  0  0
 27 73  1  0  0  0  0
 28 68  1  0  0  0  0
 28 71  1  0  0  0  0
 29 87  1  0  0  0  0
 29 90  1  0  0  0  0
 30 67  2  0  0  0  0
 30 74  1  0  0  0  0
 30 90  1  0  0  0  0
 31 72  1  0  0  0  0
 31 78  2  0  0  0  0
 32 46  1  0  0  0  0
 32 75  1  0  0  0  0
 32 79  2  0  0  0  0
 33 59  1  0  0  0  0
 33 69  1  0  0  0  0
 33 80  2  0  0  0  0
 34 60  1  0  0  0  0
 34 76  1  0  0  0  0
 34 81  2  0  0  0  0
 35 70  1  0  0  0  0
 35 74  1  0  0  0  0
 35 82  2  0  0  0  0
 36 39  1  0  0  0  0
 37 46  1  0  0  0  0
 38 69  1  0  0  0  0
 39 41  1  0  0  0  0
 40 42  1  0  0  0  0
 40 43  1  0  0  0  0
 41 45  1  0  0  0  0
 42 47  1  0  0  0  0
 43 70  1  0  0  0  0
 44 47  1  0  0  0  0
 44 70  1  0  0  0  0
 45 75  1  0  0  0  0
 46 69  1  0  0  0  0
 47 68  1  0  0  0  0
 48 60  1  0  0  0  0
 49 61  1  0  0  0  0
 50 63  1  0  0  0  0
 51 63  1  0  0  0  0
 52 63  1  0  0  0  0
 53 64  1  0  0  0  0
 54 64  1  0  0  0  0
 55 64  1  0  0  0  0
 56 77  1  0  0  0  0
 57 58  1  0  0  0  0
 57 61  1  0  0  0  0
 58 84  1  0  0  0  0
 59 63  1  0  0  0  0
 59 76  1  0  0  0  0
 60 77  1  0  0  0  0
 61 62  1  0  0  0  0
 62 65  1  0  0  0  0
 62 73  1  0  0  0  0
 64 65  1  0  0  0  0
 65 88  1  0  0  0  0
 65 89  1  0  0  0  0
 66 68  1  0  0  0  0
M  CHG  1  77   1
M  ISO  4  35 100  58 101  74 100  84 101
M  END
> <Batch ID>
0189

> <Smiles>
CNC(C)C(=O)NC(C(=O)N1Cc2cc([101O:1][101CH2:1]CC(C)C(Nc3nc([100NH:0][100C:0](=O)N4CCCC(n5nc(-c6ccc(Oc7ccc(F)cc7F)cc6)c(C(N)=O)c5N)C4)sc3F)C(F)(F)C(C)(C)C)ccc2CC1C(=O)NC1CCCc2ccccc21)C(C)(C)C

> <Shape>
0.126

> <Color>
0.167

> <Negative vol penalty>
0.000

$$$$
