
  -OEChem-04052305213D

 87 95  0     1  0  0  0  0  0999 V2000
  -29.9006  -35.4219   26.1046 C   0  0  0  0  0  0  0  0  0  0  0  0
  -30.2270  -34.6288   25.0092 C   0  0  0  0  0  0  0  0  0  0  0  0
  -23.2203   -9.6667   21.5195 C   0  0  0  0  0  0  0  0  0  0  0  0
  -23.8313  -10.7508   23.5904 C   0  0  0  0  0  0  0  0  0  0  0  0
  -28.9112  -35.0063   26.9946 C   0  0  0  0  0  0  0  0  0  0  0  0
  -29.5648  -33.4190   24.8038 C   0  0  0  0  0  0  0  0  0  0  0  0
  -27.2741  -29.1316   19.5419 C   0  0  0  0  0  0  0  0  0  0  0  0
  -22.5652   -8.6657   22.2368 C   0  0  0  0  0  0  0  0  0  0  0  0
  -23.1761   -9.7498   24.3077 C   0  0  0  0  0  0  0  0  0  0  0  0
  -27.3478  -27.8029   19.1261 C   0  0  0  0  0  0  0  0  0  0  0  0
  -23.4042   -5.8852   23.9658 C   0  0  0  0  0  0  0  0  0  0  0  0
  -23.6189   -4.5633   23.5760 C   0  0  0  0  0  0  0  0  0  0  0  0
  -25.6005  -27.2243   20.6854 C   0  0  0  0  0  0  0  0  0  0  0  0
  -21.2558   -4.3068   23.1436 C   0  0  0  0  0  0  0  0  0  0  0  0
  -23.8534  -10.7092   22.1964 C   0  0  0  0  0  0  0  0  0  0  0  0
  -23.9814  -12.9511   20.9860 C   0  0  0  0  0  0  0  0  0  0  0  0
  -28.2297  -33.7953   26.7947 C   0  0  0  0  0  0  0  0  0  0  0  0
  -26.3690  -29.5153   20.5420 C   0  0  0  0  0  0  0  0  0  0  0  0
  -28.5662  -32.9861   25.6927 C   0  0  0  0  0  0  0  0  0  0  0  0
  -25.5154  -28.5589   21.1103 C   0  0  0  0  0  0  0  0  0  0  0  0
  -22.5430   -8.7073   23.6309 C   0  0  0  0  0  0  0  0  0  0  0  0
  -26.5130  -26.8485   19.6999 C   0  0  0  0  0  0  0  0  0  0  0  0
  -22.1152   -6.4180   23.9445 C   0  0  0  0  0  0  0  0  0  0  0  0
  -22.5448   -3.7741   23.1649 C   0  0  0  0  0  0  0  0  0  0  0  0
  -21.0410   -5.6288   23.5334 C   0  0  0  0  0  0  0  0  0  0  0  0
  -24.5308  -11.7432   21.4560 C   0  0  0  0  0  0  0  0  0  0  0  0
  -30.9908  -19.5154   19.8656 C   0  0  0  0  0  0  0  0  0  0  0  0
  -25.0250  -13.5786   20.3506 C   0  0  0  0  0  0  0  0  0  0  0  0
  -29.8168  -20.0504   20.3530 C   0  0  0  0  0  0  0  0  0  0  0  0
  -29.9364  -17.6449   20.3121 C   0  0  0  0  0  0  0  0  0  0  0  0
  -22.6472  -13.4605   21.1125 C   0  0  0  0  0  0  0  0  0  0  0  0
  -26.6386  -30.7714   23.4495 C   0  0  0  0  0  0  0  0  0  0  0  0
  -23.4029  -30.9081   23.2660 C   0  0  0  0  0  0  0  0  0  0  0  0
  -20.5257  -29.6997   21.8846 C   0  0  0  0  0  0  0  0  0  0  0  0
  -30.3580  -15.1666   20.1487 C   0  0  0  0  0  0  0  0  0  0  0  0
  -27.2006  -33.3653   27.8099 C   0  0  0  0  0  0  0  0  0  0  0  0
  -26.2831  -30.9574   20.9605 C   0  0  0  0  0  0  0  0  0  0  0  0
  -24.5123  -28.9231   22.1731 C   0  0  0  0  0  0  0  0  0  0  0  0
  -26.2850  -32.2492   27.3137 C   0  0  0  0  0  0  0  0  0  0  0  0
  -29.6082  -11.8604   19.0607 C   0  0  0  0  0  0  0  0  0  0  0  0
  -27.1008  -31.1458   26.6476 C   0  0  0  0  0  0  0  0  0  0  0  0
  -28.1752  -11.6345   19.5482 C   0  0  0  0  0  0  0  0  0  0  0  0
  -30.4228  -12.6842   20.0565 C   0  0  0  0  0  0  0  0  0  0  0  0
  -28.3772  -13.7315   20.9442 C   0  0  0  0  0  0  0  0  0  0  0  0
  -27.8530  -31.6791   25.4223 C   0  0  1  0  0  0  0  0  0  0  0  0
  -25.6827  -31.1414   22.3508 C   0  0  1  0  0  0  0  0  0  0  0  0
  -27.4989  -12.9617   19.9444 C   0  0  2  0  0  0  0  0  0  0  0  0
  -18.0335  -29.9836   21.9603 C   0  0  0  0  0  0  0  0  0  0  0  0
  -26.8671  -22.8112   18.3515 C   0  0  0  0  0  0  0  0  0  0  0  0
  -28.2329  -21.6979   22.5347 C   0  0  0  0  0  0  0  0  0  0  0  0
  -32.7568  -21.2005   20.4882 C   0  0  0  0  0  0  0  0  0  0  0  0
  -31.7877  -21.1947   18.1651 C   0  0  0  0  0  0  0  0  0  0  0  0
  -33.3736  -19.4150   18.8716 C   0  0  0  0  0  0  0  0  0  0  0  0
  -23.3138  -29.3982   25.9159 C   0  0  0  0  0  0  0  0  0  0  0  0
  -20.9051  -28.8867   25.4635 C   0  0  0  0  0  0  0  0  0  0  0  0
  -21.6494  -31.2541   25.7163 C   0  0  0  0  0  0  0  0  0  0  0  0
  -20.4102  -30.4687   19.0290 C   0  0  0  0  0  0  0  0  0  0  0  0
  -27.9572  -23.3006   20.6089 C   0  0  0  0  0  0  0  0  0  0  0  0
  -27.8502  -25.0813   18.8368 C   0  0  0  0  0  0  0  0  0  1  0  0
  -22.2714  -29.9758   23.6255 C   0  0  1  0  0  0  0  0  0  0  0  0
  -19.3259  -30.4048   21.2782 C   0  0  2  0  0  0  0  0  0  0  0  0
  -27.9751  -23.5713   19.0888 C   0  0  2  0  0  0  0  0  0  0  0  0
  -28.2094  -21.8403   21.0151 C   0  0  1  0  0  0  0  0  0  0  0  0
  -32.1603  -20.2755   19.3756 C   0  0  0  0  0  0  0  0  0  0  0  0
  -22.0551  -29.8711   25.1617 C   0  0  0  0  0  0  0  0  0  0  0  0
  -25.8229  -11.6091   21.1456 N   0  0  0  0  0  0  0  0  0  0  0  0
  -31.0614  -18.1362   19.8417 N   0  0  0  0  0  0  0  0  0  0  0  0
  -26.0942  -12.7409   20.4736 N   0  0  0  0  0  0  0  0  0  0  0  0
  -24.4708  -30.3449   22.5531 N   0  0  0  0  0  0  0  0  0  0  0  0
  -29.7225  -13.9286   20.3818 N   0  0  0  0  0  0  0  0  0  0  0  0
  -25.1231  -14.7597   19.7042 N   0  0  0  0  0  0  0  0  0  0  0  0
  -21.6989  -12.6874   21.7961 N   0  0  0  0  0  0  0  0  0  0  0  0
  -29.4791  -21.3853   20.4895 N   0  0  0  0  0  0  0  0  0  0  0  0
  -29.5827  -16.2815   20.4659 N   0  0  0  0  0  0  0  0  0  0  0  0
  -26.9532  -31.8163   24.2972 N   0  0  0  0  0  0  0  0  0  0  0  0
  -21.1040  -30.4474   22.8885 N   0  0  0  0  0  0  0  0  0  0  0  0
  -19.2167  -30.0859   19.8266 N   0  3  0  0  0  0  0  0  0  0  0  0
  -22.3018  -14.5609   20.6193 O   0  0  0  0  0  0  0  0  0  0  0  0
  -27.0585  -29.6225   23.5235 O   0  0  0  0  0  0  0  0  0  0  0  0
  -23.3383  -32.0941   23.5990 O   0  0  0  0  0  0  0  0  0  0  0  0
  -20.9092  -28.5944   21.5080 O   0  0  0  0  0  0  0  0  0  0  0  0
  -31.4953  -15.2333   19.6753 O   0  0  0  0  0  0  0  0  0  0  0  0
  -21.9037   -7.7308   24.3311 O   0  0  0  0  0  0  0  0  0  0  0  0
  -26.5834  -25.5508   19.2963 O   0  0  0  0  0  0  0  0  0  1  0  0
  -22.7515   -2.5051   22.7891 F   0  0  0  0  0  0  0  0  0  0  0  0
  -19.8006   -6.1354   23.5097 F   0  0  0  0  0  0  0  0  0  0  0  0
  -28.7500  -18.7844   20.8009 S   0  0  0  0  0  0  0  0  0  0  0  0
  1  2  1  0  0  0  0
  1  5  2  0  0  0  0
  2  6  2  0  0  0  0
  3  8  2  0  0  0  0
  3 15  1  0  0  0  0
  4  9  1  0  0  0  0
  4 15  2  0  0  0  0
  5 17  1  0  0  0  0
  6 19  1  0  0  0  0
  7 10  2  0  0  0  0
  7 18  1  0  0  0  0
  8 21  1  0  0  0  0
  9 21  2  0  0  0  0
 10 22  1  0  0  0  0
 11 12  2  0  0  0  0
 11 23  1  0  0  0  0
 12 24  1  0  0  0  0
 13 20  1  0  0  0  0
 13 22  2  0  0  0  0
 14 24  2  0  0  0  0
 14 25  1  0  0  0  0
 15 26  1  0  0  0  0
 16 26  1  0  0  0  0
 16 28  2  0  0  0  0
 16 31  1  0  0  0  0
 17 19  2  0  0  0  0
 17 36  1  0  0  0  0
 18 20  2  0  0  0  0
 18 37  1  0  0  0  0
 19 45  1  0  0  0  0
 20 38  1  0  0  0  0
 21 83  1  0  0  0  0
 22 84  1  0  0  0  0
 23 25  2  0  0  0  0
 23 83  1  0  0  0  0
 24 85  1  0  0  0  0
 25 86  1  0  0  0  0
 26 66  2  0  0  0  0
 27 29  2  0  0  0  0
 27 64  1  0  0  0  0
 27 67  1  0  0  0  0
 28 68  1  0  0  0  0
 28 71  1  0  0  0  0
 29 73  1  0  0  0  0
 29 87  1  0  0  0  0
 30 67  2  0  0  0  0
 30 74  1  0  0  0  0
 30 87  1  0  0  0  0
 31 72  1  0  0  0  0
 31 78  2  0  0  0  0
 32 46  1  0  0  0  0
 32 75  1  0  0  0  0
 32 79  2  0  0  0  0
 33 60  1  0  0  0  0
 33 69  1  0  0  0  0
 33 80  2  0  0  0  0
 34 61  1  0  0  0  0
 34 76  1  0  0  0  0
 34 81  2  0  0  0  0
 35 70  1  0  0  0  0
 35 74  1  0  0  0  0
 35 82  2  0  0  0  0
 36 39  1  0  0  0  0
 37 46  1  0  0  0  0
 38 69  1  0  0  0  0
 39 41  1  0  0  0  0
 40 42  1  0  0  0  0
 40 43  1  0  0  0  0
 41 45  1  0  0  0  0
 42 47  1  0  0  0  0
 43 70  1  0  0  0  0
 44 47  1  0  0  0  0
 44 70  1  0  0  0  0
 45 75  1  0  0  0  0
 46 69  1  0  0  0  0
 47 68  1  0  0  0  0
 48 61  1  0  0  0  0
 49 62  1  0  0  0  0
 50 63  1  0  0  0  0
 51 64  1  0  0  0  0
 52 64  1  0  0  0  0
 53 64  1  0  0  0  0
 54 65  1  0  0  0  0
 55 65  1  0  0  0  0
 56 65  1  0  0  0  0
 57 77  1  0  0  0  0
 58 62  1  0  0  0  0
 58 63  1  0  0  0  0
 59 62  1  0  0  0  0
 59 84  1  0  0  0  0
 60 65  1  0  0  0  0
 60 76  1  0  0  0  0
 61 77  1  0  0  0  0
 63 73  1  0  0  0  0
 66 68  1  0  0  0  0
M  CHG  1  77   1
M  ISO  4  35 100  59 101  74 100  84 101
M  END
> <Batch ID>
0190

> <Smiles>
CNC(C)C(=O)NC(C(=O)N1Cc2cc([101O:1][101CH2:1]C(C)CC(C)Nc3sc([100NH:0][100C:0](=O)N4CCCC(n5nc(-c6ccc(Oc7ccc(F)cc7F)cc6)c(C(N)=O)c5N)C4)nc3C(C)(C)C)ccc2CC1C(=O)NC1CCCc2ccccc21)C(C)(C)C

> <Shape>
0.337

> <Color>
0.192

> <Negative vol penalty>
0.000

$$$$

  -OEChem-04052305213D

 85 93  0     1  0  0  0  0  0999 V2000
  -26.8648  -38.8874   23.6577 C   0  0  0  0  0  0  0  0  0  0  0  0
  -27.7109  -37.9120   24.1756 C   0  0  0  0  0  0  0  0  0  0  0  0
  -22.5962  -10.2087   22.9860 C   0  0  0  0  0  0  0  0  0  0  0  0
  -23.7846  -10.0823   20.8863 C   0  0  0  0  0  0  0  0  0  0  0  0
  -25.4874  -38.6729   23.6347 C   0  0  0  0  0  0  0  0  0  0  0  0
  -27.1799  -36.7220   24.6718 C   0  0  0  0  0  0  0  0  0  0  0  0
  -29.1445  -30.3568   21.9303 C   0  0  0  0  0  0  0  0  0  0  0  0
  -22.0219   -8.9624   22.7361 C   0  0  0  0  0  0  0  0  0  0  0  0
  -23.2104   -8.8359   20.6364 C   0  0  0  0  0  0  0  0  0  0  0  0
  -29.6276  -29.0900   21.6016 C   0  0  0  0  0  0  0  0  0  0  0  0
  -20.5227   -5.6517   22.8190 C   0  0  0  0  0  0  0  0  0  0  0  0
  -20.4948   -4.7291   23.8647 C   0  0  0  0  0  0  0  0  0  0  0  0
  -28.0333  -28.0783   23.1125 C   0  0  0  0  0  0  0  0  0  0  0  0
  -22.9071   -4.7894   23.9826 C   0  0  0  0  0  0  0  0  0  0  0  0
  -26.5902  -21.0327   18.0176 C   0  0  0  0  0  0  0  0  0  0  0  0
  -23.4775  -10.7687   22.0611 C   0  0  0  0  0  0  0  0  0  0  0  0
  -25.2814  -12.3161   22.9879 C   0  0  0  0  0  0  0  0  0  0  0  0
  -24.9400  -37.4756   24.1220 C   0  0  0  0  0  0  0  0  0  0  0  0
  -28.0923  -30.4884   22.8408 C   0  0  0  0  0  0  0  0  0  0  0  0
  -25.7937  -36.4919   24.6565 C   0  0  0  0  0  0  0  0  0  0  0  0
  -27.5369  -29.3439   23.4361 C   0  0  0  0  0  0  0  0  0  0  0  0
  -26.0580  -22.0533   18.8281 C   0  0  0  0  0  0  0  0  0  0  0  0
  -22.3290   -8.2759   21.5613 C   0  0  0  0  0  0  0  0  0  0  0  0
  -29.0735  -27.9536   22.1915 C   0  0  0  0  0  0  0  0  0  0  0  0
  -21.7429   -6.1431   22.3550 C   0  0  0  0  0  0  0  0  0  0  0  0
  -21.6869   -4.2980   24.4466 C   0  0  0  0  0  0  0  0  0  0  0  0
  -22.9351   -5.7120   22.9368 C   0  0  0  0  0  0  0  0  0  0  0  0
  -24.0706  -12.0564   22.3185 C   0  0  0  0  0  0  0  0  0  0  0  0
  -24.7204  -21.7557   18.9211 C   0  0  0  0  0  0  0  0  0  0  0  0
  -25.3970  -13.6846   22.9700 C   0  0  0  0  0  0  0  0  0  0  0  0
  -26.2180  -11.4020   23.5736 C   0  0  0  0  0  0  0  0  0  0  0  0
  -25.7653  -32.7970   24.6659 C   0  0  0  0  0  0  0  0  0  0  0  0
  -24.1105  -30.3618   23.8047 C   0  0  0  0  0  0  0  0  0  0  0  0
  -28.0832  -23.4611   19.3395 C   0  0  0  0  0  0  0  0  0  0  0  0
  -22.5566  -27.7164   22.3132 C   0  0  0  0  0  0  0  0  0  0  0  0
  -23.2551  -17.7660   19.2819 C   0  0  0  0  0  0  0  0  0  0  0  0
  -23.4410  -37.3088   24.1195 C   0  0  0  0  0  0  0  0  0  0  0  0
  -27.5813  -31.8366   23.2707 C   0  0  0  0  0  0  0  0  0  0  0  0
  -26.4297  -29.5356   24.4363 C   0  0  0  0  0  0  0  0  0  0  0  0
  -22.9885  -35.8649   24.3210 C   0  0  0  0  0  0  0  0  0  0  0  0
  -22.7420  -17.6666   22.8601 C   0  0  0  0  0  0  0  0  0  0  0  0
  -23.7529  -35.2218   25.4738 C   0  0  0  0  0  0  0  0  0  0  0  0
  -23.1460  -16.2273   23.1860 C   0  0  0  0  0  0  0  0  0  0  0  0
  -22.0085  -17.7447   21.5247 C   0  0  0  0  0  0  0  0  0  0  0  0
  -23.1662  -15.7326   20.6966 C   0  0  0  0  0  0  0  0  0  0  0  0
  -25.2576  -35.1776   25.1814 C   0  0  1  0  0  0  0  0  0  0  0  0
  -26.0663  -31.8493   23.5422 C   0  0  1  0  0  0  0  0  0  0  0  0
  -23.9310  -15.5883   22.0249 C   0  0  2  0  0  0  0  0  0  0  0  0
  -23.6155  -22.4350   19.6253 C   0  0  0  0  0  0  0  0  0  0  0  0
  -20.3027  -26.6422   22.0615 C   0  0  0  0  0  0  0  0  0  0  0  0
  -24.3354  -29.2364   26.6307 C   0  0  0  0  0  0  0  0  0  0  0  0
  -22.6526  -27.4951   25.9950 C   0  0  0  0  0  0  0  0  0  0  0  0
  -22.0229  -29.9085   25.9561 C   0  0  0  0  0  0  0  0  0  0  0  0
  -22.5757  -28.0938   19.3779 C   0  0  0  0  0  0  0  0  0  0  0  0
  -28.3880  -24.7275   20.1336 C   0  0  0  0  0  0  0  0  0  0  0  0
  -30.0713  -26.5560   20.5457 C   0  0  0  0  0  0  0  0  0  1  0  0
  -23.2504  -19.8799   17.9714 C   0  0  0  0  0  0  0  0  0  0  0  0
  -23.5724  -29.0030   24.1753 C   0  0  1  0  0  0  0  0  0  0  0  0
  -21.2955  -27.6320   21.4723 C   0  0  2  0  0  0  0  0  0  0  0  0
  -29.8680  -25.1080   20.1102 C   0  0  1  0  0  0  0  0  0  0  0  0
  -23.1699  -28.9136   25.6744 C   0  0  0  0  0  0  0  0  0  0  0  0
  -25.6661  -20.1523   17.6240 N   0  0  0  0  0  0  0  0  0  0  0  0
  -23.4605  -13.1704   21.9055 N   0  0  0  0  0  0  0  0  0  0  0  0
  -24.5398  -20.6188   18.1896 N   0  0  0  0  0  0  0  0  0  0  0  0
  -24.2913  -14.1435   22.3166 N   0  0  0  0  0  0  0  0  0  0  0  0
  -25.4887  -30.5586   23.9541 N   0  0  0  0  0  0  0  0  0  0  0  0
  -22.8187  -17.1373   20.4597 N   0  0  0  0  0  0  0  0  0  0  0  0
  -26.3356  -14.5281   23.4496 N   0  0  0  0  0  0  0  0  0  0  0  0
  -25.9453  -10.0291   23.5027 N   0  0  0  0  0  0  0  0  0  0  0  0
  -26.7292  -23.1474   19.4243 N   0  0  0  0  0  0  0  0  0  0  0  0
  -25.5623  -34.1027   24.2616 N   0  0  0  0  0  0  0  0  0  0  0  0
  -22.4813  -28.7287   23.2464 N   0  0  0  0  0  0  0  0  0  0  0  0
  -22.8727  -19.0943   19.1344 N   0  0  0  0  0  0  0  0  0  0  0  0
  -21.6258  -27.1973   20.0856 N   0  3  0  0  0  0  0  0  0  0  0  0
  -27.2576  -11.7921   24.1573 O   0  0  0  0  0  0  0  0  0  0  0  0
  -25.7188  -32.3756   25.8157 O   0  0  0  0  0  0  0  0  0  0  0  0
  -23.3315  -31.2288   23.3988 O   0  0  0  0  0  0  0  0  0  0  0  0
  -28.9520  -22.8478   18.7286 O   0  0  0  0  0  0  0  0  0  0  0  0
  -23.5112  -26.9576   22.1602 O   0  0  0  0  0  0  0  0  0  0  0  0
  -23.9366  -17.1889   18.4280 O   0  0  0  0  0  0  0  0  0  0  0  0
  -30.5618  -24.2579   21.0257 O   0  0  0  0  0  0  0  0  0  0  0  0
  -21.7690   -7.0596   21.3172 O   0  0  0  0  0  0  0  0  0  0  0  0
  -29.5469  -26.7197   21.8628 O   0  0  0  0  0  0  0  0  0  1  0  0
  -21.6598   -3.4132   25.4518 F   0  0  0  0  0  0  0  0  0  0  0  0
  -24.1104   -6.1815   22.4960 F   0  0  0  0  0  0  0  0  0  0  0  0
  1  2  1  0  0  0  0
  1  5  2  0  0  0  0
  2  6  2  0  0  0  0
  3  8  2  0  0  0  0
  3 16  1  0  0  0  0
  4  9  1  0  0  0  0
  4 16  2  0  0  0  0
  5 18  1  0  0  0  0
  6 20  1  0  0  0  0
  7 10  2  0  0  0  0
  7 19  1  0  0  0  0
  8 23  1  0  0  0  0
  9 23  2  0  0  0  0
 10 24  1  0  0  0  0
 11 12  2  0  0  0  0
 11 25  1  0  0  0  0
 12 26  1  0  0  0  0
 13 21  1  0  0  0  0
 13 24  2  0  0  0  0
 14 26  2  0  0  0  0
 14 27  1  0  0  0  0
 15 22  1  0  0  0  0
 15 62  2  0  0  0  0
 16 28  1  0  0  0  0
 17 28  1  0  0  0  0
 17 30  2  0  0  0  0
 17 31  1  0  0  0  0
 18 20  2  0  0  0  0
 18 37  1  0  0  0  0
 19 21  2  0  0  0  0
 19 38  1  0  0  0  0
 20 46  1  0  0  0  0
 21 39  1  0  0  0  0
 22 29  2  0  0  0  0
 22 70  1  0  0  0  0
 23 82  1  0  0  0  0
 24 83  1  0  0  0  0
 25 27  2  0  0  0  0
 25 82  1  0  0  0  0
 26 84  1  0  0  0  0
 27 85  1  0  0  0  0
 28 63  2  0  0  0  0
 29 49  1  0  0  0  0
 29 64  1  0  0  0  0
 30 65  1  0  0  0  0
 30 68  1  0  0  0  0
 31 69  1  0  0  0  0
 31 75  2  0  0  0  0
 32 47  1  0  0  0  0
 32 71  1  0  0  0  0
 32 76  2  0  0  0  0
 33 58  1  0  0  0  0
 33 66  1  0  0  0  0
 33 77  2  0  0  0  0
 34 55  1  0  0  0  0
 34 70  1  0  0  0  0
 34 78  2  0  0  0  0
 35 59  1  0  0  0  0
 35 72  1  0  0  0  0
 35 79  2  0  0  0  0
 36 67  1  0  0  0  0
 36 73  1  0  0  0  0
 36 80  2  0  0  0  0
 37 40  1  0  0  0  0
 38 47  1  0  0  0  0
 39 66  1  0  0  0  0
 40 42  1  0  0  0  0
 41 43  1  0  0  0  0
 41 44  1  0  0  0  0
 42 46  1  0  0  0  0
 43 48  1  0  0  0  0
 44 67  1  0  0  0  0
 45 48  1  0  0  0  0
 45 67  1  0  0  0  0
 46 71  1  0  0  0  0
 47 66  1  0  0  0  0
 48 65  1  0  0  0  0
 50 59  1  0  0  0  0
 51 61  1  0  0  0  0
 52 61  1  0  0  0  0
 53 61  1  0  0  0  0
 54 74  1  0  0  0  0
 55 60  1  0  0  0  0
 56 60  1  0  0  0  0
 56 83  1  0  0  0  0
 57 64  1  0  0  0  0
 57 73  1  0  0  0  0
 58 61  1  0  0  0  0
 58 72  1  0  0  0  0
 59 74  1  0  0  0  0
 60 81  1  0  0  0  0
 62 64  1  0  0  0  0
 63 65  1  0  0  0  0
M  CHG  1  74   1
M  ISO  4  36 100  56 101  73 100  83 101
M  END
> <Batch ID>
0190

> <Smiles>
CNC(C)C(=O)NC(C(=O)N1Cc2cc([101O:1][101CH2:1]C(O)CC(=O)Nc3cnn(C[100NH:0][100C:0](=O)N4CCCC(n5nc(-c6ccc(Oc7ccc(F)cc7F)cc6)c(C(N)=O)c5N)C4)c3C)ccc2CC1C(=O)NC1CCCc2ccccc21)C(C)(C)C

> <Shape>
0.241

> <Color>
0.091

> <Negative vol penalty>
0.000

$$$$

  -OEChem-04052305213D

 88 96  0     1  0  0  0  0  0999 V2000
  -21.8461  -19.0946   25.0893 C   0  0  0  0  0  0  0  0  0  0  0  0
  -23.1480  -19.5753   24.9931 C   0  0  0  0  0  0  0  0  0  0  0  0
  -26.9195  -13.4846   21.5011 C   0  0  0  0  0  0  0  0  0  0  0  0
  -26.7251  -13.6164   19.0965 C   0  0  0  0  0  0  0  0  0  0  0  0
  -20.8549  -19.5964   24.2468 C   0  0  0  0  0  0  0  0  0  0  0  0
  -23.4598  -20.5574   24.0536 C   0  0  0  0  0  0  0  0  0  0  0  0
  -27.7711  -26.1974   23.0942 C   0  0  0  0  0  0  0  0  0  0  0  0
  -32.8705  -22.4252   16.1616 C   0  0  0  0  0  0  0  0  0  0  0  0
  -26.1252  -12.3379   21.5025 C   0  0  0  0  0  0  0  0  0  0  0  0
  -25.9308  -12.4697   19.0979 C   0  0  0  0  0  0  0  0  0  0  0  0
  -28.6941  -26.7044   22.1806 C   0  0  0  0  0  0  0  0  0  0  0  0
  -23.8509   -9.5809   22.1733 C   0  0  0  0  0  0  0  0  0  0  0  0
  -22.8378   -9.4931   23.1280 C   0  0  0  0  0  0  0  0  0  0  0  0
  -31.8807  -21.6562   16.7634 C   0  0  0  0  0  0  0  0  0  0  0  0
  -26.8835  -27.5538   20.8317 C   0  0  0  0  0  0  0  0  0  0  0  0
  -21.8227  -11.4954   22.2350 C   0  0  0  0  0  0  0  0  0  0  0  0
  -27.2193  -14.1239   20.2981 C   0  0  0  0  0  0  0  0  0  0  0  0
  -29.4413  -15.3721   20.1861 C   0  0  0  0  0  0  0  0  0  0  0  0
  -21.1527  -20.5921   23.3030 C   0  0  0  0  0  0  0  0  0  0  0  0
  -26.3947  -26.3556   22.8774 C   0  0  0  0  0  0  0  0  0  0  0  0
  -22.4720  -21.0721   23.1968 C   0  0  0  0  0  0  0  0  0  0  0  0
  -25.9451  -27.0501   21.7454 C   0  0  0  0  0  0  0  0  0  0  0  0
  -32.7962  -23.8124   16.2187 C   0  0  0  0  0  0  0  0  0  0  0  0
  -25.6309  -11.8305   20.3009 C   0  0  0  0  0  0  0  0  0  0  0  0
  -28.2504  -27.3802   21.0477 C   0  0  0  0  0  0  0  0  0  0  0  0
  -23.8500  -10.6261   21.2495 C   0  0  0  0  0  0  0  0  0  0  0  0
  -21.8236  -10.4502   23.1588 C   0  0  0  0  0  0  0  0  0  0  0  0
  -22.8359  -11.5833   21.2803 C   0  0  0  0  0  0  0  0  0  0  0  0
  -28.0393  -15.3087   20.2961 C   0  0  0  0  0  0  0  0  0  0  0  0
  -30.8458  -22.3175   17.4047 C   0  0  0  0  0  0  0  0  0  0  0  0
  -31.7202  -24.3773   16.8842 C   0  0  0  0  0  0  0  0  0  0  0  0
  -29.7292  -16.7142   20.2355 C   0  0  0  0  0  0  0  0  0  0  0  0
  -30.3978  -14.3126   20.0511 C   0  0  0  0  0  0  0  0  0  0  0  0
  -23.9509  -24.3715   22.4356 C   0  0  0  0  0  0  0  0  0  0  0  0
  -22.2112  -27.1060   22.5720 C   0  0  0  0  0  0  0  0  0  0  0  0
  -22.1087  -30.4964   22.1959 C   0  0  0  0  0  0  0  0  0  0  0  0
  -28.7181  -21.9724   18.7085 C   0  0  0  0  0  0  0  0  0  0  0  0
  -20.0582  -21.0698   22.3819 C   0  0  0  0  0  0  0  0  0  0  0  0
  -25.4125  -25.8261   23.8861 C   0  0  0  0  0  0  0  0  0  0  0  0
  -24.4786  -27.2644   21.4770 C   0  0  0  0  0  0  0  0  0  0  0  0
  -20.3903  -22.3777   21.6682 C   0  0  0  0  0  0  0  0  0  0  0  0
  -26.7988  -20.6707   21.4103 C   0  0  0  0  0  0  0  0  0  0  0  0
  -21.8030  -22.3291   21.0949 C   0  0  0  0  0  0  0  0  0  0  0  0
  -27.0658  -19.1649   21.3522 C   0  0  0  0  0  0  0  0  0  0  0  0
  -26.7183  -21.2867   20.0146 C   0  0  0  0  0  0  0  0  0  0  0  0
  -28.1326  -19.4963   19.0852 C   0  0  0  0  0  0  0  0  0  0  0  0
  -22.8441  -22.1548   22.2072 C   0  0  1  0  0  0  0  0  0  0  0  0
  -24.0217  -25.5967   23.3025 C   0  0  1  0  0  0  0  0  0  0  0  0
  -28.2866  -18.8427   20.4683 C   0  0  2  0  0  0  0  0  0  0  0  0
  -33.8596  -24.6338   15.5728 C   0  0  0  0  0  0  0  0  0  0  0  0
  -20.5374  -32.4477   22.3399 C   0  0  0  0  0  0  0  0  0  0  0  0
  -27.3365  -26.4764   16.2954 C   0  0  0  0  0  0  0  0  0  0  0  0
  -27.9794  -27.1714   13.9787 C   0  0  0  0  0  0  0  0  0  0  0  0
  -20.9771  -26.3063   19.8985 C   0  0  0  0  0  0  0  0  0  0  0  0
  -20.1759  -28.6644   19.6422 C   0  0  0  0  0  0  0  0  0  0  0  0
  -19.3621  -27.2724   21.5456 C   0  0  0  0  0  0  0  0  0  0  0  0
  -23.7019  -31.7698   24.3405 C   0  0  0  0  0  0  0  0  0  0  0  0
  -31.2742  -27.8604   18.9817 C   0  0  0  0  0  0  0  0  0  0  0  0
  -29.7900  -26.5100   15.5897 C   0  0  0  0  0  0  0  0  0  0  0  0
  -30.3865  -27.1818   20.0211 C   0  0  0  0  0  0  0  0  0  1  0  0
  -21.7419  -28.1260   21.5628 C   0  0  1  0  0  0  0  0  0  0  0  0
  -21.5496  -31.5921   23.0855 C   0  0  2  0  0  0  0  0  0  0  0  0
  -28.4045  -27.1712   15.4503 C   0  0  0  0  0  0  0  0  0  0  0  0
  -30.3873  -26.4828   17.0096 C   0  0  2  0  0  0  0  0  0  0  0  0
  -30.6299  -27.8845   17.5897 C   0  0  2  0  0  0  0  0  0  0  0  0
  -20.5919  -27.5867   20.6661 C   0  0  0  0  0  0  0  0  0  0  0  0
  -27.4757  -16.5146   20.4073 N   0  0  0  0  0  0  0  0  0  0  0  0
  -30.7396  -23.6631   17.4809 N   0  0  0  0  0  0  0  0  0  0  0  0
  -28.5290  -17.3483   20.3675 N   0  0  0  0  0  0  0  0  0  0  0  0
  -23.5573  -26.7225   22.4894 N   0  0  0  0  0  0  0  0  0  0  0  0
  -27.9103  -20.9429   19.2362 N   0  0  0  0  0  0  0  0  0  0  0  0
  -30.8895  -17.4019   20.1787 N   0  0  0  0  0  0  0  0  0  0  0  0
  -29.9311  -12.9915   20.0171 N   0  0  0  0  0  0  0  0  0  0  0  0
  -29.8418  -21.5251   18.0145 N   0  0  0  0  0  0  0  0  0  0  0  0
  -31.6423  -25.7548   16.9441 N   0  0  0  0  0  0  0  0  0  0  0  0
  -23.0684  -23.4105   22.8908 N   0  0  0  0  0  0  0  0  0  0  0  0
  -21.3963  -29.3226   22.3224 N   0  0  0  0  0  0  0  0  0  0  0  0
  -22.6470  -32.4767   23.5695 N   0  3  0  0  0  0  0  0  0  0  0  0
  -31.6311  -14.5301   19.9797 O   0  0  0  0  0  0  0  0  0  0  0  0
  -24.6443  -24.3037   21.4275 O   0  0  0  0  0  0  0  0  0  0  0  0
  -21.4147  -26.6710   23.4074 O   0  0  0  0  0  0  0  0  0  0  0  0
  -23.0780  -30.6660   21.4595 O   0  0  0  0  0  0  0  0  0  0  0  0
  -28.4486  -23.1634   18.8843 O   0  0  0  0  0  0  0  0  0  0  0  0
  -24.8561  -10.7115   20.3018 O   0  0  0  0  0  0  0  0  0  0  0  0
  -29.1561  -27.8793   20.1471 O   0  0  0  0  0  0  0  0  0  1  0  0
  -20.8499  -10.3649   24.0747 F   0  0  0  0  0  0  0  0  0  0  0  0
  -22.8290  -12.5889   20.3946 F   0  0  0  0  0  0  0  0  0  0  0  0
  -31.4449  -28.5715   16.7404 F   0  0  0  0  0  0  0  0  0  0  0  0
  1  2  1  0  0  0  0
  1  5  2  0  0  0  0
  2  6  2  0  0  0  0
  3  9  2  0  0  0  0
  3 17  1  0  0  0  0
  4 10  1  0  0  0  0
  4 17  2  0  0  0  0
  5 19  1  0  0  0  0
  6 21  1  0  0  0  0
  7 11  2  0  0  0  0
  7 20  1  0  0  0  0
  8 14  2  0  0  0  0
  8 23  1  0  0  0  0
  9 24  1  0  0  0  0
 10 24  2  0  0  0  0
 11 25  1  0  0  0  0
 12 13  2  0  0  0  0
 12 26  1  0  0  0  0
 13 27  1  0  0  0  0
 14 30  1  0  0  0  0
 15 22  1  0  0  0  0
 15 25  2  0  0  0  0
 16 27  2  0  0  0  0
 16 28  1  0  0  0  0
 17 29  1  0  0  0  0
 18 29  1  0  0  0  0
 18 32  2  0  0  0  0
 18 33  1  0  0  0  0
 19 21  2  0  0  0  0
 19 38  1  0  0  0  0
 20 22  2  0  0  0  0
 20 39  1  0  0  0  0
 21 47  1  0  0  0  0
 22 40  1  0  0  0  0
 23 31  2  0  0  0  0
 23 50  1  0  0  0  0
 24 84  1  0  0  0  0
 25 85  1  0  0  0  0
 26 28  2  0  0  0  0
 26 84  1  0  0  0  0
 27 86  1  0  0  0  0
 28 87  1  0  0  0  0
 29 67  2  0  0  0  0
 30 68  2  0  0  0  0
 30 74  1  0  0  0  0
 31 68  1  0  0  0  0
 31 75  1  0  0  0  0
 32 69  1  0  0  0  0
 32 72  1  0  0  0  0
 33 73  1  0  0  0  0
 33 79  2  0  0  0  0
 34 48  1  0  0  0  0
 34 76  1  0  0  0  0
 34 80  2  0  0  0  0
 35 61  1  0  0  0  0
 35 70  1  0  0  0  0
 35 81  2  0  0  0  0
 36 62  1  0  0  0  0
 36 77  1  0  0  0  0
 36 82  2  0  0  0  0
 37 71  1  0  0  0  0
 37 74  1  0  0  0  0
 37 83  2  0  0  0  0
 38 41  1  0  0  0  0
 39 48  1  0  0  0  0
 40 70  1  0  0  0  0
 41 43  1  0  0  0  0
 42 44  1  0  0  0  0
 42 45  1  0  0  0  0
 43 47  1  0  0  0  0
 44 49  1  0  0  0  0
 45 71  1  0  0  0  0
 46 49  1  0  0  0  0
 46 71  1  0  0  0  0
 47 76  1  0  0  0  0
 48 70  1  0  0  0  0
 49 69  1  0  0  0  0
 51 62  1  0  0  0  0
 52 63  1  0  0  0  0
 53 63  1  0  0  0  0
 54 66  1  0  0  0  0
 55 66  1  0  0  0  0
 56 66  1  0  0  0  0
 57 78  1  0  0  0  0
 58 60  1  0  0  0  0
 58 65  1  0  0  0  0
 59 63  1  0  0  0  0
 59 64  1  0  0  0  0
 60 85  1  0  0  0  0
 61 66  1  0  0  0  0
 61 77  1  0  0  0  0
 62 78  1  0  0  0  0
 64 65  1  0  0  0  0
 64 75  1  0  0  0  0
 65 88  1  0  0  0  0
 67 69  1  0  0  0  0
M  CHG  1  78   1
M  ISO  4  37 100  60 101  74 100  85 101
M  END
> <Batch ID>
0190

> <Smiles>
CNC(C)C(=O)NC(C(=O)N1Cc2cc([101O:1][101CH2:1]CC(F)C(CC(C)C)Nc3nc([100NH:0][100C:0](=O)N4CCCC(n5nc(-c6ccc(Oc7ccc(F)cc7F)cc6)c(C(N)=O)c5N)C4)ccc3C)ccc2CC1C(=O)NC1CCCc2ccccc21)C(C)(C)C

> <Shape>
0.224

> <Color>
0.073

> <Negative vol penalty>
0.000

$$$$

  -OEChem-04052305213D

 89 97  0     1  0  0  0  0  0999 V2000
  -32.0801  -25.0624   14.7385 C   0  0  0  0  0  0  0  0  0  0  0  0
  -30.8266  -24.4995   14.9555 C   0  0  0  0  0  0  0  0  0  0  0  0
  -28.1316  -17.6333   20.4877 C   0  0  0  0  0  0  0  0  0  0  0  0
  -25.7318  -17.5358   20.2259 C   0  0  0  0  0  0  0  0  0  0  0  0
  -32.7644  -25.6651   15.7932 C   0  0  0  0  0  0  0  0  0  0  0  0
  -30.2570  -24.5380   16.2277 C   0  0  0  0  0  0  0  0  0  0  0  0
  -24.3132  -25.1187   17.5841 C   0  0  0  0  0  0  0  0  0  0  0  0
  -28.2578  -16.4409   19.7750 C   0  0  0  0  0  0  0  0  0  0  0  0
  -25.8580  -16.3434   19.5132 C   0  0  0  0  0  0  0  0  0  0  0  0
  -23.3340  -24.1873   17.9268 C   0  0  0  0  0  0  0  0  0  0  0  0
  -27.8780  -13.1346   20.3653 C   0  0  0  0  0  0  0  0  0  0  0  0
  -28.7407  -12.1641   20.8747 C   0  0  0  0  0  0  0  0  0  0  0  0
  -23.7251  -24.6448   20.2628 C   0  0  0  0  0  0  0  0  0  0  0  0
  -30.0488  -12.2618   18.8458 C   0  0  0  0  0  0  0  0  0  0  0  0
  -18.2246  -24.0874   24.3008 C   0  0  0  0  0  0  0  0  0  0  0  0
  -26.8685  -18.1807   20.7132 C   0  0  0  0  0  0  0  0  0  0  0  0
  -27.2876  -20.6644   21.1171 C   0  0  0  0  0  0  0  0  0  0  0  0
  -32.1987  -25.7196   17.0768 C   0  0  0  0  0  0  0  0  0  0  0  0
  -25.0145  -25.8133   18.5801 C   0  0  0  0  0  0  0  0  0  0  0  0
  -30.9349  -25.1408   17.3009 C   0  0  0  0  0  0  0  0  0  0  0  0
  -24.7109  -25.5863   19.9300 C   0  0  0  0  0  0  0  0  0  0  0  0
  -27.1210  -15.7960   19.2877 C   0  0  0  0  0  0  0  0  0  0  0  0
  -23.0418  -23.9481   19.2664 C   0  0  0  0  0  0  0  0  0  0  0  0
  -28.1007  -13.6686   19.0960 C   0  0  0  0  0  0  0  0  0  0  0  0
  -29.8261  -11.7277   20.1150 C   0  0  0  0  0  0  0  0  0  0  0  0
  -29.1860  -13.2322   18.3363 C   0  0  0  0  0  0  0  0  0  0  0  0
  -26.7375  -19.4120   21.4499 C   0  0  0  0  0  0  0  0  0  0  0  0
  -18.5450  -23.4070   25.4578 C   0  0  0  0  0  0  0  0  0  0  0  0
  -19.1816  -24.0590   23.3070 C   0  0  0  0  0  0  0  0  0  0  0  0
  -26.8762  -21.4995   22.1270 C   0  0  0  0  0  0  0  0  0  0  0  0
  -20.5578  -22.7924   24.5988 C   0  0  0  0  0  0  0  0  0  0  0  0
  -28.0979  -21.0394   19.9953 C   0  0  0  0  0  0  0  0  0  0  0  0
  -28.0629  -26.0011   19.4607 C   0  0  0  0  0  0  0  0  0  0  0  0
  -26.9382  -28.2905   21.4646 C   0  0  0  0  0  0  0  0  0  0  0  0
  -24.2920  -29.5920   23.1822 C   0  0  0  0  0  0  0  0  0  0  0  0
  -22.2207  -21.3918   25.8714 C   0  0  0  0  0  0  0  0  0  0  0  0
  -32.9969  -26.3398   18.1962 C   0  0  0  0  0  0  0  0  0  0  0  0
  -26.0492  -26.8342   18.1932 C   0  0  0  0  0  0  0  0  0  0  0  0
  -25.4210  -26.3206   21.0369 C   0  0  0  0  0  0  0  0  0  0  0  0
  -32.1609  -26.6700   19.4300 C   0  0  0  0  0  0  0  0  0  0  0  0
  -25.6677  -21.4592   26.7608 C   0  0  0  0  0  0  0  0  0  0  0  0
  -31.2590  -25.4949   19.7939 C   0  0  0  0  0  0  0  0  0  0  0  0
  -26.3835  -21.0617   25.4679 C   0  0  0  0  0  0  0  0  0  0  0  0
  -24.3549  -20.6986   26.9391 C   0  0  0  0  0  0  0  0  0  0  0  0
  -24.1494  -20.3772   24.5052 C   0  0  0  0  0  0  0  0  0  0  0  0
  -30.2731  -25.1846   18.6611 C   0  0  1  0  0  0  0  0  0  0  0  0
  -27.0608  -27.1092   19.3015 C   0  0  1  0  0  0  0  0  0  0  0  0
  -25.4450  -21.1644   24.2496 C   0  0  2  0  0  0  0  0  0  0  0  0
  -16.6114  -22.1989   26.5010 C   0  0  0  0  0  0  0  0  0  0  0  0
  -17.7114  -27.0705   18.5555 C   0  0  0  0  0  0  0  0  0  0  0  0
  -21.0682  -27.5767   21.4118 C   0  0  0  0  0  0  0  0  0  0  0  0
  -23.0119  -31.2109   24.6097 C   0  0  0  0  0  0  0  0  0  0  0  0
  -20.3636  -22.1434   18.1913 C   0  0  0  0  0  0  0  0  0  0  0  0
  -28.2693  -26.7680   23.7494 C   0  0  0  0  0  0  0  0  0  0  0  0
  -26.8698  -28.0881   25.3516 C   0  0  0  0  0  0  0  0  0  0  0  0
  -28.5071  -29.2544   23.8746 C   0  0  0  0  0  0  0  0  0  0  0  0
  -23.4873  -31.2049   20.8348 C   0  0  0  0  0  0  0  0  0  0  0  0
  -17.5727  -23.3812   26.5890 C   0  0  0  0  0  0  0  0  0  0  0  0
  -18.0616  -25.9181   19.4892 C   0  0  0  0  0  0  0  0  0  0  0  0
  -19.6692  -27.3613   20.8492 C   0  0  0  0  0  0  0  0  0  0  0  0
  -19.7856  -23.4121   20.2968 C   0  0  0  0  0  0  0  0  0  0  0  0
  -26.3897  -28.3048   22.8710 C   0  0  1  0  0  0  0  0  0  0  0  0
  -23.7740  -31.0134   23.3086 C   0  0  2  0  0  0  0  0  0  0  0  0
  -19.4796  -26.0129   20.1069 C   0  0  0  0  0  0  0  0  0  0  0  0
  -19.8123  -24.7844   21.0045 C   0  0  1  0  0  0  0  0  0  0  0  0
  -20.7638  -23.2803   19.1231 C   0  0  1  0  0  0  0  0  0  1  0  0
  -27.4968  -28.0884   23.9411 C   0  0  0  0  0  0  0  0  0  0  0  0
  -26.0307  -19.4439   22.5828 N   0  0  0  0  0  0  0  0  0  0  0  0
  -19.7068  -22.7462   25.6415 N   0  0  0  0  0  0  0  0  0  0  0  0
  -20.3637  -23.4190   23.4227 N   0  0  0  0  0  0  0  0  0  0  0  0
  -26.1339  -20.7265   22.9707 N   0  0  0  0  0  0  0  0  0  0  0  0
  -26.4289  -27.3044   20.6079 N   0  0  0  0  0  0  0  0  0  0  0  0
  -23.5154  -20.8447   25.7479 N   0  0  0  0  0  0  0  0  0  0  0  0
  -27.0807  -22.8121   22.3669 N   0  0  0  0  0  0  0  0  0  0  0  0
  -27.4602  -21.4897   18.8313 N   0  0  0  0  0  0  0  0  0  0  0  0
  -18.8990  -24.7284   22.1329 N   0  0  0  0  0  0  0  0  0  0  0  0
  -21.7890  -22.1089   24.7560 N   0  0  0  0  0  0  0  0  0  0  0  0
  -29.1838  -26.1374   18.6640 N   0  0  0  0  0  0  0  0  0  0  0  0
  -25.6599  -29.5602   23.0117 N   0  0  0  0  0  0  0  0  0  0  0  0
  -22.8609  -31.3346   22.1756 N   0  3  0  0  0  0  0  0  0  0  0  0
  -29.3496  -20.9615   20.0186 O   0  0  0  0  0  0  0  0  0  0  0  0
  -27.8367  -25.0906   20.2490 O   0  0  0  0  0  0  0  0  0  0  0  0
  -27.7821  -29.1281   21.1361 O   0  0  0  0  0  0  0  0  0  0  0  0
  -23.5571  -28.6082   23.2335 O   0  0  0  0  0  0  0  0  0  0  0  0
  -21.5555  -21.2587   26.9018 O   0  0  0  0  0  0  0  0  0  0  0  0
  -27.2438  -14.6326   18.5920 O   0  0  0  0  0  0  0  0  0  0  0  0
  -22.0810  -23.0335   19.6059 O   0  0  0  0  0  0  0  0  0  1  0  0
  -30.6553  -10.7968   20.6050 F   0  0  0  0  0  0  0  0  0  0  0  0
  -29.4057  -13.7425   17.1168 F   0  0  0  0  0  0  0  0  0  0  0  0
  1  2  1  0  0  0  0
  1  5  2  0  0  0  0
  2  6  2  0  0  0  0
  3  8  2  0  0  0  0
  3 16  1  0  0  0  0
  4  9  1  0  0  0  0
  4 16  2  0  0  0  0
  5 18  1  0  0  0  0
  6 20  1  0  0  0  0
  7 10  2  0  0  0  0
  7 19  1  0  0  0  0
  8 22  1  0  0  0  0
  9 22  2  0  0  0  0
 10 23  1  0  0  0  0
 11 12  2  0  0  0  0
 11 24  1  0  0  0  0
 12 25  1  0  0  0  0
 13 21  1  0  0  0  0
 13 23  2  0  0  0  0
 14 25  2  0  0  0  0
 14 26  1  0  0  0  0
 15 28  1  0  0  0  0
 15 29  2  0  0  0  0
 16 27  1  0  0  0  0
 17 27  1  0  0  0  0
 17 30  2  0  0  0  0
 17 32  1  0  0  0  0
 18 20  2  0  0  0  0
 18 37  1  0  0  0  0
 19 21  2  0  0  0  0
 19 38  1  0  0  0  0
 20 46  1  0  0  0  0
 21 39  1  0  0  0  0
 22 86  1  0  0  0  0
 23 87  1  0  0  0  0
 24 26  2  0  0  0  0
 24 86  1  0  0  0  0
 25 88  1  0  0  0  0
 26 89  1  0  0  0  0
 27 68  2  0  0  0  0
 28 58  1  0  0  0  0
 28 69  2  0  0  0  0
 29 70  1  0  0  0  0
 29 76  1  0  0  0  0
 30 71  1  0  0  0  0
 30 74  1  0  0  0  0
 31 69  1  0  0  0  0
 31 70  2  0  0  0  0
 31 77  1  0  0  0  0
 32 75  1  0  0  0  0
 32 81  2  0  0  0  0
 33 47  1  0  0  0  0
 33 78  1  0  0  0  0
 33 82  2  0  0  0  0
 34 62  1  0  0  0  0
 34 72  1  0  0  0  0
 34 83  2  0  0  0  0
 35 63  1  0  0  0  0
 35 79  1  0  0  0  0
 35 84  2  0  0  0  0
 36 73  1  0  0  0  0
 36 77  1  0  0  0  0
 36 85  2  0  0  0  0
 37 40  1  0  0  0  0
 38 47  1  0  0  0  0
 39 72  1  0  0  0  0
 40 42  1  0  0  0  0
 41 43  1  0  0  0  0
 41 44  1  0  0  0  0
 42 46  1  0  0  0  0
 43 48  1  0  0  0  0
 44 73  1  0  0  0  0
 45 48  1  0  0  0  0
 45 73  1  0  0  0  0
 46 78  1  0  0  0  0
 47 72  1  0  0  0  0
 48 71  1  0  0  0  0
 49 58  1  0  0  0  0
 50 59  1  0  0  0  0
 51 60  1  0  0  0  0
 52 63  1  0  0  0  0
 53 66  1  0  0  0  0
 54 67  1  0  0  0  0
 55 67  1  0  0  0  0
 56 67  1  0  0  0  0
 57 80  1  0  0  0  0
 59 64  1  0  0  0  0
 60 64  1  0  0  0  0
 61 65  1  0  0  0  0
 61 66  1  0  0  0  0
 62 67  1  0  0  0  0
 62 79  1  0  0  0  0
 63 80  1  0  0  0  0
 64 65  1  0  0  0  0
 65 76  1  0  0  0  0
 66 87  1  0  0  0  0
 68 71  1  0  0  0  0
M  CHG  1  80   1
M  ISO  4  36 100  66 101  77 100  87 101
M  END
> <Batch ID>
0190

> <Smiles>
CCc1cc(NC(C[101CH:1](C)[101O:1]c2ccc3c(c2)CN(C(=O)C(NC(=O)C(C)NC)C(C)(C)C)C(C(=O)NC2CCCc4ccccc42)C3)C(CC)CC)nc([100NH:0][100C:0](=O)N2CCCC(n3nc(-c4ccc(Oc5ccc(F)cc5F)cc4)c(C(N)=O)c3N)C2)n1

> <Shape>
0.185

> <Color>
0.048

> <Negative vol penalty>
0.000

$$$$

  -OEChem-04052305213D

 87 95  0     1  0  0  0  0  0999 V2000
  -25.2315  -38.6358   19.9093 C   0  0  0  0  0  0  0  0  0  0  0  0
  -25.9518  -37.6140   19.2990 C   0  0  0  0  0  0  0  0  0  0  0  0
  -24.4365   -8.5760   21.3831 C   0  0  0  0  0  0  0  0  0  0  0  0
  -24.2288  -10.3025   23.0604 C   0  0  0  0  0  0  0  0  0  0  0  0
  -24.6782  -38.4381   21.1737 C   0  0  0  0  0  0  0  0  0  0  0  0
  -26.1202  -36.3942   19.9534 C   0  0  0  0  0  0  0  0  0  0  0  0
  -26.7291  -29.3819   18.6217 C   0  0  0  0  0  0  0  0  0  0  0  0
  -24.0264   -7.6220   22.3143 C   0  0  0  0  0  0  0  0  0  0  0  0
  -23.8185   -9.3484   23.9916 C   0  0  0  0  0  0  0  0  0  0  0  0
  -27.5626  -28.3004   18.9037 C   0  0  0  0  0  0  0  0  0  0  0  0
  -21.1210   -6.5674   23.6852 C   0  0  0  0  0  0  0  0  0  0  0  0
  -20.1726   -5.6294   23.2774 C   0  0  0  0  0  0  0  0  0  0  0  0
  -26.4946  -28.0452   21.0516 C   0  0  0  0  0  0  0  0  0  0  0  0
  -21.7352   -3.8467   23.7434 C   0  0  0  0  0  0  0  0  0  0  0  0
  -24.5378   -9.9163   21.7562 C   0  0  0  0  0  0  0  0  0  0  0  0
  -24.1443  -11.6488   19.9255 C   0  0  0  0  0  0  0  0  0  0  0  0
  -24.8317  -37.2120   21.8397 C   0  0  0  0  0  0  0  0  0  0  0  0
  -25.7779  -29.8107   19.5586 C   0  0  0  0  0  0  0  0  0  0  0  0
  -25.5696  -36.1804   21.2284 C   0  0  0  0  0  0  0  0  0  0  0  0
  -25.6486  -29.1308   20.7780 C   0  0  0  0  0  0  0  0  0  0  0  0
  -23.7173   -8.0081   23.6185 C   0  0  0  0  0  0  0  0  0  0  0  0
  -27.4474  -27.6337   20.1200 C   0  0  0  0  0  0  0  0  0  0  0  0
  -22.3766   -6.1450   24.1220 C   0  0  0  0  0  0  0  0  0  0  0  0
  -20.4797   -4.2691   23.3065 C   0  0  0  0  0  0  0  0  0  0  0  0
  -22.6837   -4.7847   24.1512 C   0  0  0  0  0  0  0  0  0  0  0  0
  -24.9620  -10.9023   20.7949 C   0  0  0  0  0  0  0  0  0  0  0  0
  -28.6283  -19.8497   17.4526 C   0  0  0  0  0  0  0  0  0  0  0  0
  -25.0213  -12.4383   19.2227 C   0  0  0  0  0  0  0  0  0  0  0  0
  -27.2714  -20.0071   17.6424 C   0  0  0  0  0  0  0  0  0  0  0  0
  -28.1945  -17.9017   18.3621 C   0  0  0  0  0  0  0  0  0  0  0  0
  -22.7194  -11.6302   19.7674 C   0  0  0  0  0  0  0  0  0  0  0  0
  -25.2838  -32.4967   21.1849 C   0  0  0  0  0  0  0  0  0  0  0  0
  -22.5772  -30.9730   22.1203 C   0  0  0  0  0  0  0  0  0  0  0  0
  -20.9391  -28.0208   22.6184 C   0  0  0  0  0  0  0  0  0  0  0  0
  -29.4443  -15.8143   19.0155 C   0  0  0  0  0  0  0  0  0  0  0  0
  -24.2556  -37.0614   23.2254 C   0  0  0  0  0  0  0  0  0  0  0  0
  -24.8683  -30.9622   19.2282 C   0  0  0  0  0  0  0  0  0  0  0  0
  -24.6296  -29.5389   21.8094 C   0  0  0  0  0  0  0  0  0  0  0  0
  -24.1614  -35.6109   23.6917 C   0  0  0  0  0  0  0  0  0  0  0  0
  -30.0739  -12.3106   18.9466 C   0  0  0  0  0  0  0  0  0  0  0  0
  -25.4634  -34.8712   23.4011 C   0  0  0  0  0  0  0  0  0  0  0  0
  -28.7328  -11.6933   19.3498 C   0  0  0  0  0  0  0  0  0  0  0  0
  -30.3527  -13.6067   19.7056 C   0  0  0  0  0  0  0  0  0  0  0  0
  -27.9423  -13.9932   20.0369 C   0  0  0  0  0  0  0  0  0  0  0  0
  -25.7530  -34.8346   21.8957 C   0  0  1  0  0  0  0  0  0  0  0  0
  -24.2839  -31.6361   20.4659 C   0  0  1  0  0  0  0  0  0  0  0  0
  -27.5876  -12.7200   19.2516 C   0  0  2  0  0  0  0  0  0  0  0  0
  -29.4128  -20.0051   14.4471 C   0  0  0  0  0  0  0  0  0  0  0  0
  -18.7517  -27.0937   23.4265 C   0  0  0  0  0  0  0  0  0  0  0  0
  -27.7117  -23.7034   20.2769 C   0  0  0  0  0  0  0  0  0  0  0  0
  -31.0466  -22.0880   20.0993 C   0  0  0  0  0  0  0  0  0  0  0  0
  -23.4070  -31.5338   25.0025 C   0  0  0  0  0  0  0  0  0  0  0  0
  -21.7484  -29.8103   25.7419 C   0  0  0  0  0  0  0  0  0  0  0  0
  -20.9703  -31.8517   24.5378 C   0  0  0  0  0  0  0  0  0  0  0  0
  -20.3749  -26.7585   20.0017 C   0  0  0  0  0  0  0  0  0  0  0  0
  -30.3336  -20.3552   15.6098 C   0  0  0  0  0  0  0  0  0  0  0  0
  -29.5559  -23.4662   18.5938 C   0  0  0  0  0  0  0  0  0  0  0  0
  -28.7077  -25.7943   19.2928 C   0  0  0  0  0  0  0  0  0  1  0  0
  -29.5700  -20.8654   16.8434 C   0  0  2  0  0  0  0  0  0  0  0  0
  -22.2068  -30.0545   23.2597 C   0  0  1  0  0  0  0  0  0  0  0  0
  -19.5490  -27.5602   22.2184 C   0  0  2  0  0  0  0  0  0  0  0  0
  -28.9899  -24.3504   19.7278 C   0  0  1  0  0  0  0  0  0  0  0  0
  -29.9912  -22.0522   19.0005 C   0  0  1  0  0  0  0  0  0  0  0  0
  -22.1038  -30.8059   24.6171 C   0  0  0  0  0  0  0  0  0  0  0  0
  -26.2588  -11.1915   20.6585 N   0  0  0  0  0  0  0  0  0  0  0  0
  -29.1595  -18.6432   17.8650 N   0  0  0  0  0  0  0  0  0  0  0  0
  -26.2626  -12.1286   19.6952 N   0  0  0  0  0  0  0  0  0  0  0  0
  -23.7677  -30.6746   21.4423 N   0  0  0  0  0  0  0  0  0  0  0  0
  -29.2269  -14.5326   19.5639 N   0  0  0  0  0  0  0  0  0  0  0  0
  -24.8440  -13.3604   18.2527 N   0  0  0  0  0  0  0  0  0  0  0  0
  -26.5028  -21.0795   17.3328 N   0  0  0  0  0  0  0  0  0  0  0  0
  -21.9694  -10.7595   20.5697 N   0  0  0  0  0  0  0  0  0  0  0  0
  -28.2943  -16.5945   18.8997 N   0  0  0  0  0  0  0  0  0  0  0  0
  -24.9345  -33.8322   21.2478 N   0  0  0  0  0  0  0  0  0  0  0  0
  -20.9786  -29.3784   22.8563 N   0  0  0  0  0  0  0  0  0  0  0  0
  -19.6362  -26.4320   21.2486 N   0  3  0  0  0  0  0  0  0  0  0  0
  -30.5750  -21.3442   17.8279 N   0  3  0  0  0  0  0  0  0  0  0  0
  -22.1302  -12.3522   18.9278 O   0  0  0  0  0  0  0  0  0  0  0  0
  -26.2965  -31.9867   21.6496 O   0  0  0  0  0  0  0  0  0  0  0  0
  -21.8340  -31.9160   21.8376 O   0  0  0  0  0  0  0  0  0  0  0  0
  -21.8936  -27.2524   22.7141 O   0  0  0  0  0  0  0  0  0  0  0  0
  -30.5634  -16.1819   18.6486 O   0  0  0  0  0  0  0  0  0  0  0  0
  -23.3168   -7.0774   24.5273 O   0  0  0  0  0  0  0  0  0  0  0  0
  -28.2601  -26.5782   20.3980 O   0  0  0  0  0  0  0  0  0  1  0  0
  -19.5683   -3.3684   22.9163 F   0  0  0  0  0  0  0  0  0  0  0  0
  -23.8878   -4.3729   24.5710 F   0  0  0  0  0  0  0  0  0  0  0  0
  -26.6236  -18.5926   18.3642 S   0  0  0  0  0  0  0  0  0  0  0  0
  1  2  1  0  0  0  0
  1  5  2  0  0  0  0
  2  6  2  0  0  0  0
  3  8  2  0  0  0  0
  3 15  1  0  0  0  0
  4  9  1  0  0  0  0
  4 15  2  0  0  0  0
  5 17  1  0  0  0  0
  6 19  1  0  0  0  0
  7 10  2  0  0  0  0
  7 18  1  0  0  0  0
  8 21  1  0  0  0  0
  9 21  2  0  0  0  0
 10 22  1  0  0  0  0
 11 12  2  0  0  0  0
 11 23  1  0  0  0  0
 12 24  1  0  0  0  0
 13 20  1  0  0  0  0
 13 22  2  0  0  0  0
 14 24  2  0  0  0  0
 14 25  1  0  0  0  0
 15 26  1  0  0  0  0
 16 26  1  0  0  0  0
 16 28  2  0  0  0  0
 16 31  1  0  0  0  0
 17 19  2  0  0  0  0
 17 36  1  0  0  0  0
 18 20  2  0  0  0  0
 18 37  1  0  0  0  0
 19 45  1  0  0  0  0
 20 38  1  0  0  0  0
 21 83  1  0  0  0  0
 22 84  1  0  0  0  0
 23 25  2  0  0  0  0
 23 83  1  0  0  0  0
 24 85  1  0  0  0  0
 25 86  1  0  0  0  0
 26 65  2  0  0  0  0
 27 29  2  0  0  0  0
 27 59  1  0  0  0  0
 27 66  1  0  0  0  0
 28 67  1  0  0  0  0
 28 70  1  0  0  0  0
 29 71  1  0  0  0  0
 29 87  1  0  0  0  0
 30 66  2  0  0  0  0
 30 73  1  0  0  0  0
 30 87  1  0  0  0  0
 31 72  1  0  0  0  0
 31 78  2  0  0  0  0
 32 46  1  0  0  0  0
 32 74  1  0  0  0  0
 32 79  2  0  0  0  0
 33 60  1  0  0  0  0
 33 68  1  0  0  0  0
 33 80  2  0  0  0  0
 34 61  1  0  0  0  0
 34 75  1  0  0  0  0
 34 81  2  0  0  0  0
 35 69  1  0  0  0  0
 35 73  1  0  0  0  0
 35 82  2  0  0  0  0
 36 39  1  0  0  0  0
 37 46  1  0  0  0  0
 38 68  1  0  0  0  0
 39 41  1  0  0  0  0
 40 42  1  0  0  0  0
 40 43  1  0  0  0  0
 41 45  1  0  0  0  0
 42 47  1  0  0  0  0
 43 69  1  0  0  0  0
 44 47  1  0  0  0  0
 44 69  1  0  0  0  0
 45 74  1  0  0  0  0
 46 68  1  0  0  0  0
 47 67  1  0  0  0  0
 48 56  1  0  0  0  0
 49 61  1  0  0  0  0
 50 62  1  0  0  0  0
 51 63  1  0  0  0  0
 52 64  1  0  0  0  0
 53 64  1  0  0  0  0
 54 64  1  0  0  0  0
 55 76  1  0  0  0  0
 56 59  1  0  0  0  0
 57 62  1  0  0  0  0
 57 63  1  0  0  0  0
 58 62  1  0  0  0  0
 58 84  1  0  0  0  0
 59 77  1  0  0  0  0
 60 64  1  0  0  0  0
 60 75  1  0  0  0  0
 61 76  1  0  0  0  0
 63 77  1  0  0  0  0
 65 67  1  0  0  0  0
M  CHG  2  76   1  77   1
M  ISO  4  35 100  58 101  73 100  84 101
M  END
> <Batch ID>
0190

> <Smiles>
CCC(NC(C)CC(C)[101CH2:1][101O:1]c1ccc2c(c1)CN(C(=O)C(NC(=O)C(C)NC)C(C)(C)C)C(C(=O)NC1CCCc3ccccc31)C2)c1nc([100NH:0][100C:0](=O)N2CCCC(n3nc(-c4ccc(Oc5ccc(F)cc5F)cc4)c(C(N)=O)c3N)C2)sc1N

> <Shape>
0.311

> <Color>
0.102

> <Negative vol penalty>
0.000

$$$$

  -OEChem-04052305213D

 86 94  0     1  0  0  0  0  0999 V2000
  -19.0866  -22.3793   26.6315 C   0  0  0  0  0  0  0  0  0  0  0  0
  -18.8871  -22.4651   25.2574 C   0  0  0  0  0  0  0  0  0  0  0  0
  -26.0544  -12.6555   21.4652 C   0  0  0  0  0  0  0  0  0  0  0  0
  -25.4643  -13.4623   19.2657 C   0  0  0  0  0  0  0  0  0  0  0  0
  -19.4985  -23.5031   27.3465 C   0  0  0  0  0  0  0  0  0  0  0  0
  -19.0984  -23.6752   24.5975 C   0  0  0  0  0  0  0  0  0  0  0  0
  -23.8865  -24.1910   19.2403 C   0  0  0  0  0  0  0  0  0  0  0  0
  -25.5112  -11.4091   21.1537 C   0  0  0  0  0  0  0  0  0  0  0  0
  -24.9212  -12.2159   18.9541 C   0  0  0  0  0  0  0  0  0  0  0  0
  -24.6309  -24.3206   18.0676 C   0  0  0  0  0  0  0  0  0  0  0  0
  -23.9566   -8.1229   21.0629 C   0  0  0  0  0  0  0  0  0  0  0  0
  -23.1425   -7.5119   22.0166 C   0  0  0  0  0  0  0  0  0  0  0  0
  -24.1096  -26.6805   17.9848 C   0  0  0  0  0  0  0  0  0  0  0  0
  -21.6267   -9.3912   21.9266 C   0  0  0  0  0  0  0  0  0  0  0  0
  -27.8720  -25.2320   20.2983 C   0  0  0  0  0  0  0  0  0  0  0  0
  -28.5080  -22.8360   19.3071 C   0  0  0  0  0  0  0  0  0  0  0  0
  -26.0309  -13.6821   20.5212 C   0  0  0  0  0  0  0  0  0  0  0  0
  -27.9187  -15.3936   20.6416 C   0  0  0  0  0  0  0  0  0  0  0  0
  -19.7243  -24.7251   26.6936 C   0  0  0  0  0  0  0  0  0  0  0  0
  -23.2628  -25.3102   19.7988 C   0  0  0  0  0  0  0  0  0  0  0  0
  -19.5125  -24.8168   25.3046 C   0  0  0  0  0  0  0  0  0  0  0  0
  -23.3730  -26.5593   19.1661 C   0  0  0  0  0  0  0  0  0  0  0  0
  -24.9446  -11.1892   19.8982 C   0  0  0  0  0  0  0  0  0  0  0  0
  -24.7419  -25.5622   17.4413 C   0  0  0  0  0  0  0  0  0  0  0  0
  -23.6058   -9.3681   20.5411 C   0  0  0  0  0  0  0  0  0  0  0  0
  -21.9775   -8.1460   22.4484 C   0  0  0  0  0  0  0  0  0  0  0  0
  -22.4409  -10.0022   20.9729 C   0  0  0  0  0  0  0  0  0  0  0  0
  -26.5913  -14.9700   20.8426 C   0  0  0  0  0  0  0  0  0  0  0  0
  -28.9025  -25.0868   19.3957 C   0  0  0  0  0  0  0  0  0  0  0  0
  -27.4781  -22.9809   20.2102 C   0  0  0  0  0  0  0  0  0  0  0  0
  -27.9414  -16.6852   21.1084 C   0  0  0  0  0  0  0  0  0  0  0  0
  -29.0317  -14.6832   20.0829 C   0  0  0  0  0  0  0  0  0  0  0  0
  -21.1515  -26.6921   22.5752 C   0  0  0  0  0  0  0  0  0  0  0  0
  -23.3384  -28.7655   22.0022 C   0  0  0  0  0  0  0  0  0  0  0  0
  -26.1452  -30.5915   21.3501 C   0  0  0  0  0  0  0  0  0  0  0  0
  -25.6903  -21.7627   21.5010 C   0  0  0  0  0  0  0  0  0  0  0  0
  -20.1234  -25.9247   27.5160 C   0  0  0  0  0  0  0  0  0  0  0  0
  -22.4002  -25.2053   21.0271 C   0  0  0  0  0  0  0  0  0  0  0  0
  -22.6565  -27.7288   19.7840 C   0  0  0  0  0  0  0  0  0  0  0  0
  -20.6870  -27.0736   26.6838 C   0  0  0  0  0  0  0  0  0  0  0  0
  -24.5108  -19.2861   23.7708 C   0  0  0  0  0  0  0  0  0  0  0  0
  -19.8054  -27.3335   25.4664 C   0  0  0  0  0  0  0  0  0  0  0  0
  -25.0561  -17.9773   23.1948 C   0  0  0  0  0  0  0  0  0  0  0  0
  -24.0936  -20.2598   22.6702 C   0  0  0  0  0  0  0  0  0  0  0  0
  -25.6691  -19.2247   21.0841 C   0  0  0  0  0  0  0  0  0  0  0  0
  -19.7552  -26.1055   24.5493 C   0  0  1  0  0  0  0  0  0  0  0  0
  -22.4848  -26.4476   21.9319 C   0  0  1  0  0  0  0  0  0  0  0  0
  -26.1629  -18.2374   22.1542 C   0  0  2  0  0  0  0  0  0  0  0  0
  -31.1900  -26.1541   19.2501 C   0  0  0  0  0  0  0  0  0  0  0  0
  -27.3266  -32.6984   22.0303 C   0  0  0  0  0  0  0  0  0  0  0  0
  -28.4408  -28.7257   17.3675 C   0  0  0  0  0  0  0  0  0  0  0  0
  -21.3320  -30.4057   20.3935 C   0  0  0  0  0  0  0  0  0  0  0  0
  -23.0208  -32.2518   20.3034 C   0  0  0  0  0  0  0  0  0  0  0  0
  -22.1184  -31.4956   22.5026 C   0  0  0  0  0  0  0  0  0  0  0  0
  -28.5262  -29.0959   22.2734 C   0  0  0  0  0  0  0  0  0  0  0  0
  -27.9341  -26.9354   15.6588 C   0  0  0  0  0  0  0  0  0  0  0  0
  -26.5790  -24.7938   16.1405 C   0  0  0  0  0  0  0  0  0  1  0  0
  -29.7006  -26.2877   18.9429 C   0  0  1  0  0  0  0  0  0  0  0  0
  -23.7355  -30.0101   21.2495 C   0  0  1  0  0  0  0  0  0  0  0  0
  -27.1856  -31.2034   22.2707 C   0  0  2  0  0  0  0  0  0  0  0  0
  -28.2738  -27.2313   17.1228 C   0  0  1  0  0  0  0  0  0  0  0  0
  -27.6816  -25.4581   15.3196 C   0  0  1  0  0  0  0  0  0  0  0  0
  -22.5581  -31.0148   21.1025 C   0  0  0  0  0  0  0  0  0  0  0  0
  -29.2388  -23.8864   18.8836 N   0  0  0  0  0  0  0  0  0  0  0  0
  -27.1415  -24.1815   20.7220 N   0  0  0  0  0  0  0  0  0  0  0  0
  -25.8262  -15.9157   21.3942 N   0  0  0  0  0  0  0  0  0  0  0  0
  -26.6755  -16.9464   21.5439 N   0  0  0  0  0  0  0  0  0  0  0  0
  -22.8242  -27.7056   21.2455 N   0  0  0  0  0  0  0  0  0  0  0  0
  -25.1933  -20.4612   21.7241 N   0  0  0  0  0  0  0  0  0  0  0  0
  -28.9204  -17.6115   21.1848 N   0  0  0  0  0  0  0  0  0  0  0  0
  -28.8344  -13.3640   19.6528 N   0  0  0  0  0  0  0  0  0  0  0  0
  -26.7574  -21.8268   20.6056 N   0  0  0  0  0  0  0  0  0  0  0  0
  -20.9669  -26.0116   23.7636 N   0  0  0  0  0  0  0  0  0  0  0  0
  -24.9002  -30.5516   21.9414 N   0  0  0  0  0  0  0  0  0  0  0  0
  -28.5135  -30.5644   22.0488 N   0  3  0  0  0  0  0  0  0  0  0  0
  -29.5516  -26.5605   17.4897 N   0  3  0  0  0  0  0  0  0  0  0  0
  -30.1716  -15.1973   19.9837 O   0  0  0  0  0  0  0  0  0  0  0  0
  -20.3487  -27.4440   22.0349 O   0  0  0  0  0  0  0  0  0  0  0  0
  -23.4741  -28.7333   23.2285 O   0  0  0  0  0  0  0  0  0  0  0  0
  -26.4096  -30.1926   20.2180 O   0  0  0  0  0  0  0  0  0  0  0  0
  -25.2228  -22.7446   22.0835 O   0  0  0  0  0  0  0  0  0  0  0  0
  -27.3048  -25.3737   13.9418 O   0  0  0  0  0  0  0  0  0  0  0  0
  -24.4147   -9.9730   19.5938 O   0  0  0  0  0  0  0  0  0  0  0  0
  -25.4739  -25.6825   16.2991 O   0  0  0  0  0  0  0  0  0  1  0  0
  -21.1950   -7.5584   23.3630 F   0  0  0  0  0  0  0  0  0  0  0  0
  -22.0981  -11.1979   20.4744 F   0  0  0  0  0  0  0  0  0  0  0  0
  1  2  1  0  0  0  0
  1  5  2  0  0  0  0
  2  6  2  0  0  0  0
  3  8  2  0  0  0  0
  3 17  1  0  0  0  0
  4  9  1  0  0  0  0
  4 17  2  0  0  0  0
  5 19  1  0  0  0  0
  6 21  1  0  0  0  0
  7 10  2  0  0  0  0
  7 20  1  0  0  0  0
  8 23  1  0  0  0  0
  9 23  2  0  0  0  0
 10 24  1  0  0  0  0
 11 12  2  0  0  0  0
 11 25  1  0  0  0  0
 12 26  1  0  0  0  0
 13 22  1  0  0  0  0
 13 24  2  0  0  0  0
 14 26  2  0  0  0  0
 14 27  1  0  0  0  0
 15 29  1  0  0  0  0
 15 65  2  0  0  0  0
 16 30  2  0  0  0  0
 16 64  1  0  0  0  0
 17 28  1  0  0  0  0
 18 28  1  0  0  0  0
 18 31  2  0  0  0  0
 18 32  1  0  0  0  0
 19 21  2  0  0  0  0
 19 37  1  0  0  0  0
 20 22  2  0  0  0  0
 20 38  1  0  0  0  0
 21 46  1  0  0  0  0
 22 39  1  0  0  0  0
 23 83  1  0  0  0  0
 24 84  1  0  0  0  0
 25 27  2  0  0  0  0
 25 83  1  0  0  0  0
 26 85  1  0  0  0  0
 27 86  1  0  0  0  0
 28 66  2  0  0  0  0
 29 58  1  0  0  0  0
 29 64  2  0  0  0  0
 30 65  1  0  0  0  0
 30 72  1  0  0  0  0
 31 67  1  0  0  0  0
 31 70  1  0  0  0  0
 32 71  1  0  0  0  0
 32 77  2  0  0  0  0
 33 47  1  0  0  0  0
 33 73  1  0  0  0  0
 33 78  2  0  0  0  0
 34 59  1  0  0  0  0
 34 68  1  0  0  0  0
 34 79  2  0  0  0  0
 35 60  1  0  0  0  0
 35 74  1  0  0  0  0
 35 80  2  0  0  0  0
 36 69  1  0  0  0  0
 36 72  1  0  0  0  0
 36 81  2  0  0  0  0
 37 40  1  0  0  0  0
 38 47  1  0  0  0  0
 39 68  1  0  0  0  0
 40 42  1  0  0  0  0
 41 43  1  0  0  0  0
 41 44  1  0  0  0  0
 42 46  1  0  0  0  0
 43 48  1  0  0  0  0
 44 69  1  0  0  0  0
 45 48  1  0  0  0  0
 45 69  1  0  0  0  0
 46 73  1  0  0  0  0
 47 68  1  0  0  0  0
 48 67  1  0  0  0  0
 49 58  1  0  0  0  0
 50 60  1  0  0  0  0
 51 61  1  0  0  0  0
 52 63  1  0  0  0  0
 53 63  1  0  0  0  0
 54 63  1  0  0  0  0
 55 75  1  0  0  0  0
 56 61  1  0  0  0  0
 56 62  1  0  0  0  0
 57 62  1  0  0  0  0
 57 84  1  0  0  0  0
 58 76  1  0  0  0  0
 59 63  1  0  0  0  0
 59 74  1  0  0  0  0
 60 75  1  0  0  0  0
 61 76  1  0  0  0  0
 62 82  1  0  0  0  0
 66 67  1  0  0  0  0
M  CHG  2  75   1  76   1
M  ISO  4  36 100  57 101  72 100  84 101
M  END
> <Batch ID>
0190

> <Smiles>
CNC(C)C(=O)NC(C(=O)N1Cc2cc([101O:1][101CH2:1]C(O)CC(C)NC(C)c3cnc([100NH:0][100C:0](=O)N4CCCC(n5nc(-c6ccc(Oc7ccc(F)cc7F)cc6)c(C(N)=O)c5N)C4)cn3)ccc2CC1C(=O)NC1CCCc2ccccc21)C(C)(C)C

> <Shape>
0.218

> <Color>
0.054

> <Negative vol penalty>
0.000

$$$$

  -OEChem-04052305213D

 83 91  0     1  0  0  0  0  0999 V2000
  -34.5712   -4.6769   35.5690 C   0  0  0  0  0  0  0  0  0  0  0  0
  -34.1140   -5.1418   34.3401 C   0  0  0  0  0  0  0  0  0  0  0  0
  -23.2322   -9.8280   19.9140 C   0  0  0  0  0  0  0  0  0  0  0  0
  -23.7898   -9.9272   22.2626 C   0  0  0  0  0  0  0  0  0  0  0  0
  -33.7245   -4.6893   36.6766 C   0  0  0  0  0  0  0  0  0  0  0  0
  -32.8092   -5.6183   34.2178 C   0  0  0  0  0  0  0  0  0  0  0  0
  -30.8808  -10.1898   30.6279 C   0  0  0  0  0  0  0  0  0  0  0  0
  -22.5073   -8.6571   20.1355 C   0  0  0  0  0  0  0  0  0  0  0  0
  -23.0649   -8.7563   22.4842 C   0  0  0  0  0  0  0  0  0  0  0  0
  -30.2694  -10.2046   29.3750 C   0  0  0  0  0  0  0  0  0  0  0  0
  -19.8243   -7.8633   22.8329 C   0  0  0  0  0  0  0  0  0  0  0  0
  -18.9705   -7.8303   23.9353 C   0  0  0  0  0  0  0  0  0  0  0  0
  -28.1100  -10.3706   30.4373 C   0  0  0  0  0  0  0  0  0  0  0  0
  -20.2057   -5.9595   24.8361 C   0  0  0  0  0  0  0  0  0  0  0  0
  -27.5705  -16.1479   23.7081 C   0  0  0  0  0  0  0  0  0  0  0  0
  -23.8735  -10.4631   20.9775 C   0  0  0  0  0  0  0  0  0  0  0  0
  -24.1422  -12.9942   20.8076 C   0  0  0  0  0  0  0  0  0  0  0  0
  -32.4117   -5.1752   36.5701 C   0  0  0  0  0  0  0  0  0  0  0  0
  -30.1093  -10.2544   31.7971 C   0  0  0  0  0  0  0  0  0  0  0  0
  -31.9436   -5.6359   35.3247 C   0  0  0  0  0  0  0  0  0  0  0  0
  -28.7141  -10.3590   31.7038 C   0  0  0  0  0  0  0  0  0  0  0  0
  -22.4237   -8.1212   21.4206 C   0  0  0  0  0  0  0  0  0  0  0  0
  -28.8836  -10.2921   29.2796 C   0  0  0  0  0  0  0  0  0  0  0  0
  -20.8688   -6.9443   22.7320 C   0  0  0  0  0  0  0  0  0  0  0  0
  -19.1611   -6.8785   24.9370 C   0  0  0  0  0  0  0  0  0  0  0  0
  -21.0595   -5.9924   23.7336 C   0  0  0  0  0  0  0  0  0  0  0  0
  -24.6229  -11.6723   20.7492 C   0  0  0  0  0  0  0  0  0  0  0  0
  -28.5912  -15.2606   23.4381 C   0  0  0  0  0  0  0  0  0  0  0  0
  -25.2368  -13.7708   20.5158 C   0  0  0  0  0  0  0  0  0  0  0  0
  -27.7108  -14.2349   25.1652 C   0  0  0  0  0  0  0  0  0  0  0  0
  -22.8241  -13.4769   21.0997 C   0  0  0  0  0  0  0  0  0  0  0  0
  -29.6405   -8.3314   34.2843 C   0  0  0  0  0  0  0  0  0  0  0  0
  -27.9425  -10.8525   35.4172 C   0  0  0  0  0  0  0  0  0  0  0  0
  -26.1745  -13.6926   34.7428 C   0  0  0  0  0  0  0  0  0  0  0  0
  -28.1071  -12.1473   26.5158 C   0  0  0  0  0  0  0  0  0  0  0  0
  -31.0471  -13.4599   21.6241 C   0  0  0  0  0  0  0  0  0  0  0  0
  -31.5183   -5.1247   37.7841 C   0  0  0  0  0  0  0  0  0  0  0  0
  -30.7857  -10.2644   33.1405 C   0  0  0  0  0  0  0  0  0  0  0  0
  -27.8421  -10.4513   32.9283 C   0  0  0  0  0  0  0  0  0  0  0  0
  -30.2698   -5.9941   37.6581 C   0  0  0  0  0  0  0  0  0  0  0  0
  -29.5628  -13.0174   18.2621 C   0  0  0  0  0  0  0  0  0  0  0  0
  -29.6049   -5.7801   36.3020 C   0  0  0  0  0  0  0  0  0  0  0  0
  -28.1082  -12.6774   18.5823 C   0  0  0  0  0  0  0  0  0  0  0  0
  -30.5058  -12.5848   19.3807 C   0  0  0  0  0  0  0  0  0  0  0  0
  -28.6829  -12.7798   21.0399 C   0  0  0  0  0  0  0  0  0  0  0  0
  -30.5428   -6.1835   35.1579 C   0  0  1  0  0  0  0  0  0  0  0  0
  -29.8688   -9.8165   34.2745 C   0  0  1  0  0  0  0  0  0  0  0  0
  -27.7013  -13.2444   19.9536 C   0  0  2  0  0  0  0  0  0  0  0  0
  -24.8749  -15.5187   35.8714 C   0  0  0  0  0  0  0  0  0  0  0  0
  -26.0634  -11.0235   27.4747 C   0  0  0  0  0  0  0  0  0  0  0  0
  -25.6030   -8.9355   35.8195 C   0  0  0  0  0  0  0  0  0  0  0  0
  -24.0983  -10.9258   36.0265 C   0  0  0  0  0  0  0  0  0  0  0  0
  -25.9371  -10.5778   37.6758 C   0  0  0  0  0  0  0  0  0  0  0  0
  -31.7083  -14.9113   23.5044 C   0  0  0  0  0  0  0  0  0  0  0  0
  -28.0175  -15.7811   33.7428 C   0  0  0  0  0  0  0  0  0  0  0  0
  -29.5811  -15.3902   22.3505 C   0  0  0  0  0  0  0  0  0  0  0  0
  -26.5048  -11.3029   35.3212 C   0  0  1  0  0  0  0  0  0  0  0  0
  -26.2346  -15.0839   35.3470 C   0  0  2  0  0  0  0  0  0  0  0  0
  -27.5002  -11.4529   27.7322 C   0  0  1  0  0  0  0  0  0  1  0  0
  -25.5518  -10.4318   36.1875 C   0  0  0  0  0  0  0  0  0  0  0  0
  -25.9217  -11.6090   20.4440 N   0  0  0  0  0  0  0  0  0  0  0  0
  -28.6735  -14.1632   24.2728 N   0  0  0  0  0  0  0  0  0  0  0  0
  -26.2664  -12.9008   20.3080 N   0  0  0  0  0  0  0  0  0  0  0  0
  -28.5502  -10.4509   34.2192 N   0  0  0  0  0  0  0  0  0  0  0  0
  -30.0717  -13.1016   20.6790 N   0  0  0  0  0  0  0  0  0  0  0  0
  -25.4094  -15.1062   20.4191 N   0  0  0  0  0  0  0  0  0  0  0  0
  -21.8169  -12.5428   21.3776 N   0  0  0  0  0  0  0  0  0  0  0  0
  -27.4273  -13.3213   26.2082 N   0  0  0  0  0  0  0  0  0  0  0  0
  -30.5754   -7.6233   35.0150 N   0  0  0  0  0  0  0  0  0  0  0  0
  -26.4973  -12.7204   35.6658 N   0  0  0  0  0  0  0  0  0  0  0  0
  -30.7254  -14.4961   22.5137 N   0  0  0  0  0  0  0  0  0  0  0  0
  -26.6829  -16.0729   34.3264 N   0  3  0  0  0  0  0  0  0  0  0  0
  -22.5440  -14.6996   21.0978 O   0  0  0  0  0  0  0  0  0  0  0  0
  -28.6859   -7.8629   33.6752 O   0  0  0  0  0  0  0  0  0  0  0  0
  -28.5078  -10.8636   36.5135 O   0  0  0  0  0  0  0  0  0  0  0  0
  -25.8680  -13.4883   33.5702 O   0  0  0  0  0  0  0  0  0  0  0  0
  -29.0849  -11.6805   25.9385 O   0  0  0  0  0  0  0  0  0  0  0  0
  -32.1465  -12.8928   21.6638 O   0  0  0  0  0  0  0  0  0  0  0  0
  -21.7162   -6.9788   21.6373 O   0  0  0  0  0  0  0  0  0  0  0  0
  -28.2843  -10.3060   28.0579 O   0  0  0  0  0  0  0  0  0  1  0  0
  -18.3420   -6.8479   25.9964 F   0  0  0  0  0  0  0  0  0  0  0  0
  -22.0620   -5.1078   23.6428 F   0  0  0  0  0  0  0  0  0  0  0  0
  -26.6696  -15.5949   25.0586 S   0  0  0  0  0  0  0  0  0  0  0  0
  1  2  1  0  0  0  0
  1  5  2  0  0  0  0
  2  6  2  0  0  0  0
  3  8  2  0  0  0  0
  3 16  1  0  0  0  0
  4  9  1  0  0  0  0
  4 16  2  0  0  0  0
  5 18  1  0  0  0  0
  6 20  1  0  0  0  0
  7 10  2  0  0  0  0
  7 19  1  0  0  0  0
  8 22  1  0  0  0  0
  9 22  2  0  0  0  0
 10 23  1  0  0  0  0
 11 12  2  0  0  0  0
 11 24  1  0  0  0  0
 12 25  1  0  0  0  0
 13 21  1  0  0  0  0
 13 23  2  0  0  0  0
 14 25  2  0  0  0  0
 14 26  1  0  0  0  0
 15 28  2  0  0  0  0
 15 83  1  0  0  0  0
 16 27  1  0  0  0  0
 17 27  1  0  0  0  0
 17 29  2  0  0  0  0
 17 31  1  0  0  0  0
 18 20  2  0  0  0  0
 18 37  1  0  0  0  0
 19 21  2  0  0  0  0
 19 38  1  0  0  0  0
 20 46  1  0  0  0  0
 21 39  1  0  0  0  0
 22 79  1  0  0  0  0
 23 80  1  0  0  0  0
 24 26  2  0  0  0  0
 24 79  1  0  0  0  0
 25 81  1  0  0  0  0
 26 82  1  0  0  0  0
 27 61  2  0  0  0  0
 28 56  1  0  0  0  0
 28 62  1  0  0  0  0
 29 63  1  0  0  0  0
 29 66  1  0  0  0  0
 30 62  2  0  0  0  0
 30 68  1  0  0  0  0
 30 83  1  0  0  0  0
 31 67  1  0  0  0  0
 31 73  2  0  0  0  0
 32 47  1  0  0  0  0
 32 69  1  0  0  0  0
 32 74  2  0  0  0  0
 33 57  1  0  0  0  0
 33 64  1  0  0  0  0
 33 75  2  0  0  0  0
 34 58  1  0  0  0  0
 34 70  1  0  0  0  0
 34 76  2  0  0  0  0
 35 59  1  0  0  0  0
 35 68  1  0  0  0  0
 35 77  2  0  0  0  0
 36 65  1  0  0  0  0
 36 71  1  0  0  0  0
 36 78  2  0  0  0  0
 37 40  1  0  0  0  0
 38 47  1  0  0  0  0
 39 64  1  0  0  0  0
 40 42  1  0  0  0  0
 41 43  1  0  0  0  0
 41 44  1  0  0  0  0
 42 46  1  0  0  0  0
 43 48  1  0  0  0  0
 44 65  1  0  0  0  0
 45 48  1  0  0  0  0
 45 65  1  0  0  0  0
 46 69  1  0  0  0  0
 47 64  1  0  0  0  0
 48 63  1  0  0  0  0
 49 58  1  0  0  0  0
 50 59  1  0  0  0  0
 51 60  1  0  0  0  0
 52 60  1  0  0  0  0
 53 60  1  0  0  0  0
 54 71  1  0  0  0  0
 55 72  1  0  0  0  0
 56 71  1  0  0  0  0
 57 60  1  0  0  0  0
 57 70  1  0  0  0  0
 58 72  1  0  0  0  0
 59 80  1  0  0  0  0
 61 63  1  0  0  0  0
M  CHG  1  72   1
M  ISO  4  36 100  59 101  71 100  80 101
M  END
> <Batch ID>
0190

> <Smiles>
CNC(C)C(=O)NC(C(=O)N1Cc2cc([101O:1][101CH:1](C)C(=O)Nc3nc(C[100N:0](C)[100C:0](=O)N4CCCC(n5nc(-c6ccc(Oc7ccc(F)cc7F)cc6)c(C(N)=O)c5N)C4)cs3)ccc2CC1C(=O)NC1CCCc2ccccc21)C(C)(C)C

> <Shape>
0.146

> <Color>
0.173

> <Negative vol penalty>
0.000

$$$$

  -OEChem-04052305213D

 83 90  0     1  0  0  0  0  0999 V2000
  -19.5834  -17.4147   19.7632 C   0  0  0  0  0  0  0  0  0  0  0  0
  -20.7216  -18.0894   19.3334 C   0  0  0  0  0  0  0  0  0  0  0  0
  -24.2770  -13.7726   19.8921 C   0  0  0  0  0  0  0  0  0  0  0  0
  -25.7901  -14.1640   21.7345 C   0  0  0  0  0  0  0  0  0  0  0  0
  -18.4533  -18.1332   20.1511 C   0  0  0  0  0  0  0  0  0  0  0  0
  -20.7299  -19.4831   19.2902 C   0  0  0  0  0  0  0  0  0  0  0  0
  -25.4860  -23.1730   20.4174 C   0  0  0  0  0  0  0  0  0  0  0  0
  -24.4682  -12.3976   20.0270 C   0  0  0  0  0  0  0  0  0  0  0  0
  -25.9812  -12.7889   21.8695 C   0  0  0  0  0  0  0  0  0  0  0  0
  -26.3841  -23.8289   19.5766 C   0  0  0  0  0  0  0  0  0  0  0  0
  -23.3695   -9.9160   22.0439 C   0  0  0  0  0  0  0  0  0  0  0  0
  -22.2410   -9.0974   22.0013 C   0  0  0  0  0  0  0  0  0  0  0  0
  -25.0373  -25.8261   19.7060 C   0  0  0  0  0  0  0  0  0  0  0  0
  -23.1470   -7.9483   20.0789 C   0  0  0  0  0  0  0  0  0  0  0  0
  -24.9380  -14.6559   20.7458 C   0  0  0  0  0  0  0  0  0  0  0  0
  -23.7639  -16.8657   21.2418 C   0  0  0  0  0  0  0  0  0  0  0  0
  -18.4510  -19.5367   20.1218 C   0  0  0  0  0  0  0  0  0  0  0  0
  -24.3491  -23.8364   20.9008 C   0  0  0  0  0  0  0  0  0  0  0  0
  -19.5982  -20.2211   19.6768 C   0  0  0  0  0  0  0  0  0  0  0  0
  -24.1276  -25.1771   20.5548 C   0  0  0  0  0  0  0  0  0  0  0  0
  -25.3203  -11.9057   21.0158 C   0  0  0  0  0  0  0  0  0  0  0  0
  -26.1584  -25.1548   19.2185 C   0  0  0  0  0  0  0  0  0  0  0  0
  -24.3868   -9.7509   21.1039 C   0  0  0  0  0  0  0  0  0  0  0  0
  -22.1297   -8.1135   21.0189 C   0  0  0  0  0  0  0  0  0  0  0  0
  -24.2755   -8.7670   20.1214 C   0  0  0  0  0  0  0  0  0  0  0  0
  -24.7413  -16.0764   20.6064 C   0  0  0  0  0  0  0  0  0  0  0  0
  -23.9974  -18.1383   20.7808 C   0  0  0  0  0  0  0  0  0  0  0  0
  -22.7368  -16.4827   22.1660 C   0  0  0  0  0  0  0  0  0  0  0  0
  -21.2121  -23.4095   20.6160 C   0  0  0  0  0  0  0  0  0  0  0  0
  -28.9469  -20.6786   18.7013 C   0  0  0  0  0  0  0  0  0  0  0  0
  -21.0805  -25.8292   22.7724 C   0  0  0  0  0  0  0  0  0  0  0  0
  -22.5949  -28.5487   24.1715 C   0  0  0  0  0  0  0  0  0  0  0  0
  -28.9309  -25.4584   19.8105 C   0  0  0  0  0  0  0  0  0  0  0  0
  -17.1896  -20.2687   20.5057 C   0  0  0  0  0  0  0  0  0  0  0  0
  -23.4040  -23.1230   21.8283 C   0  0  0  0  0  0  0  0  0  0  0  0
  -22.9329  -25.9404   21.0632 C   0  0  0  0  0  0  0  0  0  0  0  0
  -17.4083  -21.7532   20.7866 C   0  0  0  0  0  0  0  0  0  0  0  0
  -25.7318  -20.5042   17.0102 C   0  0  0  0  0  0  0  0  0  0  0  0
  -18.2665  -22.3825   19.6938 C   0  0  0  0  0  0  0  0  0  0  0  0
  -25.0352  -19.3912   17.7919 C   0  0  0  0  0  0  0  0  0  0  0  0
  -27.2301  -20.2440   16.8777 C   0  0  0  0  0  0  0  0  0  0  0  0
  -27.2277  -18.9194   18.9681 C   0  0  0  0  0  0  0  0  0  0  0  0
  -19.6544  -21.7329   19.6396 C   0  0  1  0  0  0  0  0  0  0  0  0
  -22.0079  -23.7378   21.8475 C   0  0  1  0  0  0  0  0  0  0  0  0
  -25.7197  -19.1593   19.1504 C   0  0  2  0  0  0  0  0  0  0  0  0
  -32.2929  -22.9098   21.1045 C   0  0  0  0  0  0  0  0  0  0  0  0
  -30.1679  -27.9166   18.4260 C   0  0  0  0  0  0  0  0  0  0  0  0
  -22.2252  -30.3458   25.8835 C   0  0  0  0  0  0  0  0  0  0  0  0
  -31.6996  -23.0284   17.4609 C   0  0  0  0  0  0  0  0  0  0  0  0
  -27.5189  -27.5430   19.9555 C   0  0  0  0  0  0  0  0  0  0  0  0
  -19.2144  -27.2800   20.8430 C   0  0  0  0  0  0  0  0  0  0  0  0
  -19.6423  -29.3881   22.1241 C   0  0  0  0  0  0  0  0  0  0  0  0
  -18.5584  -27.4443   23.2507 C   0  0  0  0  0  0  0  0  0  0  0  0
  -24.9188  -27.6609   25.7746 C   0  0  0  0  0  0  0  0  0  0  0  0
  -29.5511  -21.7451   17.8230 C   0  0  0  0  0  0  0  0  0  0  0  0
  -31.4841  -23.9895   20.3945 C   0  0  0  0  0  0  0  0  0  0  0  0
  -28.9450  -27.1649   17.9089 C   0  0  0  0  0  0  0  0  0  0  0  0
  -21.0206  -27.3352   22.6871 C   0  0  1  0  0  0  0  0  0  0  0  0
  -22.7903  -28.9588   25.6199 C   0  0  2  0  0  0  0  0  0  0  0  0
  -30.7660  -22.4004   18.5057 C   0  0  2  0  0  0  0  0  0  0  0  0
  -30.3063  -23.4108   19.5916 C   0  0  2  0  0  0  0  0  0  0  0  0
  -28.1159  -26.4902   19.0169 C   0  0  1  0  0  0  0  0  0  1  0  0
  -19.6305  -27.8472   22.2149 C   0  0  0  0  0  0  0  0  0  0  0  0
  -25.5364  -16.7880   19.8030 N   0  0  0  0  0  0  0  0  0  0  0  0
  -25.0588  -18.0378   19.9303 N   0  0  0  0  0  0  0  0  0  0  0  0
  -22.0345  -25.1973   21.9622 N   0  0  0  0  0  0  0  0  0  0  0  0
  -27.8397  -20.0007   18.1905 N   0  0  0  0  0  0  0  0  0  0  0  0
  -23.3962  -19.3222   21.0241 N   0  0  0  0  0  0  0  0  0  0  0  0
  -22.6375  -15.1337   22.5331 N   0  0  0  0  0  0  0  0  0  0  0  0
  -20.4897  -22.2352   20.7093 N   0  0  0  0  0  0  0  0  0  0  0  0
  -21.4284  -27.8347   23.9957 N   0  0  0  0  0  0  0  0  0  0  0  0
  -29.5045  -24.4699   19.0263 N   0  0  0  0  0  0  0  0  0  0  0  0
  -24.2402  -28.9688   25.9643 N   0  3  0  0  0  0  0  0  0  0  0  0
  -21.9207  -17.3095   22.6392 O   0  0  0  0  0  0  0  0  0  0  0  0
  -21.2495  -24.1664   19.6529 O   0  0  0  0  0  0  0  0  0  0  0  0
  -29.4438  -20.4579   19.8088 O   0  0  0  0  0  0  0  0  0  0  0  0
  -20.3140  -25.2357   23.5353 O   0  0  0  0  0  0  0  0  0  0  0  0
  -23.3949  -28.8365   23.2840 O   0  0  0  0  0  0  0  0  0  0  0  0
  -29.0492  -25.5237   21.0341 O   0  0  0  0  0  0  0  0  0  0  0  0
  -25.5069  -10.5639   21.1479 O   0  0  0  0  0  0  0  0  0  0  0  0
  -27.0331  -25.7972   18.3975 O   0  0  0  0  0  0  0  0  0  1  0  0
  -21.0467   -7.3264   20.9791 F   0  0  0  0  0  0  0  0  0  0  0  0
  -25.2501   -8.6028   19.2164 F   0  0  0  0  0  0  0  0  0  0  0  0
  1  2  1  0  0  0  0
  1  5  2  0  0  0  0
  2  6  2  0  0  0  0
  3  8  2  0  0  0  0
  3 15  1  0  0  0  0
  4  9  1  0  0  0  0
  4 15  2  0  0  0  0
  5 17  1  0  0  0  0
  6 19  1  0  0  0  0
  7 10  2  0  0  0  0
  7 18  1  0  0  0  0
  8 21  1  0  0  0  0
  9 21  2  0  0  0  0
 10 22  1  0  0  0  0
 11 12  2  0  0  0  0
 11 23  1  0  0  0  0
 12 24  1  0  0  0  0
 13 20  1  0  0  0  0
 13 22  2  0  0  0  0
 14 24  2  0  0  0  0
 14 25  1  0  0  0  0
 15 26  1  0  0  0  0
 16 26  1  0  0  0  0
 16 27  2  0  0  0  0
 16 28  1  0  0  0  0
 17 19  2  0  0  0  0
 17 34  1  0  0  0  0
 18 20  2  0  0  0  0
 18 35  1  0  0  0  0
 19 43  1  0  0  0  0
 20 36  1  0  0  0  0
 21 80  1  0  0  0  0
 22 81  1  0  0  0  0
 23 25  2  0  0  0  0
 23 80  1  0  0  0  0
 24 82  1  0  0  0  0
 25 83  1  0  0  0  0
 26 64  2  0  0  0  0
 27 65  1  0  0  0  0
 27 68  1  0  0  0  0
 28 69  1  0  0  0  0
 28 74  2  0  0  0  0
 29 44  1  0  0  0  0
 29 70  1  0  0  0  0
 29 75  2  0  0  0  0
 30 55  1  0  0  0  0
 30 67  1  0  0  0  0
 30 76  2  0  0  0  0
 31 58  1  0  0  0  0
 31 66  1  0  0  0  0
 31 77  2  0  0  0  0
 32 59  1  0  0  0  0
 32 71  1  0  0  0  0
 32 78  2  0  0  0  0
 33 62  1  0  0  0  0
 33 72  1  0  0  0  0
 33 79  2  0  0  0  0
 34 37  1  0  0  0  0
 35 44  1  0  0  0  0
 36 66  1  0  0  0  0
 37 39  1  0  0  0  0
 38 40  1  0  0  0  0
 38 41  1  0  0  0  0
 39 43  1  0  0  0  0
 40 45  1  0  0  0  0
 41 67  1  0  0  0  0
 42 45  1  0  0  0  0
 42 67  1  0  0  0  0
 43 70  1  0  0  0  0
 44 66  1  0  0  0  0
 45 65  1  0  0  0  0
 46 56  1  0  0  0  0
 47 57  1  0  0  0  0
 48 59  1  0  0  0  0
 49 60  1  0  0  0  0
 50 62  1  0  0  0  0
 51 63  1  0  0  0  0
 52 63  1  0  0  0  0
 53 63  1  0  0  0  0
 54 73  1  0  0  0  0
 55 60  1  0  0  0  0
 56 61  1  0  0  0  0
 57 62  1  0  0  0  0
 58 63  1  0  0  0  0
 58 71  1  0  0  0  0
 59 73  1  0  0  0  0
 60 61  1  0  0  0  0
 61 72  1  0  0  0  0
 62 81  1  0  0  0  0
 64 65  1  0  0  0  0
M  CHG  1  73   1
M  ISO  4  30 100  55 100  62 101  81 101
M  END
> <Batch ID>
0190

> <Smiles>
CCC(NC(=O)[101C:1](C)(CC)[101O:1]c1ccc2c(c1)CN(C(=O)C(NC(=O)C(C)NC)C(C)(C)C)C(C(=O)NC1CCCc3ccccc31)C2)C(C)[100CH2:0][100C:0](=O)N1CCCC(n2nc(-c3ccc(Oc4ccc(F)cc4F)cc3)c(C(N)=O)c2N)C1

> <Shape>
0.177

> <Color>
0.071

> <Negative vol penalty>
0.000

$$$$

  -OEChem-04052305213D

 87 95  0     1  0  0  0  0  0999 V2000
  -32.3903  -13.7717   20.3186 C   0  0  0  0  0  0  0  0  0  0  0  0
  -31.7093  -14.9837   20.3707 C   0  0  0  0  0  0  0  0  0  0  0  0
  -29.2223  -26.6443   20.6439 C   0  0  0  0  0  0  0  0  0  0  0  0
  -27.3999  -25.0658   20.8000 C   0  0  0  0  0  0  0  0  0  0  0  0
  -31.6885  -12.5882   20.0937 C   0  0  0  0  0  0  0  0  0  0  0  0
  -30.3260  -15.0129   20.1968 C   0  0  0  0  0  0  0  0  0  0  0  0
  -26.3504  -18.7823   22.9340 C   0  0  0  0  0  0  0  0  0  0  0  0
  -30.1034  -25.6742   21.1215 C   0  0  0  0  0  0  0  0  0  0  0  0
  -28.2810  -24.0957   21.2775 C   0  0  0  0  0  0  0  0  0  0  0  0
  -25.7353  -19.9614   22.5156 C   0  0  0  0  0  0  0  0  0  0  0  0
  -30.1155  -21.0942   22.1962 C   0  0  0  0  0  0  0  0  0  0  0  0
  -30.0224  -19.8110   21.6575 C   0  0  0  0  0  0  0  0  0  0  0  0
  -18.1164  -28.0678   21.8977 C   0  0  0  0  0  0  0  0  0  0  0  0
  -23.7938  -18.7008   21.8369 C   0  0  0  0  0  0  0  0  0  0  0  0
  -30.4977  -20.6986   19.4612 C   0  0  0  0  0  0  0  0  0  0  0  0
  -17.6531  -27.0658   21.0696 C   0  0  0  0  0  0  0  0  0  0  0  0
  -27.8705  -26.3401   20.4833 C   0  0  0  0  0  0  0  0  0  0  0  0
  -26.6227  -27.5980   18.6479 C   0  0  0  0  0  0  0  0  0  0  0  0
  -30.2948  -12.6018   19.9266 C   0  0  0  0  0  0  0  0  0  0  0  0
  -25.6950  -17.5501   22.7968 C   0  0  0  0  0  0  0  0  0  0  0  0
  -29.6051  -13.8286   19.9682 C   0  0  0  0  0  0  0  0  0  0  0  0
  -24.4017  -17.5077   22.2567 C   0  0  0  0  0  0  0  0  0  0  0  0
  -29.6329  -24.3999   21.4382 C   0  0  0  0  0  0  0  0  0  0  0  0
  -24.4581  -19.9205   21.9642 C   0  0  0  0  0  0  0  0  0  0  0  0
  -30.3996  -22.1797   21.3675 C   0  0  0  0  0  0  0  0  0  0  0  0
  -30.2135  -19.6132   20.2900 C   0  0  0  0  0  0  0  0  0  0  0  0
  -30.5907  -21.9818   20.0000 C   0  0  0  0  0  0  0  0  0  0  0  0
  -26.9596  -27.3420   19.9906 C   0  0  0  0  0  0  0  0  0  0  0  0
  -19.4466  -27.9802   22.2543 C   0  0  0  0  0  0  0  0  0  0  0  0
  -25.7268  -28.6372   18.7109 C   0  0  0  0  0  0  0  0  0  0  0  0
  -19.7001  -26.0779   21.0361 C   0  0  0  0  0  0  0  0  0  0  0  0
  -20.6748  -27.3798   24.9483 C   0  0  0  0  0  0  0  0  0  0  0  0
  -27.0786  -26.9539   17.4509 C   0  0  0  0  0  0  0  0  0  0  0  0
  -26.2791  -14.8644   21.2002 C   0  0  0  0  0  0  0  0  0  0  0  0
  -23.6825  -13.7942   22.8234 C   0  0  0  0  0  0  0  0  0  0  0  0
  -20.7858  -14.5359   24.4683 C   0  0  0  0  0  0  0  0  0  0  0  0
  -21.9879  -30.5444   22.9810 C   0  0  0  0  0  0  0  0  0  0  0  0
  -29.5854  -11.3023   19.6388 C   0  0  0  0  0  0  0  0  0  0  0  0
  -26.3614  -16.2903   23.2776 C   0  0  0  0  0  0  0  0  0  0  0  0
  -23.6472  -16.2129   22.1063 C   0  0  0  0  0  0  0  0  0  0  0  0
  -28.0737  -11.3765   19.8378 C   0  0  0  0  0  0  0  0  0  0  0  0
  -24.5653  -32.4220   21.3973 C   0  0  0  0  0  0  0  0  0  0  0  0
  -27.5096  -12.6316   19.1796 C   0  0  0  0  0  0  0  0  0  0  0  0
  -25.4408  -31.3561   20.7360 C   0  0  0  0  0  0  0  0  0  0  0  0
  -24.0155  -31.9471   22.7405 C   0  0  0  0  0  0  0  0  0  0  0  0
  -24.1772  -29.5913   22.0350 C   0  0  0  0  0  0  0  0  0  0  0  0
  -28.1018  -13.8984   19.8090 C   0  0  1  0  0  0  0  0  0  0  0  0
  -25.8075  -15.0318   22.6169 C   0  0  1  0  0  0  0  0  0  0  0  0
  -24.7093  -30.0029   20.6517 C   0  0  2  0  0  0  0  0  0  0  0  0
  -18.8589  -13.4484   25.6523 C   0  0  0  0  0  0  0  0  0  0  0  0
  -22.7174  -25.9115   20.0941 C   0  0  0  0  0  0  0  0  0  0  0  0
  -22.4924  -12.9806   20.1343 C   0  0  0  0  0  0  0  0  0  0  0  0
  -20.2611  -12.7997   21.2552 C   0  0  0  0  0  0  0  0  0  0  0  0
  -22.1397  -11.3248   21.9750 C   0  0  0  0  0  0  0  0  0  0  0  0
  -21.4255  -15.9057   27.0126 C   0  0  0  0  0  0  0  0  0  0  0  0
  -19.9251  -28.6466   24.6407 C   0  0  0  0  0  0  0  0  0  0  0  0
  -21.9687  -22.5510   21.8615 C   0  0  0  0  0  0  0  0  0  0  0  0
  -22.3976  -23.4921   20.7272 C   0  0  0  0  0  0  0  0  0  0  0  0
  -22.4313  -21.1176   21.6253 C   0  0  0  0  0  0  0  0  0  1  0  0
  -20.0378  -29.0185   23.1476 C   0  0  1  0  0  0  0  0  0  0  0  0
  -22.1942  -13.7813   22.5706 C   0  0  1  0  0  0  0  0  0  0  0  0
  -20.2387  -14.0692   25.8053 C   0  0  2  0  0  0  0  0  0  0  0  0
  -21.9151  -24.9329   20.9459 C   0  0  2  0  0  0  0  0  0  0  0  0
  -21.7866  -12.7459   21.4847 C   0  0  0  0  0  0  0  0  0  0  0  0
  -18.4202  -26.0519   20.6180 N   0  0  0  0  0  0  0  0  0  0  0  0
  -26.3293  -28.1533   20.8441 N   0  0  0  0  0  0  0  0  0  0  0  0
  -20.2704  -26.9951   21.8404 N   0  0  0  0  0  0  0  0  0  0  0  0
  -20.0759  -26.3435   25.4289 N   0  0  0  0  0  0  0  0  0  0  0  0
  -25.5874  -28.9294   20.0358 N   0  0  0  0  0  0  0  0  0  0  0  0
  -24.3437  -15.0075   22.5854 N   0  0  0  0  0  0  0  0  0  0  0  0
  -23.3324  -30.6599   22.5910 N   0  0  0  0  0  0  0  0  0  0  0  0
  -25.0527  -29.3205   17.7616 N   0  0  0  0  0  0  0  0  0  0  0  0
  -27.9993  -25.9035   17.5665 N   0  0  0  0  0  0  0  0  0  0  0  0
  -20.5160  -25.0528   20.5922 N   0  0  0  0  0  0  0  0  0  0  0  0
  -27.4698  -14.1733   21.0816 N   0  0  0  0  0  0  0  0  0  0  0  0
  -21.5617  -13.5672   23.8677 N   0  0  0  0  0  0  0  0  0  0  0  0
  -21.4144  -29.2918   22.7998 N   0  0  0  0  0  0  0  0  0  0  0  0
  -20.1360  -15.2159   26.7516 N   0  3  0  0  0  0  0  0  0  0  0  0
  -26.6938  -27.3104   16.3114 O   0  0  0  0  0  0  0  0  0  0  0  0
  -25.6113  -15.3266   20.2825 O   0  0  0  0  0  0  0  0  0  0  0  0
  -24.2368  -12.7678   23.2244 O   0  0  0  0  0  0  0  0  0  0  0  0
  -20.5455  -15.6472   24.0016 O   0  0  0  0  0  0  0  0  0  0  0  0
  -21.3446  -31.4892   23.4507 O   0  0  0  0  0  0  0  0  0  0  0  0
  -30.4925  -23.4529   21.9040 O   0  0  0  0  0  0  0  0  0  0  0  0
  -23.8557  -21.0698   21.5544 O   0  0  0  0  0  0  0  0  0  1  0  0
  -30.1257  -18.3806   19.7730 F   0  0  0  0  0  0  0  0  0  0  0  0
  -30.8651  -23.0206   19.1990 F   0  0  0  0  0  0  0  0  0  0  0  0
  1  2  1  0  0  0  0
  1  5  2  0  0  0  0
  2  6  2  0  0  0  0
  3  8  2  0  0  0  0
  3 17  1  0  0  0  0
  4  9  1  0  0  0  0
  4 17  2  0  0  0  0
  5 19  1  0  0  0  0
  6 21  1  0  0  0  0
  7 10  2  0  0  0  0
  7 20  1  0  0  0  0
  8 23  1  0  0  0  0
  9 23  2  0  0  0  0
 10 24  1  0  0  0  0
 11 12  2  0  0  0  0
 11 25  1  0  0  0  0
 12 26  1  0  0  0  0
 13 16  1  0  0  0  0
 13 29  2  0  0  0  0
 14 22  1  0  0  0  0
 14 24  2  0  0  0  0
 15 26  2  0  0  0  0
 15 27  1  0  0  0  0
 16 65  2  0  0  0  0
 17 28  1  0  0  0  0
 18 28  1  0  0  0  0
 18 30  2  0  0  0  0
 18 33  1  0  0  0  0
 19 21  2  0  0  0  0
 19 38  1  0  0  0  0
 20 22  2  0  0  0  0
 20 39  1  0  0  0  0
 21 47  1  0  0  0  0
 22 40  1  0  0  0  0
 23 84  1  0  0  0  0
 24 85  1  0  0  0  0
 25 27  2  0  0  0  0
 25 84  1  0  0  0  0
 26 86  1  0  0  0  0
 27 87  1  0  0  0  0
 28 66  2  0  0  0  0
 29 60  1  0  0  0  0
 29 67  1  0  0  0  0
 30 69  1  0  0  0  0
 30 72  1  0  0  0  0
 31 65  1  0  0  0  0
 31 67  2  0  0  0  0
 31 74  1  0  0  0  0
 32 56  1  0  0  0  0
 32 68  2  0  0  0  0
 33 73  1  0  0  0  0
 33 79  2  0  0  0  0
 34 48  1  0  0  0  0
 34 75  1  0  0  0  0
 34 80  2  0  0  0  0
 35 61  1  0  0  0  0
 35 70  1  0  0  0  0
 35 81  2  0  0  0  0
 36 62  1  0  0  0  0
 36 76  1  0  0  0  0
 36 82  2  0  0  0  0
 37 71  1  0  0  0  0
 37 77  1  0  0  0  0
 37 83  2  0  0  0  0
 38 41  1  0  0  0  0
 39 48  1  0  0  0  0
 40 70  1  0  0  0  0
 41 43  1  0  0  0  0
 42 44  1  0  0  0  0
 42 45  1  0  0  0  0
 43 47  1  0  0  0  0
 44 49  1  0  0  0  0
 45 71  1  0  0  0  0
 46 49  1  0  0  0  0
 46 71  1  0  0  0  0
 47 75  1  0  0  0  0
 48 70  1  0  0  0  0
 49 69  1  0  0  0  0
 50 62  1  0  0  0  0
 51 63  1  0  0  0  0
 52 64  1  0  0  0  0
 53 64  1  0  0  0  0
 54 64  1  0  0  0  0
 55 78  1  0  0  0  0
 56 60  1  0  0  0  0
 57 58  1  0  0  0  0
 57 59  1  0  0  0  0
 58 63  1  0  0  0  0
 59 85  1  0  0  0  0
 60 77  1  0  0  0  0
 61 64  1  0  0  0  0
 61 76  1  0  0  0  0
 62 78  1  0  0  0  0
 63 74  1  0  0  0  0
 66 69  1  0  0  0  0
M  CHG  1  78   1
M  ISO  4  37 100  59 101  77 100  85 101
M  END
> <Batch ID>
0190

> <Smiles>
CNC(C)C(=O)NC(C(=O)N1Cc2cc([101O:1][101CH2:1]CCC(C)Nc3nccc(C(C=CN)[100NH:0][100C:0](=O)N4CCCC(n5nc(-c6ccc(Oc7ccc(F)cc7F)cc6)c(C(N)=O)c5N)C4)n3)ccc2CC1C(=O)NC1CCCc2ccccc21)C(C)(C)C

> <Shape>
0.255

> <Color>
0.070

> <Negative vol penalty>
0.000

$$$$

  -OEChem-04052305213D

 84 92  0     1  0  0  0  0  0999 V2000
  -29.4145  -23.1398   19.9597 C   0  0  0  0  0  0  0  0  0  0  0  0
  -28.0525  -23.4152   19.8927 C   0  0  0  0  0  0  0  0  0  0  0  0
  -27.6222  -14.0435   22.1788 C   0  0  0  0  0  0  0  0  0  0  0  0
  -26.0309  -15.0103   20.6392 C   0  0  0  0  0  0  0  0  0  0  0  0
  -30.2096  -23.7865   20.9050 C   0  0  0  0  0  0  0  0  0  0  0  0
  -27.4846  -24.3368   20.7717 C   0  0  0  0  0  0  0  0  0  0  0  0
  -22.8756  -28.1929   19.5913 C   0  0  0  0  0  0  0  0  0  0  0  0
  -27.2754  -12.7671   21.7357 C   0  0  0  0  0  0  0  0  0  0  0  0
  -25.6842  -13.7339   20.1961 C   0  0  0  0  0  0  0  0  0  0  0  0
  -21.5093  -28.1323   19.8618 C   0  0  0  0  0  0  0  0  0  0  0  0
  -24.1211  -10.7134   18.9142 C   0  0  0  0  0  0  0  0  0  0  0  0
  -22.7647  -10.4259   18.7630 C   0  0  0  0  0  0  0  0  0  0  0  0
  -21.8527  -29.4417   21.8585 C   0  0  0  0  0  0  0  0  0  0  0  0
  -22.4082  -10.8739   21.1102 C   0  0  0  0  0  0  0  0  0  0  0  0
  -21.0009  -23.8016   24.2100 C   0  0  0  0  0  0  0  0  0  0  0  0
  -21.9501  -21.9624   22.5236 C   0  0  0  0  0  0  0  0  0  0  0  0
  -26.9999  -15.1651   21.6306 C   0  0  0  0  0  0  0  0  0  0  0  0
  -28.3653  -17.3191   21.5707 C   0  0  0  0  0  0  0  0  0  0  0  0
  -29.6529  -24.7236   21.7896 C   0  0  0  0  0  0  0  0  0  0  0  0
  -23.7438  -28.8702   20.4596 C   0  0  0  0  0  0  0  0  0  0  0  0
  -28.2727  -24.9956   21.7306 C   0  0  0  0  0  0  0  0  0  0  0  0
  -23.2293  -29.5116   21.5954 C   0  0  0  0  0  0  0  0  0  0  0  0
  -26.3064  -12.6123   20.7444 C   0  0  0  0  0  0  0  0  0  0  0  0
  -20.9980  -28.7543   20.9971 C   0  0  0  0  0  0  0  0  0  0  0  0
  -24.6212  -11.0811   20.1634 C   0  0  0  0  0  0  0  0  0  0  0  0
  -21.9081  -10.5062   19.8610 C   0  0  0  0  0  0  0  0  0  0  0  0
  -23.7647  -11.1614   21.2613 C   0  0  0  0  0  0  0  0  0  0  0  0
  -27.3572  -16.4837   22.0882 C   0  0  0  0  0  0  0  0  0  0  0  0
  -20.5632  -23.7401   22.9053 C   0  0  0  0  0  0  0  0  0  0  0  0
  -22.3885  -22.0243   23.8281 C   0  0  0  0  0  0  0  0  0  0  0  0
  -28.3034  -18.4520   22.3447 C   0  0  0  0  0  0  0  0  0  0  0  0
  -29.2760  -17.0913   20.4870 C   0  0  0  0  0  0  0  0  0  0  0  0
  -26.2283  -28.0285   22.2547 C   0  0  0  0  0  0  0  0  0  0  0  0
  -26.4407  -31.2238   22.7715 C   0  0  0  0  0  0  0  0  0  0  0  0
  -19.0038  -25.6935   23.2171 C   0  0  0  0  0  0  0  0  0  0  0  0
  -24.8795  -34.2577   22.8398 C   0  0  0  0  0  0  0  0  0  0  0  0
  -23.9286  -20.9859   25.5299 C   0  0  0  0  0  0  0  0  0  0  0  0
  -30.5437  -25.3623   22.8256 C   0  0  0  0  0  0  0  0  0  0  0  0
  -25.2113  -28.9491   20.1394 C   0  0  0  0  0  0  0  0  0  0  0  0
  -24.1162  -30.2688   22.5485 C   0  0  0  0  0  0  0  0  0  0  0  0
  -29.9332  -26.6029   23.4725 C   0  0  0  0  0  0  0  0  0  0  0  0
  -27.1031  -19.9223   26.7415 C   0  0  0  0  0  0  0  0  0  0  0  0
  -28.4860  -26.3377   23.8751 C   0  0  0  0  0  0  0  0  0  0  0  0
  -27.6230  -19.0007   25.6359 C   0  0  0  0  0  0  0  0  0  0  0  0
  -25.5934  -19.7855   26.9307 C   0  0  0  0  0  0  0  0  0  0  0  0
  -25.3168  -19.0293   24.6025 C   0  0  0  0  0  0  0  0  0  0  0  0
  -27.6243  -26.0073   22.6504 C   0  0  1  0  0  0  0  0  0  0  0  0
  -26.0759  -29.2295   21.3647 C   0  0  1  0  0  0  0  0  0  0  0  0
  -26.8226  -19.1791   24.3308 C   0  0  2  0  0  0  0  0  0  0  0  0
  -16.6187  -25.8507   22.3917 C   0  0  0  0  0  0  0  0  0  0  0  0
  -25.3039  -36.6809   23.3356 C   0  0  0  0  0  0  0  0  0  0  0  0
  -26.4026  -30.6163   25.7613 C   0  0  0  0  0  0  0  0  0  0  0  0
  -25.8722  -33.0281   26.1738 C   0  0  0  0  0  0  0  0  0  0  0  0
  -28.0224  -32.3953   25.0789 C   0  0  0  0  0  0  0  0  0  0  0  0
  -24.1822  -35.0645   20.0790 C   0  0  0  0  0  0  0  0  0  0  0  0
  -17.9612  -27.9732   22.8128 C   0  0  0  0  0  0  0  0  0  0  0  0
  -19.2750  -28.7300   22.6362 C   0  0  0  0  0  0  0  0  0  1  0  0
  -25.8622  -32.1841   23.7825 C   0  0  1  0  0  0  0  0  0  0  0  0
  -18.0032  -26.4983   22.3775 C   0  0  1  0  0  0  0  0  0  0  0  0
  -25.2710  -35.6053   22.2609 C   0  0  2  0  0  0  0  0  0  0  0  0
  -26.5232  -32.0401   25.1824 C   0  0  0  0  0  0  0  0  0  0  0  0
  -21.0297  -22.8193   22.0388 N   0  0  0  0  0  0  0  0  0  0  0  0
  -21.9217  -22.9449   24.6947 N   0  0  0  0  0  0  0  0  0  0  0  0
  -26.7030  -17.0386   23.1121 N   0  0  0  0  0  0  0  0  0  0  0  0
  -27.3014  -18.2347   23.2441 N   0  0  0  0  0  0  0  0  0  0  0  0
  -25.5448  -30.3120   22.1955 N   0  0  0  0  0  0  0  0  0  0  0  0
  -24.9008  -19.9709   25.6537 N   0  0  0  0  0  0  0  0  0  0  0  0
  -29.0090  -19.6028   22.3370 N   0  0  0  0  0  0  0  0  0  0  0  0
  -29.2035  -15.8730   19.7981 N   0  0  0  0  0  0  0  0  0  0  0  0
  -19.5964  -24.6784   22.4719 N   0  0  0  0  0  0  0  0  0  0  0  0
  -23.3609  -21.0887   24.2603 N   0  0  0  0  0  0  0  0  0  0  0  0
  -27.2949  -27.2147   21.9237 N   0  0  0  0  0  0  0  0  0  0  0  0
  -25.9847  -33.5151   23.1979 N   0  0  0  0  0  0  0  0  0  0  0  0
  -24.2987  -36.0201   21.2104 N   0  3  0  0  0  0  0  0  0  0  0  0
  -30.1398  -17.9364   20.1505 O   0  0  0  0  0  0  0  0  0  0  0  0
  -25.4377  -27.8540   23.1745 O   0  0  0  0  0  0  0  0  0  0  0  0
  -27.6419  -31.2854   22.4974 O   0  0  0  0  0  0  0  0  0  0  0  0
  -19.2137  -25.9621   24.3966 O   0  0  0  0  0  0  0  0  0  0  0  0
  -23.7100  -33.9012   22.9654 O   0  0  0  0  0  0  0  0  0  0  0  0
  -23.6417  -21.7282   26.4725 O   0  0  0  0  0  0  0  0  0  0  0  0
  -25.9680  -11.3670   20.3116 O   0  0  0  0  0  0  0  0  0  0  0  0
  -19.6649  -28.6961   21.2638 O   0  0  0  0  0  0  0  0  0  1  0  0
  -20.6053  -10.2315   19.7154 F   0  0  0  0  0  0  0  0  0  0  0  0
  -24.2390  -11.5153   22.4637 F   0  0  0  0  0  0  0  0  0  0  0  0
  1  2  1  0  0  0  0
  1  5  2  0  0  0  0
  2  6  2  0  0  0  0
  3  8  2  0  0  0  0
  3 17  1  0  0  0  0
  4  9  1  0  0  0  0
  4 17  2  0  0  0  0
  5 19  1  0  0  0  0
  6 21  1  0  0  0  0
  7 10  2  0  0  0  0
  7 20  1  0  0  0  0
  8 23  1  0  0  0  0
  9 23  2  0  0  0  0
 10 24  1  0  0  0  0
 11 12  2  0  0  0  0
 11 25  1  0  0  0  0
 12 26  1  0  0  0  0
 13 22  1  0  0  0  0
 13 24  2  0  0  0  0
 14 26  2  0  0  0  0
 14 27  1  0  0  0  0
 15 29  1  0  0  0  0
 15 63  2  0  0  0  0
 16 30  2  0  0  0  0
 16 62  1  0  0  0  0
 17 28  1  0  0  0  0
 18 28  1  0  0  0  0
 18 31  2  0  0  0  0
 18 32  1  0  0  0  0
 19 21  2  0  0  0  0
 19 38  1  0  0  0  0
 20 22  2  0  0  0  0
 20 39  1  0  0  0  0
 21 47  1  0  0  0  0
 22 40  1  0  0  0  0
 23 81  1  0  0  0  0
 24 82  1  0  0  0  0
 25 27  2  0  0  0  0
 25 81  1  0  0  0  0
 26 83  1  0  0  0  0
 27 84  1  0  0  0  0
 28 64  2  0  0  0  0
 29 62  2  0  0  0  0
 29 70  1  0  0  0  0
 30 63  1  0  0  0  0
 30 71  1  0  0  0  0
 31 65  1  0  0  0  0
 31 68  1  0  0  0  0
 32 69  1  0  0  0  0
 32 75  2  0  0  0  0
 33 48  1  0  0  0  0
 33 72  1  0  0  0  0
 33 76  2  0  0  0  0
 34 58  1  0  0  0  0
 34 66  1  0  0  0  0
 34 77  2  0  0  0  0
 35 59  1  0  0  0  0
 35 70  1  0  0  0  0
 35 78  2  0  0  0  0
 36 60  1  0  0  0  0
 36 73  1  0  0  0  0
 36 79  2  0  0  0  0
 37 67  1  0  0  0  0
 37 71  1  0  0  0  0
 37 80  2  0  0  0  0
 38 41  1  0  0  0  0
 39 48  1  0  0  0  0
 40 66  1  0  0  0  0
 41 43  1  0  0  0  0
 42 44  1  0  0  0  0
 42 45  1  0  0  0  0
 43 47  1  0  0  0  0
 44 49  1  0  0  0  0
 45 67  1  0  0  0  0
 46 49  1  0  0  0  0
 46 67  1  0  0  0  0
 47 72  1  0  0  0  0
 48 66  1  0  0  0  0
 49 65  1  0  0  0  0
 50 59  1  0  0  0  0
 51 60  1  0  0  0  0
 52 61  1  0  0  0  0
 53 61  1  0  0  0  0
 54 61  1  0  0  0  0
 55 74  1  0  0  0  0
 56 57  1  0  0  0  0
 56 59  1  0  0  0  0
 57 82  1  0  0  0  0
 58 61  1  0  0  0  0
 58 73  1  0  0  0  0
 60 74  1  0  0  0  0
 64 65  1  0  0  0  0
M  CHG  1  74   1
M  ISO  4  37 100  57 101  71 100  82 101
M  END
> <Batch ID>
0190

> <Smiles>
CNC(C)C(=O)NC(C(=O)N1Cc2cc([101O:1][101CH2:1]CC(C)C(=O)Nc3cnc([100NH:0][100C:0](=O)N4CCCC(n5nc(-c6ccc(Oc7ccc(F)cc7F)cc6)c(C(N)=O)c5N)C4)cn3)ccc2CC1C(=O)NC1CCCc2ccccc21)C(C)(C)C

> <Shape>
0.253

> <Color>
0.060

> <Negative vol penalty>
0.000

$$$$

  -OEChem-04052305213D

 89 97  0     1  0  0  0  0  0999 V2000
  -30.9086  -23.4284   18.1949 C   0  0  0  0  0  0  0  0  0  0  0  0
  -29.5201  -23.4108   18.2802 C   0  0  0  0  0  0  0  0  0  0  0  0
  -25.2523  -11.3076   20.6681 C   0  0  0  0  0  0  0  0  0  0  0  0
  -25.5087  -12.1305   22.9251 C   0  0  0  0  0  0  0  0  0  0  0  0
  -31.6579  -24.0774   19.1753 C   0  0  0  0  0  0  0  0  0  0  0  0
  -28.8802  -24.0414   19.3466 C   0  0  0  0  0  0  0  0  0  0  0  0
  -23.4919  -26.9488   19.2079 C   0  0  0  0  0  0  0  0  0  0  0  0
  -25.3176   -9.9962   21.1388 C   0  0  0  0  0  0  0  0  0  0  0  0
  -25.5740  -10.8191   23.3958 C   0  0  0  0  0  0  0  0  0  0  0  0
  -22.2037  -26.5543   19.5664 C   0  0  0  0  0  0  0  0  0  0  0  0
  -23.2548   -7.7891   22.6574 C   0  0  0  0  0  0  0  0  0  0  0  0
  -22.3237   -6.8758   22.1630 C   0  0  0  0  0  0  0  0  0  0  0  0
  -22.4971  -27.5827   21.7287 C   0  0  0  0  0  0  0  0  0  0  0  0
  -23.7934  -22.3224   23.3972 C   0  0  0  0  0  0  0  0  0  0  0  0
  -24.1206   -5.5143   21.2941 C   0  0  0  0  0  0  0  0  0  0  0  0
  -25.3479  -12.3748   21.5612 C   0  0  0  0  0  0  0  0  0  0  0  0
  -24.1271  -14.5205   20.9185 C   0  0  0  0  0  0  0  0  0  0  0  0
  -31.0264  -24.7245   20.2491 C   0  0  0  0  0  0  0  0  0  0  0  0
  -24.2978  -27.6550   20.1125 C   0  0  0  0  0  0  0  0  0  0  0  0
  -29.6218  -24.6985   20.3430 C   0  0  0  0  0  0  0  0  0  0  0  0
  -23.7942  -27.9873   21.3783 C   0  0  0  0  0  0  0  0  0  0  0  0
  -25.1580  -21.9596   23.2064 C   0  0  0  0  0  0  0  0  0  0  0  0
  -25.4784   -9.7519   22.5026 C   0  0  0  0  0  0  0  0  0  0  0  0
  -21.7071  -26.8686   20.8280 C   0  0  0  0  0  0  0  0  0  0  0  0
  -24.6188   -7.5651   22.4702 C   0  0  0  0  0  0  0  0  0  0  0  0
  -22.7566   -5.7384   21.4814 C   0  0  0  0  0  0  0  0  0  0  0  0
  -25.0517   -6.4277   21.7886 C   0  0  0  0  0  0  0  0  0  0  0  0
  -25.2811  -13.7297   21.0755 C   0  0  0  0  0  0  0  0  0  0  0  0
  -25.5450  -22.0757   21.8895 C   0  0  0  0  0  0  0  0  0  0  0  0
  -24.5941  -15.7163   20.4303 C   0  0  0  0  0  0  0  0  0  0  0  0
  -23.1895  -22.7023   22.2187 C   0  0  0  0  0  0  0  0  0  0  0  0
  -22.7555  -14.2026   21.1897 C   0  0  0  0  0  0  0  0  0  0  0  0
  -27.0832  -27.1016   21.5403 C   0  0  0  0  0  0  0  0  0  0  0  0
  -26.7086  -30.1487   22.5878 C   0  0  0  0  0  0  0  0  0  0  0  0
  -20.8221  -23.2770   22.8598 C   0  0  0  0  0  0  0  0  0  0  0  0
  -24.5898  -32.7273   23.3011 C   0  0  0  0  0  0  0  0  0  0  0  0
  -28.2810  -19.9048   20.5252 C   0  0  0  0  0  0  0  0  0  0  0  0
  -31.8806  -25.3724   21.3100 C   0  0  0  0  0  0  0  0  0  0  0  0
  -25.6754  -28.0966   19.7008 C   0  0  0  0  0  0  0  0  0  0  0  0
  -24.6117  -28.7614   22.3787 C   0  0  0  0  0  0  0  0  0  0  0  0
  -31.1098  -26.3373   22.2072 C   0  0  0  0  0  0  0  0  0  0  0  0
  -29.1605  -16.9957   18.6703 C   0  0  0  0  0  0  0  0  0  0  0  0
  -29.7983  -25.7076   22.6660 C   0  0  0  0  0  0  0  0  0  0  0  0
  -28.1388  -15.9509   19.1224 C   0  0  0  0  0  0  0  0  0  0  0  0
  -29.5744  -17.9138   19.8182 C   0  0  0  0  0  0  0  0  0  0  0  0
  -27.4338  -17.5223   20.9751 C   0  0  0  0  0  0  0  0  0  0  0  0
  -28.8901  -25.3924   21.4714 C   0  0  1  0  0  0  0  0  0  0  0  0
  -26.5965  -28.3642   20.8871 C   0  0  1  0  0  0  0  0  0  0  0  0
  -26.9439  -16.6084   19.8388 C   0  0  2  0  0  0  0  0  0  0  0  0
  -18.4430  -22.7036   22.2604 C   0  0  0  0  0  0  0  0  0  0  0  0
  -24.5736  -35.0787   24.1775 C   0  0  0  0  0  0  0  0  0  0  0  0
  -17.8127  -25.6814   22.1051 C   0  0  0  0  0  0  0  0  0  0  0  0
  -27.1234  -29.0933   25.4204 C   0  0  0  0  0  0  0  0  0  0  0  0
  -26.1706  -31.2410   26.2854 C   0  0  0  0  0  0  0  0  0  0  0  0
  -28.2694  -31.2630   24.9373 C   0  0  0  0  0  0  0  0  0  0  0  0
  -23.4446  -33.7809   20.7838 C   0  0  0  0  0  0  0  0  0  0  0  0
  -26.8660  -21.7983   21.2811 C   0  0  0  0  0  0  0  0  0  0  0  0
  -20.2157  -26.2211   22.5636 C   0  0  0  0  0  0  0  0  0  1  0  0
  -26.0652  -30.7940   23.7913 C   0  0  1  0  0  0  0  0  0  0  0  0
  -19.5391  -23.7688   22.1699 C   0  0  1  0  0  0  0  0  0  0  0  0
  -24.6378  -34.2004   22.9376 C   0  0  2  0  0  0  0  0  0  0  0  0
  -19.1152  -25.1607   22.7220 C   0  0  2  0  0  0  0  0  0  0  0  0
  -26.0471  -21.5112   24.3044 C   0  0  0  0  0  0  0  0  0  0  0  0
  -26.8922  -30.5815   25.0907 C   0  0  0  0  0  0  0  0  0  0  0  0
  -26.3972  -14.3692   20.7161 N   0  0  0  0  0  0  0  0  0  0  0  0
  -25.9468  -15.5745   20.3283 N   0  0  0  0  0  0  0  0  0  0  0  0
  -25.9549  -29.1654   21.9314 N   0  0  0  0  0  0  0  0  0  0  0  0
  -28.3954  -18.5066   20.4541 N   0  0  0  0  0  0  0  0  0  0  0  0
  -23.9756  -16.8648   20.0826 N   0  0  0  0  0  0  0  0  0  0  0  0
  -22.4509  -12.9285   21.6880 N   0  0  0  0  0  0  0  0  0  0  0  0
  -21.8676  -23.1317   21.9523 N   0  0  0  0  0  0  0  0  0  0  0  0
  -28.2477  -26.5978   20.9929 N   0  0  0  0  0  0  0  0  0  0  0  0
  -25.8539  -32.1941   23.4398 N   0  0  0  0  0  0  0  0  0  0  0  0
  -27.1297  -20.3838   21.1381 N   0  0  0  0  0  0  0  0  0  0  0  0
  -23.4921  -34.5529   22.0521 N   0  3  0  0  0  0  0  0  0  0  0  0
  -21.8259  -15.0183   20.9804 O   0  0  0  0  0  0  0  0  0  0  0  0
  -26.4500  -26.6210   22.4729 O   0  0  0  0  0  0  0  0  0  0  0  0
  -27.8354  -30.5092   22.2384 O   0  0  0  0  0  0  0  0  0  0  0  0
  -20.8591  -23.0631   24.0684 O   0  0  0  0  0  0  0  0  0  0  0  0
  -23.5365  -32.1121   23.4510 O   0  0  0  0  0  0  0  0  0  0  0  0
  -29.1388  -20.6696   20.0709 O   0  0  0  0  0  0  0  0  0  0  0  0
  -25.5420   -8.4724   22.9623 O   0  0  0  0  0  0  0  0  0  0  0  0
  -20.4503  -26.4842   21.1808 O   0  0  0  0  0  0  0  0  0  1  0  0
  -21.8624   -4.8606   21.0080 F   0  0  0  0  0  0  0  0  0  0  0  0
  -26.3608   -6.2065   21.6066 F   0  0  0  0  0  0  0  0  0  0  0  0
  -25.4406  -21.4742   25.5319 F   0  0  0  0  0  0  0  0  0  0  0  0
  -26.5546  -20.2512   24.1294 F   0  0  0  0  0  0  0  0  0  0  0  0
  -27.1403  -22.3175   24.4697 F   0  0  0  0  0  0  0  0  0  0  0  0
  -24.2660  -22.6203   20.8896 S   0  0  0  0  0  0  0  0  0  0  0  0
  1  2  1  0  0  0  0
  1  5  2  0  0  0  0
  2  6  2  0  0  0  0
  3  8  2  0  0  0  0
  3 16  1  0  0  0  0
  4  9  1  0  0  0  0
  4 16  2  0  0  0  0
  5 18  1  0  0  0  0
  6 20  1  0  0  0  0
  7 10  2  0  0  0  0
  7 19  1  0  0  0  0
  8 23  1  0  0  0  0
  9 23  2  0  0  0  0
 10 24  1  0  0  0  0
 11 12  2  0  0  0  0
 11 25  1  0  0  0  0
 12 26  1  0  0  0  0
 13 21  1  0  0  0  0
 13 24  2  0  0  0  0
 14 22  1  0  0  0  0
 14 31  2  0  0  0  0
 15 26  2  0  0  0  0
 15 27  1  0  0  0  0
 16 28  1  0  0  0  0
 17 28  1  0  0  0  0
 17 30  2  0  0  0  0
 17 32  1  0  0  0  0
 18 20  2  0  0  0  0
 18 38  1  0  0  0  0
 19 21  2  0  0  0  0
 19 39  1  0  0  0  0
 20 47  1  0  0  0  0
 21 40  1  0  0  0  0
 22 29  2  0  0  0  0
 22 63  1  0  0  0  0
 23 82  1  0  0  0  0
 24 83  1  0  0  0  0
 25 27  2  0  0  0  0
 25 82  1  0  0  0  0
 26 84  1  0  0  0  0
 27 85  1  0  0  0  0
 28 65  2  0  0  0  0
 29 57  1  0  0  0  0
 29 89  1  0  0  0  0
 30 66  1  0  0  0  0
 30 69  1  0  0  0  0
 31 71  1  0  0  0  0
 31 89  1  0  0  0  0
 32 70  1  0  0  0  0
 32 76  2  0  0  0  0
 33 48  1  0  0  0  0
 33 72  1  0  0  0  0
 33 77  2  0  0  0  0
 34 59  1  0  0  0  0
 34 67  1  0  0  0  0
 34 78  2  0  0  0  0
 35 60  1  0  0  0  0
 35 71  1  0  0  0  0
 35 79  2  0  0  0  0
 36 61  1  0  0  0  0
 36 73  1  0  0  0  0
 36 80  2  0  0  0  0
 37 68  1  0  0  0  0
 37 74  1  0  0  0  0
 37 81  2  0  0  0  0
 38 41  1  0  0  0  0
 39 48  1  0  0  0  0
 40 67  1  0  0  0  0
 41 43  1  0  0  0  0
 42 44  1  0  0  0  0
 42 45  1  0  0  0  0
 43 47  1  0  0  0  0
 44 49  1  0  0  0  0
 45 68  1  0  0  0  0
 46 49  1  0  0  0  0
 46 68  1  0  0  0  0
 47 72  1  0  0  0  0
 48 67  1  0  0  0  0
 49 66  1  0  0  0  0
 50 60  1  0  0  0  0
 51 61  1  0  0  0  0
 52 62  1  0  0  0  0
 53 64  1  0  0  0  0
 54 64  1  0  0  0  0
 55 64  1  0  0  0  0
 56 75  1  0  0  0  0
 57 74  1  0  0  0  0
 58 62  1  0  0  0  0
 58 83  1  0  0  0  0
 59 64  1  0  0  0  0
 59 73  1  0  0  0  0
 60 62  1  0  0  0  0
 61 75  1  0  0  0  0
 63 86  1  0  0  0  0
 63 87  1  0  0  0  0
 63 88  1  0  0  0  0
 65 66  1  0  0  0  0
M  CHG  1  75   1
M  ISO  4  37 100  58 101  74 100  83 101
M  END
> <Batch ID>
0190

> <Smiles>
CNC(C)C(=O)NC(C(=O)N1Cc2cc([101O:1][101CH2:1]C(C)C(C)C(=O)Nc3cc(C(F)(F)F)c(C[100NH:0][100C:0](=O)N4CCCC(n5nc(-c6ccc(Oc7ccc(F)cc7F)cc6)c(C(N)=O)c5N)C4)s3)ccc2CC1C(=O)NC1CCCc2ccccc21)C(C)(C)C

> <Shape>
0.283

> <Color>
0.072

> <Negative vol penalty>
0.000

$$$$

  -OEChem-04052305213D

 87 95  0     1  0  0  0  0  0999 V2000
  -38.5389  -31.8318   25.3940 C   0  0  0  0  0  0  0  0  0  0  0  0
  -38.3765  -30.5456   24.8891 C   0  0  0  0  0  0  0  0  0  0  0  0
  -23.0004   -9.8939   19.9807 C   0  0  0  0  0  0  0  0  0  0  0  0
  -23.7254   -9.9443   22.2848 C   0  0  0  0  0  0  0  0  0  0  0  0
  -37.5217  -32.7730   25.2410 C   0  0  0  0  0  0  0  0  0  0  0  0
  -37.1964  -30.1996   24.2320 C   0  0  0  0  0  0  0  0  0  0  0  0
  -36.6099  -26.3661   19.4922 C   0  0  0  0  0  0  0  0  0  0  0  0
  -22.2337   -8.7595   20.2467 C   0  0  0  0  0  0  0  0  0  0  0  0
  -22.9587   -8.8098   22.5508 C   0  0  0  0  0  0  0  0  0  0  0  0
  -36.2365  -25.0253   19.4108 C   0  0  0  0  0  0  0  0  0  0  0  0
  -23.2027   -5.4710   22.0782 C   0  0  0  0  0  0  0  0  0  0  0  0
  -23.7900   -4.4536   22.8301 C   0  0  0  0  0  0  0  0  0  0  0  0
  -33.9713  -25.6922   18.9177 C   0  0  0  0  0  0  0  0  0  0  0  0
  -22.0660   -4.6963   24.5052 C   0  0  0  0  0  0  0  0  0  0  0  0
  -29.9568  -17.8173   22.6837 C   0  0  0  0  0  0  0  0  0  0  0  0
  -23.7463  -10.4864   20.9997 C   0  0  0  0  0  0  0  0  0  0  0  0
  -24.1319  -13.0019   20.8243 C   0  0  0  0  0  0  0  0  0  0  0  0
  -36.3324  -32.4412   24.5731 C   0  0  0  0  0  0  0  0  0  0  0  0
  -35.6628  -27.3817   19.2973 C   0  0  0  0  0  0  0  0  0  0  0  0
  -36.1618  -31.1369   24.0711 C   0  0  0  0  0  0  0  0  0  0  0  0
  -34.3357  -27.0451   18.9945 C   0  0  0  0  0  0  0  0  0  0  0  0
  -22.2128   -8.2174   21.5317 C   0  0  0  0  0  0  0  0  0  0  0  0
  -34.9165  -24.6881   19.1264 C   0  0  0  0  0  0  0  0  0  0  0  0
  -22.0470   -6.1012   22.5398 C   0  0  0  0  0  0  0  0  0  0  0  0
  -23.2217   -4.0662   24.0436 C   0  0  0  0  0  0  0  0  0  0  0  0
  -21.4787   -5.7138   23.7533 C   0  0  0  0  0  0  0  0  0  0  0  0
  -24.5389  -11.6579   20.7254 C   0  0  0  0  0  0  0  0  0  0  0  0
  -25.2418  -13.7245   20.4602 C   0  0  0  0  0  0  0  0  0  0  0  0
  -30.5953  -16.8849   21.9157 C   0  0  0  0  0  0  0  0  0  0  0  0
  -31.9787  -18.5870   22.2149 C   0  0  0  0  0  0  0  0  0  0  0  0
  -22.8640  -13.5484   21.2109 C   0  0  0  0  0  0  0  0  0  0  0  0
  -34.4916  -29.7307   21.0901 C   0  0  0  0  0  0  0  0  0  0  0  0
  -33.0041  -30.5688   18.3320 C   0  0  0  0  0  0  0  0  0  0  0  0
  -31.8117  -29.6183   15.2789 C   0  0  0  0  0  0  0  0  0  0  0  0
  -30.7213  -14.6848   20.6949 C   0  0  0  0  0  0  0  0  0  0  0  0
  -35.2420  -33.4785   24.4737 C   0  0  0  0  0  0  0  0  0  0  0  0
  -36.0872  -28.8233   19.3620 C   0  0  0  0  0  0  0  0  0  0  0  0
  -33.2850  -28.0977   18.7569 C   0  0  0  0  0  0  0  0  0  0  0  0
  -34.1742  -33.1422   23.4360 C   0  0  0  0  0  0  0  0  0  0  0  0
  -29.6030  -12.2327   18.3682 C   0  0  0  0  0  0  0  0  0  0  0  0
  -33.7337  -31.6884   23.5751 C   0  0  0  0  0  0  0  0  0  0  0  0
  -28.1523  -11.9751   18.7822 C   0  0  0  0  0  0  0  0  0  0  0  0
  -30.5034  -12.4757   19.5782 C   0  0  0  0  0  0  0  0  0  0  0  0
  -28.5880  -13.2644   20.9117 C   0  0  0  0  0  0  0  0  0  0  0  0
  -34.9062  -30.7308   23.3304 C   0  0  1  0  0  0  0  0  0  0  0  0
  -34.9305  -29.7742   19.6538 C   0  0  1  0  0  0  0  0  0  0  0  0
  -27.6304  -13.0785   19.7234 C   0  0  2  0  0  0  0  0  0  0  0  0
  -30.6124  -30.5163   13.2658 C   0  0  0  0  0  0  0  0  0  0  0  0
  -35.9516  -16.7014   20.2793 C   0  0  0  0  0  0  0  0  0  0  0  0
  -37.2020  -16.5186   22.4385 C   0  0  0  0  0  0  0  0  0  0  0  0
  -30.3779  -30.5362   19.8851 C   0  0  0  0  0  0  0  0  0  0  0  0
  -29.1643  -30.4922   17.6957 C   0  0  0  0  0  0  0  0  0  0  0  0
  -30.6152  -32.4365   18.2767 C   0  0  0  0  0  0  0  0  0  0  0  0
  -30.5625  -20.0683   23.6049 C   0  0  0  0  0  0  0  0  0  0  0  0
  -34.0841  -28.9766   13.4947 C   0  0  0  0  0  0  0  0  0  0  0  0
  -35.1392  -18.0142   22.2620 C   0  0  0  0  0  0  0  0  0  0  0  0
  -35.1454  -20.2487   21.0847 C   0  0  0  0  0  0  0  0  0  0  0  0
  -35.2752  -22.4525   19.8539 C   0  0  0  0  0  0  0  0  0  1  0  0
  -31.6861  -30.2250   17.6811 C   0  0  1  0  0  0  0  0  0  0  0  0
  -31.9655  -30.2357   13.9007 C   0  0  2  0  0  0  0  0  0  0  0  0
  -36.3821  -17.4494   21.5442 C   0  0  0  0  0  0  0  0  0  0  0  0
  -34.3091  -19.0017   21.4255 C   0  0  2  0  0  0  0  0  0  0  0  0
  -34.3915  -21.2587   20.2089 C   0  0  1  0  0  0  0  0  0  0  0  0
  -30.4800  -30.9024   18.3910 C   0  0  0  0  0  0  0  0  0  0  0  0
  -25.8082  -11.5314   20.3293 N   0  0  0  0  0  0  0  0  0  0  0  0
  -30.8362  -18.8594   22.8536 N   0  0  0  0  0  0  0  0  0  0  0  0
  -26.2083  -12.8051   20.1761 N   0  0  0  0  0  0  0  0  0  0  0  0
  -31.8441  -17.3875   21.6401 N   0  3  0  0  0  0  0  0  0  0  0  0
  -33.7479  -29.4930   18.8373 N   0  0  0  0  0  0  0  0  0  0  0  0
  -29.9484  -13.5365   20.4217 N   0  0  0  0  0  0  0  0  0  0  0  0
  -25.4754  -15.0502   20.3585 N   0  0  0  0  0  0  0  0  0  0  0  0
  -21.8320  -12.6643   21.5541 N   0  0  0  0  0  0  0  0  0  0  0  0
  -30.0771  -15.6399   21.4807 N   0  0  0  0  0  0  0  0  0  0  0  0
  -33.0964  -19.3841   22.1526 N   0  0  0  0  0  0  0  0  0  0  0  0
  -35.1714  -30.6084   21.9129 N   0  0  0  0  0  0  0  0  0  0  0  0
  -31.8234  -30.5753   16.2715 N   0  0  0  0  0  0  0  0  0  0  0  0
  -32.7243  -29.3186   13.0039 N   0  3  0  0  0  0  0  0  0  0  0  0
  -22.6474  -14.7837   21.2349 O   0  0  0  0  0  0  0  0  0  0  0  0
  -33.6011  -28.9590   21.4267 O   0  0  0  0  0  0  0  0  0  0  0  0
  -33.3638  -31.7476   18.3838 O   0  0  0  0  0  0  0  0  0  0  0  0
  -31.6894  -28.4083   15.4568 O   0  0  0  0  0  0  0  0  0  0  0  0
  -31.8601  -14.8237   20.2410 O   0  0  0  0  0  0  0  0  0  0  0  0
  -33.9680  -20.6275   19.0004 O   0  0  0  0  0  0  0  0  0  0  0  0
  -21.4646   -7.1106   21.7917 O   0  0  0  0  0  0  0  0  0  0  0  0
  -34.5469  -23.3718   19.0466 O   0  0  0  0  0  0  0  0  0  1  0  0
  -23.7850   -3.0880   24.7648 F   0  0  0  0  0  0  0  0  0  0  0  0
  -20.3678   -6.3146   24.2013 F   0  0  0  0  0  0  0  0  0  0  0  0
  1  2  1  0  0  0  0
  1  5  2  0  0  0  0
  2  6  2  0  0  0  0
  3  8  2  0  0  0  0
  3 16  1  0  0  0  0
  4  9  1  0  0  0  0
  4 16  2  0  0  0  0
  5 18  1  0  0  0  0
  6 20  1  0  0  0  0
  7 10  2  0  0  0  0
  7 19  1  0  0  0  0
  8 22  1  0  0  0  0
  9 22  2  0  0  0  0
 10 23  1  0  0  0  0
 11 12  2  0  0  0  0
 11 24  1  0  0  0  0
 12 25  1  0  0  0  0
 13 21  1  0  0  0  0
 13 23  2  0  0  0  0
 14 25  2  0  0  0  0
 14 26  1  0  0  0  0
 15 29  2  0  0  0  0
 15 66  1  0  0  0  0
 16 27  1  0  0  0  0
 17 27  1  0  0  0  0
 17 28  2  0  0  0  0
 17 31  1  0  0  0  0
 18 20  2  0  0  0  0
 18 36  1  0  0  0  0
 19 21  2  0  0  0  0
 19 37  1  0  0  0  0
 20 45  1  0  0  0  0
 21 38  1  0  0  0  0
 22 84  1  0  0  0  0
 23 85  1  0  0  0  0
 24 26  2  0  0  0  0
 24 84  1  0  0  0  0
 25 86  1  0  0  0  0
 26 87  1  0  0  0  0
 27 65  2  0  0  0  0
 28 67  1  0  0  0  0
 28 71  1  0  0  0  0
 29 68  1  0  0  0  0
 29 73  1  0  0  0  0
 30 66  1  0  0  0  0
 30 68  2  0  0  0  0
 30 74  1  0  0  0  0
 31 72  1  0  0  0  0
 31 78  2  0  0  0  0
 32 46  1  0  0  0  0
 32 75  1  0  0  0  0
 32 79  2  0  0  0  0
 33 59  1  0  0  0  0
 33 69  1  0  0  0  0
 33 80  2  0  0  0  0
 34 60  1  0  0  0  0
 34 76  1  0  0  0  0
 34 81  2  0  0  0  0
 35 70  1  0  0  0  0
 35 73  1  0  0  0  0
 35 82  2  0  0  0  0
 36 39  1  0  0  0  0
 37 46  1  0  0  0  0
 38 69  1  0  0  0  0
 39 41  1  0  0  0  0
 40 42  1  0  0  0  0
 40 43  1  0  0  0  0
 41 45  1  0  0  0  0
 42 47  1  0  0  0  0
 43 70  1  0  0  0  0
 44 47  1  0  0  0  0
 44 70  1  0  0  0  0
 45 75  1  0  0  0  0
 46 69  1  0  0  0  0
 47 67  1  0  0  0  0
 48 60  1  0  0  0  0
 49 61  1  0  0  0  0
 50 61  1  0  0  0  0
 51 64  1  0  0  0  0
 52 64  1  0  0  0  0
 53 64  1  0  0  0  0
 54 66  1  0  0  0  0
 55 77  1  0  0  0  0
 56 61  1  0  0  0  0
 56 62  1  0  0  0  0
 57 62  1  0  0  0  0
 57 63  1  0  0  0  0
 58 63  1  0  0  0  0
 58 85  1  0  0  0  0
 59 64  1  0  0  0  0
 59 76  1  0  0  0  0
 60 77  1  0  0  0  0
 62 74  1  0  0  0  0
 63 83  1  0  0  0  0
 65 67  1  0  0  0  0
M  CHG  2  68   1  77   1
M  ISO  4  35 100  58 101  73 100  85 101
M  END
> <Batch ID>
0190

> <Smiles>
CNC(C)C(=O)NC(C(=O)N1Cc2cc([101O:1][101CH2:1]C(O)CC(CC(C)C)Nc3nc([100NH:0][100C:0](=O)N4CCCC(n5nc(-c6ccc(Oc7ccc(F)cc7F)cc6)c(C(N)=O)c5N)C4)cn3C)ccc2CC1C(=O)NC1CCCc2ccccc21)C(C)(C)C

> <Shape>
0.174

> <Color>
0.182

> <Negative vol penalty>
0.000

$$$$

  -OEChem-04052305213D

 87 95  0     1  0  0  0  0  0999 V2000
  -24.4075  -35.9348   21.1381 C   0  0  0  0  0  0  0  0  0  0  0  0
  -25.0618  -34.8563   20.5515 C   0  0  0  0  0  0  0  0  0  0  0  0
  -26.5623  -12.3225   21.7583 C   0  0  0  0  0  0  0  0  0  0  0  0
  -25.8918  -13.7250   19.9089 C   0  0  0  0  0  0  0  0  0  0  0  0
  -24.4102  -36.0800   22.5248 C   0  0  0  0  0  0  0  0  0  0  0  0
  -25.7201  -33.9228   21.3513 C   0  0  0  0  0  0  0  0  0  0  0  0
  -24.7772  -29.1503   19.9444 C   0  0  0  0  0  0  0  0  0  0  0  0
  -25.2920  -11.7469   21.7824 C   0  0  0  0  0  0  0  0  0  0  0  0
  -24.6214  -13.1495   19.9329 C   0  0  0  0  0  0  0  0  0  0  0  0
  -25.4621  -28.6679   18.8300 C   0  0  0  0  0  0  0  0  0  0  0  0
  -22.3373   -9.6526   22.0965 C   0  0  0  0  0  0  0  0  0  0  0  0
  -22.2560   -8.2653   22.2160 C   0  0  0  0  0  0  0  0  0  0  0  0
  -27.0217  -27.5401   20.2844 C   0  0  0  0  0  0  0  0  0  0  0  0
  -23.5032   -8.0153   20.1619 C   0  0  0  0  0  0  0  0  0  0  0  0
  -28.9328  -21.3507   19.0276 C   0  0  0  0  0  0  0  0  0  0  0  0
  -26.8622  -13.3116   20.8215 C   0  0  0  0  0  0  0  0  0  0  0  0
  -29.2917  -13.4705   20.0601 C   0  0  0  0  0  0  0  0  0  0  0  0
  -25.0607  -35.1425   23.3425 C   0  0  0  0  0  0  0  0  0  0  0  0
  -25.2165  -28.8397   21.2394 C   0  0  0  0  0  0  0  0  0  0  0  0
  -25.7327  -34.0563   22.7501 C   0  0  0  0  0  0  0  0  0  0  0  0
  -26.3390  -28.0177   21.4135 C   0  0  0  0  0  0  0  0  0  0  0  0
  -24.3215  -12.1604   20.8697 C   0  0  0  0  0  0  0  0  0  0  0  0
  -26.5862  -27.8650   18.9999 C   0  0  0  0  0  0  0  0  0  0  0  0
  -23.0014  -10.2213   21.0096 C   0  0  0  0  0  0  0  0  0  0  0  0
  -22.8390   -7.4466   21.2488 C   0  0  0  0  0  0  0  0  0  0  0  0
  -23.5844   -9.4027   20.0424 C   0  0  0  0  0  0  0  0  0  0  0  0
  -28.1741  -13.9069   20.7965 C   0  0  0  0  0  0  0  0  0  0  0  0
  -29.5871  -21.3975   20.2417 C   0  0  0  0  0  0  0  0  0  0  0  0
  -28.9305  -22.5262   18.3049 C   0  0  0  0  0  0  0  0  0  0  0  0
  -30.2835  -14.3658   20.3784 C   0  0  0  0  0  0  0  0  0  0  0  0
  -30.1242  -23.5834   19.9250 C   0  0  0  0  0  0  0  0  0  0  0  0
  -29.4218  -12.3556   19.1680 C   0  0  0  0  0  0  0  0  0  0  0  0
  -30.7623  -24.7809   20.4065 C   0  0  0  0  0  0  0  0  0  0  0  0
  -26.2668  -30.5305   23.7177 C   0  0  0  0  0  0  0  0  0  0  0  0
  -26.1801  -27.6556   25.2177 C   0  0  0  0  0  0  0  0  0  0  0  0
  -26.2456  -24.2529   24.9653 C   0  0  0  0  0  0  0  0  0  0  0  0
  -30.2136  -20.0348   22.2658 C   0  0  0  0  0  0  0  0  0  0  0  0
  -25.0765  -35.3673   24.8338 C   0  0  0  0  0  0  0  0  0  0  0  0
  -24.4509  -29.3460   22.4310 C   0  0  0  0  0  0  0  0  0  0  0  0
  -26.8395  -27.6384   22.7825 C   0  0  0  0  0  0  0  0  0  0  0  0
  -25.4794  -34.1301   25.6320 C   0  0  0  0  0  0  0  0  0  0  0  0
  -31.7220  -17.2611   23.9114 C   0  0  0  0  0  0  0  0  0  0  0  0
  -26.7146  -33.4781   25.0189 C   0  0  0  0  0  0  0  0  0  0  0  0
  -31.0896  -16.0464   23.2282 C   0  0  0  0  0  0  0  0  0  0  0  0
  -30.7230  -18.4056   24.0717 C   0  0  0  0  0  0  0  0  0  0  0  0
  -29.4063  -17.5953   22.1537 C   0  0  0  0  0  0  0  0  0  0  0  0
  -26.4369  -33.0093   23.5855 C   0  0  1  0  0  0  0  0  0  0  0  0
  -25.2889  -29.3897   23.7051 C   0  0  1  0  0  0  0  0  0  0  0  0
  -30.3918  -16.4403   21.9116 C   0  0  2  0  0  0  0  0  0  0  0  0
  -26.1960  -22.1722   26.3674 C   0  0  0  0  0  0  0  0  0  0  0  0
  -25.7319  -23.9930   16.6882 C   0  0  0  0  0  0  0  0  0  0  0  0
  -27.9822  -23.2134   14.7789 C   0  0  0  0  0  0  0  0  0  0  0  0
  -29.0924  -28.1177   26.0020 C   0  0  0  0  0  0  0  0  0  0  0  0
  -29.2611  -25.6789   26.5423 C   0  0  0  0  0  0  0  0  0  0  0  0
  -27.6708  -27.1273   27.8056 C   0  0  0  0  0  0  0  0  0  0  0  0
  -23.7436  -23.3153   23.6925 C   0  0  0  0  0  0  0  0  0  0  0  0
  -27.1035  -26.0051   15.9426 C   0  0  0  0  0  0  0  0  0  0  0  0
  -26.4953  -27.1637   16.7293 C   0  0  0  0  0  0  0  0  0  1  0  0
  -27.1549  -26.5185   25.4066 C   0  0  1  0  0  0  0  0  0  0  0  0
  -25.3685  -23.1798   25.5846 C   0  0  2  0  0  0  0  0  0  0  0  0
  -27.1114  -24.6675   16.7128 C   0  0  2  0  0  0  0  0  0  0  0  0
  -28.1992  -23.6796   16.2167 C   0  0  1  0  0  0  0  0  0  0  0  0
  -28.2867  -26.8692   26.4132 C   0  0  0  0  0  0  0  0  0  0  0  0
  -28.4311  -14.9947   21.5277 N   0  0  0  0  0  0  0  0  0  0  0  0
  -30.1959  -22.5011   20.7230 N   0  0  0  0  0  0  0  0  0  0  0  0
  -29.5184  -23.6656   18.7251 N   0  0  0  0  0  0  0  0  0  0  0  0
  -29.7216  -15.2494   21.2523 N   0  0  0  0  0  0  0  0  0  0  0  0
  -26.0607  -28.1634   23.9163 N   0  0  0  0  0  0  0  0  0  0  0  0
  -30.1049  -18.7268   22.7835 N   0  0  0  0  0  0  0  0  0  0  0  0
  -31.5727  -14.4755   19.9932 N   0  0  0  0  0  0  0  0  0  0  0  0
  -28.3041  -11.5375   18.9537 N   0  0  0  0  0  0  0  0  0  0  0  0
  -31.3922  -24.7930   21.5969 N   0  0  0  0  0  0  0  0  0  0  0  0
  -29.6147  -20.2132   21.0192 N   0  0  0  0  0  0  0  0  0  0  0  0
  -28.2843  -22.5206   17.0825 N   0  0  0  0  0  0  0  0  0  0  0  0
  -25.6803  -31.7756   23.5949 N   0  0  0  0  0  0  0  0  0  0  0  0
  -26.3580  -25.3563   25.7845 N   0  0  0  0  0  0  0  0  0  0  0  0
  -30.7432  -25.9116   19.6750 N   0  3  0  0  0  0  0  0  0  0  0  0
  -24.6176  -22.4491   24.5248 N   0  3  0  0  0  0  0  0  0  0  0  0
  -30.5018  -12.0831   18.5911 O   0  0  0  0  0  0  0  0  0  0  0  0
  -27.4646  -30.2982   23.8319 O   0  0  0  0  0  0  0  0  0  0  0  0
  -25.5426  -28.0731   26.1878 O   0  0  0  0  0  0  0  0  0  0  0  0
  -26.7808  -24.1236   23.8665 O   0  0  0  0  0  0  0  0  0  0  0  0
  -30.8186  -20.9238   22.8705 O   0  0  0  0  0  0  0  0  0  0  0  0
  -23.0819  -11.5988   20.8928 O   0  0  0  0  0  0  0  0  0  0  0  0
  -27.2570  -27.3933   17.9139 O   0  0  0  0  0  0  0  0  0  1  0  0
  -22.7622   -6.1144   21.3645 F   0  0  0  0  0  0  0  0  0  0  0  0
  -24.2248   -9.9432   18.9967 F   0  0  0  0  0  0  0  0  0  0  0  0
  1  2  1  0  0  0  0
  1  5  2  0  0  0  0
  2  6  2  0  0  0  0
  3  8  2  0  0  0  0
  3 16  1  0  0  0  0
  4  9  1  0  0  0  0
  4 16  2  0  0  0  0
  5 18  1  0  0  0  0
  6 20  1  0  0  0  0
  7 10  2  0  0  0  0
  7 19  1  0  0  0  0
  8 22  1  0  0  0  0
  9 22  2  0  0  0  0
 10 23  1  0  0  0  0
 11 12  2  0  0  0  0
 11 24  1  0  0  0  0
 12 25  1  0  0  0  0
 13 21  1  0  0  0  0
 13 23  2  0  0  0  0
 14 25  2  0  0  0  0
 14 26  1  0  0  0  0
 15 28  2  0  0  0  0
 15 29  1  0  0  0  0
 16 27  1  0  0  0  0
 17 27  1  0  0  0  0
 17 30  2  0  0  0  0
 17 32  1  0  0  0  0
 18 20  2  0  0  0  0
 18 38  1  0  0  0  0
 19 21  2  0  0  0  0
 19 39  1  0  0  0  0
 20 47  1  0  0  0  0
 21 40  1  0  0  0  0
 22 84  1  0  0  0  0
 23 85  1  0  0  0  0
 24 26  2  0  0  0  0
 24 84  1  0  0  0  0
 25 86  1  0  0  0  0
 26 87  1  0  0  0  0
 27 64  2  0  0  0  0
 28 65  1  0  0  0  0
 28 73  1  0  0  0  0
 29 66  2  0  0  0  0
 29 74  1  0  0  0  0
 30 67  1  0  0  0  0
 30 70  1  0  0  0  0
 31 33  1  0  0  0  0
 31 65  2  0  0  0  0
 31 66  1  0  0  0  0
 32 71  1  0  0  0  0
 32 79  2  0  0  0  0
 33 72  1  0  0  0  0
 33 77  2  0  0  0  0
 34 48  1  0  0  0  0
 34 75  1  0  0  0  0
 34 80  2  0  0  0  0
 35 59  1  0  0  0  0
 35 68  1  0  0  0  0
 35 81  2  0  0  0  0
 36 60  1  0  0  0  0
 36 76  1  0  0  0  0
 36 82  2  0  0  0  0
 37 69  1  0  0  0  0
 37 73  1  0  0  0  0
 37 83  2  0  0  0  0
 38 41  1  0  0  0  0
 39 48  1  0  0  0  0
 40 68  1  0  0  0  0
 41 43  1  0  0  0  0
 42 44  1  0  0  0  0
 42 45  1  0  0  0  0
 43 47  1  0  0  0  0
 44 49  1  0  0  0  0
 45 69  1  0  0  0  0
 46 49  1  0  0  0  0
 46 69  1  0  0  0  0
 47 75  1  0  0  0  0
 48 68  1  0  0  0  0
 49 67  1  0  0  0  0
 50 60  1  0  0  0  0
 51 61  1  0  0  0  0
 52 62  1  0  0  0  0
 53 63  1  0  0  0  0
 54 63  1  0  0  0  0
 55 63  1  0  0  0  0
 56 78  1  0  0  0  0
 57 58  1  0  0  0  0
 57 61  1  0  0  0  0
 58 85  1  0  0  0  0
 59 63  1  0  0  0  0
 59 76  1  0  0  0  0
 60 78  1  0  0  0  0
 61 62  1  0  0  0  0
 62 74  1  0  0  0  0
 64 67  1  0  0  0  0
M  CHG  2  77   1  78   1
M  ISO  4  37 100  58 101  73 100  85 101
M  END
> <Batch ID>
0190

> <Smiles>
CNC(C)C(=O)NC(C(=O)N1Cc2cc([101O:1][101CH2:1]CC(C)C(C)Nc3cc([100NH:0][100C:0](=O)N4CCCC(n5nc(-c6ccc(Oc7ccc(F)cc7F)cc6)c(C(N)=O)c5N)C4)nc(C(=N)N)n3)ccc2CC1C(=O)NC1CCCc2ccccc21)C(C)(C)C

> <Shape>
0.287

> <Color>
0.071

> <Negative vol penalty>
0.000

$$$$

  -OEChem-04052305213D

 86 94  0     1  0  0  0  0  0999 V2000
  -27.0668  -34.7931   24.4517 C   0  0  0  0  0  0  0  0  0  0  0  0
  -27.4175  -33.5080   24.0505 C   0  0  0  0  0  0  0  0  0  0  0  0
  -27.9631  -12.6481   20.4895 C   0  0  0  0  0  0  0  0  0  0  0  0
  -29.4694  -14.1154   19.2998 C   0  0  0  0  0  0  0  0  0  0  0  0
  -25.7620  -35.0620   24.8629 C   0  0  0  0  0  0  0  0  0  0  0  0
  -26.4638  -32.4908   24.0614 C   0  0  0  0  0  0  0  0  0  0  0  0
  -26.5856  -29.6686   19.8584 C   0  0  0  0  0  0  0  0  0  0  0  0
  -28.4904  -11.5525   19.8060 C   0  0  0  0  0  0  0  0  0  0  0  0
  -29.9967  -13.0198   18.6163 C   0  0  0  0  0  0  0  0  0  0  0  0
  -27.5949  -28.7114   19.7632 C   0  0  0  0  0  0  0  0  0  0  0  0
  -32.1943  -10.5265   19.2285 C   0  0  0  0  0  0  0  0  0  0  0  0
  -33.5817  -10.4446   19.1108 C   0  0  0  0  0  0  0  0  0  0  0  0
  -26.0267  -27.0010   20.4223 C   0  0  0  0  0  0  0  0  0  0  0  0
  -33.3798  -10.4849   16.7036 C   0  0  0  0  0  0  0  0  0  0  0  0
  -27.1180  -23.8252   23.7621 C   0  0  0  0  0  0  0  0  0  0  0  0
  -28.4525  -13.9295   20.2364 C   0  0  0  0  0  0  0  0  0  0  0  0
  -28.3541  -15.5960   22.1653 C   0  0  0  0  0  0  0  0  0  0  0  0
  -24.7894  -34.0498   24.8696 C   0  0  0  0  0  0  0  0  0  0  0  0
  -25.2898  -29.3002   20.2475 C   0  0  0  0  0  0  0  0  0  0  0  0
  -25.1451  -32.7461   24.4743 C   0  0  0  0  0  0  0  0  0  0  0  0
  -25.0022  -27.9550   20.5192 C   0  0  0  0  0  0  0  0  0  0  0  0
  -29.5073  -11.7383   18.8694 C   0  0  0  0  0  0  0  0  0  0  0  0
  -27.3162  -27.3779   20.0479 C   0  0  0  0  0  0  0  0  0  0  0  0
  -31.3995  -10.5874   18.0838 C   0  0  0  0  0  0  0  0  0  0  0  0
  -34.1745  -10.4238   17.8483 C   0  0  0  0  0  0  0  0  0  0  0  0
  -31.9923  -10.5667   16.8213 C   0  0  0  0  0  0  0  0  0  0  0  0
  -27.9078  -15.0617   20.9417 C   0  0  0  0  0  0  0  0  0  0  0  0
  -26.9886  -23.7955   22.3893 C   0  0  0  0  0  0  0  0  0  0  0  0
  -27.5129  -16.6551   22.4047 C   0  0  0  0  0  0  0  0  0  0  0  0
  -28.9207  -24.8254   22.5161 C   0  0  0  0  0  0  0  0  0  0  0  0
  -29.4327  -15.1729   23.0099 C   0  0  0  0  0  0  0  0  0  0  0  0
  -23.3849  -30.0353   22.6837 C   0  0  0  0  0  0  0  0  0  0  0  0
  -24.8335  -21.2000   20.5462 C   0  0  0  0  0  0  0  0  0  0  0  0
  -21.2241  -28.2821   21.0166 C   0  0  0  0  0  0  0  0  0  0  0  0
  -20.6392  -25.8393   18.7063 C   0  0  0  0  0  0  0  0  0  0  0  0
  -23.4039  -34.3776   25.3673 C   0  0  0  0  0  0  0  0  0  0  0  0
  -24.2058  -30.3405   20.3195 C   0  0  0  0  0  0  0  0  0  0  0  0
  -23.6224  -27.5046   20.9214 C   0  0  0  0  0  0  0  0  0  0  0  0
  -22.3586  -33.3300   24.9931 C   0  0  0  0  0  0  0  0  0  0  0  0
  -23.2111  -18.0304   20.1439 C   0  0  0  0  0  0  0  0  0  0  0  0
  -22.8820  -31.9267   25.2821 C   0  0  0  0  0  0  0  0  0  0  0  0
  -24.3318  -17.0202   20.3863 C   0  0  0  0  0  0  0  0  0  0  0  0
  -23.7297  -19.2821   19.4428 C   0  0  0  0  0  0  0  0  0  0  0  0
  -25.9885  -18.9386   20.3923 C   0  0  0  0  0  0  0  0  0  0  0  0
  -24.1325  -31.6218   24.4487 C   0  0  1  0  0  0  0  0  0  0  0  0
  -23.0461  -29.9334   21.2234 C   0  0  1  0  0  0  0  0  0  0  0  0
  -25.5133  -17.6722   21.1262 C   0  0  2  0  0  0  0  0  0  0  0  0
  -18.7704  -24.5998   17.5800 C   0  0  0  0  0  0  0  0  0  0  0  0
  -34.7085  -24.9732   19.3681 C   0  0  0  0  0  0  0  0  0  0  0  0
  -34.9417  -23.4246   21.3186 C   0  0  0  0  0  0  0  0  0  0  0  0
  -32.4715  -27.1739   21.3782 C   0  0  0  0  0  0  0  0  0  0  0  0
  -20.7921  -26.6366   23.5495 C   0  0  0  0  0  0  0  0  0  0  0  0
  -19.6847  -24.8879   22.1411 C   0  0  0  0  0  0  0  0  0  0  0  0
  -18.7019  -27.1761   22.2869 C   0  0  0  0  0  0  0  0  0  0  0  0
  -21.4570  -26.8037   16.0305 C   0  0  0  0  0  0  0  0  0  0  0  0
  -25.8582  -23.2090   21.6422 C   0  0  0  0  0  0  0  0  0  0  0  0
  -26.0381  -21.7208   21.2890 C   0  0  0  0  0  0  0  0  0  0  0  0
  -32.7775  -24.6660   21.0160 C   0  0  0  0  0  0  0  0  0  0  0  0
  -29.6346  -26.8763   20.2197 C   0  0  0  0  0  0  0  0  0  1  0  0
  -20.8342  -26.8243   20.9748 C   0  0  1  0  0  0  0  0  0  0  0  0
  -19.7134  -25.7905   17.5043 C   0  0  2  0  0  0  0  0  0  0  0  0
  -34.3078  -24.7287   20.8232 C   0  0  0  0  0  0  0  0  0  0  0  0
  -31.9867  -25.9361   20.6131 C   0  0  1  0  0  0  0  0  0  0  0  0
  -30.4573  -25.6989   20.7550 C   0  0  1  0  0  0  0  0  0  0  0  0
  -20.0298  -26.3897   22.2324 C   0  0  0  0  0  0  0  0  0  0  0  0
  -26.8641  -15.7264   20.4390 N   0  0  0  0  0  0  0  0  0  0  0  0
  -28.0211  -24.3690   21.6732 N   0  0  0  0  0  0  0  0  0  0  0  0
  -26.6474  -16.6892   21.3512 N   0  0  0  0  0  0  0  0  0  0  0  0
  -22.5979  -28.5601   20.9838 N   0  0  0  0  0  0  0  0  0  0  0  0
  -24.8655  -19.8587   20.1643 N   0  0  0  0  0  0  0  0  0  0  0  0
  -27.4365  -17.5511   23.4116 N   0  0  0  0  0  0  0  0  0  0  0  0
  -30.1967  -14.0666   22.6143 N   0  0  0  0  0  0  0  0  0  0  0  0
  -30.0870  -25.4612   22.1399 N   0  0  0  0  0  0  0  0  0  0  0  0
  -23.7658  -31.3013   23.0858 N   0  0  0  0  0  0  0  0  0  0  0  0
  -20.1258  -26.6271   19.7148 N   0  0  0  0  0  0  0  0  0  0  0  0
  -20.5040  -25.6845   16.2455 N   0  3  0  0  0  0  0  0  0  0  0  0
  -29.7003  -15.7485   24.0919 O   0  0  0  0  0  0  0  0  0  0  0  0
  -23.3052  -29.0395   23.3933 O   0  0  0  0  0  0  0  0  0  0  0  0
  -23.8919  -21.9632   20.3159 O   0  0  0  0  0  0  0  0  0  0  0  0
  -20.3419  -29.1427   21.0689 O   0  0  0  0  0  0  0  0  0  0  0  0
  -21.7090  -25.2356   18.7481 O   0  0  0  0  0  0  0  0  0  0  0  0
  -30.0222  -10.6694   18.2024 O   0  0  0  0  0  0  0  0  0  0  0  0
  -28.3057  -26.4360   19.9558 O   0  0  0  0  0  0  0  0  0  1  0  0
  -35.5069  -10.3468   17.7354 F   0  0  0  0  0  0  0  0  0  0  0  0
  -31.2341  -10.6262   15.7180 F   0  0  0  0  0  0  0  0  0  0  0  0
  -28.5894  -24.5984   24.1846 S   0  0  0  0  0  0  0  0  0  0  0  0
  1  2  1  0  0  0  0
  1  5  2  0  0  0  0
  2  6  2  0  0  0  0
  3  8  2  0  0  0  0
  3 16  1  0  0  0  0
  4  9  1  0  0  0  0
  4 16  2  0  0  0  0
  5 18  1  0  0  0  0
  6 20  1  0  0  0  0
  7 10  2  0  0  0  0
  7 19  1  0  0  0  0
  8 22  1  0  0  0  0
  9 22  2  0  0  0  0
 10 23  1  0  0  0  0
 11 12  2  0  0  0  0
 11 24  1  0  0  0  0
 12 25  1  0  0  0  0
 13 21  1  0  0  0  0
 13 23  2  0  0  0  0
 14 25  2  0  0  0  0
 14 26  1  0  0  0  0
 15 28  2  0  0  0  0
 15 86  1  0  0  0  0
 16 27  1  0  0  0  0
 17 27  1  0  0  0  0
 17 29  2  0  0  0  0
 17 31  1  0  0  0  0
 18 20  2  0  0  0  0
 18 36  1  0  0  0  0
 19 21  2  0  0  0  0
 19 37  1  0  0  0  0
 20 45  1  0  0  0  0
 21 38  1  0  0  0  0
 22 82  1  0  0  0  0
 23 83  1  0  0  0  0
 24 26  2  0  0  0  0
 24 82  1  0  0  0  0
 25 84  1  0  0  0  0
 26 85  1  0  0  0  0
 27 66  2  0  0  0  0
 28 56  1  0  0  0  0
 28 67  1  0  0  0  0
 29 68  1  0  0  0  0
 29 71  1  0  0  0  0
 30 67  2  0  0  0  0
 30 73  1  0  0  0  0
 30 86  1  0  0  0  0
 31 72  1  0  0  0  0
 31 77  2  0  0  0  0
 32 46  1  0  0  0  0
 32 74  1  0  0  0  0
 32 78  2  0  0  0  0
 33 57  1  0  0  0  0
 33 70  1  0  0  0  0
 33 79  2  0  0  0  0
 34 60  1  0  0  0  0
 34 69  1  0  0  0  0
 34 80  2  0  0  0  0
 35 61  1  0  0  0  0
 35 75  1  0  0  0  0
 35 81  2  0  0  0  0
 36 39  1  0  0  0  0
 37 46  1  0  0  0  0
 38 69  1  0  0  0  0
 39 41  1  0  0  0  0
 40 42  1  0  0  0  0
 40 43  1  0  0  0  0
 41 45  1  0  0  0  0
 42 47  1  0  0  0  0
 43 70  1  0  0  0  0
 44 47  1  0  0  0  0
 44 70  1  0  0  0  0
 45 74  1  0  0  0  0
 46 69  1  0  0  0  0
 47 68  1  0  0  0  0
 48 61  1  0  0  0  0
 49 62  1  0  0  0  0
 50 62  1  0  0  0  0
 51 63  1  0  0  0  0
 52 65  1  0  0  0  0
 53 65  1  0  0  0  0
 54 65  1  0  0  0  0
 55 76  1  0  0  0  0
 56 57  1  0  0  0  0
 58 62  1  0  0  0  0
 58 63  1  0  0  0  0
 59 64  1  0  0  0  0
 59 83  1  0  0  0  0
 60 65  1  0  0  0  0
 60 75  1  0  0  0  0
 61 76  1  0  0  0  0
 63 64  1  0  0  0  0
 64 73  1  0  0  0  0
 66 68  1  0  0  0  0
M  CHG  1  76   1
M  ISO  4  33 100  57 100  59 101  83 101
M  END
> <Batch ID>
0190

> <Smiles>
CNC(C)C(=O)NC(C(=O)N1Cc2cc([101O:1][101CH2:1]C(Nc3nc(C[100CH2:0][100C:0](=O)N4CCCC(n5nc(-c6ccc(Oc7ccc(F)cc7F)cc6)c(C(N)=O)c5N)C4)cs3)C(C)CC(C)C)ccc2CC1C(=O)NC1CCCc2ccccc21)C(C)(C)C

> <Shape>
0.218

> <Color>
0.075

> <Negative vol penalty>
0.000

$$$$

  -OEChem-04052305213D

 91 99  0     1  0  0  0  0  0999 V2000
  -27.9831  -31.5750   26.6815 C   0  0  0  0  0  0  0  0  0  0  0  0
  -28.4111  -30.5047   25.9025 C   0  0  0  0  0  0  0  0  0  0  0  0
  -23.9742  -11.2915   19.8619 C   0  0  0  0  0  0  0  0  0  0  0  0
  -25.2062  -11.7340   21.8925 C   0  0  0  0  0  0  0  0  0  0  0  0
  -26.6244  -31.8768   26.7631 C   0  0  0  0  0  0  0  0  0  0  0  0
  -27.4804  -29.7349   25.2056 C   0  0  0  0  0  0  0  0  0  0  0  0
  -28.9281  -28.7716   20.4494 C   0  0  0  0  0  0  0  0  0  0  0  0
  -24.0913   -9.9204   20.0896 C   0  0  0  0  0  0  0  0  0  0  0  0
  -25.3233  -10.3628   22.1203 C   0  0  0  0  0  0  0  0  0  0  0  0
  -29.8825  -27.7722   20.2644 C   0  0  0  0  0  0  0  0  0  0  0  0
  -22.7670   -6.9704   21.5358 C   0  0  0  0  0  0  0  0  0  0  0  0
  -21.7629   -6.3495   22.2786 C   0  0  0  0  0  0  0  0  0  0  0  0
  -28.1353  -26.2251   19.6537 C   0  0  0  0  0  0  0  0  0  0  0  0
  -22.9933   -6.7905   24.3105 C   0  0  0  0  0  0  0  0  0  0  0  0
  -28.2824  -22.7665   16.7124 C   0  0  0  0  0  0  0  0  0  0  0  0
  -24.5317  -12.1983   20.7633 C   0  0  0  0  0  0  0  0  0  0  0  0
  -23.3800  -14.4652   20.9692 C   0  0  0  0  0  0  0  0  0  0  0  0
  -25.6774  -31.1163   26.0592 C   0  0  0  0  0  0  0  0  0  0  0  0
  -27.5668  -28.5018   20.2482 C   0  0  0  0  0  0  0  0  0  0  0  0
  -26.1076  -30.0260   25.2790 C   0  0  0  0  0  0  0  0  0  0  0  0
  -27.1659  -27.2235   19.8343 C   0  0  0  0  0  0  0  0  0  0  0  0
  -24.7658   -9.4560   21.2188 C   0  0  0  0  0  0  0  0  0  0  0  0
  -29.4859  -26.4980   19.8693 C   0  0  0  0  0  0  0  0  0  0  0  0
  -23.8843   -7.5013   22.1803 C   0  0  0  0  0  0  0  0  0  0  0  0
  -21.8760   -6.2596   23.6660 C   0  0  0  0  0  0  0  0  0  0  0  0
  -23.9975   -7.4114   23.5676 C   0  0  0  0  0  0  0  0  0  0  0  0
  -24.4116  -13.6148   20.5283 C   0  0  0  0  0  0  0  0  0  0  0  0
  -28.6622  -22.6819   18.0356 C   0  0  0  0  0  0  0  0  0  0  0  0
  -23.7277  -15.7042   20.4892 C   0  0  0  0  0  0  0  0  0  0  0  0
  -30.3411  -23.8778   17.2864 C   0  0  0  0  0  0  0  0  0  0  0  0
  -22.2119  -14.1622   21.7434 C   0  0  0  0  0  0  0  0  0  0  0  0
  -24.9753  -28.5462   22.0882 C   0  0  0  0  0  0  0  0  0  0  0  0
  -23.4519  -27.9544   19.2862 C   0  0  0  0  0  0  0  0  0  0  0  0
  -27.1827  -21.1443   22.2708 C   0  0  0  0  0  0  0  0  0  0  0  0
  -23.6084  -26.7233   16.1071 C   0  0  0  0  0  0  0  0  0  0  0  0
  -27.2706  -19.6545   19.5926 C   0  0  0  0  0  0  0  0  0  0  0  0
  -24.2154  -31.4516   26.2160 C   0  0  0  0  0  0  0  0  0  0  0  0
  -26.5523  -29.5979   20.4261 C   0  0  0  0  0  0  0  0  0  0  0  0
  -25.7188  -26.8881   19.5853 C   0  0  0  0  0  0  0  0  0  0  0  0
  -23.3271  -30.8176   25.1486 C   0  0  0  0  0  0  0  0  0  0  0  0
  -27.2705  -17.0865   17.1682 C   0  0  0  0  0  0  0  0  0  0  0  0
  -23.6820  -29.3456   24.9640 C   0  0  0  0  0  0  0  0  0  0  0  0
  -26.4436  -16.0092   17.8686 C   0  0  0  0  0  0  0  0  0  0  0  0
  -28.2150  -17.8045   18.1341 C   0  0  0  0  0  0  0  0  0  0  0  0
  -26.7129  -17.2817   20.0296 C   0  0  0  0  0  0  0  0  0  0  0  0
  -25.1308  -29.1828   24.4885 C   0  0  1  0  0  0  0  0  0  0  0  0
  -25.1449  -29.0722   20.6910 C   0  0  1  0  0  0  0  0  0  0  0  0
  -25.7128  -16.5861   19.0934 C   0  0  2  0  0  0  0  0  0  0  0  0
  -26.0220  -20.9148   23.2060 C   0  0  0  0  0  0  0  0  0  0  0  0
  -22.1926  -26.3413   14.0707 C   0  0  0  0  0  0  0  0  0  0  0  0
  -34.7024  -22.8445   17.9367 C   0  0  0  0  0  0  0  0  0  0  0  0
  -35.8936  -24.6972   16.7502 C   0  0  0  0  0  0  0  0  0  0  0  0
  -22.1454  -25.5563   20.6473 C   0  0  0  0  0  0  0  0  0  0  0  0
  -21.5266  -24.6947   18.3796 C   0  0  0  0  0  0  0  0  0  0  0  0
  -20.6185  -26.8785   19.1726 C   0  0  0  0  0  0  0  0  0  0  0  0
  -25.9339  -23.1778   21.4823 C   0  0  0  0  0  0  0  0  0  0  0  0
  -29.6634  -20.2390   19.0112 C   0  0  0  0  0  0  0  0  0  0  0  0
  -25.3064  -28.4942   14.4519 C   0  0  0  0  0  0  0  0  0  0  0  0
  -33.7690  -25.2220   17.9872 C   0  0  0  0  0  0  0  0  0  0  0  0
  -28.1243  -22.6182   20.4985 C   0  0  0  0  0  0  0  0  0  0  0  0
  -31.7163  -25.9307   19.2696 C   0  0  0  0  0  0  0  0  0  1  0  0
  -27.9199  -21.9819   19.1027 C   0  0  2  0  0  0  0  0  0  0  0  0
  -23.0569  -26.7115   18.5258 C   0  0  1  0  0  0  0  0  0  0  0  0
  -23.1401  -27.2953   14.7812 C   0  0  2  0  0  0  0  0  0  0  0  0
  -34.5239  -24.1539   17.1672 C   0  0  0  0  0  0  0  0  0  0  0  0
  -32.3500  -24.8242   18.4240 C   0  0  1  0  0  0  0  0  0  0  0  0
  -21.8640  -25.9657   19.1878 C   0  0  0  0  0  0  0  0  0  0  0  0
  -25.3447  -14.2591   19.8224 N   0  0  0  0  0  0  0  0  0  0  0  0
  -29.8426  -23.3183   18.3665 N   0  0  0  0  0  0  0  0  0  0  0  0
  -24.9006  -15.5275   19.8160 N   0  0  0  0  0  0  0  0  0  0  0  0
  -24.7640  -27.9919   19.7789 N   0  0  0  0  0  0  0  0  0  0  0  0
  -27.4855  -18.2975   19.3104 N   0  0  0  0  0  0  0  0  0  0  0  0
  -23.1415  -16.9168   20.5815 N   0  0  0  0  0  0  0  0  0  0  0  0
  -22.0079  -12.8380   22.1548 N   0  0  0  0  0  0  0  0  0  0  0  0
  -31.5201  -24.5985   17.2564 N   0  0  0  0  0  0  0  0  0  0  0  0
  -25.2350  -29.4775   23.0755 N   0  0  0  0  0  0  0  0  0  0  0  0
  -22.8085  -27.1351   17.1520 N   0  0  0  0  0  0  0  0  0  0  0  0
  -27.0899  -22.2766   21.4400 N   0  0  0  0  0  0  0  0  0  0  0  0
  -28.2456  -20.5637   19.1553 N   0  0  0  0  0  0  0  0  0  0  0  0
  -24.3048  -27.5531   13.8880 N   0  3  0  0  0  0  0  0  0  0  0  0
  -21.3654  -15.0367   22.0470 O   0  0  0  0  0  0  0  0  0  0  0  0
  -24.6327  -27.3819   22.2580 O   0  0  0  0  0  0  0  0  0  0  0  0
  -22.6288  -28.8616   19.4314 O   0  0  0  0  0  0  0  0  0  0  0  0
  -28.1285  -20.3519   22.2795 O   0  0  0  0  0  0  0  0  0  0  0  0
  -24.5838  -25.9821   16.2054 O   0  0  0  0  0  0  0  0  0  0  0  0
  -26.2665  -20.0340   20.2089 O   0  0  0  0  0  0  0  0  0  0  0  0
  -24.8800   -8.1181   21.4415 O   0  0  0  0  0  0  0  0  0  0  0  0
  -30.4153  -25.5205   19.6886 O   0  0  0  0  0  0  0  0  0  1  0  0
  -20.9109   -5.6647   24.3793 F   0  0  0  0  0  0  0  0  0  0  0  0
  -25.0680   -7.9207   24.1925 F   0  0  0  0  0  0  0  0  0  0  0  0
  -29.4420  -23.6790   15.8383 S   0  0  0  0  0  0  0  0  0  0  0  0
  1  2  1  0  0  0  0
  1  5  2  0  0  0  0
  2  6  2  0  0  0  0
  3  8  2  0  0  0  0
  3 16  1  0  0  0  0
  4  9  1  0  0  0  0
  4 16  2  0  0  0  0
  5 18  1  0  0  0  0
  6 20  1  0  0  0  0
  7 10  2  0  0  0  0
  7 19  1  0  0  0  0
  8 22  1  0  0  0  0
  9 22  2  0  0  0  0
 10 23  1  0  0  0  0
 11 12  2  0  0  0  0
 11 24  1  0  0  0  0
 12 25  1  0  0  0  0
 13 21  1  0  0  0  0
 13 23  2  0  0  0  0
 14 25  2  0  0  0  0
 14 26  1  0  0  0  0
 15 28  2  0  0  0  0
 15 91  1  0  0  0  0
 16 27  1  0  0  0  0
 17 27  1  0  0  0  0
 17 29  2  0  0  0  0
 17 31  1  0  0  0  0
 18 20  2  0  0  0  0
 18 37  1  0  0  0  0
 19 21  2  0  0  0  0
 19 38  1  0  0  0  0
 20 46  1  0  0  0  0
 21 39  1  0  0  0  0
 22 87  1  0  0  0  0
 23 88  1  0  0  0  0
 24 26  2  0  0  0  0
 24 87  1  0  0  0  0
 25 89  1  0  0  0  0
 26 90  1  0  0  0  0
 27 68  2  0  0  0  0
 28 62  1  0  0  0  0
 28 69  1  0  0  0  0
 29 70  1  0  0  0  0
 29 73  1  0  0  0  0
 30 69  2  0  0  0  0
 30 75  1  0  0  0  0
 30 91  1  0  0  0  0
 31 74  1  0  0  0  0
 31 81  2  0  0  0  0
 32 47  1  0  0  0  0
 32 76  1  0  0  0  0
 32 82  2  0  0  0  0
 33 63  1  0  0  0  0
 33 71  1  0  0  0  0
 33 83  2  0  0  0  0
 34 49  1  0  0  0  0
 34 78  1  0  0  0  0
 34 84  2  0  0  0  0
 35 64  1  0  0  0  0
 35 77  1  0  0  0  0
 35 85  2  0  0  0  0
 36 72  1  0  0  0  0
 36 79  1  0  0  0  0
 36 86  2  0  0  0  0
 37 40  1  0  0  0  0
 38 47  1  0  0  0  0
 39 71  1  0  0  0  0
 40 42  1  0  0  0  0
 41 43  1  0  0  0  0
 41 44  1  0  0  0  0
 42 46  1  0  0  0  0
 43 48  1  0  0  0  0
 44 72  1  0  0  0  0
 45 48  1  0  0  0  0
 45 72  1  0  0  0  0
 46 76  1  0  0  0  0
 47 71  1  0  0  0  0
 48 70  1  0  0  0  0
 50 64  1  0  0  0  0
 51 65  1  0  0  0  0
 52 65  1  0  0  0  0
 53 67  1  0  0  0  0
 54 67  1  0  0  0  0
 55 67  1  0  0  0  0
 56 78  1  0  0  0  0
 57 79  1  0  0  0  0
 58 80  1  0  0  0  0
 59 65  1  0  0  0  0
 59 66  1  0  0  0  0
 60 62  1  0  0  0  0
 60 78  1  0  0  0  0
 61 66  1  0  0  0  0
 61 88  1  0  0  0  0
 62 79  1  0  0  0  0
 63 67  1  0  0  0  0
 63 77  1  0  0  0  0
 64 80  1  0  0  0  0
 66 75  1  0  0  0  0
 68 70  1  0  0  0  0
M  CHG  1  80   1
M  ISO  4  36 100  61 101  79 100  88 101
M  END
> <Batch ID>
0190

> <Smiles>
CNC(C)C(=O)NC(C(=O)N1Cc2cc([101O:1][101CH2:1]C(CC(C)C)Nc3nc(C(CN(C)C(C)=O)[100N:0](C)[100C:0](=O)N4CCCC(n5nc(-c6ccc(Oc7ccc(F)cc7F)cc6)c(C(N)=O)c5N)C4)cs3)ccc2CC1C(=O)NC1CCCc2ccccc21)C(C)(C)C

> <Shape>
0.283

> <Color>
0.065

> <Negative vol penalty>
0.000

$$$$

  -OEChem-04052305213D

 82 90  0     1  0  0  0  0  0999 V2000
  -27.9883  -24.8595   16.4820 C   0  0  0  0  0  0  0  0  0  0  0  0
  -26.8110  -25.0394   17.2010 C   0  0  0  0  0  0  0  0  0  0  0  0
  -27.0789  -19.3368   20.6209 C   0  0  0  0  0  0  0  0  0  0  0  0
  -25.7798  -20.1175   18.7395 C   0  0  0  0  0  0  0  0  0  0  0  0
  -29.1936  -25.3450   16.9875 C   0  0  0  0  0  0  0  0  0  0  0  0
  -26.8385  -25.7040   18.4266 C   0  0  0  0  0  0  0  0  0  0  0  0
  -23.0893  -29.0762   18.8925 C   0  0  0  0  0  0  0  0  0  0  0  0
  -28.1220  -18.9967   19.7596 C   0  0  0  0  0  0  0  0  0  0  0  0
  -26.8230  -19.7775   17.8781 C   0  0  0  0  0  0  0  0  0  0  0  0
  -21.8221  -28.5814   19.1975 C   0  0  0  0  0  0  0  0  0  0  0  0
  -28.8716  -16.4846   17.6262 C   0  0  0  0  0  0  0  0  0  0  0  0
  -29.4845  -15.2451   17.8096 C   0  0  0  0  0  0  0  0  0  0  0  0
  -22.1513  -29.1810   21.5108 C   0  0  0  0  0  0  0  0  0  0  0  0
  -31.5985  -16.3483   18.1989 C   0  0  0  0  0  0  0  0  0  0  0  0
  -15.7410  -23.1683   21.4230 C   0  0  0  0  0  0  0  0  0  0  0  0
  -25.9078  -19.8971   20.1109 C   0  0  0  0  0  0  0  0  0  0  0  0
  -24.6303  -21.4813   21.6491 C   0  0  0  0  0  0  0  0  0  0  0  0
  -29.2344  -26.0244   18.2153 C   0  0  0  0  0  0  0  0  0  0  0  0
  -23.9028  -29.6182   19.8980 C   0  0  0  0  0  0  0  0  0  0  0  0
  -28.0457  -26.1979   18.9496 C   0  0  0  0  0  0  0  0  0  0  0  0
  -23.4274  -29.6844   21.2155 C   0  0  0  0  0  0  0  0  0  0  0  0
  -27.9941  -19.2171   18.3882 C   0  0  0  0  0  0  0  0  0  0  0  0
  -21.3540  -28.6310   20.5073 C   0  0  0  0  0  0  0  0  0  0  0  0
  -29.6220  -17.6559   17.7291 C   0  0  0  0  0  0  0  0  0  0  0  0
  -30.8480  -15.1770   18.0959 C   0  0  0  0  0  0  0  0  0  0  0  0
  -30.9855  -17.5877   18.0154 C   0  0  0  0  0  0  0  0  0  0  0  0
  -24.8296  -20.2481   21.0000 C   0  0  0  0  0  0  0  0  0  0  0  0
  -16.8128  -22.8416   22.2270 C   0  0  0  0  0  0  0  0  0  0  0  0
  -23.4759  -21.3059   22.3724 C   0  0  0  0  0  0  0  0  0  0  0  0
  -17.4931  -24.8160   21.5568 C   0  0  0  0  0  0  0  0  0  0  0  0
  -25.4181  -22.6783   21.6025 C   0  0  0  0  0  0  0  0  0  0  0  0
  -26.7408  -28.8832   21.1266 C   0  0  0  0  0  0  0  0  0  0  0  0
  -26.3202  -31.6579   22.7534 C   0  0  0  0  0  0  0  0  0  0  0  0
  -24.1590  -33.9853   24.0020 C   0  0  0  0  0  0  0  0  0  0  0  0
  -18.2243  -19.4631   22.7856 C   0  0  0  0  0  0  0  0  0  0  0  0
  -30.5682  -26.4896   18.7435 C   0  0  0  0  0  0  0  0  0  0  0  0
  -25.2566  -30.1721   19.5480 C   0  0  0  0  0  0  0  0  0  0  0  0
  -24.2535  -30.2748   22.3279 C   0  0  0  0  0  0  0  0  0  0  0  0
  -30.4537  -27.5118   19.8715 C   0  0  0  0  0  0  0  0  0  0  0  0
  -20.8319  -17.1150   23.3883 C   0  0  0  0  0  0  0  0  0  0  0  0
  -29.4237  -27.0576   20.9009 C   0  0  0  0  0  0  0  0  0  0  0  0
  -22.0862  -17.8198   22.8687 C   0  0  0  0  0  0  0  0  0  0  0  0
  -19.6110  -17.4269   22.5258 C   0  0  0  0  0  0  0  0  0  0  0  0
  -20.5973  -19.5686   21.8087 C   0  0  0  0  0  0  0  0  0  0  0  0
  -28.0310  -26.9353   20.2710 C   0  0  1  0  0  0  0  0  0  0  0  0
  -26.2043  -30.2330   20.7420 C   0  0  1  0  0  0  0  0  0  0  0  0
  -21.8431  -19.3292   22.6786 C   0  0  2  0  0  0  0  0  0  0  0  0
  -24.1091  -36.1215   25.3178 C   0  0  0  0  0  0  0  0  0  0  0  0
  -20.6079  -25.3062   21.3081 C   0  0  0  0  0  0  0  0  0  0  0  0
  -18.8978  -28.4642   22.8542 C   0  0  0  0  0  0  0  0  0  0  0  0
  -26.8418  -30.0880   25.3172 C   0  0  0  0  0  0  0  0  0  0  0  0
  -25.8609  -31.9986   26.6040 C   0  0  0  0  0  0  0  0  0  0  0  0
  -27.9192  -32.3435   25.2376 C   0  0  0  0  0  0  0  0  0  0  0  0
  -22.9165  -35.4706   21.7640 C   0  0  0  0  0  0  0  0  0  0  0  0
  -16.9639  -21.5906   22.9964 C   0  0  0  0  0  0  0  0  0  0  0  0
  -25.6955  -32.0389   24.0738 C   0  0  1  0  0  0  0  0  0  0  0  0
  -24.1598  -35.5016   23.9301 C   0  0  2  0  0  0  0  0  0  0  0  0
  -19.5579  -26.1248   22.0560 C   0  0  1  0  0  0  0  0  0  0  0  0
  -19.9293  -27.6159   22.1183 C   0  0  1  0  0  0  0  0  0  1  0  0
  -26.5643  -31.6043   25.2878 C   0  0  0  0  0  0  0  0  0  0  0  0
  -23.8783  -19.3552   21.2858 N   0  0  0  0  0  0  0  0  0  0  0  0
  -17.8187  -23.7850   22.3046 N   0  0  0  0  0  0  0  0  0  0  0  0
  -23.0700  -20.0280   22.1225 N   0  0  0  0  0  0  0  0  0  0  0  0
  -25.5729  -30.7977   21.9364 N   0  0  0  0  0  0  0  0  0  0  0  0
  -19.4356  -18.8746   22.3862 N   0  0  0  0  0  0  0  0  0  0  0  0
  -22.7786  -22.1216   23.1914 N   0  0  0  0  0  0  0  0  0  0  0  0
  -26.5736  -22.6871   20.8093 N   0  0  0  0  0  0  0  0  0  0  0  0
  -18.2764  -25.9449   21.4031 N   0  0  0  0  0  0  0  0  0  0  0  0
  -27.4304  -28.2428   20.1148 N   0  0  0  0  0  0  0  0  0  0  0  0
  -25.4394  -33.4735   24.0054 N   0  0  0  0  0  0  0  0  0  0  0  0
  -18.1434  -20.8410   22.6253 N   0  0  0  0  0  0  0  0  0  0  0  0
  -22.9809  -35.9841   23.1565 N   0  3  0  0  0  0  0  0  0  0  0  0
  -25.1156  -23.7041   22.2580 O   0  0  0  0  0  0  0  0  0  0  0  0
  -26.5449  -28.4551   22.2580 O   0  0  0  0  0  0  0  0  0  0  0  0
  -27.4273  -32.1127   22.4545 O   0  0  0  0  0  0  0  0  0  0  0  0
  -23.1260  -33.3214   24.0541 O   0  0  0  0  0  0  0  0  0  0  0  0
  -17.2866  -18.8098   23.2555 O   0  0  0  0  0  0  0  0  0  0  0  0
  -29.0118  -18.8857   17.5475 O   0  0  0  0  0  0  0  0  0  0  0  0
  -20.1178  -28.1481   20.8078 O   0  0  0  0  0  0  0  0  0  1  0  0
  -31.4362  -13.9867   18.2735 F   0  0  0  0  0  0  0  0  0  0  0  0
  -31.7114  -18.7096   18.1167 F   0  0  0  0  0  0  0  0  0  0  0  0
  -15.9911  -24.7182   20.7325 S   0  0  0  0  0  0  0  0  0  0  0  0
  1  2  1  0  0  0  0
  1  5  2  0  0  0  0
  2  6  2  0  0  0  0
  3  8  2  0  0  0  0
  3 16  1  0  0  0  0
  4  9  1  0  0  0  0
  4 16  2  0  0  0  0
  5 18  1  0  0  0  0
  6 20  1  0  0  0  0
  7 10  2  0  0  0  0
  7 19  1  0  0  0  0
  8 22  1  0  0  0  0
  9 22  2  0  0  0  0
 10 23  1  0  0  0  0
 11 12  2  0  0  0  0
 11 24  1  0  0  0  0
 12 25  1  0  0  0  0
 13 21  1  0  0  0  0
 13 23  2  0  0  0  0
 14 25  2  0  0  0  0
 14 26  1  0  0  0  0
 15 28  2  0  0  0  0
 15 82  1  0  0  0  0
 16 27  1  0  0  0  0
 17 27  1  0  0  0  0
 17 29  2  0  0  0  0
 17 31  1  0  0  0  0
 18 20  2  0  0  0  0
 18 36  1  0  0  0  0
 19 21  2  0  0  0  0
 19 37  1  0  0  0  0
 20 45  1  0  0  0  0
 21 38  1  0  0  0  0
 22 78  1  0  0  0  0
 23 79  1  0  0  0  0
 24 26  2  0  0  0  0
 24 78  1  0  0  0  0
 25 80  1  0  0  0  0
 26 81  1  0  0  0  0
 27 61  2  0  0  0  0
 28 55  1  0  0  0  0
 28 62  1  0  0  0  0
 29 63  1  0  0  0  0
 29 66  1  0  0  0  0
 30 62  2  0  0  0  0
 30 68  1  0  0  0  0
 30 82  1  0  0  0  0
 31 67  1  0  0  0  0
 31 73  2  0  0  0  0
 32 46  1  0  0  0  0
 32 69  1  0  0  0  0
 32 74  2  0  0  0  0
 33 56  1  0  0  0  0
 33 64  1  0  0  0  0
 33 75  2  0  0  0  0
 34 57  1  0  0  0  0
 34 70  1  0  0  0  0
 34 76  2  0  0  0  0
 35 65  1  0  0  0  0
 35 71  1  0  0  0  0
 35 77  2  0  0  0  0
 36 39  1  0  0  0  0
 37 46  1  0  0  0  0
 38 64  1  0  0  0  0
 39 41  1  0  0  0  0
 40 42  1  0  0  0  0
 40 43  1  0  0  0  0
 41 45  1  0  0  0  0
 42 47  1  0  0  0  0
 43 65  1  0  0  0  0
 44 47  1  0  0  0  0
 44 65  1  0  0  0  0
 45 69  1  0  0  0  0
 46 64  1  0  0  0  0
 47 63  1  0  0  0  0
 48 57  1  0  0  0  0
 49 58  1  0  0  0  0
 50 59  1  0  0  0  0
 51 60  1  0  0  0  0
 52 60  1  0  0  0  0
 53 60  1  0  0  0  0
 54 72  1  0  0  0  0
 55 71  1  0  0  0  0
 56 60  1  0  0  0  0
 56 70  1  0  0  0  0
 57 72  1  0  0  0  0
 58 59  1  0  0  0  0
 58 68  1  0  0  0  0
 59 79  1  0  0  0  0
 61 63  1  0  0  0  0
M  CHG  1  72   1
M  ISO  4  35 100  59 101  71 100  79 101
M  END
> <Batch ID>
0190

> <Smiles>
CNC(C)C(=O)NC(C(=O)N1Cc2cc([101O:1][101CH:1](C)C(C)Nc3nc(C[100NH:0][100C:0](=O)N4CCCC(n5nc(-c6ccc(Oc7ccc(F)cc7F)cc6)c(C(N)=O)c5N)C4)cs3)ccc2CC1C(=O)NC1CCCc2ccccc21)C(C)(C)C

> <Shape>
0.233

> <Color>
0.055

> <Negative vol penalty>
0.000

$$$$

  -OEChem-04052305213D

 83 91  0     1  0  0  0  0  0999 V2000
  -28.1142  -25.0130   16.3560 C   0  0  0  0  0  0  0  0  0  0  0  0
  -26.9380  -25.1532   17.0856 C   0  0  0  0  0  0  0  0  0  0  0  0
  -27.3905  -19.4869   20.3959 C   0  0  0  0  0  0  0  0  0  0  0  0
  -26.0474  -20.2495   18.5380 C   0  0  0  0  0  0  0  0  0  0  0  0
  -29.3108  -25.5209   16.8604 C   0  0  0  0  0  0  0  0  0  0  0  0
  -26.9579  -25.8004   18.3206 C   0  0  0  0  0  0  0  0  0  0  0  0
  -23.1300  -29.0714   18.8616 C   0  0  0  0  0  0  0  0  0  0  0  0
  -28.4351  -19.1922   19.5198 C   0  0  0  0  0  0  0  0  0  0  0  0
  -27.0921  -19.9548   17.6619 C   0  0  0  0  0  0  0  0  0  0  0  0
  -21.8776  -28.5408   19.1679 C   0  0  0  0  0  0  0  0  0  0  0  0
  -28.3979  -17.2138   16.1744 C   0  0  0  0  0  0  0  0  0  0  0  0
  -28.0829  -16.5431   14.9927 C   0  0  0  0  0  0  0  0  0  0  0  0
  -22.2084  -29.1148   21.4874 C   0  0  0  0  0  0  0  0  0  0  0  0
  -28.9570  -18.3940   13.7092 C   0  0  0  0  0  0  0  0  0  0  0  0
  -26.1966  -20.0155   19.9050 C   0  0  0  0  0  0  0  0  0  0  0  0
  -24.8845  -21.5371   21.4769 C   0  0  0  0  0  0  0  0  0  0  0  0
  -29.3436  -26.1832   18.0977 C   0  0  0  0  0  0  0  0  0  0  0  0
  -23.9369  -29.6187   19.8693 C   0  0  0  0  0  0  0  0  0  0  0  0
  -28.1562  -26.3164   18.8426 C   0  0  0  0  0  0  0  0  0  0  0  0
  -23.4696  -29.6540   21.1909 C   0  0  0  0  0  0  0  0  0  0  0  0
  -28.2859  -19.4262   18.1529 C   0  0  0  0  0  0  0  0  0  0  0  0
  -21.4178  -28.5599   20.4814 C   0  0  0  0  0  0  0  0  0  0  0  0
  -28.9923  -18.4747   16.1236 C   0  0  0  0  0  0  0  0  0  0  0  0
  -28.3625  -17.1332   13.7601 C   0  0  0  0  0  0  0  0  0  0  0  0
  -29.2719  -19.0647   14.8910 C   0  0  0  0  0  0  0  0  0  0  0  0
  -25.1169  -20.3196   20.8094 C   0  0  0  0  0  0  0  0  0  0  0  0
  -17.0335  -22.6352   22.1467 C   0  0  0  0  0  0  0  0  0  0  0  0
  -23.7439  -21.3149   22.2091 C   0  0  0  0  0  0  0  0  0  0  0  0
  -15.9483  -22.9468   21.3548 C   0  0  0  0  0  0  0  0  0  0  0  0
  -17.6601  -24.6353   21.5011 C   0  0  0  0  0  0  0  0  0  0  0  0
  -25.6326  -22.7595   21.4384 C   0  0  0  0  0  0  0  0  0  0  0  0
  -26.8010  -28.9367   21.0676 C   0  0  0  0  0  0  0  0  0  0  0  0
  -26.3237  -31.6762   22.7378 C   0  0  0  0  0  0  0  0  0  0  0  0
  -24.1146  -33.9309   24.0352 C   0  0  0  0  0  0  0  0  0  0  0  0
  -18.5593  -19.2971   22.6496 C   0  0  0  0  0  0  0  0  0  0  0  0
  -30.6693  -26.6737   18.6236 C   0  0  0  0  0  0  0  0  0  0  0  0
  -25.2742  -30.2111   19.5182 C   0  0  0  0  0  0  0  0  0  0  0  0
  -24.2888  -30.2486   22.3061 C   0  0  0  0  0  0  0  0  0  0  0  0
  -30.5376  -27.6762   19.7672 C   0  0  0  0  0  0  0  0  0  0  0  0
  -21.2476  -17.0273   23.1951 C   0  0  0  0  0  0  0  0  0  0  0  0
  -29.5266  -27.1817   20.7969 C   0  0  0  0  0  0  0  0  0  0  0  0
  -22.4730  -17.7793   22.6726 C   0  0  0  0  0  0  0  0  0  0  0  0
  -20.0084  -17.3106   22.3489 C   0  0  0  0  0  0  0  0  0  0  0  0
  -20.9174  -19.4924   21.6508 C   0  0  0  0  0  0  0  0  0  0  0  0
  -28.1328  -27.0341   20.1747 C   0  0  1  0  0  0  0  0  0  0  0  0
  -26.2286  -30.2782   20.7065 C   0  0  1  0  0  0  0  0  0  0  0  0
  -22.1792  -19.2823   22.5051 C   0  0  2  0  0  0  0  0  0  0  0  0
  -24.0214  -36.0459   25.3825 C   0  0  0  0  0  0  0  0  0  0  0  0
  -20.7599  -25.2063   21.2384 C   0  0  0  0  0  0  0  0  0  0  0  0
  -18.9834  -28.2981   22.8424 C   0  0  0  0  0  0  0  0  0  0  0  0
  -26.9023  -30.0827   25.2747 C   0  0  0  0  0  0  0  0  0  0  0  0
  -25.8837  -31.9495   26.5960 C   0  0  0  0  0  0  0  0  0  0  0  0
  -27.9230  -32.3652   25.2209 C   0  0  0  0  0  0  0  0  0  0  0  0
  -22.8197  -35.4172   21.8277 C   0  0  0  0  0  0  0  0  0  0  0  0
  -17.2329  -21.3796   22.9013 C   0  0  0  0  0  0  0  0  0  0  0  0
  -25.6992  -32.0224   24.0679 C   0  0  1  0  0  0  0  0  0  0  0  0
  -24.0774  -35.4476   23.9855 C   0  0  2  0  0  0  0  0  0  0  0  0
  -19.6954  -25.9876   22.0054 C   0  0  1  0  0  0  0  0  0  0  0  0
  -20.0302  -27.4865   22.0871 C   0  0  1  0  0  0  0  0  0  1  0  0
  -26.5872  -31.5919   25.2694 C   0  0  0  0  0  0  0  0  0  0  0  0
  -24.1979  -19.3926   21.0926 N   0  0  0  0  0  0  0  0  0  0  0  0
  -18.0163  -23.6020   22.2315 N   0  0  0  0  0  0  0  0  0  0  0  0
  -23.3770  -20.0278   21.9462 N   0  0  0  0  0  0  0  0  0  0  0  0
  -25.5920  -30.8096   21.9134 N   0  0  0  0  0  0  0  0  0  0  0  0
  -19.7848  -18.7535   22.2304 N   0  0  0  0  0  0  0  0  0  0  0  0
  -23.0291  -22.0968   23.0458 N   0  0  0  0  0  0  0  0  0  0  0  0
  -14.8540  -22.1893   21.1006 N   0  0  0  0  0  0  0  0  0  0  0  0
  -26.7789  -22.8163   20.6340 N   0  0  0  0  0  0  0  0  0  0  0  0
  -18.4141  -25.7854   21.3587 N   0  0  0  0  0  0  0  0  0  0  0  0
  -27.4990  -28.3283   20.0418 N   0  0  0  0  0  0  0  0  0  0  0  0
  -25.4072  -33.4510   24.0223 N   0  0  0  0  0  0  0  0  0  0  0  0
  -18.4322  -20.6736   22.5086 N   0  0  0  0  0  0  0  0  0  0  0  0
  -22.8814  -35.9118   23.2271 N   0  3  0  0  0  0  0  0  0  0  0  0
  -25.3038  -23.7663   22.1105 O   0  0  0  0  0  0  0  0  0  0  0  0
  -26.6239  -28.4875   22.1939 O   0  0  0  0  0  0  0  0  0  0  0  0
  -27.4170  -32.1626   22.4381 O   0  0  0  0  0  0  0  0  0  0  0  0
  -23.0988  -33.2409   24.0845 O   0  0  0  0  0  0  0  0  0  0  0  0
  -17.6481  -18.6076   23.1200 O   0  0  0  0  0  0  0  0  0  0  0  0
  -29.3051  -19.1389   17.2977 O   0  0  0  0  0  0  0  0  0  0  0  0
  -20.1961  -28.0421   20.7832 O   0  0  0  0  0  0  0  0  0  1  0  0
  -28.0614  -16.4883   12.6253 F   0  0  0  0  0  0  0  0  0  0  0  0
  -29.8440  -20.2753   14.8358 F   0  0  0  0  0  0  0  0  0  0  0  0
  -16.1551  -24.5123   20.6856 S   0  0  0  0  0  0  0  0  0  0  0  0
  1  2  1  0  0  0  0
  1  5  2  0  0  0  0
  2  6  2  0  0  0  0
  3  8  2  0  0  0  0
  3 15  1  0  0  0  0
  4  9  1  0  0  0  0
  4 15  2  0  0  0  0
  5 17  1  0  0  0  0
  6 19  1  0  0  0  0
  7 10  2  0  0  0  0
  7 18  1  0  0  0  0
  8 21  1  0  0  0  0
  9 21  2  0  0  0  0
 10 22  1  0  0  0  0
 11 12  2  0  0  0  0
 11 23  1  0  0  0  0
 12 24  1  0  0  0  0
 13 20  1  0  0  0  0
 13 22  2  0  0  0  0
 14 24  2  0  0  0  0
 14 25  1  0  0  0  0
 15 26  1  0  0  0  0
 16 26  1  0  0  0  0
 16 28  2  0  0  0  0
 16 31  1  0  0  0  0
 17 19  2  0  0  0  0
 17 36  1  0  0  0  0
 18 20  2  0  0  0  0
 18 37  1  0  0  0  0
 19 45  1  0  0  0  0
 20 38  1  0  0  0  0
 21 79  1  0  0  0  0
 22 80  1  0  0  0  0
 23 25  2  0  0  0  0
 23 79  1  0  0  0  0
 24 81  1  0  0  0  0
 25 82  1  0  0  0  0
 26 61  2  0  0  0  0
 27 29  2  0  0  0  0
 27 55  1  0  0  0  0
 27 62  1  0  0  0  0
 28 63  1  0  0  0  0
 28 66  1  0  0  0  0
 29 67  1  0  0  0  0
 29 83  1  0  0  0  0
 30 62  2  0  0  0  0
 30 69  1  0  0  0  0
 30 83  1  0  0  0  0
 31 68  1  0  0  0  0
 31 74  2  0  0  0  0
 32 46  1  0  0  0  0
 32 70  1  0  0  0  0
 32 75  2  0  0  0  0
 33 56  1  0  0  0  0
 33 64  1  0  0  0  0
 33 76  2  0  0  0  0
 34 57  1  0  0  0  0
 34 71  1  0  0  0  0
 34 77  2  0  0  0  0
 35 65  1  0  0  0  0
 35 72  1  0  0  0  0
 35 78  2  0  0  0  0
 36 39  1  0  0  0  0
 37 46  1  0  0  0  0
 38 64  1  0  0  0  0
 39 41  1  0  0  0  0
 40 42  1  0  0  0  0
 40 43  1  0  0  0  0
 41 45  1  0  0  0  0
 42 47  1  0  0  0  0
 43 65  1  0  0  0  0
 44 47  1  0  0  0  0
 44 65  1  0  0  0  0
 45 70  1  0  0  0  0
 46 64  1  0  0  0  0
 47 63  1  0  0  0  0
 48 57  1  0  0  0  0
 49 58  1  0  0  0  0
 50 59  1  0  0  0  0
 51 60  1  0  0  0  0
 52 60  1  0  0  0  0
 53 60  1  0  0  0  0
 54 73  1  0  0  0  0
 55 72  1  0  0  0  0
 56 60  1  0  0  0  0
 56 71  1  0  0  0  0
 57 73  1  0  0  0  0
 58 59  1  0  0  0  0
 58 69  1  0  0  0  0
 59 80  1  0  0  0  0
 61 63  1  0  0  0  0
M  CHG  1  73   1
M  ISO  4  35 100  59 101  72 100  80 101
M  END
> <Batch ID>
0190

> <Smiles>
CNC(C)C(=O)NC(C(=O)N1Cc2cc([101O:1][101CH:1](C)C(C)Nc3nc(C[100NH:0][100C:0](=O)N4CCCC(n5nc(-c6ccc(Oc7ccc(F)cc7F)cc6)c(C(N)=O)c5N)C4)c(N)s3)ccc2CC1C(=O)NC1CCCc2ccccc21)C(C)(C)C

> <Shape>
0.216

> <Color>
0.053

> <Negative vol penalty>
0.000

$$$$

  -OEChem-04052305213D

 88 96  0     1  0  0  0  0  0999 V2000
  -16.3041  -28.9545   23.2914 C   0  0  0  0  0  0  0  0  0  0  0  0
  -17.1109  -28.7772   22.1720 C   0  0  0  0  0  0  0  0  0  0  0  0
  -28.9755  -12.7596   21.0811 C   0  0  0  0  0  0  0  0  0  0  0  0
  -29.6432  -13.5529   18.8989 C   0  0  0  0  0  0  0  0  0  0  0  0
  -16.7932  -29.6451   24.3994 C   0  0  0  0  0  0  0  0  0  0  0  0
  -18.4071  -29.2913   22.1596 C   0  0  0  0  0  0  0  0  0  0  0  0
  -23.3214  -26.8222   19.4655 C   0  0  0  0  0  0  0  0  0  0  0  0
  -28.3529  -11.6599   20.4908 C   0  0  0  0  0  0  0  0  0  0  0  0
  -29.0206  -12.4530   18.3086 C   0  0  0  0  0  0  0  0  0  0  0  0
  -23.9488  -27.0746   18.2463 C   0  0  0  0  0  0  0  0  0  0  0  0
  -27.9172   -9.6649   16.2527 C   0  0  0  0  0  0  0  0  0  0  0  0
  -28.6111   -8.9862   15.2510 C   0  0  0  0  0  0  0  0  0  0  0  0
  -25.5168  -28.5298   19.3612 C   0  0  0  0  0  0  0  0  0  0  0  0
  -30.3882   -8.4975   16.8131 C   0  0  0  0  0  0  0  0  0  0  0  0
  -29.6207  -13.7062   20.2851 C   0  0  0  0  0  0  0  0  0  0  0  0
  -31.5980  -14.9300   21.3340 C   0  0  0  0  0  0  0  0  0  0  0  0
  -18.0994  -30.1596   24.4044 C   0  0  0  0  0  0  0  0  0  0  0  0
  -23.7811  -27.4313   20.6421 C   0  0  0  0  0  0  0  0  0  0  0  0
  -18.9136  -29.9906   23.2683 C   0  0  0  0  0  0  0  0  0  0  0  0
  -24.8952  -28.2814   20.5945 C   0  0  0  0  0  0  0  0  0  0  0  0
  -28.3755  -11.5065   19.1046 C   0  0  0  0  0  0  0  0  0  0  0  0
  -25.0448  -27.9308   18.1936 C   0  0  0  0  0  0  0  0  0  0  0  0
  -28.4588   -9.7599   17.5347 C   0  0  0  0  0  0  0  0  0  0  0  0
  -29.8466   -8.4025   15.5312 C   0  0  0  0  0  0  0  0  0  0  0  0
  -29.6942   -9.1762   17.8148 C   0  0  0  0  0  0  0  0  0  0  0  0
  -30.2635  -14.8428   20.8942 C   0  0  0  0  0  0  0  0  0  0  0  0
  -29.8373  -23.9426   17.3612 C   0  0  0  0  0  0  0  0  0  0  0  0
  -31.7128  -16.2050   21.8317 C   0  0  0  0  0  0  0  0  0  0  0  0
  -30.3505  -23.0816   16.4138 C   0  0  0  0  0  0  0  0  0  0  0  0
  -29.6287  -22.0647   18.4747 C   0  0  0  0  0  0  0  0  0  0  0  0
  -32.6405  -13.9465   21.2960 C   0  0  0  0  0  0  0  0  0  0  0  0
  -22.5328  -29.4452   22.7608 C   0  0  0  0  0  0  0  0  0  0  0  0
  -25.3026  -28.8769   24.3506 C   0  0  0  0  0  0  0  0  0  0  0  0
  -28.5727  -27.9094   24.2188 C   0  0  0  0  0  0  0  0  0  0  0  0
  -28.7911  -21.2982   20.7236 C   0  0  0  0  0  0  0  0  0  0  0  0
  -18.5676  -30.9400   25.6070 C   0  0  0  0  0  0  0  0  0  0  0  0
  -23.1100  -27.1277   21.9535 C   0  0  0  0  0  0  0  0  0  0  0  0
  -25.4402  -28.9444   21.8322 C   0  0  0  0  0  0  0  0  0  0  0  0
  -20.0815  -31.1287   25.6590 C   0  0  0  0  0  0  0  0  0  0  0  0
  -29.1210  -19.6749   23.8753 C   0  0  0  0  0  0  0  0  0  0  0  0
  -20.6113  -31.5722   24.2991 C   0  0  0  0  0  0  0  0  0  0  0  0
  -29.5787  -18.2613   23.5088 C   0  0  0  0  0  0  0  0  0  0  0  0
  -28.1191  -20.2270   22.8627 C   0  0  0  0  0  0  0  0  0  0  0  0
  -29.0175  -18.7634   21.0963 C   0  0  0  0  0  0  0  0  0  0  0  0
  -20.3337  -30.5121   23.2264 C   0  0  1  0  0  0  0  0  0  0  0  0
  -23.3442  -28.2050   23.0080 C   0  0  1  0  0  0  0  0  0  0  0  0
  -30.0767  -18.1901   22.0519 C   0  0  2  0  0  0  0  0  0  0  0  0
  -30.5900  -27.5808   25.6748 C   0  0  0  0  0  0  0  0  0  0  0  0
  -29.3021  -27.2860   14.7112 C   0  0  0  0  0  0  0  0  0  0  0  0
  -32.0589  -25.4053   19.4487 C   0  0  0  0  0  0  0  0  0  0  0  0
  -31.1634  -27.5966   20.2710 C   0  0  0  0  0  0  0  0  0  0  0  0
  -31.9333  -27.3743   17.9183 C   0  0  0  0  0  0  0  0  0  0  0  0
  -25.7176  -31.8980   24.4532 C   0  0  0  0  0  0  0  0  0  0  0  0
  -28.1164  -31.4787   25.0346 C   0  0  0  0  0  0  0  0  0  0  0  0
  -26.3086  -30.6916   26.5626 C   0  0  0  0  0  0  0  0  0  0  0  0
  -28.7170  -25.0260   23.5673 C   0  0  0  0  0  0  0  0  0  0  0  0
  -26.8267  -27.2326   15.0840 C   0  0  0  0  0  0  0  0  0  0  0  0
  -28.3394  -25.7359   16.5004 C   0  0  0  0  0  0  0  0  0  0  0  0
  -29.8019  -26.2276   18.5606 C   0  0  0  0  0  0  0  0  0  0  0  0
  -25.6289  -27.1439   16.0266 C   0  0  0  0  0  0  0  0  0  1  0  0
  -29.6895  -25.4522   17.2202 C   0  0  1  0  0  0  0  0  0  0  0  0
  -26.6765  -29.5026   24.3620 C   0  0  1  0  0  0  0  0  0  0  0  0
  -29.3659  -26.9231   25.0570 C   0  0  2  0  0  0  0  0  0  0  0  0
  -28.2085  -27.0921   15.7676 C   0  0  1  0  0  0  0  0  0  0  0  0
  -31.2181  -26.6363   19.0729 C   0  0  0  0  0  0  0  0  0  0  0  0
  -26.6936  -30.8819   25.0793 C   0  0  0  0  0  0  0  0  0  0  0  0
  -29.5796  -15.9723   21.0950 N   0  0  0  0  0  0  0  0  0  0  0  0
  -29.4225  -23.3612   18.5435 N   0  0  0  0  0  0  0  0  0  0  0  0
  -30.4878  -16.7814   21.6665 N   0  0  0  0  0  0  0  0  0  0  0  0
  -24.7458  -28.6209   23.0895 N   0  0  0  0  0  0  0  0  0  0  0  0
  -28.6608  -20.1309   21.5054 N   0  0  0  0  0  0  0  0  0  0  0  0
  -32.7411  -16.8781   22.3902 N   0  0  0  0  0  0  0  0  0  0  0  0
  -30.8240  -23.3823   15.1802 N   0  0  0  0  0  0  0  0  0  0  0  0
  -32.3521  -12.6878   20.7510 N   0  0  0  0  0  0  0  0  0  0  0  0
  -29.3483  -21.0883   19.4626 N   0  0  0  0  0  0  0  0  0  0  0  0
  -21.2776  -29.4207   23.3382 N   0  0  0  0  0  0  0  0  0  0  0  0
  -27.5712  -28.5119   24.9505 N   0  0  0  0  0  0  0  0  0  0  0  0
  -29.8205  -25.7784   24.2179 N   0  3  0  0  0  0  0  0  0  0  0  0
  -33.7891  -14.1715   21.7473 O   0  0  0  0  0  0  0  0  0  0  0  0
  -23.0107  -30.3576   22.0968 O   0  0  0  0  0  0  0  0  0  0  0  0
  -24.7471  -28.6181   25.4211 O   0  0  0  0  0  0  0  0  0  0  0  0
  -28.8193  -28.1265   23.0345 O   0  0  0  0  0  0  0  0  0  0  0  0
  -28.4598  -22.4066   21.1521 O   0  0  0  0  0  0  0  0  0  0  0  0
  -27.7682  -10.4333   18.5283 O   0  0  0  0  0  0  0  0  0  0  0  0
  -25.6633  -28.1813   16.9956 O   0  0  0  0  0  0  0  0  0  1  0  0
  -30.5121   -7.7495   14.5695 F   0  0  0  0  0  0  0  0  0  0  0  0
  -30.2191   -9.2632   19.0448 F   0  0  0  0  0  0  0  0  0  0  0  0
  -30.3190  -21.4768   17.0178 S   0  0  0  0  0  0  0  0  0  0  0  0
  1  2  1  0  0  0  0
  1  5  2  0  0  0  0
  2  6  2  0  0  0  0
  3  8  2  0  0  0  0
  3 15  1  0  0  0  0
  4  9  1  0  0  0  0
  4 15  2  0  0  0  0
  5 17  1  0  0  0  0
  6 19  1  0  0  0  0
  7 10  2  0  0  0  0
  7 18  1  0  0  0  0
  8 21  1  0  0  0  0
  9 21  2  0  0  0  0
 10 22  1  0  0  0  0
 11 12  2  0  0  0  0
 11 23  1  0  0  0  0
 12 24  1  0  0  0  0
 13 20  1  0  0  0  0
 13 22  2  0  0  0  0
 14 24  2  0  0  0  0
 14 25  1  0  0  0  0
 15 26  1  0  0  0  0
 16 26  1  0  0  0  0
 16 28  2  0  0  0  0
 16 31  1  0  0  0  0
 17 19  2  0  0  0  0
 17 36  1  0  0  0  0
 18 20  2  0  0  0  0
 18 37  1  0  0  0  0
 19 45  1  0  0  0  0
 20 38  1  0  0  0  0
 21 84  1  0  0  0  0
 22 85  1  0  0  0  0
 23 25  2  0  0  0  0
 23 84  1  0  0  0  0
 24 86  1  0  0  0  0
 25 87  1  0  0  0  0
 26 67  2  0  0  0  0
 27 29  2  0  0  0  0
 27 61  1  0  0  0  0
 27 68  1  0  0  0  0
 28 69  1  0  0  0  0
 28 72  1  0  0  0  0
 29 73  1  0  0  0  0
 29 88  1  0  0  0  0
 30 68  2  0  0  0  0
 30 75  1  0  0  0  0
 30 88  1  0  0  0  0
 31 74  1  0  0  0  0
 31 79  2  0  0  0  0
 32 46  1  0  0  0  0
 32 76  1  0  0  0  0
 32 80  2  0  0  0  0
 33 62  1  0  0  0  0
 33 70  1  0  0  0  0
 33 81  2  0  0  0  0
 34 63  1  0  0  0  0
 34 77  1  0  0  0  0
 34 82  2  0  0  0  0
 35 71  1  0  0  0  0
 35 75  1  0  0  0  0
 35 83  2  0  0  0  0
 36 39  1  0  0  0  0
 37 46  1  0  0  0  0
 38 70  1  0  0  0  0
 39 41  1  0  0  0  0
 40 42  1  0  0  0  0
 40 43  1  0  0  0  0
 41 45  1  0  0  0  0
 42 47  1  0  0  0  0
 43 71  1  0  0  0  0
 44 47  1  0  0  0  0
 44 71  1  0  0  0  0
 45 76  1  0  0  0  0
 46 70  1  0  0  0  0
 47 69  1  0  0  0  0
 48 63  1  0  0  0  0
 49 64  1  0  0  0  0
 50 65  1  0  0  0  0
 51 65  1  0  0  0  0
 52 65  1  0  0  0  0
 53 66  1  0  0  0  0
 54 66  1  0  0  0  0
 55 66  1  0  0  0  0
 56 78  1  0  0  0  0
 57 60  1  0  0  0  0
 57 64  1  0  0  0  0
 58 61  1  0  0  0  0
 58 64  1  0  0  0  0
 59 61  1  0  0  0  0
 59 65  1  0  0  0  0
 60 85  1  0  0  0  0
 62 66  1  0  0  0  0
 62 77  1  0  0  0  0
 63 78  1  0  0  0  0
 67 69  1  0  0  0  0
M  CHG  1  78   1
M  ISO  4  35 100  60 101  75 100  85 101
M  END
> <Batch ID>
0190

> <Smiles>
CNC(C)C(=O)NC(C(=O)N1Cc2cc([101O:1][101CH2:1]CC(C)CC(CC(C)(C)C)c3nc([100NH:0][100C:0](=O)N4CCCC(n5nc(-c6ccc(Oc7ccc(F)cc7F)cc6)c(C(N)=O)c5N)C4)sc3N)ccc2CC1C(=O)NC1CCCc2ccccc21)C(C)(C)C

> <Shape>
0.280

> <Color>
0.069

> <Negative vol penalty>
0.000

$$$$

  -OEChem-04052305213D

 83 91  0     1  0  0  0  0  0999 V2000
  -21.5873  -13.3205   38.0370 C   0  0  0  0  0  0  0  0  0  0  0  0
  -22.8019  -12.8796   37.5214 C   0  0  0  0  0  0  0  0  0  0  0  0
  -23.1870   -9.8201   19.9323 C   0  0  0  0  0  0  0  0  0  0  0  0
  -23.5694   -9.9988   22.3112 C   0  0  0  0  0  0  0  0  0  0  0  0
  -20.4531  -13.3401   37.2263 C   0  0  0  0  0  0  0  0  0  0  0  0
  -22.8827  -12.4570   36.1951 C   0  0  0  0  0  0  0  0  0  0  0  0
  -27.6304  -13.1586   32.3907 C   0  0  0  0  0  0  0  0  0  0  0  0
  -22.4208   -8.6736   20.1416 C   0  0  0  0  0  0  0  0  0  0  0  0
  -22.8031   -8.8522   22.5205 C   0  0  0  0  0  0  0  0  0  0  0  0
  -28.6582  -12.2992   32.0050 C   0  0  0  0  0  0  0  0  0  0  0  0
  -23.2029   -5.5056   22.2535 C   0  0  0  0  0  0  0  0  0  0  0  0
  -23.7024   -4.5436   23.1312 C   0  0  0  0  0  0  0  0  0  0  0  0
  -27.4037  -11.6924   30.0359 C   0  0  0  0  0  0  0  0  0  0  0  0
  -21.7483   -4.8032   24.5280 C   0  0  0  0  0  0  0  0  0  0  0  0
  -29.6308  -15.4141   26.0745 C   0  0  0  0  0  0  0  0  0  0  0  0
  -23.7614  -10.4828   21.0171 C   0  0  0  0  0  0  0  0  0  0  0  0
  -24.1003  -12.9995   20.7745 C   0  0  0  0  0  0  0  0  0  0  0  0
  -20.5223  -12.9266   35.8866 C   0  0  0  0  0  0  0  0  0  0  0  0
  -26.4748  -13.2833   31.6062 C   0  0  0  0  0  0  0  0  0  0  0  0
  -21.7481  -12.4698   35.3660 C   0  0  0  0  0  0  0  0  0  0  0  0
  -26.3638  -12.5560   30.4126 C   0  0  0  0  0  0  0  0  0  0  0  0
  -30.2293  -14.8856   24.9489 C   0  0  0  0  0  0  0  0  0  0  0  0
  -22.2288   -8.1896   21.4356 C   0  0  0  0  0  0  0  0  0  0  0  0
  -28.5438  -11.5638   30.8289 C   0  0  0  0  0  0  0  0  0  0  0  0
  -21.9760   -6.1165   22.5130 C   0  0  0  0  0  0  0  0  0  0  0  0
  -22.9752   -4.1923   24.2685 C   0  0  0  0  0  0  0  0  0  0  0  0
  -21.2487   -5.7653   23.6502 C   0  0  0  0  0  0  0  0  0  0  0  0
  -24.5535  -11.6669   20.8016 C   0  0  0  0  0  0  0  0  0  0  0  0
  -30.8585  -13.6698   25.1224 C   0  0  0  0  0  0  0  0  0  0  0  0
  -25.2313  -13.7420   20.5378 C   0  0  0  0  0  0  0  0  0  0  0  0
  -30.2853  -13.6300   27.3217 C   0  0  0  0  0  0  0  0  0  0  0  0
  -22.7756  -13.5196   20.9479 C   0  0  0  0  0  0  0  0  0  0  0  0
  -23.3822  -12.7063   32.0605 C   0  0  0  0  0  0  0  0  0  0  0  0
  -23.0957  -14.0774   29.1346 C   0  0  0  0  0  0  0  0  0  0  0  0
  -24.5503  -14.8670   26.1501 C   0  0  0  0  0  0  0  0  0  0  0  0
  -31.0476  -12.7498   21.5566 C   0  0  0  0  0  0  0  0  0  0  0  0
  -19.2591  -12.9210   35.0625 C   0  0  0  0  0  0  0  0  0  0  0  0
  -25.3867  -14.2348   32.0224 C   0  0  0  0  0  0  0  0  0  0  0  0
  -25.1526  -12.6694   29.5246 C   0  0  0  0  0  0  0  0  0  0  0  0
  -19.5119  -12.8105   33.5611 C   0  0  0  0  0  0  0  0  0  0  0  0
  -29.5151  -13.4697   18.4245 C   0  0  0  0  0  0  0  0  0  0  0  0
  -20.5307  -11.7130   33.2706 C   0  0  0  0  0  0  0  0  0  0  0  0
  -28.0289  -13.2096   18.6761 C   0  0  0  0  0  0  0  0  0  0  0  0
  -30.3974  -12.4796   19.1816 C   0  0  0  0  0  0  0  0  0  0  0  0
  -28.6467  -12.1362   20.8817 C   0  0  0  0  0  0  0  0  0  0  0  0
  -21.8815  -12.0269   33.9251 C   0  0  1  0  0  0  0  0  0  0  0  0
  -24.0307  -13.8960   31.4111 C   0  0  1  0  0  0  0  0  0  0  0  0
  -27.7183  -13.1447   20.1836 C   0  0  2  0  0  0  0  0  0  0  0  0
  -24.7813  -15.8926   23.8715 C   0  0  0  0  0  0  0  0  0  0  0  0
  -31.8761  -10.2660   30.6106 C   0  0  0  0  0  0  0  0  0  0  0  0
  -21.5607  -11.5904   28.2577 C   0  0  0  0  0  0  0  0  0  0  0  0
  -21.9243  -12.2891   25.8812 C   0  0  0  0  0  0  0  0  0  0  0  0
  -20.6142  -13.7492   27.4221 C   0  0  0  0  0  0  0  0  0  0  0  0
  -25.6064  -17.3956   27.2680 C   0  0  0  0  0  0  0  0  0  0  0  0
  -31.5419  -12.9993   23.9758 C   0  0  0  0  0  0  0  0  0  0  0  0
  -30.9631  -11.7091   28.7628 C   0  0  0  0  0  0  0  0  0  0  0  0
  -23.1197  -13.5746   27.7114 C   0  0  1  0  0  0  0  0  0  0  0  0
  -24.5806  -16.1598   25.3551 C   0  0  2  0  0  0  0  0  0  0  0  0
  -30.8303  -11.3034   30.2288 C   0  0  1  0  0  0  0  0  0  1  0  0
  -21.8269  -12.7970   27.3356 C   0  0  0  0  0  0  0  0  0  0  0  0
  -29.6395  -14.8110   27.2813 N   0  0  0  0  0  0  0  0  0  0  0  0
  -25.8697  -11.5656   20.5981 N   0  0  0  0  0  0  0  0  0  0  0  0
  -30.9063  -13.0116   26.2992 N   0  0  0  0  0  0  0  0  0  0  0  0
  -26.2533  -12.8440   20.4409 N   0  0  0  0  0  0  0  0  0  0  0  0
  -24.1129  -13.6081   29.9777 N   0  0  0  0  0  0  0  0  0  0  0  0
  -30.0533  -12.4676   20.6054 N   0  0  0  0  0  0  0  0  0  0  0  0
  -30.1889  -15.5547   23.7200 N   0  0  0  0  0  0  0  0  0  0  0  0
  -25.4414  -15.0689   20.4051 N   0  0  0  0  0  0  0  0  0  0  0  0
  -21.7290  -12.6175   21.1831 N   0  0  0  0  0  0  0  0  0  0  0  0
  -30.3141  -12.9821   28.5454 N   0  0  0  0  0  0  0  0  0  0  0  0
  -22.5980  -13.0201   33.1541 N   0  0  0  0  0  0  0  0  0  0  0  0
  -23.3824  -14.7384   26.8717 N   0  0  0  0  0  0  0  0  0  0  0  0
  -30.6356  -12.7237   22.8833 N   0  0  0  0  0  0  0  0  0  0  0  0
  -25.6904  -17.0339   25.8296 N   0  3  0  0  0  0  0  0  0  0  0  0
  -22.5246  -14.7468   20.8795 O   0  0  0  0  0  0  0  0  0  0  0  0
  -23.5775  -11.5867   31.6022 O   0  0  0  0  0  0  0  0  0  0  0  0
  -22.2112  -14.8632   29.4835 O   0  0  0  0  0  0  0  0  0  0  0  0
  -25.4691  -14.0509   26.1299 O   0  0  0  0  0  0  0  0  0  0  0  0
  -32.2147  -13.0114   21.2461 O   0  0  0  0  0  0  0  0  0  0  0  0
  -21.4810   -7.0709   21.6402 O   0  0  0  0  0  0  0  0  0  0  0  0
  -29.5452  -10.7238   30.4504 O   0  0  0  0  0  0  0  0  0  1  0  0
  -23.4543   -3.2673   25.1104 F   0  0  0  0  0  0  0  0  0  0  0  0
  -20.0689   -6.3478   23.9043 F   0  0  0  0  0  0  0  0  0  0  0  0
  1  2  1  0  0  0  0
  1  5  2  0  0  0  0
  2  6  2  0  0  0  0
  3  8  2  0  0  0  0
  3 16  1  0  0  0  0
  4  9  1  0  0  0  0
  4 16  2  0  0  0  0
  5 18  1  0  0  0  0
  6 20  1  0  0  0  0
  7 10  2  0  0  0  0
  7 19  1  0  0  0  0
  8 23  1  0  0  0  0
  9 23  2  0  0  0  0
 10 24  1  0  0  0  0
 11 12  2  0  0  0  0
 11 25  1  0  0  0  0
 12 26  1  0  0  0  0
 13 21  1  0  0  0  0
 13 24  2  0  0  0  0
 14 26  2  0  0  0  0
 14 27  1  0  0  0  0
 15 22  1  0  0  0  0
 15 61  2  0  0  0  0
 16 28  1  0  0  0  0
 17 28  1  0  0  0  0
 17 30  2  0  0  0  0
 17 32  1  0  0  0  0
 18 20  2  0  0  0  0
 18 37  1  0  0  0  0
 19 21  2  0  0  0  0
 19 38  1  0  0  0  0
 20 46  1  0  0  0  0
 21 39  1  0  0  0  0
 22 29  2  0  0  0  0
 22 67  1  0  0  0  0
 23 80  1  0  0  0  0
 24 81  1  0  0  0  0
 25 27  2  0  0  0  0
 25 80  1  0  0  0  0
 26 82  1  0  0  0  0
 27 83  1  0  0  0  0
 28 62  2  0  0  0  0
 29 55  1  0  0  0  0
 29 63  1  0  0  0  0
 30 64  1  0  0  0  0
 30 68  1  0  0  0  0
 31 61  1  0  0  0  0
 31 63  2  0  0  0  0
 31 70  1  0  0  0  0
 32 69  1  0  0  0  0
 32 75  2  0  0  0  0
 33 47  1  0  0  0  0
 33 71  1  0  0  0  0
 33 76  2  0  0  0  0
 34 57  1  0  0  0  0
 34 65  1  0  0  0  0
 34 77  2  0  0  0  0
 35 58  1  0  0  0  0
 35 72  1  0  0  0  0
 35 78  2  0  0  0  0
 36 66  1  0  0  0  0
 36 73  1  0  0  0  0
 36 79  2  0  0  0  0
 37 40  1  0  0  0  0
 38 47  1  0  0  0  0
 39 65  1  0  0  0  0
 40 42  1  0  0  0  0
 41 43  1  0  0  0  0
 41 44  1  0  0  0  0
 42 46  1  0  0  0  0
 43 48  1  0  0  0  0
 44 66  1  0  0  0  0
 45 48  1  0  0  0  0
 45 66  1  0  0  0  0
 46 71  1  0  0  0  0
 47 65  1  0  0  0  0
 48 64  1  0  0  0  0
 49 58  1  0  0  0  0
 50 59  1  0  0  0  0
 51 60  1  0  0  0  0
 52 60  1  0  0  0  0
 53 60  1  0  0  0  0
 54 74  1  0  0  0  0
 55 73  1  0  0  0  0
 56 59  1  0  0  0  0
 56 70  1  0  0  0  0
 57 60  1  0  0  0  0
 57 72  1  0  0  0  0
 58 74  1  0  0  0  0
 59 81  1  0  0  0  0
 62 64  1  0  0  0  0
M  CHG  1  74   1
M  ISO  4  36 100  59 101  73 100  81 101
M  END
> <Batch ID>
0190

> <Smiles>
CNC(C)C(=O)NC(C(=O)N1Cc2cc([101O:1][101CH:1](C)CNc3ncc(N)c(C[100NH:0][100C:0](=O)N4CCCC(n5nc(-c6ccc(Oc7ccc(F)cc7F)cc6)c(C(N)=O)c5N)C4)n3)ccc2CC1C(=O)NC1CCCc2ccccc21)C(C)(C)C

> <Shape>
0.142

> <Color>
0.171

> <Negative vol penalty>
0.000

$$$$

  -OEChem-04052305213D

 85 93  0     1  0  0  0  0  0999 V2000
  -39.0818  -24.2650   29.6321 C   0  0  0  0  0  0  0  0  0  0  0  0
  -38.7540  -23.3928   28.5990 C   0  0  0  0  0  0  0  0  0  0  0  0
  -23.0752   -9.8660   19.9422 C   0  0  0  0  0  0  0  0  0  0  0  0
  -23.8350   -9.8755   22.2355 C   0  0  0  0  0  0  0  0  0  0  0  0
  -38.8087  -25.6265   29.5065 C   0  0  0  0  0  0  0  0  0  0  0  0
  -38.1517  -23.8815   27.4401 C   0  0  0  0  0  0  0  0  0  0  0  0
  -40.2022  -21.9606   23.2270 C   0  0  0  0  0  0  0  0  0  0  0  0
  -22.3316   -8.7129   20.1933 C   0  0  0  0  0  0  0  0  0  0  0  0
  -23.0914   -8.7224   22.4867 C   0  0  0  0  0  0  0  0  0  0  0  0
  -39.8259  -20.6670   22.8684 C   0  0  0  0  0  0  0  0  0  0  0  0
  -19.8635   -7.9243   23.0899 C   0  0  0  0  0  0  0  0  0  0  0  0
  -19.1065   -7.8853   24.2608 C   0  0  0  0  0  0  0  0  0  0  0  0
  -38.2740  -21.5712   21.2580 C   0  0  0  0  0  0  0  0  0  0  0  0
  -20.3485   -5.9489   24.9993 C   0  0  0  0  0  0  0  0  0  0  0  0
  -23.8269  -10.4473   20.9633 C   0  0  0  0  0  0  0  0  0  0  0  0
  -24.1680  -12.9725   20.8408 C   0  0  0  0  0  0  0  0  0  0  0  0
  -38.2116  -26.1335   28.3415 C   0  0  0  0  0  0  0  0  0  0  0  0
  -39.6083  -23.0713   22.6104 C   0  0  0  0  0  0  0  0  0  0  0  0
  -37.8691  -25.2508   27.2994 C   0  0  0  0  0  0  0  0  0  0  0  0
  -38.6464  -22.8779   21.6088 C   0  0  0  0  0  0  0  0  0  0  0  0
  -22.3397   -8.1411   21.4655 C   0  0  0  0  0  0  0  0  0  0  0  0
  -38.8596  -20.4721   21.8858 C   0  0  0  0  0  0  0  0  0  0  0  0
  -20.8629   -6.9755   22.8736 C   0  0  0  0  0  0  0  0  0  0  0  0
  -19.3490   -6.8976   25.2155 C   0  0  0  0  0  0  0  0  0  0  0  0
  -21.1054   -5.9879   23.8283 C   0  0  0  0  0  0  0  0  0  0  0  0
  -24.5956  -11.6382   20.7044 C   0  0  0  0  0  0  0  0  0  0  0  0
  -31.8077  -18.7293   22.2443 C   0  0  0  0  0  0  0  0  0  0  0  0
  -25.2599  -13.7219   20.4768 C   0  0  0  0  0  0  0  0  0  0  0  0
  -30.7058  -19.0960   22.9881 C   0  0  0  0  0  0  0  0  0  0  0  0
  -30.5707  -16.9514   21.8997 C   0  0  0  0  0  0  0  0  0  0  0  0
  -22.8973  -13.4883   21.2591 C   0  0  0  0  0  0  0  0  0  0  0  0
  -37.8421  -25.5161   23.6141 C   0  0  0  0  0  0  0  0  0  0  0  0
  -38.2000  -26.5267   20.5525 C   0  0  0  0  0  0  0  0  0  0  0  0
  -35.4986  -19.0790   22.3731 C   0  0  0  0  0  0  0  0  0  0  0  0
  -38.8170  -25.7299   17.2920 C   0  0  0  0  0  0  0  0  0  0  0  0
  -30.7258  -14.7692   20.6506 C   0  0  0  0  0  0  0  0  0  0  0  0
  -37.8925  -27.6059   28.2711 C   0  0  0  0  0  0  0  0  0  0  0  0
  -40.0445  -24.4600   22.9897 C   0  0  0  0  0  0  0  0  0  0  0  0
  -37.9933  -24.0366   20.9021 C   0  0  0  0  0  0  0  0  0  0  0  0
  -37.5943  -28.0975   26.8570 C   0  0  0  0  0  0  0  0  0  0  0  0
  -29.6121  -12.3528   18.2846 C   0  0  0  0  0  0  0  0  0  0  0  0
  -36.6298  -27.1476   26.1539 C   0  0  0  0  0  0  0  0  0  0  0  0
  -28.1726  -12.0613   18.7144 C   0  0  0  0  0  0  0  0  0  0  0  0
  -30.5272  -12.5830   19.4860 C   0  0  0  0  0  0  0  0  0  0  0  0
  -28.6200  -13.3082   20.8666 C   0  0  0  0  0  0  0  0  0  0  0  0
  -37.2375  -25.7464   26.0166 C   0  0  1  0  0  0  0  0  0  0  0  0
  -39.0027  -25.5245   22.6599 C   0  0  1  0  0  0  0  0  0  0  0  0
  -27.6472  -13.1336   19.6889 C   0  0  2  0  0  0  0  0  0  0  0  0
  -32.9892  -20.4789   20.8533 C   0  0  0  0  0  0  0  0  0  0  0  0
  -39.0077  -26.7642   15.0135 C   0  0  0  0  0  0  0  0  0  0  0  0
  -38.8325  -17.1668   22.7371 C   0  0  0  0  0  0  0  0  0  0  0  0
  -35.1610  -26.7573   20.4055 C   0  0  0  0  0  0  0  0  0  0  0  0
  -35.3590  -26.8576   17.9117 C   0  0  0  0  0  0  0  0  0  0  0  0
  -36.4036  -28.6347   19.3165 C   0  0  0  0  0  0  0  0  0  0  0  0
  -41.6340  -24.8676   17.0090 C   0  0  0  0  0  0  0  0  0  0  0  0
  -36.5236  -17.9773   22.1470 C   0  0  0  0  0  0  0  0  0  0  0  0
  -33.0709  -19.5415   22.0563 C   0  0  2  0  0  0  0  0  0  0  0  0
  -37.4372  -26.3279   19.2650 C   0  0  1  0  0  0  0  0  0  0  0  0
  -39.7567  -26.3385   16.2668 C   0  0  2  0  0  0  0  0  0  0  0  0
  -37.9373  -18.3862   22.5597 C   0  0  2  0  0  0  0  0  0  1  0  0
  -36.1009  -27.1223   19.2392 C   0  0  0  0  0  0  0  0  0  0  0  0
  -25.8605  -11.5423   20.2862 N   0  0  0  0  0  0  0  0  0  0  0  0
  -31.7322  -17.4996   21.6197 N   0  0  0  0  0  0  0  0  0  0  0  0
  -26.2371  -12.8259   20.1566 N   0  0  0  0  0  0  0  0  0  0  0  0
  -38.4489  -25.3750   21.3126 N   0  0  0  0  0  0  0  0  0  0  0  0
  -29.9679  -13.6145   20.3624 N   0  0  0  0  0  0  0  0  0  0  0  0
  -25.4699  -15.0534   20.4024 N   0  0  0  0  0  0  0  0  0  0  0  0
  -30.5170  -20.2359   23.6965 N   0  0  0  0  0  0  0  0  0  0  0  0
  -21.8857  -12.5792   21.5973 N   0  0  0  0  0  0  0  0  0  0  0  0
  -30.0782  -15.6948   21.4681 N   0  0  0  0  0  0  0  0  0  0  0  0
  -38.1978  -25.7157   24.9343 N   0  0  0  0  0  0  0  0  0  0  0  0
  -34.2332  -18.6885   21.9583 N   0  0  0  0  0  0  0  0  0  0  0  0
  -38.3583  -26.6727   18.1875 N   0  0  0  0  0  0  0  0  0  0  0  0
  -40.8050  -25.3540   15.8762 N   0  3  0  0  0  0  0  0  0  0  0  0
  -22.6607  -14.7189   21.3152 O   0  0  0  0  0  0  0  0  0  0  0  0
  -36.7077  -25.3429   23.1842 O   0  0  0  0  0  0  0  0  0  0  0  0
  -38.5678  -27.6609   20.8686 O   0  0  0  0  0  0  0  0  0  0  0  0
  -35.7781  -20.1701   22.8619 O   0  0  0  0  0  0  0  0  0  0  0  0
  -38.5168  -24.5381   17.2956 O   0  0  0  0  0  0  0  0  0  0  0  0
  -31.8549  -14.9378   20.1828 O   0  0  0  0  0  0  0  0  0  0  0  0
  -21.6141   -7.0161   21.7109 O   0  0  0  0  0  0  0  0  0  0  0  0
  -38.4900  -19.2105   21.5343 O   0  0  0  0  0  0  0  0  0  1  0  0
  -18.6231   -6.8613   26.3406 F   0  0  0  0  0  0  0  0  0  0  0  0
  -22.0650   -5.0745   23.6266 F   0  0  0  0  0  0  0  0  0  0  0  0
  -29.5201  -17.8595   22.9079 S   0  0  0  0  0  0  0  0  0  0  0  0
  1  2  1  0  0  0  0
  1  5  2  0  0  0  0
  2  6  2  0  0  0  0
  3  8  2  0  0  0  0
  3 15  1  0  0  0  0
  4  9  1  0  0  0  0
  4 15  2  0  0  0  0
  5 17  1  0  0  0  0
  6 19  1  0  0  0  0
  7 10  2  0  0  0  0
  7 18  1  0  0  0  0
  8 21  1  0  0  0  0
  9 21  2  0  0  0  0
 10 22  1  0  0  0  0
 11 12  2  0  0  0  0
 11 23  1  0  0  0  0
 12 24  1  0  0  0  0
 13 20  1  0  0  0  0
 13 22  2  0  0  0  0
 14 24  2  0  0  0  0
 14 25  1  0  0  0  0
 15 26  1  0  0  0  0
 16 26  1  0  0  0  0
 16 28  2  0  0  0  0
 16 31  1  0  0  0  0
 17 19  2  0  0  0  0
 17 37  1  0  0  0  0
 18 20  2  0  0  0  0
 18 38  1  0  0  0  0
 19 46  1  0  0  0  0
 20 39  1  0  0  0  0
 21 81  1  0  0  0  0
 22 82  1  0  0  0  0
 23 25  2  0  0  0  0
 23 81  1  0  0  0  0
 24 83  1  0  0  0  0
 25 84  1  0  0  0  0
 26 62  2  0  0  0  0
 27 29  2  0  0  0  0
 27 57  1  0  0  0  0
 27 63  1  0  0  0  0
 28 64  1  0  0  0  0
 28 67  1  0  0  0  0
 29 68  1  0  0  0  0
 29 85  1  0  0  0  0
 30 63  2  0  0  0  0
 30 70  1  0  0  0  0
 30 85  1  0  0  0  0
 31 69  1  0  0  0  0
 31 75  2  0  0  0  0
 32 47  1  0  0  0  0
 32 71  1  0  0  0  0
 32 76  2  0  0  0  0
 33 58  1  0  0  0  0
 33 65  1  0  0  0  0
 33 77  2  0  0  0  0
 34 56  1  0  0  0  0
 34 72  1  0  0  0  0
 34 78  2  0  0  0  0
 35 59  1  0  0  0  0
 35 73  1  0  0  0  0
 35 79  2  0  0  0  0
 36 66  1  0  0  0  0
 36 70  1  0  0  0  0
 36 80  2  0  0  0  0
 37 40  1  0  0  0  0
 38 47  1  0  0  0  0
 39 65  1  0  0  0  0
 40 42  1  0  0  0  0
 41 43  1  0  0  0  0
 41 44  1  0  0  0  0
 42 46  1  0  0  0  0
 43 48  1  0  0  0  0
 44 66  1  0  0  0  0
 45 48  1  0  0  0  0
 45 66  1  0  0  0  0
 46 71  1  0  0  0  0
 47 65  1  0  0  0  0
 48 64  1  0  0  0  0
 49 57  1  0  0  0  0
 50 59  1  0  0  0  0
 51 60  1  0  0  0  0
 52 61  1  0  0  0  0
 53 61  1  0  0  0  0
 54 61  1  0  0  0  0
 55 74  1  0  0  0  0
 56 60  1  0  0  0  0
 57 72  1  0  0  0  0
 58 61  1  0  0  0  0
 58 73  1  0  0  0  0
 59 74  1  0  0  0  0
 60 82  1  0  0  0  0
 62 64  1  0  0  0  0
M  CHG  1  74   1
M  ISO  4  36 100  60 101  70 100  82 101
M  END
> <Batch ID>
0190

> <Smiles>
CNC(C)C(=O)NC(C(=O)N1Cc2cc([101O:1][101CH:1](C)CC(=O)NC(C)c3nc([100NH:0][100C:0](=O)N4CCCC(n5nc(-c6ccc(Oc7ccc(F)cc7F)cc6)c(C(N)=O)c5N)C4)sc3N)ccc2CC1C(=O)NC1CCCc2ccccc21)C(C)(C)C

> <Shape>
0.167

> <Color>
0.180

> <Negative vol penalty>
0.000

$$$$

  -OEChem-04052305213D

 84 92  0     1  0  0  0  0  0999 V2000
  -24.1717  -23.0488   18.8498 C   0  0  0  0  0  0  0  0  0  0  0  0
  -24.7879  -21.9560   18.2508 C   0  0  0  0  0  0  0  0  0  0  0  0
  -26.3986  -28.6138   19.0458 C   0  0  0  0  0  0  0  0  0  0  0  0
  -26.3735  -27.3745   21.1195 C   0  0  0  0  0  0  0  0  0  0  0  0
  -23.7187  -22.9549   20.1640 C   0  0  0  0  0  0  0  0  0  0  0  0
  -24.9406  -20.7651   18.9617 C   0  0  0  0  0  0  0  0  0  0  0  0
  -27.7402  -15.5724   17.4364 C   0  0  0  0  0  0  0  0  0  0  0  0
  -25.2975  -29.3546   19.4752 C   0  0  0  0  0  0  0  0  0  0  0  0
  -25.2725  -28.1153   21.5490 C   0  0  0  0  0  0  0  0  0  0  0  0
  -29.0081  -15.0087   17.5719 C   0  0  0  0  0  0  0  0  0  0  0  0
  -24.6882  -31.1778   22.8529 C   0  0  0  0  0  0  0  0  0  0  0  0
  -24.7056  -31.6630   24.1605 C   0  0  0  0  0  0  0  0  0  0  0  0
  -28.2632  -13.8196   19.5341 C   0  0  0  0  0  0  0  0  0  0  0  0
  -22.6978  -30.4120   24.6514 C   0  0  0  0  0  0  0  0  0  0  0  0
  -31.0844  -19.6489   20.3920 C   0  0  0  0  0  0  0  0  0  0  0  0
  -26.9366  -27.6237   19.8679 C   0  0  0  0  0  0  0  0  0  0  0  0
  -29.4336  -27.1624   19.6234 C   0  0  0  0  0  0  0  0  0  0  0  0
  -23.8774  -21.7659   20.8948 C   0  0  0  0  0  0  0  0  0  0  0  0
  -26.7257  -15.2720   18.3566 C   0  0  0  0  0  0  0  0  0  0  0  0
  -24.4685  -20.6428   20.2811 C   0  0  0  0  0  0  0  0  0  0  0  0
  -26.9825  -14.3788   19.4066 C   0  0  0  0  0  0  0  0  0  0  0  0
  -24.7344  -29.1054   20.7268 C   0  0  0  0  0  0  0  0  0  0  0  0
  -29.2706  -14.1344   18.6225 C   0  0  0  0  0  0  0  0  0  0  0  0
  -23.6756  -30.3097   22.4445 C   0  0  0  0  0  0  0  0  0  0  0  0
  -23.7105  -31.2801   25.0598 C   0  0  0  0  0  0  0  0  0  0  0  0
  -22.6804  -29.9268   23.3438 C   0  0  0  0  0  0  0  0  0  0  0  0
  -28.0737  -26.8577   19.4247 C   0  0  0  0  0  0  0  0  0  0  0  0
  -30.0668  -18.7520   20.1433 C   0  0  0  0  0  0  0  0  0  0  0  0
  -30.1087  -26.1316   19.0165 C   0  0  0  0  0  0  0  0  0  0  0  0
  -31.6947  -17.3201   20.4744 C   0  0  0  0  0  0  0  0  0  0  0  0
  -30.0331  -28.2774   20.2965 C   0  0  0  0  0  0  0  0  0  0  0  0
  -25.0014  -16.9606   20.4252 C   0  0  0  0  0  0  0  0  0  0  0  0
  -23.4366  -14.1469   20.8213 C   0  0  0  0  0  0  0  0  0  0  0  0
  -23.4981  -10.7418   20.6018 C   0  0  0  0  0  0  0  0  0  0  0  0
  -28.6302  -20.4654   17.7678 C   0  0  0  0  0  0  0  0  0  0  0  0
  -23.3615  -21.7167   22.3114 C   0  0  0  0  0  0  0  0  0  0  0  0
  -25.3557  -15.8675   18.1812 C   0  0  0  0  0  0  0  0  0  0  0  0
  -25.9219  -14.0079   20.4096 C   0  0  0  0  0  0  0  0  0  0  0  0
  -23.9617  -20.5735   23.1233 C   0  0  0  0  0  0  0  0  0  0  0  0
  -29.6869  -22.9609   15.4585 C   0  0  0  0  0  0  0  0  0  0  0  0
  -23.8586  -19.2716   22.3428 C   0  0  0  0  0  0  0  0  0  0  0  0
  -29.5160  -24.2700   16.2311 C   0  0  0  0  0  0  0  0  0  0  0  0
  -28.5830  -21.9600   15.7929 C   0  0  0  0  0  0  0  0  0  0  0  0
  -28.2414  -22.9932   18.0041 C   0  0  0  0  0  0  0  0  0  0  0  0
  -24.6729  -19.3470   21.0450 C   0  0  1  0  0  0  0  0  0  0  0  0
  -24.5447  -15.8917   19.4731 C   0  0  1  0  0  0  0  0  0  0  0  0
  -29.3625  -24.0134   17.7423 C   0  0  2  0  0  0  0  0  0  0  0  0
  -22.0833   -8.7142   21.0317 C   0  0  0  0  0  0  0  0  0  0  0  0
  -34.0569  -14.8447   18.2979 C   0  0  0  0  0  0  0  0  0  0  0  0
  -32.5702  -13.4992   16.8036 C   0  0  0  0  0  0  0  0  0  0  0  0
  -32.5902  -13.7889   21.1786 C   0  0  0  0  0  0  0  0  0  0  0  0
  -23.9494  -14.4270   23.8160 C   0  0  0  0  0  0  0  0  0  0  0  0
  -23.3877  -12.0003   24.0685 C   0  0  0  0  0  0  0  0  0  0  0  0
  -21.6669  -13.5955   23.2217 C   0  0  0  0  0  0  0  0  0  0  0  0
  -23.5714   -9.9436   17.7529 C   0  0  0  0  0  0  0  0  0  0  0  0
  -28.6645  -19.1010   19.8406 C   0  0  0  0  0  0  0  0  0  0  0  0
  -23.6012  -12.9504   21.7269 C   0  0  1  0  0  0  0  0  0  0  0  0
  -22.5121   -9.7528   20.0068 C   0  0  2  0  0  0  0  0  0  0  0  0
  -32.8648  -13.8868   18.2592 C   0  0  0  0  0  0  0  0  0  0  0  0
  -31.7554  -14.8261   20.4292 C   0  0  2  0  0  0  0  0  0  0  0  0
  -31.6029  -14.4809   18.9329 C   0  0  2  0  0  0  0  0  0  1  0  0
  -23.1720  -13.2516   23.1907 C   0  0  0  0  0  0  0  0  0  0  0  0
  -27.8937  -25.7223   18.7445 N   0  0  0  0  0  0  0  0  0  0  0  0
  -30.4149  -17.4161   20.1896 N   0  0  0  0  0  0  0  0  0  0  0  0
  -29.1494  -25.3046   18.5106 N   0  0  0  0  0  0  0  0  0  0  0  0
  -24.6002  -14.6212   20.1991 N   0  0  0  0  0  0  0  0  0  0  0  0
  -28.4908  -21.7601   17.2411 N   0  0  0  0  0  0  0  0  0  0  0  0
  -31.4233  -25.8611   18.8716 N   0  0  0  0  0  0  0  0  0  0  0  0
  -29.1933  -29.2454   20.8640 N   0  0  0  0  0  0  0  0  0  0  0  0
  -32.3773  -16.1241   20.5985 N   0  0  0  0  0  0  0  0  0  0  0  0
  -24.3835  -18.1823   20.2378 N   0  0  0  0  0  0  0  0  0  0  0  0
  -22.8627  -11.8594   21.1002 N   0  0  0  0  0  0  0  0  0  0  0  0
  -28.5358  -20.3651   19.1505 N   0  0  0  0  0  0  0  0  0  0  0  0
  -23.1248   -9.0442   18.8477 N   0  3  0  0  0  0  0  0  0  0  0  0
  -31.2767  -28.4199   20.3776 O   0  0  0  0  0  0  0  0  0  0  0  0
  -25.8503  -16.6962   21.2684 O   0  0  0  0  0  0  0  0  0  0  0  0
  -22.3158  -14.6381   20.6658 O   0  0  0  0  0  0  0  0  0  0  0  0
  -24.7104  -10.5411   20.6257 O   0  0  0  0  0  0  0  0  0  0  0  0
  -28.8296  -19.4732   17.0588 O   0  0  0  0  0  0  0  0  0  0  0  0
  -23.6601  -29.8282   21.1462 O   0  0  0  0  0  0  0  0  0  0  0  0
  -30.5075  -13.5833   18.7574 O   0  0  0  0  0  0  0  0  0  1  0  0
  -23.7282  -31.7449   26.3159 F   0  0  0  0  0  0  0  0  0  0  0  0
  -21.7057  -29.0922   22.9576 F   0  0  0  0  0  0  0  0  0  0  0  0
  -32.5403  -18.7963   20.6997 S   0  0  0  0  0  0  0  0  0  0  0  0
  1  2  1  0  0  0  0
  1  5  2  0  0  0  0
  2  6  2  0  0  0  0
  3  8  2  0  0  0  0
  3 16  1  0  0  0  0
  4  9  1  0  0  0  0
  4 16  2  0  0  0  0
  5 18  1  0  0  0  0
  6 20  1  0  0  0  0
  7 10  2  0  0  0  0
  7 19  1  0  0  0  0
  8 22  1  0  0  0  0
  9 22  2  0  0  0  0
 10 23  1  0  0  0  0
 11 12  2  0  0  0  0
 11 24  1  0  0  0  0
 12 25  1  0  0  0  0
 13 21  1  0  0  0  0
 13 23  2  0  0  0  0
 14 25  2  0  0  0  0
 14 26  1  0  0  0  0
 15 28  2  0  0  0  0
 15 84  1  0  0  0  0
 16 27  1  0  0  0  0
 17 27  1  0  0  0  0
 17 29  2  0  0  0  0
 17 31  1  0  0  0  0
 18 20  2  0  0  0  0
 18 36  1  0  0  0  0
 19 21  2  0  0  0  0
 19 37  1  0  0  0  0
 20 45  1  0  0  0  0
 21 38  1  0  0  0  0
 22 80  1  0  0  0  0
 23 81  1  0  0  0  0
 24 26  2  0  0  0  0
 24 80  1  0  0  0  0
 25 82  1  0  0  0  0
 26 83  1  0  0  0  0
 27 63  2  0  0  0  0
 28 56  1  0  0  0  0
 28 64  1  0  0  0  0
 29 65  1  0  0  0  0
 29 68  1  0  0  0  0
 30 64  2  0  0  0  0
 30 70  1  0  0  0  0
 30 84  1  0  0  0  0
 31 69  1  0  0  0  0
 31 75  2  0  0  0  0
 32 46  1  0  0  0  0
 32 71  1  0  0  0  0
 32 76  2  0  0  0  0
 33 57  1  0  0  0  0
 33 66  1  0  0  0  0
 33 77  2  0  0  0  0
 34 58  1  0  0  0  0
 34 72  1  0  0  0  0
 34 78  2  0  0  0  0
 35 67  1  0  0  0  0
 35 73  1  0  0  0  0
 35 79  2  0  0  0  0
 36 39  1  0  0  0  0
 37 46  1  0  0  0  0
 38 66  1  0  0  0  0
 39 41  1  0  0  0  0
 40 42  1  0  0  0  0
 40 43  1  0  0  0  0
 41 45  1  0  0  0  0
 42 47  1  0  0  0  0
 43 67  1  0  0  0  0
 44 47  1  0  0  0  0
 44 67  1  0  0  0  0
 45 71  1  0  0  0  0
 46 66  1  0  0  0  0
 47 65  1  0  0  0  0
 48 58  1  0  0  0  0
 49 59  1  0  0  0  0
 50 59  1  0  0  0  0
 51 60  1  0  0  0  0
 52 62  1  0  0  0  0
 53 62  1  0  0  0  0
 54 62  1  0  0  0  0
 55 74  1  0  0  0  0
 56 73  1  0  0  0  0
 57 62  1  0  0  0  0
 57 72  1  0  0  0  0
 58 74  1  0  0  0  0
 59 61  1  0  0  0  0
 60 61  1  0  0  0  0
 60 70  1  0  0  0  0
 61 81  1  0  0  0  0
 63 65  1  0  0  0  0
M  CHG  1  74   1
M  ISO  4  35 100  61 101  73 100  81 101
M  END
> <Batch ID>
0190

> <Smiles>
CNC(C)C(=O)NC(C(=O)N1Cc2cc([101O:1][101CH:1](C(C)C)C(C)Nc3nc(C[100NH:0][100C:0](=O)N4CCCC(n5nc(-c6ccc(Oc7ccc(F)cc7F)cc6)c(C(N)=O)c5N)C4)cs3)ccc2CC1C(=O)NC1CCCc2ccccc21)C(C)(C)C

> <Shape>
0.253

> <Color>
0.064

> <Negative vol penalty>
0.000

$$$$

  -OEChem-04052305213D

 83 91  0     1  0  0  0  0  0999 V2000
  -21.7684  -21.5061   26.5527 C   0  0  0  0  0  0  0  0  0  0  0  0
  -23.1016  -21.6459   26.1806 C   0  0  0  0  0  0  0  0  0  0  0  0
  -24.9960  -13.2468   22.0280 C   0  0  0  0  0  0  0  0  0  0  0  0
  -26.2648  -13.3892   19.9770 C   0  0  0  0  0  0  0  0  0  0  0  0
  -20.7814  -22.2370   25.8927 C   0  0  0  0  0  0  0  0  0  0  0  0
  -23.4485  -22.5160   25.1476 C   0  0  0  0  0  0  0  0  0  0  0  0
  -28.7229  -26.8966   23.0722 C   0  0  0  0  0  0  0  0  0  0  0  0
  -24.1844  -12.2660   21.4579 C   0  0  0  0  0  0  0  0  0  0  0  0
  -25.4533  -12.4084   19.4068 C   0  0  0  0  0  0  0  0  0  0  0  0
  -29.5388  -27.1540   21.9713 C   0  0  0  0  0  0  0  0  0  0  0  0
  -24.3631   -8.9521   20.8105 C   0  0  0  0  0  0  0  0  0  0  0  0
  -24.0714   -7.8250   21.5787 C   0  0  0  0  0  0  0  0  0  0  0  0
  -27.7575  -28.4246   20.9557 C   0  0  0  0  0  0  0  0  0  0  0  0
  -21.7145   -8.3362   21.4339 C   0  0  0  0  0  0  0  0  0  0  0  0
  -30.6591  -20.9219   18.4569 C   0  0  0  0  0  0  0  0  0  0  0  0
  -26.0361  -13.8085   21.2875 C   0  0  0  0  0  0  0  0  0  0  0  0
  -28.0660  -14.6253   22.5990 C   0  0  0  0  0  0  0  0  0  0  0  0
  -21.1174  -23.1237   24.8576 C   0  0  0  0  0  0  0  0  0  0  0  0
  -27.4122  -27.3930   23.1182 C   0  0  0  0  0  0  0  0  0  0  0  0
  -22.4649  -23.2584   24.4723 C   0  0  0  0  0  0  0  0  0  0  0  0
  -26.9278  -28.1743   22.0593 C   0  0  0  0  0  0  0  0  0  0  0  0
  -24.4131  -11.8467   20.1473 C   0  0  0  0  0  0  0  0  0  0  0  0
  -29.0552  -27.9156   20.9116 C   0  0  0  0  0  0  0  0  0  0  0  0
  -23.3305   -9.7713   20.3540 C   0  0  0  0  0  0  0  0  0  0  0  0
  -22.7472   -7.5170   21.8904 C   0  0  0  0  0  0  0  0  0  0  0  0
  -22.0062   -9.4633   20.6657 C   0  0  0  0  0  0  0  0  0  0  0  0
  -26.8744  -14.8221   21.8757 C   0  0  0  0  0  0  0  0  0  0  0  0
  -29.5291  -21.4791   19.0179 C   0  0  0  0  0  0  0  0  0  0  0  0
  -28.4746  -15.8919   22.9387 C   0  0  0  0  0  0  0  0  0  0  0  0
  -30.1853  -23.1969   17.8227 C   0  0  0  0  0  0  0  0  0  0  0  0
  -28.7431  -13.4067   22.9337 C   0  0  0  0  0  0  0  0  0  0  0  0
  -24.5206  -26.0812   23.2645 C   0  0  0  0  0  0  0  0  0  0  0  0
  -23.5653  -29.1641   23.5897 C   0  0  0  0  0  0  0  0  0  0  0  0
  -24.2203  -32.4713   23.0608 C   0  0  0  0  0  0  0  0  0  0  0  0
  -27.5207  -21.2740   20.5246 C   0  0  0  0  0  0  0  0  0  0  0  0
  -20.0106  -23.8569   24.1419 C   0  0  0  0  0  0  0  0  0  0  0  0
  -26.5538  -27.1290   24.3248 C   0  0  0  0  0  0  0  0  0  0  0  0
  -25.5350  -28.7474   22.0692 C   0  0  0  0  0  0  0  0  0  0  0  0
  -20.5017  -25.0380   23.3088 C   0  0  0  0  0  0  0  0  0  0  0  0
  -26.7485  -20.2649   23.8507 C   0  0  0  0  0  0  0  0  0  0  0  0
  -21.7148  -24.6361   22.4760 C   0  0  0  0  0  0  0  0  0  0  0  0
  -26.8076  -18.7369   23.7889 C   0  0  0  0  0  0  0  0  0  0  0  0
  -26.1698  -20.8624   22.5693 C   0  0  0  0  0  0  0  0  0  0  0  0
  -26.8824  -18.8958   21.2678 C   0  0  0  0  0  0  0  0  0  0  0  0
  -22.8834  -24.2107   23.3732 C   0  0  1  0  0  0  0  0  0  0  0  0
  -25.0611  -27.2526   24.0348 C   0  0  1  0  0  0  0  0  0  0  0  0
  -27.5185  -18.2517   22.5104 C   0  0  2  0  0  0  0  0  0  0  0  0
  -23.2351  -34.7539   23.4024 C   0  0  0  0  0  0  0  0  0  0  0  0
  -27.9760  -25.1604   16.7127 C   0  0  0  0  0  0  0  0  0  0  0  0
  -21.6620  -28.6897   21.2525 C   0  0  0  0  0  0  0  0  0  0  0  0
  -21.4262  -31.1724   21.0312 C   0  0  0  0  0  0  0  0  0  0  0  0
  -20.6968  -30.0339   23.1275 C   0  0  0  0  0  0  0  0  0  0  0  0
  -26.4736  -33.3130   24.7851 C   0  0  0  0  0  0  0  0  0  0  0  0
  -31.0551  -27.2051   17.9968 C   0  0  0  0  0  0  0  0  0  0  0  0
  -30.8274  -27.1826   19.5052 C   0  0  0  0  0  0  0  0  0  1  0  0
  -23.1663  -30.2658   22.6378 C   0  0  1  0  0  0  0  0  0  0  0  0
  -24.1362  -33.6748   23.9822 C   0  0  2  0  0  0  0  0  0  0  0  0
  -29.2289  -25.4821   17.5243 C   0  0  2  0  0  0  0  0  0  0  0  0
  -29.7859  -26.8808   17.1977 C   0  0  2  0  0  0  0  0  0  0  0  0
  -21.7635  -30.0282   22.0109 C   0  0  0  0  0  0  0  0  0  0  0  0
  -26.5471  -16.1121   21.7622 N   0  0  0  0  0  0  0  0  0  0  0  0
  -29.2561  -22.7838   18.6557 N   0  0  0  0  0  0  0  0  0  0  0  0
  -27.5391  -16.7373   22.4188 N   0  0  0  0  0  0  0  0  0  0  0  0
  -24.7321  -28.4562   23.2683 N   0  0  0  0  0  0  0  0  0  0  0  0
  -26.8955  -20.3611   21.4002 N   0  0  0  0  0  0  0  0  0  0  0  0
  -29.5391  -16.3537   23.6285 N   0  0  0  0  0  0  0  0  0  0  0  0
  -28.1863  -12.1937   22.5059 N   0  0  0  0  0  0  0  0  0  0  0  0
  -28.6768  -20.7884   19.9146 N   0  0  0  0  0  0  0  0  0  0  0  0
  -30.2214  -24.4592   17.2599 N   0  0  0  0  0  0  0  0  0  0  0  0
  -23.5402  -25.3727   23.9326 N   0  0  0  0  0  0  0  0  0  0  0  0
  -23.2833  -31.5132   23.3851 N   0  0  0  0  0  0  0  0  0  0  0  0
  -25.4905  -34.2587   24.1966 N   0  3  0  0  0  0  0  0  0  0  0  0
  -29.8016  -13.3927   23.6068 O   0  0  0  0  0  0  0  0  0  0  0  0
  -24.9593  -25.8391   22.1462 O   0  0  0  0  0  0  0  0  0  0  0  0
  -22.8713  -28.9446   24.5856 O   0  0  0  0  0  0  0  0  0  0  0  0
  -25.0333  -32.3910   22.1425 O   0  0  0  0  0  0  0  0  0  0  0  0
  -27.0793  -22.4129   20.3512 O   0  0  0  0  0  0  0  0  0  0  0  0
  -30.0500  -26.9710   15.7988 O   0  0  0  0  0  0  0  0  0  0  0  0
  -23.6216  -10.8895   19.5908 O   0  0  0  0  0  0  0  0  0  0  0  0
  -29.8493  -28.1677   19.8356 O   0  0  0  0  0  0  0  0  0  1  0  0
  -22.4671   -6.4337   22.6268 F   0  0  0  0  0  0  0  0  0  0  0  0
  -21.0099  -10.2459   20.2290 F   0  0  0  0  0  0  0  0  0  0  0  0
  -31.4173  -22.0683   17.4310 S   0  0  0  0  0  0  0  0  0  0  0  0
  1  2  1  0  0  0  0
  1  5  2  0  0  0  0
  2  6  2  0  0  0  0
  3  8  2  0  0  0  0
  3 16  1  0  0  0  0
  4  9  1  0  0  0  0
  4 16  2  0  0  0  0
  5 18  1  0  0  0  0
  6 20  1  0  0  0  0
  7 10  2  0  0  0  0
  7 19  1  0  0  0  0
  8 22  1  0  0  0  0
  9 22  2  0  0  0  0
 10 23  1  0  0  0  0
 11 12  2  0  0  0  0
 11 24  1  0  0  0  0
 12 25  1  0  0  0  0
 13 21  1  0  0  0  0
 13 23  2  0  0  0  0
 14 25  2  0  0  0  0
 14 26  1  0  0  0  0
 15 28  2  0  0  0  0
 15 83  1  0  0  0  0
 16 27  1  0  0  0  0
 17 27  1  0  0  0  0
 17 29  2  0  0  0  0
 17 31  1  0  0  0  0
 18 20  2  0  0  0  0
 18 36  1  0  0  0  0
 19 21  2  0  0  0  0
 19 37  1  0  0  0  0
 20 45  1  0  0  0  0
 21 38  1  0  0  0  0
 22 79  1  0  0  0  0
 23 80  1  0  0  0  0
 24 26  2  0  0  0  0
 24 79  1  0  0  0  0
 25 81  1  0  0  0  0
 26 82  1  0  0  0  0
 27 61  2  0  0  0  0
 28 62  1  0  0  0  0
 28 68  1  0  0  0  0
 29 63  1  0  0  0  0
 29 66  1  0  0  0  0
 30 62  2  0  0  0  0
 30 69  1  0  0  0  0
 30 83  1  0  0  0  0
 31 67  1  0  0  0  0
 31 73  2  0  0  0  0
 32 46  1  0  0  0  0
 32 70  1  0  0  0  0
 32 74  2  0  0  0  0
 33 56  1  0  0  0  0
 33 64  1  0  0  0  0
 33 75  2  0  0  0  0
 34 57  1  0  0  0  0
 34 71  1  0  0  0  0
 34 76  2  0  0  0  0
 35 65  1  0  0  0  0
 35 68  1  0  0  0  0
 35 77  2  0  0  0  0
 36 39  1  0  0  0  0
 37 46  1  0  0  0  0
 38 64  1  0  0  0  0
 39 41  1  0  0  0  0
 40 42  1  0  0  0  0
 40 43  1  0  0  0  0
 41 45  1  0  0  0  0
 42 47  1  0  0  0  0
 43 65  1  0  0  0  0
 44 47  1  0  0  0  0
 44 65  1  0  0  0  0
 45 70  1  0  0  0  0
 46 64  1  0  0  0  0
 47 63  1  0  0  0  0
 48 57  1  0  0  0  0
 49 58  1  0  0  0  0
 50 60  1  0  0  0  0
 51 60  1  0  0  0  0
 52 60  1  0  0  0  0
 53 72  1  0  0  0  0
 54 55  1  0  0  0  0
 54 59  1  0  0  0  0
 55 80  1  0  0  0  0
 56 60  1  0  0  0  0
 56 71  1  0  0  0  0
 57 72  1  0  0  0  0
 58 59  1  0  0  0  0
 58 69  1  0  0  0  0
 59 78  1  0  0  0  0
 61 63  1  0  0  0  0
M  CHG  1  72   1
M  ISO  4  35 100  55 101  68 100  80 101
M  END
> <Batch ID>
0190

> <Smiles>
CNC(C)C(=O)NC(C(=O)N1Cc2cc([101O:1][101CH2:1]CC(O)C(C)Nc3nc([100NH:0][100C:0](=O)N4CCCC(n5nc(-c6ccc(Oc7ccc(F)cc7F)cc6)c(C(N)=O)c5N)C4)cs3)ccc2CC1C(=O)NC1CCCc2ccccc21)C(C)(C)C

> <Shape>
0.234

> <Color>
0.065

> <Negative vol penalty>
0.000

$$$$

  -OEChem-04052305213D

 85 93  0     1  0  0  0  0  0999 V2000
  -20.0276   -8.5670   19.2891 C   0  0  0  0  0  0  0  0  0  0  0  0
  -19.8055   -9.8978   19.6283 C   0  0  0  0  0  0  0  0  0  0  0  0
  -29.6411  -28.2534   21.5047 C   0  0  0  0  0  0  0  0  0  0  0  0
  -27.6934  -27.4648   20.3124 C   0  0  0  0  0  0  0  0  0  0  0  0
  -21.2047   -7.9345   19.6869 C   0  0  0  0  0  0  0  0  0  0  0  0
  -20.7600  -10.5966   20.3666 C   0  0  0  0  0  0  0  0  0  0  0  0
  -22.1761  -16.5341   19.8697 C   0  0  0  0  0  0  0  0  0  0  0  0
  -30.4039  -27.2360   20.9316 C   0  0  0  0  0  0  0  0  0  0  0  0
  -28.4562  -26.4474   19.7393 C   0  0  0  0  0  0  0  0  0  0  0  0
  -21.7911  -17.6548   20.6042 C   0  0  0  0  0  0  0  0  0  0  0  0
  -29.6728  -23.4286   20.6545 C   0  0  0  0  0  0  0  0  0  0  0  0
  -29.1266  -22.1454   20.6283 C   0  0  0  0  0  0  0  0  0  0  0  0
  -19.3085  -28.7938   22.9230 C   0  0  0  0  0  0  0  0  0  0  0  0
  -23.8017  -17.4726   21.9246 C   0  0  0  0  0  0  0  0  0  0  0  0
  -20.3131  -26.6498   23.3453 C   0  0  0  0  0  0  0  0  0  0  0  0
  -29.2601  -22.1379   18.2159 C   0  0  0  0  0  0  0  0  0  0  0  0
  -18.8900  -28.2964   21.6994 C   0  0  0  0  0  0  0  0  0  0  0  0
  -28.2858  -28.3679   21.1952 C   0  0  0  0  0  0  0  0  0  0  0  0
  -27.2853  -30.7130   21.2768 C   0  0  0  0  0  0  0  0  0  0  0  0
  -22.1784   -8.6287   20.4222 C   0  0  0  0  0  0  0  0  0  0  0  0
  -23.3735  -15.8666   20.1648 C   0  0  0  0  0  0  0  0  0  0  0  0
  -21.9506   -9.9723   20.7758 C   0  0  0  0  0  0  0  0  0  0  0  0
  -24.2009  -16.3452   21.1907 C   0  0  0  0  0  0  0  0  0  0  0  0
  -20.0331  -27.9485   23.7558 C   0  0  0  0  0  0  0  0  0  0  0  0
  -29.8115  -26.3329   20.0489 C   0  0  0  0  0  0  0  0  0  0  0  0
  -22.6026  -18.1226   21.6337 C   0  0  0  0  0  0  0  0  0  0  0  0
  -30.0126  -24.0665   19.4615 C   0  0  0  0  0  0  0  0  0  0  0  0
  -28.9202  -21.5001   19.4090 C   0  0  0  0  0  0  0  0  0  0  0  0
  -29.8063  -23.4212   18.2422 C   0  0  0  0  0  0  0  0  0  0  0  0
  -27.4972  -29.4183   21.7873 C   0  0  0  0  0  0  0  0  0  0  0  0
  -19.8494  -26.2483   22.1029 C   0  0  0  0  0  0  0  0  0  0  0  0
  -26.4720  -31.3186   22.2032 C   0  0  0  0  0  0  0  0  0  0  0  0
  -27.7794  -31.3145   20.0727 C   0  0  0  0  0  0  0  0  0  0  0  0
  -24.1267  -12.9363   21.1396 C   0  0  0  0  0  0  0  0  0  0  0  0
  -27.1614  -13.9807   20.6680 C   0  0  0  0  0  0  0  0  0  0  0  0
  -20.8469  -23.9544   22.3984 C   0  0  0  0  0  0  0  0  0  0  0  0
  -29.3176  -16.6173   20.4541 C   0  0  0  0  0  0  0  0  0  0  0  0
  -22.5790  -29.1883   26.2229 C   0  0  0  0  0  0  0  0  0  0  0  0
  -23.4139   -7.8889   20.8704 C   0  0  0  0  0  0  0  0  0  0  0  0
  -23.7875  -14.6750   19.3456 C   0  0  0  0  0  0  0  0  0  0  0  0
  -25.5061  -15.6765   21.5339 C   0  0  0  0  0  0  0  0  0  0  0  0
  -24.5422   -8.8092   21.3290 C   0  0  0  0  0  0  0  0  0  0  0  0
  -25.4101  -31.2488   26.8678 C   0  0  0  0  0  0  0  0  0  0  0  0
  -24.0048   -9.8868   22.2654 C   0  0  0  0  0  0  0  0  0  0  0  0
  -26.2469  -31.1301   25.5928 C   0  0  0  0  0  0  0  0  0  0  0  0
  -24.7233  -29.9303   27.2168 C   0  0  0  0  0  0  0  0  0  0  0  0
  -24.7523  -29.2274   24.8549 C   0  0  0  0  0  0  0  0  0  0  0  0
  -22.9733  -10.7711   21.5545 C   0  0  1  0  0  0  0  0  0  0  0  0
  -24.7769  -13.7669   20.0695 C   0  0  1  0  0  0  0  0  0  0  0  0
  -25.4196  -30.5471   24.4314 C   0  0  2  0  0  0  0  0  0  0  0  0
  -31.4737  -17.8349   20.0462 C   0  0  0  0  0  0  0  0  0  0  0  0
  -27.7706  -13.1155   23.5299 C   0  0  0  0  0  0  0  0  0  0  0  0
  -29.8492  -14.5079   23.4343 C   0  0  0  0  0  0  0  0  0  0  0  0
  -29.5672  -12.5821   21.8739 C   0  0  0  0  0  0  0  0  0  0  0  0
  -28.7221  -16.9452   17.5737 C   0  0  0  0  0  0  0  0  0  0  0  0
  -20.5077  -28.4331   25.0834 C   0  0  0  0  0  0  0  0  0  0  0  0
  -20.9260  -22.6616   21.5923 C   0  0  0  0  0  0  0  0  0  0  0  0
  -21.4405  -20.1970   21.6802 C   0  0  0  0  0  0  0  0  0  1  0  0
  -28.1967  -14.6767   21.5181 C   0  0  1  0  0  0  0  0  0  0  0  0
  -30.3880  -16.9631   19.4347 C   0  0  2  0  0  0  0  0  0  0  0  0
  -21.7226  -21.5638   22.2966 C   0  0  1  0  0  0  0  0  0  0  0  0
  -28.8205  -13.7322   22.5841 C   0  0  0  0  0  0  0  0  0  0  0  0
  -19.1427  -27.0410   21.2663 N   0  0  0  0  0  0  0  0  0  0  0  0
  -26.8693  -29.2126   22.9481 N   0  0  0  0  0  0  0  0  0  0  0  0
  -26.2549  -30.3862   23.1747 N   0  0  0  0  0  0  0  0  0  0  0  0
  -25.8642  -14.5112   20.7084 N   0  0  0  0  0  0  0  0  0  0  0  0
  -23.9543  -29.4321   26.0739 N   0  0  0  0  0  0  0  0  0  0  0  0
  -25.9285  -32.5523   22.2736 N   0  0  0  0  0  0  0  0  0  0  0  0
  -28.6028  -30.5513   19.2338 N   0  0  0  0  0  0  0  0  0  0  0  0
  -20.1393  -24.9248   21.6940 N   0  0  0  0  0  0  0  0  0  0  0  0
  -23.6351  -11.7254   20.6909 N   0  0  0  0  0  0  0  0  0  0  0  0
  -29.1646  -15.2539   20.5916 N   0  0  0  0  0  0  0  0  0  0  0  0
  -21.9241  -28.7235   25.0889 N   0  0  0  0  0  0  0  0  0  0  0  0
  -29.7894  -17.6962   18.2836 N   0  3  0  0  0  0  0  0  0  0  0  0
  -27.5123  -32.4992   19.7585 O   0  0  0  0  0  0  0  0  0  0  0  0
  -24.0761  -13.3620   22.2876 O   0  0  0  0  0  0  0  0  0  0  0  0
  -27.4930  -13.0068   19.9875 O   0  0  0  0  0  0  0  0  0  0  0  0
  -21.3542  -24.0637   23.5097 O   0  0  0  0  0  0  0  0  0  0  0  0
  -28.6835  -17.4713   21.0699 O   0  0  0  0  0  0  0  0  0  0  0  0
  -21.9781  -29.3764   27.2861 O   0  0  0  0  0  0  0  0  0  0  0  0
  -23.1135  -21.8523   22.1416 O   0  0  0  0  0  0  0  0  0  0  0  0
  -30.5556  -25.3401   19.4892 O   0  0  0  0  0  0  0  0  0  0  0  0
  -22.2289  -19.2159   22.3527 O   0  0  0  0  0  0  0  0  0  1  0  0
  -28.3971  -20.2673   19.3840 F   0  0  0  0  0  0  0  0  0  0  0  0
  -30.1319  -24.0284   17.0928 F   0  0  0  0  0  0  0  0  0  0  0  0
  1  2  1  0  0  0  0
  1  5  2  0  0  0  0
  2  6  2  0  0  0  0
  3  8  2  0  0  0  0
  3 18  1  0  0  0  0
  4  9  1  0  0  0  0
  4 18  2  0  0  0  0
  5 20  1  0  0  0  0
  6 22  1  0  0  0  0
  7 10  2  0  0  0  0
  7 21  1  0  0  0  0
  8 25  1  0  0  0  0
  9 25  2  0  0  0  0
 10 26  1  0  0  0  0
 11 12  2  0  0  0  0
 11 27  1  0  0  0  0
 12 28  1  0  0  0  0
 13 17  2  0  0  0  0
 13 24  1  0  0  0  0
 14 23  1  0  0  0  0
 14 26  2  0  0  0  0
 15 24  2  0  0  0  0
 15 31  1  0  0  0  0
 16 28  2  0  0  0  0
 16 29  1  0  0  0  0
 17 63  1  0  0  0  0
 18 30  1  0  0  0  0
 19 30  1  0  0  0  0
 19 32  2  0  0  0  0
 19 33  1  0  0  0  0
 20 22  2  0  0  0  0
 20 39  1  0  0  0  0
 21 23  2  0  0  0  0
 21 40  1  0  0  0  0
 22 48  1  0  0  0  0
 23 41  1  0  0  0  0
 24 56  1  0  0  0  0
 25 82  1  0  0  0  0
 26 83  1  0  0  0  0
 27 29  2  0  0  0  0
 27 82  1  0  0  0  0
 28 84  1  0  0  0  0
 29 85  1  0  0  0  0
 30 64  2  0  0  0  0
 31 63  2  0  0  0  0
 31 70  1  0  0  0  0
 32 65  1  0  0  0  0
 32 68  1  0  0  0  0
 33 69  1  0  0  0  0
 33 75  2  0  0  0  0
 34 49  1  0  0  0  0
 34 71  1  0  0  0  0
 34 76  2  0  0  0  0
 35 59  1  0  0  0  0
 35 66  1  0  0  0  0
 35 77  2  0  0  0  0
 36 57  1  0  0  0  0
 36 70  1  0  0  0  0
 36 78  2  0  0  0  0
 37 60  1  0  0  0  0
 37 72  1  0  0  0  0
 37 79  2  0  0  0  0
 38 67  1  0  0  0  0
 38 73  1  0  0  0  0
 38 80  2  0  0  0  0
 39 42  1  0  0  0  0
 40 49  1  0  0  0  0
 41 66  1  0  0  0  0
 42 44  1  0  0  0  0
 43 45  1  0  0  0  0
 43 46  1  0  0  0  0
 44 48  1  0  0  0  0
 45 50  1  0  0  0  0
 46 67  1  0  0  0  0
 47 50  1  0  0  0  0
 47 67  1  0  0  0  0
 48 71  1  0  0  0  0
 49 66  1  0  0  0  0
 50 65  1  0  0  0  0
 51 60  1  0  0  0  0
 52 62  1  0  0  0  0
 53 62  1  0  0  0  0
 54 62  1  0  0  0  0
 55 74  1  0  0  0  0
 56 73  1  0  0  0  0
 57 61  1  0  0  0  0
 58 61  1  0  0  0  0
 58 83  1  0  0  0  0
 59 62  1  0  0  0  0
 59 72  1  0  0  0  0
 60 74  1  0  0  0  0
 61 81  1  0  0  0  0
 64 65  1  0  0  0  0
M  CHG  1  74   1
M  ISO  4  38 100  58 101  73 100  83 101
M  END
> <Batch ID>
0190

> <Smiles>
CNC(C)C(=O)NC(C(=O)N1Cc2cc([101O:1][101CH2:1]C(O)CC(=O)Nc3cc(C[100NH:0][100C:0](=O)N4CCCC(n5nc(-c6ccc(Oc7ccc(F)cc7F)cc6)c(C(N)=O)c5N)C4)ccn3)ccc2CC1C(=O)NC1CCCc2ccccc21)C(C)(C)C

> <Shape>
0.318

> <Color>
0.052

> <Negative vol penalty>
0.000

$$$$

  -OEChem-04052305213D

 88 96  0     1  0  0  0  0  0999 V2000
  -22.9892  -22.9112   19.9442 C   0  0  0  0  0  0  0  0  0  0  0  0
  -24.0128  -21.9833   20.1074 C   0  0  0  0  0  0  0  0  0  0  0  0
  -22.4363  -28.9575   19.4937 C   0  0  0  0  0  0  0  0  0  0  0  0
  -22.5670  -27.8098   21.6156 C   0  0  0  0  0  0  0  0  0  0  0  0
  -21.7115  -22.6298   20.4261 C   0  0  0  0  0  0  0  0  0  0  0  0
  -23.7596  -20.7739   20.7536 C   0  0  0  0  0  0  0  0  0  0  0  0
  -25.7895  -16.8158   18.3333 C   0  0  0  0  0  0  0  0  0  0  0  0
  -21.0534  -29.0680   19.6386 C   0  0  0  0  0  0  0  0  0  0  0  0
  -21.1841  -27.9203   21.7606 C   0  0  0  0  0  0  0  0  0  0  0  0
  -27.1586  -16.6059   18.4926 C   0  0  0  0  0  0  0  0  0  0  0  0
  -18.9588  -30.2939   22.6741 C   0  0  0  0  0  0  0  0  0  0  0  0
  -18.4691  -30.6967   23.9165 C   0  0  0  0  0  0  0  0  0  0  0  0
  -26.6997  -14.8968   20.1319 C   0  0  0  0  0  0  0  0  0  0  0  0
  -28.2154  -21.9409   22.9435 C   0  0  0  0  0  0  0  0  0  0  0  0
  -17.2423  -28.6239   24.1050 C   0  0  0  0  0  0  0  0  0  0  0  0
  -23.1931  -28.3284   20.4822 C   0  0  0  0  0  0  0  0  0  0  0  0
  -25.5983  -29.1291   20.7681 C   0  0  0  0  0  0  0  0  0  0  0  0
  -21.4401  -21.4123   21.0699 C   0  0  0  0  0  0  0  0  0  0  0  0
  -24.8639  -16.0741   19.0813 C   0  0  0  0  0  0  0  0  0  0  0  0
  -22.4773  -20.4765   21.2457 C   0  0  0  0  0  0  0  0  0  0  0  0
  -25.3194  -15.0974   19.9784 C   0  0  0  0  0  0  0  0  0  0  0  0
  -29.6237  -20.0575   23.4475 C   0  0  0  0  0  0  0  0  0  0  0  0
  -20.4273  -28.5494   20.7721 C   0  0  0  0  0  0  0  0  0  0  0  0
  -27.6139  -15.6483   19.3941 C   0  0  0  0  0  0  0  0  0  0  0  0
  -18.5903  -29.0561   22.1471 C   0  0  0  0  0  0  0  0  0  0  0  0
  -28.7028  -21.0147   23.8588 C   0  0  0  0  0  0  0  0  0  0  0  0
  -17.6109  -29.8617   24.6319 C   0  0  0  0  0  0  0  0  0  0  0  0
  -17.7320  -28.2211   22.8625 C   0  0  0  0  0  0  0  0  0  0  0  0
  -24.6216  -28.2134   20.3328 C   0  0  0  0  0  0  0  0  0  0  0  0
  -28.6767  -21.8681   21.6390 C   0  0  0  0  0  0  0  0  0  0  0  0
  -30.0218  -20.0689   22.1204 C   0  0  0  0  0  0  0  0  0  0  0  0
  -26.7916  -28.5639   20.3899 C   0  0  0  0  0  0  0  0  0  0  0  0
  -25.4409  -30.3787   21.4533 C   0  0  0  0  0  0  0  0  0  0  0  0
  -22.6350  -16.7849   21.2331 C   0  0  0  0  0  0  0  0  0  0  0  0
  -21.9303  -13.6294   20.9720 C   0  0  0  0  0  0  0  0  0  0  0  0
  -22.9792  -10.4836   20.1653 C   0  0  0  0  0  0  0  0  0  0  0  0
  -28.4959  -22.9298   19.3617 C   0  0  0  0  0  0  0  0  0  0  0  0
  -20.0547  -21.1728   21.6159 C   0  0  0  0  0  0  0  0  0  0  0  0
  -23.3899  -16.2939   18.8784 C   0  0  0  0  0  0  0  0  0  0  0  0
  -24.3663  -14.2604   20.7906 C   0  0  0  0  0  0  0  0  0  0  0  0
  -19.7787  -19.7107   21.9568 C   0  0  0  0  0  0  0  0  0  0  0  0
  -28.6778  -25.6592   17.0825 C   0  0  0  0  0  0  0  0  0  0  0  0
  -20.9430  -19.1170   22.7434 C   0  0  0  0  0  0  0  0  0  0  0  0
  -27.7519  -26.7096   17.7001 C   0  0  0  0  0  0  0  0  0  0  0  0
  -28.1413  -24.2428   17.2819 C   0  0  0  0  0  0  0  0  0  0  0  0
  -26.8940  -24.9408   19.2884 C   0  0  0  0  0  0  0  0  0  0  0  0
  -22.2359  -19.1431   21.9193 C   0  0  1  0  0  0  0  0  0  0  0  0
  -22.5488  -15.8405   20.0677 C   0  0  1  0  0  0  0  0  0  0  0  0
  -27.4252  -26.3787   19.1696 C   0  0  2  0  0  0  0  0  0  0  0  0
  -29.5094  -17.6852   24.2512 C   0  0  0  0  0  0  0  0  0  0  0  0
  -22.1901   -8.1027   20.0901 C   0  0  0  0  0  0  0  0  0  0  0  0
  -32.4817  -20.1114   20.1345 C   0  0  0  0  0  0  0  0  0  0  0  0
  -22.2049  -13.4452   24.0053 C   0  0  0  0  0  0  0  0  0  0  0  0
  -22.3548  -10.9571   23.7708 C   0  0  0  0  0  0  0  0  0  0  0  0
  -20.2877  -12.1536   23.0510 C   0  0  0  0  0  0  0  0  0  0  0  0
  -23.4077  -10.3120   17.2419 C   0  0  0  0  0  0  0  0  0  0  0  0
  -27.3241  -22.0765   25.4797 C   0  0  0  0  0  0  0  0  0  0  0  0
  -30.1553  -19.0574   24.4199 C   0  0  0  0  0  0  0  0  0  0  0  0
  -32.0308  -17.6332   20.0980 C   0  0  0  0  0  0  0  0  0  0  0  0
  -29.8096  -16.5603   19.3370 C   0  0  0  0  0  0  0  0  0  1  0  0
  -22.3912  -12.3701   21.6653 C   0  0  1  0  0  0  0  0  0  0  0  0
  -22.3475   -9.3993   19.3111 C   0  0  2  0  0  0  0  0  0  0  0  0
  -31.4331  -19.0236   20.3480 C   0  0  1  0  0  0  0  0  0  0  0  0
  -31.0368  -16.4690   20.2409 C   0  0  1  0  0  0  0  0  0  0  0  0
  -21.8279  -12.2484   23.1093 C   0  0  0  0  0  0  0  0  0  0  0  0
  -25.1488  -27.1476   19.7244 N   0  0  0  0  0  0  0  0  0  0  0  0
  -29.5705  -20.9527   21.2023 N   0  0  0  0  0  0  0  0  0  0  0  0
  -26.4697  -27.3900   19.7747 N   0  0  0  0  0  0  0  0  0  0  0  0
  -22.9348  -14.5170   20.5612 N   0  0  0  0  0  0  0  0  0  0  0  0
  -27.8586  -23.9995   18.6981 N   0  0  0  0  0  0  0  0  0  0  0  0
  -28.0744  -28.9616   20.5268 N   0  0  0  0  0  0  0  0  0  0  0  0
  -24.1448  -30.8106   21.7659 N   0  0  0  0  0  0  0  0  0  0  0  0
  -28.1744  -22.8165   20.7138 N   0  0  0  0  0  0  0  0  0  0  0  0
  -30.9376  -19.1186   21.7049 N   0  0  0  0  0  0  0  0  0  0  0  0
  -22.2343  -18.0751   20.9426 N   0  0  0  0  0  0  0  0  0  0  0  0
  -22.0271  -11.2638   20.7867 N   0  0  0  0  0  0  0  0  0  0  0  0
  -23.1899   -9.1278   18.1121 N   0  3  0  0  0  0  0  0  0  0  0  0
  -26.4197  -31.0990   21.7640 O   0  0  0  0  0  0  0  0  0  0  0  0
  -23.0339  -16.3732   22.3162 O   0  0  0  0  0  0  0  0  0  0  0  0
  -20.7237  -13.8152   20.7949 O   0  0  0  0  0  0  0  0  0  0  0  0
  -24.1956  -10.6223   20.2735 O   0  0  0  0  0  0  0  0  0  0  0  0
  -29.2909  -22.1869   18.7802 O   0  0  0  0  0  0  0  0  0  0  0  0
  -31.7205  -15.2545   19.9193 O   0  0  0  0  0  0  0  0  0  0  0  0
  -19.0780  -28.6573   20.9139 O   0  0  0  0  0  0  0  0  0  0  0  0
  -28.2690  -21.0605   25.1490 O   0  0  0  0  0  0  0  0  0  0  0  0
  -28.9497  -15.4419   19.5520 O   0  0  0  0  0  0  0  0  0  1  0  0
  -17.1419  -30.2480   25.8256 F   0  0  0  0  0  0  0  0  0  0  0  0
  -17.3754  -27.0303   22.3620 F   0  0  0  0  0  0  0  0  0  0  0  0
  1  2  1  0  0  0  0
  1  5  2  0  0  0  0
  2  6  2  0  0  0  0
  3  8  2  0  0  0  0
  3 16  1  0  0  0  0
  4  9  1  0  0  0  0
  4 16  2  0  0  0  0
  5 18  1  0  0  0  0
  6 20  1  0  0  0  0
  7 10  2  0  0  0  0
  7 19  1  0  0  0  0
  8 23  1  0  0  0  0
  9 23  2  0  0  0  0
 10 24  1  0  0  0  0
 11 12  2  0  0  0  0
 11 25  1  0  0  0  0
 12 27  1  0  0  0  0
 13 21  1  0  0  0  0
 13 24  2  0  0  0  0
 14 26  2  0  0  0  0
 14 30  1  0  0  0  0
 15 27  2  0  0  0  0
 15 28  1  0  0  0  0
 16 29  1  0  0  0  0
 17 29  1  0  0  0  0
 17 32  2  0  0  0  0
 17 33  1  0  0  0  0
 18 20  2  0  0  0  0
 18 38  1  0  0  0  0
 19 21  2  0  0  0  0
 19 39  1  0  0  0  0
 20 47  1  0  0  0  0
 21 40  1  0  0  0  0
 22 26  1  0  0  0  0
 22 31  2  0  0  0  0
 22 58  1  0  0  0  0
 23 84  1  0  0  0  0
 24 86  1  0  0  0  0
 25 28  2  0  0  0  0
 25 84  1  0  0  0  0
 26 85  1  0  0  0  0
 27 87  1  0  0  0  0
 28 88  1  0  0  0  0
 29 66  2  0  0  0  0
 30 67  2  0  0  0  0
 30 73  1  0  0  0  0
 31 67  1  0  0  0  0
 31 74  1  0  0  0  0
 32 68  1  0  0  0  0
 32 71  1  0  0  0  0
 33 72  1  0  0  0  0
 33 78  2  0  0  0  0
 34 48  1  0  0  0  0
 34 75  1  0  0  0  0
 34 79  2  0  0  0  0
 35 61  1  0  0  0  0
 35 69  1  0  0  0  0
 35 80  2  0  0  0  0
 36 62  1  0  0  0  0
 36 76  1  0  0  0  0
 36 81  2  0  0  0  0
 37 70  1  0  0  0  0
 37 73  1  0  0  0  0
 37 82  2  0  0  0  0
 38 41  1  0  0  0  0
 39 48  1  0  0  0  0
 40 69  1  0  0  0  0
 41 43  1  0  0  0  0
 42 44  1  0  0  0  0
 42 45  1  0  0  0  0
 43 47  1  0  0  0  0
 44 49  1  0  0  0  0
 45 70  1  0  0  0  0
 46 49  1  0  0  0  0
 46 70  1  0  0  0  0
 47 75  1  0  0  0  0
 48 69  1  0  0  0  0
 49 68  1  0  0  0  0
 50 58  1  0  0  0  0
 51 62  1  0  0  0  0
 52 63  1  0  0  0  0
 53 65  1  0  0  0  0
 54 65  1  0  0  0  0
 55 65  1  0  0  0  0
 56 77  1  0  0  0  0
 57 85  1  0  0  0  0
 59 63  1  0  0  0  0
 59 64  1  0  0  0  0
 60 64  1  0  0  0  0
 60 86  1  0  0  0  0
 61 65  1  0  0  0  0
 61 76  1  0  0  0  0
 62 77  1  0  0  0  0
 63 74  1  0  0  0  0
 64 83  1  0  0  0  0
 66 68  1  0  0  0  0
M  CHG  1  77   1
M  ISO  4  37 100  60 101  73 100  86 101
M  END
> <Batch ID>
0190

> <Smiles>
CCc1c(OC)cc([100NH:0][100C:0](=O)N2CCCC(n3nc(-c4ccc(Oc5ccc(F)cc5F)cc4)c(C(N)=O)c3N)C2)nc1NC(C)CC(O)[101CH2:1][101O:1]c1ccc2c(c1)CN(C(=O)C(NC(=O)C(C)NC)C(C)(C)C)C(C(=O)NC1CCCc3ccccc31)C2

> <Shape>
0.234

> <Color>
0.057

> <Negative vol penalty>
0.000

$$$$

  -OEChem-04052305213D

 80 87  0     1  0  0  0  0  0999 V2000
  -23.2824  -25.2999   27.5968 C   0  0  0  0  0  0  0  0  0  0  0  0
  -24.3396  -24.5376   27.1105 C   0  0  0  0  0  0  0  0  0  0  0  0
  -23.4668   -9.6495   19.9528 C   0  0  0  0  0  0  0  0  0  0  0  0
  -23.5704  -10.0282   22.3367 C   0  0  0  0  0  0  0  0  0  0  0  0
  -22.5577  -24.8590   28.7033 C   0  0  0  0  0  0  0  0  0  0  0  0
  -24.6736  -23.3344   27.7312 C   0  0  0  0  0  0  0  0  0  0  0  0
  -26.7909  -18.2622   25.0302 C   0  0  0  0  0  0  0  0  0  0  0  0
  -22.7698   -8.4613   20.1718 C   0  0  0  0  0  0  0  0  0  0  0  0
  -22.8734   -8.8400   22.5557 C   0  0  0  0  0  0  0  0  0  0  0  0
  -28.0775  -17.7461   24.8810 C   0  0  0  0  0  0  0  0  0  0  0  0
  -21.4364   -5.7260   23.7591 C   0  0  0  0  0  0  0  0  0  0  0  0
  -21.9043   -4.8751   24.7604 C   0  0  0  0  0  0  0  0  0  0  0  0
  -27.7368  -16.3525   26.8204 C   0  0  0  0  0  0  0  0  0  0  0  0
  -24.0162   -4.6756   23.6041 C   0  0  0  0  0  0  0  0  0  0  0  0
  -23.8672  -10.4329   21.0352 C   0  0  0  0  0  0  0  0  0  0  0  0
  -24.0422  -12.9453   20.6294 C   0  0  0  0  0  0  0  0  0  0  0  0
  -22.8767  -23.6450   29.3320 C   0  0  0  0  0  0  0  0  0  0  0  0
  -25.9702  -17.8346   26.0838 C   0  0  0  0  0  0  0  0  0  0  0  0
  -23.9533  -22.8775   28.8480 C   0  0  0  0  0  0  0  0  0  0  0  0
  -26.4393  -16.8628   26.9792 C   0  0  0  0  0  0  0  0  0  0  0  0
  -22.4731   -8.0565   21.4733 C   0  0  0  0  0  0  0  0  0  0  0  0
  -28.5516  -16.7933   25.7779 C   0  0  0  0  0  0  0  0  0  0  0  0
  -22.2584   -6.0517   22.6802 C   0  0  0  0  0  0  0  0  0  0  0  0
  -23.1942   -4.3499   24.6829 C   0  0  0  0  0  0  0  0  0  0  0  0
  -23.5483   -5.5265   22.6028 C   0  0  0  0  0  0  0  0  0  0  0  0
  -24.5877  -11.6601   20.8096 C   0  0  0  0  0  0  0  0  0  0  0  0
  -25.1338  -13.7601   20.4533 C   0  0  0  0  0  0  0  0  0  0  0  0
  -22.6713  -13.3652   20.6218 C   0  0  0  0  0  0  0  0  0  0  0  0
  -24.6062  -19.2504   28.5815 C   0  0  0  0  0  0  0  0  0  0  0  0
  -30.7628  -13.1697   22.2537 C   0  0  0  0  0  0  0  0  0  0  0  0
  -23.2191  -16.3449   28.9769 C   0  0  0  0  0  0  0  0  0  0  0  0
  -23.3344  -12.9797   28.4211 C   0  0  0  0  0  0  0  0  0  0  0  0
  -32.5644  -15.3391   25.2253 C   0  0  0  0  0  0  0  0  0  0  0  0
  -22.0948  -23.2328   30.5540 C   0  0  0  0  0  0  0  0  0  0  0  0
  -24.5751  -18.3813   26.2151 C   0  0  0  0  0  0  0  0  0  0  0  0
  -25.5904  -16.3555   28.1152 C   0  0  0  0  0  0  0  0  0  0  0  0
  -22.2741  -21.7629   30.9247 C   0  0  0  0  0  0  0  0  0  0  0  0
  -29.6305  -13.7124   18.8405 C   0  0  0  0  0  0  0  0  0  0  0  0
  -23.7500  -21.3792   30.8874 C   0  0  0  0  0  0  0  0  0  0  0  0
  -28.1539  -13.3329   18.9443 C   0  0  0  0  0  0  0  0  0  0  0  0
  -30.4985  -12.8432   19.7467 C   0  0  0  0  0  0  0  0  0  0  0  0
  -28.5955  -12.4729   21.2849 C   0  0  0  0  0  0  0  0  0  0  0  0
  -24.3303  -21.5546   29.4789 C   0  0  1  0  0  0  0  0  0  0  0  0
  -24.0133  -18.2523   27.6276 C   0  0  1  0  0  0  0  0  0  0  0  0
  -27.6823  -13.3467   20.4089 C   0  0  2  0  0  0  0  0  0  0  0  0
  -22.5589  -10.5931   28.4130 C   0  0  0  0  0  0  0  0  0  0  0  0
  -34.4382  -13.6426   23.1788 C   0  0  0  0  0  0  0  0  0  0  0  0
  -33.2285  -17.7559   24.9692 C   0  0  0  0  0  0  0  0  0  0  0  0
  -32.2267  -16.9652   27.1148 C   0  0  0  0  0  0  0  0  0  0  0  0
  -24.2620  -16.3764   31.8442 C   0  0  0  0  0  0  0  0  0  0  0  0
  -23.8238  -13.9140   31.9568 C   0  0  0  0  0  0  0  0  0  0  0  0
  -21.9335  -15.5000   31.5906 C   0  0  0  0  0  0  0  0  0  0  0  0
  -21.9821  -13.3064   25.8089 C   0  0  0  0  0  0  0  0  0  0  0  0
  -32.2119  -13.5127   22.0160 C   0  0  0  0  0  0  0  0  0  0  0  0
  -30.7889  -17.1443   25.0517 C   0  0  0  0  0  0  0  0  0  1  0  0
  -23.5796  -15.0801   29.7182 C   0  0  1  0  0  0  0  0  0  0  0  0
  -22.2843  -12.0050   27.9194 C   0  0  2  0  0  0  0  0  0  0  0  0
  -32.9279  -13.7705   23.3426 C   0  0  2  0  0  0  0  0  0  0  0  0
  -32.1942  -16.7965   25.5828 C   0  0  0  0  0  0  0  0  0  0  0  0
  -23.4167  -15.2284   31.2573 C   0  0  0  0  0  0  0  0  0  0  0  0
  -25.9221  -11.6538   20.7531 N   0  0  0  0  0  0  0  0  0  0  0  0
  -26.2243  -12.9451   20.5353 N   0  0  0  0  0  0  0  0  0  0  0  0
  -24.2358  -16.9253   28.2053 N   0  0  0  0  0  0  0  0  0  0  0  0
  -30.0000  -12.8612   21.1271 N   0  0  0  0  0  0  0  0  0  0  0  0
  -25.2577  -15.0870   20.2379 N   0  0  0  0  0  0  0  0  0  0  0  0
  -21.6754  -12.3987   20.8179 N   0  0  0  0  0  0  0  0  0  0  0  0
  -23.9306  -20.4550   28.6271 N   0  0  0  0  0  0  0  0  0  0  0  0
  -22.7698  -14.0181   29.1312 N   0  0  0  0  0  0  0  0  0  0  0  0
  -32.6011  -15.0768   23.8639 N   0  0  0  0  0  0  0  0  0  0  0  0
  -22.2647  -11.9864   26.4293 N   0  3  0  0  0  0  0  0  0  0  0  0
  -22.3386  -14.5593   20.4300 O   0  0  0  0  0  0  0  0  0  0  0  0
  -25.6019  -18.9494   29.2293 O   0  0  0  0  0  0  0  0  0  0  0  0
  -30.3233  -13.1789   23.4065 O   0  0  0  0  0  0  0  0  0  0  0  0
  -22.0755  -16.7971   29.0731 O   0  0  0  0  0  0  0  0  0  0  0  0
  -24.5358  -12.8324   28.2079 O   0  0  0  0  0  0  0  0  0  0  0  0
  -32.8039  -14.4923   26.0868 O   0  0  0  0  0  0  0  0  0  0  0  0
  -21.7928   -6.8973   21.6874 O   0  0  0  0  0  0  0  0  0  0  0  0
  -29.8072  -16.2884   25.6350 O   0  0  0  0  0  0  0  0  0  1  0  0
  -23.6438   -3.5339   25.6454 F   0  0  0  0  0  0  0  0  0  0  0  0
  -24.3431   -5.8367   21.5694 F   0  0  0  0  0  0  0  0  0  0  0  0
  1  2  1  0  0  0  0
  1  5  2  0  0  0  0
  2  6  2  0  0  0  0
  3  8  2  0  0  0  0
  3 15  1  0  0  0  0
  4  9  1  0  0  0  0
  4 15  2  0  0  0  0
  5 17  1  0  0  0  0
  6 19  1  0  0  0  0
  7 10  2  0  0  0  0
  7 18  1  0  0  0  0
  8 21  1  0  0  0  0
  9 21  2  0  0  0  0
 10 22  1  0  0  0  0
 11 12  2  0  0  0  0
 11 23  1  0  0  0  0
 12 24  1  0  0  0  0
 13 20  1  0  0  0  0
 13 22  2  0  0  0  0
 14 24  2  0  0  0  0
 14 25  1  0  0  0  0
 15 26  1  0  0  0  0
 16 26  1  0  0  0  0
 16 27  2  0  0  0  0
 16 28  1  0  0  0  0
 17 19  2  0  0  0  0
 17 34  1  0  0  0  0
 18 20  2  0  0  0  0
 18 35  1  0  0  0  0
 19 43  1  0  0  0  0
 20 36  1  0  0  0  0
 21 77  1  0  0  0  0
 22 78  1  0  0  0  0
 23 25  2  0  0  0  0
 23 77  1  0  0  0  0
 24 79  1  0  0  0  0
 25 80  1  0  0  0  0
 26 61  2  0  0  0  0
 27 62  1  0  0  0  0
 27 65  1  0  0  0  0
 28 66  1  0  0  0  0
 28 71  2  0  0  0  0
 29 44  1  0  0  0  0
 29 67  1  0  0  0  0
 29 72  2  0  0  0  0
 30 54  1  0  0  0  0
 30 64  1  0  0  0  0
 30 73  2  0  0  0  0
 31 56  1  0  0  0  0
 31 63  1  0  0  0  0
 31 74  2  0  0  0  0
 32 57  1  0  0  0  0
 32 68  1  0  0  0  0
 32 75  2  0  0  0  0
 33 59  1  0  0  0  0
 33 69  1  0  0  0  0
 33 76  2  0  0  0  0
 34 37  1  0  0  0  0
 35 44  1  0  0  0  0
 36 63  1  0  0  0  0
 37 39  1  0  0  0  0
 38 40  1  0  0  0  0
 38 41  1  0  0  0  0
 39 43  1  0  0  0  0
 40 45  1  0  0  0  0
 41 64  1  0  0  0  0
 42 45  1  0  0  0  0
 42 64  1  0  0  0  0
 43 67  1  0  0  0  0
 44 63  1  0  0  0  0
 45 62  1  0  0  0  0
 46 57  1  0  0  0  0
 47 58  1  0  0  0  0
 48 59  1  0  0  0  0
 49 59  1  0  0  0  0
 50 60  1  0  0  0  0
 51 60  1  0  0  0  0
 52 60  1  0  0  0  0
 53 70  1  0  0  0  0
 54 58  1  0  0  0  0
 55 59  1  0  0  0  0
 55 78  1  0  0  0  0
 56 60  1  0  0  0  0
 56 68  1  0  0  0  0
 57 70  1  0  0  0  0
 58 69  1  0  0  0  0
 61 62  1  0  0  0  0
M  CHG  1  70   1
M  ISO  4  30 100  54 100  55 101  78 101
M  END
> <Batch ID>
0190

> <Smiles>
CNC(C)C(=O)NC(C(=O)N1Cc2cc([101O:1][101CH2:1]C(C)(C)C(=O)NC(C)[100CH2:0][100C:0](=O)N3CCCC(n4nc(-c5ccc(Oc6ccc(F)cc6F)cc5)c(C(N)=O)c4N)C3)ccc2CC1C(=O)NC1CCCc2ccccc21)C(C)(C)C

> <Shape>
0.132

> <Color>
0.168

> <Negative vol penalty>
0.000

$$$$

  -OEChem-04052305213D

 84 92  0     1  0  0  0  0  0999 V2000
  -25.3203  -23.0453   24.8075 C   0  0  0  0  0  0  0  0  0  0  0  0
  -24.9200  -21.7410   24.5406 C   0  0  0  0  0  0  0  0  0  0  0  0
  -23.5099  -30.1011   20.9634 C   0  0  0  0  0  0  0  0  0  0  0  0
  -23.1525  -28.0657   22.2150 C   0  0  0  0  0  0  0  0  0  0  0  0
  -26.4908  -23.5417   24.2374 C   0  0  0  0  0  0  0  0  0  0  0  0
  -25.6961  -20.9286   23.7131 C   0  0  0  0  0  0  0  0  0  0  0  0
  -24.3683  -16.2067   23.3344 C   0  0  0  0  0  0  0  0  0  0  0  0
  -22.3927  -30.6720   21.5728 C   0  0  0  0  0  0  0  0  0  0  0  0
  -22.0352  -28.6366   22.8244 C   0  0  0  0  0  0  0  0  0  0  0  0
  -23.2326  -15.7967   22.6374 C   0  0  0  0  0  0  0  0  0  0  0  0
  -18.8788  -29.4291   24.4428 C   0  0  0  0  0  0  0  0  0  0  0  0
  -17.7243  -28.6522   24.5380 C   0  0  0  0  0  0  0  0  0  0  0  0
  -24.6260  -15.0661   20.8088 C   0  0  0  0  0  0  0  0  0  0  0  0
  -23.5335  -19.4210   18.4432 C   0  0  0  0  0  0  0  0  0  0  0  0
  -17.6492  -28.4687   22.1301 C   0  0  0  0  0  0  0  0  0  0  0  0
  -22.9292  -20.2665   20.5221 C   0  0  0  0  0  0  0  0  0  0  0  0
  -23.8898  -28.7979   21.2844 C   0  0  0  0  0  0  0  0  0  0  0  0
  -26.3755  -28.2520   21.1082 C   0  0  0  0  0  0  0  0  0  0  0  0
  -27.2744  -22.7384   23.3927 C   0  0  0  0  0  0  0  0  0  0  0  0
  -25.6427  -16.0592   22.7683 C   0  0  0  0  0  0  0  0  0  0  0  0
  -26.8932  -21.4035   23.1474 C   0  0  0  0  0  0  0  0  0  0  0  0
  -25.7765  -15.4727   21.5017 C   0  0  0  0  0  0  0  0  0  0  0  0
  -22.7390  -19.2489   19.6133 C   0  0  0  0  0  0  0  0  0  0  0  0
  -21.6553  -29.9398   22.5033 C   0  0  0  0  0  0  0  0  0  0  0  0
  -23.3611  -15.2289   21.3732 C   0  0  0  0  0  0  0  0  0  0  0  0
  -19.4185  -29.7259   23.1912 C   0  0  0  0  0  0  0  0  0  0  0  0
  -17.1095  -28.1720   23.3817 C   0  0  0  0  0  0  0  0  0  0  0  0
  -18.8037  -29.2457   22.0349 C   0  0  0  0  0  0  0  0  0  0  0  0
  -25.0435  -28.2074   20.6548 C   0  0  0  0  0  0  0  0  0  0  0  0
  -24.3006  -20.5638   18.5021 C   0  0  0  0  0  0  0  0  0  0  0  0
  -27.0829  -27.5470   20.1654 C   0  0  0  0  0  0  0  0  0  0  0  0
  -26.9242  -28.8750   22.2772 C   0  0  0  0  0  0  0  0  0  0  0  0
  -27.9624  -18.0573   21.9136 C   0  0  0  0  0  0  0  0  0  0  0  0
  -29.5951  -15.3088   21.3636 C   0  0  0  0  0  0  0  0  0  0  0  0
  -21.5883  -17.0968   18.9902 C   0  0  0  0  0  0  0  0  0  0  0  0
  -29.4951  -11.9692   20.6679 C   0  0  0  0  0  0  0  0  0  0  0  0
  -25.5522  -23.2410   16.2968 C   0  0  0  0  0  0  0  0  0  0  0  0
  -28.5359  -23.3238   22.8086 C   0  0  0  0  0  0  0  0  0  0  0  0
  -26.8599  -16.4821   23.5443 C   0  0  0  0  0  0  0  0  0  0  0  0
  -27.1236  -15.2736   20.8582 C   0  0  0  0  0  0  0  0  0  0  0  0
  -29.0503  -22.5443   21.6028 C   0  0  0  0  0  0  0  0  0  0  0  0
  -27.0152  -26.3933   15.5226 C   0  0  0  0  0  0  0  0  0  0  0  0
  -29.1071  -21.0595   21.9295 C   0  0  0  0  0  0  0  0  0  0  0  0
  -26.7960  -27.2197   16.7911 C   0  0  0  0  0  0  0  0  0  0  0  0
  -25.8354  -25.4649   15.2430 C   0  0  0  0  0  0  0  0  0  0  0  0
  -25.2407  -25.4115   17.6340 C   0  0  0  0  0  0  0  0  0  0  0  0
  -27.7053  -20.5115   22.2259 C   0  0  1  0  0  0  0  0  0  0  0  0
  -28.0697  -16.7553   22.6559 C   0  0  1  0  0  0  0  0  0  0  0  0
  -26.4286  -26.3225   17.9883 C   0  0  2  0  0  0  0  0  0  0  0  0
  -26.6844  -20.5623   17.6780 C   0  0  0  0  0  0  0  0  0  0  0  0
  -30.9912  -10.0009   20.2382 C   0  0  0  0  0  0  0  0  0  0  0  0
  -20.0134  -14.5764   21.5003 C   0  0  0  0  0  0  0  0  0  0  0  0
  -30.1545  -16.3510   18.5510 C   0  0  0  0  0  0  0  0  0  0  0  0
  -30.7931  -14.0220   17.8903 C   0  0  0  0  0  0  0  0  0  0  0  0
  -32.0954  -15.2191   19.6492 C   0  0  0  0  0  0  0  0  0  0  0  0
  -28.4424  -10.5089   23.0170 C   0  0  0  0  0  0  0  0  0  0  0  0
  -20.5648  -16.1575   19.6207 C   0  0  0  0  0  0  0  0  0  0  0  0
  -25.2484  -21.0894   17.4956 C   0  0  2  0  0  0  0  0  0  0  0  0
  -29.7682  -14.3864   20.1811 C   0  0  1  0  0  0  0  0  0  0  0  0
  -30.2221  -10.7891   21.2870 C   0  0  2  0  0  0  0  0  0  0  0  0
  -21.0447  -15.5449   20.9365 C   0  0  2  0  0  0  0  0  0  1  0  0
  -30.6771  -15.0000   19.0789 C   0  0  0  0  0  0  0  0  0  0  0  0
  -24.9101  -27.5279   19.5127 N   0  0  0  0  0  0  0  0  0  0  0  0
  -26.1674  -27.1392   19.2404 N   0  0  0  0  0  0  0  0  0  0  0  0
  -28.2831  -15.7089   21.6541 N   0  0  0  0  0  0  0  0  0  0  0  0
  -25.5395  -24.6404   16.4171 N   0  0  0  0  0  0  0  0  0  0  0  0
  -28.3926  -27.2425   20.0455 N   0  0  0  0  0  0  0  0  0  0  0  0
  -26.0564  -29.5586   23.1397 N   0  0  0  0  0  0  0  0  0  0  0  0
  -21.8517  -18.1696   19.8378 N   0  0  0  0  0  0  0  0  0  0  0  0
  -27.8234  -19.1618   22.7322 N   0  0  0  0  0  0  0  0  0  0  0  0
  -30.2531  -13.1199   20.7189 N   0  0  0  0  0  0  0  0  0  0  0  0
  -25.2673  -22.5347   17.4590 N   0  0  0  0  0  0  0  0  0  0  0  0
  -29.2513   -9.8708   21.9467 N   0  3  0  0  0  0  0  0  0  0  0  0
  -28.1502  -28.8408   22.5402 O   0  0  0  0  0  0  0  0  0  0  0  0
  -28.0043  -18.0597   20.6889 O   0  0  0  0  0  0  0  0  0  0  0  0
  -30.5867  -15.6556   22.0102 O   0  0  0  0  0  0  0  0  0  0  0  0
  -22.0775  -16.8839   17.8859 O   0  0  0  0  0  0  0  0  0  0  0  0
  -28.3690  -11.8785   20.1839 O   0  0  0  0  0  0  0  0  0  0  0  0
  -25.8043  -22.6637   15.2337 O   0  0  0  0  0  0  0  0  0  0  0  0
  -20.5652  -30.4967   23.0984 O   0  0  0  0  0  0  0  0  0  0  0  0
  -22.2541  -14.8285   20.6905 O   0  0  0  0  0  0  0  0  0  1  0  0
  -16.0017  -27.4246   23.4734 F   0  0  0  0  0  0  0  0  0  0  0  0
  -19.3182  -29.5265   20.8298 F   0  0  0  0  0  0  0  0  0  0  0  0
  -24.0617  -21.4233   19.9638 S   0  0  0  0  0  0  0  0  0  0  0  0
  1  2  1  0  0  0  0
  1  5  2  0  0  0  0
  2  6  2  0  0  0  0
  3  8  2  0  0  0  0
  3 17  1  0  0  0  0
  4  9  1  0  0  0  0
  4 17  2  0  0  0  0
  5 19  1  0  0  0  0
  6 21  1  0  0  0  0
  7 10  2  0  0  0  0
  7 20  1  0  0  0  0
  8 24  1  0  0  0  0
  9 24  2  0  0  0  0
 10 25  1  0  0  0  0
 11 12  2  0  0  0  0
 11 26  1  0  0  0  0
 12 27  1  0  0  0  0
 13 22  1  0  0  0  0
 13 25  2  0  0  0  0
 14 23  1  0  0  0  0
 14 30  2  0  0  0  0
 15 27  2  0  0  0  0
 15 28  1  0  0  0  0
 16 23  2  0  0  0  0
 16 84  1  0  0  0  0
 17 29  1  0  0  0  0
 18 29  1  0  0  0  0
 18 31  2  0  0  0  0
 18 32  1  0  0  0  0
 19 21  2  0  0  0  0
 19 38  1  0  0  0  0
 20 22  2  0  0  0  0
 20 39  1  0  0  0  0
 21 47  1  0  0  0  0
 22 40  1  0  0  0  0
 23 69  1  0  0  0  0
 24 80  1  0  0  0  0
 25 81  1  0  0  0  0
 26 28  2  0  0  0  0
 26 80  1  0  0  0  0
 27 82  1  0  0  0  0
 28 83  1  0  0  0  0
 29 63  2  0  0  0  0
 30 58  1  0  0  0  0
 30 84  1  0  0  0  0
 31 64  1  0  0  0  0
 31 67  1  0  0  0  0
 32 68  1  0  0  0  0
 32 74  2  0  0  0  0
 33 48  1  0  0  0  0
 33 70  1  0  0  0  0
 33 75  2  0  0  0  0
 34 59  1  0  0  0  0
 34 65  1  0  0  0  0
 34 76  2  0  0  0  0
 35 57  1  0  0  0  0
 35 69  1  0  0  0  0
 35 77  2  0  0  0  0
 36 60  1  0  0  0  0
 36 71  1  0  0  0  0
 36 78  2  0  0  0  0
 37 66  1  0  0  0  0
 37 72  1  0  0  0  0
 37 79  2  0  0  0  0
 38 41  1  0  0  0  0
 39 48  1  0  0  0  0
 40 65  1  0  0  0  0
 41 43  1  0  0  0  0
 42 44  1  0  0  0  0
 42 45  1  0  0  0  0
 43 47  1  0  0  0  0
 44 49  1  0  0  0  0
 45 66  1  0  0  0  0
 46 49  1  0  0  0  0
 46 66  1  0  0  0  0
 47 70  1  0  0  0  0
 48 65  1  0  0  0  0
 49 64  1  0  0  0  0
 50 58  1  0  0  0  0
 51 60  1  0  0  0  0
 52 61  1  0  0  0  0
 53 62  1  0  0  0  0
 54 62  1  0  0  0  0
 55 62  1  0  0  0  0
 56 73  1  0  0  0  0
 57 61  1  0  0  0  0
 58 72  1  0  0  0  0
 59 62  1  0  0  0  0
 59 71  1  0  0  0  0
 60 73  1  0  0  0  0
 61 81  1  0  0  0  0
 63 64  1  0  0  0  0
M  CHG  1  73   1
M  ISO  4  37 100  61 101  72 100  81 101
M  END
> <Batch ID>
0190

> <Smiles>
CNC(C)C(=O)NC(C(=O)N1Cc2cc([101O:1][101CH:1](C)CC(=O)Nc3csc(C(C)[100NH:0][100C:0](=O)N4CCCC(n5nc(-c6ccc(Oc7ccc(F)cc7F)cc6)c(C(N)=O)c5N)C4)c3)ccc2CC1C(=O)NC1CCCc2ccccc21)C(C)(C)C

> <Shape>
0.191

> <Color>
0.060

> <Negative vol penalty>
0.000

$$$$

  -OEChem-04052305213D

 88 96  0     1  0  0  0  0  0999 V2000
  -28.8335  -15.1369   15.9077 C   0  0  0  0  0  0  0  0  0  0  0  0
  -28.2915  -15.5876   17.1071 C   0  0  0  0  0  0  0  0  0  0  0  0
  -23.1136   -9.7353   19.9747 C   0  0  0  0  0  0  0  0  0  0  0  0
  -23.8218   -9.8335   22.2825 C   0  0  0  0  0  0  0  0  0  0  0  0
  -29.9072  -15.8142   15.3311 C   0  0  0  0  0  0  0  0  0  0  0  0
  -28.8237  -16.7153   17.7312 C   0  0  0  0  0  0  0  0  0  0  0  0
  -25.7616  -20.9320   20.9482 C   0  0  0  0  0  0  0  0  0  0  0  0
  -22.3956   -8.5702   20.2447 C   0  0  0  0  0  0  0  0  0  0  0  0
  -23.1038   -8.6685   22.5525 C   0  0  0  0  0  0  0  0  0  0  0  0
  -25.5731  -21.1125   22.3178 C   0  0  0  0  0  0  0  0  0  0  0  0
  -23.0504   -5.2793   20.6514 C   0  0  0  0  0  0  0  0  0  0  0  0
  -23.1658   -4.2236   19.7470 C   0  0  0  0  0  0  0  0  0  0  0  0
  -27.4083  -22.6776   22.3581 C   0  0  0  0  0  0  0  0  0  0  0  0
  -20.7861   -4.3127   19.3394 C   0  0  0  0  0  0  0  0  0  0  0  0
  -23.8267  -10.3669   20.9937 C   0  0  0  0  0  0  0  0  0  0  0  0
  -24.1031  -12.8956   20.8021 C   0  0  0  0  0  0  0  0  0  0  0  0
  -30.4465  -16.9564   15.9435 C   0  0  0  0  0  0  0  0  0  0  0  0
  -26.7837  -21.6158   20.2742 C   0  0  0  0  0  0  0  0  0  0  0  0
  -29.9064  -17.4077   17.1630 C   0  0  0  0  0  0  0  0  0  0  0  0
  -27.6062  -22.5059   20.9795 C   0  0  0  0  0  0  0  0  0  0  0  0
  -22.3907   -8.0369   21.5335 C   0  0  0  0  0  0  0  0  0  0  0  0
  -26.3983  -21.9832   23.0234 C   0  0  0  0  0  0  0  0  0  0  0  0
  -21.8029   -5.8517   20.8998 C   0  0  0  0  0  0  0  0  0  0  0  0
  -22.0337   -3.7404   19.0910 C   0  0  0  0  0  0  0  0  0  0  0  0
  -20.6707   -5.3684   20.2438 C   0  0  0  0  0  0  0  0  0  0  0  0
  -24.5690  -11.5701   20.7153 C   0  0  0  0  0  0  0  0  0  0  0  0
  -30.4271  -19.2583   22.8983 C   0  0  0  0  0  0  0  0  0  0  0  0
  -31.5546  -18.8979   22.1907 C   0  0  0  0  0  0  0  0  0  0  0  0
  -25.1825  -13.6635   20.4390 C   0  0  0  0  0  0  0  0  0  0  0  0
  -30.3724  -17.0775   21.8767 C   0  0  0  0  0  0  0  0  0  0  0  0
  -22.8102  -13.3888   21.1774 C   0  0  0  0  0  0  0  0  0  0  0  0
  -30.1082  -20.5018   23.6460 C   0  0  0  0  0  0  0  0  0  0  0  0
  -29.3794  -20.7447   18.6596 C   0  0  0  0  0  0  0  0  0  0  0  0
  -29.9078  -21.6676   26.6062 C   0  0  0  0  0  0  0  0  0  0  0  0
  -29.5688  -23.9184   18.0161 C   0  0  0  0  0  0  0  0  0  0  0  0
  -28.7731  -27.1109   18.9226 C   0  0  0  0  0  0  0  0  0  0  0  0
  -30.6134  -14.8642   20.6979 C   0  0  0  0  0  0  0  0  0  0  0  0
  -31.6376  -17.6276   15.3068 C   0  0  0  0  0  0  0  0  0  0  0  0
  -26.9569  -21.4304   18.7917 C   0  0  0  0  0  0  0  0  0  0  0  0
  -28.7048  -23.2793   20.2988 C   0  0  0  0  0  0  0  0  0  0  0  0
  -31.9017  -19.0334   15.8398 C   0  0  0  0  0  0  0  0  0  0  0  0
  -29.6172  -12.3492   18.3828 C   0  0  0  0  0  0  0  0  0  0  0  0
  -31.8338  -19.0481   17.3636 C   0  0  0  0  0  0  0  0  0  0  0  0
  -28.1767  -12.0314   18.7904 C   0  0  0  0  0  0  0  0  0  0  0  0
  -30.4989  -12.6398   19.5960 C   0  0  0  0  0  0  0  0  0  0  0  0
  -28.5429  -13.3534   20.9129 C   0  0  0  0  0  0  0  0  0  0  0  0
  -30.4401  -18.6417   17.8576 C   0  0  1  0  0  0  0  0  0  0  0  0
  -28.3578  -21.7877   18.3045 C   0  0  1  0  0  0  0  0  0  0  0  0
  -27.6015  -13.1174   19.7205 C   0  0  2  0  0  0  0  0  0  0  0  0
  -31.2454  -23.2125   28.0964 C   0  0  0  0  0  0  0  0  0  0  0  0
  -29.1007  -29.4977   18.2204 C   0  0  0  0  0  0  0  0  0  0  0  0
  -25.0159  -20.7641   25.8981 C   0  0  0  0  0  0  0  0  0  0  0  0
  -32.4286  -23.8353   19.0764 C   0  0  0  0  0  0  0  0  0  0  0  0
  -32.3656  -26.3326   19.2424 C   0  0  0  0  0  0  0  0  0  0  0  0
  -32.1181  -25.2255   17.0208 C   0  0  0  0  0  0  0  0  0  0  0  0
  -25.8636  -27.5313   18.5813 C   0  0  0  0  0  0  0  0  0  0  0  0
  -30.1857  -23.1054   27.0148 C   0  0  0  0  0  0  0  0  0  0  0  0
  -27.4732  -21.2387   26.2022 C   0  0  0  0  0  0  0  0  0  0  0  0
  -28.8352  -21.4724   25.5416 C   0  0  2  0  0  0  0  0  0  0  0  0
  -30.2168  -25.1076   18.6830 C   0  0  1  0  0  0  0  0  0  0  0  0
  -28.2052  -28.2721   18.1268 C   0  0  2  0  0  0  0  0  0  0  0  0
  -26.3432  -21.0078   25.1918 C   0  0  2  0  0  0  0  0  0  1  0  0
  -31.7629  -25.1094   18.5191 C   0  0  0  0  0  0  0  0  0  0  0  0
  -25.8450  -11.4964   20.3274 N   0  0  0  0  0  0  0  0  0  0  0  0
  -31.5253  -17.6475   21.6045 N   0  0  0  0  0  0  0  0  0  0  0  0
  -26.1900  -12.7853   20.1671 N   0  0  0  0  0  0  0  0  0  0  0  0
  -28.8385  -23.0591   18.8492 N   0  0  0  0  0  0  0  0  0  0  0  0
  -29.8930  -13.6812   20.4287 N   0  0  0  0  0  0  0  0  0  0  0  0
  -32.6447  -19.6902   22.0526 N   0  0  0  0  0  0  0  0  0  0  0  0
  -25.3585  -14.9974   20.3289 N   0  0  0  0  0  0  0  0  0  0  0  0
  -21.8158  -12.4629   21.5212 N   0  0  0  0  0  0  0  0  0  0  0  0
  -29.9233  -15.7957   21.4730 N   0  0  0  0  0  0  0  0  0  0  0  0
  -29.2563  -20.3582   24.7337 N   0  0  0  0  0  0  0  0  0  0  0  0
  -29.5126  -19.7436   17.7164 N   0  0  0  0  0  0  0  0  0  0  0  0
  -29.5570  -26.2900   18.1397 N   0  0  0  0  0  0  0  0  0  0  0  0
  -26.8534  -28.6377   18.6367 N   0  3  0  0  0  0  0  0  0  0  0  0
  -22.5397  -14.6136   21.1912 O   0  0  0  0  0  0  0  0  0  0  0  0
  -30.5823  -21.5690   23.2655 O   0  0  0  0  0  0  0  0  0  0  0  0
  -30.0018  -20.8418   19.7107 O   0  0  0  0  0  0  0  0  0  0  0  0
  -30.4870  -20.7143   27.1277 O   0  0  0  0  0  0  0  0  0  0  0  0
  -29.6996  -23.7617   16.7996 O   0  0  0  0  0  0  0  0  0  0  0  0
  -28.5473  -26.9503   20.1200 O   0  0  0  0  0  0  0  0  0  0  0  0
  -31.7476  -15.0496   20.2495 O   0  0  0  0  0  0  0  0  0  0  0  0
  -21.6901   -6.9002   21.7973 O   0  0  0  0  0  0  0  0  0  0  0  0
  -26.2168  -22.1607   24.3604 O   0  0  0  0  0  0  0  0  0  1  0  0
  -22.1449   -2.7276   18.2215 F   0  0  0  0  0  0  0  0  0  0  0  0
  -19.4697   -5.9150   20.4775 F   0  0  0  0  0  0  0  0  0  0  0  0
  -29.2761  -17.9885   22.8323 S   0  0  0  0  0  0  0  0  0  0  0  0
  1  2  1  0  0  0  0
  1  5  2  0  0  0  0
  2  6  2  0  0  0  0
  3  8  2  0  0  0  0
  3 15  1  0  0  0  0
  4  9  1  0  0  0  0
  4 15  2  0  0  0  0
  5 17  1  0  0  0  0
  6 19  1  0  0  0  0
  7 10  2  0  0  0  0
  7 18  1  0  0  0  0
  8 21  1  0  0  0  0
  9 21  2  0  0  0  0
 10 22  1  0  0  0  0
 11 12  2  0  0  0  0
 11 23  1  0  0  0  0
 12 24  1  0  0  0  0
 13 20  1  0  0  0  0
 13 22  2  0  0  0  0
 14 24  2  0  0  0  0
 14 25  1  0  0  0  0
 15 26  1  0  0  0  0
 16 26  1  0  0  0  0
 16 29  2  0  0  0  0
 16 31  1  0  0  0  0
 17 19  2  0  0  0  0
 17 38  1  0  0  0  0
 18 20  2  0  0  0  0
 18 39  1  0  0  0  0
 19 47  1  0  0  0  0
 20 40  1  0  0  0  0
 21 84  1  0  0  0  0
 22 85  1  0  0  0  0
 23 25  2  0  0  0  0
 23 84  1  0  0  0  0
 24 86  1  0  0  0  0
 25 87  1  0  0  0  0
 26 64  2  0  0  0  0
 27 28  2  0  0  0  0
 27 32  1  0  0  0  0
 27 88  1  0  0  0  0
 28 65  1  0  0  0  0
 28 69  1  0  0  0  0
 29 66  1  0  0  0  0
 29 70  1  0  0  0  0
 30 65  2  0  0  0  0
 30 72  1  0  0  0  0
 30 88  1  0  0  0  0
 31 71  1  0  0  0  0
 31 77  2  0  0  0  0
 32 73  1  0  0  0  0
 32 78  2  0  0  0  0
 33 48  1  0  0  0  0
 33 74  1  0  0  0  0
 33 79  2  0  0  0  0
 34 57  1  0  0  0  0
 34 59  1  0  0  0  0
 34 80  2  0  0  0  0
 35 60  1  0  0  0  0
 35 67  1  0  0  0  0
 35 81  2  0  0  0  0
 36 61  1  0  0  0  0
 36 75  1  0  0  0  0
 36 82  2  0  0  0  0
 37 68  1  0  0  0  0
 37 72  1  0  0  0  0
 37 83  2  0  0  0  0
 38 41  1  0  0  0  0
 39 48  1  0  0  0  0
 40 67  1  0  0  0  0
 41 43  1  0  0  0  0
 42 44  1  0  0  0  0
 42 45  1  0  0  0  0
 43 47  1  0  0  0  0
 44 49  1  0  0  0  0
 45 68  1  0  0  0  0
 46 49  1  0  0  0  0
 46 68  1  0  0  0  0
 47 74  1  0  0  0  0
 48 67  1  0  0  0  0
 49 66  1  0  0  0  0
 50 57  1  0  0  0  0
 51 61  1  0  0  0  0
 52 62  1  0  0  0  0
 53 63  1  0  0  0  0
 54 63  1  0  0  0  0
 55 63  1  0  0  0  0
 56 76  1  0  0  0  0
 58 59  1  0  0  0  0
 58 62  1  0  0  0  0
 59 73  1  0  0  0  0
 60 63  1  0  0  0  0
 60 75  1  0  0  0  0
 61 76  1  0  0  0  0
 62 85  1  0  0  0  0
 64 66  1  0  0  0  0
M  CHG  1  76   1
M  ISO  4  37 100  62 101  72 100  85 101
M  END
> <Batch ID>
0190

> <Smiles>
CCC(=O)C(C[101CH:1](C)[101O:1]c1ccc2c(c1)CN(C(=O)C(NC(=O)C(C)NC)C(C)(C)C)C(C(=O)NC1CCCc3ccccc31)C2)NC(=O)c1sc([100NH:0][100C:0](=O)N2CCCC(n3nc(-c4ccc(Oc5ccc(F)cc5F)cc4)c(C(N)=O)c3N)C2)nc1N

> <Shape>
0.248

> <Color>
0.204

> <Negative vol penalty>
0.000

$$$$

  -OEChem-04052305213D

 84 92  0     1  0  0  0  0  0999 V2000
  -16.6954  -30.4653   22.6107 C   0  0  0  0  0  0  0  0  0  0  0  0
  -17.8015  -31.2638   22.8836 C   0  0  0  0  0  0  0  0  0  0  0  0
  -30.9872  -18.5771   20.2448 C   0  0  0  0  0  0  0  0  0  0  0  0
  -28.6429  -17.9964   20.3091 C   0  0  0  0  0  0  0  0  0  0  0  0
  -16.8315  -29.0784   22.5694 C   0  0  0  0  0  0  0  0  0  0  0  0
  -19.0442  -30.6756   23.1164 C   0  0  0  0  0  0  0  0  0  0  0  0
  -26.0448  -31.8485   22.1511 C   0  0  0  0  0  0  0  0  0  0  0  0
  -31.2592  -17.4014   19.5453 C   0  0  0  0  0  0  0  0  0  0  0  0
  -28.9149  -16.8207   19.6096 C   0  0  0  0  0  0  0  0  0  0  0  0
  -27.2424  -31.8660   22.8647 C   0  0  0  0  0  0  0  0  0  0  0  0
  -29.0423  -13.4920   18.1559 C   0  0  0  0  0  0  0  0  0  0  0  0
  -28.4447  -12.3156   18.6081 C   0  0  0  0  0  0  0  0  0  0  0  0
  -27.3749  -29.4637   22.6895 C   0  0  0  0  0  0  0  0  0  0  0  0
  -29.5548  -12.5706   20.7388 C   0  0  0  0  0  0  0  0  0  0  0  0
  -26.1856  -26.9757   25.5295 C   0  0  0  0  0  0  0  0  0  0  0  0
  -29.6790  -18.8746   20.6267 C   0  0  0  0  0  0  0  0  0  0  0  0
  -29.0710  -21.3456   20.8062 C   0  0  0  0  0  0  0  0  0  0  0  0
  -18.0785  -28.4733   22.7923 C   0  0  0  0  0  0  0  0  0  0  0  0
  -25.4968  -30.6355   21.7100 C   0  0  0  0  0  0  0  0  0  0  0  0
  -19.1968  -29.2791   23.0794 C   0  0  0  0  0  0  0  0  0  0  0  0
  -26.1716  -29.4338   21.9683 C   0  0  0  0  0  0  0  0  0  0  0  0
  -30.2231  -16.5232   19.2277 C   0  0  0  0  0  0  0  0  0  0  0  0
  -27.9062  -30.6733   23.1365 C   0  0  0  0  0  0  0  0  0  0  0  0
  -29.8963  -14.2077   18.9951 C   0  0  0  0  0  0  0  0  0  0  0  0
  -28.7009  -11.8549   19.8995 C   0  0  0  0  0  0  0  0  0  0  0  0
  -30.1524  -13.7471   20.2866 C   0  0  0  0  0  0  0  0  0  0  0  0
  -29.3974  -20.0887   21.3497 C   0  0  0  0  0  0  0  0  0  0  0  0
  -25.8422  -26.1463   26.5765 C   0  0  0  0  0  0  0  0  0  0  0  0
  -28.8988  -22.1585   21.8998 C   0  0  0  0  0  0  0  0  0  0  0  0
  -26.9524  -28.1965   27.1823 C   0  0  0  0  0  0  0  0  0  0  0  0
  -28.9354  -21.7428   19.4352 C   0  0  0  0  0  0  0  0  0  0  0  0
  -22.7964  -29.0568   22.2755 C   0  0  0  0  0  0  0  0  0  0  0  0
  -23.9197  -27.0865   19.9564 C   0  0  0  0  0  0  0  0  0  0  0  0
  -26.6057  -25.8729   18.2360 C   0  0  0  0  0  0  0  0  0  0  0  0
  -26.8476  -23.0735   27.0087 C   0  0  0  0  0  0  0  0  0  0  0  0
  -18.1667  -26.9677   22.7840 C   0  0  0  0  0  0  0  0  0  0  0  0
  -24.2178  -30.6360   20.9183 C   0  0  0  0  0  0  0  0  0  0  0  0
  -25.6356  -28.1067   21.4992 C   0  0  0  0  0  0  0  0  0  0  0  0
  -19.5954  -26.4419   22.6718 C   0  0  0  0  0  0  0  0  0  0  0  0
  -29.9715  -21.3805   26.7815 C   0  0  0  0  0  0  0  0  0  0  0  0
  -20.5141  -27.1821   23.6387 C   0  0  0  0  0  0  0  0  0  0  0  0
  -30.0705  -20.9920   25.3053 C   0  0  0  0  0  0  0  0  0  0  0  0
  -28.5367  -21.2843   27.2954 C   0  0  0  0  0  0  0  0  0  0  0  0
  -27.6427  -21.6457   25.0274 C   0  0  0  0  0  0  0  0  0  0  0  0
  -20.5665  -28.6796   23.3129 C   0  0  1  0  0  0  0  0  0  0  0  0
  -23.4870  -29.2976   20.9629 C   0  0  1  0  0  0  0  0  0  0  0  0
  -29.0616  -21.7809   24.4490 C   0  0  2  0  0  0  0  0  0  0  0  0
  -27.2135  -24.2451   16.4255 C   0  0  0  0  0  0  0  0  0  0  0  0
  -31.5492  -30.8725   25.3574 C   0  0  0  0  0  0  0  0  0  0  0  0
  -28.1445  -31.5491   28.2439 C   0  0  0  0  0  0  0  0  0  0  0  0
  -23.5387  -24.7744   21.9106 C   0  0  0  0  0  0  0  0  0  0  0  0
  -25.0110  -23.3812   20.4410 C   0  0  0  0  0  0  0  0  0  0  0  0
  -22.8560  -24.2744   19.5572 C   0  0  0  0  0  0  0  0  0  0  0  0
  -27.7243  -28.0140   16.5263 C   0  0  0  0  0  0  0  0  0  0  0  0
  -25.1605  -24.8377   26.5606 C   0  0  0  0  0  0  0  0  0  0  0  0
  -29.5076  -30.1083   26.6884 C   0  0  0  0  0  0  0  0  0  0  0  0
  -29.2495  -31.7341   24.7876 C   0  0  0  0  0  0  0  0  0  1  0  0
  -24.7933  -25.8556   19.9300 C   0  0  1  0  0  0  0  0  0  0  0  0
  -26.8486  -25.6855   16.7493 C   0  0  2  0  0  0  0  0  0  0  0  0
  -30.1783  -31.2664   25.9181 C   0  0  2  0  0  0  0  0  0  0  0  0
  -28.1008  -30.4111   27.2275 C   0  0  1  0  0  0  0  0  0  0  0  0
  -24.0591  -24.5961   20.4704 C   0  0  0  0  0  0  0  0  0  0  0  0
  -26.8219  -28.1520   25.8749 N   0  0  0  0  0  0  0  0  0  0  0  0
  -29.4314  -20.0975   22.6850 N   0  0  0  0  0  0  0  0  0  0  0  0
  -29.1242  -21.3698   22.9896 N   0  0  0  0  0  0  0  0  0  0  0  0
  -24.3787  -28.1588   20.7344 N   0  0  0  0  0  0  0  0  0  0  0  0
  -27.6309  -22.0554   26.4405 N   0  0  0  0  0  0  0  0  0  0  0  0
  -28.5782  -23.4637   22.0261 N   0  0  0  0  0  0  0  0  0  0  0  0
  -29.1468  -20.7819   18.4371 N   0  0  0  0  0  0  0  0  0  0  0  0
  -27.5469  -29.2388   27.8711 N   0  0  0  0  0  0  0  0  0  0  0  0
  -21.4253  -28.9190   22.1728 N   0  0  0  0  0  0  0  0  0  0  0  0
  -25.2733  -25.7250   18.5585 N   0  0  0  0  0  0  0  0  0  0  0  0
  -26.0211  -23.7596   26.1272 N   0  0  0  0  0  0  0  0  0  0  0  0
  -27.9600  -26.5662   16.2910 N   0  3  0  0  0  0  0  0  0  0  0  0
  -28.6518  -22.9192   19.1046 O   0  0  0  0  0  0  0  0  0  0  0  0
  -23.4586  -28.9989   23.3049 O   0  0  0  0  0  0  0  0  0  0  0  0
  -22.8724  -27.0988   19.3048 O   0  0  0  0  0  0  0  0  0  0  0  0
  -27.5083  -26.1217   19.0323 O   0  0  0  0  0  0  0  0  0  0  0  0
  -26.8861  -23.3542   28.2115 O   0  0  0  0  0  0  0  0  0  0  0  0
  -30.4882  -15.3759   18.5450 O   0  0  0  0  0  0  0  0  0  0  0  0
  -29.0749  -30.6875   23.8334 O   0  0  0  0  0  0  0  0  0  1  0  0
  -28.1257  -10.7260   20.3341 F   0  0  0  0  0  0  0  0  0  0  0  0
  -30.9709  -14.4310   21.0978 F   0  0  0  0  0  0  0  0  0  0  0  0
  -26.3328  -26.8571   28.0582 S   0  0  0  0  0  0  0  0  0  0  0  0
  1  2  1  0  0  0  0
  1  5  2  0  0  0  0
  2  6  2  0  0  0  0
  3  8  2  0  0  0  0
  3 16  1  0  0  0  0
  4  9  1  0  0  0  0
  4 16  2  0  0  0  0
  5 18  1  0  0  0  0
  6 20  1  0  0  0  0
  7 10  2  0  0  0  0
  7 19  1  0  0  0  0
  8 22  1  0  0  0  0
  9 22  2  0  0  0  0
 10 23  1  0  0  0  0
 11 12  2  0  0  0  0
 11 24  1  0  0  0  0
 12 25  1  0  0  0  0
 13 21  1  0  0  0  0
 13 23  2  0  0  0  0
 14 25  2  0  0  0  0
 14 26  1  0  0  0  0
 15 28  2  0  0  0  0
 15 63  1  0  0  0  0
 16 27  1  0  0  0  0
 17 27  1  0  0  0  0
 17 29  2  0  0  0  0
 17 31  1  0  0  0  0
 18 20  2  0  0  0  0
 18 36  1  0  0  0  0
 19 21  2  0  0  0  0
 19 37  1  0  0  0  0
 20 45  1  0  0  0  0
 21 38  1  0  0  0  0
 22 80  1  0  0  0  0
 23 81  1  0  0  0  0
 24 26  2  0  0  0  0
 24 80  1  0  0  0  0
 25 82  1  0  0  0  0
 26 83  1  0  0  0  0
 27 64  2  0  0  0  0
 28 55  1  0  0  0  0
 28 84  1  0  0  0  0
 29 65  1  0  0  0  0
 29 68  1  0  0  0  0
 30 63  2  0  0  0  0
 30 70  1  0  0  0  0
 30 84  1  0  0  0  0
 31 69  1  0  0  0  0
 31 75  2  0  0  0  0
 32 46  1  0  0  0  0
 32 71  1  0  0  0  0
 32 76  2  0  0  0  0
 33 58  1  0  0  0  0
 33 66  1  0  0  0  0
 33 77  2  0  0  0  0
 34 59  1  0  0  0  0
 34 72  1  0  0  0  0
 34 78  2  0  0  0  0
 35 67  1  0  0  0  0
 35 73  1  0  0  0  0
 35 79  2  0  0  0  0
 36 39  1  0  0  0  0
 37 46  1  0  0  0  0
 38 66  1  0  0  0  0
 39 41  1  0  0  0  0
 40 42  1  0  0  0  0
 40 43  1  0  0  0  0
 41 45  1  0  0  0  0
 42 47  1  0  0  0  0
 43 67  1  0  0  0  0
 44 47  1  0  0  0  0
 44 67  1  0  0  0  0
 45 71  1  0  0  0  0
 46 66  1  0  0  0  0
 47 65  1  0  0  0  0
 48 59  1  0  0  0  0
 49 60  1  0  0  0  0
 50 61  1  0  0  0  0
 51 62  1  0  0  0  0
 52 62  1  0  0  0  0
 53 62  1  0  0  0  0
 54 74  1  0  0  0  0
 55 73  1  0  0  0  0
 56 60  1  0  0  0  0
 56 61  1  0  0  0  0
 57 60  1  0  0  0  0
 57 81  1  0  0  0  0
 58 62  1  0  0  0  0
 58 72  1  0  0  0  0
 59 74  1  0  0  0  0
 61 70  1  0  0  0  0
 64 65  1  0  0  0  0
M  CHG  1  74   1
M  ISO  4  35 100  57 101  73 100  81 101
M  END
> <Batch ID>
0190

> <Smiles>
CNC(C)C(=O)NC(C(=O)N1Cc2cc([101O:1][101CH2:1]C(C)CC(C)Nc3ncc(C[100NH:0][100C:0](=O)N4CCCC(n5nc(-c6ccc(Oc7ccc(F)cc7F)cc6)c(C(N)=O)c5N)C4)s3)ccc2CC1C(=O)NC1CCCc2ccccc21)C(C)(C)C

> <Shape>
0.244

> <Color>
0.106

> <Negative vol penalty>
0.000

$$$$

  -OEChem-04052305213D

 85 93  0     1  0  0  0  0  0999 V2000
  -37.5857  -21.1190   16.4468 C   0  0  0  0  0  0  0  0  0  0  0  0
  -36.2142  -21.1429   16.2145 C   0  0  0  0  0  0  0  0  0  0  0  0
  -23.0776   -9.8591   21.3561 C   0  0  0  0  0  0  0  0  0  0  0  0
  -23.8609  -10.6446   23.5024 C   0  0  0  0  0  0  0  0  0  0  0  0
  -38.0899  -21.5297   17.6801 C   0  0  0  0  0  0  0  0  0  0  0  0
  -35.3460  -21.5766   17.2158 C   0  0  0  0  0  0  0  0  0  0  0  0
  -31.7915  -24.7338   15.4717 C   0  0  0  0  0  0  0  0  0  0  0  0
  -22.3475   -8.8540   21.9904 C   0  0  0  0  0  0  0  0  0  0  0  0
  -23.1307   -9.6395   24.1367 C   0  0  0  0  0  0  0  0  0  0  0  0
  -30.7138  -24.1668   14.7929 C   0  0  0  0  0  0  0  0  0  0  0  0
  -20.5633   -5.8583   23.0231 C   0  0  0  0  0  0  0  0  0  0  0  0
  -20.6269   -4.5720   22.4874 C   0  0  0  0  0  0  0  0  0  0  0  0
  -31.4231  -18.0472   18.4016 C   0  0  0  0  0  0  0  0  0  0  0  0
  -30.8462  -18.7931   17.3334 C   0  0  0  0  0  0  0  0  0  0  0  0
  -29.3700  -24.3470   16.7881 C   0  0  0  0  0  0  0  0  0  0  0  0
  -23.0166   -4.5428   22.8414 C   0  0  0  0  0  0  0  0  0  0  0  0
  -23.8343  -10.7544   22.1121 C   0  0  0  0  0  0  0  0  0  0  0  0
  -24.1505  -13.0924   21.1420 C   0  0  0  0  0  0  0  0  0  0  0  0
  -37.2282  -21.9778   18.6937 C   0  0  0  0  0  0  0  0  0  0  0  0
  -31.6696  -25.1023   16.8192 C   0  0  0  0  0  0  0  0  0  0  0  0
  -35.8391  -21.9924   18.4642 C   0  0  0  0  0  0  0  0  0  0  0  0
  -30.4468  -24.9208   17.4810 C   0  0  0  0  0  0  0  0  0  0  0  0
  -22.3740   -8.7442   23.3807 C   0  0  0  0  0  0  0  0  0  0  0  0
  -29.5037  -23.9706   15.4519 C   0  0  0  0  0  0  0  0  0  0  0  0
  -21.7264   -6.4869   23.4678 C   0  0  0  0  0  0  0  0  0  0  0  0
  -21.8535   -3.9142   22.3966 C   0  0  0  0  0  0  0  0  0  0  0  0
  -22.9531   -5.8291   23.3769 C   0  0  0  0  0  0  0  0  0  0  0  0
  -24.5892  -11.7925   21.4574 C   0  0  0  0  0  0  0  0  0  0  0  0
  -30.5460  -17.8833   19.4511 C   0  0  0  0  0  0  0  0  0  0  0  0
  -25.2316  -13.6812   20.5329 C   0  0  0  0  0  0  0  0  0  0  0  0
  -29.5498  -19.1706   17.6072 C   0  0  0  0  0  0  0  0  0  0  0  0
  -22.8795  -13.7123   21.3785 C   0  0  0  0  0  0  0  0  0  0  0  0
  -33.0845  -24.2155   19.5239 C   0  0  0  0  0  0  0  0  0  0  0  0
  -31.3365  -26.6433   20.7780 C   0  0  0  0  0  0  0  0  0  0  0  0
  -28.8034  -20.4514   15.5710 C   0  0  0  0  0  0  0  0  0  0  0  0
  -28.5966  -28.6641   20.5408 C   0  0  0  0  0  0  0  0  0  0  0  0
  -30.7069  -14.7348   20.2951 C   0  0  0  0  0  0  0  0  0  0  0  0
  -37.8161  -22.3672   20.0268 C   0  0  0  0  0  0  0  0  0  0  0  0
  -32.8334  -25.7373   17.5297 C   0  0  0  0  0  0  0  0  0  0  0  0
  -30.2582  -25.3180   18.9216 C   0  0  0  0  0  0  0  0  0  0  0  0
  -36.8575  -23.1672   20.9050 C   0  0  0  0  0  0  0  0  0  0  0  0
  -29.5679  -11.6778   18.8687 C   0  0  0  0  0  0  0  0  0  0  0  0
  -35.4789  -22.5146   20.9225 C   0  0  0  0  0  0  0  0  0  0  0  0
  -28.1379  -11.5396   19.3939 C   0  0  0  0  0  0  0  0  0  0  0  0
  -30.4952  -12.2965   19.9125 C   0  0  0  0  0  0  0  0  0  0  0  0
  -28.6008  -13.4423   20.9952 C   0  0  0  0  0  0  0  0  0  0  0  0
  -34.8671  -22.4797   19.5168 C   0  0  1  0  0  0  0  0  0  0  0  0
  -32.7535  -25.6014   19.0471 C   0  0  1  0  0  0  0  0  0  0  0  0
  -27.6163  -12.8747   19.9584 C   0  0  2  0  0  0  0  0  0  0  0  0
  -27.3727  -19.6740   13.0356 C   0  0  0  0  0  0  0  0  0  0  0  0
  -27.4138  -30.5274   21.7353 C   0  0  0  0  0  0  0  0  0  0  0  0
  -26.1597  -23.3285   15.5156 C   0  0  0  0  0  0  0  0  0  0  0  0
  -30.2647  -24.6486   22.8231 C   0  0  0  0  0  0  0  0  0  0  0  0
  -28.4366  -26.2763   23.3492 C   0  0  0  0  0  0  0  0  0  0  0  0
  -30.8168  -26.9028   23.7548 C   0  0  0  0  0  0  0  0  0  0  0  0
  -28.9294  -30.5025   18.2455 C   0  0  0  0  0  0  0  0  0  0  0  0
  -30.7647  -17.1771   20.7321 C   0  0  0  0  0  0  0  0  0  0  0  0
  -27.4090  -21.1100   13.5459 C   0  0  0  0  0  0  0  0  0  0  0  0
  -29.9580  -26.7679   21.3807 C   0  0  1  0  0  0  0  0  0  0  0  0
  -27.5424  -21.1861   15.0793 C   0  0  2  0  0  0  0  0  0  0  0  0
  -28.4401  -30.1684   20.6720 C   0  0  2  0  0  0  0  0  0  0  0  0
  -27.5266  -22.6538   15.5670 C   0  0  1  0  0  0  0  0  0  1  0  0
  -29.8728  -26.1395   22.8003 C   0  0  0  0  0  0  0  0  0  0  0  0
  -25.8506  -11.5681   21.0798 N   0  0  0  0  0  0  0  0  0  0  0  0
  -26.2137  -12.7349   20.5206 N   0  0  0  0  0  0  0  0  0  0  0  0
  -31.4275  -25.9292   19.5749 N   0  0  0  0  0  0  0  0  0  0  0  0
  -29.9438  -13.5607   20.4061 N   0  0  0  0  0  0  0  0  0  0  0  0
  -25.4284  -14.9109   20.0118 N   0  0  0  0  0  0  0  0  0  0  0  0
  -21.8799  -12.9648   22.0160 N   0  0  0  0  0  0  0  0  0  0  0  0
  -28.6192  -19.9093   16.8390 N   0  0  0  0  0  0  0  0  0  0  0  0
  -34.3450  -23.7815   19.1604 N   0  0  0  0  0  0  0  0  0  0  0  0
  -29.6185  -28.1859   21.3335 N   0  0  0  0  0  0  0  0  0  0  0  0
  -30.1075  -15.8900   20.7817 N   0  0  0  0  0  0  0  0  0  0  0  0
  -28.0002  -30.7583   19.3761 N   0  3  0  0  0  0  0  0  0  0  0  0
  -22.6320  -14.8886   21.0199 O   0  0  0  0  0  0  0  0  0  0  0  0
  -32.2581  -23.5870   20.1749 O   0  0  0  0  0  0  0  0  0  0  0  0
  -32.2960  -27.1665   21.3499 O   0  0  0  0  0  0  0  0  0  0  0  0
  -29.8237  -20.4004   14.8896 O   0  0  0  0  0  0  0  0  0  0  0  0
  -27.8813  -27.9811   19.8112 O   0  0  0  0  0  0  0  0  0  0  0  0
  -31.8364  -14.7530   19.7942 O   0  0  0  0  0  0  0  0  0  0  0  0
  -21.6615   -7.7637   24.0000 O   0  0  0  0  0  0  0  0  0  0  0  0
  -28.4504  -23.4167   14.7918 O   0  0  0  0  0  0  0  0  0  1  0  0
  -21.9142   -2.6783   21.8837 F   0  0  0  0  0  0  0  0  0  0  0  0
  -24.0737   -6.4275   23.8036 F   0  0  0  0  0  0  0  0  0  0  0  0
  -29.0338  -18.6268   19.1467 S   0  0  0  0  0  0  0  0  0  0  0  0
  1  2  1  0  0  0  0
  1  5  2  0  0  0  0
  2  6  2  0  0  0  0
  3  8  2  0  0  0  0
  3 17  1  0  0  0  0
  4  9  1  0  0  0  0
  4 17  2  0  0  0  0
  5 19  1  0  0  0  0
  6 21  1  0  0  0  0
  7 10  2  0  0  0  0
  7 20  1  0  0  0  0
  8 23  1  0  0  0  0
  9 23  2  0  0  0  0
 10 24  1  0  0  0  0
 11 12  2  0  0  0  0
 11 25  1  0  0  0  0
 12 26  1  0  0  0  0
 13 14  1  0  0  0  0
 13 29  2  0  0  0  0
 14 31  2  0  0  0  0
 15 22  1  0  0  0  0
 15 24  2  0  0  0  0
 16 26  2  0  0  0  0
 16 27  1  0  0  0  0
 17 28  1  0  0  0  0
 18 28  1  0  0  0  0
 18 30  2  0  0  0  0
 18 32  1  0  0  0  0
 19 21  2  0  0  0  0
 19 38  1  0  0  0  0
 20 22  2  0  0  0  0
 20 39  1  0  0  0  0
 21 47  1  0  0  0  0
 22 40  1  0  0  0  0
 23 81  1  0  0  0  0
 24 82  1  0  0  0  0
 25 27  2  0  0  0  0
 25 81  1  0  0  0  0
 26 83  1  0  0  0  0
 27 84  1  0  0  0  0
 28 64  2  0  0  0  0
 29 57  1  0  0  0  0
 29 85  1  0  0  0  0
 30 65  1  0  0  0  0
 30 68  1  0  0  0  0
 31 70  1  0  0  0  0
 31 85  1  0  0  0  0
 32 69  1  0  0  0  0
 32 75  2  0  0  0  0
 33 48  1  0  0  0  0
 33 71  1  0  0  0  0
 33 76  2  0  0  0  0
 34 59  1  0  0  0  0
 34 66  1  0  0  0  0
 34 77  2  0  0  0  0
 35 60  1  0  0  0  0
 35 70  1  0  0  0  0
 35 78  2  0  0  0  0
 36 61  1  0  0  0  0
 36 72  1  0  0  0  0
 36 79  2  0  0  0  0
 37 67  1  0  0  0  0
 37 73  1  0  0  0  0
 37 80  2  0  0  0  0
 38 41  1  0  0  0  0
 39 48  1  0  0  0  0
 40 66  1  0  0  0  0
 41 43  1  0  0  0  0
 42 44  1  0  0  0  0
 42 45  1  0  0  0  0
 43 47  1  0  0  0  0
 44 49  1  0  0  0  0
 45 67  1  0  0  0  0
 46 49  1  0  0  0  0
 46 67  1  0  0  0  0
 47 71  1  0  0  0  0
 48 66  1  0  0  0  0
 49 65  1  0  0  0  0
 50 58  1  0  0  0  0
 51 61  1  0  0  0  0
 52 62  1  0  0  0  0
 53 63  1  0  0  0  0
 54 63  1  0  0  0  0
 55 63  1  0  0  0  0
 56 74  1  0  0  0  0
 57 73  1  0  0  0  0
 58 60  1  0  0  0  0
 59 63  1  0  0  0  0
 59 72  1  0  0  0  0
 60 62  1  0  0  0  0
 61 74  1  0  0  0  0
 62 82  1  0  0  0  0
 64 65  1  0  0  0  0
M  CHG  1  74   1
M  ISO  4  37 100  62 101  73 100  82 101
M  END
> <Batch ID>
0190

> <Smiles>
CCC(C(=O)Nc1ccc(C[100NH:0][100C:0](=O)N2CCCC(n3nc(-c4ccc(Oc5ccc(F)cc5F)cc4)c(C(N)=O)c3N)C2)s1)[101CH:1](C)[101O:1]c1ccc2c(c1)CN(C(=O)C(NC(=O)C(C)NC)C(C)(C)C)C(C(=O)NC1CCCc3ccccc31)C2

> <Shape>
0.233

> <Color>
0.153

> <Negative vol penalty>
0.000

$$$$

  -OEChem-04052305213D

 89 97  0     1  0  0  0  0  0999 V2000
  -28.5684   -9.7828   16.7805 C   0  0  0  0  0  0  0  0  0  0  0  0
  -27.5065  -10.6555   16.5656 C   0  0  0  0  0  0  0  0  0  0  0  0
  -26.7870  -31.4737   21.2203 C   0  0  0  0  0  0  0  0  0  0  0  0
  -26.2079  -30.0829   23.1091 C   0  0  0  0  0  0  0  0  0  0  0  0
  -29.4063   -9.9635   17.8801 C   0  0  0  0  0  0  0  0  0  0  0  0
  -27.2812  -11.7089   17.4510 C   0  0  0  0  0  0  0  0  0  0  0  0
  -25.1566  -17.2852   16.0736 C   0  0  0  0  0  0  0  0  0  0  0  0
  -27.1303  -32.5100   22.0886 C   0  0  0  0  0  0  0  0  0  0  0  0
  -26.5513  -31.1192   23.9774 C   0  0  0  0  0  0  0  0  0  0  0  0
  -23.8856  -17.8519   16.1579 C   0  0  0  0  0  0  0  0  0  0  0  0
  -25.5314  -34.8687   23.9064 C   0  0  0  0  0  0  0  0  0  0  0  0
  -25.0788  -36.1508   23.5951 C   0  0  0  0  0  0  0  0  0  0  0  0
  -24.4562  -18.7979   18.3024 C   0  0  0  0  0  0  0  0  0  0  0  0
  -27.3630  -36.9300   23.4834 C   0  0  0  0  0  0  0  0  0  0  0  0
  -26.3258  -30.2602   21.7306 C   0  0  0  0  0  0  0  0  0  0  0  0
  -26.8145  -28.1744   20.3456 C   0  0  0  0  0  0  0  0  0  0  0  0
  -29.1969  -11.0255   18.7741 C   0  0  0  0  0  0  0  0  0  0  0  0
  -26.0848  -17.4618   17.1098 C   0  0  0  0  0  0  0  0  0  0  0  0
  -28.1162  -11.9033   18.5644 C   0  0  0  0  0  0  0  0  0  0  0  0
  -25.7392  -18.2346   18.2277 C   0  0  0  0  0  0  0  0  0  0  0  0
  -27.0125  -32.3327   23.4671 C   0  0  0  0  0  0  0  0  0  0  0  0
  -23.5342  -18.6060   17.2737 C   0  0  0  0  0  0  0  0  0  0  0  0
  -26.8998  -34.6172   24.0063 C   0  0  0  0  0  0  0  0  0  0  0  0
  -25.9946  -37.1814   23.3836 C   0  0  0  0  0  0  0  0  0  0  0  0
  -27.8156  -35.6479   23.7948 C   0  0  0  0  0  0  0  0  0  0  0  0
  -25.9704  -29.1896   20.8341 C   0  0  0  0  0  0  0  0  0  0  0  0
  -19.8203  -21.2815   20.3762 C   0  0  0  0  0  0  0  0  0  0  0  0
  -26.0048  -27.4135   19.5382 C   0  0  0  0  0  0  0  0  0  0  0  0
  -20.8285  -21.0037   21.2754 C   0  0  0  0  0  0  0  0  0  0  0  0
  -20.8357  -23.2252   20.3441 C   0  0  0  0  0  0  0  0  0  0  0  0
  -28.2061  -27.9400   20.5991 C   0  0  0  0  0  0  0  0  0  0  0  0
  -27.6008  -15.5200   19.1185 C   0  0  0  0  0  0  0  0  0  0  0  0
  -29.1423  -18.2431   19.9733 C   0  0  0  0  0  0  0  0  0  0  0  0
  -29.1249  -21.6517   20.1403 C   0  0  0  0  0  0  0  0  0  0  0  0
  -20.5798  -25.4588   19.2076 C   0  0  0  0  0  0  0  0  0  0  0  0
  -30.1007  -11.1525   19.9748 C   0  0  0  0  0  0  0  0  0  0  0  0
  -27.4609  -16.8663   16.9915 C   0  0  0  0  0  0  0  0  0  0  0  0
  -26.7061  -18.4710   19.3579 C   0  0  0  0  0  0  0  0  0  0  0  0
  -30.0188  -12.5155   20.6573 C   0  0  0  0  0  0  0  0  0  0  0  0
  -21.7106  -28.1735   17.2003 C   0  0  0  0  0  0  0  0  0  0  0  0
  -28.5635  -12.9339   20.8412 C   0  0  0  0  0  0  0  0  0  0  0  0
  -23.0071  -28.6142   17.8837 C   0  0  0  0  0  0  0  0  0  0  0  0
  -20.6555  -27.7355   18.2145 C   0  0  0  0  0  0  0  0  0  0  0  0
  -22.3981  -27.1580   19.8574 C   0  0  0  0  0  0  0  0  0  0  0  0
  -27.8543  -13.0726   19.4886 C   0  0  1  0  0  0  0  0  0  0  0  0
  -28.1501  -16.6818   18.3400 C   0  0  1  0  0  0  0  0  0  0  0  0
  -23.5136  -27.5467   18.8734 C   0  0  2  0  0  0  0  0  0  0  0  0
  -16.7863  -17.8736   20.1817 C   0  0  0  0  0  0  0  0  0  0  0  0
  -30.5085  -23.5926   20.9250 C   0  0  0  0  0  0  0  0  0  0  0  0
  -18.7469  -18.0158   16.7442 C   0  0  0  0  0  0  0  0  0  0  0  0
  -19.2998  -20.9713   16.2671 C   0  0  0  0  0  0  0  0  0  0  0  0
  -28.3557  -17.6344   22.8578 C   0  0  0  0  0  0  0  0  0  0  0  0
  -28.9089  -20.0067   23.4359 C   0  0  0  0  0  0  0  0  0  0  0  0
  -30.6888  -18.4882   22.5707 C   0  0  0  0  0  0  0  0  0  0  0  0
  -16.7183  -21.7394   20.7665 C   0  0  0  0  0  0  0  0  0  0  0  0
  -17.7166  -20.0101   22.2576 C   0  0  0  0  0  0  0  0  0  0  0  0
  -29.3182  -22.7687   17.4064 C   0  0  0  0  0  0  0  0  0  0  0  0
  -16.3376  -19.3285   20.2566 C   0  0  0  0  0  0  0  0  0  0  0  0
  -21.2285  -18.4696   16.7070 C   0  0  0  0  0  0  0  0  0  1  0  0
  -18.7241  -20.3248   19.9300 C   0  0  1  0  0  0  0  0  0  0  0  0
  -28.9039  -19.3320   20.9914 C   0  0  1  0  0  0  0  0  0  0  0  0
  -30.1681  -22.6845   19.7536 C   0  0  2  0  0  0  0  0  0  0  0  0
  -19.9038  -18.7598   17.4296 C   0  0  1  0  0  0  0  0  0  0  0  0
  -19.5874  -20.2643   17.5870 C   0  0  2  0  0  0  0  0  0  0  0  0
  -29.1952  -18.8594   22.4437 C   0  0  0  0  0  0  0  0  0  0  0  0
  -17.3992  -20.3501   20.7816 C   0  0  0  0  0  0  0  0  0  0  0  0
  -24.7203  -29.0860   20.3753 N   0  0  0  0  0  0  0  0  0  0  0  0
  -19.8226  -22.5550   19.8415 N   0  0  0  0  0  0  0  0  0  0  0  0
  -24.7730  -27.9967   19.5899 N   0  0  0  0  0  0  0  0  0  0  0  0
  -28.0373  -17.8626   19.1986 N   0  0  0  0  0  0  0  0  0  0  0  0
  -21.2052  -26.7203   19.1157 N   0  0  0  0  0  0  0  0  0  0  0  0
  -26.2335  -26.3092   18.7961 N   0  0  0  0  0  0  0  0  0  0  0  0
  -21.0584  -19.8466   21.9424 N   0  0  0  0  0  0  0  0  0  0  0  0
  -28.8868  -28.8182   21.4535 N   0  0  0  0  0  0  0  0  0  0  0  0
  -21.2105  -24.5642   20.0716 N   0  0  0  0  0  0  0  0  0  0  0  0
  -28.2247  -14.3168   18.8490 N   0  0  0  0  0  0  0  0  0  0  0  0
  -29.7042  -20.4739   20.5627 N   0  0  0  0  0  0  0  0  0  0  0  0
  -29.6690  -23.5303   18.6327 N   0  3  0  0  0  0  0  0  0  0  0  0
  -18.4165  -20.4752   18.4844 N   0  3  0  0  0  0  0  0  0  0  0  0
  -28.8315  -26.9899   20.0703 O   0  0  0  0  0  0  0  0  0  0  0  0
  -26.6801  -15.7019   19.9065 O   0  0  0  0  0  0  0  0  0  0  0  0
  -30.2692  -17.7533   19.8643 O   0  0  0  0  0  0  0  0  0  0  0  0
  -27.9169  -21.8694   20.0776 O   0  0  0  0  0  0  0  0  0  0  0  0
  -19.5756  -25.1826   18.5463 O   0  0  0  0  0  0  0  0  0  0  0  0
  -27.3476  -33.3436   24.3146 O   0  0  0  0  0  0  0  0  0  0  0  0
  -22.2940  -19.1597   17.3587 O   0  0  0  0  0  0  0  0  0  1  0  0
  -25.5598  -38.4122   23.0831 F   0  0  0  0  0  0  0  0  0  0  0  0
  -29.1315  -35.4121   23.8881 F   0  0  0  0  0  0  0  0  0  0  0  0
  -21.8269  -22.3852   21.4652 S   0  0  0  0  0  0  0  0  0  0  0  0
  1  2  1  0  0  0  0
  1  5  2  0  0  0  0
  2  6  2  0  0  0  0
  3  8  2  0  0  0  0
  3 15  1  0  0  0  0
  4  9  1  0  0  0  0
  4 15  2  0  0  0  0
  5 17  1  0  0  0  0
  6 19  1  0  0  0  0
  7 10  2  0  0  0  0
  7 18  1  0  0  0  0
  8 21  1  0  0  0  0
  9 21  2  0  0  0  0
 10 22  1  0  0  0  0
 11 12  2  0  0  0  0
 11 23  1  0  0  0  0
 12 24  1  0  0  0  0
 13 20  1  0  0  0  0
 13 22  2  0  0  0  0
 14 24  2  0  0  0  0
 14 25  1  0  0  0  0
 15 26  1  0  0  0  0
 16 26  1  0  0  0  0
 16 28  2  0  0  0  0
 16 31  1  0  0  0  0
 17 19  2  0  0  0  0
 17 36  1  0  0  0  0
 18 20  2  0  0  0  0
 18 37  1  0  0  0  0
 19 45  1  0  0  0  0
 20 38  1  0  0  0  0
 21 85  1  0  0  0  0
 22 86  1  0  0  0  0
 23 25  2  0  0  0  0
 23 85  1  0  0  0  0
 24 87  1  0  0  0  0
 25 88  1  0  0  0  0
 26 67  2  0  0  0  0
 27 29  2  0  0  0  0
 27 60  1  0  0  0  0
 27 68  1  0  0  0  0
 28 69  1  0  0  0  0
 28 72  1  0  0  0  0
 29 73  1  0  0  0  0
 29 89  1  0  0  0  0
 30 68  2  0  0  0  0
 30 75  1  0  0  0  0
 30 89  1  0  0  0  0
 31 74  1  0  0  0  0
 31 80  2  0  0  0  0
 32 46  1  0  0  0  0
 32 76  1  0  0  0  0
 32 81  2  0  0  0  0
 33 61  1  0  0  0  0
 33 70  1  0  0  0  0
 33 82  2  0  0  0  0
 34 62  1  0  0  0  0
 34 77  1  0  0  0  0
 34 83  2  0  0  0  0
 35 71  1  0  0  0  0
 35 75  1  0  0  0  0
 35 84  2  0  0  0  0
 36 39  1  0  0  0  0
 37 46  1  0  0  0  0
 38 70  1  0  0  0  0
 39 41  1  0  0  0  0
 40 42  1  0  0  0  0
 40 43  1  0  0  0  0
 41 45  1  0  0  0  0
 42 47  1  0  0  0  0
 43 71  1  0  0  0  0
 44 47  1  0  0  0  0
 44 71  1  0  0  0  0
 45 76  1  0  0  0  0
 46 70  1  0  0  0  0
 47 69  1  0  0  0  0
 48 58  1  0  0  0  0
 49 62  1  0  0  0  0
 50 63  1  0  0  0  0
 51 64  1  0  0  0  0
 52 65  1  0  0  0  0
 53 65  1  0  0  0  0
 54 65  1  0  0  0  0
 55 66  1  0  0  0  0
 56 66  1  0  0  0  0
 57 78  1  0  0  0  0
 58 66  1  0  0  0  0
 59 63  1  0  0  0  0
 59 86  1  0  0  0  0
 60 66  1  0  0  0  0
 60 79  1  0  0  0  0
 61 65  1  0  0  0  0
 61 77  1  0  0  0  0
 62 78  1  0  0  0  0
 63 64  1  0  0  0  0
 64 79  1  0  0  0  0
 67 69  1  0  0  0  0
M  CHG  2  78   1  79   1
M  ISO  4  35 100  59 101  75 100  86 101
M  END
> <Batch ID>
0190

> <Smiles>
CCC(C)(C)C(NC(C)C(C)[101CH2:1][101O:1]c1ccc2c(c1)CN(C(=O)C(NC(=O)C(C)NC)C(C)(C)C)C(C(=O)NC1CCCc3ccccc31)C2)c1nc([100NH:0][100C:0](=O)N2CCCC(n3nc(-c4ccc(Oc5ccc(F)cc5F)cc4)c(C(N)=O)c3N)C2)sc1N

> <Shape>
0.246

> <Color>
0.058

> <Negative vol penalty>
0.000

$$$$

  -OEChem-04052305213D

 84 92  0     1  0  0  0  0  0999 V2000
  -27.6714  -10.2280   20.3728 C   0  0  0  0  0  0  0  0  0  0  0  0
  -28.2919  -11.3267   19.7869 C   0  0  0  0  0  0  0  0  0  0  0  0
  -19.2876  -28.8483   23.2842 C   0  0  0  0  0  0  0  0  0  0  0  0
  -20.5073  -26.8715   22.6196 C   0  0  0  0  0  0  0  0  0  0  0  0
  -26.3435  -10.3182   20.7881 C   0  0  0  0  0  0  0  0  0  0  0  0
  -27.5844  -12.5159   19.6149 C   0  0  0  0  0  0  0  0  0  0  0  0
  -29.8091  -18.2097   19.9860 C   0  0  0  0  0  0  0  0  0  0  0  0
  -18.1068  -28.2807   22.8055 C   0  0  0  0  0  0  0  0  0  0  0  0
  -19.3265  -26.3039   22.1409 C   0  0  0  0  0  0  0  0  0  0  0  0
  -30.2222  -19.1205   19.0146 C   0  0  0  0  0  0  0  0  0  0  0  0
  -16.5719  -24.1860   21.0710 C   0  0  0  0  0  0  0  0  0  0  0  0
  -16.3162  -22.8527   21.3910 C   0  0  0  0  0  0  0  0  0  0  0  0
  -28.0469  -20.1614   19.0741 C   0  0  0  0  0  0  0  0  0  0  0  0
  -29.5461  -29.1799   19.3631 C   0  0  0  0  0  0  0  0  0  0  0  0
  -16.3586  -23.4088   23.7418 C   0  0  0  0  0  0  0  0  0  0  0  0
  -20.4879  -28.1437   23.1912 C   0  0  0  0  0  0  0  0  0  0  0  0
  -22.2388  -28.6202   24.9842 C   0  0  0  0  0  0  0  0  0  0  0  0
  -25.6223  -11.5122   20.6299 C   0  0  0  0  0  0  0  0  0  0  0  0
  -28.5061  -18.2612   20.5017 C   0  0  0  0  0  0  0  0  0  0  0  0
  -26.2452  -12.6218   20.0272 C   0  0  0  0  0  0  0  0  0  0  0  0
  -27.6205  -19.2517   20.0538 C   0  0  0  0  0  0  0  0  0  0  0  0
  -30.3848  -28.0961   18.9734 C   0  0  0  0  0  0  0  0  0  0  0  0
  -18.1262  -27.0085   22.2339 C   0  0  0  0  0  0  0  0  0  0  0  0
  -29.3402  -20.0947   18.5564 C   0  0  0  0  0  0  0  0  0  0  0  0
  -16.7211  -25.1307   22.0863 C   0  0  0  0  0  0  0  0  0  0  0  0
  -16.2095  -22.4641   22.7264 C   0  0  0  0  0  0  0  0  0  0  0  0
  -16.6144  -24.7421   23.4217 C   0  0  0  0  0  0  0  0  0  0  0  0
  -21.7081  -28.7298   23.6849 C   0  0  0  0  0  0  0  0  0  0  0  0
  -23.4014  -29.3504   24.9429 C   0  0  0  0  0  0  0  0  0  0  0  0
  -28.3752  -28.7451   19.9441 C   0  0  0  0  0  0  0  0  0  0  0  0
  -29.8231  -26.8740   19.2717 C   0  0  0  0  0  0  0  0  0  0  0  0
  -21.7267  -27.9208   26.1263 C   0  0  0  0  0  0  0  0  0  0  0  0
  -26.0237  -16.2761   20.5270 C   0  0  0  0  0  0  0  0  0  0  0  0
  -24.7291  -18.5413   22.4545 C   0  0  0  0  0  0  0  0  0  0  0  0
  -24.6743  -21.8014   23.4622 C   0  0  0  0  0  0  0  0  0  0  0  0
  -27.1222  -30.8545   20.5159 C   0  0  0  0  0  0  0  0  0  0  0  0
  -24.1746  -11.5471   21.0513 C   0  0  0  0  0  0  0  0  0  0  0  0
  -28.0844  -17.2882   21.5685 C   0  0  0  0  0  0  0  0  0  0  0  0
  -26.2175  -19.3623   20.5901 C   0  0  0  0  0  0  0  0  0  0  0  0
  -23.6100  -12.9600   21.1744 C   0  0  0  0  0  0  0  0  0  0  0  0
  -25.4043  -33.0787   22.7020 C   0  0  0  0  0  0  0  0  0  0  0  0
  -23.9957  -13.7969   19.9588 C   0  0  0  0  0  0  0  0  0  0  0  0
  -24.3136  -32.2044   23.3249 C   0  0  0  0  0  0  0  0  0  0  0  0
  -25.6496  -32.7217   21.2370 C   0  0  0  0  0  0  0  0  0  0  0  0
  -24.8313  -30.4272   21.6043 C   0  0  0  0  0  0  0  0  0  0  0  0
  -25.5186  -13.9368   19.8461 C   0  0  1  0  0  0  0  0  0  0  0  0
  -26.5715  -17.1100   21.6504 C   0  0  1  0  0  0  0  0  0  0  0  0
  -24.5941  -30.7060   23.0975 C   0  0  2  0  0  0  0  0  0  0  0  0
  -31.7055  -28.2700   18.3247 C   0  0  0  0  0  0  0  0  0  0  0  0
  -23.4823  -23.3599   25.0267 C   0  0  0  0  0  0  0  0  0  0  0  0
  -22.3330  -18.6001   20.5664 C   0  0  0  0  0  0  0  0  0  0  0  0
  -21.6553  -20.7744   21.6064 C   0  0  0  0  0  0  0  0  0  0  0  0
  -21.7495  -18.7049   22.9960 C   0  0  0  0  0  0  0  0  0  0  0  0
  -27.1667  -22.4147   24.9356 C   0  0  0  0  0  0  0  0  0  0  0  0
  -29.1390  -22.2782   17.6356 C   0  0  0  0  0  0  0  0  0  1  0  0
  -29.7280  -24.7699   17.4503 C   0  0  0  0  0  0  0  0  0  0  0  0
  -23.9045  -19.7868   22.2362 C   0  0  1  0  0  0  0  0  0  0  0  0
  -24.6706  -22.4285   24.8447 C   0  0  2  0  0  0  0  0  0  0  0  0
  -30.0799  -23.3369   17.0481 C   0  0  2  0  0  0  0  0  0  0  0  0
  -22.4363  -19.4635   21.8395 C   0  0  0  0  0  0  0  0  0  0  0  0
  -22.4708  -29.4713   22.8772 N   0  0  0  0  0  0  0  0  0  0  0  0
  -23.4926  -29.8344   23.6711 N   0  0  0  0  0  0  0  0  0  0  0  0
  -25.8503  -18.3842   21.6274 N   0  0  0  0  0  0  0  0  0  0  0  0
  -25.9126  -31.2876   21.0990 N   0  0  0  0  0  0  0  0  0  0  0  0
  -24.3442  -29.6193   25.8709 N   0  0  0  0  0  0  0  0  0  0  0  0
  -20.5195  -27.2209   25.9952 N   0  0  0  0  0  0  0  0  0  0  0  0
  -30.0460  -23.2468   15.5846 N   0  0  0  0  0  0  0  0  0  0  0  0
  -27.2756  -29.4693   20.4678 N   0  0  0  0  0  0  0  0  0  0  0  0
  -26.0070  -14.9196   20.7896 N   0  0  0  0  0  0  0  0  0  0  0  0
  -24.0336  -20.5805   23.4535 N   0  0  0  0  0  0  0  0  0  0  0  0
  -25.9196  -23.2122   25.0613 N   0  3  0  0  0  0  0  0  0  0  0  0
  -22.3136  -27.9302   27.2348 O   0  0  0  0  0  0  0  0  0  0  0  0
  -25.6428  -16.8230   19.4986 O   0  0  0  0  0  0  0  0  0  0  0  0
  -24.3950  -17.7409   23.3316 O   0  0  0  0  0  0  0  0  0  0  0  0
  -25.1904  -22.3424   22.4868 O   0  0  0  0  0  0  0  0  0  0  0  0
  -27.9723  -31.6538   20.1153 O   0  0  0  0  0  0  0  0  0  0  0  0
  -31.8045  -25.2227   18.9858 O   0  0  0  0  0  0  0  0  0  0  0  0
  -29.6713  -24.3790   20.0267 O   0  0  0  0  0  0  0  0  0  0  0  0
  -16.9742  -26.4542   21.7669 O   0  0  0  0  0  0  0  0  0  0  0  0
  -29.7406  -20.9845   17.6079 O   0  0  0  0  0  0  0  0  0  1  0  0
  -15.9624  -21.1839   23.0336 F   0  0  0  0  0  0  0  0  0  0  0  0
  -16.7556  -25.6454   24.4015 F   0  0  0  0  0  0  0  0  0  0  0  0
  -28.2906  -27.0364   20.0181 S   0  0  0  0  0  0  0  0  0  0  0  0
  -30.3533  -25.2029   19.0437 S   0  0  0  0  0  0  0  0  0  0  0  0
  1  2  1  0  0  0  0
  1  5  2  0  0  0  0
  2  6  2  0  0  0  0
  3  8  2  0  0  0  0
  3 16  1  0  0  0  0
  4  9  1  0  0  0  0
  4 16  2  0  0  0  0
  5 18  1  0  0  0  0
  6 20  1  0  0  0  0
  7 10  2  0  0  0  0
  7 19  1  0  0  0  0
  8 23  1  0  0  0  0
  9 23  2  0  0  0  0
 10 24  1  0  0  0  0
 11 12  2  0  0  0  0
 11 25  1  0  0  0  0
 12 26  1  0  0  0  0
 13 21  1  0  0  0  0
 13 24  2  0  0  0  0
 14 22  1  0  0  0  0
 14 30  2  0  0  0  0
 15 26  2  0  0  0  0
 15 27  1  0  0  0  0
 16 28  1  0  0  0  0
 17 28  1  0  0  0  0
 17 29  2  0  0  0  0
 17 32  1  0  0  0  0
 18 20  2  0  0  0  0
 18 37  1  0  0  0  0
 19 21  2  0  0  0  0
 19 38  1  0  0  0  0
 20 46  1  0  0  0  0
 21 39  1  0  0  0  0
 22 31  2  0  0  0  0
 22 49  1  0  0  0  0
 23 79  1  0  0  0  0
 24 80  1  0  0  0  0
 25 27  2  0  0  0  0
 25 79  1  0  0  0  0
 26 81  1  0  0  0  0
 27 82  1  0  0  0  0
 28 61  2  0  0  0  0
 29 62  1  0  0  0  0
 29 65  1  0  0  0  0
 30 68  1  0  0  0  0
 30 83  1  0  0  0  0
 31 83  1  0  0  0  0
 31 84  1  0  0  0  0
 32 66  1  0  0  0  0
 32 72  2  0  0  0  0
 33 47  1  0  0  0  0
 33 69  1  0  0  0  0
 33 73  2  0  0  0  0
 34 57  1  0  0  0  0
 34 63  1  0  0  0  0
 34 74  2  0  0  0  0
 35 58  1  0  0  0  0
 35 70  1  0  0  0  0
 35 75  2  0  0  0  0
 36 64  1  0  0  0  0
 36 68  1  0  0  0  0
 36 76  2  0  0  0  0
 37 40  1  0  0  0  0
 38 47  1  0  0  0  0
 39 63  1  0  0  0  0
 40 42  1  0  0  0  0
 41 43  1  0  0  0  0
 41 44  1  0  0  0  0
 42 46  1  0  0  0  0
 43 48  1  0  0  0  0
 44 64  1  0  0  0  0
 45 48  1  0  0  0  0
 45 64  1  0  0  0  0
 46 69  1  0  0  0  0
 47 63  1  0  0  0  0
 48 62  1  0  0  0  0
 50 58  1  0  0  0  0
 51 60  1  0  0  0  0
 52 60  1  0  0  0  0
 53 60  1  0  0  0  0
 54 71  1  0  0  0  0
 55 59  1  0  0  0  0
 55 80  1  0  0  0  0
 56 59  1  0  0  0  0
 56 84  1  0  0  0  0
 57 60  1  0  0  0  0
 57 70  1  0  0  0  0
 58 71  1  0  0  0  0
 59 67  1  0  0  0  0
 61 62  1  0  0  0  0
 77 84  2  0  0  0  0
 78 84  2  0  0  0  0
M  CHG  1  71   1
M  ISO  4  36 100  55 101  68 100  80 101
M  END
> <Batch ID>
0190

> <Smiles>
CNC(C)C(=O)NC(C(=O)N1Cc2cc([101O:1][101CH2:1]C(N)CS(=O)(=O)c3sc([100NH:0][100C:0](=O)N4CCCC(n5nc(-c6ccc(Oc7ccc(F)cc7F)cc6)c(C(N)=O)c5N)C4)cc3C)ccc2CC1C(=O)NC1CCCc2ccccc21)C(C)(C)C

> <Shape>
0.253

> <Color>
0.055

> <Negative vol penalty>
0.000

$$$$

  -OEChem-04052305213D

 89 97  0     1  0  0  0  0  0999 V2000
  -18.2441  -27.5951   19.1466 C   0  0  0  0  0  0  0  0  0  0  0  0
  -19.3112  -26.7037   19.1902 C   0  0  0  0  0  0  0  0  0  0  0  0
  -23.2491   -9.6242   21.2189 C   0  0  0  0  0  0  0  0  0  0  0  0
  -23.9400  -10.4663   23.3754 C   0  0  0  0  0  0  0  0  0  0  0  0
  -17.9403  -28.3721   20.2637 C   0  0  0  0  0  0  0  0  0  0  0  0
  -20.0760  -26.5896   20.3507 C   0  0  0  0  0  0  0  0  0  0  0  0
  -22.6933  -21.5084   22.5500 C   0  0  0  0  0  0  0  0  0  0  0  0
  -22.5849   -8.5688   21.8438 C   0  0  0  0  0  0  0  0  0  0  0  0
  -23.2757   -9.4108   24.0003 C   0  0  0  0  0  0  0  0  0  0  0  0
  -23.9941  -21.0131   22.4697 C   0  0  0  0  0  0  0  0  0  0  0  0
  -21.0092   -5.4511   22.8544 C   0  0  0  0  0  0  0  0  0  0  0  0
  -21.1749   -4.1726   22.3220 C   0  0  0  0  0  0  0  0  0  0  0  0
  -24.4896  -21.9820   24.6226 C   0  0  0  0  0  0  0  0  0  0  0  0
  -23.5548   -4.3186   22.7122 C   0  0  0  0  0  0  0  0  0  0  0  0
  -23.9267  -10.5730   21.9847 C   0  0  0  0  0  0  0  0  0  0  0  0
  -24.0856  -12.9273   21.0155 C   0  0  0  0  0  0  0  0  0  0  0  0
  -18.6957  -28.2605   21.4416 C   0  0  0  0  0  0  0  0  0  0  0  0
  -22.2835  -22.2548   23.6642 C   0  0  0  0  0  0  0  0  0  0  0  0
  -19.7828  -27.3668   21.4841 C   0  0  0  0  0  0  0  0  0  0  0  0
  -23.1823  -22.4834   24.7159 C   0  0  0  0  0  0  0  0  0  0  0  0
  -22.5982   -8.4621   23.2345 C   0  0  0  0  0  0  0  0  0  0  0  0
  -24.8933  -21.2523   23.5047 C   0  0  0  0  0  0  0  0  0  0  0  0
  -22.1163   -6.1635   23.3156 C   0  0  0  0  0  0  0  0  0  0  0  0
  -22.4477   -3.6063   22.2510 C   0  0  0  0  0  0  0  0  0  0  0  0
  -23.3890   -5.5972   23.2446 C   0  0  0  0  0  0  0  0  0  0  0  0
  -24.6134  -11.6631   21.3398 C   0  0  0  0  0  0  0  0  0  0  0  0
  -31.2407  -19.4010   20.4048 C   0  0  0  0  0  0  0  0  0  0  0  0
  -25.1299  -13.5933   20.4218 C   0  0  0  0  0  0  0  0  0  0  0  0
  -30.0939  -19.9095   20.9778 C   0  0  0  0  0  0  0  0  0  0  0  0
  -30.1473  -17.5198   20.6798 C   0  0  0  0  0  0  0  0  0  0  0  0
  -32.3651  -20.1962   19.9919 C   0  0  0  0  0  0  0  0  0  0  0  0
  -22.7692  -13.4526   21.2316 C   0  0  0  0  0  0  0  0  0  0  0  0
  -21.2451  -25.2248   24.1159 C   0  0  0  0  0  0  0  0  0  0  0  0
  -20.7711  -24.1821   27.1508 C   0  0  0  0  0  0  0  0  0  0  0  0
  -21.5941  -21.9704   29.6161 C   0  0  0  0  0  0  0  0  0  0  0  0
  -30.4974  -15.0635   20.2435 C   0  0  0  0  0  0  0  0  0  0  0  0
  -18.3586  -29.1556   22.6078 C   0  0  0  0  0  0  0  0  0  0  0  0
  -20.8690  -22.7593   23.7479 C   0  0  0  0  0  0  0  0  0  0  0  0
  -22.7858  -23.2615   25.9429 C   0  0  0  0  0  0  0  0  0  0  0  0
  -18.9857  -28.7034   23.9240 C   0  0  0  0  0  0  0  0  0  0  0  0
  -29.6317  -11.9112   18.8325 C   0  0  0  0  0  0  0  0  0  0  0  0
  -20.4574  -28.3565   23.7227 C   0  0  0  0  0  0  0  0  0  0  0  0
  -28.2055  -11.6697   19.3323 C   0  0  0  0  0  0  0  0  0  0  0  0
  -30.4926  -12.6042   19.8872 C   0  0  0  0  0  0  0  0  0  0  0  0
  -28.4986  -13.6005   20.9364 C   0  0  0  0  0  0  0  0  0  0  0  0
  -20.6205  -27.1966   22.7329 C   0  0  1  0  0  0  0  0  0  0  0  0
  -20.7125  -23.9448   24.6952 C   0  0  1  0  0  0  0  0  0  0  0  0
  -27.5755  -12.9631   19.8851 C   0  0  2  0  0  0  0  0  0  0  0  0
  -29.8321  -21.8085   25.5795 C   0  0  0  0  0  0  0  0  0  0  0  0
  -21.0652  -21.3909   31.9997 C   0  0  0  0  0  0  0  0  0  0  0  0
  -27.6957  -25.0565   20.0729 C   0  0  0  0  0  0  0  0  0  0  0  0
  -28.8266  -23.0748   19.0634 C   0  0  0  0  0  0  0  0  0  0  0  0
  -26.4482  -22.9080   19.8342 C   0  0  0  0  0  0  0  0  0  0  0  0
  -22.4269  -26.5647   28.0948 C   0  0  0  0  0  0  0  0  0  0  0  0
  -22.6633  -25.4319   30.3150 C   0  0  0  0  0  0  0  0  0  0  0  0
  -20.4035  -26.0845   29.4840 C   0  0  0  0  0  0  0  0  0  0  0  0
  -20.6405  -19.2699   28.8697 C   0  0  0  0  0  0  0  0  0  0  0  0
  -29.6749  -22.1416   24.1019 C   0  0  0  0  0  0  0  0  0  0  0  0
  -28.2967  -23.1454   21.5788 C   0  0  0  0  0  0  0  0  0  0  0  0
  -27.1846  -21.5162   24.0849 C   0  0  0  0  0  0  0  0  0  1  0  0
  -21.6050  -24.1373   28.4084 C   0  0  1  0  0  0  0  0  0  0  0  0
  -20.7350  -21.1253   30.5392 C   0  0  2  0  0  0  0  0  0  0  0  0
  -28.5533  -21.3370   23.4006 C   0  0  1  0  0  0  0  0  0  0  0  0
  -28.5442  -21.6489   21.8715 C   0  0  2  0  0  0  0  0  0  0  0  0
  -27.8266  -23.5202   20.1411 C   0  0  0  0  0  0  0  0  0  0  0  0
  -21.7830  -25.5416   29.0517 C   0  0  0  0  0  0  0  0  0  0  0  0
  -25.8934  -11.5314   20.9817 N   0  0  0  0  0  0  0  0  0  0  0  0
  -31.2733  -18.0308   20.2335 N   0  0  0  0  0  0  0  0  0  0  0  0
  -33.4502  -19.7050   19.4485 N   0  0  0  0  0  0  0  0  0  0  0  0
  -26.1787  -12.7214   20.4261 N   0  0  0  0  0  0  0  0  0  0  0  0
  -21.3937  -23.7394   25.9751 N   0  0  0  0  0  0  0  0  0  0  0  0
  -29.8345  -13.8236   20.3614 N   0  0  0  0  0  0  0  0  0  0  0  0
  -25.2441  -14.8338   19.9016 N   0  0  0  0  0  0  0  0  0  0  0  0
  -21.8174  -12.6343   21.8552 N   0  0  0  0  0  0  0  0  0  0  0  0
  -29.7919  -21.2276   21.2652 N   0  0  0  0  0  0  0  0  0  0  0  0
  -29.7606  -16.1568   20.6980 N   0  0  0  0  0  0  0  0  0  0  0  0
  -20.3190  -25.9362   23.3772 N   0  0  0  0  0  0  0  0  0  0  0  0
  -20.9729  -23.1553   29.2826 N   0  0  0  0  0  0  0  0  0  0  0  0
  -20.9499  -19.6764   30.2647 N   0  3  0  0  0  0  0  0  0  0  0  0
  -22.4417  -14.6074   20.8673 O   0  0  0  0  0  0  0  0  0  0  0  0
  -22.4096  -25.5442   24.3250 O   0  0  0  0  0  0  0  0  0  0  0  0
  -19.6078  -24.5879   27.2107 O   0  0  0  0  0  0  0  0  0  0  0  0
  -22.7068  -21.6165   29.2324 O   0  0  0  0  0  0  0  0  0  0  0  0
  -31.6241  -15.1525   19.7489 O   0  0  0  0  0  0  0  0  0  0  0  0
  -21.9500   -7.4324   23.8446 O   0  0  0  0  0  0  0  0  0  0  0  0
  -26.1737  -20.7668   23.4279 O   0  0  0  0  0  0  0  0  0  1  0  0
  -22.6065   -2.3779   21.7411 F   0  0  0  0  0  0  0  0  0  0  0  0
  -24.4562   -6.2762   23.6872 F   0  0  0  0  0  0  0  0  0  0  0  0
  -29.0045  -18.6294   21.3183 S   0  0  0  0  0  0  0  0  0  0  0  0
  1  2  1  0  0  0  0
  1  5  2  0  0  0  0
  2  6  2  0  0  0  0
  3  8  2  0  0  0  0
  3 15  1  0  0  0  0
  4  9  1  0  0  0  0
  4 15  2  0  0  0  0
  5 17  1  0  0  0  0
  6 19  1  0  0  0  0
  7 10  2  0  0  0  0
  7 18  1  0  0  0  0
  8 21  1  0  0  0  0
  9 21  2  0  0  0  0
 10 22  1  0  0  0  0
 11 12  2  0  0  0  0
 11 23  1  0  0  0  0
 12 24  1  0  0  0  0
 13 20  1  0  0  0  0
 13 22  2  0  0  0  0
 14 24  2  0  0  0  0
 14 25  1  0  0  0  0
 15 26  1  0  0  0  0
 16 26  1  0  0  0  0
 16 28  2  0  0  0  0
 16 32  1  0  0  0  0
 17 19  2  0  0  0  0
 17 37  1  0  0  0  0
 18 20  2  0  0  0  0
 18 38  1  0  0  0  0
 19 46  1  0  0  0  0
 20 39  1  0  0  0  0
 21 85  1  0  0  0  0
 22 86  1  0  0  0  0
 23 25  2  0  0  0  0
 23 85  1  0  0  0  0
 24 87  1  0  0  0  0
 25 88  1  0  0  0  0
 26 67  2  0  0  0  0
 27 29  2  0  0  0  0
 27 31  1  0  0  0  0
 27 68  1  0  0  0  0
 28 70  1  0  0  0  0
 28 73  1  0  0  0  0
 29 75  1  0  0  0  0
 29 89  1  0  0  0  0
 30 68  2  0  0  0  0
 30 76  1  0  0  0  0
 30 89  1  0  0  0  0
 31 69  2  0  0  0  0
 32 74  1  0  0  0  0
 32 80  2  0  0  0  0
 33 47  1  0  0  0  0
 33 77  1  0  0  0  0
 33 81  2  0  0  0  0
 34 61  1  0  0  0  0
 34 71  1  0  0  0  0
 34 82  2  0  0  0  0
 35 62  1  0  0  0  0
 35 78  1  0  0  0  0
 35 83  2  0  0  0  0
 36 72  1  0  0  0  0
 36 76  1  0  0  0  0
 36 84  2  0  0  0  0
 37 40  1  0  0  0  0
 38 47  1  0  0  0  0
 39 71  1  0  0  0  0
 40 42  1  0  0  0  0
 41 43  1  0  0  0  0
 41 44  1  0  0  0  0
 42 46  1  0  0  0  0
 43 48  1  0  0  0  0
 44 72  1  0  0  0  0
 45 48  1  0  0  0  0
 45 72  1  0  0  0  0
 46 77  1  0  0  0  0
 47 71  1  0  0  0  0
 48 70  1  0  0  0  0
 49 58  1  0  0  0  0
 50 62  1  0  0  0  0
 51 65  1  0  0  0  0
 52 65  1  0  0  0  0
 53 65  1  0  0  0  0
 54 66  1  0  0  0  0
 55 66  1  0  0  0  0
 56 66  1  0  0  0  0
 57 79  1  0  0  0  0
 58 63  1  0  0  0  0
 59 64  1  0  0  0  0
 59 65  1  0  0  0  0
 60 63  1  0  0  0  0
 60 86  1  0  0  0  0
 61 66  1  0  0  0  0
 61 78  1  0  0  0  0
 62 79  1  0  0  0  0
 63 64  1  0  0  0  0
 64 75  1  0  0  0  0
 67 70  1  0  0  0  0
M  CHG  1  79   1
M  ISO  4  36 100  60 101  76 100  86 101
M  END
> <Batch ID>
0190

> <Smiles>
CCC(C(CC(C)(C)C)Nc1sc([100NH:0][100C:0](=O)N2CCCC(n3nc(-c4ccc(Oc5ccc(F)cc5F)cc4)c(C(N)=O)c3N)C2)nc1C=N)[101CH2:1][101O:1]c1ccc2c(c1)CN(C(=O)C(NC(=O)C(C)NC)C(C)(C)C)C(C(=O)NC1CCCc3ccccc31)C2

> <Shape>
0.234

> <Color>
0.156

> <Negative vol penalty>
0.000

$$$$

  -OEChem-04052305213D

 87 95  0     1  0  0  0  0  0999 V2000
  -29.1625  -34.7449   12.1452 C   0  0  0  0  0  0  0  0  0  0  0  0
  -29.2067  -34.1754   13.4138 C   0  0  0  0  0  0  0  0  0  0  0  0
  -23.1963   -9.6887   20.0477 C   0  0  0  0  0  0  0  0  0  0  0  0
  -23.8591   -9.9231   22.3591 C   0  0  0  0  0  0  0  0  0  0  0  0
  -28.5148  -34.0789   11.1056 C   0  0  0  0  0  0  0  0  0  0  0  0
  -28.6021  -32.9400   13.6436 C   0  0  0  0  0  0  0  0  0  0  0  0
  -30.5300  -28.5502   17.4539 C   0  0  0  0  0  0  0  0  0  0  0  0
  -22.5018   -8.5214   20.3652 C   0  0  0  0  0  0  0  0  0  0  0  0
  -23.1645   -8.7558   22.6767 C   0  0  0  0  0  0  0  0  0  0  0  0
  -30.1525  -28.2006   18.7497 C   0  0  0  0  0  0  0  0  0  0  0  0
  -19.9585   -7.8376   23.2232 C   0  0  0  0  0  0  0  0  0  0  0  0
  -19.1567   -7.8525   24.3644 C   0  0  0  0  0  0  0  0  0  0  0  0
  -28.6678  -26.5215   17.8576 C   0  0  0  0  0  0  0  0  0  0  0  0
  -20.4626   -6.0509   25.3056 C   0  0  0  0  0  0  0  0  0  0  0  0
  -31.4271  -17.9758   21.5058 C   0  0  0  0  0  0  0  0  0  0  0  0
  -23.8750  -10.3895   21.0446 C   0  0  0  0  0  0  0  0  0  0  0  0
  -24.0937  -12.9112   20.7271 C   0  0  0  0  0  0  0  0  0  0  0  0
  -27.9104  -32.8303   11.3205 C   0  0  0  0  0  0  0  0  0  0  0  0
  -29.9701  -27.8944   16.3480 C   0  0  0  0  0  0  0  0  0  0  0  0
  -27.9446  -32.2574   12.6061 C   0  0  0  0  0  0  0  0  0  0  0  0
  -29.0417  -26.8630   16.5489 C   0  0  0  0  0  0  0  0  0  0  0  0
  -22.4859   -8.0550   21.6796 C   0  0  0  0  0  0  0  0  0  0  0  0
  -29.2191  -27.1881   18.9516 C   0  0  0  0  0  0  0  0  0  0  0  0
  -21.0124   -6.9292   23.1232 C   0  0  0  0  0  0  0  0  0  0  0  0
  -19.4087   -6.9592   25.4056 C   0  0  0  0  0  0  0  0  0  0  0  0
  -21.2645   -6.0359   24.1644 C   0  0  0  0  0  0  0  0  0  0  0  0
  -24.5930  -11.5950   20.7172 C   0  0  0  0  0  0  0  0  0  0  0  0
  -25.1608  -13.6862   20.3434 C   0  0  0  0  0  0  0  0  0  0  0  0
  -30.2507  -17.2878   21.7175 C   0  0  0  0  0  0  0  0  0  0  0  0
  -30.3403  -19.5176   22.6244 C   0  0  0  0  0  0  0  0  0  0  0  0
  -22.7825  -13.3904   21.0540 C   0  0  0  0  0  0  0  0  0  0  0  0
  -28.1965  -28.7938   13.8683 C   0  0  0  0  0  0  0  0  0  0  0  0
  -28.6721  -25.7300   12.9146 C   0  0  0  0  0  0  0  0  0  0  0  0
  -29.3941  -22.5071   13.7740 C   0  0  0  0  0  0  0  0  0  0  0  0
  -30.5554  -15.0344   20.6334 C   0  0  0  0  0  0  0  0  0  0  0  0
  -27.1811  -32.1704   10.1771 C   0  0  0  0  0  0  0  0  0  0  0  0
  -30.4078  -28.2652   14.9576 C   0  0  0  0  0  0  0  0  0  0  0  0
  -28.4263  -26.1143   15.3960 C   0  0  0  0  0  0  0  0  0  0  0  0
  -26.8894  -30.6908   10.4136 C   0  0  0  0  0  0  0  0  0  0  0  0
  -29.6632  -12.3796   18.4349 C   0  0  0  0  0  0  0  0  0  0  0  0
  -26.3192  -30.4760   11.8120 C   0  0  0  0  0  0  0  0  0  0  0  0
  -28.2235  -12.0471   18.8335 C   0  0  0  0  0  0  0  0  0  0  0  0
  -30.5150  -12.7542   19.6464 C   0  0  0  0  0  0  0  0  0  0  0  0
  -28.5184  -13.4852   20.8906 C   0  0  0  0  0  0  0  0  0  0  0  0
  -27.3221  -30.9073   12.8890 C   0  0  1  0  0  0  0  0  0  0  0  0
  -29.3898  -27.8809   13.8883 C   0  0  1  0  0  0  0  0  0  0  0  0
  -27.6052  -13.1647   19.6960 C   0  0  2  0  0  0  0  0  0  0  0  0
  -30.9190  -19.9337   25.5572 C   0  0  0  0  0  0  0  0  0  0  0  0
  -29.6755  -20.2196   12.7814 C   0  0  0  0  0  0  0  0  0  0  0  0
  -28.2642  -23.4420   23.5532 C   0  0  0  0  0  0  0  0  0  0  0  0
  -25.6428  -25.4724   12.6555 C   0  0  0  0  0  0  0  0  0  0  0  0
  -25.9289  -22.9858   12.6004 C   0  0  0  0  0  0  0  0  0  0  0  0
  -26.9430  -24.3961   10.8101 C   0  0  0  0  0  0  0  0  0  0  0  0
  -32.2097  -22.3380   14.6698 C   0  0  0  0  0  0  0  0  0  0  0  0
  -30.9556  -21.0639   24.5323 C   0  0  0  0  0  0  0  0  0  0  0  0
  -29.7519  -24.5344   21.8037 C   0  0  0  0  0  0  0  0  0  0  0  0
  -29.8134  -27.0156   21.2479 C   0  0  0  0  0  0  0  0  0  1  0  0
  -30.0141  -20.8379   23.3229 C   0  0  1  0  0  0  0  0  0  0  0  0
  -27.9527  -24.4201   13.1278 C   0  0  1  0  0  0  0  0  0  0  0  0
  -30.3755  -21.5054   13.1929 C   0  0  2  0  0  0  0  0  0  0  0  0
  -29.6466  -23.4271   22.8880 C   0  0  2  0  0  0  0  0  0  0  0  0
  -30.0350  -22.0308   22.3128 C   0  0  2  0  0  0  0  0  0  0  0  0
  -29.6171  -25.9699   22.3439 C   0  0  2  0  0  0  0  0  0  0  0  0
  -26.6268  -24.3338   12.3203 C   0  0  0  0  0  0  0  0  0  0  0  0
  -31.4802  -19.2547   22.0248 N   0  0  0  0  0  0  0  0  0  0  0  0
  -25.8774  -11.5335   20.3557 N   0  0  0  0  0  0  0  0  0  0  0  0
  -26.1941  -12.8207   20.1348 N   0  0  0  0  0  0  0  0  0  0  0  0
  -28.8818  -26.5178   14.0554 N   0  0  0  0  0  0  0  0  0  0  0  0
  -29.8689  -13.8214   20.4134 N   0  0  0  0  0  0  0  0  0  0  0  0
  -25.3066  -15.0166   20.1674 N   0  0  0  0  0  0  0  0  0  0  0  0
  -21.8046  -12.4587   21.4281 N   0  0  0  0  0  0  0  0  0  0  0  0
  -29.8288  -15.9868   21.3472 N   0  0  0  0  0  0  0  0  0  0  0  0
  -28.3487  -29.9010   13.0557 N   0  0  0  0  0  0  0  0  0  0  0  0
  -28.9146  -23.3699   12.8112 N   0  0  0  0  0  0  0  0  0  0  0  0
  -29.1177  -21.6911   21.1716 N   0  3  0  0  0  0  0  0  0  0  0  0
  -31.4262  -21.1687   14.1947 N   0  3  0  0  0  0  0  0  0  0  0  0
  -22.4823  -14.6072   20.9996 O   0  0  0  0  0  0  0  0  0  0  0  0
  -27.2100  -28.5135   14.5392 O   0  0  0  0  0  0  0  0  0  0  0  0
  -29.0409  -26.0396   11.7789 O   0  0  0  0  0  0  0  0  0  0  0  0
  -29.0810  -22.5204   14.9624 O   0  0  0  0  0  0  0  0  0  0  0  0
  -31.6929  -15.2248   20.1956 O   0  0  0  0  0  0  0  0  0  0  0  0
  -30.5803  -26.2024   23.3669 O   0  0  0  0  0  0  0  0  0  0  0  0
  -21.8081   -6.9162   21.9899 O   0  0  0  0  0  0  0  0  0  0  0  0
  -28.8454  -26.8425   20.2256 O   0  0  0  0  0  0  0  0  0  1  0  0
  -18.6395   -6.9747   26.5021 F   0  0  0  0  0  0  0  0  0  0  0  0
  -22.2762   -5.1618   24.0745 F   0  0  0  0  0  0  0  0  0  0  0  0
  -29.1602  -18.2718   22.6029 S   0  0  0  0  0  0  0  0  0  0  0  0
  1  2  1  0  0  0  0
  1  5  2  0  0  0  0
  2  6  2  0  0  0  0
  3  8  2  0  0  0  0
  3 16  1  0  0  0  0
  4  9  1  0  0  0  0
  4 16  2  0  0  0  0
  5 18  1  0  0  0  0
  6 20  1  0  0  0  0
  7 10  2  0  0  0  0
  7 19  1  0  0  0  0
  8 22  1  0  0  0  0
  9 22  2  0  0  0  0
 10 23  1  0  0  0  0
 11 12  2  0  0  0  0
 11 24  1  0  0  0  0
 12 25  1  0  0  0  0
 13 21  1  0  0  0  0
 13 23  2  0  0  0  0
 14 25  2  0  0  0  0
 14 26  1  0  0  0  0
 15 29  2  0  0  0  0
 15 65  1  0  0  0  0
 16 27  1  0  0  0  0
 17 27  1  0  0  0  0
 17 28  2  0  0  0  0
 17 31  1  0  0  0  0
 18 20  2  0  0  0  0
 18 36  1  0  0  0  0
 19 21  2  0  0  0  0
 19 37  1  0  0  0  0
 20 45  1  0  0  0  0
 21 38  1  0  0  0  0
 22 83  1  0  0  0  0
 23 84  1  0  0  0  0
 24 26  2  0  0  0  0
 24 83  1  0  0  0  0
 25 85  1  0  0  0  0
 26 86  1  0  0  0  0
 27 66  2  0  0  0  0
 28 67  1  0  0  0  0
 28 70  1  0  0  0  0
 29 72  1  0  0  0  0
 29 87  1  0  0  0  0
 30 58  1  0  0  0  0
 30 65  2  0  0  0  0
 30 87  1  0  0  0  0
 31 71  1  0  0  0  0
 31 77  2  0  0  0  0
 32 46  1  0  0  0  0
 32 73  1  0  0  0  0
 32 78  2  0  0  0  0
 33 59  1  0  0  0  0
 33 68  1  0  0  0  0
 33 79  2  0  0  0  0
 34 60  1  0  0  0  0
 34 74  1  0  0  0  0
 34 80  2  0  0  0  0
 35 69  1  0  0  0  0
 35 72  1  0  0  0  0
 35 81  2  0  0  0  0
 36 39  1  0  0  0  0
 37 46  1  0  0  0  0
 38 68  1  0  0  0  0
 39 41  1  0  0  0  0
 40 42  1  0  0  0  0
 40 43  1  0  0  0  0
 41 45  1  0  0  0  0
 42 47  1  0  0  0  0
 43 69  1  0  0  0  0
 44 47  1  0  0  0  0
 44 69  1  0  0  0  0
 45 73  1  0  0  0  0
 46 68  1  0  0  0  0
 47 67  1  0  0  0  0
 48 55  1  0  0  0  0
 49 60  1  0  0  0  0
 50 61  1  0  0  0  0
 51 64  1  0  0  0  0
 52 64  1  0  0  0  0
 53 64  1  0  0  0  0
 54 76  1  0  0  0  0
 55 58  1  0  0  0  0
 56 61  1  0  0  0  0
 56 63  1  0  0  0  0
 57 63  1  0  0  0  0
 57 84  1  0  0  0  0
 58 62  1  0  0  0  0
 59 64  1  0  0  0  0
 59 74  1  0  0  0  0
 60 76  1  0  0  0  0
 61 62  1  0  0  0  0
 62 75  1  0  0  0  0
 63 82  1  0  0  0  0
 66 67  1  0  0  0  0
M  CHG  2  75   1  76   1
M  ISO  4  35 100  57 101  72 100  84 101
M  END
> <Batch ID>
0190

> <Smiles>
CCC(c1ncc([100NH:0][100C:0](=O)N2CCCC(n3nc(-c4ccc(Oc5ccc(F)cc5F)cc4)c(C(N)=O)c3N)C2)s1)C(N)C(C)CC(O)[101CH2:1][101O:1]c1ccc2c(c1)CN(C(=O)C(NC(=O)C(C)NC)C(C)(C)C)C(C(=O)NC1CCCc3ccccc31)C2

> <Shape>
0.205

> <Color>
0.180

> <Negative vol penalty>
0.000

$$$$

  -OEChem-04052305213D

 84 92  0     1  0  0  0  0  0999 V2000
  -30.8380  -36.4097   24.0626 C   0  0  0  0  0  0  0  0  0  0  0  0
  -31.0496  -35.0725   23.7423 C   0  0  0  0  0  0  0  0  0  0  0  0
  -24.7394   -8.5865   21.4010 C   0  0  0  0  0  0  0  0  0  0  0  0
  -23.1418  -10.3767   21.1176 C   0  0  0  0  0  0  0  0  0  0  0  0
  -29.7185  -36.7782   24.8076 C   0  0  0  0  0  0  0  0  0  0  0  0
  -30.1424  -34.1028   24.1679 C   0  0  0  0  0  0  0  0  0  0  0  0
  -28.5162  -29.0152   21.1717 C   0  0  0  0  0  0  0  0  0  0  0  0
  -23.9015   -7.9877   22.3416 C   0  0  0  0  0  0  0  0  0  0  0  0
  -22.3039   -9.7778   22.0582 C   0  0  0  0  0  0  0  0  0  0  0  0
  -28.9303  -27.6885   21.2825 C   0  0  0  0  0  0  0  0  0  0  0  0
  -21.1014   -6.0923   22.3345 C   0  0  0  0  0  0  0  0  0  0  0  0
  -20.8954   -4.7163   22.2361 C   0  0  0  0  0  0  0  0  0  0  0  0
  -27.0473  -27.2270   22.7179 C   0  0  0  0  0  0  0  0  0  0  0  0
  -21.8116   -4.4208   24.4521 C   0  0  0  0  0  0  0  0  0  0  0  0
  -24.3596   -9.7811   20.7889 C   0  0  0  0  0  0  0  0  0  0  0  0
  -25.2317  -10.1865   18.4262 C   0  0  0  0  0  0  0  0  0  0  0  0
  -28.7921  -35.8137   25.2343 C   0  0  0  0  0  0  0  0  0  0  0  0
  -27.3687  -29.4611   21.8431 C   0  0  0  0  0  0  0  0  0  0  0  0
  -29.0102  -34.4586   24.9205 C   0  0  0  0  0  0  0  0  0  0  0  0
  -26.6193  -28.5592   22.6120 C   0  0  0  0  0  0  0  0  0  0  0  0
  -22.6837   -8.5833   22.6703 C   0  0  0  0  0  0  0  0  0  0  0  0
  -28.1974  -26.7949   22.0580 C   0  0  0  0  0  0  0  0  0  0  0  0
  -21.6626   -6.6326   23.4916 C   0  0  0  0  0  0  0  0  0  0  0  0
  -21.2504   -3.8805   23.2949 C   0  0  0  0  0  0  0  0  0  0  0  0
  -22.0176   -5.7969   24.5504 C   0  0  0  0  0  0  0  0  0  0  0  0
  -25.2249  -10.4005   19.8176 C   0  0  0  0  0  0  0  0  0  0  0  0
  -25.6584  -18.2146   19.4127 C   0  0  0  0  0  0  0  0  0  0  0  0
  -26.9715  -17.8380   19.6025 C   0  0  0  0  0  0  0  0  0  0  0  0
  -26.2304  -11.0048   17.9578 C   0  0  0  0  0  0  0  0  0  0  0  0
  -27.2810  -19.9935   19.3413 C   0  0  0  0  0  0  0  0  0  0  0  0
  -24.4087   -9.3252   17.6284 C   0  0  0  0  0  0  0  0  0  0  0  0
  -26.7882  -31.6226   24.1002 C   0  0  0  0  0  0  0  0  0  0  0  0
  -23.6950  -30.8651   23.4833 C   0  0  0  0  0  0  0  0  0  0  0  0
  -21.4524  -28.5828   22.2965 C   0  0  0  0  0  0  0  0  0  0  0  0
  -28.6872  -16.0431   20.0278 C   0  0  0  0  0  0  0  0  0  0  0  0
  -27.6220  -36.2543   26.0777 C   0  0  0  0  0  0  0  0  0  0  0  0
  -26.9204  -30.8889   21.6919 C   0  0  0  0  0  0  0  0  0  0  0  0
  -25.3687  -28.9829   23.3363 C   0  0  0  0  0  0  0  0  0  0  0  0
  -26.5111  -35.2113   26.1705 C   0  0  0  0  0  0  0  0  0  0  0  0
  -30.3759  -12.9956   19.2943 C   0  0  0  0  0  0  0  0  0  0  0  0
  -27.0956  -33.8338   26.4663 C   0  0  0  0  0  0  0  0  0  0  0  0
  -29.2467  -11.9659   19.2126 C   0  0  0  0  0  0  0  0  0  0  0  0
  -30.1144  -14.0393   20.3787 C   0  0  0  0  0  0  0  0  0  0  0  0
  -27.6827  -13.6823   20.2100 C   0  0  0  0  0  0  0  0  0  0  0  0
  -28.0358  -33.3805   25.3428 C   0  0  1  0  0  0  0  0  0  0  0  0
  -26.0241  -31.3579   22.8338 C   0  0  1  0  0  0  0  0  0  0  0  0
  -27.8701  -12.6479   19.0882 C   0  0  2  0  0  0  0  0  0  0  0  0
  -24.4245  -17.4022   19.3930 C   0  0  0  0  0  0  0  0  0  0  0  0
  -18.9908  -28.2328   21.9563 C   0  0  0  0  0  0  0  0  0  0  0  0
  -29.4431  -22.7075   22.2201 C   0  0  0  0  0  0  0  0  0  0  0  0
  -30.0068  -20.9598   18.0690 C   0  0  0  0  0  0  0  0  0  0  0  0
  -23.3605  -30.3332   26.4691 C   0  0  0  0  0  0  0  0  0  0  0  0
  -21.2417  -29.1078   25.9425 C   0  0  0  0  0  0  0  0  0  0  0  0
  -21.4440  -31.5347   25.4023 C   0  0  0  0  0  0  0  0  0  0  0  0
  -21.7766  -28.3209   19.3664 C   0  0  0  0  0  0  0  0  0  0  0  0
  -29.6704  -22.8680   19.6812 C   0  0  0  0  0  0  0  0  0  0  0  0
  -29.2982  -24.9395   21.0571 C   0  0  0  0  0  0  0  0  0  1  0  0
  -22.7170  -29.8462   24.0166 C   0  0  1  0  0  0  0  0  0  0  0  0
  -20.2884  -28.7218   21.3319 C   0  0  2  0  0  0  0  0  0  0  0  0
  -28.9966  -23.4373   20.9486 C   0  0  2  0  0  0  0  0  0  0  0  0
  -29.3422  -21.3992   19.3710 C   0  0  1  0  0  0  0  0  0  0  0  0
  -22.2154  -30.1977   25.4457 C   0  0  0  0  0  0  0  0  0  0  0  0
  -26.1464  -11.2852   20.2077 N   0  0  0  0  0  0  0  0  0  0  0  0
  -27.9034  -18.8567   19.5614 N   0  0  0  0  0  0  0  0  0  0  0  0
  -26.7415  -11.6344   19.0544 N   0  0  0  0  0  0  0  0  0  0  0  0
  -24.9748  -30.3908   23.1624 N   0  0  0  0  0  0  0  0  0  0  0  0
  -28.7943  -14.6461   20.1943 N   0  0  0  0  0  0  0  0  0  0  0  0
  -26.7126  -11.2400   16.7190 N   0  0  0  0  0  0  0  0  0  0  0  0
  -23.4308   -8.5530   18.2701 N   0  0  0  0  0  0  0  0  0  0  0  0
  -27.3856  -16.5018   19.8281 N   0  0  0  0  0  0  0  0  0  0  0  0
  -27.9115  -21.2211   19.2417 N   0  0  0  0  0  0  0  0  0  0  0  0
  -27.2743  -32.9119   24.2048 N   0  0  0  0  0  0  0  0  0  0  0  0
  -21.6563  -29.7382   23.0207 N   0  0  0  0  0  0  0  0  0  0  0  0
  -20.5428  -27.9297   20.0955 N   0  3  0  0  0  0  0  0  0  0  0  0
  -24.5476   -9.2304   16.3853 O   0  0  0  0  0  0  0  0  0  0  0  0
  -26.9252  -30.7242   24.9222 O   0  0  0  0  0  0  0  0  0  0  0  0
  -23.3344  -32.0371   23.3493 O   0  0  0  0  0  0  0  0  0  0  0  0
  -22.1121  -27.5510   22.3999 O   0  0  0  0  0  0  0  0  0  0  0  0
  -29.6801  -16.7752   20.0328 O   0  0  0  0  0  0  0  0  0  0  0  0
  -21.8658   -7.9990   23.5880 O   0  0  0  0  0  0  0  0  0  0  0  0
  -28.5997  -25.4995   22.1683 O   0  0  0  0  0  0  0  0  0  1  0  0
  -21.0511   -2.5593   23.2010 F   0  0  0  0  0  0  0  0  0  0  0  0
  -22.5561   -6.3102   25.6650 F   0  0  0  0  0  0  0  0  0  0  0  0
  -25.5751  -19.9109   19.1742 S   0  0  0  0  0  0  0  0  0  0  0  0
  1  2  1  0  0  0  0
  1  5  2  0  0  0  0
  2  6  2  0  0  0  0
  3  8  2  0  0  0  0
  3 15  1  0  0  0  0
  4  9  1  0  0  0  0
  4 15  2  0  0  0  0
  5 17  1  0  0  0  0
  6 19  1  0  0  0  0
  7 10  2  0  0  0  0
  7 18  1  0  0  0  0
  8 21  1  0  0  0  0
  9 21  2  0  0  0  0
 10 22  1  0  0  0  0
 11 12  2  0  0  0  0
 11 23  1  0  0  0  0
 12 24  1  0  0  0  0
 13 20  1  0  0  0  0
 13 22  2  0  0  0  0
 14 24  2  0  0  0  0
 14 25  1  0  0  0  0
 15 26  1  0  0  0  0
 16 26  1  0  0  0  0
 16 29  2  0  0  0  0
 16 31  1  0  0  0  0
 17 19  2  0  0  0  0
 17 36  1  0  0  0  0
 18 20  2  0  0  0  0
 18 37  1  0  0  0  0
 19 45  1  0  0  0  0
 20 38  1  0  0  0  0
 21 80  1  0  0  0  0
 22 81  1  0  0  0  0
 23 25  2  0  0  0  0
 23 80  1  0  0  0  0
 24 82  1  0  0  0  0
 25 83  1  0  0  0  0
 26 63  2  0  0  0  0
 27 28  2  0  0  0  0
 27 48  1  0  0  0  0
 27 84  1  0  0  0  0
 28 64  1  0  0  0  0
 28 70  1  0  0  0  0
 29 65  1  0  0  0  0
 29 68  1  0  0  0  0
 30 64  2  0  0  0  0
 30 71  1  0  0  0  0
 30 84  1  0  0  0  0
 31 69  1  0  0  0  0
 31 75  2  0  0  0  0
 32 46  1  0  0  0  0
 32 72  1  0  0  0  0
 32 76  2  0  0  0  0
 33 58  1  0  0  0  0
 33 66  1  0  0  0  0
 33 77  2  0  0  0  0
 34 59  1  0  0  0  0
 34 73  1  0  0  0  0
 34 78  2  0  0  0  0
 35 67  1  0  0  0  0
 35 70  1  0  0  0  0
 35 79  2  0  0  0  0
 36 39  1  0  0  0  0
 37 46  1  0  0  0  0
 38 66  1  0  0  0  0
 39 41  1  0  0  0  0
 40 42  1  0  0  0  0
 40 43  1  0  0  0  0
 41 45  1  0  0  0  0
 42 47  1  0  0  0  0
 43 67  1  0  0  0  0
 44 47  1  0  0  0  0
 44 67  1  0  0  0  0
 45 72  1  0  0  0  0
 46 66  1  0  0  0  0
 47 65  1  0  0  0  0
 49 59  1  0  0  0  0
 50 60  1  0  0  0  0
 51 61  1  0  0  0  0
 52 62  1  0  0  0  0
 53 62  1  0  0  0  0
 54 62  1  0  0  0  0
 55 74  1  0  0  0  0
 56 60  1  0  0  0  0
 56 61  1  0  0  0  0
 57 60  1  0  0  0  0
 57 81  1  0  0  0  0
 58 62  1  0  0  0  0
 58 73  1  0  0  0  0
 59 74  1  0  0  0  0
 61 71  1  0  0  0  0
 63 65  1  0  0  0  0
M  CHG  1  74   1
M  ISO  4  35 100  57 101  70 100  81 101
M  END
> <Batch ID>
0190

> <Smiles>
CNC(C)C(=O)NC(C(=O)N1Cc2cc([101O:1][101CH2:1]C(C)CC(C)Nc3nc([100NH:0][100C:0](=O)N4CCCC(n5nc(-c6ccc(Oc7ccc(F)cc7F)cc6)c(C(N)=O)c5N)C4)c(C)s3)ccc2CC1C(=O)NC1CCCc2ccccc21)C(C)(C)C

> <Shape>
0.296

> <Color>
0.089

> <Negative vol penalty>
0.000

$$$$

  -OEChem-04052305213D

 86 94  0     1  0  0  0  0  0999 V2000
  -22.2513   -8.2834   20.6968 C   0  0  0  0  0  0  0  0  0  0  0  0
  -21.9513   -9.6406   20.6375 C   0  0  0  0  0  0  0  0  0  0  0  0
  -28.4949  -28.5388   20.6469 C   0  0  0  0  0  0  0  0  0  0  0  0
  -26.8572  -26.9590   19.8348 C   0  0  0  0  0  0  0  0  0  0  0  0
  -23.4516   -7.8603   21.2660 C   0  0  0  0  0  0  0  0  0  0  0  0
  -22.8511  -10.5754   21.1483 C   0  0  0  0  0  0  0  0  0  0  0  0
  -23.9586  -16.1911   18.9706 C   0  0  0  0  0  0  0  0  0  0  0  0
  -29.5077  -27.6085   20.4143 C   0  0  0  0  0  0  0  0  0  0  0  0
  -27.8701  -26.0287   19.6020 C   0  0  0  0  0  0  0  0  0  0  0  0
  -23.4988  -17.4516   19.3494 C   0  0  0  0  0  0  0  0  0  0  0  0
  -29.7243  -23.8588   21.4144 C   0  0  0  0  0  0  0  0  0  0  0  0
  -29.5031  -22.5439   21.8238 C   0  0  0  0  0  0  0  0  0  0  0  0
  -25.4875  -17.7717   20.6767 C   0  0  0  0  0  0  0  0  0  0  0  0
  -29.7600  -21.7905   19.5427 C   0  0  0  0  0  0  0  0  0  0  0  0
  -27.1696  -28.2141   20.3572 C   0  0  0  0  0  0  0  0  0  0  0  0
  -25.6341  -30.1423   19.7000 C   0  0  0  0  0  0  0  0  0  0  0  0
  -24.3710   -8.7909   21.7754 C   0  0  0  0  0  0  0  0  0  0  0  0
  -25.1833  -15.7062   19.4516 C   0  0  0  0  0  0  0  0  0  0  0  0
  -24.0643  -10.1642   21.7261 C   0  0  0  0  0  0  0  0  0  0  0  0
  -25.9619  -16.5058   20.3005 C   0  0  0  0  0  0  0  0  0  0  0  0
  -29.1954  -26.3535   19.8918 C   0  0  0  0  0  0  0  0  0  0  0  0
  -24.2618  -18.2409   20.2049 C   0  0  0  0  0  0  0  0  0  0  0  0
  -29.9633  -24.1396   20.0691 C   0  0  0  0  0  0  0  0  0  0  0  0
  -29.5210  -21.5097   20.8879 C   0  0  0  0  0  0  0  0  0  0  0  0
  -29.9812  -23.1054   19.1333 C   0  0  0  0  0  0  0  0  0  0  0  0
  -26.1227  -29.1744   20.5979 C   0  0  0  0  0  0  0  0  0  0  0  0
  -19.0921  -26.7211   23.1257 C   0  0  0  0  0  0  0  0  0  0  0  0
  -24.6524  -30.7976   20.4022 C   0  0  0  0  0  0  0  0  0  0  0  0
  -18.2315  -26.9775   22.0789 C   0  0  0  0  0  0  0  0  0  0  0  0
  -19.2993  -24.8184   22.0549 C   0  0  0  0  0  0  0  0  0  0  0  0
  -26.0320  -30.4237   18.3516 C   0  0  0  0  0  0  0  0  0  0  0  0
  -26.0708  -13.2274   21.2324 C   0  0  0  0  0  0  0  0  0  0  0  0
  -29.0548  -14.2644   20.4959 C   0  0  0  0  0  0  0  0  0  0  0  0
  -20.5558  -22.6478   22.2979 C   0  0  0  0  0  0  0  0  0  0  0  0
  -31.0714  -16.8475   19.5433 C   0  0  0  0  0  0  0  0  0  0  0  0
  -21.1780  -29.2009   25.0099 C   0  0  0  0  0  0  0  0  0  0  0  0
  -25.6343   -8.2829   22.4239 C   0  0  0  0  0  0  0  0  0  0  0  0
  -25.6779  -14.3553   19.0122 C   0  0  0  0  0  0  0  0  0  0  0  0
  -27.2932  -16.0396   20.8284 C   0  0  0  0  0  0  0  0  0  0  0  0
  -26.7017   -9.3592   22.6040 C   0  0  0  0  0  0  0  0  0  0  0  0
  -23.3963  -31.9820   24.8643 C   0  0  0  0  0  0  0  0  0  0  0  0
  -26.0877  -10.6277   23.1878 C   0  0  0  0  0  0  0  0  0  0  0  0
  -24.3025  -31.6652   23.6734 C   0  0  0  0  0  0  0  0  0  0  0  0
  -23.0277  -30.7218   25.6440 C   0  0  0  0  0  0  0  0  0  0  0  0
  -23.3472  -29.3232   23.6401 C   0  0  0  0  0  0  0  0  0  0  0  0
  -25.0259  -11.2101   22.2471 C   0  0  1  0  0  0  0  0  0  0  0  0
  -26.6986  -13.7516   19.9720 C   0  0  1  0  0  0  0  0  0  0  0  0
  -23.7005  -30.5557   22.7902 C   0  0  2  0  0  0  0  0  0  0  0  0
  -19.5749  -20.3642   22.0190 C   0  0  0  0  0  0  0  0  0  0  0  0
  -33.4716  -17.3982   19.0602 C   0  0  0  0  0  0  0  0  0  0  0  0
  -29.6479  -14.2937   23.4888 C   0  0  0  0  0  0  0  0  0  0  0  0
  -31.6508  -15.7166   23.0072 C   0  0  0  0  0  0  0  0  0  0  0  0
  -31.5055  -13.4111   22.0658 C   0  0  0  0  0  0  0  0  0  0  0  0
  -30.4588  -17.5896   16.7445 C   0  0  0  0  0  0  0  0  0  0  0  0
  -19.4099  -27.6386   24.2404 C   0  0  0  0  0  0  0  0  0  0  0  0
  -22.4017  -19.6551   20.6472 C   0  0  0  0  0  0  0  0  0  1  0  0
  -30.0331  -15.2332   21.1150 C   0  0  1  0  0  0  0  0  0  0  0  0
  -20.6812  -21.3122   21.5466 C   0  0  2  0  0  0  0  0  0  0  0  0
  -32.1434  -16.9468   18.4730 C   0  0  2  0  0  0  0  0  0  0  0  0
  -22.0972  -20.7183   21.7019 C   0  0  1  0  0  0  0  0  0  0  0  0
  -30.6834  -14.6719   22.4109 C   0  0  0  0  0  0  0  0  0  0  0  0
  -25.5027  -29.2085   21.7804 N   0  0  0  0  0  0  0  0  0  0  0  0
  -19.7050  -25.4834   23.1138 N   0  0  0  0  0  0  0  0  0  0  0  0
  -24.6144  -30.2058   21.6304 N   0  0  0  0  0  0  0  0  0  0  0  0
  -27.7306  -14.7089   20.3751 N   0  0  0  0  0  0  0  0  0  0  0  0
  -22.4609  -29.7100   24.7490 N   0  0  0  0  0  0  0  0  0  0  0  0
  -23.8266  -31.8167   20.0828 N   0  0  0  0  0  0  0  0  0  0  0  0
  -17.5063  -28.0988   21.8483 N   0  0  0  0  0  0  0  0  0  0  0  0
  -27.0567  -29.6549   17.7831 N   0  0  0  0  0  0  0  0  0  0  0  0
  -19.6742  -23.5134   21.6554 N   0  0  0  0  0  0  0  0  0  0  0  0
  -25.6543  -11.9125   21.1488 N   0  0  0  0  0  0  0  0  0  0  0  0
  -30.9885  -15.5746   20.0666 N   0  0  0  0  0  0  0  0  0  0  0  0
  -20.7135  -28.2504   24.1091 N   0  0  0  0  0  0  0  0  0  0  0  0
  -31.7378  -17.9231   17.4226 N   0  3  0  0  0  0  0  0  0  0  0  0
  -25.5060  -31.3409   17.6766 O   0  0  0  0  0  0  0  0  0  0  0  0
  -25.9730  -13.9611   22.2091 O   0  0  0  0  0  0  0  0  0  0  0  0
  -29.4525  -13.1567   20.1263 O   0  0  0  0  0  0  0  0  0  0  0  0
  -21.1727  -22.8638   23.3372 O   0  0  0  0  0  0  0  0  0  0  0  0
  -30.3796  -17.8046   19.8838 O   0  0  0  0  0  0  0  0  0  0  0  0
  -20.4950  -29.5702   25.9711 O   0  0  0  0  0  0  0  0  0  0  0  0
  -22.2321  -20.1231   22.9942 O   0  0  0  0  0  0  0  0  0  0  0  0
  -30.1836  -25.4455   19.6644 O   0  0  0  0  0  0  0  0  0  0  0  0
  -23.8150  -19.4714   20.5767 O   0  0  0  0  0  0  0  0  0  1  0  0
  -29.3100  -20.2468   21.2815 F   0  0  0  0  0  0  0  0  0  0  0  0
  -30.2115  -23.3689   17.8397 F   0  0  0  0  0  0  0  0  0  0  0  0
  -18.1814  -25.6215   21.0300 S   0  0  0  0  0  0  0  0  0  0  0  0
  1  2  1  0  0  0  0
  1  5  2  0  0  0  0
  2  6  2  0  0  0  0
  3  8  2  0  0  0  0
  3 15  1  0  0  0  0
  4  9  1  0  0  0  0
  4 15  2  0  0  0  0
  5 17  1  0  0  0  0
  6 19  1  0  0  0  0
  7 10  2  0  0  0  0
  7 18  1  0  0  0  0
  8 21  1  0  0  0  0
  9 21  2  0  0  0  0
 10 22  1  0  0  0  0
 11 12  2  0  0  0  0
 11 23  1  0  0  0  0
 12 24  1  0  0  0  0
 13 20  1  0  0  0  0
 13 22  2  0  0  0  0
 14 24  2  0  0  0  0
 14 25  1  0  0  0  0
 15 26  1  0  0  0  0
 16 26  1  0  0  0  0
 16 28  2  0  0  0  0
 16 31  1  0  0  0  0
 17 19  2  0  0  0  0
 17 37  1  0  0  0  0
 18 20  2  0  0  0  0
 18 38  1  0  0  0  0
 19 46  1  0  0  0  0
 20 39  1  0  0  0  0
 21 82  1  0  0  0  0
 22 83  1  0  0  0  0
 23 25  2  0  0  0  0
 23 82  1  0  0  0  0
 24 84  1  0  0  0  0
 25 85  1  0  0  0  0
 26 62  2  0  0  0  0
 27 29  2  0  0  0  0
 27 55  1  0  0  0  0
 27 63  1  0  0  0  0
 28 64  1  0  0  0  0
 28 67  1  0  0  0  0
 29 68  1  0  0  0  0
 29 86  1  0  0  0  0
 30 63  2  0  0  0  0
 30 70  1  0  0  0  0
 30 86  1  0  0  0  0
 31 69  1  0  0  0  0
 31 75  2  0  0  0  0
 32 47  1  0  0  0  0
 32 71  1  0  0  0  0
 32 76  2  0  0  0  0
 33 57  1  0  0  0  0
 33 65  1  0  0  0  0
 33 77  2  0  0  0  0
 34 58  1  0  0  0  0
 34 70  1  0  0  0  0
 34 78  2  0  0  0  0
 35 59  1  0  0  0  0
 35 72  1  0  0  0  0
 35 79  2  0  0  0  0
 36 66  1  0  0  0  0
 36 73  1  0  0  0  0
 36 80  2  0  0  0  0
 37 40  1  0  0  0  0
 38 47  1  0  0  0  0
 39 65  1  0  0  0  0
 40 42  1  0  0  0  0
 41 43  1  0  0  0  0
 41 44  1  0  0  0  0
 42 46  1  0  0  0  0
 43 48  1  0  0  0  0
 44 66  1  0  0  0  0
 45 48  1  0  0  0  0
 45 66  1  0  0  0  0
 46 71  1  0  0  0  0
 47 65  1  0  0  0  0
 48 64  1  0  0  0  0
 49 58  1  0  0  0  0
 50 59  1  0  0  0  0
 51 61  1  0  0  0  0
 52 61  1  0  0  0  0
 53 61  1  0  0  0  0
 54 74  1  0  0  0  0
 55 73  1  0  0  0  0
 56 60  1  0  0  0  0
 56 83  1  0  0  0  0
 57 61  1  0  0  0  0
 57 72  1  0  0  0  0
 58 60  1  0  0  0  0
 59 74  1  0  0  0  0
 60 81  1  0  0  0  0
 62 64  1  0  0  0  0
M  CHG  1  74   1
M  ISO  4  36 100  56 101  73 100  83 101
M  END
> <Batch ID>
0190

> <Smiles>
CNC(C)C(=O)NC(C(=O)N1Cc2cc([101O:1][101CH2:1]C(O)C(C)C(=O)Nc3nc(C[100NH:0][100C:0](=O)N4CCCC(n5nc(-c6ccc(Oc7ccc(F)cc7F)cc6)c(C(N)=O)c5N)C4)c(N)s3)ccc2CC1C(=O)NC1CCCc2ccccc21)C(C)(C)C

> <Shape>
0.288

> <Color>
0.058

> <Negative vol penalty>
0.000

$$$$

  -OEChem-04052305213D

 84 92  0     1  0  0  0  0  0999 V2000
  -30.7338  -31.1753   21.7078 C   0  0  0  0  0  0  0  0  0  0  0  0
  -30.9258  -29.8153   21.9286 C   0  0  0  0  0  0  0  0  0  0  0  0
  -23.0662   -9.8897   19.9292 C   0  0  0  0  0  0  0  0  0  0  0  0
  -23.8389   -9.8658   22.2182 C   0  0  0  0  0  0  0  0  0  0  0  0
  -29.8910  -31.6018   20.6822 C   0  0  0  0  0  0  0  0  0  0  0  0
  -30.2741  -28.8807   21.1245 C   0  0  0  0  0  0  0  0  0  0  0  0
  -31.1679  -22.3597   18.2972 C   0  0  0  0  0  0  0  0  0  0  0  0
  -22.3194   -8.7363   20.1693 C   0  0  0  0  0  0  0  0  0  0  0  0
  -23.0921   -8.7125   22.4583 C   0  0  0  0  0  0  0  0  0  0  0  0
  -30.5230  -21.1268   18.2080 C   0  0  0  0  0  0  0  0  0  0  0  0
  -19.3763   -7.9331   21.6273 C   0  0  0  0  0  0  0  0  0  0  0  0
  -18.0666   -7.8976   21.1489 C   0  0  0  0  0  0  0  0  0  0  0  0
  -29.1526  -21.9801   16.4155 C   0  0  0  0  0  0  0  0  0  0  0  0
  -18.6115   -5.9687   19.7999 C   0  0  0  0  0  0  0  0  0  0  0  0
  -28.3119  -18.7610   21.9261 C   0  0  0  0  0  0  0  0  0  0  0  0
  -23.8261  -10.4544   20.9537 C   0  0  0  0  0  0  0  0  0  0  0  0
  -24.1768  -12.9795   20.8625 C   0  0  0  0  0  0  0  0  0  0  0  0
  -29.2363  -30.6721   19.8591 C   0  0  0  0  0  0  0  0  0  0  0  0
  -30.8018  -23.4172   17.4521 C   0  0  0  0  0  0  0  0  0  0  0  0
  -29.4207  -29.2951   20.0879 C   0  0  0  0  0  0  0  0  0  0  0  0
  -29.7961  -23.2246   16.4943 C   0  0  0  0  0  0  0  0  0  0  0  0
  -22.3323   -8.1477   21.4338 C   0  0  0  0  0  0  0  0  0  0  0  0
  -29.5133  -20.9377   17.2690 C   0  0  0  0  0  0  0  0  0  0  0  0
  -20.3037   -6.9864   21.1920 C   0  0  0  0  0  0  0  0  0  0  0  0
  -17.6842   -6.9154   20.2352 C   0  0  0  0  0  0  0  0  0  0  0  0
  -19.9213   -6.0042   20.2783 C   0  0  0  0  0  0  0  0  0  0  0  0
  -24.5982  -11.6455   20.7061 C   0  0  0  0  0  0  0  0  0  0  0  0
  -29.1392  -18.4072   20.8808 C   0  0  0  0  0  0  0  0  0  0  0  0
  -25.2697  -13.7293   20.5022 C   0  0  0  0  0  0  0  0  0  0  0  0
  -27.2916  -18.7308   19.7442 C   0  0  0  0  0  0  0  0  0  0  0  0
  -22.9106  -13.4949   21.2948 C   0  0  0  0  0  0  0  0  0  0  0  0
  -29.6057  -26.3292   17.8920 C   0  0  0  0  0  0  0  0  0  0  0  0
  -30.0889  -26.5868   14.6948 C   0  0  0  0  0  0  0  0  0  0  0  0
  -30.4463  -25.0216   11.6833 C   0  0  0  0  0  0  0  0  0  0  0  0
  -30.7583  -14.7256   20.6721 C   0  0  0  0  0  0  0  0  0  0  0  0
  -28.2979  -31.1804   18.7934 C   0  0  0  0  0  0  0  0  0  0  0  0
  -31.5254  -24.7327   17.5429 C   0  0  0  0  0  0  0  0  0  0  0  0
  -29.3797  -24.3216   15.5500 C   0  0  0  0  0  0  0  0  0  0  0  0
  -27.9379  -30.1291   17.7468 C   0  0  0  0  0  0  0  0  0  0  0  0
  -29.5983  -12.3746   18.2629 C   0  0  0  0  0  0  0  0  0  0  0  0
  -27.5694  -28.8105   18.4195 C   0  0  0  0  0  0  0  0  0  0  0  0
  -28.1622  -12.0810   18.7003 C   0  0  0  0  0  0  0  0  0  0  0  0
  -30.5230  -12.5774   19.4612 C   0  0  0  0  0  0  0  0  0  0  0  0
  -28.6318  -13.2985   20.8673 C   0  0  0  0  0  0  0  0  0  0  0  0
  -28.7508  -28.2510   19.2211 C   0  0  1  0  0  0  0  0  0  0  0  0
  -30.7188  -25.8985   16.9793 C   0  0  1  0  0  0  0  0  0  0  0  0
  -27.6504  -13.1420   19.6931 C   0  0  2  0  0  0  0  0  0  0  0  0
  -24.7338  -17.0466   17.0242 C   0  0  0  0  0  0  0  0  0  0  0  0
  -30.7904  -25.4988    9.2437 C   0  0  0  0  0  0  0  0  0  0  0  0
  -27.1609  -27.4081   14.4449 C   0  0  0  0  0  0  0  0  0  0  0  0
  -27.3133  -26.9463   11.9889 C   0  0  0  0  0  0  0  0  0  0  0  0
  -28.7379  -28.7192   13.0137 C   0  0  0  0  0  0  0  0  0  0  0  0
  -33.0157  -23.5536   11.6396 C   0  0  0  0  0  0  0  0  0  0  0  0
  -25.5216  -18.2336   16.4844 C   0  0  0  0  0  0  0  0  0  0  0  0
  -30.8392  -16.8606   21.9347 C   0  0  0  0  0  0  0  0  0  0  0  0
  -27.5225  -19.7464   16.7460 C   0  0  0  0  0  0  0  0  0  1  0  0
  -30.5690  -18.0568   20.9932 C   0  0  2  0  0  0  0  0  0  0  0  0
  -29.2697  -26.2886   13.4623 C   0  0  1  0  0  0  0  0  0  0  0  0
  -31.4659  -25.1960   10.5722 C   0  0  2  0  0  0  0  0  0  0  0  0
  -26.7784  -18.5353   17.3103 C   0  0  1  0  0  0  0  0  0  0  0  0
  -28.1267  -27.3203   13.2464 C   0  0  0  0  0  0  0  0  0  0  0  0
  -25.8603  -11.5500   20.2796 N   0  0  0  0  0  0  0  0  0  0  0  0
  -28.5557  -18.3889   19.6290 N   0  0  0  0  0  0  0  0  0  0  0  0
  -26.2414  -12.8337   20.1648 N   0  0  0  0  0  0  0  0  0  0  0  0
  -30.1127  -25.5916   15.6821 N   0  0  0  0  0  0  0  0  0  0  0  0
  -29.9813  -13.5970   20.3628 N   0  0  0  0  0  0  0  0  0  0  0  0
  -25.4848  -15.0608   20.4443 N   0  0  0  0  0  0  0  0  0  0  0  0
  -21.8972  -12.5855   21.6267 N   0  0  0  0  0  0  0  0  0  0  0  0
  -26.4084  -18.8151   18.6846 N   0  0  0  0  0  0  0  0  0  0  0  0
  -29.7148  -27.6332   18.3359 N   0  0  0  0  0  0  0  0  0  0  0  0
  -30.2152  -26.2037   12.3545 N   0  0  0  0  0  0  0  0  0  0  0  0
  -30.1673  -15.6463   21.5288 N   0  0  0  0  0  0  0  0  0  0  0  0
  -31.4348  -19.2023   21.4659 N   0  3  0  0  0  0  0  0  0  0  0  0
  -32.2776  -23.9561   10.4148 N   0  3  0  0  0  0  0  0  0  0  0  0
  -22.6794  -14.7256   21.3685 O   0  0  0  0  0  0  0  0  0  0  0  0
  -28.7131  -25.5375   18.1716 O   0  0  0  0  0  0  0  0  0  0  0  0
  -30.6914  -27.6602   14.7753 O   0  0  0  0  0  0  0  0  0  0  0  0
  -29.9060  -23.9454   11.9286 O   0  0  0  0  0  0  0  0  0  0  0  0
  -31.8923  -14.9024   20.2143 O   0  0  0  0  0  0  0  0  0  0  0  0
  -21.6035   -7.0225   21.6685 O   0  0  0  0  0  0  0  0  0  0  0  0
  -28.8818  -19.7356   17.1803 O   0  0  0  0  0  0  0  0  0  1  0  0
  -16.4260   -6.8806   19.7771 F   0  0  0  0  0  0  0  0  0  0  0  0
  -20.8075   -5.0914   19.8574 F   0  0  0  0  0  0  0  0  0  0  0  0
  -26.7379  -19.0880   21.3287 S   0  0  0  0  0  0  0  0  0  0  0  0
  1  2  1  0  0  0  0
  1  5  2  0  0  0  0
  2  6  2  0  0  0  0
  3  8  2  0  0  0  0
  3 16  1  0  0  0  0
  4  9  1  0  0  0  0
  4 16  2  0  0  0  0
  5 18  1  0  0  0  0
  6 20  1  0  0  0  0
  7 10  2  0  0  0  0
  7 19  1  0  0  0  0
  8 22  1  0  0  0  0
  9 22  2  0  0  0  0
 10 23  1  0  0  0  0
 11 12  2  0  0  0  0
 11 24  1  0  0  0  0
 12 25  1  0  0  0  0
 13 21  1  0  0  0  0
 13 23  2  0  0  0  0
 14 25  2  0  0  0  0
 14 26  1  0  0  0  0
 15 28  2  0  0  0  0
 15 84  1  0  0  0  0
 16 27  1  0  0  0  0
 17 27  1  0  0  0  0
 17 29  2  0  0  0  0
 17 31  1  0  0  0  0
 18 20  2  0  0  0  0
 18 36  1  0  0  0  0
 19 21  2  0  0  0  0
 19 37  1  0  0  0  0
 20 45  1  0  0  0  0
 21 38  1  0  0  0  0
 22 80  1  0  0  0  0
 23 81  1  0  0  0  0
 24 26  2  0  0  0  0
 24 80  1  0  0  0  0
 25 82  1  0  0  0  0
 26 83  1  0  0  0  0
 27 62  2  0  0  0  0
 28 57  1  0  0  0  0
 28 63  1  0  0  0  0
 29 64  1  0  0  0  0
 29 67  1  0  0  0  0
 30 63  2  0  0  0  0
 30 69  1  0  0  0  0
 30 84  1  0  0  0  0
 31 68  1  0  0  0  0
 31 75  2  0  0  0  0
 32 46  1  0  0  0  0
 32 70  1  0  0  0  0
 32 76  2  0  0  0  0
 33 58  1  0  0  0  0
 33 65  1  0  0  0  0
 33 77  2  0  0  0  0
 34 59  1  0  0  0  0
 34 71  1  0  0  0  0
 34 78  2  0  0  0  0
 35 66  1  0  0  0  0
 35 72  1  0  0  0  0
 35 79  2  0  0  0  0
 36 39  1  0  0  0  0
 37 46  1  0  0  0  0
 38 65  1  0  0  0  0
 39 41  1  0  0  0  0
 40 42  1  0  0  0  0
 40 43  1  0  0  0  0
 41 45  1  0  0  0  0
 42 47  1  0  0  0  0
 43 66  1  0  0  0  0
 44 47  1  0  0  0  0
 44 66  1  0  0  0  0
 45 70  1  0  0  0  0
 46 65  1  0  0  0  0
 47 64  1  0  0  0  0
 48 54  1  0  0  0  0
 49 59  1  0  0  0  0
 50 61  1  0  0  0  0
 51 61  1  0  0  0  0
 52 61  1  0  0  0  0
 53 74  1  0  0  0  0
 54 60  1  0  0  0  0
 55 57  1  0  0  0  0
 55 72  1  0  0  0  0
 56 60  1  0  0  0  0
 56 81  1  0  0  0  0
 57 73  1  0  0  0  0
 58 61  1  0  0  0  0
 58 71  1  0  0  0  0
 59 74  1  0  0  0  0
 60 69  1  0  0  0  0
 62 64  1  0  0  0  0
M  CHG  2  73   1  74   1
M  ISO  4  35 100  56 101  72 100  81 101
M  END
> <Batch ID>
0190

> <Smiles>
CCC(Nc1nc(C(N)C[100NH:0][100C:0](=O)N2CCCC(n3nc(-c4ccc(Oc5ccc(F)cc5F)cc4)c(C(N)=O)c3N)C2)cs1)[101CH2:1][101O:1]c1ccc2c(c1)CN(C(=O)C(NC(=O)C(C)NC)C(C)(C)C)C(C(=O)NC1CCCc3ccccc31)C2

> <Shape>
0.222

> <Color>
0.181

> <Negative vol penalty>
0.000

$$$$

  -OEChem-04052305213D

 85 93  0     1  0  0  0  0  0999 V2000
  -27.1057  -25.5416   24.8152 C   0  0  0  0  0  0  0  0  0  0  0  0
  -26.0925  -25.1337   23.9534 C   0  0  0  0  0  0  0  0  0  0  0  0
  -29.7388  -27.1693   18.7753 C   0  0  0  0  0  0  0  0  0  0  0  0
  -29.1914  -26.0071   20.8215 C   0  0  0  0  0  0  0  0  0  0  0  0
  -28.3059  -24.8337   24.8627 C   0  0  0  0  0  0  0  0  0  0  0  0
  -26.2795  -24.0182   23.1378 C   0  0  0  0  0  0  0  0  0  0  0  0
  -22.2596  -20.9385   23.1068 C   0  0  0  0  0  0  0  0  0  0  0  0
  -31.0640  -26.7499   18.8916 C   0  0  0  0  0  0  0  0  0  0  0  0
  -30.5167  -25.5876   20.9377 C   0  0  0  0  0  0  0  0  0  0  0  0
  -21.1713  -21.3199   22.3233 C   0  0  0  0  0  0  0  0  0  0  0  0
  -33.8321  -24.5098   21.9653 C   0  0  0  0  0  0  0  0  0  0  0  0
  -34.4370  -24.6121   23.2180 C   0  0  0  0  0  0  0  0  0  0  0  0
  -21.8882  -19.7958   20.5963 C   0  0  0  0  0  0  0  0  0  0  0  0
  -34.0714  -27.0002   23.1995 C   0  0  0  0  0  0  0  0  0  0  0  0
  -28.8025  -26.7979   19.7403 C   0  0  0  0  0  0  0  0  0  0  0  0
  -26.3847  -26.5632   18.9612 C   0  0  0  0  0  0  0  0  0  0  0  0
  -28.5040  -23.7033   24.0543 C   0  0  0  0  0  0  0  0  0  0  0  0
  -23.1780  -19.9892   22.6356 C   0  0  0  0  0  0  0  0  0  0  0  0
  -27.4840  -23.2953   23.1736 C   0  0  0  0  0  0  0  0  0  0  0  0
  -22.9859  -19.4022   21.3768 C   0  0  0  0  0  0  0  0  0  0  0  0
  -31.4529  -25.9590   19.9727 C   0  0  0  0  0  0  0  0  0  0  0  0
  -20.9871  -20.7507   21.0667 C   0  0  0  0  0  0  0  0  0  0  0  0
  -33.3469  -25.6527   21.3297 C   0  0  0  0  0  0  0  0  0  0  0  0
  -34.5566  -25.8573   23.8351 C   0  0  0  0  0  0  0  0  0  0  0  0
  -33.4665  -26.8979   21.9468 C   0  0  0  0  0  0  0  0  0  0  0  0
  -27.4336  -27.2313   19.6210 C   0  0  0  0  0  0  0  0  0  0  0  0
  -19.5995  -27.9402   22.8804 C   0  0  0  0  0  0  0  0  0  0  0  0
  -19.8027  -27.3617   24.1157 C   0  0  0  0  0  0  0  0  0  0  0  0
  -25.2944  -27.3802   19.1346 C   0  0  0  0  0  0  0  0  0  0  0  0
  -18.6793  -25.9889   22.4861 C   0  0  0  0  0  0  0  0  0  0  0  0
  -26.3952  -25.3155   18.2548 C   0  0  0  0  0  0  0  0  0  0  0  0
  -26.2872  -20.0113   21.9754 C   0  0  0  0  0  0  0  0  0  0  0  0
  -25.8165  -16.8341   21.5216 C   0  0  0  0  0  0  0  0  0  0  0  0
  -17.5336  -24.7998   20.5839 C   0  0  0  0  0  0  0  0  0  0  0  0
  -23.6492  -14.3021   20.7877 C   0  0  0  0  0  0  0  0  0  0  0  0
  -22.1061  -30.6197   22.3728 C   0  0  0  0  0  0  0  0  0  0  0  0
  -29.8363  -22.9982   24.1061 C   0  0  0  0  0  0  0  0  0  0  0  0
  -24.3319  -19.5689   23.5041 C   0  0  0  0  0  0  0  0  0  0  0  0
  -23.9318  -18.3637   20.8334 C   0  0  0  0  0  0  0  0  0  0  0  0
  -29.8131  -21.6055   23.4816 C   0  0  0  0  0  0  0  0  0  0  0  0
  -24.9735  -32.1156   20.8837 C   0  0  0  0  0  0  0  0  0  0  0  0
  -29.1005  -21.6369   22.1332 C   0  0  0  0  0  0  0  0  0  0  0  0
  -25.7850  -30.9233   20.3740 C   0  0  0  0  0  0  0  0  0  0  0  0
  -24.2773  -31.8006   22.2059 C   0  0  0  0  0  0  0  0  0  0  0  0
  -24.2540  -29.3924   21.6823 C   0  0  0  0  0  0  0  0  0  0  0  0
  -27.6397  -22.0757   22.2913 C   0  0  1  0  0  0  0  0  0  0  0  0
  -25.4901  -18.9715   22.7109 C   0  0  1  0  0  0  0  0  0  0  0  0
  -24.9293  -29.6432   20.3230 C   0  0  2  0  0  0  0  0  0  0  0  0
  -20.4486  -27.9063   25.3267 C   0  0  0  0  0  0  0  0  0  0  0  0
  -15.7132  -23.5500   19.3518 C   0  0  0  0  0  0  0  0  0  0  0  0
  -23.5648  -11.8167   20.4514 C   0  0  0  0  0  0  0  0  0  0  0  0
  -27.0897  -17.1659   18.7686 C   0  0  0  0  0  0  0  0  0  0  0  0
  -26.1323  -14.9411   18.1346 C   0  0  0  0  0  0  0  0  0  0  0  0
  -27.7840  -15.1011   19.9971 C   0  0  0  0  0  0  0  0  0  0  0  0
  -21.7599  -13.9450   23.0377 C   0  0  0  0  0  0  0  0  0  0  0  0
  -20.0050  -29.3033   22.4812 C   0  0  0  0  0  0  0  0  0  0  0  0
  -17.9362  -22.4066   19.8369 C   0  0  0  0  0  0  0  0  0  0  0  0
  -19.0409  -22.0995   20.8446 C   0  0  0  0  0  0  0  0  0  1  0  0
  -25.4345  -15.9670   20.3463 C   0  0  1  0  0  0  0  0  0  0  0  0
  -16.8937  -23.4315   20.3155 C   0  0  1  0  0  0  0  0  0  0  0  0
  -23.4127  -12.9556   21.4476 C   0  0  2  0  0  0  0  0  0  0  0  0
  -26.5932  -15.8148   19.3208 C   0  0  0  0  0  0  0  0  0  0  0  0
  -27.0445  -28.3841   20.1723 N   0  0  0  0  0  0  0  0  0  0  0  0
  -18.9559  -27.1543   21.9445 N   0  0  0  0  0  0  0  0  0  0  0  0
  -25.7391  -28.4466   19.8592 N   0  0  0  0  0  0  0  0  0  0  0  0
  -25.0483  -17.9905   21.7175 N   0  0  0  0  0  0  0  0  0  0  0  0
  -23.4813  -30.5763   22.0897 N   0  0  0  0  0  0  0  0  0  0  0  0
  -24.0081  -27.2832   18.7363 N   0  0  0  0  0  0  0  0  0  0  0  0
  -27.6002  -24.6045   18.1724 N   0  0  0  0  0  0  0  0  0  0  0  0
  -18.0259  -24.8880   21.8828 N   0  0  0  0  0  0  0  0  0  0  0  0
  -26.8349  -20.9821   22.7921 N   0  0  0  0  0  0  0  0  0  0  0  0
  -24.9624  -14.7053   20.9062 N   0  0  0  0  0  0  0  0  0  0  0  0
  -21.4248  -29.4169   22.2318 N   0  0  0  0  0  0  0  0  0  0  0  0
  -22.0398  -12.8953   22.0243 N   0  3  0  0  0  0  0  0  0  0  0  0
  -25.3702  -24.8532   17.6988 O   0  0  0  0  0  0  0  0  0  0  0  0
  -26.3985  -19.9374   20.7572 O   0  0  0  0  0  0  0  0  0  0  0  0
  -26.7571  -16.4940   22.2435 O   0  0  0  0  0  0  0  0  0  0  0  0
  -17.5771  -25.6687   19.7175 O   0  0  0  0  0  0  0  0  0  0  0  0
  -22.7588  -14.9314   20.2205 O   0  0  0  0  0  0  0  0  0  0  0  0
  -21.5274  -31.6548   22.7199 O   0  0  0  0  0  0  0  0  0  0  0  0
  -32.7459  -25.5494   20.0864 O   0  0  0  0  0  0  0  0  0  0  0  0
  -19.9260  -21.1217   20.2996 O   0  0  0  0  0  0  0  0  0  1  0  0
  -35.1361  -25.9552   25.0388 F   0  0  0  0  0  0  0  0  0  0  0  0
  -33.0013  -27.9993   21.3416 F   0  0  0  0  0  0  0  0  0  0  0  0
  -19.1643  -25.7699   24.1176 S   0  0  0  0  0  0  0  0  0  0  0  0
  1  2  1  0  0  0  0
  1  5  2  0  0  0  0
  2  6  2  0  0  0  0
  3  8  2  0  0  0  0
  3 15  1  0  0  0  0
  4  9  1  0  0  0  0
  4 15  2  0  0  0  0
  5 17  1  0  0  0  0
  6 19  1  0  0  0  0
  7 10  2  0  0  0  0
  7 18  1  0  0  0  0
  8 21  1  0  0  0  0
  9 21  2  0  0  0  0
 10 22  1  0  0  0  0
 11 12  2  0  0  0  0
 11 23  1  0  0  0  0
 12 24  1  0  0  0  0
 13 20  1  0  0  0  0
 13 22  2  0  0  0  0
 14 24  2  0  0  0  0
 14 25  1  0  0  0  0
 15 26  1  0  0  0  0
 16 26  1  0  0  0  0
 16 29  2  0  0  0  0
 16 31  1  0  0  0  0
 17 19  2  0  0  0  0
 17 37  1  0  0  0  0
 18 20  2  0  0  0  0
 18 38  1  0  0  0  0
 19 46  1  0  0  0  0
 20 39  1  0  0  0  0
 21 81  1  0  0  0  0
 22 82  1  0  0  0  0
 23 25  2  0  0  0  0
 23 81  1  0  0  0  0
 24 83  1  0  0  0  0
 25 84  1  0  0  0  0
 26 63  2  0  0  0  0
 27 28  2  0  0  0  0
 27 56  1  0  0  0  0
 27 64  1  0  0  0  0
 28 49  1  0  0  0  0
 28 85  1  0  0  0  0
 29 65  1  0  0  0  0
 29 68  1  0  0  0  0
 30 64  2  0  0  0  0
 30 70  1  0  0  0  0
 30 85  1  0  0  0  0
 31 69  1  0  0  0  0
 31 75  2  0  0  0  0
 32 47  1  0  0  0  0
 32 71  1  0  0  0  0
 32 76  2  0  0  0  0
 33 59  1  0  0  0  0
 33 66  1  0  0  0  0
 33 77  2  0  0  0  0
 34 60  1  0  0  0  0
 34 70  1  0  0  0  0
 34 78  2  0  0  0  0
 35 61  1  0  0  0  0
 35 72  1  0  0  0  0
 35 79  2  0  0  0  0
 36 67  1  0  0  0  0
 36 73  1  0  0  0  0
 36 80  2  0  0  0  0
 37 40  1  0  0  0  0
 38 47  1  0  0  0  0
 39 66  1  0  0  0  0
 40 42  1  0  0  0  0
 41 43  1  0  0  0  0
 41 44  1  0  0  0  0
 42 46  1  0  0  0  0
 43 48  1  0  0  0  0
 44 67  1  0  0  0  0
 45 48  1  0  0  0  0
 45 67  1  0  0  0  0
 46 71  1  0  0  0  0
 47 66  1  0  0  0  0
 48 65  1  0  0  0  0
 50 60  1  0  0  0  0
 51 61  1  0  0  0  0
 52 62  1  0  0  0  0
 53 62  1  0  0  0  0
 54 62  1  0  0  0  0
 55 74  1  0  0  0  0
 56 73  1  0  0  0  0
 57 58  1  0  0  0  0
 57 60  1  0  0  0  0
 58 82  1  0  0  0  0
 59 62  1  0  0  0  0
 59 72  1  0  0  0  0
 61 74  1  0  0  0  0
 63 65  1  0  0  0  0
M  CHG  1  74   1
M  ISO  4  36 100  58 101  73 100  82 101
M  END
> <Batch ID>
0190

> <Smiles>
CNC(C)C(=O)NC(C(=O)N1Cc2cc([101O:1][101CH2:1]CC(C)C(=O)Nc3nc(C[100NH:0][100C:0](=O)N4CCCC(n5nc(-c6ccc(Oc7ccc(F)cc7F)cc6)c(C(N)=O)c5N)C4)c(C)s3)ccc2CC1C(=O)NC1CCCc2ccccc21)C(C)(C)C

> <Shape>
0.192

> <Color>
0.086

> <Negative vol penalty>
0.000

$$$$

  -OEChem-04052305213D

 87 96  0     1  0  0  0  0  0999 V2000
  -27.5465  -34.3778   25.3302 C   0  0  0  0  0  0  0  0  0  0  0  0
  -27.8188  -33.1315   24.7754 C   0  0  0  0  0  0  0  0  0  0  0  0
  -24.4897   -9.1467   22.0163 C   0  0  0  0  0  0  0  0  0  0  0  0
  -23.2497  -10.2199   20.2421 C   0  0  0  0  0  0  0  0  0  0  0  0
  -26.2517  -34.6873   25.7445 C   0  0  0  0  0  0  0  0  0  0  0  0
  -26.7966  -32.1934   24.6355 C   0  0  0  0  0  0  0  0  0  0  0  0
  -26.8494  -29.9230   20.1092 C   0  0  0  0  0  0  0  0  0  0  0  0
  -23.5325   -8.1337   22.0725 C   0  0  0  0  0  0  0  0  0  0  0  0
  -22.2925   -9.2068   20.2983 C   0  0  0  0  0  0  0  0  0  0  0  0
  -27.7919  -28.9144   19.9138 C   0  0  0  0  0  0  0  0  0  0  0  0
  -22.7489   -5.3473   20.3247 C   0  0  0  0  0  0  0  0  0  0  0  0
  -23.2024   -4.0303   20.3982 C   0  0  0  0  0  0  0  0  0  0  0  0
  -26.0889  -27.2536   20.3147 C   0  0  0  0  0  0  0  0  0  0  0  0
  -22.0580   -3.7541   22.5080 C   0  0  0  0  0  0  0  0  0  0  0  0
  -28.6018  -18.3879   18.2040 C   0  0  0  0  0  0  0  0  0  0  0  0
  -24.3483  -10.1899   21.1012 C   0  0  0  0  0  0  0  0  0  0  0  0
  -26.4982  -11.2662   20.2485 C   0  0  0  0  0  0  0  0  0  0  0  0
  -25.2111  -33.7561   25.6008 C   0  0  0  0  0  0  0  0  0  0  0  0
  -25.5197  -29.6041   20.4202 C   0  0  0  0  0  0  0  0  0  0  0  0
  -25.4869  -32.4902   25.0495 C   0  0  0  0  0  0  0  0  0  0  0  0
  -25.1309  -28.2600   20.5111 C   0  0  0  0  0  0  0  0  0  0  0  0
  -22.4339   -8.1637   21.2135 C   0  0  0  0  0  0  0  0  0  0  0  0
  -27.4123  -27.5795   20.0194 C   0  0  0  0  0  0  0  0  0  0  0  0
  -21.9500   -5.8678   21.3428 C   0  0  0  0  0  0  0  0  0  0  0  0
  -22.8569   -3.2337   21.4899 C   0  0  0  0  0  0  0  0  0  0  0  0
  -21.6045   -5.0712   22.4345 C   0  0  0  0  0  0  0  0  0  0  0  0
  -25.3364  -11.2369   21.0430 C   0  0  0  0  0  0  0  0  0  0  0  0
  -28.1126  -18.6638   19.4636 C   0  0  0  0  0  0  0  0  0  0  0  0
  -27.0942  -12.4648   20.5559 C   0  0  0  0  0  0  0  0  0  0  0  0
  -29.1297  -20.5687   19.0804 C   0  0  0  0  0  0  0  0  0  0  0  0
  -29.3065  -24.1061   18.2184 C   0  0  0  0  0  0  0  0  0  0  0  0
  -26.9942  -10.2966   19.3160 C   0  0  0  0  0  0  0  0  0  0  0  0
  -23.5974  -30.1630   22.8892 C   0  0  0  0  0  0  0  0  0  0  0  0
  -21.3714  -28.7968   20.9655 C   0  0  0  0  0  0  0  0  0  0  0  0
  -20.6883  -26.7144   18.3495 C   0  0  0  0  0  0  0  0  0  0  0  0
  -26.8115  -17.9453   21.4976 C   0  0  0  0  0  0  0  0  0  0  0  0
  -23.8373  -34.1188   26.1066 C   0  0  0  0  0  0  0  0  0  0  0  0
  -24.5092  -30.7033   20.6017 C   0  0  0  0  0  0  0  0  0  0  0  0
  -23.7114  -27.8644   20.8228 C   0  0  0  0  0  0  0  0  0  0  0  0
  -22.7334  -33.2059   25.5791 C   0  0  0  0  0  0  0  0  0  0  0  0
  -26.0980  -15.7898   24.2402 C   0  0  0  0  0  0  0  0  0  0  0  0
  -23.1486  -31.7429   25.6971 C   0  0  0  0  0  0  0  0  0  0  0  0
  -25.9318  -14.4156   23.5875 C   0  0  0  0  0  0  0  0  0  0  0  0
  -28.7683  -22.8730   20.1746 C   0  0  0  0  0  0  0  0  0  0  0  0
  -25.5376  -16.9066   23.3613 C   0  0  0  0  0  0  0  0  0  0  0  0
  -25.8808  -15.5533   21.3315 C   0  0  0  0  0  0  0  0  0  0  0  0
  -24.3997  -31.4551   24.8584 C   0  0  1  0  0  0  0  0  0  0  0  0
  -29.0323  -24.3048   19.6926 C   0  0  2  0  0  0  0  0  0  0  0  0
  -23.2970  -30.2713   21.4210 C   0  0  1  0  0  0  0  0  0  0  0  0
  -26.4889  -14.4031   22.1505 C   0  0  2  0  0  0  0  0  0  0  0  0
  -29.6578  -21.9882   19.2735 C   0  0  1  0  0  0  0  0  0  0  0  0
  -18.7728  -25.7669   17.0341 C   0  0  0  0  0  0  0  0  0  0  0  0
  -20.7487  -26.8808   23.2571 C   0  0  0  0  0  0  0  0  0  0  0  0
  -19.5654  -25.4094   21.6129 C   0  0  0  0  0  0  0  0  0  0  0  0
  -18.7407  -27.7265   22.0296 C   0  0  0  0  0  0  0  0  0  0  0  0
  -21.6525  -27.9465   15.8373 C   0  0  0  0  0  0  0  0  0  0  0  0
  -27.8725  -25.2472   19.9530 C   0  0  0  0  0  0  0  0  0  1  0  0
  -20.8823  -27.3883   20.7291 C   0  0  1  0  0  0  0  0  0  0  0  0
  -19.7984  -26.8855   17.1316 C   0  0  2  0  0  0  0  0  0  0  0  0
  -31.0908  -21.9107   19.8302 C   0  0  0  0  0  0  0  0  0  0  0  0
  -20.0115  -26.8584   21.9032 C   0  0  0  0  0  0  0  0  0  0  0  0
  -25.2006  -12.3300   21.7984 N   0  0  0  0  0  0  0  0  0  0  0  0
  -28.4147  -19.9137   19.9680 N   0  0  0  0  0  0  0  0  0  0  0  0
  -26.2849  -13.0574   21.4801 N   0  0  0  0  0  0  0  0  0  0  0  0
  -29.6560  -22.7708   18.0423 N   0  0  0  0  0  0  0  0  0  0  0  0
  -22.7616  -28.9756   20.9980 N   0  0  0  0  0  0  0  0  0  0  0  0
  -26.1134  -16.8345   22.0166 N   0  0  0  0  0  0  0  0  0  0  0  0
  -28.2264  -13.0592   20.1232 N   0  0  0  0  0  0  0  0  0  0  0  0
  -26.2578   -9.1203   19.1201 N   0  0  0  0  0  0  0  0  0  0  0  0
  -27.3426  -17.7486   20.2233 N   0  0  0  0  0  0  0  0  0  0  0  0
  -24.0532  -31.3369   23.4582 N   0  0  0  0  0  0  0  0  0  0  0  0
  -20.2006  -27.4040   19.4394 N   0  0  0  0  0  0  0  0  0  0  0  0
  -20.6177  -26.8817   15.8868 N   0  3  0  0  0  0  0  0  0  0  0  0
  -29.2639  -24.9720   17.3579 O   0  0  0  0  0  0  0  0  0  0  0  0
  -28.0674  -10.4610   18.6876 O   0  0  0  0  0  0  0  0  0  0  0  0
  -23.4269  -29.0941   23.4636 O   0  0  0  0  0  0  0  0  0  0  0  0
  -20.5502  -29.7061   21.1088 O   0  0  0  0  0  0  0  0  0  0  0  0
  -21.7116  -26.0338   18.3364 O   0  0  0  0  0  0  0  0  0  0  0  0
  -26.9529  -18.9844   22.1476 O   0  0  0  0  0  0  0  0  0  0  0  0
  -21.4998   -7.1752   21.2679 O   0  0  0  0  0  0  0  0  0  0  0  0
  -28.3304  -26.5931   19.8297 O   0  0  0  0  0  0  0  0  0  1  0  0
  -23.2912   -1.9685   21.5596 F   0  0  0  0  0  0  0  0  0  0  0  0
  -20.8363   -5.5652   23.4151 F   0  0  0  0  0  0  0  0  0  0  0  0
  -31.8834  -21.2496   18.9724 F   0  0  0  0  0  0  0  0  0  0  0  0
  -31.5824  -23.1462   20.0110 F   0  0  0  0  0  0  0  0  0  0  0  0
  -31.0934  -21.2663   21.0075 F   0  0  0  0  0  0  0  0  0  0  0  0
  -29.4754  -19.7420   17.6168 S   0  0  0  0  0  0  0  0  0  0  0  0
  1  2  1  0  0  0  0
  1  5  2  0  0  0  0
  2  6  2  0  0  0  0
  3  8  2  0  0  0  0
  3 16  1  0  0  0  0
  4  9  1  0  0  0  0
  4 16  2  0  0  0  0
  5 18  1  0  0  0  0
  6 20  1  0  0  0  0
  7 10  2  0  0  0  0
  7 19  1  0  0  0  0
  8 22  1  0  0  0  0
  9 22  2  0  0  0  0
 10 23  1  0  0  0  0
 11 12  2  0  0  0  0
 11 24  1  0  0  0  0
 12 25  1  0  0  0  0
 13 21  1  0  0  0  0
 13 23  2  0  0  0  0
 14 25  2  0  0  0  0
 14 26  1  0  0  0  0
 15 28  2  0  0  0  0
 15 87  1  0  0  0  0
 16 27  1  0  0  0  0
 17 27  1  0  0  0  0
 17 29  2  0  0  0  0
 17 32  1  0  0  0  0
 18 20  2  0  0  0  0
 18 37  1  0  0  0  0
 19 21  2  0  0  0  0
 19 38  1  0  0  0  0
 20 47  1  0  0  0  0
 21 39  1  0  0  0  0
 22 80  1  0  0  0  0
 23 81  1  0  0  0  0
 24 26  2  0  0  0  0
 24 80  1  0  0  0  0
 25 82  1  0  0  0  0
 26 83  1  0  0  0  0
 27 62  2  0  0  0  0
 28 63  1  0  0  0  0
 28 70  1  0  0  0  0
 29 64  1  0  0  0  0
 29 68  1  0  0  0  0
 30 51  1  0  0  0  0
 30 63  2  0  0  0  0
 30 87  1  0  0  0  0
 31 48  1  0  0  0  0
 31 65  1  0  0  0  0
 31 74  2  0  0  0  0
 32 69  1  0  0  0  0
 32 75  2  0  0  0  0
 33 49  1  0  0  0  0
 33 71  1  0  0  0  0
 33 76  2  0  0  0  0
 34 58  1  0  0  0  0
 34 66  1  0  0  0  0
 34 77  2  0  0  0  0
 35 59  1  0  0  0  0
 35 72  1  0  0  0  0
 35 78  2  0  0  0  0
 36 67  1  0  0  0  0
 36 70  1  0  0  0  0
 36 79  2  0  0  0  0
 37 40  1  0  0  0  0
 38 49  1  0  0  0  0
 39 66  1  0  0  0  0
 40 42  1  0  0  0  0
 41 43  1  0  0  0  0
 41 45  1  0  0  0  0
 42 47  1  0  0  0  0
 43 50  1  0  0  0  0
 44 48  1  0  0  0  0
 44 51  1  0  0  0  0
 45 67  1  0  0  0  0
 46 50  1  0  0  0  0
 46 67  1  0  0  0  0
 47 71  1  0  0  0  0
 48 57  1  0  0  0  0
 49 66  1  0  0  0  0
 50 64  1  0  0  0  0
 51 60  1  0  0  0  0
 51 65  1  0  0  0  0
 52 59  1  0  0  0  0
 53 61  1  0  0  0  0
 54 61  1  0  0  0  0
 55 61  1  0  0  0  0
 56 73  1  0  0  0  0
 57 81  1  0  0  0  0
 58 61  1  0  0  0  0
 58 72  1  0  0  0  0
 59 73  1  0  0  0  0
 60 84  1  0  0  0  0
 60 85  1  0  0  0  0
 60 86  1  0  0  0  0
 62 64  1  0  0  0  0
M  CHG  1  73   1
M  ISO  4  36 100  57 101  70 100  81 101
M  END
> <Batch ID>
0190

> <Smiles>
CNC(C)C(=O)NC(C(=O)N1Cc2cc([101O:1][101CH2:1]C3CC(c4nc([100NH:0][100C:0](=O)N5CCCC(n6nc(-c7ccc(Oc8ccc(F)cc8F)cc7)c(C(N)=O)c6N)C5)cs4)(C(F)(F)F)NC3=O)ccc2CC1C(=O)NC1CCCc2ccccc21)C(C)(C)C

> <Shape>
0.336

> <Color>
0.105

> <Negative vol penalty>
0.000

$$$$

  -OEChem-04052305213D

 86 94  0     1  0  0  0  0  0999 V2000
  -22.1028   -8.4158   21.6381 C   0  0  0  0  0  0  0  0  0  0  0  0
  -22.5364   -9.4127   22.5062 C   0  0  0  0  0  0  0  0  0  0  0  0
  -23.3337  -29.6281   20.0014 C   0  0  0  0  0  0  0  0  0  0  0  0
  -23.6172  -28.2379   21.9569 C   0  0  0  0  0  0  0  0  0  0  0  0
  -22.6191   -8.3462   20.3448 C   0  0  0  0  0  0  0  0  0  0  0  0
  -23.4875  -10.3399   22.0818 C   0  0  0  0  0  0  0  0  0  0  0  0
  -23.8392  -16.2434   23.6726 C   0  0  0  0  0  0  0  0  0  0  0  0
  -22.0189  -29.8960   20.3824 C   0  0  0  0  0  0  0  0  0  0  0  0
  -22.3024  -28.5058   22.3380 C   0  0  0  0  0  0  0  0  0  0  0  0
  -24.6127  -16.9157   24.6178 C   0  0  0  0  0  0  0  0  0  0  0  0
  -19.2009  -27.4596   21.4913 C   0  0  0  0  0  0  0  0  0  0  0  0
  -18.4189  -26.3869   21.9196 C   0  0  0  0  0  0  0  0  0  0  0  0
  -26.2157  -17.4703   22.9025 C   0  0  0  0  0  0  0  0  0  0  0  0
  -18.1241  -27.4583   24.0649 C   0  0  0  0  0  0  0  0  0  0  0  0
  -24.1329  -28.7990   20.7886 C   0  0  0  0  0  0  0  0  0  0  0  0
  -26.6433  -29.2499   20.7463 C   0  0  0  0  0  0  0  0  0  0  0  0
  -23.5698   -9.2789   19.9012 C   0  0  0  0  0  0  0  0  0  0  0  0
  -24.2543  -16.1701   22.3351 C   0  0  0  0  0  0  0  0  0  0  0  0
  -24.0180  -10.2819   20.7818 C   0  0  0  0  0  0  0  0  0  0  0  0
  -25.4444  -16.7987   21.9418 C   0  0  0  0  0  0  0  0  0  0  0  0
  -21.5033  -29.3349   21.5507 C   0  0  0  0  0  0  0  0  0  0  0  0
  -25.8027  -17.5268   24.2334 C   0  0  0  0  0  0  0  0  0  0  0  0
  -19.4445  -28.5316   22.3498 C   0  0  0  0  0  0  0  0  0  0  0  0
  -17.8805  -26.3862   23.2064 C   0  0  0  0  0  0  0  0  0  0  0  0
  -18.9061  -28.5310   23.6366 C   0  0  0  0  0  0  0  0  0  0  0  0
  -25.4909  -28.5215   20.3953 C   0  0  0  0  0  0  0  0  0  0  0  0
  -29.7047  -19.7282   21.0215 C   0  0  0  0  0  0  0  0  0  0  0  0
  -27.6722  -28.5848   20.1254 C   0  0  0  0  0  0  0  0  0  0  0  0
  -29.2421  -20.1297   22.2572 C   0  0  0  0  0  0  0  0  0  0  0  0
  -28.7430  -21.6051   20.4196 C   0  0  0  0  0  0  0  0  0  0  0  0
  -26.7723  -30.4227   21.5608 C   0  0  0  0  0  0  0  0  0  0  0  0
  -25.0321  -13.8092   20.3541 C   0  0  0  0  0  0  0  0  0  0  0  0
  -29.7776  -21.1121   25.2000 C   0  0  0  0  0  0  0  0  0  0  0  0
  -25.1684  -16.2067   18.1733 C   0  0  0  0  0  0  0  0  0  0  0  0
  -25.5788  -19.5369   17.5507 C   0  0  0  0  0  0  0  0  0  0  0  0
  -28.3749  -22.9348   18.3118 C   0  0  0  0  0  0  0  0  0  0  0  0
  -24.1340   -9.1347   18.5099 C   0  0  0  0  0  0  0  0  0  0  0  0
  -23.3951  -15.4640   21.3224 C   0  0  0  0  0  0  0  0  0  0  0  0
  -25.9241  -16.7664   20.5145 C   0  0  0  0  0  0  0  0  0  0  0  0
  -24.8614  -10.3823   18.0154 C   0  0  0  0  0  0  0  0  0  0  0  0
  -28.6006  -25.8616   16.2969 C   0  0  0  0  0  0  0  0  0  0  0  0
  -25.8040  -10.9124   19.0912 C   0  0  0  0  0  0  0  0  0  0  0  0
  -27.9391  -26.9435   17.1537 C   0  0  0  0  0  0  0  0  0  0  0  0
  -27.9026  -24.5114   16.4500 C   0  0  0  0  0  0  0  0  0  0  0  0
  -27.0859  -25.1280   18.6909 C   0  0  0  0  0  0  0  0  0  0  0  0
  -25.0300  -11.3210   20.3503 C   0  0  1  0  0  0  0  0  0  0  0  0
  -24.1726  -15.0130   20.0898 C   0  0  1  0  0  0  0  0  0  0  0  0
  -27.7939  -26.4908   18.6199 C   0  0  2  0  0  0  0  0  0  0  0  0
  -30.4654  -18.4941   20.7319 C   0  0  0  0  0  0  0  0  0  0  0  0
  -30.1017  -23.3012   26.4257 C   0  0  0  0  0  0  0  0  0  0  0  0
  -25.6778  -21.1911   15.6662 C   0  0  0  0  0  0  0  0  0  0  0  0
  -27.8713  -16.6288   26.4282 C   0  0  0  0  0  0  0  0  0  0  0  0
  -27.9870  -15.2576   17.4915 C   0  0  0  0  0  0  0  0  0  0  0  0
  -28.3731  -17.4501   16.3461 C   0  0  0  0  0  0  0  0  0  0  0  0
  -26.5982  -15.9066   15.5155 C   0  0  0  0  0  0  0  0  0  0  0  0
  -23.2347  -21.0231   18.5781 C   0  0  0  0  0  0  0  0  0  0  0  0
  -29.1114  -22.2480   25.9616 C   0  0  0  0  0  0  0  0  0  0  0  0
  -28.7832  -18.8867   25.7736 C   0  0  0  0  0  0  0  0  0  0  0  0
  -28.8561  -19.9974   24.7187 C   0  0  2  0  0  0  0  0  0  0  0  0
  -26.2420  -17.1503   17.6876 C   0  0  1  0  0  0  0  0  0  0  0  0
  -24.7873  -20.5060   16.6911 C   0  0  2  0  0  0  0  0  0  0  0  0
  -27.8913  -17.7107   25.3558 C   0  0  2  0  0  0  0  0  0  1  0  0
  -27.2923  -16.4403   16.7875 C   0  0  0  0  0  0  0  0  0  0  0  0
  -25.7616  -27.4740   19.6120 N   0  0  0  0  0  0  0  0  0  0  0  0
  -29.4191  -20.5728   19.9665 N   0  0  0  0  0  0  0  0  0  0  0  0
  -27.0959  -27.5394   19.4656 N   0  0  0  0  0  0  0  0  0  0  0  0
  -25.0522  -16.0582   19.5626 N   0  0  0  0  0  0  0  0  0  0  0  0
  -27.8049  -24.1456   17.8647 N   0  0  0  0  0  0  0  0  0  0  0  0
  -29.0046  -28.7981   20.0847 N   0  0  0  0  0  0  0  0  0  0  0  0
  -25.6138  -30.9771   22.1220 N   0  0  0  0  0  0  0  0  0  0  0  0
  -29.3829  -19.4834   23.4726 N   0  0  0  0  0  0  0  0  0  0  0  0
  -28.2482  -22.7092   19.6821 N   0  0  0  0  0  0  0  0  0  0  0  0
  -24.3877  -12.6031   20.1549 N   0  0  0  0  0  0  0  0  0  0  0  0
  -25.5489  -18.2574   17.0377 N   0  0  0  0  0  0  0  0  0  0  0  0
  -24.1554  -21.5549   17.5406 N   0  3  0  0  0  0  0  0  0  0  0  0
  -27.8800  -30.9726   21.7710 O   0  0  0  0  0  0  0  0  0  0  0  0
  -26.1943  -13.9631   20.7108 O   0  0  0  0  0  0  0  0  0  0  0  0
  -30.9923  -21.0831   25.0004 O   0  0  0  0  0  0  0  0  0  0  0  0
  -24.4543  -15.6282   17.3504 O   0  0  0  0  0  0  0  0  0  0  0  0
  -26.1680  -19.8814   18.5728 O   0  0  0  0  0  0  0  0  0  0  0  0
  -28.9579  -22.1683   17.5407 O   0  0  0  0  0  0  0  0  0  0  0  0
  -20.2204  -29.5962   21.9229 O   0  0  0  0  0  0  0  0  0  0  0  0
  -26.5599  -18.1831   25.1541 O   0  0  0  0  0  0  0  0  0  1  0  0
  -17.1283  -25.3568   23.6170 F   0  0  0  0  0  0  0  0  0  0  0  0
  -19.1357  -29.5587   24.4655 F   0  0  0  0  0  0  0  0  0  0  0  0
  -28.4163  -21.6250   22.1042 S   0  0  0  0  0  0  0  0  0  0  0  0
  1  2  1  0  0  0  0
  1  5  2  0  0  0  0
  2  6  2  0  0  0  0
  3  8  2  0  0  0  0
  3 15  1  0  0  0  0
  4  9  1  0  0  0  0
  4 15  2  0  0  0  0
  5 17  1  0  0  0  0
  6 19  1  0  0  0  0
  7 10  2  0  0  0  0
  7 18  1  0  0  0  0
  8 21  1  0  0  0  0
  9 21  2  0  0  0  0
 10 22  1  0  0  0  0
 11 12  2  0  0  0  0
 11 23  1  0  0  0  0
 12 24  1  0  0  0  0
 13 20  1  0  0  0  0
 13 22  2  0  0  0  0
 14 24  2  0  0  0  0
 14 25  1  0  0  0  0
 15 26  1  0  0  0  0
 16 26  1  0  0  0  0
 16 28  2  0  0  0  0
 16 31  1  0  0  0  0
 17 19  2  0  0  0  0
 17 37  1  0  0  0  0
 18 20  2  0  0  0  0
 18 38  1  0  0  0  0
 19 46  1  0  0  0  0
 20 39  1  0  0  0  0
 21 82  1  0  0  0  0
 22 83  1  0  0  0  0
 23 25  2  0  0  0  0
 23 82  1  0  0  0  0
 24 84  1  0  0  0  0
 25 85  1  0  0  0  0
 26 64  2  0  0  0  0
 27 29  2  0  0  0  0
 27 49  1  0  0  0  0
 27 65  1  0  0  0  0
 28 66  1  0  0  0  0
 28 69  1  0  0  0  0
 29 71  1  0  0  0  0
 29 86  1  0  0  0  0
 30 65  2  0  0  0  0
 30 72  1  0  0  0  0
 30 86  1  0  0  0  0
 31 70  1  0  0  0  0
 31 76  2  0  0  0  0
 32 47  1  0  0  0  0
 32 73  1  0  0  0  0
 32 77  2  0  0  0  0
 33 57  1  0  0  0  0
 33 59  1  0  0  0  0
 33 78  2  0  0  0  0
 34 60  1  0  0  0  0
 34 67  1  0  0  0  0
 34 79  2  0  0  0  0
 35 61  1  0  0  0  0
 35 74  1  0  0  0  0
 35 80  2  0  0  0  0
 36 68  1  0  0  0  0
 36 72  1  0  0  0  0
 36 81  2  0  0  0  0
 37 40  1  0  0  0  0
 38 47  1  0  0  0  0
 39 67  1  0  0  0  0
 40 42  1  0  0  0  0
 41 43  1  0  0  0  0
 41 44  1  0  0  0  0
 42 46  1  0  0  0  0
 43 48  1  0  0  0  0
 44 68  1  0  0  0  0
 45 48  1  0  0  0  0
 45 68  1  0  0  0  0
 46 73  1  0  0  0  0
 47 67  1  0  0  0  0
 48 66  1  0  0  0  0
 50 57  1  0  0  0  0
 51 61  1  0  0  0  0
 52 62  1  0  0  0  0
 53 63  1  0  0  0  0
 54 63  1  0  0  0  0
 55 63  1  0  0  0  0
 56 75  1  0  0  0  0
 58 59  1  0  0  0  0
 58 62  1  0  0  0  0
 59 71  1  0  0  0  0
 60 63  1  0  0  0  0
 60 74  1  0  0  0  0
 61 75  1  0  0  0  0
 62 83  1  0  0  0  0
 64 66  1  0  0  0  0
M  CHG  1  75   1
M  ISO  4  36 100  62 101  72 100  83 101
M  END
> <Batch ID>
0190

> <Smiles>
CCC(=O)C(C[101CH:1](C)[101O:1]c1ccc2c(c1)CN(C(=O)C(NC(=O)C(C)NC)C(C)(C)C)C(C(=O)NC1CCCc3ccccc31)C2)Nc1sc([100NH:0][100C:0](=O)N2CCCC(n3nc(-c4ccc(Oc5ccc(F)cc5F)cc4)c(C(N)=O)c3N)C2)nc1C

> <Shape>
0.228

> <Color>
0.065

> <Negative vol penalty>
0.000

$$$$

  -OEChem-04052305213D

 86 94  0     1  0  0  0  0  0999 V2000
  -22.6140  -23.0351   23.4699 C   0  0  0  0  0  0  0  0  0  0  0  0
  -23.9714  -22.9797   23.7697 C   0  0  0  0  0  0  0  0  0  0  0  0
  -23.0117   -9.9056   19.9952 C   0  0  0  0  0  0  0  0  0  0  0  0
  -23.7240   -9.9920   22.3022 C   0  0  0  0  0  0  0  0  0  0  0  0
  -22.1911  -23.5701   22.2539 C   0  0  0  0  0  0  0  0  0  0  0  0
  -24.9068  -23.4583   22.8530 C   0  0  0  0  0  0  0  0  0  0  0  0
  -28.4867  -26.2994   25.0340 C   0  0  0  0  0  0  0  0  0  0  0  0
  -22.2471   -8.7727   20.2736 C   0  0  0  0  0  0  0  0  0  0  0  0
  -22.9594   -8.8591   22.5807 C   0  0  0  0  0  0  0  0  0  0  0  0
  -29.5046  -25.6308   25.7126 C   0  0  0  0  0  0  0  0  0  0  0  0
  -23.2163   -5.5145   22.1582 C   0  0  0  0  0  0  0  0  0  0  0  0
  -23.8027   -4.5100   22.9281 C   0  0  0  0  0  0  0  0  0  0  0  0
  -30.9564  -25.9203   23.8080 C   0  0  0  0  0  0  0  0  0  0  0  0
  -22.0689   -4.7717   24.5902 C   0  0  0  0  0  0  0  0  0  0  0  0
  -31.8184  -18.7335   22.1464 C   0  0  0  0  0  0  0  0  0  0  0  0
  -23.7502  -10.5152   21.0094 C   0  0  0  0  0  0  0  0  0  0  0  0
  -24.1290  -13.0292   20.7993 C   0  0  0  0  0  0  0  0  0  0  0  0
  -23.1212  -24.0643   21.3258 C   0  0  0  0  0  0  0  0  0  0  0  0
  -28.6928  -26.7748   23.7309 C   0  0  0  0  0  0  0  0  0  0  0  0
  -24.4960  -23.9991   21.6227 C   0  0  0  0  0  0  0  0  0  0  0  0
  -29.9403  -26.5969   23.1159 C   0  0  0  0  0  0  0  0  0  0  0  0
  -22.2209   -8.2495   21.5664 C   0  0  0  0  0  0  0  0  0  0  0  0
  -30.7387  -25.4386   25.0986 C   0  0  0  0  0  0  0  0  0  0  0  0
  -22.0562   -6.1476   22.6044 C   0  0  0  0  0  0  0  0  0  0  0  0
  -23.2290   -4.1386   24.1441 C   0  0  0  0  0  0  0  0  0  0  0  0
  -21.4825   -5.7762   23.8203 C   0  0  0  0  0  0  0  0  0  0  0  0
  -24.5407  -11.6852   20.7223 C   0  0  0  0  0  0  0  0  0  0  0  0
  -30.7068  -19.1432   22.8525 C   0  0  0  0  0  0  0  0  0  0  0  0
  -25.2386  -13.7498   20.4306 C   0  0  0  0  0  0  0  0  0  0  0  0
  -30.5633  -16.9607   21.8433 C   0  0  0  0  0  0  0  0  0  0  0  0
  -22.8573  -13.5772   21.1710 C   0  0  0  0  0  0  0  0  0  0  0  0
  -27.3869  -26.1820   20.8942 C   0  0  0  0  0  0  0  0  0  0  0  0
  -29.2915  -28.6288   19.9412 C   0  0  0  0  0  0  0  0  0  0  0  0
  -32.0923  -30.5014   20.4849 C   0  0  0  0  0  0  0  0  0  0  0  0
  -30.7138  -14.7309   20.6807 C   0  0  0  0  0  0  0  0  0  0  0  0
  -22.6191  -24.5901   20.0045 C   0  0  0  0  0  0  0  0  0  0  0  0
  -27.5933  -27.5175   23.0225 C   0  0  0  0  0  0  0  0  0  0  0  0
  -30.2190  -27.1058   21.7261 C   0  0  0  0  0  0  0  0  0  0  0  0
  -23.6527  -25.4191   19.2463 C   0  0  0  0  0  0  0  0  0  0  0  0
  -29.6156  -12.2415   18.3841 C   0  0  0  0  0  0  0  0  0  0  0  0
  -25.0038  -24.7110   19.2392 C   0  0  0  0  0  0  0  0  0  0  0  0
  -28.1635  -11.9854   18.7940 C   0  0  0  0  0  0  0  0  0  0  0  0
  -30.5087  -12.5050   19.5952 C   0  0  0  0  0  0  0  0  0  0  0  0
  -28.5838  -13.3070   20.9068 C   0  0  0  0  0  0  0  0  0  0  0  0
  -25.5397  -24.5309   20.6646 C   0  0  1  0  0  0  0  0  0  0  0  0
  -27.7467  -27.5070   21.5047 C   0  0  1  0  0  0  0  0  0  0  0  0
  -27.6332  -13.1007   19.7162 C   0  0  2  0  0  0  0  0  0  0  0  0
  -29.5733  -21.7606   21.6131 C   0  0  0  0  0  0  0  0  0  0  0  0
  -33.4077  -32.4057   19.5150 C   0  0  0  0  0  0  0  0  0  0  0  0
  -29.9030  -20.9126   26.6819 C   0  0  0  0  0  0  0  0  0  0  0  0
  -30.3893  -26.7693   17.7855 C   0  0  0  0  0  0  0  0  0  0  0  0
  -32.3046  -28.3547   17.4916 C   0  0  0  0  0  0  0  0  0  0  0  0
  -29.9750  -29.1160   17.0268 C   0  0  0  0  0  0  0  0  0  0  0  0
  -31.7128  -32.1520   22.9119 C   0  0  0  0  0  0  0  0  0  0  0  0
  -30.5947  -21.6995   22.7424 C   0  0  0  0  0  0  0  0  0  0  0  0
  -32.1310  -22.0971   26.5623 C   0  0  0  0  0  0  0  0  0  0  0  0
  -32.6660  -24.0515   24.9658 C   0  0  0  0  0  0  0  0  0  1  0  0
  -30.4573  -20.4328   23.6036 C   0  0  2  0  0  0  0  0  0  0  0  0
  -30.7033  -28.7438   19.4191 C   0  0  1  0  0  0  0  0  0  0  0  0
  -32.3142  -32.0031   20.4923 C   0  0  2  0  0  0  0  0  0  0  0  0
  -30.9246  -21.5822   25.7714 C   0  0  1  0  0  0  0  0  0  0  0  0
  -33.1926  -22.8478   25.7434 C   0  0  1  0  0  0  0  0  0  0  0  0
  -30.8375  -28.2345   17.9562 C   0  0  0  0  0  0  0  0  0  0  0  0
  -31.7381  -17.4821   21.5673 N   0  0  0  0  0  0  0  0  0  0  0  0
  -25.8125  -11.5569   20.3349 N   0  0  0  0  0  0  0  0  0  0  0  0
  -26.2095  -12.8295   20.1652 N   0  0  0  0  0  0  0  0  0  0  0  0
  -29.1101  -27.8202   21.0722 N   0  0  0  0  0  0  0  0  0  0  0  0
  -29.9459  -13.5762   20.4201 N   0  0  0  0  0  0  0  0  0  0  0  0
  -25.4686  -15.0747   20.3107 N   0  0  0  0  0  0  0  0  0  0  0  0
  -21.8263  -12.6949   21.5216 N   0  0  0  0  0  0  0  0  0  0  0  0
  -30.0624  -15.6952   21.4490 N   0  0  0  0  0  0  0  0  0  0  0  0
  -26.0931  -25.7741   21.1573 N   0  0  0  0  0  0  0  0  0  0  0  0
  -31.0951  -30.1367   19.6052 N   0  0  0  0  0  0  0  0  0  0  0  0
  -32.7089  -32.4617   21.8542 N   0  3  0  0  0  0  0  0  0  0  0  0
  -31.3714  -20.5785   24.7663 N   0  3  0  0  0  0  0  0  0  0  0  0
  -22.6368  -14.8121   21.1758 O   0  0  0  0  0  0  0  0  0  0  0  0
  -28.2208  -25.5754   20.2321 O   0  0  0  0  0  0  0  0  0  0  0  0
  -28.3842  -29.2397   19.3709 O   0  0  0  0  0  0  0  0  0  0  0  0
  -32.7414  -29.7287   21.1865 O   0  0  0  0  0  0  0  0  0  0  0  0
  -31.8545  -14.8667   20.2309 O   0  0  0  0  0  0  0  0  0  0  0  0
  -34.1992  -23.3215   26.6432 O   0  0  0  0  0  0  0  0  0  0  0  0
  -21.4747   -7.1442   21.8385 O   0  0  0  0  0  0  0  0  0  0  0  0
  -31.7338  -24.7857   25.7585 O   0  0  0  0  0  0  0  0  0  1  0  0
  -23.7914   -3.1729   24.8825 F   0  0  0  0  0  0  0  0  0  0  0  0
  -20.3674   -6.3801   24.2536 F   0  0  0  0  0  0  0  0  0  0  0  0
  -29.5054  -17.9207   22.7942 S   0  0  0  0  0  0  0  0  0  0  0  0
  1  2  1  0  0  0  0
  1  5  2  0  0  0  0
  2  6  2  0  0  0  0
  3  8  2  0  0  0  0
  3 16  1  0  0  0  0
  4  9  1  0  0  0  0
  4 16  2  0  0  0  0
  5 18  1  0  0  0  0
  6 20  1  0  0  0  0
  7 10  2  0  0  0  0
  7 19  1  0  0  0  0
  8 22  1  0  0  0  0
  9 22  2  0  0  0  0
 10 23  1  0  0  0  0
 11 12  2  0  0  0  0
 11 24  1  0  0  0  0
 12 25  1  0  0  0  0
 13 21  1  0  0  0  0
 13 23  2  0  0  0  0
 14 25  2  0  0  0  0
 14 26  1  0  0  0  0
 15 28  2  0  0  0  0
 15 64  1  0  0  0  0
 16 27  1  0  0  0  0
 17 27  1  0  0  0  0
 17 29  2  0  0  0  0
 17 31  1  0  0  0  0
 18 20  2  0  0  0  0
 18 36  1  0  0  0  0
 19 21  2  0  0  0  0
 19 37  1  0  0  0  0
 20 45  1  0  0  0  0
 21 38  1  0  0  0  0
 22 82  1  0  0  0  0
 23 83  1  0  0  0  0
 24 26  2  0  0  0  0
 24 82  1  0  0  0  0
 25 84  1  0  0  0  0
 26 85  1  0  0  0  0
 27 65  2  0  0  0  0
 28 58  1  0  0  0  0
 28 86  1  0  0  0  0
 29 66  1  0  0  0  0
 29 69  1  0  0  0  0
 30 64  2  0  0  0  0
 30 71  1  0  0  0  0
 30 86  1  0  0  0  0
 31 70  1  0  0  0  0
 31 76  2  0  0  0  0
 32 46  1  0  0  0  0
 32 72  1  0  0  0  0
 32 77  2  0  0  0  0
 33 59  1  0  0  0  0
 33 67  1  0  0  0  0
 33 78  2  0  0  0  0
 34 60  1  0  0  0  0
 34 73  1  0  0  0  0
 34 79  2  0  0  0  0
 35 68  1  0  0  0  0
 35 71  1  0  0  0  0
 35 80  2  0  0  0  0
 36 39  1  0  0  0  0
 37 46  1  0  0  0  0
 38 67  1  0  0  0  0
 39 41  1  0  0  0  0
 40 42  1  0  0  0  0
 40 43  1  0  0  0  0
 41 45  1  0  0  0  0
 42 47  1  0  0  0  0
 43 68  1  0  0  0  0
 44 47  1  0  0  0  0
 44 68  1  0  0  0  0
 45 72  1  0  0  0  0
 46 67  1  0  0  0  0
 47 66  1  0  0  0  0
 48 55  1  0  0  0  0
 49 60  1  0  0  0  0
 50 61  1  0  0  0  0
 51 63  1  0  0  0  0
 52 63  1  0  0  0  0
 53 63  1  0  0  0  0
 54 74  1  0  0  0  0
 55 58  1  0  0  0  0
 56 61  1  0  0  0  0
 56 62  1  0  0  0  0
 57 62  1  0  0  0  0
 57 83  1  0  0  0  0
 58 75  1  0  0  0  0
 59 63  1  0  0  0  0
 59 73  1  0  0  0  0
 60 74  1  0  0  0  0
 61 75  1  0  0  0  0
 62 81  1  0  0  0  0
 65 66  1  0  0  0  0
M  CHG  2  74   1  75   1
M  ISO  4  35 100  57 101  71 100  83 101
M  END
> <Batch ID>
0190

> <Smiles>
CCC(NC(C)CC(O)[101CH2:1][101O:1]c1ccc2c(c1)CN(C(=O)C(NC(=O)C(C)NC)C(C)(C)C)C(C(=O)NC1CCCc3ccccc31)C2)c1cnc([100NH:0][100C:0](=O)N2CCCC(n3nc(-c4ccc(Oc5ccc(F)cc5F)cc4)c(C(N)=O)c3N)C2)s1

> <Shape>
0.222

> <Color>
0.188

> <Negative vol penalty>
0.000

$$$$

  -OEChem-04052305213D

 84 92  0     1  0  0  0  0  0999 V2000
  -17.8985  -33.4264   24.6872 C   0  0  0  0  0  0  0  0  0  0  0  0
  -19.2056  -33.0913   25.0258 C   0  0  0  0  0  0  0  0  0  0  0  0
  -24.2290  -13.7632   19.9889 C   0  0  0  0  0  0  0  0  0  0  0  0
  -26.4433  -13.9160   20.9431 C   0  0  0  0  0  0  0  0  0  0  0  0
  -17.0847  -32.4934   24.0460 C   0  0  0  0  0  0  0  0  0  0  0  0
  -19.6992  -31.8224   24.7245 C   0  0  0  0  0  0  0  0  0  0  0  0
  -25.4283  -30.3908   23.1019 C   0  0  0  0  0  0  0  0  0  0  0  0
  -24.3330  -12.3724   19.9702 C   0  0  0  0  0  0  0  0  0  0  0  0
  -26.5473  -12.5251   20.9245 C   0  0  0  0  0  0  0  0  0  0  0  0
  -26.5089  -29.8849   23.8232 C   0  0  0  0  0  0  0  0  0  0  0  0
  -23.8721   -8.7667   20.0059 C   0  0  0  0  0  0  0  0  0  0  0  0
  -22.7764   -8.0284   20.4530 C   0  0  0  0  0  0  0  0  0  0  0  0
  -25.9403  -27.6551   23.0994 C   0  0  0  0  0  0  0  0  0  0  0  0
  -22.9495   -9.0834   22.6195 C   0  0  0  0  0  0  0  0  0  0  0  0
  -30.6538  -23.4160   18.4859 C   0  0  0  0  0  0  0  0  0  0  0  0
  -25.2842  -14.5350   20.4753 C   0  0  0  0  0  0  0  0  0  0  0  0
  -24.6736  -16.7731   21.5364 C   0  0  0  0  0  0  0  0  0  0  0  0
  -17.5716  -31.2158   23.7280 C   0  0  0  0  0  0  0  0  0  0  0  0
  -24.5878  -29.5300   22.3816 C   0  0  0  0  0  0  0  0  0  0  0  0
  -18.8906  -30.8710   24.0797 C   0  0  0  0  0  0  0  0  0  0  0  0
  -24.8513  -28.1528   22.3677 C   0  0  0  0  0  0  0  0  0  0  0  0
  -25.4921  -11.7533   20.4380 C   0  0  0  0  0  0  0  0  0  0  0  0
  -26.7633  -28.5165   23.8244 C   0  0  0  0  0  0  0  0  0  0  0  0
  -24.5066   -9.6633   20.8657 C   0  0  0  0  0  0  0  0  0  0  0  0
  -22.3151   -8.1867   21.7598 C   0  0  0  0  0  0  0  0  0  0  0  0
  -24.0453   -9.8217   22.1725 C   0  0  0  0  0  0  0  0  0  0  0  0
  -25.1777  -15.9718   20.4944 C   0  0  0  0  0  0  0  0  0  0  0  0
  -30.6652  -22.0780   18.8200 C   0  0  0  0  0  0  0  0  0  0  0  0
  -24.7881  -18.0588   21.0669 C   0  0  0  0  0  0  0  0  0  0  0  0
  -30.6770  -23.6215   20.6693 C   0  0  0  0  0  0  0  0  0  0  0  0
  -24.1488  -16.3895   22.8143 C   0  0  0  0  0  0  0  0  0  0  0  0
  -21.5022  -28.7779   22.5140 C   0  0  0  0  0  0  0  0  0  0  0  0
  -22.1951  -27.1027   19.8241 C   0  0  0  0  0  0  0  0  0  0  0  0
  -30.6829  -25.4645   22.3862 C   0  0  0  0  0  0  0  0  0  0  0  0
  -24.5445  -25.5188   17.9219 C   0  0  0  0  0  0  0  0  0  0  0  0
  -28.3775  -20.6148   17.0130 C   0  0  0  0  0  0  0  0  0  0  0  0
  -16.6394  -30.2249   23.0770 C   0  0  0  0  0  0  0  0  0  0  0  0
  -23.4422  -30.0944   21.5869 C   0  0  0  0  0  0  0  0  0  0  0  0
  -23.9910  -27.1886   21.5940 C   0  0  0  0  0  0  0  0  0  0  0  0
  -17.3579  -29.0293   22.4569 C   0  0  0  0  0  0  0  0  0  0  0  0
  -24.8174  -20.5693   16.9942 C   0  0  0  0  0  0  0  0  0  0  0  0
  -18.3948  -28.4686   23.4251 C   0  0  0  0  0  0  0  0  0  0  0  0
  -24.4606  -19.4582   17.9831 C   0  0  0  0  0  0  0  0  0  0  0  0
  -26.0721  -20.2298   16.1925 C   0  0  0  0  0  0  0  0  0  0  0  0
  -26.8928  -18.7634   17.9953 C   0  0  0  0  0  0  0  0  0  0  0  0
  -19.4702  -29.5132   23.7474 C   0  0  1  0  0  0  0  0  0  0  0  0
  -22.3474  -29.0696   21.3064 C   0  0  1  0  0  0  0  0  0  0  0  0
  -25.6664  -19.0850   18.8663 C   0  0  2  0  0  0  0  0  0  0  0  0
  -32.1229  -25.5712   24.4621 C   0  0  0  0  0  0  0  0  0  0  0  0
  -24.8029  -24.2108   15.7958 C   0  0  0  0  0  0  0  0  0  0  0  0
  -20.9747  -24.6582   21.1825 C   0  0  0  0  0  0  0  0  0  0  0  0
  -22.0942  -23.2282   19.4591 C   0  0  0  0  0  0  0  0  0  0  0  0
  -20.3876  -24.9098   18.7645 C   0  0  0  0  0  0  0  0  0  0  0  0
  -26.3941  -27.5250   16.7759 C   0  0  0  0  0  0  0  0  0  0  0  0
  -30.6598  -20.8867   17.9492 C   0  0  0  0  0  0  0  0  0  0  0  0
  -29.9178  -26.8420   24.3774 C   0  0  0  0  0  0  0  0  0  0  0  0
  -28.4323  -26.8344   24.0262 C   0  0  0  0  0  0  0  0  0  1  0  0
  -22.6644  -25.6982   19.5304 C   0  0  1  0  0  0  0  0  0  0  0  0
  -30.6960  -25.5984   23.9145 C   0  0  1  0  0  0  0  0  0  0  0  0
  -24.8528  -25.5889   16.4371 C   0  0  2  0  0  0  0  0  0  0  0  0
  -21.5455  -24.6413   19.7504 C   0  0  0  0  0  0  0  0  0  0  0  0
  -30.6601  -24.3026   19.5451 N   0  0  0  0  0  0  0  0  0  0  0  0
  -25.5822  -16.6884   19.4423 N   0  0  0  0  0  0  0  0  0  0  0  0
  -25.3323  -17.9535   19.8208 N   0  0  0  0  0  0  0  0  0  0  0  0
  -22.8792  -27.7883   20.8378 N   0  0  0  0  0  0  0  0  0  0  0  0
  -27.1787  -19.8868   17.0890 N   0  0  0  0  0  0  0  0  0  0  0  0
  -24.4753  -19.2578   21.6027 N   0  0  0  0  0  0  0  0  0  0  0  0
  -24.1034  -15.0262   23.1361 N   0  0  0  0  0  0  0  0  0  0  0  0
  -30.6879  -24.1304   21.9898 N   0  0  0  0  0  0  0  0  0  0  0  0
  -20.4151  -29.6190   22.6563 N   0  0  0  0  0  0  0  0  0  0  0  0
  -23.2047  -25.7233   18.1755 N   0  0  0  0  0  0  0  0  0  0  0  0
  -29.3729  -20.2290   17.9025 N   0  0  0  0  0  0  0  0  0  0  0  0
  -26.2112  -26.1609   16.2166 N   0  3  0  0  0  0  0  0  0  0  0  0
  -23.7173  -17.2298   23.6397 O   0  0  0  0  0  0  0  0  0  0  0  0
  -21.8126  -27.8570   23.2605 O   0  0  0  0  0  0  0  0  0  0  0  0
  -21.2607  -27.5766   19.1729 O   0  0  0  0  0  0  0  0  0  0  0  0
  -30.6681  -26.4515   21.6559 O   0  0  0  0  0  0  0  0  0  0  0  0
  -25.4054  -25.3005   18.7714 O   0  0  0  0  0  0  0  0  0  0  0  0
  -28.5463  -21.5434   16.2155 O   0  0  0  0  0  0  0  0  0  0  0  0
  -25.5938  -10.3962   20.4201 O   0  0  0  0  0  0  0  0  0  0  0  0
  -27.8169  -28.0200   24.5282 O   0  0  0  0  0  0  0  0  0  1  0  0
  -21.2619   -7.4788   22.1885 F   0  0  0  0  0  0  0  0  0  0  0  0
  -24.6500  -10.6825   23.0027 F   0  0  0  0  0  0  0  0  0  0  0  0
  -30.6867  -21.9113   20.5268 S   0  0  0  0  0  0  0  0  0  0  0  0
  1  2  1  0  0  0  0
  1  5  2  0  0  0  0
  2  6  2  0  0  0  0
  3  8  2  0  0  0  0
  3 16  1  0  0  0  0
  4  9  1  0  0  0  0
  4 16  2  0  0  0  0
  5 18  1  0  0  0  0
  6 20  1  0  0  0  0
  7 10  2  0  0  0  0
  7 19  1  0  0  0  0
  8 22  1  0  0  0  0
  9 22  2  0  0  0  0
 10 23  1  0  0  0  0
 11 12  2  0  0  0  0
 11 24  1  0  0  0  0
 12 25  1  0  0  0  0
 13 21  1  0  0  0  0
 13 23  2  0  0  0  0
 14 25  2  0  0  0  0
 14 26  1  0  0  0  0
 15 28  2  0  0  0  0
 15 62  1  0  0  0  0
 16 27  1  0  0  0  0
 17 27  1  0  0  0  0
 17 29  2  0  0  0  0
 17 31  1  0  0  0  0
 18 20  2  0  0  0  0
 18 37  1  0  0  0  0
 19 21  2  0  0  0  0
 19 38  1  0  0  0  0
 20 46  1  0  0  0  0
 21 39  1  0  0  0  0
 22 80  1  0  0  0  0
 23 81  1  0  0  0  0
 24 26  2  0  0  0  0
 24 80  1  0  0  0  0
 25 82  1  0  0  0  0
 26 83  1  0  0  0  0
 27 63  2  0  0  0  0
 28 55  1  0  0  0  0
 28 84  1  0  0  0  0
 29 64  1  0  0  0  0
 29 67  1  0  0  0  0
 30 62  2  0  0  0  0
 30 69  1  0  0  0  0
 30 84  1  0  0  0  0
 31 68  1  0  0  0  0
 31 74  2  0  0  0  0
 32 47  1  0  0  0  0
 32 70  1  0  0  0  0
 32 75  2  0  0  0  0
 33 58  1  0  0  0  0
 33 65  1  0  0  0  0
 33 76  2  0  0  0  0
 34 59  1  0  0  0  0
 34 69  1  0  0  0  0
 34 77  2  0  0  0  0
 35 60  1  0  0  0  0
 35 71  1  0  0  0  0
 35 78  2  0  0  0  0
 36 66  1  0  0  0  0
 36 72  1  0  0  0  0
 36 79  2  0  0  0  0
 37 40  1  0  0  0  0
 38 47  1  0  0  0  0
 39 65  1  0  0  0  0
 40 42  1  0  0  0  0
 41 43  1  0  0  0  0
 41 44  1  0  0  0  0
 42 46  1  0  0  0  0
 43 48  1  0  0  0  0
 44 66  1  0  0  0  0
 45 48  1  0  0  0  0
 45 66  1  0  0  0  0
 46 70  1  0  0  0  0
 47 65  1  0  0  0  0
 48 64  1  0  0  0  0
 49 59  1  0  0  0  0
 50 60  1  0  0  0  0
 51 61  1  0  0  0  0
 52 61  1  0  0  0  0
 53 61  1  0  0  0  0
 54 73  1  0  0  0  0
 55 72  1  0  0  0  0
 56 57  1  0  0  0  0
 56 59  1  0  0  0  0
 57 81  1  0  0  0  0
 58 61  1  0  0  0  0
 58 71  1  0  0  0  0
 60 73  1  0  0  0  0
 63 64  1  0  0  0  0
M  CHG  1  73   1
M  ISO  4  36 100  57 101  72 100  81 101
M  END
> <Batch ID>
0190

> <Smiles>
CNC(C)C(=O)NC(C(=O)N1Cc2cc([101O:1][101CH2:1]CC(C)C(=O)Nc3ncc(C[100NH:0][100C:0](=O)N4CCCC(n5nc(-c6ccc(Oc7ccc(F)cc7F)cc6)c(C(N)=O)c5N)C4)s3)ccc2CC1C(=O)NC1CCCc2ccccc21)C(C)(C)C

> <Shape>
0.197

> <Color>
0.060

> <Negative vol penalty>
0.000

$$$$

  -OEChem-04052305213D

 82 90  0     1  0  0  0  0  0999 V2000
  -28.2712  -35.9236   18.8104 C   0  0  0  0  0  0  0  0  0  0  0  0
  -28.9368  -34.7162   18.6247 C   0  0  0  0  0  0  0  0  0  0  0  0
  -23.2611  -10.0790   19.8362 C   0  0  0  0  0  0  0  0  0  0  0  0
  -24.4739   -9.8724   21.9155 C   0  0  0  0  0  0  0  0  0  0  0  0
  -27.3266  -36.0482   19.8283 C   0  0  0  0  0  0  0  0  0  0  0  0
  -28.6590  -33.6329   19.4575 C   0  0  0  0  0  0  0  0  0  0  0  0
  -28.6251  -27.7089   17.9045 C   0  0  0  0  0  0  0  0  0  0  0  0
  -22.9059   -8.7321   19.9096 C   0  0  0  0  0  0  0  0  0  0  0  0
  -24.1187   -8.5255   21.9889 C   0  0  0  0  0  0  0  0  0  0  0  0
  -29.5708  -26.6952   18.0517 C   0  0  0  0  0  0  0  0  0  0  0  0
  -21.4081   -6.7107   22.8718 C   0  0  0  0  0  0  0  0  0  0  0  0
  -20.9590   -6.2265   24.1004 C   0  0  0  0  0  0  0  0  0  0  0  0
  -28.4813  -25.9819   20.0823 C   0  0  0  0  0  0  0  0  0  0  0  0
  -22.7795   -4.6387   24.1402 C   0  0  0  0  0  0  0  0  0  0  0  0
  -24.0452  -10.6491   20.8392 C   0  0  0  0  0  0  0  0  0  0  0  0
  -23.7024  -13.1370   21.2872 C   0  0  0  0  0  0  0  0  0  0  0  0
  -27.0300  -34.9629   20.6679 C   0  0  0  0  0  0  0  0  0  0  0  0
  -27.6050  -27.8738   18.8525 C   0  0  0  0  0  0  0  0  0  0  0  0
  -27.7105  -33.7434   20.4884 C   0  0  0  0  0  0  0  0  0  0  0  0
  -27.5223  -26.9968   19.9435 C   0  0  0  0  0  0  0  0  0  0  0  0
  -23.3347   -7.9554   20.9859 C   0  0  0  0  0  0  0  0  0  0  0  0
  -29.5008  -25.8333   19.1423 C   0  0  0  0  0  0  0  0  0  0  0  0
  -22.5429   -6.1588   22.2773 C   0  0  0  0  0  0  0  0  0  0  0  0
  -21.6447   -5.1905   24.7346 C   0  0  0  0  0  0  0  0  0  0  0  0
  -23.2286   -5.1229   22.9116 C   0  0  0  0  0  0  0  0  0  0  0  0
  -24.4129  -12.0402   20.7636 C   0  0  0  0  0  0  0  0  0  0  0  0
  -28.5287  -19.7198   21.6009 C   0  0  0  0  0  0  0  0  0  0  0  0
  -24.4635  -14.2303   20.9529 C   0  0  0  0  0  0  0  0  0  0  0  0
  -27.2226  -20.1124   21.8062 C   0  0  0  0  0  0  0  0  0  0  0  0
  -28.4963  -21.4651   20.2731 C   0  0  0  0  0  0  0  0  0  0  0  0
  -22.4652  -13.1649   22.0112 C   0  0  0  0  0  0  0  0  0  0  0  0
  -26.7567  -30.1925   20.8545 C   0  0  0  0  0  0  0  0  0  0  0  0
  -24.2215  -28.2481   21.4157 C   0  0  0  0  0  0  0  0  0  0  0  0
  -22.9256  -25.0913   21.3708 C   0  0  0  0  0  0  0  0  0  0  0  0
  -29.4164  -16.7674   20.5312 C   0  0  0  0  0  0  0  0  0  0  0  0
  -26.0355  -35.1596   21.7846 C   0  0  0  0  0  0  0  0  0  0  0  0
  -26.5768  -28.9555   18.6651 C   0  0  0  0  0  0  0  0  0  0  0  0
  -26.4348  -27.1188   20.9784 C   0  0  0  0  0  0  0  0  0  0  0  0
  -25.5274  -33.8514   22.3851 C   0  0  0  0  0  0  0  0  0  0  0  0
  -28.4288  -14.6544   17.8411 C   0  0  0  0  0  0  0  0  0  0  0  0
  -26.6896  -32.9010   22.6550 C   0  0  0  0  0  0  0  0  0  0  0  0
  -27.2420  -13.8725   18.4069 C   0  0  0  0  0  0  0  0  0  0  0  0
  -29.4984  -14.9028   18.9023 C   0  0  0  0  0  0  0  0  0  0  0  0
  -27.8218  -14.7613   20.7030 C   0  0  0  0  0  0  0  0  0  0  0  0
  -27.4186  -32.5380   21.3556 C   0  0  1  0  0  0  0  0  0  0  0  0
  -25.8840  -29.3530   19.9649 C   0  0  1  0  0  0  0  0  0  0  0  0
  -26.6917  -14.5349   19.6842 C   0  0  2  0  0  0  0  0  0  0  0  0
  -20.8398  -23.8101   21.9233 C   0  0  0  0  0  0  0  0  0  0  0  0
  -31.9050  -23.9685   17.6436 C   0  0  0  0  0  0  0  0  0  0  0  0
  -24.9008  -28.4274   24.3849 C   0  0  0  0  0  0  0  0  0  0  0  0
  -23.4348  -26.4347   24.7694 C   0  0  0  0  0  0  0  0  0  0  0  0
  -22.4574  -28.5440   23.8649 C   0  0  0  0  0  0  0  0  0  0  0  0
  -22.5845  -24.2108   18.5660 C   0  0  0  0  0  0  0  0  0  0  0  0
  -29.2030  -18.5642   22.2297 C   0  0  0  0  0  0  0  0  0  0  0  0
  -30.2418  -22.4840   18.8100 C   0  0  0  0  0  0  0  0  0  0  0  0
  -23.9295  -27.1234   22.3794 C   0  0  1  0  0  0  0  0  0  0  0  0
  -21.6102  -24.5499   20.8408 C   0  0  2  0  0  0  0  0  0  0  0  0
  -30.5094  -23.8763   18.2430 C   0  0  1  0  0  0  0  0  0  1  0  0
  -23.7024  -27.6310   23.8314 C   0  0  0  0  0  0  0  0  0  0  0  0
  -25.5387  -12.4037   20.1436 N   0  0  0  0  0  0  0  0  0  0  0  0
  -29.2605  -20.4941   20.7218 N   0  0  0  0  0  0  0  0  0  0  0  0
  -25.5414  -13.7411   20.2755 N   0  0  0  0  0  0  0  0  0  0  0  0
  -25.4568  -28.1962   20.7544 N   0  0  0  0  0  0  0  0  0  0  0  0
  -28.9116  -15.5342   20.0868 N   0  0  0  0  0  0  0  0  0  0  0  0
  -24.3091  -15.5529   21.1752 N   0  0  0  0  0  0  0  0  0  0  0  0
  -26.2938  -19.5391   22.6090 N   0  0  0  0  0  0  0  0  0  0  0  0
  -21.8145  -11.9507   22.2692 N   0  0  0  0  0  0  0  0  0  0  0  0
  -28.9106  -22.4299   19.3702 N   0  0  0  0  0  0  0  0  0  0  0  0
  -26.6659  -31.5500   20.6128 N   0  0  0  0  0  0  0  0  0  0  0  0
  -22.8001  -26.3891   21.8196 N   0  0  0  0  0  0  0  0  0  0  0  0
  -28.7994  -17.2994   21.6568 N   0  0  0  0  0  0  0  0  0  0  0  0
  -21.8549  -23.6087   19.7115 N   0  3  0  0  0  0  0  0  0  0  0  0
  -21.9435  -14.2363   22.4029 O   0  0  0  0  0  0  0  0  0  0  0  0
  -27.4592  -29.6489   21.6987 O   0  0  0  0  0  0  0  0  0  0  0  0
  -23.3815  -29.1362   21.2503 O   0  0  0  0  0  0  0  0  0  0  0  0
  -23.9602  -24.4280   21.3887 O   0  0  0  0  0  0  0  0  0  0  0  0
  -30.3444  -17.3535   19.9635 O   0  0  0  0  0  0  0  0  0  0  0  0
  -22.9880   -6.6412   21.0580 O   0  0  0  0  0  0  0  0  0  0  0  0
  -30.4230  -24.8434   19.2887 O   0  0  0  0  0  0  0  0  0  1  0  0
  -21.2142   -4.7267   25.9151 F   0  0  0  0  0  0  0  0  0  0  0  0
  -24.3202   -4.5895   22.3459 F   0  0  0  0  0  0  0  0  0  0  0  0
  -26.8868  -21.5076   20.8670 S   0  0  0  0  0  0  0  0  0  0  0  0
  1  2  1  0  0  0  0
  1  5  2  0  0  0  0
  2  6  2  0  0  0  0
  3  8  2  0  0  0  0
  3 15  1  0  0  0  0
  4  9  1  0  0  0  0
  4 15  2  0  0  0  0
  5 17  1  0  0  0  0
  6 19  1  0  0  0  0
  7 10  2  0  0  0  0
  7 18  1  0  0  0  0
  8 21  1  0  0  0  0
  9 21  2  0  0  0  0
 10 22  1  0  0  0  0
 11 12  2  0  0  0  0
 11 23  1  0  0  0  0
 12 24  1  0  0  0  0
 13 20  1  0  0  0  0
 13 22  2  0  0  0  0
 14 24  2  0  0  0  0
 14 25  1  0  0  0  0
 15 26  1  0  0  0  0
 16 26  1  0  0  0  0
 16 28  2  0  0  0  0
 16 31  1  0  0  0  0
 17 19  2  0  0  0  0
 17 36  1  0  0  0  0
 18 20  2  0  0  0  0
 18 37  1  0  0  0  0
 19 45  1  0  0  0  0
 20 38  1  0  0  0  0
 21 78  1  0  0  0  0
 22 79  1  0  0  0  0
 23 25  2  0  0  0  0
 23 78  1  0  0  0  0
 24 80  1  0  0  0  0
 25 81  1  0  0  0  0
 26 60  2  0  0  0  0
 27 29  2  0  0  0  0
 27 54  1  0  0  0  0
 27 61  1  0  0  0  0
 28 62  1  0  0  0  0
 28 65  1  0  0  0  0
 29 66  1  0  0  0  0
 29 82  1  0  0  0  0
 30 61  2  0  0  0  0
 30 68  1  0  0  0  0
 30 82  1  0  0  0  0
 31 67  1  0  0  0  0
 31 73  2  0  0  0  0
 32 46  1  0  0  0  0
 32 69  1  0  0  0  0
 32 74  2  0  0  0  0
 33 56  1  0  0  0  0
 33 63  1  0  0  0  0
 33 75  2  0  0  0  0
 34 57  1  0  0  0  0
 34 70  1  0  0  0  0
 34 76  2  0  0  0  0
 35 64  1  0  0  0  0
 35 71  1  0  0  0  0
 35 77  2  0  0  0  0
 36 39  1  0  0  0  0
 37 46  1  0  0  0  0
 38 63  1  0  0  0  0
 39 41  1  0  0  0  0
 40 42  1  0  0  0  0
 40 43  1  0  0  0  0
 41 45  1  0  0  0  0
 42 47  1  0  0  0  0
 43 64  1  0  0  0  0
 44 47  1  0  0  0  0
 44 64  1  0  0  0  0
 45 69  1  0  0  0  0
 46 63  1  0  0  0  0
 47 62  1  0  0  0  0
 48 57  1  0  0  0  0
 49 58  1  0  0  0  0
 50 59  1  0  0  0  0
 51 59  1  0  0  0  0
 52 59  1  0  0  0  0
 53 72  1  0  0  0  0
 54 71  1  0  0  0  0
 55 58  1  0  0  0  0
 55 68  1  0  0  0  0
 56 59  1  0  0  0  0
 56 70  1  0  0  0  0
 57 72  1  0  0  0  0
 58 79  1  0  0  0  0
 60 62  1  0  0  0  0
M  CHG  1  72   1
M  ISO  4  35 100  58 101  71 100  79 101
M  END
> <Batch ID>
0190

> <Smiles>
CNC(C)C(=O)NC(C(=O)N1Cc2cc([101O:1][101CH:1](C)CNc3nc(C[100NH:0][100C:0](=O)N4CCCC(n5nc(-c6ccc(Oc7ccc(F)cc7F)cc6)c(C(N)=O)c5N)C4)c(N)s3)ccc2CC1C(=O)NC1CCCc2ccccc21)C(C)(C)C

> <Shape>
0.288

> <Color>
0.117

> <Negative vol penalty>
0.000

$$$$

  -OEChem-04052305213D

 87 95  0     1  0  0  0  0  0999 V2000
  -32.1527  -30.0047   24.6491 C   0  0  0  0  0  0  0  0  0  0  0  0
  -31.7162  -29.0235   23.7647 C   0  0  0  0  0  0  0  0  0  0  0  0
  -24.5168   -9.5264   21.3049 C   0  0  0  0  0  0  0  0  0  0  0  0
  -24.9754  -10.5159   23.4607 C   0  0  0  0  0  0  0  0  0  0  0  0
  -31.2261  -30.7270   25.3998 C   0  0  0  0  0  0  0  0  0  0  0  0
  -30.3528  -28.7633   23.6313 C   0  0  0  0  0  0  0  0  0  0  0  0
  -28.9277  -28.2991   18.7941 C   0  0  0  0  0  0  0  0  0  0  0  0
  -24.2576   -8.3025   21.9217 C   0  0  0  0  0  0  0  0  0  0  0  0
  -24.7161   -9.2921   24.0776 C   0  0  0  0  0  0  0  0  0  0  0  0
  -29.2130  -27.0910   18.1594 C   0  0  0  0  0  0  0  0  0  0  0  0
  -23.1236   -5.0089   22.9617 C   0  0  0  0  0  0  0  0  0  0  0  0
  -21.9964   -4.2997   22.5472 C   0  0  0  0  0  0  0  0  0  0  0  0
  -26.9369  -26.3746   18.5130 C   0  0  0  0  0  0  0  0  0  0  0  0
  -20.5895   -6.1489   23.2092 C   0  0  0  0  0  0  0  0  0  0  0  0
  -24.8758  -10.6331   22.0743 C   0  0  0  0  0  0  0  0  0  0  0  0
  -24.2210  -12.9240   21.1630 C   0  0  0  0  0  0  0  0  0  0  0  0
  -29.8500  -30.4822   25.2685 C   0  0  0  0  0  0  0  0  0  0  0  0
  -27.6456  -28.5501   19.3035 C   0  0  0  0  0  0  0  0  0  0  0  0
  -29.4070  -29.4821   24.3820 C   0  0  0  0  0  0  0  0  0  0  0  0
  -26.6372  -27.5877   19.1515 C   0  0  0  0  0  0  0  0  0  0  0  0
  -24.3572   -8.1854   23.3081 C   0  0  0  0  0  0  0  0  0  0  0  0
  -28.2183  -26.1274   18.0214 C   0  0  0  0  0  0  0  0  0  0  0  0
  -22.9838   -6.2882   23.5001 C   0  0  0  0  0  0  0  0  0  0  0  0
  -20.7293   -4.8696   22.6709 C   0  0  0  0  0  0  0  0  0  0  0  0
  -21.7168   -6.8581   23.6238 C   0  0  0  0  0  0  0  0  0  0  0  0
  -25.1443  -11.8974   21.4376 C   0  0  0  0  0  0  0  0  0  0  0  0
  -28.8422  -21.3908   20.5048 C   0  0  0  0  0  0  0  0  0  0  0  0
  -24.9675  -13.9038   20.5554 C   0  0  0  0  0  0  0  0  0  0  0  0
  -27.6147  -21.4875   21.1260 C   0  0  0  0  0  0  0  0  0  0  0  0
  -28.4340  -19.2515   20.7631 C   0  0  0  0  0  0  0  0  0  0  0  0
  -22.8142  -12.9864   21.4331 C   0  0  0  0  0  0  0  0  0  0  0  0
  -26.4516  -29.1149   22.1948 C   0  0  0  0  0  0  0  0  0  0  0  0
  -23.7105  -29.6235   20.5365 C   0  0  0  0  0  0  0  0  0  0  0  0
  -21.8835  -29.0470   17.7122 C   0  0  0  0  0  0  0  0  0  0  0  0
  -29.5502  -17.0518   20.2517 C   0  0  0  0  0  0  0  0  0  0  0  0
  -28.8890  -31.2559   26.1359 C   0  0  0  0  0  0  0  0  0  0  0  0
  -27.3468  -29.8691   19.9618 C   0  0  0  0  0  0  0  0  0  0  0  0
  -25.2391  -27.8165   19.6629 C   0  0  0  0  0  0  0  0  0  0  0  0
  -27.4406  -31.1776   25.6601 C   0  0  0  0  0  0  0  0  0  0  0  0
  -29.7088  -13.8111   18.7853 C   0  0  0  0  0  0  0  0  0  0  0  0
  -27.0649  -29.7369   25.3283 C   0  0  0  0  0  0  0  0  0  0  0  0
  -28.4595  -13.1088   19.3220 C   0  0  0  0  0  0  0  0  0  0  0  0
  -30.3352  -14.7319   19.8311 C   0  0  0  0  0  0  0  0  0  0  0  0
  -28.1661  -15.0052   20.9667 C   0  0  0  0  0  0  0  0  0  0  0  0
  -27.9349  -29.1878   24.1911 C   0  0  1  0  0  0  0  0  0  0  0  0
  -26.1442  -29.8104   20.8988 C   0  0  1  0  0  0  0  0  0  0  0  0
  -27.4628  -14.1165   19.9277 C   0  0  2  0  0  0  0  0  0  0  0  0
  -19.6644  -29.5654   16.6616 C   0  0  0  0  0  0  0  0  0  0  0  0
  -32.7662  -23.3568   22.4254 C   0  0  0  0  0  0  0  0  0  0  0  0
  -30.7478  -24.7695   22.0188 C   0  0  0  0  0  0  0  0  0  0  0  0
  -30.5443  -22.5818   23.2257 C   0  0  0  0  0  0  0  0  0  0  0  0
  -22.3673  -27.5954   22.3785 C   0  0  0  0  0  0  0  0  0  0  0  0
  -20.4889  -27.4467   20.7301 C   0  0  0  0  0  0  0  0  0  0  0  0
  -20.9830  -29.6135   21.8630 C   0  0  0  0  0  0  0  0  0  0  0  0
  -23.1582  -30.4213   15.4219 C   0  0  0  0  0  0  0  0  0  0  0  0
  -29.8901  -22.5095   18.4979 C   0  0  0  0  0  0  0  0  0  0  0  0
  -31.1074  -22.5963   20.7123 C   0  0  0  0  0  0  0  0  0  0  0  0
  -27.7569  -23.8023   17.8281 C   0  0  0  0  0  0  0  0  0  1  0  0
  -29.7063  -22.5496   20.0388 C   0  0  2  0  0  0  0  0  0  0  0  0
  -22.5601  -28.7583   20.0815 C   0  0  1  0  0  0  0  0  0  0  0  0
  -21.1192  -29.9870   16.7976 C   0  0  2  0  0  0  0  0  0  0  0  0
  -28.5917  -22.5332   17.6723 C   0  0  1  0  0  0  0  0  0  0  0  0
  -31.2593  -23.3216   22.0841 C   0  0  0  0  0  0  0  0  0  0  0  0
  -21.6266  -28.3481   21.2552 C   0  0  0  0  0  0  0  0  0  0  0  0
  -26.3828  -12.1972   21.0372 N   0  0  0  0  0  0  0  0  0  0  0  0
  -29.3139  -20.1095   20.2962 N   0  0  0  0  0  0  0  0  0  0  0  0
  -26.2429  -13.4231   20.5047 N   0  0  0  0  0  0  0  0  0  0  0  0
  -24.9980  -29.1193   20.3047 N   0  0  0  0  0  0  0  0  0  0  0  0
  -29.3333  -15.6616   20.3572 N   0  0  0  0  0  0  0  0  0  0  0  0
  -24.6508  -15.1210   20.0649 N   0  0  0  0  0  0  0  0  0  0  0  0
  -26.9274  -22.6099   21.4491 N   0  0  0  0  0  0  0  0  0  0  0  0
  -22.2058  -11.8926   22.0638 N   0  0  0  0  0  0  0  0  0  0  0  0
  -28.5145  -17.8369   20.7572 N   0  0  0  0  0  0  0  0  0  0  0  0
  -27.4781  -29.6953   22.9151 N   0  0  0  0  0  0  0  0  0  0  0  0
  -21.8909  -29.4964   19.0157 N   0  0  0  0  0  0  0  0  0  0  0  0
  -21.7332  -30.0017   15.4398 N   0  3  0  0  0  0  0  0  0  0  0  0
  -22.1143  -13.9758   21.1095 O   0  0  0  0  0  0  0  0  0  0  0  0
  -25.8043  -28.1258   22.5180 O   0  0  0  0  0  0  0  0  0  0  0  0
  -23.4754  -30.7100   21.0713 O   0  0  0  0  0  0  0  0  0  0  0  0
  -22.4173  -28.0151   17.3111 O   0  0  0  0  0  0  0  0  0  0  0  0
  -30.5667  -17.5119   19.7254 O   0  0  0  0  0  0  0  0  0  0  0  0
  -28.9420  -22.4181   16.2894 O   0  0  0  0  0  0  0  0  0  0  0  0
  -24.1040   -6.9913   23.9104 O   0  0  0  0  0  0  0  0  0  0  0  0
  -28.4962  -24.9389   17.3986 O   0  0  0  0  0  0  0  0  0  1  0  0
  -19.6470   -4.1890   22.2714 F   0  0  0  0  0  0  0  0  0  0  0  0
  -21.5763   -8.0872   24.1391 F   0  0  0  0  0  0  0  0  0  0  0  0
  -27.0166  -19.9164   21.4657 S   0  0  0  0  0  0  0  0  0  0  0  0
  1  2  1  0  0  0  0
  1  5  2  0  0  0  0
  2  6  2  0  0  0  0
  3  8  2  0  0  0  0
  3 15  1  0  0  0  0
  4  9  1  0  0  0  0
  4 15  2  0  0  0  0
  5 17  1  0  0  0  0
  6 19  1  0  0  0  0
  7 10  2  0  0  0  0
  7 18  1  0  0  0  0
  8 21  1  0  0  0  0
  9 21  2  0  0  0  0
 10 22  1  0  0  0  0
 11 12  2  0  0  0  0
 11 23  1  0  0  0  0
 12 24  1  0  0  0  0
 13 20  1  0  0  0  0
 13 22  2  0  0  0  0
 14 24  2  0  0  0  0
 14 25  1  0  0  0  0
 15 26  1  0  0  0  0
 16 26  1  0  0  0  0
 16 28  2  0  0  0  0
 16 31  1  0  0  0  0
 17 19  2  0  0  0  0
 17 36  1  0  0  0  0
 18 20  2  0  0  0  0
 18 37  1  0  0  0  0
 19 45  1  0  0  0  0
 20 38  1  0  0  0  0
 21 83  1  0  0  0  0
 22 84  1  0  0  0  0
 23 25  2  0  0  0  0
 23 83  1  0  0  0  0
 24 85  1  0  0  0  0
 25 86  1  0  0  0  0
 26 65  2  0  0  0  0
 27 29  2  0  0  0  0
 27 59  1  0  0  0  0
 27 66  1  0  0  0  0
 28 67  1  0  0  0  0
 28 70  1  0  0  0  0
 29 71  1  0  0  0  0
 29 87  1  0  0  0  0
 30 66  2  0  0  0  0
 30 73  1  0  0  0  0
 30 87  1  0  0  0  0
 31 72  1  0  0  0  0
 31 77  2  0  0  0  0
 32 46  1  0  0  0  0
 32 74  1  0  0  0  0
 32 78  2  0  0  0  0
 33 60  1  0  0  0  0
 33 68  1  0  0  0  0
 33 79  2  0  0  0  0
 34 61  1  0  0  0  0
 34 75  1  0  0  0  0
 34 80  2  0  0  0  0
 35 69  1  0  0  0  0
 35 73  1  0  0  0  0
 35 81  2  0  0  0  0
 36 39  1  0  0  0  0
 37 46  1  0  0  0  0
 38 68  1  0  0  0  0
 39 41  1  0  0  0  0
 40 42  1  0  0  0  0
 40 43  1  0  0  0  0
 41 45  1  0  0  0  0
 42 47  1  0  0  0  0
 43 69  1  0  0  0  0
 44 47  1  0  0  0  0
 44 69  1  0  0  0  0
 45 74  1  0  0  0  0
 46 68  1  0  0  0  0
 47 67  1  0  0  0  0
 48 61  1  0  0  0  0
 49 63  1  0  0  0  0
 50 63  1  0  0  0  0
 51 63  1  0  0  0  0
 52 64  1  0  0  0  0
 53 64  1  0  0  0  0
 54 64  1  0  0  0  0
 55 76  1  0  0  0  0
 56 59  1  0  0  0  0
 56 62  1  0  0  0  0
 57 59  1  0  0  0  0
 57 63  1  0  0  0  0
 58 62  1  0  0  0  0
 58 84  1  0  0  0  0
 60 64  1  0  0  0  0
 60 75  1  0  0  0  0
 61 76  1  0  0  0  0
 62 82  1  0  0  0  0
 65 67  1  0  0  0  0
M  CHG  1  76   1
M  ISO  4  35 100  58 101  73 100  84 101
M  END
> <Batch ID>
0190

> <Smiles>
CNC(C)C(=O)NC(C(=O)N1Cc2cc([101O:1][101CH2:1]C(O)CC(CC(C)(C)C)c3nc([100NH:0][100C:0](=O)N4CCCC(n5nc(-c6ccc(Oc7ccc(F)cc7F)cc6)c(C(N)=O)c5N)C4)sc3N)ccc2CC1C(=O)NC1CCCc2ccccc21)C(C)(C)C

> <Shape>
0.309

> <Color>
0.116

> <Negative vol penalty>
0.000

$$$$

  -OEChem-04052305213D

 84 92  0     1  0  0  0  0  0999 V2000
  -16.7948  -29.0539   22.6792 C   0  0  0  0  0  0  0  0  0  0  0  0
  -17.8719  -28.7338   21.8590 C   0  0  0  0  0  0  0  0  0  0  0  0
  -25.7808  -13.9832   21.5737 C   0  0  0  0  0  0  0  0  0  0  0  0
  -25.0655  -14.8122   19.4201 C   0  0  0  0  0  0  0  0  0  0  0  0
  -17.0196  -29.6088   23.9383 C   0  0  0  0  0  0  0  0  0  0  0  0
  -19.1746  -28.9695   22.2971 C   0  0  0  0  0  0  0  0  0  0  0  0
  -24.1347  -25.5878   21.0859 C   0  0  0  0  0  0  0  0  0  0  0  0
  -24.8135  -12.9804   21.5090 C   0  0  0  0  0  0  0  0  0  0  0  0
  -24.0982  -13.8093   19.3553 C   0  0  0  0  0  0  0  0  0  0  0  0
  -25.1593  -25.7270   20.1508 C   0  0  0  0  0  0  0  0  0  0  0  0
  -24.4260   -9.9879   19.9832 C   0  0  0  0  0  0  0  0  0  0  0  0
  -24.8092   -8.6940   20.3358 C   0  0  0  0  0  0  0  0  0  0  0  0
  -26.5268  -26.8072   21.8189 C   0  0  0  0  0  0  0  0  0  0  0  0
  -23.1565   -8.6848   22.0981 C   0  0  0  0  0  0  0  0  0  0  0  0
  -30.9838  -22.6808   17.8153 C   0  0  0  0  0  0  0  0  0  0  0  0
  -25.9068  -14.8992   20.5293 C   0  0  0  0  0  0  0  0  0  0  0  0
  -28.2320  -15.8692   20.1294 C   0  0  0  0  0  0  0  0  0  0  0  0
  -18.3260  -29.8426   24.3959 C   0  0  0  0  0  0  0  0  0  0  0  0
  -24.2946  -26.0679   22.3938 C   0  0  0  0  0  0  0  0  0  0  0  0
  -19.4170  -29.5294   23.5630 C   0  0  0  0  0  0  0  0  0  0  0  0
  -25.5036  -26.6706   22.7694 C   0  0  0  0  0  0  0  0  0  0  0  0
  -23.9722  -12.8934   20.3998 C   0  0  0  0  0  0  0  0  0  0  0  0
  -26.3545  -26.3393   20.5164 C   0  0  0  0  0  0  0  0  0  0  0  0
  -23.4081  -10.6304   20.6880 C   0  0  0  0  0  0  0  0  0  0  0  0
  -24.1745   -8.0424   21.3932 C   0  0  0  0  0  0  0  0  0  0  0  0
  -22.7734   -9.9788   21.7455 C   0  0  0  0  0  0  0  0  0  0  0  0
  -26.9054  -15.9357   20.5958 C   0  0  0  0  0  0  0  0  0  0  0  0
  -30.1967  -23.1136   18.8619 C   0  0  0  0  0  0  0  0  0  0  0  0
  -28.7625  -17.1008   20.4263 C   0  0  0  0  0  0  0  0  0  0  0  0
  -31.3301  -24.9591   18.5165 C   0  0  0  0  0  0  0  0  0  0  0  0
  -28.9229  -14.7906   19.4852 C   0  0  0  0  0  0  0  0  0  0  0  0
  -22.8323  -28.2581   24.1737 C   0  0  0  0  0  0  0  0  0  0  0  0
  -24.7759  -27.1023   26.4994 C   0  0  0  0  0  0  0  0  0  0  0  0
  -30.1964  -27.6557   20.1284 C   0  0  0  0  0  0  0  0  0  0  0  0
  -27.6657  -25.4833   27.3206 C   0  0  0  0  0  0  0  0  0  0  0  0
  -28.3998  -22.6552   20.5669 C   0  0  0  0  0  0  0  0  0  0  0  0
  -18.5178  -30.4881   25.7455 C   0  0  0  0  0  0  0  0  0  0  0  0
  -23.1897  -25.8861   23.3981 C   0  0  0  0  0  0  0  0  0  0  0  0
  -25.7329  -27.1846   24.1664 C   0  0  0  0  0  0  0  0  0  0  0  0
  -19.9398  -30.3593   26.2856 C   0  0  0  0  0  0  0  0  0  0  0  0
  -26.9500  -20.8662   23.2826 C   0  0  0  0  0  0  0  0  0  0  0  0
  -20.9558  -30.7081   25.2027 C   0  0  0  0  0  0  0  0  0  0  0  0
  -26.9183  -19.4185   22.7873 C   0  0  0  0  0  0  0  0  0  0  0  0
  -26.6638  -21.8575   22.1560 C   0  0  0  0  0  0  0  0  0  0  0  0
  -27.4768  -20.2564   20.4693 C   0  0  0  0  0  0  0  0  0  0  0  0
  -20.8455  -29.7473   24.0126 C   0  0  1  0  0  0  0  0  0  0  0  0
  -23.2689  -26.8729   24.5588 C   0  0  1  0  0  0  0  0  0  0  0  0
  -27.8235  -19.2246   21.5550 C   0  0  2  0  0  0  0  0  0  0  0  0
  -29.0007  -24.7197   29.3036 C   0  0  0  0  0  0  0  0  0  0  0  0
  -26.9353  -28.3448   18.1655 C   0  0  0  0  0  0  0  0  0  0  0  0
  -25.7000  -29.9704   26.9787 C   0  0  0  0  0  0  0  0  0  0  0  0
  -27.6550  -29.0548   28.2466 C   0  0  0  0  0  0  0  0  0  0  0  0
  -25.3347  -28.6307   29.0586 C   0  0  0  0  0  0  0  0  0  0  0  0
  -32.3433  -26.8268   21.0207 C   0  0  0  0  0  0  0  0  0  0  0  0
  -27.4642  -22.6442   26.5094 C   0  0  0  0  0  0  0  0  0  0  0  0
  -31.8219  -26.3708   18.6564 C   0  0  0  0  0  0  0  0  0  0  0  0
  -29.2670  -27.7647   18.9225 C   0  0  0  0  0  0  0  0  0  0  0  0
  -26.1640  -27.4307   26.9936 C   0  0  1  0  0  0  0  0  0  0  0  0
  -27.9420  -24.3398   28.2801 C   0  0  2  0  0  0  0  0  0  0  0  0
  -27.7857  -27.8050   19.3083 C   0  0  2  0  0  0  0  0  0  1  0  0
  -26.2087  -28.7638   27.7924 C   0  0  0  0  0  0  0  0  0  0  0  0
  -26.6113  -17.1161   21.1473 N   0  0  0  0  0  0  0  0  0  0  0  0
  -30.3942  -24.4196   19.2656 N   0  0  0  0  0  0  0  0  0  0  0  0
  -27.7606  -17.8027   21.0294 N   0  0  0  0  0  0  0  0  0  0  0  0
  -24.6203  -26.9892   25.1105 N   0  0  0  0  0  0  0  0  0  0  0  0
  -27.5619  -21.6163   21.0245 N   0  0  0  0  0  0  0  0  0  0  0  0
  -29.9837  -17.6411   20.2279 N   0  0  0  0  0  0  0  0  0  0  0  0
  -28.2290  -13.5947   19.2561 N   0  0  0  0  0  0  0  0  0  0  0  0
  -29.2332  -22.2993   19.5071 N   0  0  0  0  0  0  0  0  0  0  0  0
  -21.4771  -28.4828   24.3237 N   0  0  0  0  0  0  0  0  0  0  0  0
  -26.6146  -26.2664   27.7485 N   0  0  0  0  0  0  0  0  0  0  0  0
  -31.4004  -26.9741   19.9187 N   0  0  0  0  0  0  0  0  0  0  0  0
  -28.4185  -23.1411   27.5338 N   0  3  0  0  0  0  0  0  0  0  0  0
  -30.1252  -14.8789   19.1381 O   0  0  0  0  0  0  0  0  0  0  0  0
  -23.6635  -29.0638   23.7718 O   0  0  0  0  0  0  0  0  0  0  0  0
  -23.8648  -26.9447   27.3159 O   0  0  0  0  0  0  0  0  0  0  0  0
  -29.8781  -28.1500   21.2131 O   0  0  0  0  0  0  0  0  0  0  0  0
  -28.3196  -25.6659   26.2961 O   0  0  0  0  0  0  0  0  0  0  0  0
  -28.3989  -23.7700   21.0954 O   0  0  0  0  0  0  0  0  0  0  0  0
  -23.0283  -11.9148   20.3362 O   0  0  0  0  0  0  0  0  0  0  0  0
  -27.3560  -26.4770   19.6054 O   0  0  0  0  0  0  0  0  0  1  0  0
  -24.5415   -6.7992   21.7307 F   0  0  0  0  0  0  0  0  0  0  0  0
  -21.7940  -10.5905   22.4256 F   0  0  0  0  0  0  0  0  0  0  0  0
  -32.0153  -23.9531   17.3069 S   0  0  0  0  0  0  0  0  0  0  0  0
  1  2  1  0  0  0  0
  1  5  2  0  0  0  0
  2  6  2  0  0  0  0
  3  8  2  0  0  0  0
  3 16  1  0  0  0  0
  4  9  1  0  0  0  0
  4 16  2  0  0  0  0
  5 18  1  0  0  0  0
  6 20  1  0  0  0  0
  7 10  2  0  0  0  0
  7 19  1  0  0  0  0
  8 22  1  0  0  0  0
  9 22  2  0  0  0  0
 10 23  1  0  0  0  0
 11 12  2  0  0  0  0
 11 24  1  0  0  0  0
 12 25  1  0  0  0  0
 13 21  1  0  0  0  0
 13 23  2  0  0  0  0
 14 25  2  0  0  0  0
 14 26  1  0  0  0  0
 15 28  2  0  0  0  0
 15 84  1  0  0  0  0
 16 27  1  0  0  0  0
 17 27  1  0  0  0  0
 17 29  2  0  0  0  0
 17 31  1  0  0  0  0
 18 20  2  0  0  0  0
 18 37  1  0  0  0  0
 19 21  2  0  0  0  0
 19 38  1  0  0  0  0
 20 46  1  0  0  0  0
 21 39  1  0  0  0  0
 22 80  1  0  0  0  0
 23 81  1  0  0  0  0
 24 26  2  0  0  0  0
 24 80  1  0  0  0  0
 25 82  1  0  0  0  0
 26 83  1  0  0  0  0
 27 62  2  0  0  0  0
 28 63  1  0  0  0  0
 28 69  1  0  0  0  0
 29 64  1  0  0  0  0
 29 67  1  0  0  0  0
 30 56  1  0  0  0  0
 30 63  2  0  0  0  0
 30 84  1  0  0  0  0
 31 68  1  0  0  0  0
 31 74  2  0  0  0  0
 32 47  1  0  0  0  0
 32 70  1  0  0  0  0
 32 75  2  0  0  0  0
 33 58  1  0  0  0  0
 33 65  1  0  0  0  0
 33 76  2  0  0  0  0
 34 57  1  0  0  0  0
 34 72  1  0  0  0  0
 34 77  2  0  0  0  0
 35 59  1  0  0  0  0
 35 71  1  0  0  0  0
 35 78  2  0  0  0  0
 36 66  1  0  0  0  0
 36 69  1  0  0  0  0
 36 79  2  0  0  0  0
 37 40  1  0  0  0  0
 38 47  1  0  0  0  0
 39 65  1  0  0  0  0
 40 42  1  0  0  0  0
 41 43  1  0  0  0  0
 41 44  1  0  0  0  0
 42 46  1  0  0  0  0
 43 48  1  0  0  0  0
 44 66  1  0  0  0  0
 45 48  1  0  0  0  0
 45 66  1  0  0  0  0
 46 70  1  0  0  0  0
 47 65  1  0  0  0  0
 48 64  1  0  0  0  0
 49 59  1  0  0  0  0
 50 60  1  0  0  0  0
 51 61  1  0  0  0  0
 52 61  1  0  0  0  0
 53 61  1  0  0  0  0
 54 72  1  0  0  0  0
 55 73  1  0  0  0  0
 56 72  1  0  0  0  0
 57 60  1  0  0  0  0
 58 61  1  0  0  0  0
 58 71  1  0  0  0  0
 59 73  1  0  0  0  0
 60 81  1  0  0  0  0
 62 64  1  0  0  0  0
M  CHG  1  73   1
M  ISO  4  36 100  60 101  69 100  81 101
M  END
> <Batch ID>
0190

> <Smiles>
CNC(C)C(=O)NC(C(=O)N1Cc2cc([101O:1][101CH:1](C)CC(=O)N(C)Cc3nc([100NH:0][100C:0](=O)N4CCCC(n5nc(-c6ccc(Oc7ccc(F)cc7F)cc6)c(C(N)=O)c5N)C4)cs3)ccc2CC1C(=O)NC1CCCc2ccccc21)C(C)(C)C

> <Shape>
0.235

> <Color>
0.075

> <Negative vol penalty>
0.000

$$$$

  -OEChem-04052305213D

 87 95  0     1  0  0  0  0  0999 V2000
  -24.3111   -8.5468   21.3570 C   0  0  0  0  0  0  0  0  0  0  0  0
  -25.4579   -9.2710   21.0473 C   0  0  0  0  0  0  0  0  0  0  0  0
  -20.3501  -27.0776   23.1698 C   0  0  0  0  0  0  0  0  0  0  0  0
  -19.1380  -28.1203   21.3585 C   0  0  0  0  0  0  0  0  0  0  0  0
  -23.0732   -9.1872   21.3970 C   0  0  0  0  0  0  0  0  0  0  0  0
  -25.3672  -10.6359   20.7764 C   0  0  0  0  0  0  0  0  0  0  0  0
  -29.0568  -16.7315   21.5160 C   0  0  0  0  0  0  0  0  0  0  0  0
  -19.1584  -26.9224   23.8779 C   0  0  0  0  0  0  0  0  0  0  0  0
  -17.9463  -27.9650   22.0666 C   0  0  0  0  0  0  0  0  0  0  0  0
  -29.5057  -17.8167   20.7646 C   0  0  0  0  0  0  0  0  0  0  0  0
  -16.5014  -24.8314   23.8548 C   0  0  0  0  0  0  0  0  0  0  0  0
  -16.2663  -23.5999   24.4661 C   0  0  0  0  0  0  0  0  0  0  0  0
  -27.3250  -18.8330   20.9409 C   0  0  0  0  0  0  0  0  0  0  0  0
  -16.1498  -24.6906   26.6187 C   0  0  0  0  0  0  0  0  0  0  0  0
  -20.3399  -27.6766   21.9101 C   0  0  0  0  0  0  0  0  0  0  0  0
  -22.1450  -26.9283   20.2702 C   0  0  0  0  0  0  0  0  0  0  0  0
  -22.9687  -10.5625   21.1359 C   0  0  0  0  0  0  0  0  0  0  0  0
  -27.7333  -16.6836   21.9770 C   0  0  0  0  0  0  0  0  0  0  0  0
  -24.1266  -11.2950   20.8116 C   0  0  0  0  0  0  0  0  0  0  0  0
  -26.8626  -17.7472   21.7001 C   0  0  0  0  0  0  0  0  0  0  0  0
  -17.9565  -27.3661   23.3264 C   0  0  0  0  0  0  0  0  0  0  0  0
  -28.6390  -18.8663   20.4745 C   0  0  0  0  0  0  0  0  0  0  0  0
  -16.5608  -25.9926   24.6254 C   0  0  0  0  0  0  0  0  0  0  0  0
  -16.0905  -23.5295   25.8480 C   0  0  0  0  0  0  0  0  0  0  0  0
  -16.3850  -25.9222   26.0074 C   0  0  0  0  0  0  0  0  0  0  0  0
  -21.5706  -27.8378   21.1784 C   0  0  0  0  0  0  0  0  0  0  0  0
  -29.7366  -27.2237   20.0054 C   0  0  0  0  0  0  0  0  0  0  0  0
  -30.8377  -26.4969   19.6036 C   0  0  0  0  0  0  0  0  0  0  0  0
  -23.2990  -27.5440   19.8513 C   0  0  0  0  0  0  0  0  0  0  0  0
  -29.4482  -24.8332   19.9372 C   0  0  0  0  0  0  0  0  0  0  0  0
  -21.6771  -25.6419   19.8435 C   0  0  0  0  0  0  0  0  0  0  0  0
  -29.5541  -28.6895   20.1635 C   0  0  0  0  0  0  0  0  0  0  0  0
  -25.2611  -14.7432   21.5012 C   0  0  0  0  0  0  0  0  0  0  0  0
  -23.8774  -16.5815   23.7877 C   0  0  0  0  0  0  0  0  0  0  0  0
  -29.4488  -22.3223   19.7649 C   0  0  0  0  0  0  0  0  0  0  0  0
  -23.7659  -19.5741   25.4245 C   0  0  0  0  0  0  0  0  0  0  0  0
  -27.9266  -30.4228   20.8494 C   0  0  0  0  0  0  0  0  0  0  0  0
  -21.6025  -11.2013   21.1447 C   0  0  0  0  0  0  0  0  0  0  0  0
  -27.2722  -15.5185   22.8089 C   0  0  0  0  0  0  0  0  0  0  0  0
  -25.4380  -17.7535   22.1889 C   0  0  0  0  0  0  0  0  0  0  0  0
  -21.6433  -12.7257   21.2126 C   0  0  0  0  0  0  0  0  0  0  0  0
  -24.9398  -32.2872   20.5325 C   0  0  0  0  0  0  0  0  0  0  0  0
  -22.6571  -13.2776   20.2153 C   0  0  0  0  0  0  0  0  0  0  0  0
  -23.8415  -31.2219   20.5893 C   0  0  0  0  0  0  0  0  0  0  0  0
  -26.0921  -31.9653   21.4830 C   0  0  0  0  0  0  0  0  0  0  0  0
  -25.5685  -29.5620   21.3932 C   0  0  0  0  0  0  0  0  0  0  0  0
  -24.0724  -12.7820   20.5361 C   0  0  1  0  0  0  0  0  0  0  0  0
  -25.7581  -15.3332   22.7906 C   0  0  1  0  0  0  0  0  0  0  0  0
  -24.4183  -29.8042   20.4024 C   0  0  1  0  0  0  0  0  0  0  0  0
  -22.5029  -20.7923   27.2184 C   0  0  0  0  0  0  0  0  0  0  0  0
  -32.5230  -25.7075   17.1035 C   0  0  0  0  0  0  0  0  0  0  0  0
  -31.3680  -27.9119   16.9320 C   0  0  0  0  0  0  0  0  0  0  0  0
  -33.8240  -27.8115   17.4262 C   0  0  0  0  0  0  0  0  0  0  0  0
  -21.5614  -17.0263   21.8517 C   0  0  0  0  0  0  0  0  0  0  0  0
  -20.8311  -18.9509   23.2768 C   0  0  0  0  0  0  0  0  0  0  0  0
  -20.8771  -16.6448   24.2267 C   0  0  0  0  0  0  0  0  0  0  0  0
  -26.1922  -19.8705   27.0931 C   0  0  0  0  0  0  0  0  0  0  0  0
  -32.1523  -27.0503   19.2186 C   0  0  0  0  0  0  0  0  0  0  0  0
  -28.4661  -21.1907   20.0019 C   0  0  0  0  0  0  0  0  0  1  0  0
  -23.0568  -17.8487   23.7891 C   0  0  1  0  0  0  0  0  0  0  0  0
  -23.7020  -19.9117   26.9031 C   0  0  2  0  0  0  0  0  0  0  0  0
  -32.4651  -27.1371   17.6823 C   0  0  0  0  0  0  0  0  0  0  0  0
  -21.6078  -17.6169   23.2751 C   0  0  0  0  0  0  0  0  0  0  0  0
  -22.2997  -28.9468   21.3282 N   0  0  0  0  0  0  0  0  0  0  0  0
  -30.6744  -25.1259   19.5643 N   0  0  0  0  0  0  0  0  0  0  0  0
  -23.3442  -28.7382   20.5086 N   0  0  0  0  0  0  0  0  0  0  0  0
  -25.0326  -16.5889   22.9932 N   0  0  0  0  0  0  0  0  0  0  0  0
  -26.5879  -30.6102   21.2355 N   0  0  0  0  0  0  0  0  0  0  0  0
  -24.2695  -27.1750   18.9885 N   0  0  0  0  0  0  0  0  0  0  0  0
  -20.4724  -25.1597   20.3730 N   0  0  0  0  0  0  0  0  0  0  0  0
  -28.8578  -23.5511   20.0386 N   0  0  0  0  0  0  0  0  0  0  0  0
  -28.2912  -29.0960   20.5952 N   0  0  0  0  0  0  0  0  0  0  0  0
  -24.6279  -13.5238   21.6477 N   0  0  0  0  0  0  0  0  0  0  0  0
  -23.1317  -18.3820   25.1449 N   0  0  0  0  0  0  0  0  0  0  0  0
  -24.9373  -20.6313   27.3240 N   0  3  0  0  0  0  0  0  0  0  0  0
  -22.3170  -24.9338   19.0294 O   0  0  0  0  0  0  0  0  0  0  0  0
  -30.5050  -29.4369   19.9513 O   0  0  0  0  0  0  0  0  0  0  0  0
  -25.4377  -15.3501   20.4513 O   0  0  0  0  0  0  0  0  0  0  0  0
  -23.5108  -15.6230   24.4722 O   0  0  0  0  0  0  0  0  0  0  0  0
  -30.5947  -22.1087   19.3830 O   0  0  0  0  0  0  0  0  0  0  0  0
  -24.3195  -20.2974   24.5994 O   0  0  0  0  0  0  0  0  0  0  0  0
  -28.7189  -31.3594   20.7062 O   0  0  0  0  0  0  0  0  0  0  0  0
  -16.7935  -27.2145   24.0170 O   0  0  0  0  0  0  0  0  0  0  0  0
  -29.0743  -19.9265   19.7408 O   0  0  0  0  0  0  0  0  0  1  0  0
  -15.8632  -22.3470   26.4347 F   0  0  0  0  0  0  0  0  0  0  0  0
  -16.4397  -27.0344   26.7528 F   0  0  0  0  0  0  0  0  0  0  0  0
  -28.4377  -26.1577   20.3486 S   0  0  0  0  0  0  0  0  0  0  0  0
  1  2  1  0  0  0  0
  1  5  2  0  0  0  0
  2  6  2  0  0  0  0
  3  8  2  0  0  0  0
  3 15  1  0  0  0  0
  4  9  1  0  0  0  0
  4 15  2  0  0  0  0
  5 17  1  0  0  0  0
  6 19  1  0  0  0  0
  7 10  2  0  0  0  0
  7 18  1  0  0  0  0
  8 21  1  0  0  0  0
  9 21  2  0  0  0  0
 10 22  1  0  0  0  0
 11 12  2  0  0  0  0
 11 23  1  0  0  0  0
 12 24  1  0  0  0  0
 13 20  1  0  0  0  0
 13 22  2  0  0  0  0
 14 24  2  0  0  0  0
 14 25  1  0  0  0  0
 15 26  1  0  0  0  0
 16 26  1  0  0  0  0
 16 29  2  0  0  0  0
 16 31  1  0  0  0  0
 17 19  2  0  0  0  0
 17 38  1  0  0  0  0
 18 20  2  0  0  0  0
 18 39  1  0  0  0  0
 19 47  1  0  0  0  0
 20 40  1  0  0  0  0
 21 83  1  0  0  0  0
 22 84  1  0  0  0  0
 23 25  2  0  0  0  0
 23 83  1  0  0  0  0
 24 85  1  0  0  0  0
 25 86  1  0  0  0  0
 26 64  2  0  0  0  0
 27 28  2  0  0  0  0
 27 32  1  0  0  0  0
 27 87  1  0  0  0  0
 28 58  1  0  0  0  0
 28 65  1  0  0  0  0
 29 66  1  0  0  0  0
 29 69  1  0  0  0  0
 30 65  2  0  0  0  0
 30 71  1  0  0  0  0
 30 87  1  0  0  0  0
 31 70  1  0  0  0  0
 31 76  2  0  0  0  0
 32 72  1  0  0  0  0
 32 77  2  0  0  0  0
 33 48  1  0  0  0  0
 33 73  1  0  0  0  0
 33 78  2  0  0  0  0
 34 60  1  0  0  0  0
 34 67  1  0  0  0  0
 34 79  2  0  0  0  0
 35 59  1  0  0  0  0
 35 71  1  0  0  0  0
 35 80  2  0  0  0  0
 36 61  1  0  0  0  0
 36 74  1  0  0  0  0
 36 81  2  0  0  0  0
 37 68  1  0  0  0  0
 37 72  1  0  0  0  0
 37 82  2  0  0  0  0
 38 41  1  0  0  0  0
 39 48  1  0  0  0  0
 40 67  1  0  0  0  0
 41 43  1  0  0  0  0
 42 44  1  0  0  0  0
 42 45  1  0  0  0  0
 43 47  1  0  0  0  0
 44 49  1  0  0  0  0
 45 68  1  0  0  0  0
 46 49  1  0  0  0  0
 46 68  1  0  0  0  0
 47 73  1  0  0  0  0
 48 67  1  0  0  0  0
 49 66  1  0  0  0  0
 50 61  1  0  0  0  0
 51 62  1  0  0  0  0
 52 62  1  0  0  0  0
 53 62  1  0  0  0  0
 54 63  1  0  0  0  0
 55 63  1  0  0  0  0
 56 63  1  0  0  0  0
 57 75  1  0  0  0  0
 58 62  1  0  0  0  0
 59 84  1  0  0  0  0
 60 63  1  0  0  0  0
 60 74  1  0  0  0  0
 61 75  1  0  0  0  0
 64 66  1  0  0  0  0
M  CHG  1  75   1
M  ISO  4  37 100  59 101  72 100  84 101
M  END
> <Batch ID>
0190

> <Smiles>
CNC(C)C(=O)NC(C(=O)N1Cc2cc([101O:1][101CH2:1]C(=O)Nc3nc(CC(C)(C)C)c(C(=O)[100NH:0][100C:0](=O)N4CCCC(n5nc(-c6ccc(Oc7ccc(F)cc7F)cc6)c(C(N)=O)c5N)C4)s3)ccc2CC1C(=O)NC1CCCc2ccccc21)C(C)(C)C

> <Shape>
0.247

> <Color>
0.077

> <Negative vol penalty>
0.000

$$$$

  -OEChem-04052305213D

 84 92  0     1  0  0  0  0  0999 V2000
  -23.3656   -6.0719   23.2528 C   0  0  0  0  0  0  0  0  0  0  0  0
  -24.6880   -6.5035   23.2327 C   0  0  0  0  0  0  0  0  0  0  0  0
  -24.4931  -30.5464   21.1003 C   0  0  0  0  0  0  0  0  0  0  0  0
  -25.4081  -29.7761   23.1994 C   0  0  0  0  0  0  0  0  0  0  0  0
  -22.3932   -6.7750   22.5429 C   0  0  0  0  0  0  0  0  0  0  0  0
  -25.0390   -7.6379   22.5016 C   0  0  0  0  0  0  0  0  0  0  0  0
  -29.6037  -13.1576   22.6092 C   0  0  0  0  0  0  0  0  0  0  0  0
  -23.8592  -31.5978   21.7624 C   0  0  0  0  0  0  0  0  0  0  0  0
  -24.7743  -30.8276   23.8615 C   0  0  0  0  0  0  0  0  0  0  0  0
  -30.5431  -13.7944   21.7993 C   0  0  0  0  0  0  0  0  0  0  0  0
  -22.2943  -34.6940   22.8484 C   0  0  0  0  0  0  0  0  0  0  0  0
  -22.3717  -35.9627   22.2740 C   0  0  0  0  0  0  0  0  0  0  0  0
  -28.7649  -14.9751   20.6755 C   0  0  0  0  0  0  0  0  0  0  0  0
  -24.7808  -35.8919   22.4421 C   0  0  0  0  0  0  0  0  0  0  0  0
  -25.2674  -29.6355   21.8188 C   0  0  0  0  0  0  0  0  0  0  0  0
  -27.2130  -28.5522   20.5742 C   0  0  0  0  0  0  0  0  0  0  0  0
  -22.7307   -7.9241   21.8106 C   0  0  0  0  0  0  0  0  0  0  0  0
  -28.2348  -13.4171   22.4507 C   0  0  0  0  0  0  0  0  0  0  0  0
  -24.0704   -8.3562   21.7801 C   0  0  0  0  0  0  0  0  0  0  0  0
  -27.8103  -14.3422   21.4863 C   0  0  0  0  0  0  0  0  0  0  0  0
  -23.9999  -31.7384   23.1430 C   0  0  0  0  0  0  0  0  0  0  0  0
  -30.1235  -14.7011   20.8303 C   0  0  0  0  0  0  0  0  0  0  0  0
  -23.4602  -34.0243   23.2198 C   0  0  0  0  0  0  0  0  0  0  0  0
  -23.6149  -36.5617   22.0708 C   0  0  0  0  0  0  0  0  0  0  0  0
  -24.7034  -34.6232   23.0166 C   0  0  0  0  0  0  0  0  0  0  0  0
  -25.9219  -28.5488   21.1355 C   0  0  0  0  0  0  0  0  0  0  0  0
  -30.5994  -19.5085   20.1043 C   0  0  0  0  0  0  0  0  0  0  0  0
  -27.3618  -27.2923   20.0480 C   0  0  0  0  0  0  0  0  0  0  0  0
  -31.5650  -20.4347   20.4387 C   0  0  0  0  0  0  0  0  0  0  0  0
  -29.2914  -21.2298   20.4737 C   0  0  0  0  0  0  0  0  0  0  0  0
  -28.1903  -29.6004   20.5324 C   0  0  0  0  0  0  0  0  0  0  0  0
  -25.6973  -11.6717   21.6642 C   0  0  0  0  0  0  0  0  0  0  0  0
  -24.0892  -14.3994   22.3685 C   0  0  0  0  0  0  0  0  0  0  0  0
  -24.1436  -17.7980   22.6740 C   0  0  0  0  0  0  0  0  0  0  0  0
  -26.8297  -21.7624   20.4238 C   0  0  0  0  0  0  0  0  0  0  0  0
  -21.6533   -8.6239   21.0205 C   0  0  0  0  0  0  0  0  0  0  0  0
  -27.2360  -12.7420   23.3502 C   0  0  0  0  0  0  0  0  0  0  0  0
  -26.3537  -14.6710   21.2898 C   0  0  0  0  0  0  0  0  0  0  0  0
  -22.0415  -10.0314   20.5750 C   0  0  0  0  0  0  0  0  0  0  0  0
  -23.9761  -23.5963   19.3417 C   0  0  0  0  0  0  0  0  0  0  0  0
  -23.4462  -10.0347   19.9804 C   0  0  0  0  0  0  0  0  0  0  0  0
  -24.3342  -25.0485   19.6657 C   0  0  0  0  0  0  0  0  0  0  0  0
  -24.5020  -22.6321   20.4035 C   0  0  0  0  0  0  0  0  0  0  0  0
  -26.2936  -24.2060   21.0213 C   0  0  0  0  0  0  0  0  0  0  0  0
  -24.4859   -9.5964   21.0189 C   0  0  1  0  0  0  0  0  0  0  0  0
  -25.8319  -12.6957   22.7556 C   0  0  1  0  0  0  0  0  0  0  0  0
  -25.8412  -25.2082   19.9467 C   0  0  2  0  0  0  0  0  0  0  0  0
  -22.6669  -19.7500   23.2276 C   0  0  0  0  0  0  0  0  0  0  0  0
  -31.7250  -13.8599   18.2796 C   0  0  0  0  0  0  0  0  0  0  0  0
  -22.7998  -14.2032   19.6101 C   0  0  0  0  0  0  0  0  0  0  0  0
  -22.1085  -16.5986   19.8396 C   0  0  0  0  0  0  0  0  0  0  0  0
  -21.2439  -14.8937   21.4422 C   0  0  0  0  0  0  0  0  0  0  0  0
  -31.5401  -18.8580   17.4565 C   0  0  0  0  0  0  0  0  0  0  0  0
  -29.3701  -17.6708   17.6769 C   0  0  0  0  0  0  0  0  0  0  0  0
  -25.8102  -18.5471   25.0021 C   0  0  0  0  0  0  0  0  0  0  0  0
  -30.8391  -18.0647   19.7252 C   0  0  0  0  0  0  0  0  0  0  0  0
  -31.4821  -16.3375   17.8848 C   0  0  0  0  0  0  0  0  0  0  0  0
  -23.6612  -15.6196   21.5894 C   0  0  1  0  0  0  0  0  0  0  0  0
  -23.6431  -18.7188   23.7722 C   0  0  2  0  0  0  0  0  0  0  0  0
  -30.9293  -15.1126   18.6309 C   0  0  2  0  0  0  0  0  0  1  0  0
  -22.4807  -15.3214   20.6225 C   0  0  0  0  0  0  0  0  0  0  0  0
  -30.8222  -17.7145   18.2049 C   0  0  0  0  0  0  0  0  0  0  0  0
  -25.2952  -27.3796   20.9802 N   0  0  0  0  0  0  0  0  0  0  0  0
  -29.2950  -19.9625   20.1242 N   0  0  0  0  0  0  0  0  0  0  0  0
  -26.1962  -26.6365   20.3153 N   0  0  0  0  0  0  0  0  0  0  0  0
  -25.4151  -13.9803   22.1895 N   0  0  0  0  0  0  0  0  0  0  0  0
  -25.9366  -22.8382   20.6135 N   0  0  0  0  0  0  0  0  0  0  0  0
  -28.3747  -26.6925   19.3872 N   0  0  0  0  0  0  0  0  0  0  0  0
  -32.9073  -20.2581   20.4995 N   0  0  0  0  0  0  0  0  0  0  0  0
  -27.8744  -30.8323   21.1213 N   0  0  0  0  0  0  0  0  0  0  0  0
  -28.1719  -22.0858   20.6204 N   0  0  0  0  0  0  0  0  0  0  0  0
  -24.7739  -10.6798   21.9342 N   0  0  0  0  0  0  0  0  0  0  0  0
  -23.3777  -16.6556   22.5768 N   0  0  0  0  0  0  0  0  0  0  0  0
  -24.7842  -19.4396   24.4039 N   0  3  0  0  0  0  0  0  0  0  0  0
  -29.3042  -29.4543   19.9744 O   0  0  0  0  0  0  0  0  0  0  0  0
  -26.3796  -11.7748   20.6515 O   0  0  0  0  0  0  0  0  0  0  0  0
  -23.2791  -13.8431   23.1140 O   0  0  0  0  0  0  0  0  0  0  0  0
  -25.1145  -18.0672   21.9701 O   0  0  0  0  0  0  0  0  0  0  0  0
  -26.4355  -20.6440   20.0836 O   0  0  0  0  0  0  0  0  0  0  0  0
  -23.3817  -32.7645   23.7893 O   0  0  0  0  0  0  0  0  0  0  0  0
  -31.0383  -15.3235   20.0380 O   0  0  0  0  0  0  0  0  0  1  0  0
  -23.6891  -37.7794   21.5177 F   0  0  0  0  0  0  0  0  0  0  0  0
  -25.8270  -33.9842   23.3703 F   0  0  0  0  0  0  0  0  0  0  0  0
  -30.8212  -21.9390   20.7924 S   0  0  0  0  0  0  0  0  0  0  0  0
  1  2  1  0  0  0  0
  1  5  2  0  0  0  0
  2  6  2  0  0  0  0
  3  8  2  0  0  0  0
  3 15  1  0  0  0  0
  4  9  1  0  0  0  0
  4 15  2  0  0  0  0
  5 17  1  0  0  0  0
  6 19  1  0  0  0  0
  7 10  2  0  0  0  0
  7 18  1  0  0  0  0
  8 21  1  0  0  0  0
  9 21  2  0  0  0  0
 10 22  1  0  0  0  0
 11 12  2  0  0  0  0
 11 23  1  0  0  0  0
 12 24  1  0  0  0  0
 13 20  1  0  0  0  0
 13 22  2  0  0  0  0
 14 24  2  0  0  0  0
 14 25  1  0  0  0  0
 15 26  1  0  0  0  0
 16 26  1  0  0  0  0
 16 28  2  0  0  0  0
 16 31  1  0  0  0  0
 17 19  2  0  0  0  0
 17 36  1  0  0  0  0
 18 20  2  0  0  0  0
 18 37  1  0  0  0  0
 19 45  1  0  0  0  0
 20 38  1  0  0  0  0
 21 80  1  0  0  0  0
 22 81  1  0  0  0  0
 23 25  2  0  0  0  0
 23 80  1  0  0  0  0
 24 82  1  0  0  0  0
 25 83  1  0  0  0  0
 26 63  2  0  0  0  0
 27 29  2  0  0  0  0
 27 56  1  0  0  0  0
 27 64  1  0  0  0  0
 28 65  1  0  0  0  0
 28 68  1  0  0  0  0
 29 69  1  0  0  0  0
 29 84  1  0  0  0  0
 30 64  2  0  0  0  0
 30 71  1  0  0  0  0
 30 84  1  0  0  0  0
 31 70  1  0  0  0  0
 31 75  2  0  0  0  0
 32 46  1  0  0  0  0
 32 72  1  0  0  0  0
 32 76  2  0  0  0  0
 33 58  1  0  0  0  0
 33 66  1  0  0  0  0
 33 77  2  0  0  0  0
 34 59  1  0  0  0  0
 34 73  1  0  0  0  0
 34 78  2  0  0  0  0
 35 67  1  0  0  0  0
 35 71  1  0  0  0  0
 35 79  2  0  0  0  0
 36 39  1  0  0  0  0
 37 46  1  0  0  0  0
 38 66  1  0  0  0  0
 39 41  1  0  0  0  0
 40 42  1  0  0  0  0
 40 43  1  0  0  0  0
 41 45  1  0  0  0  0
 42 47  1  0  0  0  0
 43 67  1  0  0  0  0
 44 47  1  0  0  0  0
 44 67  1  0  0  0  0
 45 72  1  0  0  0  0
 46 66  1  0  0  0  0
 47 65  1  0  0  0  0
 48 59  1  0  0  0  0
 49 60  1  0  0  0  0
 50 61  1  0  0  0  0
 51 61  1  0  0  0  0
 52 61  1  0  0  0  0
 53 62  1  0  0  0  0
 54 62  1  0  0  0  0
 55 74  1  0  0  0  0
 56 62  1  0  0  0  0
 57 60  1  0  0  0  0
 57 62  1  0  0  0  0
 58 61  1  0  0  0  0
 58 73  1  0  0  0  0
 59 74  1  0  0  0  0
 60 81  1  0  0  0  0
 63 65  1  0  0  0  0
M  CHG  1  74   1
M  ISO  4  35 100  60 101  71 100  81 101
M  END
> <Batch ID>
0190

> <Smiles>
CNC(C)C(=O)NC(C(=O)N1Cc2cc([101O:1][101CH:1](C)CC(C)(C)Cc3nc([100NH:0][100C:0](=O)N4CCCC(n5nc(-c6ccc(Oc7ccc(F)cc7F)cc6)c(C(N)=O)c5N)C4)sc3N)ccc2CC1C(=O)NC1CCCc2ccccc21)C(C)(C)C

> <Shape>
0.241

> <Color>
0.091

> <Negative vol penalty>
0.000

$$$$

  -OEChem-04052305213D

 82 90  0     1  0  0  0  0  0999 V2000
  -23.2616   -8.6954   22.3096 C   0  0  0  0  0  0  0  0  0  0  0  0
  -24.3908   -9.4699   22.5550 C   0  0  0  0  0  0  0  0  0  0  0  0
  -22.7006  -28.2393   20.7444 C   0  0  0  0  0  0  0  0  0  0  0  0
  -23.8691  -27.1859   22.5779 C   0  0  0  0  0  0  0  0  0  0  0  0
  -22.3296   -9.1060   21.3574 C   0  0  0  0  0  0  0  0  0  0  0  0
  -24.5893  -10.6550   21.8475 C   0  0  0  0  0  0  0  0  0  0  0  0
  -27.1774  -15.7986   23.9336 C   0  0  0  0  0  0  0  0  0  0  0  0
  -21.4807  -27.8561   21.3017 C   0  0  0  0  0  0  0  0  0  0  0  0
  -22.6492  -26.8027   23.1353 C   0  0  0  0  0  0  0  0  0  0  0  0
  -28.4655  -16.3174   23.8100 C   0  0  0  0  0  0  0  0  0  0  0  0
  -18.0465  -27.4677   22.4288 C   0  0  0  0  0  0  0  0  0  0  0  0
  -17.0266  -28.4182   22.4728 C   0  0  0  0  0  0  0  0  0  0  0  0
  -27.7401  -17.6567   21.9394 C   0  0  0  0  0  0  0  0  0  0  0  0
  -31.4473  -21.1566   18.7797 C   0  0  0  0  0  0  0  0  0  0  0  0
  -18.4193  -29.8498   23.8322 C   0  0  0  0  0  0  0  0  0  0  0  0
  -31.0073  -19.6171   17.0949 C   0  0  0  0  0  0  0  0  0  0  0  0
  -23.8949  -27.9041   21.3825 C   0  0  0  0  0  0  0  0  0  0  0  0
  -25.8609  -29.4941   21.0442 C   0  0  0  0  0  0  0  0  0  0  0  0
  -22.5118  -10.3016   20.6448 C   0  0  0  0  0  0  0  0  0  0  0  0
  -26.1618  -16.1974   23.0527 C   0  0  0  0  0  0  0  0  0  0  0  0
  -23.6595  -11.0813   20.8840 C   0  0  0  0  0  0  0  0  0  0  0  0
  -26.4392  -17.1434   22.0556 C   0  0  0  0  0  0  0  0  0  0  0  0
  -31.1093  -19.8111   18.4548 C   0  0  0  0  0  0  0  0  0  0  0  0
  -21.4550  -27.1379   22.4971 C   0  0  0  0  0  0  0  0  0  0  0  0
  -28.7478  -17.2444   22.8110 C   0  0  0  0  0  0  0  0  0  0  0  0
  -19.2528  -27.7082   23.0866 C   0  0  0  0  0  0  0  0  0  0  0  0
  -17.2129  -29.6092   23.1744 C   0  0  0  0  0  0  0  0  0  0  0  0
  -19.4392  -28.8993   23.7882 C   0  0  0  0  0  0  0  0  0  0  0  0
  -25.1554  -28.2992   20.8070 C   0  0  0  0  0  0  0  0  0  0  0  0
  -31.5909  -21.9398   17.6554 C   0  0  0  0  0  0  0  0  0  0  0  0
  -26.9877  -29.3878   20.2661 C   0  0  0  0  0  0  0  0  0  0  0  0
  -25.5275  -30.6012   21.8921 C   0  0  0  0  0  0  0  0  0  0  0  0
  -24.3355  -14.7138   20.9157 C   0  0  0  0  0  0  0  0  0  0  0  0
  -22.8841  -17.6085   20.7239 C   0  0  0  0  0  0  0  0  0  0  0  0
  -23.0920  -20.9878   21.1530 C   0  0  0  0  0  0  0  0  0  0  0  0
  -30.9705  -18.8697   20.7858 C   0  0  0  0  0  0  0  0  0  0  0  0
  -29.9418  -24.6937   18.2427 C   0  0  0  0  0  0  0  0  0  0  0  0
  -21.5009  -10.6803   19.5916 C   0  0  0  0  0  0  0  0  0  0  0  0
  -24.7710  -15.6485   23.2162 C   0  0  0  0  0  0  0  0  0  0  0  0
  -25.3793  -17.6196   21.0974 C   0  0  0  0  0  0  0  0  0  0  0  0
  -21.5962  -12.1392   19.1524 C   0  0  0  0  0  0  0  0  0  0  0  0
  -28.5720  -27.3686   16.2263 C   0  0  0  0  0  0  0  0  0  0  0  0
  -23.0483  -12.5224   18.8851 C   0  0  0  0  0  0  0  0  0  0  0  0
  -27.6012  -28.0244   17.2099 C   0  0  0  0  0  0  0  0  0  0  0  0
  -28.5882  -25.8520   16.3937 C   0  0  0  0  0  0  0  0  0  0  0  0
  -27.9280  -26.0423   18.7605 C   0  0  0  0  0  0  0  0  0  0  0  0
  -23.8975  -12.3858   20.1546 C   0  0  1  0  0  0  0  0  0  0  0  0
  -23.9393  -15.7387   21.9405 C   0  0  1  0  0  0  0  0  0  0  0  0
  -27.8824  -27.5776   18.6568 C   0  0  2  0  0  0  0  0  0  0  0  0
  -21.7568  -23.0944   20.8760 C   0  0  0  0  0  0  0  0  0  0  0  0
  -31.9521  -16.7368   21.7061 C   0  0  0  0  0  0  0  0  0  0  0  0
  -23.3370  -17.4961   17.7086 C   0  0  0  0  0  0  0  0  0  0  0  0
  -22.8737  -19.9548   17.6176 C   0  0  0  0  0  0  0  0  0  0  0  0
  -21.1011  -18.3814   18.3954 C   0  0  0  0  0  0  0  0  0  0  0  0
  -23.2440  -21.6020   24.0441 C   0  0  0  0  0  0  0  0  0  0  0  0
  -31.9343  -23.3759   17.5716 C   0  0  0  0  0  0  0  0  0  0  0  0
  -23.0843  -18.8517   19.8913 C   0  0  1  0  0  0  0  0  0  0  0  0
  -22.1579  -21.9770   21.8263 C   0  0  2  0  0  0  0  0  0  0  0  0
  -30.6772  -17.5267   21.4495 C   0  0  1  0  0  0  0  0  0  1  0  0
  -22.6197  -18.6608   18.4199 C   0  0  0  0  0  0  0  0  0  0  0  0
  -25.7814  -27.4930   19.9456 N   0  0  0  0  0  0  0  0  0  0  0  0
  -26.8922  -28.1827   19.6345 N   0  0  0  0  0  0  0  0  0  0  0  0
  -24.0365  -17.0489   21.2938 N   0  0  0  0  0  0  0  0  0  0  0  0
  -28.8798  -25.4934   17.7889 N   0  0  0  0  0  0  0  0  0  0  0  0
  -28.0409  -30.2084   20.0673 N   0  0  0  0  0  0  0  0  0  0  0  0
  -24.3322  -30.5475   22.6220 N   0  0  0  0  0  0  0  0  0  0  0  0
  -30.8994  -18.7785   19.3996 N   0  0  0  0  0  0  0  0  0  0  0  0
  -23.6699  -13.5090   21.0383 N   0  0  0  0  0  0  0  0  0  0  0  0
  -22.4023  -19.9305   20.5981 N   0  0  0  0  0  0  0  0  0  0  0  0
  -30.7936  -24.2075   17.2584 N   0  0  0  0  0  0  0  0  0  0  0  0
  -22.8181  -22.5858   23.0156 N   0  3  0  0  0  0  0  0  0  0  0  0
  -26.2596  -31.6154   21.9867 O   0  0  0  0  0  0  0  0  0  0  0  0
  -25.1813  -14.9957   20.0749 O   0  0  0  0  0  0  0  0  0  0  0  0
  -21.7463  -17.1548   20.8693 O   0  0  0  0  0  0  0  0  0  0  0  0
  -24.3111  -21.1398   21.1191 O   0  0  0  0  0  0  0  0  0  0  0  0
  -31.2149  -19.8700   21.4543 O   0  0  0  0  0  0  0  0  0  0  0  0
  -30.1212  -24.4361   19.4379 O   0  0  0  0  0  0  0  0  0  0  0  0
  -20.2648  -26.7640   23.0413 O   0  0  0  0  0  0  0  0  0  0  0  0
  -30.0044  -17.7519   22.6877 O   0  0  0  0  0  0  0  0  0  1  0  0
  -16.2340  -30.5225   23.2153 F   0  0  0  0  0  0  0  0  0  0  0  0
  -20.5964  -29.1365   24.4211 F   0  0  0  0  0  0  0  0  0  0  0  0
  -31.3185  -21.0534   16.2159 S   0  0  0  0  0  0  0  0  0  0  0  0
  1  2  1  0  0  0  0
  1  5  2  0  0  0  0
  2  6  2  0  0  0  0
  3  8  2  0  0  0  0
  3 17  1  0  0  0  0
  4  9  1  0  0  0  0
  4 17  2  0  0  0  0
  5 19  1  0  0  0  0
  6 21  1  0  0  0  0
  7 10  2  0  0  0  0
  7 20  1  0  0  0  0
  8 24  1  0  0  0  0
  9 24  2  0  0  0  0
 10 25  1  0  0  0  0
 11 12  2  0  0  0  0
 11 26  1  0  0  0  0
 12 27  1  0  0  0  0
 13 22  1  0  0  0  0
 13 25  2  0  0  0  0
 14 23  1  0  0  0  0
 14 30  2  0  0  0  0
 15 27  2  0  0  0  0
 15 28  1  0  0  0  0
 16 23  2  0  0  0  0
 16 82  1  0  0  0  0
 17 29  1  0  0  0  0
 18 29  1  0  0  0  0
 18 31  2  0  0  0  0
 18 32  1  0  0  0  0
 19 21  2  0  0  0  0
 19 38  1  0  0  0  0
 20 22  2  0  0  0  0
 20 39  1  0  0  0  0
 21 47  1  0  0  0  0
 22 40  1  0  0  0  0
 23 67  1  0  0  0  0
 24 78  1  0  0  0  0
 25 79  1  0  0  0  0
 26 28  2  0  0  0  0
 26 78  1  0  0  0  0
 27 80  1  0  0  0  0
 28 81  1  0  0  0  0
 29 61  2  0  0  0  0
 30 56  1  0  0  0  0
 30 82  1  0  0  0  0
 31 62  1  0  0  0  0
 31 65  1  0  0  0  0
 32 66  1  0  0  0  0
 32 72  2  0  0  0  0
 33 48  1  0  0  0  0
 33 68  1  0  0  0  0
 33 73  2  0  0  0  0
 34 57  1  0  0  0  0
 34 63  1  0  0  0  0
 34 74  2  0  0  0  0
 35 58  1  0  0  0  0
 35 69  1  0  0  0  0
 35 75  2  0  0  0  0
 36 59  1  0  0  0  0
 36 67  1  0  0  0  0
 36 76  2  0  0  0  0
 37 64  1  0  0  0  0
 37 70  1  0  0  0  0
 37 77  2  0  0  0  0
 38 41  1  0  0  0  0
 39 48  1  0  0  0  0
 40 63  1  0  0  0  0
 41 43  1  0  0  0  0
 42 44  1  0  0  0  0
 42 45  1  0  0  0  0
 43 47  1  0  0  0  0
 44 49  1  0  0  0  0
 45 64  1  0  0  0  0
 46 49  1  0  0  0  0
 46 64  1  0  0  0  0
 47 68  1  0  0  0  0
 48 63  1  0  0  0  0
 49 62  1  0  0  0  0
 50 58  1  0  0  0  0
 51 59  1  0  0  0  0
 52 60  1  0  0  0  0
 53 60  1  0  0  0  0
 54 60  1  0  0  0  0
 55 71  1  0  0  0  0
 56 70  1  0  0  0  0
 57 60  1  0  0  0  0
 57 69  1  0  0  0  0
 58 71  1  0  0  0  0
 59 79  1  0  0  0  0
 61 62  1  0  0  0  0
M  CHG  1  71   1
M  ISO  4  37 100  59 101  70 100  79 101
M  END
> <Batch ID>
0190

> <Smiles>
CNC(C)C(=O)NC(C(=O)N1Cc2cc([101O:1][101CH:1](C)C(=O)Nc3csc(C[100NH:0][100C:0](=O)N4CCCC(n5nc(-c6ccc(Oc7ccc(F)cc7F)cc6)c(C(N)=O)c5N)C4)c3)ccc2CC1C(=O)NC1CCCc2ccccc21)C(C)(C)C

> <Shape>
0.238

> <Color>
0.058

> <Negative vol penalty>
0.000

$$$$

  -OEChem-04052305213D

 89 97  0     1  0  0  0  0  0999 V2000
  -33.1017  -33.4927   23.1809 C   0  0  0  0  0  0  0  0  0  0  0  0
  -32.7487  -32.2424   23.6784 C   0  0  0  0  0  0  0  0  0  0  0  0
  -23.0748   -9.8686   19.9413 C   0  0  0  0  0  0  0  0  0  0  0  0
  -23.8317   -9.8778   22.2357 C   0  0  0  0  0  0  0  0  0  0  0  0
  -33.7257  -33.5965   21.9384 C   0  0  0  0  0  0  0  0  0  0  0  0
  -33.0185  -31.0951   22.9331 C   0  0  0  0  0  0  0  0  0  0  0  0
  -34.9917  -27.3727   25.7429 C   0  0  0  0  0  0  0  0  0  0  0  0
  -22.3301   -8.7161   20.1916 C   0  0  0  0  0  0  0  0  0  0  0  0
  -23.0869   -8.7253   22.4860 C   0  0  0  0  0  0  0  0  0  0  0  0
  -34.1115  -26.6403   26.5382 C   0  0  0  0  0  0  0  0  0  0  0  0
  -19.3795   -7.9226   21.6400 C   0  0  0  0  0  0  0  0  0  0  0  0
  -18.0733   -7.8764   21.1531 C   0  0  0  0  0  0  0  0  0  0  0  0
  -34.0917  -24.8820   24.8868 C   0  0  0  0  0  0  0  0  0  0  0  0
  -18.6338   -5.9315   19.8338 C   0  0  0  0  0  0  0  0  0  0  0  0
  -31.7970  -17.5517   21.7110 C   0  0  0  0  0  0  0  0  0  0  0  0
  -23.8257  -10.4494   20.9633 C   0  0  0  0  0  0  0  0  0  0  0  0
  -24.1689  -12.9743   20.8408 C   0  0  0  0  0  0  0  0  0  0  0  0
  -34.0120  -32.4492   21.1818 C   0  0  0  0  0  0  0  0  0  0  0  0
  -35.4207  -26.8692   24.5064 C   0  0  0  0  0  0  0  0  0  0  0  0
  -33.6456  -31.1838   21.6787 C   0  0  0  0  0  0  0  0  0  0  0  0
  -34.9794  -25.6089   24.0788 C   0  0  0  0  0  0  0  0  0  0  0  0
  -22.3361   -8.1444   21.4640 C   0  0  0  0  0  0  0  0  0  0  0  0
  -33.6591  -25.3960   26.1089 C   0  0  0  0  0  0  0  0  0  0  0  0
  -20.3130   -6.9733   21.2237 C   0  0  0  0  0  0  0  0  0  0  0  0
  -17.7004   -6.8809   20.2500 C   0  0  0  0  0  0  0  0  0  0  0  0
  -19.9401   -5.9777   20.3207 C   0  0  0  0  0  0  0  0  0  0  0  0
  -31.8845  -18.8114   22.3709 C   0  0  0  0  0  0  0  0  0  0  0  0
  -24.5957  -11.6396   20.7052 C   0  0  0  0  0  0  0  0  0  0  0  0
  -30.7361  -19.1098   23.0708 C   0  0  0  0  0  0  0  0  0  0  0  0
  -25.2619  -13.7228   20.4781 C   0  0  0  0  0  0  0  0  0  0  0  0
  -30.5851  -16.9350   21.9318 C   0  0  0  0  0  0  0  0  0  0  0  0
  -22.8981  -13.4912   21.2575 C   0  0  0  0  0  0  0  0  0  0  0  0
  -35.1498  -27.8144   21.4836 C   0  0  0  0  0  0  0  0  0  0  0  0
  -30.2233  -24.5449   25.1418 C   0  0  0  0  0  0  0  0  0  0  0  0
  -37.1287  -25.3045   20.9297 C   0  0  0  0  0  0  0  0  0  0  0  0
  -38.3398  -22.2866   21.9650 C   0  0  0  0  0  0  0  0  0  0  0  0
  -30.7284  -14.7658   20.6588 C   0  0  0  0  0  0  0  0  0  0  0  0
  -34.6451  -32.6150   19.8230 C   0  0  0  0  0  0  0  0  0  0  0  0
  -36.3913  -27.6598   23.6724 C   0  0  0  0  0  0  0  0  0  0  0  0
  -35.4259  -25.0147   22.7688 C   0  0  0  0  0  0  0  0  0  0  0  0
  -35.2341  -31.3225   19.2637 C   0  0  0  0  0  0  0  0  0  0  0  0
  -29.6158  -12.3500   18.2917 C   0  0  0  0  0  0  0  0  0  0  0  0
  -34.2480  -30.1706   19.4301 C   0  0  0  0  0  0  0  0  0  0  0  0
  -28.1755  -12.0596   18.7198 C   0  0  0  0  0  0  0  0  0  0  0  0
  -30.5295  -12.5796   19.4943 C   0  0  0  0  0  0  0  0  0  0  0  0
  -28.6212  -13.3066   20.8723 C   0  0  0  0  0  0  0  0  0  0  0  0
  -33.9440  -29.9142   20.9111 C   0  0  1  0  0  0  0  0  0  0  0  0
  -36.3593  -27.2781   22.1957 C   0  0  1  0  0  0  0  0  0  0  0  0
  -27.6498  -13.1325   19.6934 C   0  0  2  0  0  0  0  0  0  0  0  0
  -39.9182  -20.4586   21.2834 C   0  0  0  0  0  0  0  0  0  0  0  0
  -31.4313  -25.4543   28.6956 C   0  0  0  0  0  0  0  0  0  0  0  0
  -35.0912  -24.3099   18.8879 C   0  0  0  0  0  0  0  0  0  0  0  0
  -36.2220  -22.0770   18.9509 C   0  0  0  0  0  0  0  0  0  0  0  0
  -37.4776  -24.0876   18.1737 C   0  0  0  0  0  0  0  0  0  0  0  0
  -28.5533  -21.9502   25.3524 C   0  0  0  0  0  0  0  0  0  0  0  0
  -28.1020  -23.2636   23.2616 C   0  0  0  0  0  0  0  0  0  0  0  0
  -40.0144  -22.6757   24.3739 C   0  0  0  0  0  0  0  0  0  0  0  0
  -30.4324  -20.3294   23.8901 C   0  0  0  0  0  0  0  0  0  0  0  0
  -30.4220  -24.3978   26.6459 C   0  0  0  0  0  0  0  0  0  0  0  0
  -30.4400  -23.2863   24.3044 C   0  0  1  0  0  0  0  0  0  0  0  0
  -36.9365  -23.8374   20.6307 C   0  0  1  0  0  0  0  0  0  0  0  0
  -39.7566  -21.7514   22.0679 C   0  0  2  0  0  0  0  0  0  0  0  0
  -31.5414  -25.2876   27.1857 C   0  0  2  0  0  0  0  0  0  1  0  0
  -36.4217  -23.5897   19.1846 C   0  0  0  0  0  0  0  0  0  0  0  0
  -29.1556  -22.4709   24.0397 C   0  0  0  0  0  0  0  0  0  0  0  0
  -25.8611  -11.5427   20.2887 N   0  0  0  0  0  0  0  0  0  0  0  0
  -26.2387  -12.8259   20.1594 N   0  0  0  0  0  0  0  0  0  0  0  0
  -36.3705  -25.8289   21.9861 N   0  0  0  0  0  0  0  0  0  0  0  0
  -29.9699  -13.6117   20.3699 N   0  0  0  0  0  0  0  0  0  0  0  0
  -25.4730  -15.0541   20.4039 N   0  0  0  0  0  0  0  0  0  0  0  0
  -21.8853  -12.5829   21.5945 N   0  0  0  0  0  0  0  0  0  0  0  0
  -30.0805  -15.6921   21.4754 N   0  0  0  0  0  0  0  0  0  0  0  0
  -35.0323  -29.1904   21.5324 N   0  0  0  0  0  0  0  0  0  0  0  0
  -38.2087  -23.1895   20.9312 N   0  0  0  0  0  0  0  0  0  0  0  0
  -40.1073  -21.4842   23.4914 N   0  3  0  0  0  0  0  0  0  0  0  0
  -29.5003  -21.2632   23.2171 N   0  3  0  0  0  0  0  0  0  0  0  0
  -22.6624  -14.7220   21.3131 O   0  0  0  0  0  0  0  0  0  0  0  0
  -34.3809  -27.0376   20.9296 O   0  0  0  0  0  0  0  0  0  0  0  0
  -29.9435  -25.6229   24.6172 O   0  0  0  0  0  0  0  0  0  0  0  0
  -37.9275  -25.9596   20.2556 O   0  0  0  0  0  0  0  0  0  0  0  0
  -37.4385  -21.9357   22.7233 O   0  0  0  0  0  0  0  0  0  0  0  0
  -31.8582  -14.9335   20.1925 O   0  0  0  0  0  0  0  0  0  0  0  0
  -31.0118  -23.7104   23.0708 O   0  0  0  0  0  0  0  0  0  0  0  0
  -21.6093   -7.0200   21.7087 O   0  0  0  0  0  0  0  0  0  0  0  0
  -32.7947  -24.6754   26.8873 O   0  0  0  0  0  0  0  0  0  1  0  0
  -16.4455   -6.8358   19.7837 F   0  0  0  0  0  0  0  0  0  0  0  0
  -20.8321   -5.0623   19.9181 F   0  0  0  0  0  0  0  0  0  0  0  0
  -32.9553  -19.6058   22.3156 F   0  0  0  0  0  0  0  0  0  0  0  0
  -29.5591  -17.8739   22.9309 S   0  0  0  0  0  0  0  0  0  0  0  0
  1  2  1  0  0  0  0
  1  5  2  0  0  0  0
  2  6  2  0  0  0  0
  3  8  2  0  0  0  0
  3 16  1  0  0  0  0
  4  9  1  0  0  0  0
  4 16  2  0  0  0  0
  5 18  1  0  0  0  0
  6 20  1  0  0  0  0
  7 10  2  0  0  0  0
  7 19  1  0  0  0  0
  8 22  1  0  0  0  0
  9 22  2  0  0  0  0
 10 23  1  0  0  0  0
 11 12  2  0  0  0  0
 11 24  1  0  0  0  0
 12 25  1  0  0  0  0
 13 21  1  0  0  0  0
 13 23  2  0  0  0  0
 14 25  2  0  0  0  0
 14 26  1  0  0  0  0
 15 27  1  0  0  0  0
 15 31  2  0  0  0  0
 16 28  1  0  0  0  0
 17 28  1  0  0  0  0
 17 30  2  0  0  0  0
 17 32  1  0  0  0  0
 18 20  2  0  0  0  0
 18 38  1  0  0  0  0
 19 21  2  0  0  0  0
 19 39  1  0  0  0  0
 20 47  1  0  0  0  0
 21 40  1  0  0  0  0
 22 84  1  0  0  0  0
 23 85  1  0  0  0  0
 24 26  2  0  0  0  0
 24 84  1  0  0  0  0
 25 86  1  0  0  0  0
 26 87  1  0  0  0  0
 27 29  2  0  0  0  0
 27 88  1  0  0  0  0
 28 66  2  0  0  0  0
 29 58  1  0  0  0  0
 29 89  1  0  0  0  0
 30 67  1  0  0  0  0
 30 70  1  0  0  0  0
 31 72  1  0  0  0  0
 31 89  1  0  0  0  0
 32 71  1  0  0  0  0
 32 77  2  0  0  0  0
 33 48  1  0  0  0  0
 33 73  1  0  0  0  0
 33 78  2  0  0  0  0
 34 59  1  0  0  0  0
 34 60  1  0  0  0  0
 34 79  2  0  0  0  0
 35 61  1  0  0  0  0
 35 68  1  0  0  0  0
 35 80  2  0  0  0  0
 36 62  1  0  0  0  0
 36 74  1  0  0  0  0
 36 81  2  0  0  0  0
 37 69  1  0  0  0  0
 37 72  1  0  0  0  0
 37 82  2  0  0  0  0
 38 41  1  0  0  0  0
 39 48  1  0  0  0  0
 40 68  1  0  0  0  0
 41 43  1  0  0  0  0
 42 44  1  0  0  0  0
 42 45  1  0  0  0  0
 43 47  1  0  0  0  0
 44 49  1  0  0  0  0
 45 69  1  0  0  0  0
 46 49  1  0  0  0  0
 46 69  1  0  0  0  0
 47 73  1  0  0  0  0
 48 68  1  0  0  0  0
 49 67  1  0  0  0  0
 50 62  1  0  0  0  0
 51 63  1  0  0  0  0
 52 64  1  0  0  0  0
 53 64  1  0  0  0  0
 54 64  1  0  0  0  0
 55 65  1  0  0  0  0
 56 65  1  0  0  0  0
 57 75  1  0  0  0  0
 58 76  1  0  0  0  0
 59 63  1  0  0  0  0
 60 65  1  0  0  0  0
 60 83  1  0  0  0  0
 61 64  1  0  0  0  0
 61 74  1  0  0  0  0
 62 75  1  0  0  0  0
 63 85  1  0  0  0  0
 65 76  1  0  0  0  0
 66 67  1  0  0  0  0
M  CHG  2  75   1  76   1
M  ISO  4  37 100  63 101  72 100  85 101
M  END
> <Batch ID>
0190

> <Smiles>
CNC(C)C(=O)NC(C(=O)N1Cc2cc([101O:1][101CH:1](C)CC(=O)C(O)C(C)(C)NCc3sc([100NH:0][100C:0](=O)N4CCCC(n5nc(-c6ccc(Oc7ccc(F)cc7F)cc6)c(C(N)=O)c5N)C4)cc3F)ccc2CC1C(=O)NC1CCCc2ccccc21)C(C)(C)C

> <Shape>
0.147

> <Color>
0.176

> <Negative vol penalty>
0.000

$$$$

  -OEChem-04052305213D

 88 96  0     1  0  0  0  0  0999 V2000
  -27.2038   -9.5902   17.3571 C   0  0  0  0  0  0  0  0  0  0  0  0
  -26.2700  -10.5974   17.5783 C   0  0  0  0  0  0  0  0  0  0  0  0
  -26.3528  -31.8387   20.1261 C   0  0  0  0  0  0  0  0  0  0  0  0
  -26.1855  -30.9242   22.3560 C   0  0  0  0  0  0  0  0  0  0  0  0
  -28.4400   -9.6338   18.0005 C   0  0  0  0  0  0  0  0  0  0  0  0
  -26.5714  -11.6482   18.4440 C   0  0  0  0  0  0  0  0  0  0  0  0
  -25.2542  -16.1589   16.5562 C   0  0  0  0  0  0  0  0  0  0  0  0
  -26.5262  -33.1146   20.6623 C   0  0  0  0  0  0  0  0  0  0  0  0
  -26.3589  -32.2002   22.8923 C   0  0  0  0  0  0  0  0  0  0  0  0
  -23.9050  -16.5053   16.6171 C   0  0  0  0  0  0  0  0  0  0  0  0
  -24.4809  -34.9652   23.4008 C   0  0  0  0  0  0  0  0  0  0  0  0
  -23.6354  -35.3515   24.4407 C   0  0  0  0  0  0  0  0  0  0  0  0
  -24.3473  -17.8620   18.5620 C   0  0  0  0  0  0  0  0  0  0  0  0
  -25.5490  -35.6542   25.8842 C   0  0  0  0  0  0  0  0  0  0  0  0
  -26.1824  -30.7435   20.9730 C   0  0  0  0  0  0  0  0  0  0  0  0
  -27.0073  -28.4886   20.1111 C   0  0  0  0  0  0  0  0  0  0  0  0
  -28.7604  -10.6908   18.8670 C   0  0  0  0  0  0  0  0  0  0  0  0
  -26.1596  -16.6537   17.5059 C   0  0  0  0  0  0  0  0  0  0  0  0
  -27.8125  -11.7053   19.1006 C   0  0  0  0  0  0  0  0  0  0  0  0
  -25.7079  -17.5225   18.5095 C   0  0  0  0  0  0  0  0  0  0  0  0
  -26.5293  -33.2954   22.0454 C   0  0  0  0  0  0  0  0  0  0  0  0
  -23.4509  -17.3546   17.6218 C   0  0  0  0  0  0  0  0  0  0  0  0
  -25.8605  -34.9232   23.6027 C   0  0  0  0  0  0  0  0  0  0  0  0
  -24.1694  -35.6961   25.6824 C   0  0  0  0  0  0  0  0  0  0  0  0
  -26.3945  -35.2678   24.8443 C   0  0  0  0  0  0  0  0  0  0  0  0
  -26.0027  -29.4253   20.4196 C   0  0  0  0  0  0  0  0  0  0  0  0
  -21.0634  -23.0090   22.5686 C   0  0  0  0  0  0  0  0  0  0  0  0
  -22.2699  -22.6068   23.1024 C   0  0  0  0  0  0  0  0  0  0  0  0
  -26.3252  -27.4041   19.6161 C   0  0  0  0  0  0  0  0  0  0  0  0
  -20.9961  -20.8970   21.9813 C   0  0  0  0  0  0  0  0  0  0  0  0
  -28.4298  -28.5898   20.2589 C   0  0  0  0  0  0  0  0  0  0  0  0
  -28.0409  -15.3429   19.7073 C   0  0  0  0  0  0  0  0  0  0  0  0
  -29.0943  -18.3905   20.0610 C   0  0  0  0  0  0  0  0  0  0  0  0
  -19.4480  -19.3348   20.7535 C   0  0  0  0  0  0  0  0  0  0  0  0
  -28.4768  -21.7285   19.7099 C   0  0  0  0  0  0  0  0  0  0  0  0
  -20.7324  -25.4080   20.3823 C   0  0  0  0  0  0  0  0  0  0  0  0
  -30.0912  -10.6700   19.5763 C   0  0  0  0  0  0  0  0  0  0  0  0
  -27.6164  -16.2919   17.4105 C   0  0  0  0  0  0  0  0  0  0  0  0
  -26.6430  -18.0969   19.5410 C   0  0  0  0  0  0  0  0  0  0  0  0
  -30.4763  -12.0144   20.1882 C   0  0  0  0  0  0  0  0  0  0  0  0
  -22.3013  -26.2502   17.2991 C   0  0  0  0  0  0  0  0  0  0  0  0
  -29.2973  -12.6116   20.9498 C   0  0  0  0  0  0  0  0  0  0  0  0
  -23.5185  -27.0749   17.7214 C   0  0  0  0  0  0  0  0  0  0  0  0
  -21.0973  -26.5198   18.1989 C   0  0  0  0  0  0  0  0  0  0  0  0
  -22.5691  -27.1748   20.0639 C   0  0  0  0  0  0  0  0  0  0  0  0
  -28.1119  -12.8747   20.0132 C   0  0  1  0  0  0  0  0  0  0  0  0
  -28.3578  -16.4439   18.7352 C   0  0  1  0  0  0  0  0  0  0  0  0
  -23.8248  -26.8954   19.2205 C   0  0  2  0  0  0  0  0  0  0  0  0
  -24.6456  -24.1048   21.7921 C   0  0  0  0  0  0  0  0  0  0  0  0
  -23.4648  -22.8656   25.2923 C   0  0  0  0  0  0  0  0  0  0  0  0
  -17.9807  -17.3139   20.3568 C   0  0  0  0  0  0  0  0  0  0  0  0
  -29.5119  -23.9772   20.1209 C   0  0  0  0  0  0  0  0  0  0  0  0
  -28.4937  -18.1196   23.0403 C   0  0  0  0  0  0  0  0  0  0  0  0
  -28.6305  -20.6128   23.2234 C   0  0  0  0  0  0  0  0  0  0  0  0
  -30.6313  -19.3047   22.5105 C   0  0  0  0  0  0  0  0  0  0  0  0
  -28.4069  -22.4157   16.8321 C   0  0  0  0  0  0  0  0  0  0  0  0
  -20.4987  -24.3727   22.6256 C   0  0  0  0  0  0  0  0  0  0  0  0
  -24.6884  -23.4291   23.1573 C   0  0  0  0  0  0  0  0  0  0  0  0
  -20.1082  -17.6281   18.9932 C   0  0  0  0  0  0  0  0  0  0  0  0
  -21.5955  -17.9712   18.9758 C   0  0  0  0  0  0  0  0  0  1  0  0
  -23.2879  -23.3794   23.8417 C   0  0  1  0  0  0  0  0  0  0  0  0
  -28.6898  -19.5694   20.9129 C   0  0  1  0  0  0  0  0  0  0  0  0
  -19.4096  -17.8566   20.3445 C   0  0  1  0  0  0  0  0  0  0  0  0
  -29.3114  -22.8506   19.1193 C   0  0  2  0  0  0  0  0  0  0  0  0
  -29.0931  -19.3894   22.4036 C   0  0  0  0  0  0  0  0  0  0  0  0
  -24.7757  -28.9753   20.1436 N   0  0  0  0  0  0  0  0  0  0  0  0
  -20.3319  -22.0300   21.9250 N   0  0  0  0  0  0  0  0  0  0  0  0
  -25.0049  -27.7440   19.6563 N   0  0  0  0  0  0  0  0  0  0  0  0
  -28.0570  -17.7085   19.4093 N   0  0  0  0  0  0  0  0  0  0  0  0
  -21.4541  -26.3305   19.6070 N   0  0  0  0  0  0  0  0  0  0  0  0
  -26.7320  -26.2024   19.1546 N   0  0  0  0  0  0  0  0  0  0  0  0
  -28.9644  -29.7742   20.7839 N   0  0  0  0  0  0  0  0  0  0  0  0
  -20.6126  -19.6423   21.4507 N   0  0  0  0  0  0  0  0  0  0  0  0
  -28.3363  -14.0768   19.2392 N   0  0  0  0  0  0  0  0  0  0  0  0
  -29.2651  -20.7494   20.2765 N   0  0  0  0  0  0  0  0  0  0  0  0
  -21.1396  -25.2852   21.7051 N   0  0  0  0  0  0  0  0  0  0  0  0
  -28.6449  -23.4103   17.9096 N   0  3  0  0  0  0  0  0  0  0  0  0
  -29.2050  -27.6638   19.9196 O   0  0  0  0  0  0  0  0  0  0  0  0
  -27.5651  -15.6216   20.8017 O   0  0  0  0  0  0  0  0  0  0  0  0
  -30.2874  -18.0903   19.9713 O   0  0  0  0  0  0  0  0  0  0  0  0
  -18.5333  -20.1030   20.4693 O   0  0  0  0  0  0  0  0  0  0  0  0
  -27.2482  -21.7230   19.6755 O   0  0  0  0  0  0  0  0  0  0  0  0
  -19.7980  -24.7391   19.9278 O   0  0  0  0  0  0  0  0  0  0  0  0
  -26.6987  -34.5402   22.5690 O   0  0  0  0  0  0  0  0  0  0  0  0
  -22.1345  -17.6937   17.6839 O   0  0  0  0  0  0  0  0  0  1  0  0
  -23.3574  -36.0685   26.6805 F   0  0  0  0  0  0  0  0  0  0  0  0
  -27.7192  -35.2305   25.0439 F   0  0  0  0  0  0  0  0  0  0  0  0
  -22.5073  -20.9365   22.7936 S   0  0  0  0  0  0  0  0  0  0  0  0
  1  2  1  0  0  0  0
  1  5  2  0  0  0  0
  2  6  2  0  0  0  0
  3  8  2  0  0  0  0
  3 15  1  0  0  0  0
  4  9  1  0  0  0  0
  4 15  2  0  0  0  0
  5 17  1  0  0  0  0
  6 19  1  0  0  0  0
  7 10  2  0  0  0  0
  7 18  1  0  0  0  0
  8 21  1  0  0  0  0
  9 21  2  0  0  0  0
 10 22  1  0  0  0  0
 11 12  2  0  0  0  0
 11 23  1  0  0  0  0
 12 24  1  0  0  0  0
 13 20  1  0  0  0  0
 13 22  2  0  0  0  0
 14 24  2  0  0  0  0
 14 25  1  0  0  0  0
 15 26  1  0  0  0  0
 16 26  1  0  0  0  0
 16 29  2  0  0  0  0
 16 31  1  0  0  0  0
 17 19  2  0  0  0  0
 17 37  1  0  0  0  0
 18 20  2  0  0  0  0
 18 38  1  0  0  0  0
 19 46  1  0  0  0  0
 20 39  1  0  0  0  0
 21 84  1  0  0  0  0
 22 85  1  0  0  0  0
 23 25  2  0  0  0  0
 23 84  1  0  0  0  0
 24 86  1  0  0  0  0
 25 87  1  0  0  0  0
 26 66  2  0  0  0  0
 27 28  2  0  0  0  0
 27 57  1  0  0  0  0
 27 67  1  0  0  0  0
 28 61  1  0  0  0  0
 28 88  1  0  0  0  0
 29 68  1  0  0  0  0
 29 71  1  0  0  0  0
 30 67  2  0  0  0  0
 30 73  1  0  0  0  0
 30 88  1  0  0  0  0
 31 72  1  0  0  0  0
 31 78  2  0  0  0  0
 32 47  1  0  0  0  0
 32 74  1  0  0  0  0
 32 79  2  0  0  0  0
 33 62  1  0  0  0  0
 33 69  1  0  0  0  0
 33 80  2  0  0  0  0
 34 63  1  0  0  0  0
 34 73  1  0  0  0  0
 34 81  2  0  0  0  0
 35 64  1  0  0  0  0
 35 75  1  0  0  0  0
 35 82  2  0  0  0  0
 36 70  1  0  0  0  0
 36 76  1  0  0  0  0
 36 83  2  0  0  0  0
 37 40  1  0  0  0  0
 38 47  1  0  0  0  0
 39 69  1  0  0  0  0
 40 42  1  0  0  0  0
 41 43  1  0  0  0  0
 41 44  1  0  0  0  0
 42 46  1  0  0  0  0
 43 48  1  0  0  0  0
 44 70  1  0  0  0  0
 45 48  1  0  0  0  0
 45 70  1  0  0  0  0
 46 74  1  0  0  0  0
 47 69  1  0  0  0  0
 48 68  1  0  0  0  0
 49 58  1  0  0  0  0
 50 61  1  0  0  0  0
 51 63  1  0  0  0  0
 52 64  1  0  0  0  0
 53 65  1  0  0  0  0
 54 65  1  0  0  0  0
 55 65  1  0  0  0  0
 56 77  1  0  0  0  0
 57 76  1  0  0  0  0
 58 61  1  0  0  0  0
 59 60  1  0  0  0  0
 59 63  1  0  0  0  0
 60 85  1  0  0  0  0
 62 65  1  0  0  0  0
 62 75  1  0  0  0  0
 64 77  1  0  0  0  0
 66 68  1  0  0  0  0
M  CHG  1  77   1
M  ISO  4  36 100  60 101  76 100  85 101
M  END
> <Batch ID>
0190

> <Smiles>
CCC(C)c1sc(NC(=O)C(C)C[101CH2:1][101O:1]c2ccc3c(c2)CN(C(=O)C(NC(=O)C(C)NC)C(C)(C)C)C(C(=O)NC2CCCc4ccccc42)C3)nc1C[100NH:0][100C:0](=O)N1CCCC(n2nc(-c3ccc(Oc4ccc(F)cc4F)cc3)c(C(N)=O)c2N)C1

> <Shape>
0.220

> <Color>
0.057

> <Negative vol penalty>
0.000

$$$$

  -OEChem-04052305213D

 85 93  0     1  0  0  0  0  0999 V2000
  -27.4856  -24.4983   17.1510 C   0  0  0  0  0  0  0  0  0  0  0  0
  -26.6062  -24.6242   18.2216 C   0  0  0  0  0  0  0  0  0  0  0  0
  -26.4193  -12.8904   21.8043 C   0  0  0  0  0  0  0  0  0  0  0  0
  -25.0714  -14.5984   20.7543 C   0  0  0  0  0  0  0  0  0  0  0  0
  -28.6276  -25.2958   17.0909 C   0  0  0  0  0  0  0  0  0  0  0  0
  -26.8690  -25.5470   19.2334 C   0  0  0  0  0  0  0  0  0  0  0  0
  -22.7652  -28.2048   20.5525 C   0  0  0  0  0  0  0  0  0  0  0  0
  -25.2983  -12.0664   21.9033 C   0  0  0  0  0  0  0  0  0  0  0  0
  -23.9502  -13.7744   20.8532 C   0  0  0  0  0  0  0  0  0  0  0  0
  -21.8365  -27.5738   21.3791 C   0  0  0  0  0  0  0  0  0  0  0  0
  -23.5094  -10.0397   19.8722 C   0  0  0  0  0  0  0  0  0  0  0  0
  -23.6555   -8.7002   19.5117 C   0  0  0  0  0  0  0  0  0  0  0  0
  -22.7490  -28.7394   23.2838 C   0  0  0  0  0  0  0  0  0  0  0  0
  -25.6481  -22.3513   21.5532 C   0  0  0  0  0  0  0  0  0  0  0  0
  -23.0127   -8.0298   21.7420 C   0  0  0  0  0  0  0  0  0  0  0  0
  -26.3059  -14.1565   21.2299 C   0  0  0  0  0  0  0  0  0  0  0  0
  -28.3788  -15.0746   20.0603 C   0  0  0  0  0  0  0  0  0  0  0  0
  -28.8995  -26.2357   18.0975 C   0  0  0  0  0  0  0  0  0  0  0  0
  -23.7014  -29.1011   21.0879 C   0  0  0  0  0  0  0  0  0  0  0  0
  -28.0164  -26.3570   19.1874 C   0  0  0  0  0  0  0  0  0  0  0  0
  -23.6868  -29.3824   22.4615 C   0  0  0  0  0  0  0  0  0  0  0  0
  -24.2713  -22.7165   21.5198 C   0  0  0  0  0  0  0  0  0  0  0  0
  -24.0637  -12.5084   21.4277 C   0  0  0  0  0  0  0  0  0  0  0  0
  -21.8302  -27.8389   22.7454 C   0  0  0  0  0  0  0  0  0  0  0  0
  -23.1150  -10.3743   21.1677 C   0  0  0  0  0  0  0  0  0  0  0  0
  -23.4072   -7.6953   20.4466 C   0  0  0  0  0  0  0  0  0  0  0  0
  -22.8666   -9.3693   22.1026 C   0  0  0  0  0  0  0  0  0  0  0  0
  -27.4635  -15.0083   21.1279 C   0  0  0  0  0  0  0  0  0  0  0  0
  -26.2547  -22.7269   22.7315 C   0  0  0  0  0  0  0  0  0  0  0  0
  -29.2873  -16.0298   20.4458 C   0  0  0  0  0  0  0  0  0  0  0  0
  -23.8779  -23.3572   22.6742 C   0  0  0  0  0  0  0  0  0  0  0  0
  -28.4053  -14.3386   18.8302 C   0  0  0  0  0  0  0  0  0  0  0  0
  -26.8738  -29.1918   21.2637 C   0  0  0  0  0  0  0  0  0  0  0  0
  -26.3323  -32.1445   22.4929 C   0  0  0  0  0  0  0  0  0  0  0  0
  -22.3096  -24.5242   24.2626 C   0  0  0  0  0  0  0  0  0  0  0  0
  -24.1938  -34.2691   24.0929 C   0  0  0  0  0  0  0  0  0  0  0  0
  -28.9619  -20.6915   24.1893 C   0  0  0  0  0  0  0  0  0  0  0  0
  -30.1711  -27.0423   18.0133 C   0  0  0  0  0  0  0  0  0  0  0  0
  -24.6792  -29.7938   20.1788 C   0  0  0  0  0  0  0  0  0  0  0  0
  -24.6576  -30.3520   23.0827 C   0  0  0  0  0  0  0  0  0  0  0  0
  -30.1828  -28.2591   18.9350 C   0  0  0  0  0  0  0  0  0  0  0  0
  -31.2507  -17.9692   24.3541 C   0  0  0  0  0  0  0  0  0  0  0  0
  -29.6989  -27.8766   20.3301 C   0  0  0  0  0  0  0  0  0  0  0  0
  -30.6222  -16.9077   23.4496 C   0  0  0  0  0  0  0  0  0  0  0  0
  -30.1908  -18.7542   25.1237 C   0  0  0  0  0  0  0  0  0  0  0  0
  -28.5087  -18.2959   23.3818 C   0  0  0  0  0  0  0  0  0  0  0  0
  -28.2541  -27.3640   20.2917 C   0  0  1  0  0  0  0  0  0  0  0  0
  -25.9203  -30.2975   20.9090 C   0  0  1  0  0  0  0  0  0  0  0  0
  -29.5353  -17.5157   22.5429 C   0  0  2  0  0  0  0  0  0  0  0  0
  -23.3762  -22.4329   20.3722 C   0  0  0  0  0  0  0  0  0  0  0  0
  -28.6739  -23.2157   22.2119 C   0  0  0  0  0  0  0  0  0  0  0  0
  -24.0470  -36.6062   24.9949 C   0  0  0  0  0  0  0  0  0  0  0  0
  -18.9802  -25.9704   22.9334 C   0  0  0  0  0  0  0  0  0  0  0  0
  -28.0464  -31.3276   24.8813 C   0  0  0  0  0  0  0  0  0  0  0  0
  -27.0992  -33.2747   26.1383 C   0  0  0  0  0  0  0  0  0  0  0  0
  -28.4352  -33.6601   24.0673 C   0  0  0  0  0  0  0  0  0  0  0  0
  -21.9522  -34.9503   22.2845 C   0  0  0  0  0  0  0  0  0  0  0  0
  -20.8407  -24.9357   24.2768 C   0  0  0  0  0  0  0  0  0  0  0  0
  -27.6602  -22.5297   23.1473 C   0  0  2  0  0  0  0  0  0  0  0  0
  -26.1038  -32.7006   23.8776 C   0  0  1  0  0  0  0  0  0  0  0  0
  -23.7906  -35.7027   23.7988 C   0  0  2  0  0  0  0  0  0  0  0  0
  -20.4846  -25.9235   23.1657 C   0  0  2  0  0  0  0  0  0  1  0  0
  -27.4040  -32.7210   24.7300 C   0  0  0  0  0  0  0  0  0  0  0  0
  -27.7633  -15.8539   22.1174 N   0  0  0  0  0  0  0  0  0  0  0  0
  -28.8772  -16.4606   21.6732 N   0  0  0  0  0  0  0  0  0  0  0  0
  -25.5982  -30.9992   22.1533 N   0  0  0  0  0  0  0  0  0  0  0  0
  -29.1911  -19.3058   24.2059 N   0  0  0  0  0  0  0  0  0  0  0  0
  -30.3891  -16.5348   19.8513 N   0  0  0  0  0  0  0  0  0  0  0  0
  -27.3957  -13.3956   18.5939 N   0  0  0  0  0  0  0  0  0  0  0  0
  -22.6246  -23.8843   23.0668 N   0  0  0  0  0  0  0  0  0  0  0  0
  -27.3282  -28.4703   20.1763 N   0  0  0  0  0  0  0  0  0  0  0  0
  -25.4885  -34.0107   23.6949 N   0  0  0  0  0  0  0  0  0  0  0  0
  -28.0026  -21.1317   23.2856 N   0  0  0  0  0  0  0  0  0  0  0  0
  -22.3415  -35.7738   23.4581 N   0  3  0  0  0  0  0  0  0  0  0  0
  -29.3070  -14.5004   17.9733 O   0  0  0  0  0  0  0  0  0  0  0  0
  -27.1761  -29.0078   22.4370 O   0  0  0  0  0  0  0  0  0  0  0  0
  -27.1272  -32.7097   21.7377 O   0  0  0  0  0  0  0  0  0  0  0  0
  -23.0615  -24.7529   25.2042 O   0  0  0  0  0  0  0  0  0  0  0  0
  -23.4373  -33.4603   24.6259 O   0  0  0  0  0  0  0  0  0  0  0  0
  -29.5711  -21.4787   24.9216 O   0  0  0  0  0  0  0  0  0  0  0  0
  -22.9696  -11.7046   21.5239 O   0  0  0  0  0  0  0  0  0  0  0  0
  -20.9253  -27.2239   23.5546 O   0  0  0  0  0  0  0  0  0  1  0  0
  -23.5461   -6.4090   20.0998 F   0  0  0  0  0  0  0  0  0  0  0  0
  -22.4863   -9.6845   23.3483 F   0  0  0  0  0  0  0  0  0  0  0  0
  -25.1658  -23.5164   23.7914 S   0  0  0  0  0  0  0  0  0  0  0  0
  1  2  1  0  0  0  0
  1  5  2  0  0  0  0
  2  6  2  0  0  0  0
  3  8  2  0  0  0  0
  3 16  1  0  0  0  0
  4  9  1  0  0  0  0
  4 16  2  0  0  0  0
  5 18  1  0  0  0  0
  6 20  1  0  0  0  0
  7 10  2  0  0  0  0
  7 19  1  0  0  0  0
  8 23  1  0  0  0  0
  9 23  2  0  0  0  0
 10 24  1  0  0  0  0
 11 12  2  0  0  0  0
 11 25  1  0  0  0  0
 12 26  1  0  0  0  0
 13 21  1  0  0  0  0
 13 24  2  0  0  0  0
 14 22  1  0  0  0  0
 14 29  2  0  0  0  0
 15 26  2  0  0  0  0
 15 27  1  0  0  0  0
 16 28  1  0  0  0  0
 17 28  1  0  0  0  0
 17 30  2  0  0  0  0
 17 32  1  0  0  0  0
 18 20  2  0  0  0  0
 18 38  1  0  0  0  0
 19 21  2  0  0  0  0
 19 39  1  0  0  0  0
 20 47  1  0  0  0  0
 21 40  1  0  0  0  0
 22 31  2  0  0  0  0
 22 50  1  0  0  0  0
 23 81  1  0  0  0  0
 24 82  1  0  0  0  0
 25 27  2  0  0  0  0
 25 81  1  0  0  0  0
 26 83  1  0  0  0  0
 27 84  1  0  0  0  0
 28 64  2  0  0  0  0
 29 59  1  0  0  0  0
 29 85  1  0  0  0  0
 30 65  1  0  0  0  0
 30 68  1  0  0  0  0
 31 70  1  0  0  0  0
 31 85  1  0  0  0  0
 32 69  1  0  0  0  0
 32 75  2  0  0  0  0
 33 48  1  0  0  0  0
 33 71  1  0  0  0  0
 33 76  2  0  0  0  0
 34 60  1  0  0  0  0
 34 66  1  0  0  0  0
 34 77  2  0  0  0  0
 35 58  1  0  0  0  0
 35 70  1  0  0  0  0
 35 78  2  0  0  0  0
 36 61  1  0  0  0  0
 36 72  1  0  0  0  0
 36 79  2  0  0  0  0
 37 67  1  0  0  0  0
 37 73  1  0  0  0  0
 37 80  2  0  0  0  0
 38 41  1  0  0  0  0
 39 48  1  0  0  0  0
 40 66  1  0  0  0  0
 41 43  1  0  0  0  0
 42 44  1  0  0  0  0
 42 45  1  0  0  0  0
 43 47  1  0  0  0  0
 44 49  1  0  0  0  0
 45 67  1  0  0  0  0
 46 49  1  0  0  0  0
 46 67  1  0  0  0  0
 47 71  1  0  0  0  0
 48 66  1  0  0  0  0
 49 65  1  0  0  0  0
 51 59  1  0  0  0  0
 52 61  1  0  0  0  0
 53 62  1  0  0  0  0
 54 63  1  0  0  0  0
 55 63  1  0  0  0  0
 56 63  1  0  0  0  0
 57 74  1  0  0  0  0
 58 62  1  0  0  0  0
 59 73  1  0  0  0  0
 60 63  1  0  0  0  0
 60 72  1  0  0  0  0
 61 74  1  0  0  0  0
 62 82  1  0  0  0  0
 64 65  1  0  0  0  0
M  CHG  1  74   1
M  ISO  4  37 100  62 101  73 100  82 101
M  END
> <Batch ID>
0190

> <Smiles>
CNC(C)C(=O)NC(C(=O)N1Cc2cc([101O:1][101CH:1](C)CC(=O)Nc3sc(C(C)[100NH:0][100C:0](=O)N4CCCC(n5nc(-c6ccc(Oc7ccc(F)cc7F)cc6)c(C(N)=O)c5N)C4)cc3C)ccc2CC1C(=O)NC1CCCc2ccccc21)C(C)(C)C

> <Shape>
0.279

> <Color>
0.057

> <Negative vol penalty>
0.000

$$$$

  -OEChem-04052305213D

 89 97  0     1  0  0  0  0  0999 V2000
  -27.6815  -31.8390   27.7690 C   0  0  0  0  0  0  0  0  0  0  0  0
  -27.9579  -30.9685   26.7196 C   0  0  0  0  0  0  0  0  0  0  0  0
  -22.0405  -14.1103   22.3756 C   0  0  0  0  0  0  0  0  0  0  0  0
  -21.6901  -14.1966   19.9867 C   0  0  0  0  0  0  0  0  0  0  0  0
  -26.3606  -32.0763   28.1469 C   0  0  0  0  0  0  0  0  0  0  0  0
  -26.9134  -30.3340   26.0481 C   0  0  0  0  0  0  0  0  0  0  0  0
  -27.4950  -30.4298   21.0184 C   0  0  0  0  0  0  0  0  0  0  0  0
  -20.7527  -14.6045   22.5824 C   0  0  0  0  0  0  0  0  0  0  0  0
  -20.4022  -14.6907   20.1935 C   0  0  0  0  0  0  0  0  0  0  0  0
  -28.3945  -29.5202   20.4640 C   0  0  0  0  0  0  0  0  0  0  0  0
  -17.4279  -15.5027   23.7459 C   0  0  0  0  0  0  0  0  0  0  0  0
  -16.6458  -14.8863   24.7226 C   0  0  0  0  0  0  0  0  0  0  0  0
  -26.5555  -28.0835   19.8530 C   0  0  0  0  0  0  0  0  0  0  0  0
  -16.8074  -12.7914   23.5299 C   0  0  0  0  0  0  0  0  0  0  0  0
  -27.8917  -19.9501   22.0780 C   0  0  0  0  0  0  0  0  0  0  0  0
  -22.5093  -13.9064   21.0777 C   0  0  0  0  0  0  0  0  0  0  0  0
  -24.2261  -12.0469   20.7579 C   0  0  0  0  0  0  0  0  0  0  0  0
  -25.2990  -31.4518   27.4734 C   0  0  0  0  0  0  0  0  0  0  0  0
  -26.1175  -30.1675   21.0040 C   0  0  0  0  0  0  0  0  0  0  0  0
  -25.5771  -30.5621   26.4182 C   0  0  0  0  0  0  0  0  0  0  0  0
  -25.6405  -28.9925   20.4056 C   0  0  0  0  0  0  0  0  0  0  0  0
  -19.9335  -14.8947   21.4913 C   0  0  0  0  0  0  0  0  0  0  0  0
  -27.9250  -28.3455   19.8838 C   0  0  0  0  0  0  0  0  0  0  0  0
  -17.8997  -14.7635   22.6612 C   0  0  0  0  0  0  0  0  0  0  0  0
  -16.3355  -13.5307   24.6147 C   0  0  0  0  0  0  0  0  0  0  0  0
  -17.5894  -13.4079   22.5532 C   0  0  0  0  0  0  0  0  0  0  0  0
  -23.8398  -13.3964   20.8635 C   0  0  0  0  0  0  0  0  0  0  0  0
  -28.7228  -19.7902   20.9891 C   0  0  0  0  0  0  0  0  0  0  0  0
  -25.5844  -12.0931   20.5595 C   0  0  0  0  0  0  0  0  0  0  0  0
  -28.4629  -21.9655   20.8887 C   0  0  0  0  0  0  0  0  0  0  0  0
  -23.4285  -10.8578   20.8324 C   0  0  0  0  0  0  0  0  0  0  0  0
  -23.8904  -29.7487   23.2329 C   0  0  0  0  0  0  0  0  0  0  0  0
  -28.6066  -23.3106   18.0422 C   0  0  0  0  0  0  0  0  0  0  0  0
  -21.8936  -29.7105   20.6768 C   0  0  0  0  0  0  0  0  0  0  0  0
  -30.6277  -18.1571   21.1452 C   0  0  0  0  0  0  0  0  0  0  0  0
  -21.4794  -29.1764   17.3316 C   0  0  0  0  0  0  0  0  0  0  0  0
  -29.6845  -16.0043   22.0508 C   0  0  0  0  0  0  0  0  0  0  0  0
  -23.8898  -31.7030   27.9487 C   0  0  0  0  0  0  0  0  0  0  0  0
  -25.1584  -31.1714   21.5824 C   0  0  0  0  0  0  0  0  0  0  0  0
  -24.1697  -28.6735   20.3463 C   0  0  0  0  0  0  0  0  0  0  0  0
  -22.8230  -31.2799   26.9421 C   0  0  0  0  0  0  0  0  0  0  0  0
  -29.0149  -14.8744   18.7258 C   0  0  0  0  0  0  0  0  0  0  0  0
  -23.1289  -29.8903   26.3924 C   0  0  0  0  0  0  0  0  0  0  0  0
  -27.6339  -14.2390   18.8909 C   0  0  0  0  0  0  0  0  0  0  0  0
  -29.1546  -16.1456   19.5615 C   0  0  0  0  0  0  0  0  0  0  0  0
  -27.4662  -15.3211   21.1713 C   0  0  0  0  0  0  0  0  0  0  0  0
  -24.4702  -29.8739   25.6493 C   0  0  1  0  0  0  0  0  0  0  0  0
  -23.8156  -30.5601   21.9705 C   0  0  1  0  0  0  0  0  0  0  0  0
  -27.2980  -14.0156   20.3769 C   0  0  1  0  0  0  0  0  0  0  0  0
  -28.5408  -22.5484   15.6323 C   0  0  0  0  0  0  0  0  0  0  0  0
  -19.7248  -29.1864   15.5376 C   0  0  0  0  0  0  0  0  0  0  0  0
  -30.5250  -25.5022   20.6531 C   0  0  0  0  0  0  0  0  0  0  0  0
  -20.8289  -27.0429   21.7066 C   0  0  0  0  0  0  0  0  0  0  0  0
  -19.8145  -26.6562   19.4506 C   0  0  0  0  0  0  0  0  0  0  0  0
  -19.0764  -28.5979   20.8318 C   0  0  0  0  0  0  0  0  0  0  0  0
  -31.8357  -16.8414   22.8057 C   0  0  0  0  0  0  0  0  0  0  0  0
  -22.8732  -31.3042   15.8187 C   0  0  0  0  0  0  0  0  0  0  0  0
  -29.2905  -18.4825   20.4995 C   0  0  0  0  0  0  0  0  0  0  0  0
  -29.4128  -22.8970   16.8225 C   0  0  0  0  0  0  0  0  0  0  0  0
  -28.4263  -26.0786   19.3681 C   0  0  0  0  0  0  0  0  0  1  0  0
  -29.3594  -23.6865   19.3202 C   0  0  1  0  0  0  0  0  0  0  0  0
  -21.3618  -28.6428   19.7515 C   0  0  1  0  0  0  0  0  0  0  0  0
  -20.7896  -29.9987   16.2581 C   0  0  2  0  0  0  0  0  0  0  0  0
  -29.6816  -25.1926   19.4073 C   0  0  2  0  0  0  0  0  0  0  0  0
  -20.2983  -27.7397   20.4378 C   0  0  0  0  0  0  0  0  0  0  0  0
  -24.8694  -14.2386   20.7424 N   0  0  0  0  0  0  0  0  0  0  0  0
  -29.0511  -20.9447   20.3057 N   0  0  0  0  0  0  0  0  0  0  0  0
  -25.9162  -13.4160   20.5587 N   0  0  0  0  0  0  0  0  0  0  0  0
  -23.2722  -29.6834   20.9310 N   0  0  0  0  0  0  0  0  0  0  0  0
  -28.8026  -15.8815   20.9633 N   0  0  0  0  0  0  0  0  0  0  0  0
  -26.5154  -11.1308   20.3874 N   0  0  0  0  0  0  0  0  0  0  0  0
  -22.0489  -10.9906   21.0403 N   0  0  0  0  0  0  0  0  0  0  0  0
  -28.5736  -23.2545   20.4703 N   0  0  0  0  0  0  0  0  0  0  0  0
  -24.3266  -30.4605   24.3341 N   0  0  0  0  0  0  0  0  0  0  0  0
  -20.8789  -29.3366   18.5625 N   0  0  0  0  0  0  0  0  0  0  0  0
  -30.7089  -16.9615   21.8926 N   0  0  0  0  0  0  0  0  0  0  0  0
  -21.7810  -30.4722   15.2512 N   0  3  0  0  0  0  0  0  0  0  0  0
  -23.9270   -9.7108   20.7344 O   0  0  0  0  0  0  0  0  0  0  0  0
  -23.5743  -28.5650   23.2100 O   0  0  0  0  0  0  0  0  0  0  0  0
  -27.3754  -23.3490   17.9762 O   0  0  0  0  0  0  0  0  0  0  0  0
  -21.1157  -30.5423   21.1507 O   0  0  0  0  0  0  0  0  0  0  0  0
  -31.5622  -18.9584   21.0438 O   0  0  0  0  0  0  0  0  0  0  0  0
  -22.4514  -28.4605   17.1006 O   0  0  0  0  0  0  0  0  0  0  0  0
  -29.6012  -15.3218   23.0769 O   0  0  0  0  0  0  0  0  0  0  0  0
  -18.6767  -15.3767   21.6927 O   0  0  0  0  0  0  0  0  0  0  0  0
  -28.8066  -27.4498   19.3389 O   0  0  0  0  0  0  0  0  0  1  0  0
  -15.5858  -12.9385   25.5535 F   0  0  0  0  0  0  0  0  0  0  0  0
  -18.0408  -12.6922   21.5140 F   0  0  0  0  0  0  0  0  0  0  0  0
  -27.5005  -21.6095   22.2642 S   0  0  0  0  0  0  0  0  0  0  0  0
  1  2  1  0  0  0  0
  1  5  2  0  0  0  0
  2  6  2  0  0  0  0
  3  8  2  0  0  0  0
  3 16  1  0  0  0  0
  4  9  1  0  0  0  0
  4 16  2  0  0  0  0
  5 18  1  0  0  0  0
  6 20  1  0  0  0  0
  7 10  2  0  0  0  0
  7 19  1  0  0  0  0
  8 22  1  0  0  0  0
  9 22  2  0  0  0  0
 10 23  1  0  0  0  0
 11 12  2  0  0  0  0
 11 24  1  0  0  0  0
 12 25  1  0  0  0  0
 13 21  1  0  0  0  0
 13 23  2  0  0  0  0
 14 25  2  0  0  0  0
 14 26  1  0  0  0  0
 15 28  2  0  0  0  0
 15 89  1  0  0  0  0
 16 27  1  0  0  0  0
 17 27  1  0  0  0  0
 17 29  2  0  0  0  0
 17 31  1  0  0  0  0
 18 20  2  0  0  0  0
 18 38  1  0  0  0  0
 19 21  2  0  0  0  0
 19 39  1  0  0  0  0
 20 47  1  0  0  0  0
 21 40  1  0  0  0  0
 22 85  1  0  0  0  0
 23 86  1  0  0  0  0
 24 26  2  0  0  0  0
 24 85  1  0  0  0  0
 25 87  1  0  0  0  0
 26 88  1  0  0  0  0
 27 66  2  0  0  0  0
 28 58  1  0  0  0  0
 28 67  1  0  0  0  0
 29 68  1  0  0  0  0
 29 71  1  0  0  0  0
 30 67  2  0  0  0  0
 30 73  1  0  0  0  0
 30 89  1  0  0  0  0
 31 72  1  0  0  0  0
 31 78  2  0  0  0  0
 32 48  1  0  0  0  0
 32 74  1  0  0  0  0
 32 79  2  0  0  0  0
 33 59  1  0  0  0  0
 33 61  1  0  0  0  0
 33 80  2  0  0  0  0
 34 62  1  0  0  0  0
 34 69  1  0  0  0  0
 34 81  2  0  0  0  0
 35 58  1  0  0  0  0
 35 76  1  0  0  0  0
 35 82  2  0  0  0  0
 36 63  1  0  0  0  0
 36 75  1  0  0  0  0
 36 83  2  0  0  0  0
 37 70  1  0  0  0  0
 37 76  1  0  0  0  0
 37 84  2  0  0  0  0
 38 41  1  0  0  0  0
 39 48  1  0  0  0  0
 40 69  1  0  0  0  0
 41 43  1  0  0  0  0
 42 44  1  0  0  0  0
 42 45  1  0  0  0  0
 43 47  1  0  0  0  0
 44 49  1  0  0  0  0
 45 70  1  0  0  0  0
 46 49  1  0  0  0  0
 46 70  1  0  0  0  0
 47 74  1  0  0  0  0
 48 69  1  0  0  0  0
 49 68  1  0  0  0  0
 50 59  1  0  0  0  0
 51 63  1  0  0  0  0
 52 64  1  0  0  0  0
 53 65  1  0  0  0  0
 54 65  1  0  0  0  0
 55 65  1  0  0  0  0
 56 76  1  0  0  0  0
 57 77  1  0  0  0  0
 60 64  1  0  0  0  0
 60 86  1  0  0  0  0
 61 64  1  0  0  0  0
 61 73  1  0  0  0  0
 62 65  1  0  0  0  0
 62 75  1  0  0  0  0
 63 77  1  0  0  0  0
 66 68  1  0  0  0  0
M  CHG  1  77   1
M  ISO  4  37 100  60 101  76 100  86 101
M  END
> <Batch ID>
0190

> <Smiles>
CCC(=O)C(Nc1nc(CC(=O)[100N:0](C)[100C:0](=O)N2CCCC(n3nc(-c4ccc(Oc5ccc(F)cc5F)cc4)c(C(N)=O)c3N)C2)cs1)C(C)[101CH2:1][101O:1]c1ccc2c(c1)CN(C(=O)C(NC(=O)C(C)NC)C(C)(C)C)C(C(=O)NC1CCCc3ccccc31)C2

> <Shape>
0.294

> <Color>
0.083

> <Negative vol penalty>
0.000

$$$$

  -OEChem-04052305213D

 86 94  0     1  0  0  0  0  0999 V2000
  -23.1837  -33.6135   25.1438 C   0  0  0  0  0  0  0  0  0  0  0  0
  -24.0069  -32.5671   24.7404 C   0  0  0  0  0  0  0  0  0  0  0  0
  -27.0272  -12.5332   21.0515 C   0  0  0  0  0  0  0  0  0  0  0  0
  -26.6841  -13.1058   18.7295 C   0  0  0  0  0  0  0  0  0  0  0  0
  -21.7989  -33.4890   25.0409 C   0  0  0  0  0  0  0  0  0  0  0  0
  -23.4457  -31.3950   24.2348 C   0  0  0  0  0  0  0  0  0  0  0  0
  -25.8141  -29.7442   20.0742 C   0  0  0  0  0  0  0  0  0  0  0  0
  -26.3879  -11.3109   20.8445 C   0  0  0  0  0  0  0  0  0  0  0  0
  -26.0449  -11.8834   18.5225 C   0  0  0  0  0  0  0  0  0  0  0  0
  -27.0258  -29.0782   20.2533 C   0  0  0  0  0  0  0  0  0  0  0  0
  -24.5269   -8.1911   21.0109 C   0  0  0  0  0  0  0  0  0  0  0  0
  -23.5881   -7.7801   21.9570 C   0  0  0  0  0  0  0  0  0  0  0  0
  -25.8938  -26.9631   19.9996 C   0  0  0  0  0  0  0  0  0  0  0  0
  -28.0170  -22.6222   18.5621 C   0  0  0  0  0  0  0  0  0  0  0  0
  -22.2764   -9.7605   21.5158 C   0  0  0  0  0  0  0  0  0  0  0  0
  -28.7248  -23.7596   16.5969 C   0  0  0  0  0  0  0  0  0  0  0  0
  -27.1752  -13.4307   19.9940 C   0  0  0  0  0  0  0  0  0  0  0  0
  -29.2090  -14.9687   20.0719 C   0  0  0  0  0  0  0  0  0  0  0  0
  -21.2207  -32.3185   24.5248 C   0  0  0  0  0  0  0  0  0  0  0  0
  -24.6294  -29.0231   19.8671 C   0  0  0  0  0  0  0  0  0  0  0  0
  -22.0517  -31.2541   24.1262 C   0  0  0  0  0  0  0  0  0  0  0  0
  -24.6688  -27.6224   19.8157 C   0  0  0  0  0  0  0  0  0  0  0  0
  -27.4341  -21.6523   17.7541 C   0  0  0  0  0  0  0  0  0  0  0  0
  -28.6766  -23.6991   17.9803 C   0  0  0  0  0  0  0  0  0  0  0  0
  -25.8968  -10.9860   19.5800 C   0  0  0  0  0  0  0  0  0  0  0  0
  -27.0653  -27.6874   20.2189 C   0  0  0  0  0  0  0  0  0  0  0  0
  -24.3406   -9.3869   20.3172 C   0  0  0  0  0  0  0  0  0  0  0  0
  -22.4628   -8.5648   22.2095 C   0  0  0  0  0  0  0  0  0  0  0  0
  -23.2153  -10.1716   20.5696 C   0  0  0  0  0  0  0  0  0  0  0  0
  -27.8350  -14.6938   20.2073 C   0  0  0  0  0  0  0  0  0  0  0  0
  -27.5377  -21.8045   16.3808 C   0  0  0  0  0  0  0  0  0  0  0  0
  -29.3247  -16.3016   20.3827 C   0  0  0  0  0  0  0  0  0  0  0  0
  -30.2845  -14.0972   19.6986 C   0  0  0  0  0  0  0  0  0  0  0  0
  -21.8786  -28.7306   21.4327 C   0  0  0  0  0  0  0  0  0  0  0  0
  -21.0276  -26.9982   18.8256 C   0  0  0  0  0  0  0  0  0  0  0  0
  -29.9665  -25.8329   18.3422 C   0  0  0  0  0  0  0  0  0  0  0  0
  -22.0053  -25.1055   16.1594 C   0  0  0  0  0  0  0  0  0  0  0  0
  -25.0042  -20.6421   20.2024 C   0  0  0  0  0  0  0  0  0  0  0  0
  -19.7170  -32.2118   24.4769 C   0  0  0  0  0  0  0  0  0  0  0  0
  -23.3348  -29.7572   19.6490 C   0  0  0  0  0  0  0  0  0  0  0  0
  -23.4284  -26.8024   19.5762 C   0  0  0  0  0  0  0  0  0  0  0  0
  -19.2148  -31.0823   23.5811 C   0  0  0  0  0  0  0  0  0  0  0  0
  -27.2727  -19.7435   22.9860 C   0  0  0  0  0  0  0  0  0  0  0  0
  -19.9897  -29.7976   23.8567 C   0  0  0  0  0  0  0  0  0  0  0  0
  -27.7299  -18.3372   22.6024 C   0  0  0  0  0  0  0  0  0  0  0  0
  -25.8865  -20.0600   22.4327 C   0  0  0  0  0  0  0  0  0  0  0  0
  -26.2233  -18.4591   20.5786 C   0  0  0  0  0  0  0  0  0  0  0  0
  -21.4814  -29.9765   23.5495 C   0  0  1  0  0  0  0  0  0  0  0  0
  -22.1064  -28.9070   19.9580 C   0  0  1  0  0  0  0  0  0  0  0  0
  -27.6360  -18.1256   21.0813 C   0  0  2  0  0  0  0  0  0  0  0  0
  -31.7744  -27.3642   19.1390 C   0  0  0  0  0  0  0  0  0  0  0  0
  -21.0808  -23.7947   14.2295 C   0  0  0  0  0  0  0  0  0  0  0  0
  -20.2491  -24.7461   20.7313 C   0  0  0  0  0  0  0  0  0  0  0  0
  -20.2493  -23.1843   18.7745 C   0  0  0  0  0  0  0  0  0  0  0  0
  -18.6584  -25.1047   18.8351 C   0  0  0  0  0  0  0  0  0  0  0  0
  -24.6067  -21.7152   18.0184 C   0  0  0  0  0  0  0  0  0  0  0  0
  -23.3748  -26.8298   14.1819 C   0  0  0  0  0  0  0  0  0  0  0  0
  -26.7222  -20.4906   18.3509 C   0  0  0  0  0  0  0  0  0  0  0  0
  -29.4298  -27.7069   19.9642 C   0  0  0  0  0  0  0  0  0  1  0  0
  -21.1158  -25.5431   18.4335 C   0  0  1  0  0  0  0  0  0  0  0  0
  -30.4683  -26.6714   19.5259 C   0  0  1  0  0  0  0  0  0  0  0  0
  -21.6046  -25.1442   14.6957 C   0  0  2  0  0  0  0  0  0  0  0  0
  -20.0914  -24.6596   19.2001 C   0  0  0  0  0  0  0  0  0  0  0  0
  -28.1704  -22.8367   15.7792 N   0  0  0  0  0  0  0  0  0  0  0  0
  -27.1284  -15.7658   20.5756 N   0  0  0  0  0  0  0  0  0  0  0  0
  -28.0622  -16.7273   20.6743 N   0  0  0  0  0  0  0  0  0  0  0  0
  -22.1859  -27.5661   19.3749 N   0  0  0  0  0  0  0  0  0  0  0  0
  -25.8129  -19.8091   20.9930 N   0  0  0  0  0  0  0  0  0  0  0  0
  -30.3822  -17.1392   20.4323 N   0  0  0  0  0  0  0  0  0  0  0  0
  -29.9901  -12.7572   19.4124 N   0  0  0  0  0  0  0  0  0  0  0  0
  -29.2798  -24.7020   18.7762 N   0  0  0  0  0  0  0  0  0  0  0  0
  -21.7142  -29.9167   22.1224 N   0  0  0  0  0  0  0  0  0  0  0  0
  -20.9723  -25.5019   16.9823 N   0  0  0  0  0  0  0  0  0  0  0  0
  -25.4061  -20.8502   18.8743 N   0  0  0  0  0  0  0  0  0  0  0  0
  -22.7737  -25.5129   13.8482 N   0  3  0  0  0  0  0  0  0  0  0  0
  -31.4739  -14.4911   19.6370 O   0  0  0  0  0  0  0  0  0  0  0  0
  -21.8522  -27.6020   21.9093 O   0  0  0  0  0  0  0  0  0  0  0  0
  -19.9721  -27.6105   18.6443 O   0  0  0  0  0  0  0  0  0  0  0  0
  -30.1826  -26.1641   17.1800 O   0  0  0  0  0  0  0  0  0  0  0  0
  -23.1216  -24.7550   16.5354 O   0  0  0  0  0  0  0  0  0  0  0  0
  -23.9866  -21.1773   20.6605 O   0  0  0  0  0  0  0  0  0  0  0  0
  -25.2732   -9.7932   19.3776 O   0  0  0  0  0  0  0  0  0  0  0  0
  -28.2466  -27.0348   20.3940 O   0  0  0  0  0  0  0  0  0  1  0  0
  -21.5605   -8.1692   23.1170 F   0  0  0  0  0  0  0  0  0  0  0  0
  -23.0303  -11.3207   19.9055 F   0  0  0  0  0  0  0  0  0  0  0  0
  -26.9819  -20.8805   15.5807 F   0  0  0  0  0  0  0  0  0  0  0  0
  1  2  1  0  0  0  0
  1  5  2  0  0  0  0
  2  6  2  0  0  0  0
  3  8  2  0  0  0  0
  3 17  1  0  0  0  0
  4  9  1  0  0  0  0
  4 17  2  0  0  0  0
  5 19  1  0  0  0  0
  6 21  1  0  0  0  0
  7 10  2  0  0  0  0
  7 20  1  0  0  0  0
  8 25  1  0  0  0  0
  9 25  2  0  0  0  0
 10 26  1  0  0  0  0
 11 12  2  0  0  0  0
 11 27  1  0  0  0  0
 12 28  1  0  0  0  0
 13 22  1  0  0  0  0
 13 26  2  0  0  0  0
 14 23  1  0  0  0  0
 14 24  2  0  0  0  0
 15 28  2  0  0  0  0
 15 29  1  0  0  0  0
 16 24  1  0  0  0  0
 16 64  2  0  0  0  0
 17 30  1  0  0  0  0
 18 30  1  0  0  0  0
 18 32  2  0  0  0  0
 18 33  1  0  0  0  0
 19 21  2  0  0  0  0
 19 39  1  0  0  0  0
 20 22  2  0  0  0  0
 20 40  1  0  0  0  0
 21 48  1  0  0  0  0
 22 41  1  0  0  0  0
 23 31  2  0  0  0  0
 23 58  1  0  0  0  0
 24 71  1  0  0  0  0
 25 82  1  0  0  0  0
 26 83  1  0  0  0  0
 27 29  2  0  0  0  0
 27 82  1  0  0  0  0
 28 84  1  0  0  0  0
 29 85  1  0  0  0  0
 30 65  2  0  0  0  0
 31 64  1  0  0  0  0
 31 86  1  0  0  0  0
 32 66  1  0  0  0  0
 32 69  1  0  0  0  0
 33 70  1  0  0  0  0
 33 76  2  0  0  0  0
 34 49  1  0  0  0  0
 34 72  1  0  0  0  0
 34 77  2  0  0  0  0
 35 60  1  0  0  0  0
 35 67  1  0  0  0  0
 35 78  2  0  0  0  0
 36 61  1  0  0  0  0
 36 71  1  0  0  0  0
 36 79  2  0  0  0  0
 37 62  1  0  0  0  0
 37 73  1  0  0  0  0
 37 80  2  0  0  0  0
 38 68  1  0  0  0  0
 38 74  1  0  0  0  0
 38 81  2  0  0  0  0
 39 42  1  0  0  0  0
 40 49  1  0  0  0  0
 41 67  1  0  0  0  0
 42 44  1  0  0  0  0
 43 45  1  0  0  0  0
 43 46  1  0  0  0  0
 44 48  1  0  0  0  0
 45 50  1  0  0  0  0
 46 68  1  0  0  0  0
 47 50  1  0  0  0  0
 47 68  1  0  0  0  0
 48 72  1  0  0  0  0
 49 67  1  0  0  0  0
 50 66  1  0  0  0  0
 51 61  1  0  0  0  0
 52 62  1  0  0  0  0
 53 63  1  0  0  0  0
 54 63  1  0  0  0  0
 55 63  1  0  0  0  0
 56 74  1  0  0  0  0
 57 75  1  0  0  0  0
 58 74  1  0  0  0  0
 59 61  1  0  0  0  0
 59 83  1  0  0  0  0
 60 63  1  0  0  0  0
 60 73  1  0  0  0  0
 62 75  1  0  0  0  0
 65 66  1  0  0  0  0
M  CHG  1  75   1
M  ISO  4  38 100  59 101  74 100  83 101
M  END
> <Batch ID>
0190

> <Smiles>
CNC(C)C(=O)NC(C(=O)N1Cc2cc([101O:1][101CH2:1]C(C)C(=O)Nc3cnc(F)c(C[100N:0](C)[100C:0](=O)N4CCCC(n5nc(-c6ccc(Oc7ccc(F)cc7F)cc6)c(C(N)=O)c5N)C4)c3)ccc2CC1C(=O)NC1CCCc2ccccc21)C(C)(C)C

> <Shape>
0.240

> <Color>
0.089

> <Negative vol penalty>
0.000

$$$$

  -OEChem-04052305213D

 84 92  0     1  0  0  0  0  0999 V2000
  -16.5129  -29.6897   23.2669 C   0  0  0  0  0  0  0  0  0  0  0  0
  -17.5283  -30.5395   23.6938 C   0  0  0  0  0  0  0  0  0  0  0  0
  -24.5492  -15.1835   20.0830 C   0  0  0  0  0  0  0  0  0  0  0  0
  -26.7713  -15.2251   21.0306 C   0  0  0  0  0  0  0  0  0  0  0  0
  -16.8196  -28.3984   22.8398 C   0  0  0  0  0  0  0  0  0  0  0  0
  -18.8510  -30.0979   23.6949 C   0  0  0  0  0  0  0  0  0  0  0  0
  -25.5362  -32.4907   22.7462 C   0  0  0  0  0  0  0  0  0  0  0  0
  -24.5754  -13.7890   20.0828 C   0  0  0  0  0  0  0  0  0  0  0  0
  -26.7974  -13.8305   21.0305 C   0  0  0  0  0  0  0  0  0  0  0  0
  -26.7792  -32.4925   23.3775 C   0  0  0  0  0  0  0  0  0  0  0  0
  -24.1549  -11.2895   22.3208 C   0  0  0  0  0  0  0  0  0  0  0  0
  -23.0221  -10.6198   22.7835 C   0  0  0  0  0  0  0  0  0  0  0  0
  -27.1995  -30.2684   22.5433 C   0  0  0  0  0  0  0  0  0  0  0  0
  -22.7797   -9.5444   20.6337 C   0  0  0  0  0  0  0  0  0  0  0  0
  -29.4025  -26.8445   20.8534 C   0  0  0  0  0  0  0  0  0  0  0  0
  -25.6472  -15.9017   20.5568 C   0  0  0  0  0  0  0  0  0  0  0  0
  -25.1653  -18.1843   21.5887 C   0  0  0  0  0  0  0  0  0  0  0  0
  -18.1478  -27.9441   22.8265 C   0  0  0  0  0  0  0  0  0  0  0  0
  -25.1101  -31.3715   22.0165 C   0  0  0  0  0  0  0  0  0  0  0  0
  -19.1756  -28.7989   23.2685 C   0  0  0  0  0  0  0  0  0  0  0  0
  -25.9516  -30.2559   21.9015 C   0  0  0  0  0  0  0  0  0  0  0  0
  -25.6994  -13.1124   20.5566 C   0  0  0  0  0  0  0  0  0  0  0  0
  -27.6099  -31.3802   23.2785 C   0  0  0  0  0  0  0  0  0  0  0  0
  -24.6000  -11.0866   21.0145 C   0  0  0  0  0  0  0  0  0  0  0  0
  -22.3346   -9.7473   21.9400 C   0  0  0  0  0  0  0  0  0  0  0  0
  -23.9125  -10.2141   20.1710 C   0  0  0  0  0  0  0  0  0  0  0  0
  -25.6210  -17.3423   20.5567 C   0  0  0  0  0  0  0  0  0  0  0  0
  -29.2478  -26.4246   22.1580 C   0  0  0  0  0  0  0  0  0  0  0  0
  -25.3502  -19.4552   21.1017 C   0  0  0  0  0  0  0  0  0  0  0  0
  -28.8212  -24.7659   20.4640 C   0  0  0  0  0  0  0  0  0  0  0  0
  -24.6235  -17.8478   22.8728 C   0  0  0  0  0  0  0  0  0  0  0  0
  -29.4525  -27.2615   23.3572 C   0  0  0  0  0  0  0  0  0  0  0  0
  -22.6909  -29.3239   22.2587 C   0  0  0  0  0  0  0  0  0  0  0  0
  -23.8495  -28.2239   19.4357 C   0  0  0  0  0  0  0  0  0  0  0  0
  -26.5082  -27.9139   17.3186 C   0  0  0  0  0  0  0  0  0  0  0  0
  -28.4514  -23.2625   18.4768 C   0  0  0  0  0  0  0  0  0  0  0  0
  -18.4250  -26.5240   22.4010 C   0  0  0  0  0  0  0  0  0  0  0  0
  -23.7776  -31.3957   21.3191 C   0  0  0  0  0  0  0  0  0  0  0  0
  -25.5495  -29.0372   21.1131 C   0  0  0  0  0  0  0  0  0  0  0  0
  -19.8937  -26.2605   22.0787 C   0  0  0  0  0  0  0  0  0  0  0  0
  -26.5250  -21.0608   16.4473 C   0  0  0  0  0  0  0  0  0  0  0  0
  -20.7916  -26.8435   23.1653 C   0  0  0  0  0  0  0  0  0  0  0  0
  -26.0806  -19.9664   17.4204 C   0  0  0  0  0  0  0  0  0  0  0  0
  -27.9402  -21.5492   16.7510 C   0  0  0  0  0  0  0  0  0  0  0  0
  -27.7219  -20.8791   19.1116 C   0  0  0  0  0  0  0  0  0  0  0  0
  -20.6253  -28.3649   23.2609 C   0  0  1  0  0  0  0  0  0  0  0  0
  -23.2289  -30.0018   21.0304 C   0  0  1  0  0  0  0  0  0  0  0  0
  -26.2782  -20.4011   18.8859 C   0  0  2  0  0  0  0  0  0  0  0  0
  -27.1580  -26.9305   15.1032 C   0  0  0  0  0  0  0  0  0  0  0  0
  -31.7382  -28.5040   25.2491 C   0  0  0  0  0  0  0  0  0  0  0  0
  -30.4321  -32.5881   22.5876 C   0  0  0  0  0  0  0  0  0  0  0  0
  -23.9356  -25.4466   20.6964 C   0  0  0  0  0  0  0  0  0  0  0  0
  -25.4395  -24.7224   18.8304 C   0  0  0  0  0  0  0  0  0  0  0  0
  -23.1203  -25.4944   18.3327 C   0  0  0  0  0  0  0  0  0  0  0  0
  -27.1939  -30.5707   16.2094 C   0  0  0  0  0  0  0  0  0  0  0  0
  -31.0750  -30.5113   23.8648 C   0  0  0  0  0  0  0  0  0  0  0  0
  -24.8665  -27.1847   19.0295 C   0  0  1  0  0  0  0  0  0  0  0  0
  -26.6430  -28.1646   15.8274 C   0  0  2  0  0  0  0  0  0  0  0  0
  -30.6399  -29.1493   24.4168 C   0  0  1  0  0  0  0  0  0  0  0  0
  -29.9727  -31.2163   23.0643 C   0  0  1  0  0  0  0  0  0  1  0  0
  -24.3475  -25.7341   19.2388 C   0  0  0  0  0  0  0  0  0  0  0  0
  -29.1587  -25.8946   19.8807 N   0  0  0  0  0  0  0  0  0  0  0  0
  -26.0620  -18.0211   19.4942 N   0  0  0  0  0  0  0  0  0  0  0  0
  -25.8842  -19.3031   19.8560 N   0  0  0  0  0  0  0  0  0  0  0  0
  -24.2346  -29.1066   20.4546 N   0  0  0  0  0  0  0  0  0  0  0  0
  -28.0514  -21.9480   18.1557 N   0  0  0  0  0  0  0  0  0  0  0  0
  -25.1062  -20.6769   21.6218 N   0  0  0  0  0  0  0  0  0  0  0  0
  -24.5030  -16.4935   23.2130 N   0  0  0  0  0  0  0  0  0  0  0  0
  -28.7334  -26.9863   24.4454 N   0  0  0  0  0  0  0  0  0  0  0  0
  -28.4896  -23.5359   19.8436 N   0  0  0  0  0  0  0  0  0  0  0  0
  -21.3447  -29.0202   22.1897 N   0  0  0  0  0  0  0  0  0  0  0  0
  -25.2383  -27.4936   17.6530 N   0  0  0  0  0  0  0  0  0  0  0  0
  -30.3459  -28.2538   23.2918 N   0  3  0  0  0  0  0  0  0  0  0  0
  -27.5898  -29.2873   15.5745 N   0  3  0  0  0  0  0  0  0  0  0  0
  -24.2419  -18.7218   23.6876 O   0  0  0  0  0  0  0  0  0  0  0  0
  -23.4420  -29.0922   23.1989 O   0  0  0  0  0  0  0  0  0  0  0  0
  -22.7565  -28.2558   18.8648 O   0  0  0  0  0  0  0  0  0  0  0  0
  -27.4376  -28.0714   18.1072 O   0  0  0  0  0  0  0  0  0  0  0  0
  -28.7126  -24.0930   17.6027 O   0  0  0  0  0  0  0  0  0  0  0  0
  -25.7252  -11.7516   20.5569 O   0  0  0  0  0  0  0  0  0  0  0  0
  -28.8234  -31.3791   23.8943 O   0  0  0  0  0  0  0  0  0  1  0  0
  -21.2477   -9.1031   22.3850 F   0  0  0  0  0  0  0  0  0  0  0  0
  -24.3360  -10.0142   18.9154 F   0  0  0  0  0  0  0  0  0  0  0  0
  -28.7762  -24.7758   22.1795 S   0  0  0  0  0  0  0  0  0  0  0  0
  1  2  1  0  0  0  0
  1  5  2  0  0  0  0
  2  6  2  0  0  0  0
  3  8  2  0  0  0  0
  3 16  1  0  0  0  0
  4  9  1  0  0  0  0
  4 16  2  0  0  0  0
  5 18  1  0  0  0  0
  6 20  1  0  0  0  0
  7 10  2  0  0  0  0
  7 19  1  0  0  0  0
  8 22  1  0  0  0  0
  9 22  2  0  0  0  0
 10 23  1  0  0  0  0
 11 12  2  0  0  0  0
 11 24  1  0  0  0  0
 12 25  1  0  0  0  0
 13 21  1  0  0  0  0
 13 23  2  0  0  0  0
 14 25  2  0  0  0  0
 14 26  1  0  0  0  0
 15 28  2  0  0  0  0
 15 62  1  0  0  0  0
 16 27  1  0  0  0  0
 17 27  1  0  0  0  0
 17 29  2  0  0  0  0
 17 31  1  0  0  0  0
 18 20  2  0  0  0  0
 18 37  1  0  0  0  0
 19 21  2  0  0  0  0
 19 38  1  0  0  0  0
 20 46  1  0  0  0  0
 21 39  1  0  0  0  0
 22 80  1  0  0  0  0
 23 81  1  0  0  0  0
 24 26  2  0  0  0  0
 24 80  1  0  0  0  0
 25 82  1  0  0  0  0
 26 83  1  0  0  0  0
 27 63  2  0  0  0  0
 28 32  1  0  0  0  0
 28 84  1  0  0  0  0
 29 64  1  0  0  0  0
 29 67  1  0  0  0  0
 30 62  2  0  0  0  0
 30 70  1  0  0  0  0
 30 84  1  0  0  0  0
 31 68  1  0  0  0  0
 31 75  2  0  0  0  0
 32 69  1  0  0  0  0
 32 73  2  0  0  0  0
 33 47  1  0  0  0  0
 33 71  1  0  0  0  0
 33 76  2  0  0  0  0
 34 57  1  0  0  0  0
 34 65  1  0  0  0  0
 34 77  2  0  0  0  0
 35 58  1  0  0  0  0
 35 72  1  0  0  0  0
 35 78  2  0  0  0  0
 36 66  1  0  0  0  0
 36 70  1  0  0  0  0
 36 79  2  0  0  0  0
 37 40  1  0  0  0  0
 38 47  1  0  0  0  0
 39 65  1  0  0  0  0
 40 42  1  0  0  0  0
 41 43  1  0  0  0  0
 41 44  1  0  0  0  0
 42 46  1  0  0  0  0
 43 48  1  0  0  0  0
 44 66  1  0  0  0  0
 45 48  1  0  0  0  0
 45 66  1  0  0  0  0
 46 71  1  0  0  0  0
 47 65  1  0  0  0  0
 48 64  1  0  0  0  0
 49 58  1  0  0  0  0
 50 59  1  0  0  0  0
 51 60  1  0  0  0  0
 52 61  1  0  0  0  0
 53 61  1  0  0  0  0
 54 61  1  0  0  0  0
 55 74  1  0  0  0  0
 56 59  1  0  0  0  0
 56 60  1  0  0  0  0
 57 61  1  0  0  0  0
 57 72  1  0  0  0  0
 58 74  1  0  0  0  0
 59 73  1  0  0  0  0
 60 81  1  0  0  0  0
 63 64  1  0  0  0  0
M  CHG  2  73   1  74   1
M  ISO  4  36 100  60 101  70 100  81 101
M  END
> <Batch ID>
0190

> <Smiles>
CNC(C)C(=O)NC(C(=O)N1Cc2cc([101O:1][101CH:1](C)CC(C)NC(=N)c3cnc([100NH:0][100C:0](=O)N4CCCC(n5nc(-c6ccc(Oc7ccc(F)cc7F)cc6)c(C(N)=O)c5N)C4)s3)ccc2CC1C(=O)NC1CCCc2ccccc21)C(C)(C)C

> <Shape>
0.267

> <Color>
0.117

> <Negative vol penalty>
0.000

$$$$

  -OEChem-04052305213D

 86 94  0     1  0  0  0  0  0999 V2000
  -36.1002  -28.6013   10.3706 C   0  0  0  0  0  0  0  0  0  0  0  0
  -35.8228  -28.1277   11.6490 C   0  0  0  0  0  0  0  0  0  0  0  0
  -23.0782   -9.9055   19.9181 C   0  0  0  0  0  0  0  0  0  0  0  0
  -23.8470   -9.8768   22.2083 C   0  0  0  0  0  0  0  0  0  0  0  0
  -35.0627  -29.0505    9.5546 C   0  0  0  0  0  0  0  0  0  0  0  0
  -34.5079  -28.1041   12.1125 C   0  0  0  0  0  0  0  0  0  0  0  0
  -31.9873  -23.9363   15.8249 C   0  0  0  0  0  0  0  0  0  0  0  0
  -22.3329   -8.7502   20.1538 C   0  0  0  0  0  0  0  0  0  0  0  0
  -23.1017   -8.7215   22.4440 C   0  0  0  0  0  0  0  0  0  0  0  0
  -31.7427  -23.9285   17.1974 C   0  0  0  0  0  0  0  0  0  0  0  0
  -19.8743   -7.9213   23.0473 C   0  0  0  0  0  0  0  0  0  0  0  0
  -19.1218   -7.8654   24.2204 C   0  0  0  0  0  0  0  0  0  0  0  0
  -29.4828  -24.6687   16.7928 C   0  0  0  0  0  0  0  0  0  0  0  0
  -20.3621   -5.9147   24.9230 C   0  0  0  0  0  0  0  0  0  0  0  0
  -31.8134  -17.5713   21.7838 C   0  0  0  0  0  0  0  0  0  0  0  0
  -23.8353  -10.4687   20.9454 C   0  0  0  0  0  0  0  0  0  0  0  0
  -24.1819  -12.9947   20.8616 C   0  0  0  0  0  0  0  0  0  0  0  0
  -33.7334  -29.0233   10.0048 C   0  0  0  0  0  0  0  0  0  0  0  0
  -30.9831  -24.3215   14.9251 C   0  0  0  0  0  0  0  0  0  0  0  0
  -33.4519  -28.5546   11.3022 C   0  0  0  0  0  0  0  0  0  0  0  0
  -29.7163  -24.6781   15.4092 C   0  0  0  0  0  0  0  0  0  0  0  0
  -22.3447   -8.1582   21.4167 C   0  0  0  0  0  0  0  0  0  0  0  0
  -30.4912  -24.2975   17.6818 C   0  0  0  0  0  0  0  0  0  0  0  0
  -20.8706   -6.9738   22.8120 C   0  0  0  0  0  0  0  0  0  0  0  0
  -19.3657   -6.8622   25.1583 C   0  0  0  0  0  0  0  0  0  0  0  0
  -21.1145   -5.9706   23.7499 C   0  0  0  0  0  0  0  0  0  0  0  0
  -24.6058  -11.6618   20.7024 C   0  0  0  0  0  0  0  0  0  0  0  0
  -25.2742  -13.7473   20.5053 C   0  0  0  0  0  0  0  0  0  0  0  0
  -30.6099  -16.9278   21.9825 C   0  0  0  0  0  0  0  0  0  0  0  0
  -30.8613  -19.0499   23.0942 C   0  0  0  0  0  0  0  0  0  0  0  0
  -22.9141  -13.5068   21.2931 C   0  0  0  0  0  0  0  0  0  0  0  0
  -30.6541  -26.6600   12.7975 C   0  0  0  0  0  0  0  0  0  0  0  0
  -29.7090  -22.6289   24.0427 C   0  0  0  0  0  0  0  0  0  0  0  0
  -27.9267  -25.0702   12.0518 C   0  0  0  0  0  0  0  0  0  0  0  0
  -25.4656  -22.9199   13.0347 C   0  0  0  0  0  0  0  0  0  0  0  0
  -30.7432  -14.7791   20.6742 C   0  0  0  0  0  0  0  0  0  0  0  0
  -32.6508  -29.5635    9.1042 C   0  0  0  0  0  0  0  0  0  0  0  0
  -31.2546  -24.2989   13.4459 C   0  0  0  0  0  0  0  0  0  0  0  0
  -28.5981  -25.0802   14.4838 C   0  0  0  0  0  0  0  0  0  0  0  0
  -31.2432  -29.1556    9.5315 C   0  0  0  0  0  0  0  0  0  0  0  0
  -29.6145  -12.4032   18.2745 C   0  0  0  0  0  0  0  0  0  0  0  0
  -31.0600  -29.3618   11.0317 C   0  0  0  0  0  0  0  0  0  0  0  0
  -28.1759  -12.1082   18.7053 C   0  0  0  0  0  0  0  0  0  0  0  0
  -30.5348  -12.6122   19.4758 C   0  0  0  0  0  0  0  0  0  0  0  0
  -28.6347  -13.3198   20.8752 C   0  0  0  0  0  0  0  0  0  0  0  0
  -32.0356  -28.4901   11.8316 C   0  0  1  0  0  0  0  0  0  0  0  0
  -30.3165  -25.2031   12.6523 C   0  0  1  0  0  0  0  0  0  0  0  0
  -27.6570  -13.1661   19.6988 C   0  0  2  0  0  0  0  0  0  0  0  0
  -28.3828  -22.6014   24.7592 C   0  0  0  0  0  0  0  0  0  0  0  0
  -23.3516  -21.8407   12.2201 C   0  0  0  0  0  0  0  0  0  0  0  0
  -26.4321  -27.6996   12.4546 C   0  0  0  0  0  0  0  0  0  0  0  0
  -24.3013  -26.3901   12.5702 C   0  0  0  0  0  0  0  0  0  0  0  0
  -25.6713  -26.3581   10.4858 C   0  0  0  0  0  0  0  0  0  0  0  0
  -26.5995  -20.2028   13.3357 C   0  0  0  0  0  0  0  0  0  0  0  0
  -30.8522  -21.9249   21.8965 C   0  0  0  0  0  0  0  0  0  0  0  0
  -30.9725  -23.3443   19.8068 C   0  0  0  0  0  0  0  0  0  1  0  0
  -30.6402  -20.3006   23.9241 C   0  0  2  0  0  0  0  0  0  0  0  0
  -30.0082  -21.4559   23.1037 C   0  0  1  0  0  0  0  0  0  0  0  0
  -26.4957  -25.1196   12.5299 C   0  0  1  0  0  0  0  0  0  0  0  0
  -24.8601  -21.7043   12.3565 C   0  0  2  0  0  0  0  0  0  0  0  0
  -30.1332  -22.9681   21.0251 C   0  0  1  0  0  0  0  0  0  0  0  0
  -25.7465  -26.3862   12.0279 C   0  0  0  0  0  0  0  0  0  0  0  0
  -31.9592  -18.7885   22.4201 N   0  0  0  0  0  0  0  0  0  0  0  0
  -25.8689  -11.5696   20.2778 N   0  0  0  0  0  0  0  0  0  0  0  0
  -26.2479  -12.8542   20.1671 N   0  0  0  0  0  0  0  0  0  0  0  0
  -28.9148  -25.0483   13.0463 N   0  0  0  0  0  0  0  0  0  0  0  0
  -29.9814  -13.6309   20.3707 N   0  0  0  0  0  0  0  0  0  0  0  0
  -25.4870  -15.0793   20.4513 N   0  0  0  0  0  0  0  0  0  0  0  0
  -21.9016  -12.5947   21.6208 N   0  0  0  0  0  0  0  0  0  0  0  0
  -30.1009  -15.6931   21.5088 N   0  0  0  0  0  0  0  0  0  0  0  0
  -31.5721  -27.1198   11.8726 N   0  0  0  0  0  0  0  0  0  0  0  0
  -25.8839  -23.8609   12.1178 N   0  0  0  0  0  0  0  0  0  0  0  0
  -31.8606  -20.7839   24.6466 N   0  3  0  0  0  0  0  0  0  0  0  0
  -25.1513  -20.4730   13.1440 N   0  3  0  0  0  0  0  0  0  0  0  0
  -22.6806  -14.7369   21.3697 O   0  0  0  0  0  0  0  0  0  0  0  0
  -30.1200  -27.3187   13.6822 O   0  0  0  0  0  0  0  0  0  0  0  0
  -30.5122  -23.5420   24.2334 O   0  0  0  0  0  0  0  0  0  0  0  0
  -28.1591  -25.0445   10.8406 O   0  0  0  0  0  0  0  0  0  0  0  0
  -25.5550  -23.0259   14.2559 O   0  0  0  0  0  0  0  0  0  0  0  0
  -31.8708  -14.9525   20.2047 O   0  0  0  0  0  0  0  0  0  0  0  0
  -28.8845  -22.4418   20.5747 O   0  0  0  0  0  0  0  0  0  0  0  0
  -21.6173   -7.0311   21.6471 O   0  0  0  0  0  0  0  0  0  0  0  0
  -30.2500  -24.2914   19.0211 O   0  0  0  0  0  0  0  0  0  1  0  0
  -18.6441   -6.8096   26.2855 F   0  0  0  0  0  0  0  0  0  0  0  0
  -22.0712   -5.0583   23.5299 F   0  0  0  0  0  0  0  0  0  0  0  0
  -29.6134  -17.8751   23.0077 S   0  0  0  0  0  0  0  0  0  0  0  0
  1  2  1  0  0  0  0
  1  5  2  0  0  0  0
  2  6  2  0  0  0  0
  3  8  2  0  0  0  0
  3 16  1  0  0  0  0
  4  9  1  0  0  0  0
  4 16  2  0  0  0  0
  5 18  1  0  0  0  0
  6 20  1  0  0  0  0
  7 10  2  0  0  0  0
  7 19  1  0  0  0  0
  8 22  1  0  0  0  0
  9 22  2  0  0  0  0
 10 23  1  0  0  0  0
 11 12  2  0  0  0  0
 11 24  1  0  0  0  0
 12 25  1  0  0  0  0
 13 21  1  0  0  0  0
 13 23  2  0  0  0  0
 14 25  2  0  0  0  0
 14 26  1  0  0  0  0
 15 29  2  0  0  0  0
 15 63  1  0  0  0  0
 16 27  1  0  0  0  0
 17 27  1  0  0  0  0
 17 28  2  0  0  0  0
 17 31  1  0  0  0  0
 18 20  2  0  0  0  0
 18 37  1  0  0  0  0
 19 21  2  0  0  0  0
 19 38  1  0  0  0  0
 20 46  1  0  0  0  0
 21 39  1  0  0  0  0
 22 82  1  0  0  0  0
 23 83  1  0  0  0  0
 24 26  2  0  0  0  0
 24 82  1  0  0  0  0
 25 84  1  0  0  0  0
 26 85  1  0  0  0  0
 27 64  2  0  0  0  0
 28 65  1  0  0  0  0
 28 68  1  0  0  0  0
 29 70  1  0  0  0  0
 29 86  1  0  0  0  0
 30 57  1  0  0  0  0
 30 63  2  0  0  0  0
 30 86  1  0  0  0  0
 31 69  1  0  0  0  0
 31 75  2  0  0  0  0
 32 47  1  0  0  0  0
 32 71  1  0  0  0  0
 32 76  2  0  0  0  0
 33 49  1  0  0  0  0
 33 58  1  0  0  0  0
 33 77  2  0  0  0  0
 34 59  1  0  0  0  0
 34 66  1  0  0  0  0
 34 78  2  0  0  0  0
 35 60  1  0  0  0  0
 35 72  1  0  0  0  0
 35 79  2  0  0  0  0
 36 67  1  0  0  0  0
 36 70  1  0  0  0  0
 36 80  2  0  0  0  0
 37 40  1  0  0  0  0
 38 47  1  0  0  0  0
 39 66  1  0  0  0  0
 40 42  1  0  0  0  0
 41 43  1  0  0  0  0
 41 44  1  0  0  0  0
 42 46  1  0  0  0  0
 43 48  1  0  0  0  0
 44 67  1  0  0  0  0
 45 48  1  0  0  0  0
 45 67  1  0  0  0  0
 46 71  1  0  0  0  0
 47 66  1  0  0  0  0
 48 65  1  0  0  0  0
 50 60  1  0  0  0  0
 51 62  1  0  0  0  0
 52 62  1  0  0  0  0
 53 62  1  0  0  0  0
 54 74  1  0  0  0  0
 55 58  1  0  0  0  0
 55 61  1  0  0  0  0
 56 61  1  0  0  0  0
 56 83  1  0  0  0  0
 57 58  1  0  0  0  0
 57 73  1  0  0  0  0
 59 62  1  0  0  0  0
 59 72  1  0  0  0  0
 60 74  1  0  0  0  0
 61 81  1  0  0  0  0
 64 65  1  0  0  0  0
M  CHG  2  73   1  74   1
M  ISO  4  36 100  56 101  70 100  83 101
M  END
> <Batch ID>
0190

> <Smiles>
CNC(C)C(=O)NC(C(=O)N1Cc2cc([101O:1][101CH2:1]C(O)CC(C(C)=O)C(N)c3ncc([100NH:0][100C:0](=O)N4CCCC(n5nc(-c6ccc(Oc7ccc(F)cc7F)cc6)c(C(N)=O)c5N)C4)s3)ccc2CC1C(=O)NC1CCCc2ccccc21)C(C)(C)C

> <Shape>
0.208

> <Color>
0.183

> <Negative vol penalty>
0.000

$$$$

  -OEChem-04052305213D

 84 92  0     1  0  0  0  0  0999 V2000
  -26.7421  -21.4104   26.0651 C   0  0  0  0  0  0  0  0  0  0  0  0
  -26.4347  -20.1329   25.6081 C   0  0  0  0  0  0  0  0  0  0  0  0
  -26.4525  -28.0325   18.8974 C   0  0  0  0  0  0  0  0  0  0  0  0
  -26.1393  -27.0390   21.0773 C   0  0  0  0  0  0  0  0  0  0  0  0
  -27.5883  -22.2310   25.3206 C   0  0  0  0  0  0  0  0  0  0  0  0
  -26.9725  -19.6756   24.4056 C   0  0  0  0  0  0  0  0  0  0  0  0
  -28.7337  -14.9395   24.7415 C   0  0  0  0  0  0  0  0  0  0  0  0
  -25.9942  -29.2549   19.3886 C   0  0  0  0  0  0  0  0  0  0  0  0
  -25.6810  -28.2614   21.5685 C   0  0  0  0  0  0  0  0  0  0  0  0
  -27.7966  -13.9078   24.7063 C   0  0  0  0  0  0  0  0  0  0  0  0
  -24.0886  -31.0275   23.3072 C   0  0  0  0  0  0  0  0  0  0  0  0
  -22.9465  -31.0173   24.1079 C   0  0  0  0  0  0  0  0  0  0  0  0
  -28.3018  -13.5365   22.3769 C   0  0  0  0  0  0  0  0  0  0  0  0
  -21.6799  -30.0558   22.2889 C   0  0  0  0  0  0  0  0  0  0  0  0
  -26.5251  -26.9245   19.7417 C   0  0  0  0  0  0  0  0  0  0  0  0
  -28.3269  -25.1974   19.2144 C   0  0  0  0  0  0  0  0  0  0  0  0
  -28.1445  -21.7800   24.1131 C   0  0  0  0  0  0  0  0  0  0  0  0
  -29.4552  -15.2853   23.5898 C   0  0  0  0  0  0  0  0  0  0  0  0
  -27.8260  -20.4914   23.6435 C   0  0  0  0  0  0  0  0  0  0  0  0
  -29.2492  -14.5713   22.4007 C   0  0  0  0  0  0  0  0  0  0  0  0
  -25.6084  -29.3693   20.7242 C   0  0  0  0  0  0  0  0  0  0  0  0
  -27.5785  -13.2080   23.5232 C   0  0  0  0  0  0  0  0  0  0  0  0
  -24.0264  -30.5519   21.9973 C   0  0  0  0  0  0  0  0  0  0  0  0
  -21.7422  -30.5314   23.5987 C   0  0  0  0  0  0  0  0  0  0  0  0
  -22.8221  -30.0661   21.4882 C   0  0  0  0  0  0  0  0  0  0  0  0
  -26.9979  -25.6614   19.2347 C   0  0  0  0  0  0  0  0  0  0  0  0
  -28.2474  -23.9537   18.6370 C   0  0  0  0  0  0  0  0  0  0  0  0
  -25.2033  -15.8984   18.8411 C   0  0  0  0  0  0  0  0  0  0  0  0
  -23.9274  -14.7163   20.4354 C   0  0  0  0  0  0  0  0  0  0  0  0
  -29.5259  -25.8336   19.6761 C   0  0  0  0  0  0  0  0  0  0  0  0
  -29.6970  -17.8969   21.7941 C   0  0  0  0  0  0  0  0  0  0  0  0
  -32.0087  -16.1819   20.2984 C   0  0  0  0  0  0  0  0  0  0  0  0
  -33.3084  -13.1201   19.5345 C   0  0  0  0  0  0  0  0  0  0  0  0
  -25.8861  -19.0323   18.2474 C   0  0  0  0  0  0  0  0  0  0  0  0
  -29.0164  -22.7205   23.3194 C   0  0  0  0  0  0  0  0  0  0  0  0
  -30.4816  -16.3830   23.6511 C   0  0  0  0  0  0  0  0  0  0  0  0
  -30.0125  -14.8900   21.1420 C   0  0  0  0  0  0  0  0  0  0  0  0
  -29.8433  -22.0223   22.2430 C   0  0  0  0  0  0  0  0  0  0  0  0
  -24.4177  -21.6683   16.2492 C   0  0  0  0  0  0  0  0  0  0  0  0
  -28.9756  -21.0502   21.4499 C   0  0  0  0  0  0  0  0  0  0  0  0
  -25.0752  -22.9103   16.8536 C   0  0  0  0  0  0  0  0  0  0  0  0
  -24.1025  -20.6316   17.3234 C   0  0  0  0  0  0  0  0  0  0  0  0
  -25.9342  -21.4588   18.7497 C   0  0  0  0  0  0  0  0  0  0  0  0
  -28.4095  -19.9504   22.3563 C   0  0  1  0  0  0  0  0  0  0  0  0
  -30.7895  -16.9901   22.2858 C   0  0  1  0  0  0  0  0  0  0  0  0
  -26.2983  -22.5356   17.7114 C   0  0  2  0  0  0  0  0  0  0  0  0
  -35.1816  -12.0366   18.2639 C   0  0  0  0  0  0  0  0  0  0  0  0
  -23.0954  -11.1156   21.5926 C   0  0  0  0  0  0  0  0  0  0  0  0
  -21.8191  -13.3828   23.1888 C   0  0  0  0  0  0  0  0  0  0  0  0
  -30.5451  -16.7302   17.6779 C   0  0  0  0  0  0  0  0  0  0  0  0
  -31.8768  -14.8876   16.6293 C   0  0  0  0  0  0  0  0  0  0  0  0
  -33.0361  -16.9012   17.5370 C   0  0  0  0  0  0  0  0  0  0  0  0
  -34.4110  -11.8830   21.9866 C   0  0  0  0  0  0  0  0  0  0  0  0
  -25.7069  -16.6281   17.6603 C   0  0  0  0  0  0  0  0  0  0  0  0
  -24.3433  -11.5884   23.7617 C   0  0  0  0  0  0  0  0  0  0  0  0
  -25.5474  -12.3045   24.3686 C   0  0  0  0  0  0  0  0  0  1  0  0
  -32.0420  -15.2162   19.1384 C   0  0  1  0  0  0  0  0  0  0  0  0
  -34.7253  -12.5803   19.6089 C   0  0  2  0  0  0  0  0  0  0  0  0
  -23.9217  -12.1406   22.3834 C   0  0  2  0  0  0  0  0  0  0  0  0
  -23.1614  -13.4897   22.4687 C   0  0  1  0  0  0  0  0  0  0  0  0
  -31.8591  -15.9288   17.7687 C   0  0  0  0  0  0  0  0  0  0  0  0
  -26.1373  -24.7840   18.7117 N   0  0  0  0  0  0  0  0  0  0  0  0
  -25.9066  -15.6173   19.9173 N   0  0  0  0  0  0  0  0  0  0  0  0
  -25.1585  -14.9230   20.8520 N   0  0  0  0  0  0  0  0  0  0  0  0
  -26.9272  -23.7562   18.3572 N   0  0  0  0  0  0  0  0  0  0  0  0
  -31.0007  -15.9759   21.2509 N   0  0  0  0  0  0  0  0  0  0  0  0
  -25.3122  -20.3050   18.0915 N   0  0  0  0  0  0  0  0  0  0  0  0
  -29.1788  -23.0206   18.3464 N   0  0  0  0  0  0  0  0  0  0  0  0
  -29.4282  -27.1114   20.2436 N   0  0  0  0  0  0  0  0  0  0  0  0
  -22.9479  -14.0517   21.1502 N   0  0  0  0  0  0  0  0  0  0  0  0
  -29.4227  -18.9562   22.6379 N   0  0  0  0  0  0  0  0  0  0  0  0
  -33.2905  -14.4718   19.2627 N   0  0  0  0  0  0  0  0  0  0  0  0
  -25.2322  -17.9926   17.5978 N   0  0  0  0  0  0  0  0  0  0  0  0
  -34.8092  -11.4820   20.6127 N   0  3  0  0  0  0  0  0  0  0  0  0
  -30.6527  -25.2921   19.5731 O   0  0  0  0  0  0  0  0  0  0  0  0
  -29.1449  -17.6543   20.7273 O   0  0  0  0  0  0  0  0  0  0  0  0
  -32.8506  -17.0813   20.3608 O   0  0  0  0  0  0  0  0  0  0  0  0
  -32.3167  -12.4127   19.6974 O   0  0  0  0  0  0  0  0  0  0  0  0
  -26.9094  -18.8375   18.9123 O   0  0  0  0  0  0  0  0  0  0  0  0
  -25.1613  -30.5620   21.2039 O   0  0  0  0  0  0  0  0  0  0  0  0
  -26.6640  -12.2009   23.4860 O   0  0  0  0  0  0  0  0  0  1  0  0
  -20.6458  -30.5202   24.3682 F   0  0  0  0  0  0  0  0  0  0  0  0
  -22.7564  -29.6068   20.2310 F   0  0  0  0  0  0  0  0  0  0  0  0
  -23.5799  -15.3460   18.8785 S   0  0  0  0  0  0  0  0  0  0  0  0
  1  2  1  0  0  0  0
  1  5  2  0  0  0  0
  2  6  2  0  0  0  0
  3  8  2  0  0  0  0
  3 15  1  0  0  0  0
  4  9  1  0  0  0  0
  4 15  2  0  0  0  0
  5 17  1  0  0  0  0
  6 19  1  0  0  0  0
  7 10  2  0  0  0  0
  7 18  1  0  0  0  0
  8 21  1  0  0  0  0
  9 21  2  0  0  0  0
 10 22  1  0  0  0  0
 11 12  2  0  0  0  0
 11 23  1  0  0  0  0
 12 24  1  0  0  0  0
 13 20  1  0  0  0  0
 13 22  2  0  0  0  0
 14 24  2  0  0  0  0
 14 25  1  0  0  0  0
 15 26  1  0  0  0  0
 16 26  1  0  0  0  0
 16 27  2  0  0  0  0
 16 30  1  0  0  0  0
 17 19  2  0  0  0  0
 17 35  1  0  0  0  0
 18 20  2  0  0  0  0
 18 36  1  0  0  0  0
 19 44  1  0  0  0  0
 20 37  1  0  0  0  0
 21 80  1  0  0  0  0
 22 81  1  0  0  0  0
 23 25  2  0  0  0  0
 23 80  1  0  0  0  0
 24 82  1  0  0  0  0
 25 83  1  0  0  0  0
 26 62  2  0  0  0  0
 27 65  1  0  0  0  0
 27 68  1  0  0  0  0
 28 54  1  0  0  0  0
 28 63  2  0  0  0  0
 28 84  1  0  0  0  0
 29 64  2  0  0  0  0
 29 70  1  0  0  0  0
 29 84  1  0  0  0  0
 30 69  1  0  0  0  0
 30 75  2  0  0  0  0
 31 45  1  0  0  0  0
 31 71  1  0  0  0  0
 31 76  2  0  0  0  0
 32 57  1  0  0  0  0
 32 66  1  0  0  0  0
 32 77  2  0  0  0  0
 33 58  1  0  0  0  0
 33 72  1  0  0  0  0
 33 78  2  0  0  0  0
 34 67  1  0  0  0  0
 34 73  1  0  0  0  0
 34 79  2  0  0  0  0
 35 38  1  0  0  0  0
 36 45  1  0  0  0  0
 37 66  1  0  0  0  0
 38 40  1  0  0  0  0
 39 41  1  0  0  0  0
 39 42  1  0  0  0  0
 40 44  1  0  0  0  0
 41 46  1  0  0  0  0
 42 67  1  0  0  0  0
 43 46  1  0  0  0  0
 43 67  1  0  0  0  0
 44 71  1  0  0  0  0
 45 66  1  0  0  0  0
 46 65  1  0  0  0  0
 47 58  1  0  0  0  0
 48 59  1  0  0  0  0
 49 60  1  0  0  0  0
 50 61  1  0  0  0  0
 51 61  1  0  0  0  0
 52 61  1  0  0  0  0
 53 74  1  0  0  0  0
 54 73  1  0  0  0  0
 55 56  1  0  0  0  0
 55 59  1  0  0  0  0
 56 81  1  0  0  0  0
 57 61  1  0  0  0  0
 57 72  1  0  0  0  0
 58 74  1  0  0  0  0
 59 60  1  0  0  0  0
 60 70  1  0  0  0  0
 62 65  1  0  0  0  0
 63 64  1  0  0  0  0
M  CHG  1  74   1
M  ISO  4  34 100  56 101  73 100  81 101
M  END
> <Batch ID>
0190

> <Smiles>
CNC(C)C(=O)NC(C(=O)N1Cc2cc([101O:1][101CH2:1]CC(C)C(C)Nc3nnc(C[100NH:0][100C:0](=O)N4CCCC(n5nc(-c6ccc(Oc7ccc(F)cc7F)cc6)c(C(N)=O)c5N)C4)s3)ccc2CC1C(=O)NC1CCCc2ccccc21)C(C)(C)C

> <Shape>
0.202

> <Color>
0.076

> <Negative vol penalty>
0.000

$$$$

  -OEChem-04052305213D

 83 91  0     1  0  0  0  0  0999 V2000
  -20.9347  -32.6126   28.1871 C   0  0  0  0  0  0  0  0  0  0  0  0
  -21.9322  -31.6781   27.9283 C   0  0  0  0  0  0  0  0  0  0  0  0
  -23.1497   -9.8386   21.6318 C   0  0  0  0  0  0  0  0  0  0  0  0
  -23.8759  -11.0406   23.5978 C   0  0  0  0  0  0  0  0  0  0  0  0
  -20.0063  -32.9318   27.1971 C   0  0  0  0  0  0  0  0  0  0  0  0
  -22.0014  -31.0614   26.6796 C   0  0  0  0  0  0  0  0  0  0  0  0
  -26.7509  -28.4172   22.0142 C   0  0  0  0  0  0  0  0  0  0  0  0
  -22.4412   -8.9478   22.4381 C   0  0  0  0  0  0  0  0  0  0  0  0
  -23.1673  -10.1498   24.4041 C   0  0  0  0  0  0  0  0  0  0  0  0
  -27.0134  -27.2587   21.2842 C   0  0  0  0  0  0  0  0  0  0  0  0
  -23.1197   -6.2638   24.3772 C   0  0  0  0  0  0  0  0  0  0  0  0
  -23.2344   -4.9028   24.0942 C   0  0  0  0  0  0  0  0  0  0  0  0
  -25.4039  -27.9471   19.6244 C   0  0  0  0  0  0  0  0  0  0  0  0
  -20.8510   -4.7802   23.7181 C   0  0  0  0  0  0  0  0  0  0  0  0
  -30.5543  -19.3643   21.1555 C   0  0  0  0  0  0  0  0  0  0  0  0
  -23.8671  -10.8850   22.2116 C   0  0  0  0  0  0  0  0  0  0  0  0
  -24.1262  -13.0070   20.8197 C   0  0  0  0  0  0  0  0  0  0  0  0
  -20.0699  -32.3258   25.9324 C   0  0  0  0  0  0  0  0  0  0  0  0
  -25.8034  -29.3456   21.5595 C   0  0  0  0  0  0  0  0  0  0  0  0
  -21.0721  -31.3718   25.6721 C   0  0  0  0  0  0  0  0  0  0  0  0
  -25.1331  -29.1178   20.3491 C   0  0  0  0  0  0  0  0  0  0  0  0
  -22.4500   -9.1034   23.8242 C   0  0  0  0  0  0  0  0  0  0  0  0
  -26.3378  -27.0221   20.0906 C   0  0  0  0  0  0  0  0  0  0  0  0
  -21.8707   -6.8830   24.3308 C   0  0  0  0  0  0  0  0  0  0  0  0
  -22.1000   -4.1610   23.7646 C   0  0  0  0  0  0  0  0  0  0  0  0
  -20.7363   -6.1412   24.0012 C   0  0  0  0  0  0  0  0  0  0  0  0
  -24.5996  -11.8052   21.3793 C   0  0  0  0  0  0  0  0  0  0  0  0
  -30.3391  -18.4899   20.1109 C   0  0  0  0  0  0  0  0  0  0  0  0
  -25.1978  -13.5056   20.1201 C   0  0  0  0  0  0  0  0  0  0  0  0
  -29.0972  -20.5523   20.0260 C   0  0  0  0  0  0  0  0  0  0  0  0
  -22.8333  -13.6181   20.9230 C   0  0  0  0  0  0  0  0  0  0  0  0
  -28.7186  -22.7661   19.4071 C   0  0  0  0  0  0  0  0  0  0  0  0
  -27.7242  -23.8128   18.9861 C   0  0  0  0  0  0  0  0  0  0  0  0
  -23.0561  -30.4810   22.6849 C   0  0  0  0  0  0  0  0  0  0  0  0
  -30.6629  -14.6683   19.8545 C   0  0  0  0  0  0  0  0  0  0  0  0
  -23.2635  -32.4460   20.1124 C   0  0  0  0  0  0  0  0  0  0  0  0
  -24.5078  -33.0009   16.9834 C   0  0  0  0  0  0  0  0  0  0  0  0
  -19.0156  -32.6680   24.9096 C   0  0  0  0  0  0  0  0  0  0  0  0
  -25.5511  -30.6033   22.3449 C   0  0  0  0  0  0  0  0  0  0  0  0
  -24.1213  -30.0930   19.8072 C   0  0  0  0  0  0  0  0  0  0  0  0
  -19.3850  -32.2465   23.4897 C   0  0  0  0  0  0  0  0  0  0  0  0
  -29.6113  -11.3823   18.8868 C   0  0  0  0  0  0  0  0  0  0  0  0
  -19.9195  -30.8179   23.4789 C   0  0  0  0  0  0  0  0  0  0  0  0
  -28.1859  -11.2872   19.4294 C   0  0  0  0  0  0  0  0  0  0  0  0
  -30.5072  -12.2009   19.8111 C   0  0  0  0  0  0  0  0  0  0  0  0
  -28.5605  -13.4772   20.6496 C   0  0  0  0  0  0  0  0  0  0  0  0
  -21.1950  -30.6997   24.3218 C   0  0  1  0  0  0  0  0  0  0  0  0
  -24.1924  -31.2304   22.0486 C   0  0  1  0  0  0  0  0  0  0  0  0
  -27.6147  -12.6842   19.7303 C   0  0  2  0  0  0  0  0  0  0  0  0
  -30.1428  -23.2155   19.5739 C   0  0  0  0  0  0  0  0  0  0  0  0
  -24.4722  -34.6795   15.1183 C   0  0  0  0  0  0  0  0  0  0  0  0
  -20.4600  -31.5232   19.3386 C   0  0  0  0  0  0  0  0  0  0  0  0
  -20.8587  -32.4593   17.0511 C   0  0  0  0  0  0  0  0  0  0  0  0
  -20.8734  -33.9710   19.0353 C   0  0  0  0  0  0  0  0  0  0  0  0
  -27.4324  -33.4223   17.1512 C   0  0  0  0  0  0  0  0  0  0  0  0
  -30.9283  -17.1618   19.8533 C   0  0  0  0  0  0  0  0  0  0  0  0
  -27.5625  -24.9916   19.9089 C   0  0  0  0  0  0  0  0  0  1  0  0
  -29.9885  -15.9814   20.1629 C   0  0  0  0  0  0  0  0  0  0  0  0
  -22.8041  -32.3787   18.6759 C   0  0  1  0  0  0  0  0  0  0  0  0
  -25.1936  -34.2092   16.3717 C   0  0  2  0  0  0  0  0  0  0  0  0
  -21.2666  -32.5635   18.5361 C   0  0  0  0  0  0  0  0  0  0  0  0
  -29.8433  -20.5476   21.1083 N   0  0  0  0  0  0  0  0  0  0  0  0
  -25.8729  -11.5552   21.0625 N   0  0  0  0  0  0  0  0  0  0  0  0
  -28.2334  -21.5850   19.6291 N   0  0  0  0  0  0  0  0  0  0  0  0
  -26.2086  -12.6069   20.2960 N   0  0  0  0  0  0  0  0  0  0  0  0
  -23.9049  -31.3049   20.6147 N   0  0  0  0  0  0  0  0  0  0  0  0
  -29.9191  -13.5121   20.0907 N   0  0  0  0  0  0  0  0  0  0  0  0
  -25.3647  -14.6206   19.3776 N   0  0  0  0  0  0  0  0  0  0  0  0
  -21.8475  -12.9719   21.6813 N   0  0  0  0  0  0  0  0  0  0  0  0
  -22.3311  -31.2255   23.5958 N   0  0  0  0  0  0  0  0  0  0  0  0
  -23.5933  -33.3667   17.9483 N   0  0  0  0  0  0  0  0  0  0  0  0
  -26.6002  -33.8774   16.0078 N   0  3  0  0  0  0  0  0  0  0  0  0
  -22.5553  -14.6967   20.3462 O   0  0  0  0  0  0  0  0  0  0  0  0
  -27.1060  -23.6269   17.9490 O   0  0  0  0  0  0  0  0  0  0  0  0
  -22.8512  -29.3141   22.3716 O   0  0  0  0  0  0  0  0  0  0  0  0
  -31.8153  -14.6724   19.4140 O   0  0  0  0  0  0  0  0  0  0  0  0
  -23.0671  -33.4757   20.7625 O   0  0  0  0  0  0  0  0  0  0  0  0
  -24.7557  -31.8480   16.6370 O   0  0  0  0  0  0  0  0  0  0  0  0
  -21.7586   -8.2345   24.6112 O   0  0  0  0  0  0  0  0  0  0  0  0
  -26.5917  -25.8919   19.3765 O   0  0  0  0  0  0  0  0  0  1  0  0
  -22.2105   -2.8544   23.4913 F   0  0  0  0  0  0  0  0  0  0  0  0
  -19.5338   -6.7308   23.9538 F   0  0  0  0  0  0  0  0  0  0  0  0
  -29.2008  -19.1656   19.0203 S   0  0  0  0  0  0  0  0  0  0  0  0
  1  2  1  0  0  0  0
  1  5  2  0  0  0  0
  2  6  2  0  0  0  0
  3  8  2  0  0  0  0
  3 16  1  0  0  0  0
  4  9  1  0  0  0  0
  4 16  2  0  0  0  0
  5 18  1  0  0  0  0
  6 20  1  0  0  0  0
  7 10  2  0  0  0  0
  7 19  1  0  0  0  0
  8 22  1  0  0  0  0
  9 22  2  0  0  0  0
 10 23  1  0  0  0  0
 11 12  2  0  0  0  0
 11 24  1  0  0  0  0
 12 25  1  0  0  0  0
 13 21  1  0  0  0  0
 13 23  2  0  0  0  0
 14 25  2  0  0  0  0
 14 26  1  0  0  0  0
 15 28  2  0  0  0  0
 15 62  1  0  0  0  0
 16 27  1  0  0  0  0
 17 27  1  0  0  0  0
 17 29  2  0  0  0  0
 17 31  1  0  0  0  0
 18 20  2  0  0  0  0
 18 38  1  0  0  0  0
 19 21  2  0  0  0  0
 19 39  1  0  0  0  0
 20 47  1  0  0  0  0
 21 40  1  0  0  0  0
 22 79  1  0  0  0  0
 23 80  1  0  0  0  0
 24 26  2  0  0  0  0
 24 79  1  0  0  0  0
 25 81  1  0  0  0  0
 26 82  1  0  0  0  0
 27 63  2  0  0  0  0
 28 56  1  0  0  0  0
 28 83  1  0  0  0  0
 29 65  1  0  0  0  0
 29 68  1  0  0  0  0
 30 62  2  0  0  0  0
 30 64  1  0  0  0  0
 30 83  1  0  0  0  0
 31 69  1  0  0  0  0
 31 73  2  0  0  0  0
 32 33  1  0  0  0  0
 32 50  1  0  0  0  0
 32 64  2  0  0  0  0
 33 57  1  0  0  0  0
 33 74  2  0  0  0  0
 34 48  1  0  0  0  0
 34 70  1  0  0  0  0
 34 75  2  0  0  0  0
 35 58  1  0  0  0  0
 35 67  1  0  0  0  0
 35 76  2  0  0  0  0
 36 59  1  0  0  0  0
 36 66  1  0  0  0  0
 36 77  2  0  0  0  0
 37 60  1  0  0  0  0
 37 71  1  0  0  0  0
 37 78  2  0  0  0  0
 38 41  1  0  0  0  0
 39 48  1  0  0  0  0
 40 66  1  0  0  0  0
 41 43  1  0  0  0  0
 42 44  1  0  0  0  0
 42 45  1  0  0  0  0
 43 47  1  0  0  0  0
 44 49  1  0  0  0  0
 45 67  1  0  0  0  0
 46 49  1  0  0  0  0
 46 67  1  0  0  0  0
 47 70  1  0  0  0  0
 48 66  1  0  0  0  0
 49 65  1  0  0  0  0
 51 60  1  0  0  0  0
 52 61  1  0  0  0  0
 53 61  1  0  0  0  0
 54 61  1  0  0  0  0
 55 72  1  0  0  0  0
 56 58  1  0  0  0  0
 57 80  1  0  0  0  0
 59 61  1  0  0  0  0
 59 71  1  0  0  0  0
 60 72  1  0  0  0  0
 63 65  1  0  0  0  0
M  CHG  1  72   1
M  ISO  4  35 100  57 101  58 100  80 101
M  END
> <Batch ID>
0190

> <Smiles>
CNC(C)C(=O)NC(C(=O)N1Cc2cc([101O:1][101CH2:1]C(=O)C(C)Nc3ncc(C=[100CH:0][100C:0](=O)N4CCCC(n5nc(-c6ccc(Oc7ccc(F)cc7F)cc6)c(C(N)=O)c5N)C4)s3)ccc2CC1C(=O)NC1CCCc2ccccc21)C(C)(C)C

> <Shape>
0.277

> <Color>
0.175

> <Negative vol penalty>
0.000

$$$$

  -OEChem-04052305213D

 82 90  0     1  0  0  0  0  0999 V2000
  -23.3223   -8.0125   21.9393 C   0  0  0  0  0  0  0  0  0  0  0  0
  -24.2474   -8.9983   21.6109 C   0  0  0  0  0  0  0  0  0  0  0  0
  -22.3087  -28.0077   20.7523 C   0  0  0  0  0  0  0  0  0  0  0  0
  -23.5012  -26.8145   22.4819 C   0  0  0  0  0  0  0  0  0  0  0  0
  -21.9572   -8.2821   21.8515 C   0  0  0  0  0  0  0  0  0  0  0  0
  -23.8079  -10.2540   21.1933 C   0  0  0  0  0  0  0  0  0  0  0  0
  -26.3512  -14.0358   23.4011 C   0  0  0  0  0  0  0  0  0  0  0  0
  -21.1131  -27.8168   21.4449 C   0  0  0  0  0  0  0  0  0  0  0  0
  -22.3056  -26.6236   23.1745 C   0  0  0  0  0  0  0  0  0  0  0  0
  -27.6219  -14.3236   22.9048 C   0  0  0  0  0  0  0  0  0  0  0  0
  -19.5293  -29.1799   24.1031 C   0  0  0  0  0  0  0  0  0  0  0  0
  -18.6722  -30.2729   24.2303 C   0  0  0  0  0  0  0  0  0  0  0  0
  -26.7065  -16.1670   21.6467 C   0  0  0  0  0  0  0  0  0  0  0  0
  -16.9428  -29.0524   23.0654 C   0  0  0  0  0  0  0  0  0  0  0  0
  -29.9147  -19.5475   17.9264 C   0  0  0  0  0  0  0  0  0  0  0  0
  -29.0074  -19.7586   15.9292 C   0  0  0  0  0  0  0  0  0  0  0  0
  -23.5028  -27.5065   21.2708 C   0  0  0  0  0  0  0  0  0  0  0  0
  -25.6324  -28.7825   20.6840 C   0  0  0  0  0  0  0  0  0  0  0  0
  -21.5007   -9.5448   21.4418 C   0  0  0  0  0  0  0  0  0  0  0  0
  -25.2449  -14.8061   23.0147 C   0  0  0  0  0  0  0  0  0  0  0  0
  -22.4354  -10.5403   21.0986 C   0  0  0  0  0  0  0  0  0  0  0  0
  -25.4232  -15.8886   22.1415 C   0  0  0  0  0  0  0  0  0  0  0  0
  -21.1115  -27.1248   22.6560 C   0  0  0  0  0  0  0  0  0  0  0  0
  -27.7992  -15.3875   22.0253 C   0  0  0  0  0  0  0  0  0  0  0  0
  -19.0932  -28.0231   23.4570 C   0  0  0  0  0  0  0  0  0  0  0  0
  -17.3790  -30.2092   23.7115 C   0  0  0  0  0  0  0  0  0  0  0  0
  -17.8000  -27.9594   22.9381 C   0  0  0  0  0  0  0  0  0  0  0  0
  -24.7381  -27.7029   20.5555 C   0  0  0  0  0  0  0  0  0  0  0  0
  -29.2221  -18.4156   17.5664 C   0  0  0  0  0  0  0  0  0  0  0  0
  -26.6410  -28.5005   19.7953 C   0  0  0  0  0  0  0  0  0  0  0  0
  -25.5581  -29.9369   21.5310 C   0  0  0  0  0  0  0  0  0  0  0  0
  -22.5280  -14.2150   21.4743 C   0  0  0  0  0  0  0  0  0  0  0  0
  -21.8673  -17.2920   22.2601 C   0  0  0  0  0  0  0  0  0  0  0  0
  -23.0424  -20.3848   23.0971 C   0  0  0  0  0  0  0  0  0  0  0  0
  -29.6058  -16.9985   19.6119 C   0  0  0  0  0  0  0  0  0  0  0  0
  -28.6408  -23.3973   17.6032 C   0  0  0  0  0  0  0  0  0  0  0  0
  -20.0154   -9.7743   21.3169 C   0  0  0  0  0  0  0  0  0  0  0  0
  -23.8852  -14.4992   23.5798 C   0  0  0  0  0  0  0  0  0  0  0  0
  -24.2715  -16.7587   21.7116 C   0  0  0  0  0  0  0  0  0  0  0  0
  -19.6325  -11.2492   21.2253 C   0  0  0  0  0  0  0  0  0  0  0  0
  -27.4678  -26.2186   15.6689 C   0  0  0  0  0  0  0  0  0  0  0  0
  -20.5294  -11.9725   20.2257 C   0  0  0  0  0  0  0  0  0  0  0  0
  -26.7159  -27.0242   16.7303 C   0  0  0  0  0  0  0  0  0  0  0  0
  -27.2778  -24.7193   15.8771 C   0  0  0  0  0  0  0  0  0  0  0  0
  -26.9129  -25.0347   18.2941 C   0  0  0  0  0  0  0  0  0  0  0  0
  -21.9977  -11.9226   20.6652 C   0  0  1  0  0  0  0  0  0  0  0  0
  -22.7454  -15.0315   22.7167 C   0  0  1  0  0  0  0  0  0  0  0  0
  -27.0821  -26.5583   18.1522 C   0  0  2  0  0  0  0  0  0  0  0  0
  -22.2631  -22.7071   23.6423 C   0  0  0  0  0  0  0  0  0  0  0  0
  -30.2572  -14.5682   19.7818 C   0  0  0  0  0  0  0  0  0  0  0  0
  -21.3053  -17.7950   19.3035 C   0  0  0  0  0  0  0  0  0  0  0  0
  -21.4711  -20.2508   19.7614 C   0  0  0  0  0  0  0  0  0  0  0  0
  -19.6974  -18.8936   20.8727 C   0  0  0  0  0  0  0  0  0  0  0  0
  -24.2452  -20.2790   25.7991 C   0  0  0  0  0  0  0  0  0  0  0  0
  -30.3350  -21.7853   16.7562 C   0  0  0  0  0  0  0  0  0  0  0  0
  -22.1014  -18.6350   21.6115 C   0  0  1  0  0  0  0  0  0  0  0  0
  -22.6479  -21.3469   24.2031 C   0  0  2  0  0  0  0  0  0  0  0  0
  -29.2082  -15.6161   20.1230 C   0  0  1  0  0  0  0  0  0  1  0  0
  -21.1654  -18.8762   20.3937 C   0  0  0  0  0  0  0  0  0  0  0  0
  -28.6599  -18.5532   16.3220 N   0  0  0  0  0  0  0  0  0  0  0  0
  -25.1428  -26.8024   19.6559 N   0  0  0  0  0  0  0  0  0  0  0  0
  -29.7685  -20.3986   16.8674 N   0  0  0  0  0  0  0  0  0  0  0  0
  -26.3024  -27.3155   19.2111 N   0  0  0  0  0  0  0  0  0  0  0  0
  -22.9605  -16.4146   22.2865 N   0  0  0  0  0  0  0  0  0  0  0  0
  -27.6633  -24.3396   17.2434 N   0  0  0  0  0  0  0  0  0  0  0  0
  -27.7754  -29.1531   19.4644 N   0  0  0  0  0  0  0  0  0  0  0  0
  -24.4536  -30.0703   22.3835 N   0  0  0  0  0  0  0  0  0  0  0  0
  -29.0818  -17.2432   18.3468 N   0  0  0  0  0  0  0  0  0  0  0  0
  -22.2431  -12.8849   21.7179 N   0  0  0  0  0  0  0  0  0  0  0  0
  -21.9707  -19.6287   22.6716 N   0  0  0  0  0  0  0  0  0  0  0  0
  -29.2962  -22.7796   16.5443 N   0  0  0  0  0  0  0  0  0  0  0  0
  -23.7794  -21.5340   25.1549 N   0  3  0  0  0  0  0  0  0  0  0  0
  -26.4368  -30.8321   21.5201 O   0  0  0  0  0  0  0  0  0  0  0  0
  -22.6110  -14.7522   20.3760 O   0  0  0  0  0  0  0  0  0  0  0  0
  -20.7574  -17.0339   22.7325 O   0  0  0  0  0  0  0  0  0  0  0  0
  -24.1859  -20.3140   22.6523 O   0  0  0  0  0  0  0  0  0  0  0  0
  -30.2913  -17.7559   20.2928 O   0  0  0  0  0  0  0  0  0  0  0  0
  -28.9117  -23.1291   18.7784 O   0  0  0  0  0  0  0  0  0  0  0  0
  -19.9451  -26.9385   23.3322 O   0  0  0  0  0  0  0  0  0  0  0  0
  -29.0383  -15.6701   21.5389 O   0  0  0  0  0  0  0  0  0  1  0  0
  -16.5555  -31.2584   23.8351 F   0  0  0  0  0  0  0  0  0  0  0  0
  -17.3750  -26.8504   22.3174 F   0  0  0  0  0  0  0  0  0  0  0  0
  1  2  1  0  0  0  0
  1  5  2  0  0  0  0
  2  6  2  0  0  0  0
  3  8  2  0  0  0  0
  3 17  1  0  0  0  0
  4  9  1  0  0  0  0
  4 17  2  0  0  0  0
  5 19  1  0  0  0  0
  6 21  1  0  0  0  0
  7 10  2  0  0  0  0
  7 20  1  0  0  0  0
  8 23  1  0  0  0  0
  9 23  2  0  0  0  0
 10 24  1  0  0  0  0
 11 12  2  0  0  0  0
 11 25  1  0  0  0  0
 12 26  1  0  0  0  0
 13 22  1  0  0  0  0
 13 24  2  0  0  0  0
 14 26  2  0  0  0  0
 14 27  1  0  0  0  0
 15 29  2  0  0  0  0
 15 62  1  0  0  0  0
 16 60  2  0  0  0  0
 16 62  1  0  0  0  0
 17 28  1  0  0  0  0
 18 28  1  0  0  0  0
 18 30  2  0  0  0  0
 18 31  1  0  0  0  0
 19 21  2  0  0  0  0
 19 37  1  0  0  0  0
 20 22  2  0  0  0  0
 20 38  1  0  0  0  0
 21 46  1  0  0  0  0
 22 39  1  0  0  0  0
 23 79  1  0  0  0  0
 24 80  1  0  0  0  0
 25 27  2  0  0  0  0
 25 79  1  0  0  0  0
 26 81  1  0  0  0  0
 27 82  1  0  0  0  0
 28 61  2  0  0  0  0
 29 60  1  0  0  0  0
 29 68  1  0  0  0  0
 30 63  1  0  0  0  0
 30 66  1  0  0  0  0
 31 67  1  0  0  0  0
 31 73  2  0  0  0  0
 32 47  1  0  0  0  0
 32 69  1  0  0  0  0
 32 74  2  0  0  0  0
 33 56  1  0  0  0  0
 33 64  1  0  0  0  0
 33 75  2  0  0  0  0
 34 57  1  0  0  0  0
 34 70  1  0  0  0  0
 34 76  2  0  0  0  0
 35 58  1  0  0  0  0
 35 68  1  0  0  0  0
 35 77  2  0  0  0  0
 36 65  1  0  0  0  0
 36 71  1  0  0  0  0
 36 78  2  0  0  0  0
 37 40  1  0  0  0  0
 38 47  1  0  0  0  0
 39 64  1  0  0  0  0
 40 42  1  0  0  0  0
 41 43  1  0  0  0  0
 41 44  1  0  0  0  0
 42 46  1  0  0  0  0
 43 48  1  0  0  0  0
 44 65  1  0  0  0  0
 45 48  1  0  0  0  0
 45 65  1  0  0  0  0
 46 69  1  0  0  0  0
 47 64  1  0  0  0  0
 48 63  1  0  0  0  0
 49 57  1  0  0  0  0
 50 58  1  0  0  0  0
 51 59  1  0  0  0  0
 52 59  1  0  0  0  0
 53 59  1  0  0  0  0
 54 72  1  0  0  0  0
 55 62  1  0  0  0  0
 55 71  1  0  0  0  0
 56 59  1  0  0  0  0
 56 70  1  0  0  0  0
 57 72  1  0  0  0  0
 58 80  1  0  0  0  0
 61 63  1  0  0  0  0
M  CHG  1  72   1
M  ISO  4  36 100  58 101  71 100  80 101
M  END
> <Batch ID>
0190

> <Smiles>
CNC(C)C(=O)NC(C(=O)N1Cc2cc([101O:1][101CH:1](C)C(=O)Nc3cn(C[100NH:0][100C:0](=O)N4CCCC(n5nc(-c6ccc(Oc7ccc(F)cc7F)cc6)c(C(N)=O)c5N)C4)cn3)ccc2CC1C(=O)NC1CCCc2ccccc21)C(C)(C)C

> <Shape>
0.221

> <Color>
0.114

> <Negative vol penalty>
0.000

$$$$

  -OEChem-04052305213D

 88 96  0     1  0  0  0  0  0999 V2000
  -26.2019  -35.1228   23.2713 C   0  0  0  0  0  0  0  0  0  0  0  0
  -25.8488  -34.2265   22.2688 C   0  0  0  0  0  0  0  0  0  0  0  0
  -23.5896  -14.6918   21.4905 C   0  0  0  0  0  0  0  0  0  0  0  0
  -25.9636  -15.0848   21.7069 C   0  0  0  0  0  0  0  0  0  0  0  0
  -25.8693  -34.8475   24.5960 C   0  0  0  0  0  0  0  0  0  0  0  0
  -25.1526  -33.0605   22.5892 C   0  0  0  0  0  0  0  0  0  0  0  0
  -23.5553  -30.3089   18.8368 C   0  0  0  0  0  0  0  0  0  0  0  0
  -23.8467  -13.4190   20.9811 C   0  0  0  0  0  0  0  0  0  0  0  0
  -26.2207  -13.8120   21.1975 C   0  0  0  0  0  0  0  0  0  0  0  0
  -24.4124  -29.5534   18.0378 C   0  0  0  0  0  0  0  0  0  0  0  0
  -23.8698   -9.9298   19.9613 C   0  0  0  0  0  0  0  0  0  0  0  0
  -23.1108   -8.8684   20.4542 C   0  0  0  0  0  0  0  0  0  0  0  0
  -23.7142  -27.5529   19.1911 C   0  0  0  0  0  0  0  0  0  0  0  0
  -23.9342   -9.3139   22.6815 C   0  0  0  0  0  0  0  0  0  0  0  0
  -24.6480  -15.5247   21.8534 C   0  0  0  0  0  0  0  0  0  0  0  0
  -24.2014  -17.1948   23.7293 C   0  0  0  0  0  0  0  0  0  0  0  0
  -25.1796  -33.6713   24.9333 C   0  0  0  0  0  0  0  0  0  0  0  0
  -22.7781  -29.6925   19.8279 C   0  0  0  0  0  0  0  0  0  0  0  0
  -24.7868  -32.7764   23.9174 C   0  0  0  0  0  0  0  0  0  0  0  0
  -22.8462  -28.3026   19.9996 C   0  0  0  0  0  0  0  0  0  0  0  0
  -30.2608  -24.4691   19.0813 C   0  0  0  0  0  0  0  0  0  0  0  0
  -25.1623  -12.9791   20.8346 C   0  0  0  0  0  0  0  0  0  0  0  0
  -24.4941  -28.1755   18.2168 C   0  0  0  0  0  0  0  0  0  0  0  0
  -24.6611  -10.6832   20.8284 C   0  0  0  0  0  0  0  0  0  0  0  0
  -23.1430   -8.5605   21.8143 C   0  0  0  0  0  0  0  0  0  0  0  0
  -24.6933  -10.3753   22.1885 C   0  0  0  0  0  0  0  0  0  0  0  0
  -24.3831  -16.8398   22.3792 C   0  0  0  0  0  0  0  0  0  0  0  0
  -29.0499  -25.0873   19.3176 C   0  0  0  0  0  0  0  0  0  0  0  0
  -30.2280  -23.0903   19.0343 C   0  0  0  0  0  0  0  0  0  0  0  0
  -23.9805  -18.5501   23.7013 C   0  0  0  0  0  0  0  0  0  0  0  0
  -27.9891  -23.0799   19.4269 C   0  0  0  0  0  0  0  0  0  0  0  0
  -24.2300  -16.3729   24.9038 C   0  0  0  0  0  0  0  0  0  0  0  0
  -22.5905  -29.9154   22.9931 C   0  0  0  0  0  0  0  0  0  0  0  0
  -20.0612  -27.9241   22.5936 C   0  0  0  0  0  0  0  0  0  0  0  0
  -18.4972  -25.5766   20.6728 C   0  0  0  0  0  0  0  0  0  0  0  0
  -25.5166  -22.8578   19.8556 C   0  0  0  0  0  0  0  0  0  0  0  0
  -24.8380  -33.4269   26.3821 C   0  0  0  0  0  0  0  0  0  0  0  0
  -21.8386  -30.5181   20.6635 C   0  0  0  0  0  0  0  0  0  0  0  0
  -22.0176  -27.5900   21.0360 C   0  0  0  0  0  0  0  0  0  0  0  0
  -24.4981  -31.9692   26.6750 C   0  0  0  0  0  0  0  0  0  0  0  0
  -22.2181  -21.9994   20.8851 C   0  0  0  0  0  0  0  0  0  0  0  0
  -23.4788  -31.4604   25.6667 C   0  0  0  0  0  0  0  0  0  0  0  0
  -22.3834  -20.6138   21.5135 C   0  0  0  0  0  0  0  0  0  0  0  0
  -23.1311  -22.1858   19.6746 C   0  0  0  0  0  0  0  0  0  0  0  0
  -24.7159  -20.5130   20.5458 C   0  0  0  0  0  0  0  0  0  0  0  0
  -24.0562  -31.4869   24.2458 C   0  0  1  0  0  0  0  0  0  0  0  0
  -21.4756  -29.8533   21.9878 C   0  0  1  0  0  0  0  0  0  0  0  0
  -23.8638  -20.3015   21.8079 C   0  0  2  0  0  0  0  0  0  0  0  0
  -27.7435  -29.8313   21.9583 C   0  0  0  0  0  0  0  0  0  0  0  0
  -16.4649  -24.1052   20.6259 C   0  0  0  0  0  0  0  0  0  0  0  0
  -29.1095  -29.4983   19.2680 C   0  0  0  0  0  0  0  0  0  0  0  0
  -26.4616  -28.1246   15.4413 C   0  0  0  0  0  0  0  0  0  0  0  0
  -21.3652  -26.0625   24.6293 C   0  0  0  0  0  0  0  0  0  0  0  0
  -19.8344  -24.2441   23.8429 C   0  0  0  0  0  0  0  0  0  0  0  0
  -18.8887  -26.3081   24.8766 C   0  0  0  0  0  0  0  0  0  0  0  0
  -17.4916  -26.8471   18.1961 C   0  0  0  0  0  0  0  0  0  0  0  0
  -27.8065  -28.5025   21.2171 C   0  0  0  0  0  0  0  0  0  0  0  0
  -27.7728  -27.3499   17.4587 C   0  0  0  0  0  0  0  0  0  0  0  0
  -19.8758  -26.4265   22.5520 C   0  0  1  0  0  0  0  0  0  0  0  0
  -17.0550  -25.4459   20.2172 C   0  0  2  0  0  0  0  0  0  0  0  0
  -27.8982  -28.6515   19.6810 C   0  0  2  0  0  0  0  0  0  0  0  0
  -27.8582  -27.2557   18.9958 C   0  0  2  0  0  0  0  0  0  0  0  0
  -26.5130  -28.0794   16.9635 C   0  0  2  0  0  0  0  0  0  1  0  0
  -20.0082  -25.7737   23.9569 C   0  0  0  0  0  0  0  0  0  0  0  0
  -24.2858  -17.8852   21.5536 N   0  0  0  0  0  0  0  0  0  0  0  0
  -27.8903  -24.4211   19.4957 N   0  0  0  0  0  0  0  0  0  0  0  0
  -29.1057  -22.3609   19.2036 N   0  0  0  0  0  0  0  0  0  0  0  0
  -24.0405  -18.9104   22.3872 N   0  0  0  0  0  0  0  0  0  0  0  0
  -21.1189  -28.4417   21.8325 N   0  0  0  0  0  0  0  0  0  0  0  0
  -24.5178  -21.8765   20.0297 N   0  0  0  0  0  0  0  0  0  0  0  0
  -31.4481  -25.1950   18.8998 N   0  0  0  0  0  0  0  0  0  0  0  0
  -23.7425  -19.4568   24.6727 N   0  0  0  0  0  0  0  0  0  0  0  0
  -24.4702  -15.0004   24.7532 N   0  0  0  0  0  0  0  0  0  0  0  0
  -29.0146  -26.4677   19.3770 N   0  0  0  0  0  0  0  0  0  0  0  0
  -26.7907  -22.3465   19.6107 N   0  0  0  0  0  0  0  0  0  0  0  0
  -22.9994  -31.1989   23.3013 N   0  0  0  0  0  0  0  0  0  0  0  0
  -18.5903  -26.1923   21.9030 N   0  0  0  0  0  0  0  0  0  0  0  0
  -16.9673  -25.5655   18.7343 N   0  3  0  0  0  0  0  0  0  0  0  0
  -24.0316  -16.8391   26.0514 O   0  0  0  0  0  0  0  0  0  0  0  0
  -23.0452  -28.8759   23.4562 O   0  0  0  0  0  0  0  0  0  0  0  0
  -19.2915  -28.6102   23.2707 O   0  0  0  0  0  0  0  0  0  0  0  0
  -19.4459  -25.1697   20.0058 O   0  0  0  0  0  0  0  0  0  0  0  0
  -25.2657  -24.0623   19.9460 O   0  0  0  0  0  0  0  0  0  0  0  0
  -25.4135  -11.7371   20.3377 O   0  0  0  0  0  0  0  0  0  0  0  0
  -25.3357  -27.4311   17.4339 O   0  0  0  0  0  0  0  0  0  1  0  0
  -22.4128   -7.5422   22.2877 F   0  0  0  0  0  0  0  0  0  0  0  0
  -25.4506  -11.0962   23.0266 F   0  0  0  0  0  0  0  0  0  0  0  0
  -31.6323  -22.1369   18.7485 Cl  0  0  0  0  0  0  0  0  0  0  0  0
  1  2  1  0  0  0  0
  1  5  2  0  0  0  0
  2  6  2  0  0  0  0
  3  8  2  0  0  0  0
  3 15  1  0  0  0  0
  4  9  1  0  0  0  0
  4 15  2  0  0  0  0
  5 17  1  0  0  0  0
  6 19  1  0  0  0  0
  7 10  2  0  0  0  0
  7 18  1  0  0  0  0
  8 22  1  0  0  0  0
  9 22  2  0  0  0  0
 10 23  1  0  0  0  0
 11 12  2  0  0  0  0
 11 24  1  0  0  0  0
 12 25  1  0  0  0  0
 13 20  1  0  0  0  0
 13 23  2  0  0  0  0
 14 25  2  0  0  0  0
 14 26  1  0  0  0  0
 15 27  1  0  0  0  0
 16 27  1  0  0  0  0
 16 30  2  0  0  0  0
 16 32  1  0  0  0  0
 17 19  2  0  0  0  0
 17 37  1  0  0  0  0
 18 20  2  0  0  0  0
 18 38  1  0  0  0  0
 19 46  1  0  0  0  0
 20 39  1  0  0  0  0
 21 28  2  0  0  0  0
 21 29  1  0  0  0  0
 21 71  1  0  0  0  0
 22 84  1  0  0  0  0
 23 85  1  0  0  0  0
 24 26  2  0  0  0  0
 24 84  1  0  0  0  0
 25 86  1  0  0  0  0
 26 87  1  0  0  0  0
 27 65  2  0  0  0  0
 28 66  1  0  0  0  0
 28 74  1  0  0  0  0
 29 67  2  0  0  0  0
 29 88  1  0  0  0  0
 30 68  1  0  0  0  0
 30 72  1  0  0  0  0
 31 66  2  0  0  0  0
 31 67  1  0  0  0  0
 31 75  1  0  0  0  0
 32 73  1  0  0  0  0
 32 79  2  0  0  0  0
 33 47  1  0  0  0  0
 33 76  1  0  0  0  0
 33 80  2  0  0  0  0
 34 59  1  0  0  0  0
 34 69  1  0  0  0  0
 34 81  2  0  0  0  0
 35 60  1  0  0  0  0
 35 77  1  0  0  0  0
 35 82  2  0  0  0  0
 36 70  1  0  0  0  0
 36 75  1  0  0  0  0
 36 83  2  0  0  0  0
 37 40  1  0  0  0  0
 38 47  1  0  0  0  0
 39 69  1  0  0  0  0
 40 42  1  0  0  0  0
 41 43  1  0  0  0  0
 41 44  1  0  0  0  0
 42 46  1  0  0  0  0
 43 48  1  0  0  0  0
 44 70  1  0  0  0  0
 45 48  1  0  0  0  0
 45 70  1  0  0  0  0
 46 76  1  0  0  0  0
 47 69  1  0  0  0  0
 48 68  1  0  0  0  0
 49 57  1  0  0  0  0
 50 60  1  0  0  0  0
 51 61  1  0  0  0  0
 52 63  1  0  0  0  0
 53 64  1  0  0  0  0
 54 64  1  0  0  0  0
 55 64  1  0  0  0  0
 56 78  1  0  0  0  0
 57 61  1  0  0  0  0
 58 62  1  0  0  0  0
 58 63  1  0  0  0  0
 59 64  1  0  0  0  0
 59 77  1  0  0  0  0
 60 78  1  0  0  0  0
 61 62  1  0  0  0  0
 62 74  1  0  0  0  0
 63 85  1  0  0  0  0
 65 68  1  0  0  0  0
M  CHG  1  78   1
M  ISO  4  36 100  63 101  75 100  85 101
M  END
> <Batch ID>
0190

> <Smiles>
CCC(C)C(C[101CH:1](C)[101O:1]c1ccc2c(c1)CN(C(=O)C(NC(=O)C(C)NC)C(C)(C)C)C(C(=O)NC1CCCc3ccccc31)C2)Nc1nc([100NH:0][100C:0](=O)N2CCCC(n3nc(-c4ccc(Oc5ccc(F)cc5F)cc4)c(C(N)=O)c3N)C2)nc(Cl)c1N

> <Shape>
0.259

> <Color>
0.055

> <Negative vol penalty>
0.000

$$$$

  -OEChem-04052305213D

 85 93  0     1  0  0  0  0  0999 V2000
  -16.5689  -28.5858   23.4474 C   0  0  0  0  0  0  0  0  0  0  0  0
  -17.1803  -28.8410   22.2240 C   0  0  0  0  0  0  0  0  0  0  0  0
  -22.1936  -15.1477   19.9308 C   0  0  0  0  0  0  0  0  0  0  0  0
  -23.4852  -15.3211   17.8964 C   0  0  0  0  0  0  0  0  0  0  0  0
  -17.1744  -29.0092   24.6297 C   0  0  0  0  0  0  0  0  0  0  0  0
  -18.3971  -29.5207   22.1823 C   0  0  0  0  0  0  0  0  0  0  0  0
  -25.2066  -27.3956   18.9978 C   0  0  0  0  0  0  0  0  0  0  0  0
  -21.0150  -15.1908   19.1862 C   0  0  0  0  0  0  0  0  0  0  0  0
  -22.3066  -15.3641   17.1517 C   0  0  0  0  0  0  0  0  0  0  0  0
  -26.5050  -27.0624   18.6113 C   0  0  0  0  0  0  0  0  0  0  0  0
  -19.1773  -13.0644   17.3062 C   0  0  0  0  0  0  0  0  0  0  0  0
  -18.1743  -12.1497   17.6268 C   0  0  0  0  0  0  0  0  0  0  0  0
  -27.3994  -28.5365   20.3069 C   0  0  0  0  0  0  0  0  0  0  0  0
  -16.6663  -13.9736   18.1130 C   0  0  0  0  0  0  0  0  0  0  0  0
  -30.1685  -21.2738   16.9942 C   0  0  0  0  0  0  0  0  0  0  0  0
  -23.4288  -15.2130   19.2859 C   0  0  0  0  0  0  0  0  0  0  0  0
  -25.3794  -14.0246   20.4220 C   0  0  0  0  0  0  0  0  0  0  0  0
  -18.4040  -29.6860   24.6031 C   0  0  0  0  0  0  0  0  0  0  0  0
  -24.9995  -28.2899   20.0518 C   0  0  0  0  0  0  0  0  0  0  0  0
  -19.0190  -29.9548   23.3653 C   0  0  0  0  0  0  0  0  0  0  0  0
  -26.1012  -28.8645   20.7067 C   0  0  0  0  0  0  0  0  0  0  0  0
  -21.0714  -15.2989   17.7966 C   0  0  0  0  0  0  0  0  0  0  0  0
  -27.5986  -27.6317   19.2641 C   0  0  0  0  0  0  0  0  0  0  0  0
  -18.9249  -14.4338   17.3891 C   0  0  0  0  0  0  0  0  0  0  0  0
  -16.9188  -12.6043   18.0301 C   0  0  0  0  0  0  0  0  0  0  0  0
  -17.6694  -14.8884   17.7924 C   0  0  0  0  0  0  0  0  0  0  0  0
  -24.6467  -15.1692   20.0546 C   0  0  0  0  0  0  0  0  0  0  0  0
  -30.3190  -21.2247   18.3643 C   0  0  0  0  0  0  0  0  0  0  0  0
  -26.4440  -14.5139   21.1387 C   0  0  0  0  0  0  0  0  0  0  0  0
  -29.8119  -23.3491   18.1641 C   0  0  0  0  0  0  0  0  0  0  0  0
  -25.1207  -12.6427   20.1406 C   0  0  0  0  0  0  0  0  0  0  0  0
  -22.5287  -30.0991   22.2192 C   0  0  0  0  0  0  0  0  0  0  0  0
  -28.2922  -24.7159   20.5564 C   0  0  0  0  0  0  0  0  0  0  0  0
  -24.8169  -29.1863   24.0472 C   0  0  0  0  0  0  0  0  0  0  0  0
  -26.8379  -27.3278   25.5848 C   0  0  0  0  0  0  0  0  0  0  0  0
  -29.2500  -19.8032   21.1736 C   0  0  0  0  0  0  0  0  0  0  0  0
  -18.9969  -30.1659   25.9042 C   0  0  0  0  0  0  0  0  0  0  0  0
  -23.6186  -28.7247   20.4614 C   0  0  0  0  0  0  0  0  0  0  0  0
  -25.8305  -29.8481   21.8122 C   0  0  0  0  0  0  0  0  0  0  0  0
  -20.4704  -30.5500   25.7971 C   0  0  0  0  0  0  0  0  0  0  0  0
  -27.7029  -18.1821   23.9405 C   0  0  0  0  0  0  0  0  0  0  0  0
  -20.7070  -31.4213   24.5676 C   0  0  0  0  0  0  0  0  0  0  0  0
  -26.8104  -17.1228   23.2915 C   0  0  0  0  0  0  0  0  0  0  0  0
  -27.7478  -19.4656   23.1142 C   0  0  0  0  0  0  0  0  0  0  0  0
  -27.2314  -18.2198   21.0514 C   0  0  0  0  0  0  0  0  0  0  0  0
  -20.3513  -30.6675   23.2805 C   0  0  1  0  0  0  0  0  0  0  0  0
  -23.4877  -28.9712   21.9751 C   0  0  1  0  0  0  0  0  0  0  0  0
  -27.1990  -16.8874   21.8195 C   0  0  2  0  0  0  0  0  0  0  0  0
  -27.1122  -23.9470   22.6575 C   0  0  0  0  0  0  0  0  0  0  0  0
  -28.2866  -26.6990   27.5350 C   0  0  0  0  0  0  0  0  0  0  0  0
  -31.1305  -27.1590   19.6144 C   0  0  0  0  0  0  0  0  0  0  0  0
  -25.9810  -32.0044   23.9613 C   0  0  0  0  0  0  0  0  0  0  0  0
  -27.5772  -31.3235   25.7660 C   0  0  0  0  0  0  0  0  0  0  0  0
  -25.1211  -31.2983   26.2011 C   0  0  0  0  0  0  0  0  0  0  0  0
  -25.3902  -24.7780   25.9868 C   0  0  0  0  0  0  0  0  0  0  0  0
  -30.6705  -20.0257   19.1508 C   0  0  0  0  0  0  0  0  0  0  0  0
  -28.4172  -24.4228   22.0440 C   0  0  0  0  0  0  0  0  0  0  0  0
  -29.5665  -25.1711   19.8510 C   0  0  2  0  0  0  0  0  0  0  0  0
  -26.1317  -29.5344   24.6979 C   0  0  1  0  0  0  0  0  0  0  0  0
  -26.9253  -26.5358   26.8769 C   0  0  2  0  0  0  0  0  0  0  0  0
  -29.7004  -26.6993   19.8730 C   0  0  2  0  0  0  0  0  0  1  0  0
  -26.2016  -31.0258   25.1320 C   0  0  0  0  0  0  0  0  0  0  0  0
  -25.1991  -16.3003   20.5011 N   0  0  0  0  0  0  0  0  0  0  0  0
  -30.1153  -22.4139   19.0368 N   0  0  0  0  0  0  0  0  0  0  0  0
  -26.2902  -15.8689   21.1565 N   0  0  0  0  0  0  0  0  0  0  0  0
  -24.7317  -29.3605   22.6605 N   0  0  0  0  0  0  0  0  0  0  0  0
  -28.1240  -19.1732   21.7290 N   0  0  0  0  0  0  0  0  0  0  0  0
  -27.4874  -13.9129   21.7490 N   0  0  0  0  0  0  0  0  0  0  0  0
  -23.9827  -12.3152   19.3910 N   0  0  0  0  0  0  0  0  0  0  0  0
  -29.5447  -24.6656   18.4941 N   0  0  0  0  0  0  0  0  0  0  0  0
  -21.4029  -29.7358   22.9334 N   0  0  0  0  0  0  0  0  0  0  0  0
  -26.3102  -28.5849   25.7910 N   0  0  0  0  0  0  0  0  0  0  0  0
  -29.5403  -19.4653   19.8575 N   0  0  0  0  0  0  0  0  0  0  0  0
  -26.7021  -25.0863   26.6121 N   0  3  0  0  0  0  0  0  0  0  0  0
  -25.8676  -11.7244   20.5559 O   0  0  0  0  0  0  0  0  0  0  0  0
  -22.7905  -31.2178   21.7928 O   0  0  0  0  0  0  0  0  0  0  0  0
  -27.2205  -24.6111   19.9593 O   0  0  0  0  0  0  0  0  0  0  0  0
  -23.8871  -28.7763   24.7476 O   0  0  0  0  0  0  0  0  0  0  0  0
  -27.2047  -26.8778   24.5016 O   0  0  0  0  0  0  0  0  0  0  0  0
  -29.9481  -20.6032   21.8057 O   0  0  0  0  0  0  0  0  0  0  0  0
  -19.9215  -15.3406   17.0697 O   0  0  0  0  0  0  0  0  0  0  0  0
  -28.8635  -27.2985   18.8847 O   0  0  0  0  0  0  0  0  0  1  0  0
  -15.9552  -11.7257   18.3364 F   0  0  0  0  0  0  0  0  0  0  0  0
  -17.4206  -16.2027   17.8728 F   0  0  0  0  0  0  0  0  0  0  0  0
  -29.7532  -22.8681   16.5178 S   0  0  0  0  0  0  0  0  0  0  0  0
  1  2  1  0  0  0  0
  1  5  2  0  0  0  0
  2  6  2  0  0  0  0
  3  8  2  0  0  0  0
  3 16  1  0  0  0  0
  4  9  1  0  0  0  0
  4 16  2  0  0  0  0
  5 18  1  0  0  0  0
  6 20  1  0  0  0  0
  7 10  2  0  0  0  0
  7 19  1  0  0  0  0
  8 22  1  0  0  0  0
  9 22  2  0  0  0  0
 10 23  1  0  0  0  0
 11 12  2  0  0  0  0
 11 24  1  0  0  0  0
 12 25  1  0  0  0  0
 13 21  1  0  0  0  0
 13 23  2  0  0  0  0
 14 25  2  0  0  0  0
 14 26  1  0  0  0  0
 15 28  2  0  0  0  0
 15 85  1  0  0  0  0
 16 27  1  0  0  0  0
 17 27  1  0  0  0  0
 17 29  2  0  0  0  0
 17 31  1  0  0  0  0
 18 20  2  0  0  0  0
 18 37  1  0  0  0  0
 19 21  2  0  0  0  0
 19 38  1  0  0  0  0
 20 46  1  0  0  0  0
 21 39  1  0  0  0  0
 22 81  1  0  0  0  0
 23 82  1  0  0  0  0
 24 26  2  0  0  0  0
 24 81  1  0  0  0  0
 25 83  1  0  0  0  0
 26 84  1  0  0  0  0
 27 63  2  0  0  0  0
 28 56  1  0  0  0  0
 28 64  1  0  0  0  0
 29 65  1  0  0  0  0
 29 68  1  0  0  0  0
 30 64  2  0  0  0  0
 30 70  1  0  0  0  0
 30 85  1  0  0  0  0
 31 69  1  0  0  0  0
 31 75  2  0  0  0  0
 32 47  1  0  0  0  0
 32 71  1  0  0  0  0
 32 76  2  0  0  0  0
 33 57  1  0  0  0  0
 33 58  1  0  0  0  0
 33 77  2  0  0  0  0
 34 59  1  0  0  0  0
 34 66  1  0  0  0  0
 34 78  2  0  0  0  0
 35 60  1  0  0  0  0
 35 72  1  0  0  0  0
 35 79  2  0  0  0  0
 36 67  1  0  0  0  0
 36 73  1  0  0  0  0
 36 80  2  0  0  0  0
 37 40  1  0  0  0  0
 38 47  1  0  0  0  0
 39 66  1  0  0  0  0
 40 42  1  0  0  0  0
 41 43  1  0  0  0  0
 41 44  1  0  0  0  0
 42 46  1  0  0  0  0
 43 48  1  0  0  0  0
 44 67  1  0  0  0  0
 45 48  1  0  0  0  0
 45 67  1  0  0  0  0
 46 71  1  0  0  0  0
 47 66  1  0  0  0  0
 48 65  1  0  0  0  0
 49 57  1  0  0  0  0
 50 60  1  0  0  0  0
 51 61  1  0  0  0  0
 52 62  1  0  0  0  0
 53 62  1  0  0  0  0
 54 62  1  0  0  0  0
 55 74  1  0  0  0  0
 56 73  1  0  0  0  0
 58 61  1  0  0  0  0
 58 70  1  0  0  0  0
 59 62  1  0  0  0  0
 59 72  1  0  0  0  0
 60 74  1  0  0  0  0
 61 82  1  0  0  0  0
 63 65  1  0  0  0  0
M  CHG  1  74   1
M  ISO  4  36 100  61 101  73 100  82 101
M  END
> <Batch ID>
0190

> <Smiles>
CCC(=O)C(Nc1nc(C[100NH:0][100C:0](=O)N2CCCC(n3nc(-c4ccc(Oc5ccc(F)cc5F)cc4)c(C(N)=O)c3N)C2)cs1)[101CH:1](C)[101O:1]c1ccc2c(c1)CN(C(=O)C(NC(=O)C(C)NC)C(C)(C)C)C(C(=O)NC1CCCc3ccccc31)C2

> <Shape>
0.253

> <Color>
0.099

> <Negative vol penalty>
0.000

$$$$

  -OEChem-04052305213D

 84 92  0     1  0  0  0  0  0999 V2000
  -19.3117  -33.6135   20.3288 C   0  0  0  0  0  0  0  0  0  0  0  0
  -20.5463  -33.1100   19.9319 C   0  0  0  0  0  0  0  0  0  0  0  0
  -24.8198  -13.5447   21.4033 C   0  0  0  0  0  0  0  0  0  0  0  0
  -26.3734  -13.3238   19.5662 C   0  0  0  0  0  0  0  0  0  0  0  0
  -18.7889  -33.2720   21.5753 C   0  0  0  0  0  0  0  0  0  0  0  0
  -21.2594  -32.2653   20.7819 C   0  0  0  0  0  0  0  0  0  0  0  0
  -24.8258  -27.5604   19.1541 C   0  0  0  0  0  0  0  0  0  0  0  0
  -24.1498  -12.3990   20.9745 C   0  0  0  0  0  0  0  0  0  0  0  0
  -25.7034  -12.1779   19.1375 C   0  0  0  0  0  0  0  0  0  0  0  0
  -26.2063  -27.4385   19.0020 C   0  0  0  0  0  0  0  0  0  0  0  0
  -24.5789   -9.0497   21.1510 C   0  0  0  0  0  0  0  0  0  0  0  0
  -24.2288   -8.1045   22.1152 C   0  0  0  0  0  0  0  0  0  0  0  0
  -26.3686  -26.5517   21.2394 C   0  0  0  0  0  0  0  0  0  0  0  0
  -21.8988   -8.3791   21.5382 C   0  0  0  0  0  0  0  0  0  0  0  0
  -25.9316  -14.0072   20.6991 C   0  0  0  0  0  0  0  0  0  0  0  0
  -27.7015  -15.2584   22.0443 C   0  0  0  0  0  0  0  0  0  0  0  0
  -19.4915  -32.4150   22.4370 C   0  0  0  0  0  0  0  0  0  0  0  0
  -24.2067  -27.1883   20.3561 C   0  0  0  0  0  0  0  0  0  0  0  0
  -20.7461  -31.9130   22.0417 C   0  0  0  0  0  0  0  0  0  0  0  0
  -24.9798  -26.6674   21.4034 C   0  0  0  0  0  0  0  0  0  0  0  0
  -24.5917  -11.7155   19.8417 C   0  0  0  0  0  0  0  0  0  0  0  0
  -26.9783  -26.9368   20.0457 C   0  0  0  0  0  0  0  0  0  0  0  0
  -23.5890   -9.6596   20.3805 C   0  0  0  0  0  0  0  0  0  0  0  0
  -22.8888   -7.7692   22.3088 C   0  0  0  0  0  0  0  0  0  0  0  0
  -22.2490   -9.3243   20.5741 C   0  0  0  0  0  0  0  0  0  0  0  0
  -26.6237  -15.1911   21.1412 C   0  0  0  0  0  0  0  0  0  0  0  0
  -32.8048  -23.3148   20.4520 C   0  0  0  0  0  0  0  0  0  0  0  0
  -33.5910  -22.2281   20.7733 C   0  0  0  0  0  0  0  0  0  0  0  0
  -27.9946  -16.5975   22.1300 C   0  0  0  0  0  0  0  0  0  0  0  0
  -31.2789  -21.7470   20.2985 C   0  0  0  0  0  0  0  0  0  0  0  0
  -28.3774  -14.2046   22.7432 C   0  0  0  0  0  0  0  0  0  0  0  0
  -22.5154  -28.7131   22.5738 C   0  0  0  0  0  0  0  0  0  0  0  0
  -22.1356  -25.7264   23.7812 C   0  0  0  0  0  0  0  0  0  0  0  0
  -23.3060  -22.5300   24.0261 C   0  0  0  0  0  0  0  0  0  0  0  0
  -28.8264  -21.5634   19.7529 C   0  0  0  0  0  0  0  0  0  0  0  0
  -18.9076  -32.1120   23.7943 C   0  0  0  0  0  0  0  0  0  0  0  0
  -22.7132  -27.3009   20.4947 C   0  0  0  0  0  0  0  0  0  0  0  0
  -24.3610  -26.2348   22.7067 C   0  0  0  0  0  0  0  0  0  0  0  0
  -19.5540  -30.9117   24.4812 C   0  0  0  0  0  0  0  0  0  0  0  0
  -25.4577  -20.6393   20.4421 C   0  0  0  0  0  0  0  0  0  0  0  0
  -21.0740  -30.9973   24.3868 C   0  0  0  0  0  0  0  0  0  0  0  0
  -25.5494  -19.1450   20.7597 C   0  0  0  0  0  0  0  0  0  0  0  0
  -26.4318  -21.0452   19.3375 C   0  0  0  0  0  0  0  0  0  0  0  0
  -27.9203  -19.1599   19.8846 C   0  0  0  0  0  0  0  0  0  0  0  0
  -21.5383  -30.9742   22.9255 C   0  0  1  0  0  0  0  0  0  0  0  0
  -22.2517  -27.3732   21.9470 C   0  0  1  0  0  0  0  0  0  0  0  0
  -27.0037  -18.7159   21.0363 C   0  0  2  0  0  0  0  0  0  0  0  0
  -35.0261  -22.1595   21.1137 C   0  0  0  0  0  0  0  0  0  0  0  0
  -23.3317  -20.1019   24.6594 C   0  0  0  0  0  0  0  0  0  0  0  0
  -23.1742  -26.8046   26.4399 C   0  0  0  0  0  0  0  0  0  0  0  0
  -23.5463  -24.4400   27.1738 C   0  0  0  0  0  0  0  0  0  0  0  0
  -21.2418  -25.2293   26.6364 C   0  0  0  0  0  0  0  0  0  0  0  0
  -33.5485  -25.1281   22.8862 C   0  0  0  0  0  0  0  0  0  0  0  0
  -33.4362  -27.1054   21.3620 C   0  0  0  0  0  0  0  0  0  0  0  0
  -21.8653  -21.7522   21.5606 C   0  0  0  0  0  0  0  0  0  0  0  0
  -33.2636  -24.7536   20.3744 C   0  0  0  0  0  0  0  0  0  0  0  0
  -30.5374  -26.2618   20.6538 C   0  0  0  0  0  0  0  0  0  0  0  0
  -31.3732  -25.6937   21.8050 C   0  0  0  0  0  0  0  0  0  0  0  0
  -29.0556  -26.2959   21.0100 C   0  0  0  0  0  0  0  0  0  1  0  0
  -22.8960  -24.8642   24.7596 C   0  0  1  0  0  0  0  0  0  0  0  0
  -22.6110  -21.1887   23.8769 C   0  0  2  0  0  0  0  0  0  0  0  0
  -22.7268  -25.3444   26.2287 C   0  0  0  0  0  0  0  0  0  0  0  0
  -32.9184  -25.6719   21.5850 C   0  0  0  0  0  0  0  0  0  0  0  0
  -26.2569  -16.3920   20.6858 N   0  0  0  0  0  0  0  0  0  0  0  0
  -31.4789  -23.0407   20.1790 N   0  0  0  0  0  0  0  0  0  0  0  0
  -27.1089  -17.2264   21.3054 N   0  0  0  0  0  0  0  0  0  0  0  0
  -22.8978  -26.3702   22.7960 N   0  0  0  0  0  0  0  0  0  0  0  0
  -27.7899  -20.6096   19.6703 N   0  0  0  0  0  0  0  0  0  0  0  0
  -28.9210  -17.2866   22.8296 N   0  0  0  0  0  0  0  0  0  0  0  0
  -27.9485  -12.8858   22.5401 N   0  0  0  0  0  0  0  0  0  0  0  0
  -30.0677  -21.0367   20.1084 N   0  0  0  0  0  0  0  0  0  0  0  0
  -21.4922  -29.6258   22.4019 N   0  0  0  0  0  0  0  0  0  0  0  0
  -22.4548  -23.4936   24.5244 N   0  0  0  0  0  0  0  0  0  0  0  0
  -22.5670  -20.7847   22.4431 N   0  3  0  0  0  0  0  0  0  0  0  0
  -29.3226  -14.4274   23.5372 O   0  0  0  0  0  0  0  0  0  0  0  0
  -23.5685  -28.9043   23.1705 O   0  0  0  0  0  0  0  0  0  0  0  0
  -20.9098  -25.8195   23.8828 O   0  0  0  0  0  0  0  0  0  0  0  0
  -24.4869  -22.7046   23.7336 O   0  0  0  0  0  0  0  0  0  0  0  0
  -28.6217  -22.7633   19.5516 O   0  0  0  0  0  0  0  0  0  0  0  0
  -23.9383  -10.5973   19.4231 O   0  0  0  0  0  0  0  0  0  0  0  0
  -28.3261  -26.8175   19.9001 O   0  0  0  0  0  0  0  0  0  1  0  0
  -22.5528   -6.8603   23.2336 F   0  0  0  0  0  0  0  0  0  0  0  0
  -21.2936   -9.9061   19.8361 F   0  0  0  0  0  0  0  0  0  0  0  0
  -32.6415  -20.8004   20.7371 S   0  0  0  0  0  0  0  0  0  0  0  0
  1  2  1  0  0  0  0
  1  5  2  0  0  0  0
  2  6  2  0  0  0  0
  3  8  2  0  0  0  0
  3 15  1  0  0  0  0
  4  9  1  0  0  0  0
  4 15  2  0  0  0  0
  5 17  1  0  0  0  0
  6 19  1  0  0  0  0
  7 10  2  0  0  0  0
  7 18  1  0  0  0  0
  8 21  1  0  0  0  0
  9 21  2  0  0  0  0
 10 22  1  0  0  0  0
 11 12  2  0  0  0  0
 11 23  1  0  0  0  0
 12 24  1  0  0  0  0
 13 20  1  0  0  0  0
 13 22  2  0  0  0  0
 14 24  2  0  0  0  0
 14 25  1  0  0  0  0
 15 26  1  0  0  0  0
 16 26  1  0  0  0  0
 16 29  2  0  0  0  0
 16 31  1  0  0  0  0
 17 19  2  0  0  0  0
 17 36  1  0  0  0  0
 18 20  2  0  0  0  0
 18 37  1  0  0  0  0
 19 45  1  0  0  0  0
 20 38  1  0  0  0  0
 21 80  1  0  0  0  0
 22 81  1  0  0  0  0
 23 25  2  0  0  0  0
 23 80  1  0  0  0  0
 24 82  1  0  0  0  0
 25 83  1  0  0  0  0
 26 64  2  0  0  0  0
 27 28  2  0  0  0  0
 27 56  1  0  0  0  0
 27 65  1  0  0  0  0
 28 48  1  0  0  0  0
 28 84  1  0  0  0  0
 29 66  1  0  0  0  0
 29 69  1  0  0  0  0
 30 65  2  0  0  0  0
 30 71  1  0  0  0  0
 30 84  1  0  0  0  0
 31 70  1  0  0  0  0
 31 75  2  0  0  0  0
 32 46  1  0  0  0  0
 32 72  1  0  0  0  0
 32 76  2  0  0  0  0
 33 60  1  0  0  0  0
 33 67  1  0  0  0  0
 33 77  2  0  0  0  0
 34 61  1  0  0  0  0
 34 73  1  0  0  0  0
 34 78  2  0  0  0  0
 35 68  1  0  0  0  0
 35 71  1  0  0  0  0
 35 79  2  0  0  0  0
 36 39  1  0  0  0  0
 37 46  1  0  0  0  0
 38 67  1  0  0  0  0
 39 41  1  0  0  0  0
 40 42  1  0  0  0  0
 40 43  1  0  0  0  0
 41 45  1  0  0  0  0
 42 47  1  0  0  0  0
 43 68  1  0  0  0  0
 44 47  1  0  0  0  0
 44 68  1  0  0  0  0
 45 72  1  0  0  0  0
 46 67  1  0  0  0  0
 47 66  1  0  0  0  0
 49 61  1  0  0  0  0
 50 62  1  0  0  0  0
 51 62  1  0  0  0  0
 52 62  1  0  0  0  0
 53 63  1  0  0  0  0
 54 63  1  0  0  0  0
 55 74  1  0  0  0  0
 56 63  1  0  0  0  0
 57 58  1  0  0  0  0
 57 59  1  0  0  0  0
 58 63  1  0  0  0  0
 59 81  1  0  0  0  0
 60 62  1  0  0  0  0
 60 73  1  0  0  0  0
 61 74  1  0  0  0  0
 64 66  1  0  0  0  0
M  CHG  1  74   1
M  ISO  4  35 100  59 101  71 100  81 101
M  END
> <Batch ID>
0190

> <Smiles>
CNC(C)C(=O)NC(C(=O)N1Cc2cc([101O:1][101CH2:1]CCC(C)(C)Cc3nc([100NH:0][100C:0](=O)N4CCCC(n5nc(-c6ccc(Oc7ccc(F)cc7F)cc6)c(C(N)=O)c5N)C4)sc3C)ccc2CC1C(=O)NC1CCCc2ccccc21)C(C)(C)C

> <Shape>
0.198

> <Color>
0.101

> <Negative vol penalty>
0.000

$$$$

  -OEChem-04052305213D

 86 94  0     1  0  0  0  0  0999 V2000
  -28.5499  -29.3672   18.0219 C   0  0  0  0  0  0  0  0  0  0  0  0
  -27.7443  -28.5105   17.2787 C   0  0  0  0  0  0  0  0  0  0  0  0
  -30.5443  -19.8953   19.4517 C   0  0  0  0  0  0  0  0  0  0  0  0
  -28.5771  -20.2752   20.8019 C   0  0  0  0  0  0  0  0  0  0  0  0
  -28.7025  -29.1645   19.3929 C   0  0  0  0  0  0  0  0  0  0  0  0
  -27.0917  -27.4497   17.9059 C   0  0  0  0  0  0  0  0  0  0  0  0
  -21.0509  -23.6160   17.5487 C   0  0  0  0  0  0  0  0  0  0  0  0
  -30.3846  -21.1510   18.8657 C   0  0  0  0  0  0  0  0  0  0  0  0
  -28.4174  -21.5309   20.2160 C   0  0  0  0  0  0  0  0  0  0  0  0
  -20.6175  -22.2926   17.4809 C   0  0  0  0  0  0  0  0  0  0  0  0
  -30.7024  -24.4042   17.2750 C   0  0  0  0  0  0  0  0  0  0  0  0
  -31.8364  -25.2046   17.1375 C   0  0  0  0  0  0  0  0  0  0  0  0
  -20.8918  -22.0868   19.8687 C   0  0  0  0  0  0  0  0  0  0  0  0
  -32.1475  -25.1756   19.5332 C   0  0  0  0  0  0  0  0  0  0  0  0
  -22.2189  -12.1738   20.4408 C   0  0  0  0  0  0  0  0  0  0  0  0
  -29.6405  -19.4574   20.4198 C   0  0  0  0  0  0  0  0  0  0  0  0
  -30.5403  -17.8500   22.1845 C   0  0  0  0  0  0  0  0  0  0  0  0
  -28.0438  -28.1065   20.0389 C   0  0  0  0  0  0  0  0  0  0  0  0
  -21.4190  -24.1824   18.7776 C   0  0  0  0  0  0  0  0  0  0  0  0
  -27.2367  -27.2318   19.2865 C   0  0  0  0  0  0  0  0  0  0  0  0
  -21.3271  -23.4184   19.9498 C   0  0  0  0  0  0  0  0  0  0  0  0
  -29.3212  -21.9688   19.2479 C   0  0  0  0  0  0  0  0  0  0  0  0
  -20.5407  -21.5269   18.6406 C   0  0  0  0  0  0  0  0  0  0  0  0
  -30.2909  -23.9895   18.5416 C   0  0  0  0  0  0  0  0  0  0  0  0
  -32.5590  -25.5903   18.2665 C   0  0  0  0  0  0  0  0  0  0  0  0
  -31.0134  -24.3752   19.6707 C   0  0  0  0  0  0  0  0  0  0  0  0
  -29.8046  -18.1601   21.0251 C   0  0  0  0  0  0  0  0  0  0  0  0
  -22.9610  -13.1521   21.0686 C   0  0  0  0  0  0  0  0  0  0  0  0
  -30.3830  -16.4942   22.3385 C   0  0  0  0  0  0  0  0  0  0  0  0
  -21.5304  -14.4439   20.0223 C   0  0  0  0  0  0  0  0  0  0  0  0
  -31.2979  -18.7104   23.0455 C   0  0  0  0  0  0  0  0  0  0  0  0
  -24.1001  -25.4029   19.9716 C   0  0  0  0  0  0  0  0  0  0  0  0
  -22.1797  -26.1636   22.4727 C   0  0  0  0  0  0  0  0  0  0  0  0
  -19.3326  -25.5184   24.2404 C   0  0  0  0  0  0  0  0  0  0  0  0
  -26.1485  -12.6526   20.5605 C   0  0  0  0  0  0  0  0  0  0  0  0
  -28.2770  -27.8991   21.5144 C   0  0  0  0  0  0  0  0  0  0  0  0
  -21.8589  -25.6195   18.8376 C   0  0  0  0  0  0  0  0  0  0  0  0
  -21.6914  -23.9856   21.2966 C   0  0  0  0  0  0  0  0  0  0  0  0
  -27.2529  -26.9755   22.1690 C   0  0  0  0  0  0  0  0  0  0  0  0
  -29.6262  -12.5018   19.8129 C   0  0  0  0  0  0  0  0  0  0  0  0
  -27.0425  -25.7253   21.3208 C   0  0  0  0  0  0  0  0  0  0  0  0
  -30.1327  -13.9069   20.1434 C   0  0  0  0  0  0  0  0  0  0  0  0
  -28.2229  -12.5346   19.2117 C   0  0  0  0  0  0  0  0  0  0  0  0
  -27.7283  -14.6662   20.3455 C   0  0  0  0  0  0  0  0  0  0  0  0
  -26.4927  -26.0848   19.9352 C   0  0  1  0  0  0  0  0  0  0  0  0
  -22.6989  -25.9362   20.0710 C   0  0  1  0  0  0  0  0  0  0  0  0
  -29.1174  -14.6803   21.0061 C   0  0  2  0  0  0  0  0  0  0  0  0
  -18.0508  -26.2826   26.2579 C   0  0  0  0  0  0  0  0  0  0  0  0
  -22.7671  -13.5584   25.6031 C   0  0  0  0  0  0  0  0  0  0  0  0
  -22.9179  -11.3887   24.3684 C   0  0  0  0  0  0  0  0  0  0  0  0
  -24.1807  -24.7373   24.2814 C   0  0  0  0  0  0  0  0  0  0  0  0
  -22.4296  -24.6976   26.0703 C   0  0  0  0  0  0  0  0  0  0  0  0
  -23.2793  -26.8784   25.2073 C   0  0  0  0  0  0  0  0  0  0  0  0
  -16.9764  -26.2550   22.6081 C   0  0  0  0  0  0  0  0  0  0  0  0
  -23.9676  -13.5038   23.3957 C   0  0  0  0  0  0  0  0  0  0  0  0
  -21.2674  -16.9238   19.9425 C   0  0  0  0  0  0  0  0  0  0  0  0
  -20.6439  -19.3314   19.5490 C   0  0  0  0  0  0  0  0  0  1  0  0
  -24.1158  -12.9205   21.9589 C   0  0  2  0  0  0  0  0  0  0  0  0
  -21.7640  -25.4743   23.7498 C   0  0  1  0  0  0  0  0  0  0  0  0
  -18.2378  -26.4348   24.7564 C   0  0  2  0  0  0  0  0  0  0  0  0
  -22.8063  -12.9064   24.2179 C   0  0  0  0  0  0  0  0  0  0  0  0
  -20.6838  -17.9291   18.9516 C   0  0  1  0  0  0  0  0  0  0  0  0
  -22.9083  -25.4353   24.8017 C   0  0  0  0  0  0  0  0  0  0  0  0
  -29.2233  -17.0877   20.4809 N   0  0  0  0  0  0  0  0  0  0  0  0
  -22.5679  -14.4545   20.8294 N   0  0  0  0  0  0  0  0  0  0  0  0
  -29.5938  -16.0904   21.3020 N   0  0  0  0  0  0  0  0  0  0  0  0
  -22.1218  -25.3935   21.3025 N   0  0  0  0  0  0  0  0  0  0  0  0
  -27.3086  -13.2814   20.0791 N   0  0  0  0  0  0  0  0  0  0  0  0
  -30.8444  -15.6200   23.2579 N   0  0  0  0  0  0  0  0  0  0  0  0
  -31.3545  -20.0776   22.7420 N   0  0  0  0  0  0  0  0  0  0  0  0
  -20.8797  -15.5807   19.5736 N   0  0  0  0  0  0  0  0  0  0  0  0
  -25.0778  -26.3785   20.0135 N   0  0  0  0  0  0  0  0  0  0  0  0
  -20.5560  -26.1534   24.2058 N   0  0  0  0  0  0  0  0  0  0  0  0
  -25.3398  -13.4292   21.3813 N   0  0  0  0  0  0  0  0  0  0  0  0
  -16.9432  -26.1228   24.0874 N   0  3  0  0  0  0  0  0  0  0  0  0
  -31.9202  -18.2771   24.0448 O   0  0  0  0  0  0  0  0  0  0  0  0
  -24.2809  -24.1954   19.8663 O   0  0  0  0  0  0  0  0  0  0  0  0
  -22.5355  -27.3441   22.5109 O   0  0  0  0  0  0  0  0  0  0  0  0
  -19.1241  -24.3545   23.9054 O   0  0  0  0  0  0  0  0  0  0  0  0
  -25.8578  -11.4838   20.2840 O   0  0  0  0  0  0  0  0  0  0  0  0
  -21.5138  -17.9751   17.7892 O   0  0  0  0  0  0  0  0  0  0  0  0
  -29.1652  -23.1942   18.6764 O   0  0  0  0  0  0  0  0  0  0  0  0
  -20.1186  -20.2347   18.5772 O   0  0  0  0  0  0  0  0  0  1  0  0
  -33.6489  -26.3576   18.1342 F   0  0  0  0  0  0  0  0  0  0  0  0
  -30.6236  -23.9789   20.8901 F   0  0  0  0  0  0  0  0  0  0  0  0
  -20.9746  -12.9024   19.5123 S   0  0  0  0  0  0  0  0  0  0  0  0
  1  2  1  0  0  0  0
  1  5  2  0  0  0  0
  2  6  2  0  0  0  0
  3  8  2  0  0  0  0
  3 16  1  0  0  0  0
  4  9  1  0  0  0  0
  4 16  2  0  0  0  0
  5 18  1  0  0  0  0
  6 20  1  0  0  0  0
  7 10  2  0  0  0  0
  7 19  1  0  0  0  0
  8 22  1  0  0  0  0
  9 22  2  0  0  0  0
 10 23  1  0  0  0  0
 11 12  2  0  0  0  0
 11 24  1  0  0  0  0
 12 25  1  0  0  0  0
 13 21  1  0  0  0  0
 13 23  2  0  0  0  0
 14 25  2  0  0  0  0
 14 26  1  0  0  0  0
 15 28  2  0  0  0  0
 15 86  1  0  0  0  0
 16 27  1  0  0  0  0
 17 27  1  0  0  0  0
 17 29  2  0  0  0  0
 17 31  1  0  0  0  0
 18 20  2  0  0  0  0
 18 36  1  0  0  0  0
 19 21  2  0  0  0  0
 19 37  1  0  0  0  0
 20 45  1  0  0  0  0
 21 38  1  0  0  0  0
 22 82  1  0  0  0  0
 23 83  1  0  0  0  0
 24 26  2  0  0  0  0
 24 82  1  0  0  0  0
 25 84  1  0  0  0  0
 26 85  1  0  0  0  0
 27 64  2  0  0  0  0
 28 58  1  0  0  0  0
 28 65  1  0  0  0  0
 29 66  1  0  0  0  0
 29 69  1  0  0  0  0
 30 65  2  0  0  0  0
 30 71  1  0  0  0  0
 30 86  1  0  0  0  0
 31 70  1  0  0  0  0
 31 76  2  0  0  0  0
 32 46  1  0  0  0  0
 32 72  1  0  0  0  0
 32 77  2  0  0  0  0
 33 59  1  0  0  0  0
 33 67  1  0  0  0  0
 33 78  2  0  0  0  0
 34 60  1  0  0  0  0
 34 73  1  0  0  0  0
 34 79  2  0  0  0  0
 35 68  1  0  0  0  0
 35 74  1  0  0  0  0
 35 80  2  0  0  0  0
 36 39  1  0  0  0  0
 37 46  1  0  0  0  0
 38 67  1  0  0  0  0
 39 41  1  0  0  0  0
 40 42  1  0  0  0  0
 40 43  1  0  0  0  0
 41 45  1  0  0  0  0
 42 47  1  0  0  0  0
 43 68  1  0  0  0  0
 44 47  1  0  0  0  0
 44 68  1  0  0  0  0
 45 72  1  0  0  0  0
 46 67  1  0  0  0  0
 47 66  1  0  0  0  0
 48 60  1  0  0  0  0
 49 61  1  0  0  0  0
 50 61  1  0  0  0  0
 51 63  1  0  0  0  0
 52 63  1  0  0  0  0
 53 63  1  0  0  0  0
 54 75  1  0  0  0  0
 55 58  1  0  0  0  0
 55 61  1  0  0  0  0
 56 62  1  0  0  0  0
 56 71  1  0  0  0  0
 57 62  1  0  0  0  0
 57 83  1  0  0  0  0
 58 74  1  0  0  0  0
 59 63  1  0  0  0  0
 59 73  1  0  0  0  0
 60 75  1  0  0  0  0
 62 81  1  0  0  0  0
 64 66  1  0  0  0  0
M  CHG  1  75   1
M  ISO  4  35 100  57 101  74 100  83 101
M  END
> <Batch ID>
0190

> <Smiles>
CNC(C)C(=O)NC(C(=O)N1Cc2cc([101O:1][101CH2:1]C(O)CNc3nc(C(CC(C)C)[100NH:0][100C:0](=O)N4CCCC(n5nc(-c6ccc(Oc7ccc(F)cc7F)cc6)c(C(N)=O)c5N)C4)cs3)ccc2CC1C(=O)NC1CCCc2ccccc21)C(C)(C)C

> <Shape>
0.208

> <Color>
0.059

> <Negative vol penalty>
0.000

$$$$

  -OEChem-04052305213D

 84 92  0     1  0  0  0  0  0999 V2000
  -17.3110  -30.2489   23.9982 C   0  0  0  0  0  0  0  0  0  0  0  0
  -18.6974  -30.3204   24.0893 C   0  0  0  0  0  0  0  0  0  0  0  0
  -22.6831  -14.6639   21.6724 C   0  0  0  0  0  0  0  0  0  0  0  0
  -24.8070  -13.5618   22.0069 C   0  0  0  0  0  0  0  0  0  0  0  0
  -16.7110  -29.1727   23.3459 C   0  0  0  0  0  0  0  0  0  0  0  0
  -19.4846  -29.3150   23.5290 C   0  0  0  0  0  0  0  0  0  0  0  0
  -24.9746  -29.9746   20.8963 C   0  0  0  0  0  0  0  0  0  0  0  0
  -22.0194  -13.4682   21.9468 C   0  0  0  0  0  0  0  0  0  0  0  0
  -24.1432  -12.3660   22.2813 C   0  0  0  0  0  0  0  0  0  0  0  0
  -26.2712  -29.7740   21.3679 C   0  0  0  0  0  0  0  0  0  0  0  0
  -22.6296   -9.8991   20.5338 C   0  0  0  0  0  0  0  0  0  0  0  0
  -23.1133   -8.7368   19.9331 C   0  0  0  0  0  0  0  0  0  0  0  0
  -30.6707  -22.9494   18.0708 C   0  0  0  0  0  0  0  0  0  0  0  0
  -30.2041  -24.1767   18.6241 C   0  0  0  0  0  0  0  0  0  0  0  0
  -26.2748  -27.5642   20.4005 C   0  0  0  0  0  0  0  0  0  0  0  0
  -23.5040   -7.7725   22.1136 C   0  0  0  0  0  0  0  0  0  0  0  0
  -24.0769  -14.7107   21.7024 C   0  0  0  0  0  0  0  0  0  0  0  0
  -25.1356  -16.9424   22.3401 C   0  0  0  0  0  0  0  0  0  0  0  0
  -17.4915  -28.1585   22.7688 C   0  0  0  0  0  0  0  0  0  0  0  0
  -24.3132  -28.9656   20.1814 C   0  0  0  0  0  0  0  0  0  0  0  0
  -18.8944  -28.2235   22.8694 C   0  0  0  0  0  0  0  0  0  0  0  0
  -24.9708  -27.7554   19.9187 C   0  0  0  0  0  0  0  0  0  0  0  0
  -22.7494  -12.3192   22.2513 C   0  0  0  0  0  0  0  0  0  0  0  0
  -26.9204  -28.5676   21.1225 C   0  0  0  0  0  0  0  0  0  0  0  0
  -22.5832   -9.9981   21.9244 C   0  0  0  0  0  0  0  0  0  0  0  0
  -23.5504   -7.6735   20.7230 C   0  0  0  0  0  0  0  0  0  0  0  0
  -23.0204   -8.9348   22.7143 C   0  0  0  0  0  0  0  0  0  0  0  0
  -24.7632  -15.9455   21.4186 C   0  0  0  0  0  0  0  0  0  0  0  0
  -30.6727  -21.9311   18.9985 C   0  0  0  0  0  0  0  0  0  0  0  0
  -25.7546  -17.9017   21.5767 C   0  0  0  0  0  0  0  0  0  0  0  0
  -29.8668  -24.0495   19.9538 C   0  0  0  0  0  0  0  0  0  0  0  0
  -24.9395  -16.9963   23.7594 C   0  0  0  0  0  0  0  0  0  0  0  0
  -21.6765  -27.2508   20.6409 C   0  0  0  0  0  0  0  0  0  0  0  0
  -22.3297  -26.1660   17.6544 C   0  0  0  0  0  0  0  0  0  0  0  0
  -24.6513  -25.6220   15.2129 C   0  0  0  0  0  0  0  0  0  0  0  0
  -29.0804  -26.3393   20.6431 C   0  0  0  0  0  0  0  0  0  0  0  0
  -29.3136  -19.3526   17.5302 C   0  0  0  0  0  0  0  0  0  0  0  0
  -16.7963  -26.9907   22.1150 C   0  0  0  0  0  0  0  0  0  0  0  0
  -22.9246  -29.2076   19.6565 C   0  0  0  0  0  0  0  0  0  0  0  0
  -24.3121  -26.6481   19.1386 C   0  0  0  0  0  0  0  0  0  0  0  0
  -17.7128  -26.1585   21.2218 C   0  0  0  0  0  0  0  0  0  0  0  0
  -26.0091  -18.4548   16.5551 C   0  0  0  0  0  0  0  0  0  0  0  0
  -19.0307  -25.8677   21.9327 C   0  0  0  0  0  0  0  0  0  0  0  0
  -25.4238  -17.7989   17.8070 C   0  0  0  0  0  0  0  0  0  0  0  0
  -27.4908  -18.1260   16.3860 C   0  0  0  0  0  0  0  0  0  0  0  0
  -27.7451  -17.7736   18.8119 C   0  0  0  0  0  0  0  0  0  0  0  0
  -19.7829  -27.1651   22.2527 C   0  0  1  0  0  0  0  0  0  0  0  0
  -22.1560  -27.9184   19.3831 C   0  0  1  0  0  0  0  0  0  0  0  0
  -26.2666  -18.1219   19.0554 C   0  0  2  0  0  0  0  0  0  0  0  0
  -24.8920  -24.6867   12.8967 C   0  0  0  0  0  0  0  0  0  0  0  0
  -30.8963  -27.7404   22.6528 C   0  0  0  0  0  0  0  0  0  0  0  0
  -29.0174  -27.6833   24.3007 C   0  0  0  0  0  0  0  0  0  0  0  0
  -22.1736  -23.3358   18.7837 C   0  0  0  0  0  0  0  0  0  0  0  0
  -23.3314  -22.5226   16.7181 C   0  0  0  0  0  0  0  0  0  0  0  0
  -21.1008  -23.6257   16.5433 C   0  0  0  0  0  0  0  0  0  0  0  0
  -25.5670  -28.2210   14.1334 C   0  0  0  0  0  0  0  0  0  0  0  0
  -31.0838  -20.5219   18.8180 C   0  0  0  0  0  0  0  0  0  0  0  0
  -23.1362  -25.0244   17.0843 C   0  0  1  0  0  0  0  0  0  0  0  0
  -24.6437  -25.9359   13.7277 C   0  0  2  0  0  0  0  0  0  0  0  0
  -28.5570  -27.0293   21.9041 C   0  0  1  0  0  0  0  0  0  1  0  0
  -29.5974  -27.0268   23.0437 C   0  0  0  0  0  0  0  0  0  0  0  0
  -22.4475  -23.6470   17.2987 C   0  0  0  0  0  0  0  0  0  0  0  0
  -25.1160  -16.2440   20.1654 N   0  0  0  0  0  0  0  0  0  0  0  0
  -25.7165  -17.4393   20.2941 N   0  0  0  0  0  0  0  0  0  0  0  0
  -22.9517  -26.9303   18.6518 N   0  0  0  0  0  0  0  0  0  0  0  0
  -28.2339  -18.4572   17.6042 N   0  0  0  0  0  0  0  0  0  0  0  0
  -26.3223  -19.0874   21.8840 N   0  0  0  0  0  0  0  0  0  0  0  0
  -24.2849  -15.9263   24.3846 N   0  0  0  0  0  0  0  0  0  0  0  0
  -29.3675  -24.9987   20.8769 N   0  0  0  0  0  0  0  0  0  0  0  0
  -20.4331  -27.6782   21.0659 N   0  0  0  0  0  0  0  0  0  0  0  0
  -23.3832  -25.3576   15.6856 N   0  0  0  0  0  0  0  0  0  0  0  0
  -29.9594  -19.6168   18.7318 N   0  0  0  0  0  0  0  0  0  0  0  0
  -25.7020  -26.9339   13.4038 N   0  3  0  0  0  0  0  0  0  0  0  0
  -25.3186  -17.9723   24.4503 O   0  0  0  0  0  0  0  0  0  0  0  0
  -22.3818  -26.4090   21.1847 O   0  0  0  0  0  0  0  0  0  0  0  0
  -21.1924  -26.3765   17.2254 O   0  0  0  0  0  0  0  0  0  0  0  0
  -25.6798  -25.6086   15.8857 O   0  0  0  0  0  0  0  0  0  0  0  0
  -29.1901  -26.9495   19.5834 O   0  0  0  0  0  0  0  0  0  0  0  0
  -29.6720  -19.8818   16.4726 O   0  0  0  0  0  0  0  0  0  0  0  0
  -22.1021  -11.1523   22.5193 O   0  0  0  0  0  0  0  0  0  0  0  0
  -28.1857  -28.3690   21.5823 O   0  0  0  0  0  0  0  0  0  1  0  0
  -24.0134   -6.5568   20.1460 F   0  0  0  0  0  0  0  0  0  0  0  0
  -22.9771   -9.0236   24.0507 F   0  0  0  0  0  0  0  0  0  0  0  0
  -30.1134  -22.4558   20.5296 S   0  0  0  0  0  0  0  0  0  0  0  0
  1  2  1  0  0  0  0
  1  5  2  0  0  0  0
  2  6  2  0  0  0  0
  3  8  2  0  0  0  0
  3 17  1  0  0  0  0
  4  9  1  0  0  0  0
  4 17  2  0  0  0  0
  5 19  1  0  0  0  0
  6 21  1  0  0  0  0
  7 10  2  0  0  0  0
  7 20  1  0  0  0  0
  8 23  1  0  0  0  0
  9 23  2  0  0  0  0
 10 24  1  0  0  0  0
 11 12  2  0  0  0  0
 11 25  1  0  0  0  0
 12 26  1  0  0  0  0
 13 14  1  0  0  0  0
 13 29  2  0  0  0  0
 14 31  2  0  0  0  0
 15 22  1  0  0  0  0
 15 24  2  0  0  0  0
 16 26  2  0  0  0  0
 16 27  1  0  0  0  0
 17 28  1  0  0  0  0
 18 28  1  0  0  0  0
 18 30  2  0  0  0  0
 18 32  1  0  0  0  0
 19 21  2  0  0  0  0
 19 38  1  0  0  0  0
 20 22  2  0  0  0  0
 20 39  1  0  0  0  0
 21 47  1  0  0  0  0
 22 40  1  0  0  0  0
 23 80  1  0  0  0  0
 24 81  1  0  0  0  0
 25 27  2  0  0  0  0
 25 80  1  0  0  0  0
 26 82  1  0  0  0  0
 27 83  1  0  0  0  0
 28 63  2  0  0  0  0
 29 57  1  0  0  0  0
 29 84  1  0  0  0  0
 30 64  1  0  0  0  0
 30 67  1  0  0  0  0
 31 69  1  0  0  0  0
 31 84  1  0  0  0  0
 32 68  1  0  0  0  0
 32 74  2  0  0  0  0
 33 48  1  0  0  0  0
 33 70  1  0  0  0  0
 33 75  2  0  0  0  0
 34 58  1  0  0  0  0
 34 65  1  0  0  0  0
 34 76  2  0  0  0  0
 35 59  1  0  0  0  0
 35 71  1  0  0  0  0
 35 77  2  0  0  0  0
 36 60  1  0  0  0  0
 36 69  1  0  0  0  0
 36 78  2  0  0  0  0
 37 66  1  0  0  0  0
 37 72  1  0  0  0  0
 37 79  2  0  0  0  0
 38 41  1  0  0  0  0
 39 48  1  0  0  0  0
 40 65  1  0  0  0  0
 41 43  1  0  0  0  0
 42 44  1  0  0  0  0
 42 45  1  0  0  0  0
 43 47  1  0  0  0  0
 44 49  1  0  0  0  0
 45 66  1  0  0  0  0
 46 49  1  0  0  0  0
 46 66  1  0  0  0  0
 47 70  1  0  0  0  0
 48 65  1  0  0  0  0
 49 64  1  0  0  0  0
 50 59  1  0  0  0  0
 51 61  1  0  0  0  0
 52 61  1  0  0  0  0
 53 62  1  0  0  0  0
 54 62  1  0  0  0  0
 55 62  1  0  0  0  0
 56 73  1  0  0  0  0
 57 72  1  0  0  0  0
 58 62  1  0  0  0  0
 58 71  1  0  0  0  0
 59 73  1  0  0  0  0
 60 61  1  0  0  0  0
 60 81  1  0  0  0  0
 63 64  1  0  0  0  0
M  CHG  1  73   1
M  ISO  4  37 100  60 101  72 100  81 101
M  END
> <Batch ID>
0190

> <Smiles>
CNC(C)C(=O)NC(C(=O)N1Cc2cc([101O:1][101CH:1](C(=O)Nc3ccc(C[100NH:0][100C:0](=O)N4CCCC(n5nc(-c6ccc(Oc7ccc(F)cc7F)cc6)c(C(N)=O)c5N)C4)s3)C(C)C)ccc2CC1C(=O)NC1CCCc2ccccc21)C(C)(C)C

> <Shape>
0.239

> <Color>
0.060

> <Negative vol penalty>
0.000

$$$$

  -OEChem-04052305213D

 86 94  0     1  0  0  0  0  0999 V2000
  -25.7768  -35.6324   15.8002 C   0  0  0  0  0  0  0  0  0  0  0  0
  -25.7991  -34.2425   15.7458 C   0  0  0  0  0  0  0  0  0  0  0  0
  -24.8355   -9.1167   21.3225 C   0  0  0  0  0  0  0  0  0  0  0  0
  -23.1411  -10.5635   20.3882 C   0  0  0  0  0  0  0  0  0  0  0  0
  -26.1209  -36.2884   16.9814 C   0  0  0  0  0  0  0  0  0  0  0  0
  -26.1667  -33.5076   16.8725 C   0  0  0  0  0  0  0  0  0  0  0  0
  -23.9506  -28.0671   18.6033 C   0  0  0  0  0  0  0  0  0  0  0  0
  -23.8760   -8.1253   21.5275 C   0  0  0  0  0  0  0  0  0  0  0  0
  -22.1816   -9.5721   20.5932 C   0  0  0  0  0  0  0  0  0  0  0  0
  -24.4299  -26.7670   18.4493 C   0  0  0  0  0  0  0  0  0  0  0  0
  -21.4308   -7.4500   23.7613 C   0  0  0  0  0  0  0  0  0  0  0  0
  -21.4343   -6.7899   24.9900 C   0  0  0  0  0  0  0  0  0  0  0  0
  -25.4002  -26.8698   20.6554 C   0  0  0  0  0  0  0  0  0  0  0  0
  -21.8072   -4.6875   23.8596 C   0  0  0  0  0  0  0  0  0  0  0  0
  -24.4681  -10.3358   20.7529 C   0  0  0  0  0  0  0  0  0  0  0  0
  -26.2533  -11.5511   19.3950 C   0  0  0  0  0  0  0  0  0  0  0  0
  -26.4835  -35.5609   18.1259 C   0  0  0  0  0  0  0  0  0  0  0  0
  -24.2023  -28.7835   19.7823 C   0  0  0  0  0  0  0  0  0  0  0  0
  -26.5172  -34.1545   18.0697 C   0  0  0  0  0  0  0  0  0  0  0  0
  -24.9208  -28.1779   20.8230 C   0  0  0  0  0  0  0  0  0  0  0  0
  -22.5490   -8.3530   21.1629 C   0  0  0  0  0  0  0  0  0  0  0  0
  -25.1573  -26.1692   19.4742 C   0  0  0  0  0  0  0  0  0  0  0  0
  -21.6154   -6.7289   22.5816 C   0  0  0  0  0  0  0  0  0  0  0  0
  -21.6226   -5.4087   25.0392 C   0  0  0  0  0  0  0  0  0  0  0  0
  -21.8037   -5.3476   22.6308 C   0  0  0  0  0  0  0  0  0  0  0  0
  -25.4587  -11.3605   20.5414 C   0  0  0  0  0  0  0  0  0  0  0  0
  -29.0734  -20.7845   18.8686 C   0  0  0  0  0  0  0  0  0  0  0  0
  -27.0254  -12.6478   19.6909 C   0  0  0  0  0  0  0  0  0  0  0  0
  -28.7707  -20.2379   17.6390 C   0  0  0  0  0  0  0  0  0  0  0  0
  -28.1345  -18.9256   19.5562 C   0  0  0  0  0  0  0  0  0  0  0  0
  -26.2901  -10.8036   18.1721 C   0  0  0  0  0  0  0  0  0  0  0  0
  -25.7498  -31.4686   20.4885 C   0  0  0  0  0  0  0  0  0  0  0  0
  -31.1173  -21.9099   19.7807 C   0  0  0  0  0  0  0  0  0  0  0  0
  -24.5311  -30.9334   23.4466 C   0  0  0  0  0  0  0  0  0  0  0  0
  -23.2997  -28.6975   25.7117 C   0  0  0  0  0  0  0  0  0  0  0  0
  -27.5960  -17.7931   21.7411 C   0  0  0  0  0  0  0  0  0  0  0  0
  -26.8932  -36.3153   19.3660 C   0  0  0  0  0  0  0  0  0  0  0  0
  -23.6554  -30.1754   19.9435 C   0  0  0  0  0  0  0  0  0  0  0  0
  -25.2007  -28.8968   22.1165 C   0  0  0  0  0  0  0  0  0  0  0  0
  -26.9090  -35.4535   20.6259 C   0  0  0  0  0  0  0  0  0  0  0  0
  -27.7292  -15.0979   24.0639 C   0  0  0  0  0  0  0  0  0  0  0  0
  -27.6170  -34.1292   20.3579 C   0  0  0  0  0  0  0  0  0  0  0  0
  -27.2158  -13.9010   23.2602 C   0  0  0  0  0  0  0  0  0  0  0  0
  -26.9924  -16.3850   23.6977 C   0  0  0  0  0  0  0  0  0  0  0  0
  -26.4568  -15.5043   21.4601 C   0  0  0  0  0  0  0  0  0  0  0  0
  -26.8865  -33.3217   19.2781 C   0  0  1  0  0  0  0  0  0  0  0  0
  -24.4113  -30.9977   20.9827 C   0  0  1  0  0  0  0  0  0  0  0  0
  -27.2133  -14.1971   21.7477 C   0  0  2  0  0  0  0  0  0  0  0  0
  -33.6117  -21.5240   19.6076 C   0  0  0  0  0  0  0  0  0  0  0  0
  -22.4212  -28.5514   28.0578 C   0  0  0  0  0  0  0  0  0  0  0  0
  -27.3765  -31.1642   24.5239 C   0  0  0  0  0  0  0  0  0  0  0  0
  -26.5866  -30.0910   26.6435 C   0  0  0  0  0  0  0  0  0  0  0  0
  -25.6355  -32.2833   25.9279 C   0  0  0  0  0  0  0  0  0  0  0  0
  -20.6654  -27.7150   24.7877 C   0  0  0  0  0  0  0  0  0  0  0  0
  -32.3045  -21.6893   18.8530 C   0  0  0  0  0  0  0  0  0  0  0  0
  -28.8873  -23.1074   19.9122 C   0  0  0  0  0  0  0  0  0  0  0  0
  -26.8339  -24.5705   20.0121 C   0  0  0  0  0  0  0  0  0  1  0  0
  -29.7570  -22.1175   19.1029 C   0  0  2  0  0  0  0  0  0  0  0  0
  -24.9924  -30.1845   24.6735 C   0  0  1  0  0  0  0  0  0  0  0  0
  -22.0627  -28.7320   26.5910 C   0  0  2  0  0  0  0  0  0  0  0  0
  -27.5892  -23.5190   19.2040 C   0  0  1  0  0  0  0  0  0  0  0  0
  -26.1443  -30.9176   25.4172 C   0  0  0  0  0  0  0  0  0  0  0  0
  -25.7036  -12.2637   21.4945 N   0  0  0  0  0  0  0  0  0  0  0  0
  -28.7090  -20.0336   19.9691 N   0  0  0  0  0  0  0  0  0  0  0  0
  -26.6608  -13.0323   20.9476 N   0  0  0  0  0  0  0  0  0  0  0  0
  -24.6504  -30.2581   22.2237 N   0  0  0  0  0  0  0  0  0  0  0  0
  -27.0352  -16.6026   22.2500 N   0  0  0  0  0  0  0  0  0  0  0  0
  -27.9739  -13.3111   18.9960 N   0  0  0  0  0  0  0  0  0  0  0  0
  -25.4299   -9.7058   18.0339 N   0  0  0  0  0  0  0  0  0  0  0  0
  -27.6115  -17.8741   20.3491 N   0  0  0  0  0  0  0  0  0  0  0  0
  -25.7114  -32.6841   19.8322 N   0  0  0  0  0  0  0  0  0  0  0  0
  -23.8023  -29.9617   25.4873 N   0  0  0  0  0  0  0  0  0  0  0  0
  -21.1193  -27.6465   26.2006 N   0  3  0  0  0  0  0  0  0  0  0  0
  -27.0745  -11.0906   17.2362 O   0  0  0  0  0  0  0  0  0  0  0  0
  -26.7441  -30.7810   20.6890 O   0  0  0  0  0  0  0  0  0  0  0  0
  -31.2383  -21.9016   21.0059 O   0  0  0  0  0  0  0  0  0  0  0  0
  -24.0749  -32.0729   23.5697 O   0  0  0  0  0  0  0  0  0  0  0  0
  -23.7750  -27.6531   25.2714 O   0  0  0  0  0  0  0  0  0  0  0  0
  -28.0552  -18.6638   22.4848 O   0  0  0  0  0  0  0  0  0  0  0  0
  -27.9136  -24.0686   17.9275 O   0  0  0  0  0  0  0  0  0  0  0  0
  -21.6125   -7.3858   21.3625 O   0  0  0  0  0  0  0  0  0  0  0  0
  -25.6268  -24.9005   19.3262 O   0  0  0  0  0  0  0  0  0  1  0  0
  -21.6275   -4.7752   26.2194 F   0  0  0  0  0  0  0  0  0  0  0  0
  -21.9827   -4.6496   21.5009 F   0  0  0  0  0  0  0  0  0  0  0  0
  -29.0373  -20.7986   16.4566 F   0  0  0  0  0  0  0  0  0  0  0  0
  -28.0000  -18.7214   17.8576 S   0  0  0  0  0  0  0  0  0  0  0  0
  1  2  1  0  0  0  0
  1  5  2  0  0  0  0
  2  6  2  0  0  0  0
  3  8  2  0  0  0  0
  3 15  1  0  0  0  0
  4  9  1  0  0  0  0
  4 15  2  0  0  0  0
  5 17  1  0  0  0  0
  6 19  1  0  0  0  0
  7 10  2  0  0  0  0
  7 18  1  0  0  0  0
  8 21  1  0  0  0  0
  9 21  2  0  0  0  0
 10 22  1  0  0  0  0
 11 12  2  0  0  0  0
 11 23  1  0  0  0  0
 12 24  1  0  0  0  0
 13 20  1  0  0  0  0
 13 22  2  0  0  0  0
 14 24  2  0  0  0  0
 14 25  1  0  0  0  0
 15 26  1  0  0  0  0
 16 26  1  0  0  0  0
 16 28  2  0  0  0  0
 16 31  1  0  0  0  0
 17 19  2  0  0  0  0
 17 37  1  0  0  0  0
 18 20  2  0  0  0  0
 18 38  1  0  0  0  0
 19 46  1  0  0  0  0
 20 39  1  0  0  0  0
 21 81  1  0  0  0  0
 22 82  1  0  0  0  0
 23 25  2  0  0  0  0
 23 81  1  0  0  0  0
 24 83  1  0  0  0  0
 25 84  1  0  0  0  0
 26 63  2  0  0  0  0
 27 29  2  0  0  0  0
 27 58  1  0  0  0  0
 27 64  1  0  0  0  0
 28 65  1  0  0  0  0
 28 68  1  0  0  0  0
 29 85  1  0  0  0  0
 29 86  1  0  0  0  0
 30 64  2  0  0  0  0
 30 70  1  0  0  0  0
 30 86  1  0  0  0  0
 31 69  1  0  0  0  0
 31 74  2  0  0  0  0
 32 47  1  0  0  0  0
 32 71  1  0  0  0  0
 32 75  2  0  0  0  0
 33 55  1  0  0  0  0
 33 58  1  0  0  0  0
 33 76  2  0  0  0  0
 34 59  1  0  0  0  0
 34 66  1  0  0  0  0
 34 77  2  0  0  0  0
 35 60  1  0  0  0  0
 35 72  1  0  0  0  0
 35 78  2  0  0  0  0
 36 67  1  0  0  0  0
 36 70  1  0  0  0  0
 36 79  2  0  0  0  0
 37 40  1  0  0  0  0
 38 47  1  0  0  0  0
 39 66  1  0  0  0  0
 40 42  1  0  0  0  0
 41 43  1  0  0  0  0
 41 44  1  0  0  0  0
 42 46  1  0  0  0  0
 43 48  1  0  0  0  0
 44 67  1  0  0  0  0
 45 48  1  0  0  0  0
 45 67  1  0  0  0  0
 46 71  1  0  0  0  0
 47 66  1  0  0  0  0
 48 65  1  0  0  0  0
 49 55  1  0  0  0  0
 50 60  1  0  0  0  0
 51 62  1  0  0  0  0
 52 62  1  0  0  0  0
 53 62  1  0  0  0  0
 54 73  1  0  0  0  0
 56 58  1  0  0  0  0
 56 61  1  0  0  0  0
 57 61  1  0  0  0  0
 57 82  1  0  0  0  0
 59 62  1  0  0  0  0
 59 72  1  0  0  0  0
 60 73  1  0  0  0  0
 61 80  1  0  0  0  0
 63 65  1  0  0  0  0
M  CHG  1  73   1
M  ISO  4  36 100  57 101  70 100  82 101
M  END
> <Batch ID>
0190

> <Smiles>
CCC(=O)C(CC(O)[101CH2:1][101O:1]c1ccc2c(c1)CN(C(=O)C(NC(=O)C(C)NC)C(C)(C)C)C(C(=O)NC1CCCc3ccccc31)C2)c1nc([100NH:0][100C:0](=O)N2CCCC(n3nc(-c4ccc(Oc5ccc(F)cc5F)cc4)c(C(N)=O)c3N)C2)sc1F

> <Shape>
0.274

> <Color>
0.104

> <Negative vol penalty>
0.000

$$$$

  -OEChem-04052305213D

 87 95  0     1  0  0  0  0  0999 V2000
  -16.6096  -29.6886   22.9839 C   0  0  0  0  0  0  0  0  0  0  0  0
  -17.7760  -30.1371   22.3724 C   0  0  0  0  0  0  0  0  0  0  0  0
  -26.3543  -12.8655   21.5830 C   0  0  0  0  0  0  0  0  0  0  0  0
  -25.6775  -13.8460   19.4812 C   0  0  0  0  0  0  0  0  0  0  0  0
  -16.6434  -28.5631   23.8063 C   0  0  0  0  0  0  0  0  0  0  0  0
  -18.9771  -29.4610   22.5838 C   0  0  0  0  0  0  0  0  0  0  0  0
  -25.0976  -27.7813   19.2621 C   0  0  0  0  0  0  0  0  0  0  0  0
  -25.1142  -12.2359   21.6887 C   0  0  0  0  0  0  0  0  0  0  0  0
  -24.4373  -13.2163   19.5869 C   0  0  0  0  0  0  0  0  0  0  0  0
  -26.4778  -27.8582   19.4436 C   0  0  0  0  0  0  0  0  0  0  0  0
  -23.5855   -9.5114   20.3951 C   0  0  0  0  0  0  0  0  0  0  0  0
  -23.5701   -8.1698   20.7763 C   0  0  0  0  0  0  0  0  0  0  0  0
  -28.2967  -22.3001   16.2238 C   0  0  0  0  0  0  0  0  0  0  0  0
  -28.8398  -23.5555   16.4736 C   0  0  0  0  0  0  0  0  0  0  0  0
  -26.4010  -25.8793   20.8209 C   0  0  0  0  0  0  0  0  0  0  0  0
  -22.2434   -8.7358   22.7145 C   0  0  0  0  0  0  0  0  0  0  0  0
  -26.6360  -13.6706   20.4793 C   0  0  0  0  0  0  0  0  0  0  0  0
  -29.0788  -13.8143   19.7586 C   0  0  0  0  0  0  0  0  0  0  0  0
  -17.8437  -27.8672   24.0201 C   0  0  0  0  0  0  0  0  0  0  0  0
  -24.3560  -26.7573   19.8687 C   0  0  0  0  0  0  0  0  0  0  0  0
  -19.0272  -28.3260   23.4109 C   0  0  0  0  0  0  0  0  0  0  0  0
  -25.0119  -25.7901   20.6435 C   0  0  0  0  0  0  0  0  0  0  0  0
  -24.1557  -12.4112   20.6907 C   0  0  0  0  0  0  0  0  0  0  0  0
  -27.1293  -26.9088   20.2254 C   0  0  0  0  0  0  0  0  0  0  0  0
  -22.9300  -10.4653   21.1736 C   0  0  0  0  0  0  0  0  0  0  0  0
  -22.8990   -7.7820   21.9360 C   0  0  0  0  0  0  0  0  0  0  0  0
  -28.3599  -21.3142   17.2022 C   0  0  0  0  0  0  0  0  0  0  0  0
  -22.2589  -10.0775   22.3333 C   0  0  0  0  0  0  0  0  0  0  0  0
  -27.9166  -14.3218   20.3699 C   0  0  0  0  0  0  0  0  0  0  0  0
  -29.4306  -23.7726   17.7079 C   0  0  0  0  0  0  0  0  0  0  0  0
  -28.9723  -21.6316   18.4039 C   0  0  0  0  0  0  0  0  0  0  0  0
  -30.0134  -14.8078   19.9201 C   0  0  0  0  0  0  0  0  0  0  0  0
  -29.2943  -12.5574   19.1034 C   0  0  0  0  0  0  0  0  0  0  0  0
  -22.0095  -26.6535   22.0103 C   0  0  0  0  0  0  0  0  0  0  0  0
  -22.0297  -23.4878   21.3028 C   0  0  0  0  0  0  0  0  0  0  0  0
  -23.7609  -20.7939   20.1226 C   0  0  0  0  0  0  0  0  0  0  0  0
  -29.5973  -20.7215   20.6682 C   0  0  0  0  0  0  0  0  0  0  0  0
  -17.8399  -26.6838   24.9551 C   0  0  0  0  0  0  0  0  0  0  0  0
  -22.8716  -26.6728   19.6413 C   0  0  0  0  0  0  0  0  0  0  0  0
  -24.2643  -24.6592   21.2997 C   0  0  0  0  0  0  0  0  0  0  0  0
  -19.0807  -25.8036   24.8284 C   0  0  0  0  0  0  0  0  0  0  0  0
  -31.1858  -18.4049   22.8562 C   0  0  0  0  0  0  0  0  0  0  0  0
  -20.3426  -26.6601   24.8038 C   0  0  0  0  0  0  0  0  0  0  0  0
  -30.6382  -17.0482   22.4073 C   0  0  0  0  0  0  0  0  0  0  0  0
  -30.1261  -19.5017   22.7676 C   0  0  0  0  0  0  0  0  0  0  0  0
  -28.9169  -18.2651   21.0132 C   0  0  0  0  0  0  0  0  0  0  0  0
  -20.3447  -27.6049   23.5960 C   0  0  1  0  0  0  0  0  0  0  0  0
  -22.1448  -25.8845   20.7266 C   0  0  1  0  0  0  0  0  0  0  0  0
  -29.9664  -17.1416   21.0233 C   0  0  2  0  0  0  0  0  0  0  0  0
  -23.5244  -18.3317   19.6998 C   0  0  0  0  0  0  0  0  0  0  0  0
  -22.3173  -22.9492   24.2923 C   0  0  0  0  0  0  0  0  0  0  0  0
  -23.0211  -20.6126   23.7328 C   0  0  0  0  0  0  0  0  0  0  0  0
  -20.7440  -21.4122   23.1020 C   0  0  0  0  0  0  0  0  0  0  0  0
  -24.2374  -21.1287   17.2210 C   0  0  0  0  0  0  0  0  0  0  0  0
  -29.2423  -27.5554   19.3459 C   0  0  0  0  0  0  0  0  0  1  0  0
  -22.7556  -22.2773   21.8383 C   0  0  1  0  0  0  0  0  0  0  0  0
  -23.3935  -19.7264   19.1078 C   0  0  2  0  0  0  0  0  0  0  0  0
  -30.6136  -25.3993   19.1844 C   0  0  2  0  0  0  0  0  0  0  0  0
  -30.6363  -26.9291   19.3545 C   0  0  1  0  0  0  0  0  0  0  0  0
  -22.2236  -21.8351   23.2307 C   0  0  0  0  0  0  0  0  0  0  0  0
  -32.0118  -24.7967   19.2095 C   0  0  0  0  0  0  0  0  0  0  0  0
  -28.0943  -15.5427   20.8816 N   0  0  0  0  0  0  0  0  0  0  0  0
  -29.5111  -22.8397   18.6830 N   0  0  0  0  0  0  0  0  0  0  0  0
  -29.3790  -15.8107   20.5924 N   0  0  0  0  0  0  0  0  0  0  0  0
  -22.8134  -24.6232   21.0527 N   0  0  0  0  0  0  0  0  0  0  0  0
  -29.5365  -19.5337   21.4274 N   0  0  0  0  0  0  0  0  0  0  0  0
  -31.3078  -14.9125   19.5513 N   0  0  0  0  0  0  0  0  0  0  0  0
  -28.2267  -11.6526   19.0260 N   0  0  0  0  0  0  0  0  0  0  0  0
  -29.0326  -20.6228   19.3970 N   0  0  0  0  0  0  0  0  0  0  0  0
  -29.9661  -25.0249   17.9411 N   0  0  0  0  0  0  0  0  0  0  0  0
  -20.7019  -26.8853   22.3921 N   0  0  0  0  0  0  0  0  0  0  0  0
  -22.6542  -21.2510   20.8064 N   0  0  0  0  0  0  0  0  0  0  0  0
  -24.2837  -19.8165   17.9160 N   0  3  0  0  0  0  0  0  0  0  0  0
  -30.4054  -12.2390   18.6159 O   0  0  0  0  0  0  0  0  0  0  0  0
  -23.0169  -27.0088   22.6108 O   0  0  0  0  0  0  0  0  0  0  0  0
  -20.8135  -23.4259   21.1067 O   0  0  0  0  0  0  0  0  0  0  0  0
  -24.9147  -21.1808   20.2944 O   0  0  0  0  0  0  0  0  0  0  0  0
  -30.1365  -21.7425   21.1027 O   0  0  0  0  0  0  0  0  0  0  0  0
  -31.4183  -27.5227   18.3170 O   0  0  0  0  0  0  0  0  0  0  0  0
  -22.9455  -11.7968   20.7933 O   0  0  0  0  0  0  0  0  0  0  0  0
  -28.4763  -26.9820   20.4046 O   0  0  0  0  0  0  0  0  0  1  0  0
  -22.8830   -6.4933   22.3012 F   0  0  0  0  0  0  0  0  0  0  0  0
  -27.8418  -20.1005   16.9744 F   0  0  0  0  0  0  0  0  0  0  0  0
  -21.6262  -10.9892   23.0846 F   0  0  0  0  0  0  0  0  0  0  0  0
  -31.9594  -23.4533   19.0612 F   0  0  0  0  0  0  0  0  0  0  0  0
  -32.7985  -25.2860   18.2282 F   0  0  0  0  0  0  0  0  0  0  0  0
  -32.6226  -25.0452   20.3897 F   0  0  0  0  0  0  0  0  0  0  0  0
  1  2  1  0  0  0  0
  1  5  2  0  0  0  0
  2  6  2  0  0  0  0
  3  8  2  0  0  0  0
  3 17  1  0  0  0  0
  4  9  1  0  0  0  0
  4 17  2  0  0  0  0
  5 19  1  0  0  0  0
  6 21  1  0  0  0  0
  7 10  2  0  0  0  0
  7 20  1  0  0  0  0
  8 23  1  0  0  0  0
  9 23  2  0  0  0  0
 10 24  1  0  0  0  0
 11 12  2  0  0  0  0
 11 25  1  0  0  0  0
 12 26  1  0  0  0  0
 13 14  2  0  0  0  0
 13 27  1  0  0  0  0
 14 30  1  0  0  0  0
 15 22  1  0  0  0  0
 15 24  2  0  0  0  0
 16 26  2  0  0  0  0
 16 28  1  0  0  0  0
 17 29  1  0  0  0  0
 18 29  1  0  0  0  0
 18 32  2  0  0  0  0
 18 33  1  0  0  0  0
 19 21  2  0  0  0  0
 19 38  1  0  0  0  0
 20 22  2  0  0  0  0
 20 39  1  0  0  0  0
 21 47  1  0  0  0  0
 22 40  1  0  0  0  0
 23 80  1  0  0  0  0
 24 81  1  0  0  0  0
 25 28  2  0  0  0  0
 25 80  1  0  0  0  0
 26 82  1  0  0  0  0
 27 31  2  0  0  0  0
 27 83  1  0  0  0  0
 28 84  1  0  0  0  0
 29 62  2  0  0  0  0
 30 63  2  0  0  0  0
 30 70  1  0  0  0  0
 31 63  1  0  0  0  0
 31 69  1  0  0  0  0
 32 64  1  0  0  0  0
 32 67  1  0  0  0  0
 33 68  1  0  0  0  0
 33 74  2  0  0  0  0
 34 48  1  0  0  0  0
 34 71  1  0  0  0  0
 34 75  2  0  0  0  0
 35 56  1  0  0  0  0
 35 65  1  0  0  0  0
 35 76  2  0  0  0  0
 36 57  1  0  0  0  0
 36 72  1  0  0  0  0
 36 77  2  0  0  0  0
 37 66  1  0  0  0  0
 37 69  1  0  0  0  0
 37 78  2  0  0  0  0
 38 41  1  0  0  0  0
 39 48  1  0  0  0  0
 40 65  1  0  0  0  0
 41 43  1  0  0  0  0
 42 44  1  0  0  0  0
 42 45  1  0  0  0  0
 43 47  1  0  0  0  0
 44 49  1  0  0  0  0
 45 66  1  0  0  0  0
 46 49  1  0  0  0  0
 46 66  1  0  0  0  0
 47 71  1  0  0  0  0
 48 65  1  0  0  0  0
 49 64  1  0  0  0  0
 50 57  1  0  0  0  0
 51 60  1  0  0  0  0
 52 60  1  0  0  0  0
 53 60  1  0  0  0  0
 54 73  1  0  0  0  0
 55 59  1  0  0  0  0
 55 81  1  0  0  0  0
 56 60  1  0  0  0  0
 56 72  1  0  0  0  0
 57 73  1  0  0  0  0
 58 59  1  0  0  0  0
 58 61  1  0  0  0  0
 58 70  1  0  0  0  0
 59 79  1  0  0  0  0
 61 85  1  0  0  0  0
 61 86  1  0  0  0  0
 61 87  1  0  0  0  0
 62 64  1  0  0  0  0
M  CHG  1  73   1
M  ISO  4  37 100  55 101  69 100  81 101
M  END
> <Batch ID>
0190

> <Smiles>
CNC(C)C(=O)NC(C(=O)N1Cc2cc([101O:1][101CH2:1]C(O)C(Nc3ccc(F)c([100NH:0][100C:0](=O)N4CCCC(n5nc(-c6ccc(Oc7ccc(F)cc7F)cc6)c(C(N)=O)c5N)C4)n3)C(F)(F)F)ccc2CC1C(=O)NC1CCCc2ccccc21)C(C)(C)C

> <Shape>
0.286

> <Color>
0.090

> <Negative vol penalty>
0.000

$$$$

  -OEChem-04052305213D

 84 92  0     1  0  0  0  0  0999 V2000
  -15.8362  -25.2192   24.5831 C   0  0  0  0  0  0  0  0  0  0  0  0
  -16.4926  -24.6367   23.5036 C   0  0  0  0  0  0  0  0  0  0  0  0
  -26.4464  -13.7644   20.0627 C   0  0  0  0  0  0  0  0  0  0  0  0
  -25.1356  -13.6549   22.0892 C   0  0  0  0  0  0  0  0  0  0  0  0
  -16.0742  -26.5550   24.9039 C   0  0  0  0  0  0  0  0  0  0  0  0
  -17.3865  -25.3901   22.7436 C   0  0  0  0  0  0  0  0  0  0  0  0
  -22.5246  -23.4061   20.0660 C   0  0  0  0  0  0  0  0  0  0  0  0
  -26.2945  -12.3886   19.8901 C   0  0  0  0  0  0  0  0  0  0  0  0
  -24.9836  -12.2791   21.9166 C   0  0  0  0  0  0  0  0  0  0  0  0
  -22.8111  -23.0180   18.7579 C   0  0  0  0  0  0  0  0  0  0  0  0
  -23.0869  -10.1997   20.0460 C   0  0  0  0  0  0  0  0  0  0  0  0
  -21.8142   -9.6611   20.2348 C   0  0  0  0  0  0  0  0  0  0  0  0
  -23.6381  -25.2349   18.2878 C   0  0  0  0  0  0  0  0  0  0  0  0
  -22.6707   -8.2578   22.0052 C   0  0  0  0  0  0  0  0  0  0  0  0
  -28.4004  -22.5005   18.4861 C   0  0  0  0  0  0  0  0  0  0  0  0
  -29.1274  -24.9527   17.6687 C   0  0  0  0  0  0  0  0  0  0  0  0
  -25.8670  -14.3975   21.1623 C   0  0  0  0  0  0  0  0  0  0  0  0
  -25.1823  -16.8353   20.8522 C   0  0  0  0  0  0  0  0  0  0  0  0
  -16.9788  -27.3224   24.1533 C   0  0  0  0  0  0  0  0  0  0  0  0
  -22.7830  -24.7167   20.4924 C   0  0  0  0  0  0  0  0  0  0  0  0
  -17.6358  -26.7378   23.0538 C   0  0  0  0  0  0  0  0  0  0  0  0
  -23.3563  -25.6363   19.6025 C   0  0  0  0  0  0  0  0  0  0  0  0
  -25.5631  -11.6460   20.8170 C   0  0  0  0  0  0  0  0  0  0  0  0
  -23.3652  -23.9333   17.8677 C   0  0  0  0  0  0  0  0  0  0  0  0
  -24.1516   -9.7673   20.8368 C   0  0  0  0  0  0  0  0  0  0  0  0
  -21.6060   -8.6901   21.2144 C   0  0  0  0  0  0  0  0  0  0  0  0
  -23.9434   -8.7964   21.8164 C   0  0  0  0  0  0  0  0  0  0  0  0
  -26.0241  -15.8186   21.3415 C   0  0  0  0  0  0  0  0  0  0  0  0
  -29.3361  -23.2542   19.1649 C   0  0  0  0  0  0  0  0  0  0  0  0
  -27.8626  -23.0894   17.3599 C   0  0  0  0  0  0  0  0  0  0  0  0
  -25.7613  -18.0011   21.2906 C   0  0  0  0  0  0  0  0  0  0  0  0
  -29.9779  -22.7273   20.3824 C   0  0  0  0  0  0  0  0  0  0  0  0
  -23.9841  -16.7349   20.0712 C   0  0  0  0  0  0  0  0  0  0  0  0
  -21.0009  -27.1157   21.5754 C   0  0  0  0  0  0  0  0  0  0  0  0
  -23.8826  -28.5273   22.0508 C   0  0  0  0  0  0  0  0  0  0  0  0
  -27.1839  -28.7291   21.2096 C   0  0  0  0  0  0  0  0  0  0  0  0
  -30.3292  -21.1292   21.9992 C   0  0  0  0  0  0  0  0  0  0  0  0
  -17.1678  -28.7757   24.5094 C   0  0  0  0  0  0  0  0  0  0  0  0
  -22.4930  -25.1120   21.9144 C   0  0  0  0  0  0  0  0  0  0  0  0
  -23.6716  -27.0497   20.0167 C   0  0  0  0  0  0  0  0  0  0  0  0
  -18.4123  -29.3995   23.8829 C   0  0  0  0  0  0  0  0  0  0  0  0
  -29.4788  -18.7983   24.6161 C   0  0  0  0  0  0  0  0  0  0  0  0
  -18.5072  -29.0326   22.4054 C   0  0  0  0  0  0  0  0  0  0  0  0
  -28.4604  -17.8778   23.9436 C   0  0  0  0  0  0  0  0  0  0  0  0
  -30.5520  -19.2582   23.6342 C   0  0  0  0  0  0  0  0  0  0  0  0
  -28.9855  -18.9939   21.7304 C   0  0  0  0  0  0  0  0  0  0  0  0
  -18.6314  -27.5154   22.2206 C   0  0  1  0  0  0  0  0  0  0  0  0
  -22.3206  -26.6173   22.0928 C   0  0  1  0  0  0  0  0  0  0  0  0
  -27.8689  -18.5346   22.6836 C   0  0  1  0  0  0  0  0  0  0  0  0
  -29.2782  -30.0044   21.7430 C   0  0  0  0  0  0  0  0  0  0  0  0
  -27.2446  -22.7227   14.2842 C   0  0  0  0  0  0  0  0  0  0  0  0
  -22.8472  -30.8989   20.4341 C   0  0  0  0  0  0  0  0  0  0  0  0
  -25.2141  -31.6789   20.1936 C   0  0  0  0  0  0  0  0  0  0  0  0
  -24.1798  -31.5180   22.4579 C   0  0  0  0  0  0  0  0  0  0  0  0
  -28.5796  -26.2835   22.1207 C   0  0  0  0  0  0  0  0  0  0  0  0
  -23.9865  -22.1884   16.3760 C   0  0  0  0  0  0  0  0  0  1  0  0
  -24.7954  -29.3994   21.2230 C   0  0  1  0  0  0  0  0  0  0  0  0
  -28.4393  -28.7766   22.0616 C   0  0  2  0  0  0  0  0  0  0  0  0
  -26.2709  -22.8571   15.4525 C   0  0  1  0  0  0  0  0  0  0  0  0
  -24.9560  -22.1019   15.1983 C   0  0  1  0  0  0  0  0  0  0  0  0
  -24.2515  -30.8478   21.0685 C   0  0  0  0  0  0  0  0  0  0  0  0
  -29.7245  -24.4885   18.7829 N   0  0  0  0  0  0  0  0  0  0  0  0
  -28.2043  -24.3185   16.9209 N   0  0  0  0  0  0  0  0  0  0  0  0
  -27.0591  -16.2965   22.0374 N   0  0  0  0  0  0  0  0  0  0  0  0
  -29.6889  -21.5581   20.8522 N   0  0  0  0  0  0  0  0  0  0  0  0
  -26.8716  -17.6264   21.9885 N   0  0  0  0  0  0  0  0  0  0  0  0
  -23.3641  -27.3899   21.4157 N   0  0  0  0  0  0  0  0  0  0  0  0
  -29.9516  -19.8461   22.4360 N   0  0  0  0  0  0  0  0  0  0  0  0
  -25.4239  -19.2999   21.1434 N   0  0  0  0  0  0  0  0  0  0  0  0
  -23.5288  -15.4604   19.7069 N   0  0  0  0  0  0  0  0  0  0  0  0
  -26.9209  -22.3663   16.6515 N   0  0  0  0  0  0  0  0  0  0  0  0
  -19.9815  -27.0801   22.5075 N   0  0  0  0  0  0  0  0  0  0  0  0
  -26.1122  -29.3189   21.8459 N   0  0  0  0  0  0  0  0  0  0  0  0
  -29.2724  -27.5639   21.8246 N   0  3  0  0  0  0  0  0  0  0  0  0
  -23.3454  -17.7462   19.6932 O   0  0  0  0  0  0  0  0  0  0  0  0
  -20.9144  -27.5052   20.4167 O   0  0  0  0  0  0  0  0  0  0  0  0
  -23.6443  -28.8397   23.2201 O   0  0  0  0  0  0  0  0  0  0  0  0
  -27.1574  -28.2229   20.0899 O   0  0  0  0  0  0  0  0  0  0  0  0
  -31.1712  -21.7951   22.6063 O   0  0  0  0  0  0  0  0  0  0  0  0
  -25.2354  -20.7279   14.9243 O   0  0  0  0  0  0  0  0  0  0  0  0
  -25.4144  -10.3036   20.6487 O   0  0  0  0  0  0  0  0  0  0  0  0
  -23.6452  -23.5573   16.5902 O   0  0  0  0  0  0  0  0  0  1  0  0
  -20.3835   -8.1741   21.3966 F   0  0  0  0  0  0  0  0  0  0  0  0
  -24.9621   -8.3779   22.5800 F   0  0  0  0  0  0  0  0  0  0  0  0
  1  2  1  0  0  0  0
  1  5  2  0  0  0  0
  2  6  2  0  0  0  0
  3  8  2  0  0  0  0
  3 17  1  0  0  0  0
  4  9  1  0  0  0  0
  4 17  2  0  0  0  0
  5 19  1  0  0  0  0
  6 21  1  0  0  0  0
  7 10  2  0  0  0  0
  7 20  1  0  0  0  0
  8 23  1  0  0  0  0
  9 23  2  0  0  0  0
 10 24  1  0  0  0  0
 11 12  2  0  0  0  0
 11 25  1  0  0  0  0
 12 26  1  0  0  0  0
 13 22  1  0  0  0  0
 13 24  2  0  0  0  0
 14 26  2  0  0  0  0
 14 27  1  0  0  0  0
 15 29  2  0  0  0  0
 15 30  1  0  0  0  0
 16 62  2  0  0  0  0
 16 63  1  0  0  0  0
 17 28  1  0  0  0  0
 18 28  1  0  0  0  0
 18 31  2  0  0  0  0
 18 33  1  0  0  0  0
 19 21  2  0  0  0  0
 19 38  1  0  0  0  0
 20 22  2  0  0  0  0
 20 39  1  0  0  0  0
 21 47  1  0  0  0  0
 22 40  1  0  0  0  0
 23 81  1  0  0  0  0
 24 82  1  0  0  0  0
 25 27  2  0  0  0  0
 25 81  1  0  0  0  0
 26 83  1  0  0  0  0
 27 84  1  0  0  0  0
 28 64  2  0  0  0  0
 29 32  1  0  0  0  0
 29 62  1  0  0  0  0
 30 63  2  0  0  0  0
 30 71  1  0  0  0  0
 31 66  1  0  0  0  0
 31 69  1  0  0  0  0
 32 65  2  0  0  0  0
 33 70  1  0  0  0  0
 33 75  2  0  0  0  0
 34 48  1  0  0  0  0
 34 72  1  0  0  0  0
 34 76  2  0  0  0  0
 35 57  1  0  0  0  0
 35 67  1  0  0  0  0
 35 77  2  0  0  0  0
 36 58  1  0  0  0  0
 36 73  1  0  0  0  0
 36 78  2  0  0  0  0
 37 65  1  0  0  0  0
 37 68  1  0  0  0  0
 37 79  2  0  0  0  0
 38 41  1  0  0  0  0
 39 48  1  0  0  0  0
 40 67  1  0  0  0  0
 41 43  1  0  0  0  0
 42 44  1  0  0  0  0
 42 45  1  0  0  0  0
 43 47  1  0  0  0  0
 44 49  1  0  0  0  0
 45 68  1  0  0  0  0
 46 49  1  0  0  0  0
 46 68  1  0  0  0  0
 47 72  1  0  0  0  0
 48 67  1  0  0  0  0
 49 66  1  0  0  0  0
 50 58  1  0  0  0  0
 51 59  1  0  0  0  0
 52 61  1  0  0  0  0
 53 61  1  0  0  0  0
 54 61  1  0  0  0  0
 55 74  1  0  0  0  0
 56 60  1  0  0  0  0
 56 82  1  0  0  0  0
 57 61  1  0  0  0  0
 57 73  1  0  0  0  0
 58 74  1  0  0  0  0
 59 60  1  0  0  0  0
 59 71  1  0  0  0  0
 60 80  1  0  0  0  0
 64 66  1  0  0  0  0
M  CHG  1  74   1
M  ISO  4  37 100  56 101  65 100  82 101
M  END
> <Batch ID>
0190

> <Smiles>
CNC(C)C(=O)NC(C(=O)N1Cc2cc([101O:1][101CH2:1]C(O)C(C)Nc3cc(C=[100N:0][100C:0](=O)N4CCCC(n5nc(-c6ccc(Oc7ccc(F)cc7F)cc6)c(C(N)=O)c5N)C4)ncn3)ccc2CC1C(=O)NC1CCCc2ccccc21)C(C)(C)C

> <Shape>
0.240

> <Color>
0.055

> <Negative vol penalty>
0.000

$$$$

  -OEChem-04052305213D

 91 99  0     1  0  0  0  0  0999 V2000
  -31.2022  -30.5580   24.2890 C   0  0  0  0  0  0  0  0  0  0  0  0
  -32.1076  -29.5333   24.0324 C   0  0  0  0  0  0  0  0  0  0  0  0
  -23.0912   -9.7697   19.9693 C   0  0  0  0  0  0  0  0  0  0  0  0
  -23.9310   -9.8124   22.2342 C   0  0  0  0  0  0  0  0  0  0  0  0
  -30.0245  -30.6478   23.5483 C   0  0  0  0  0  0  0  0  0  0  0  0
  -31.8350  -28.5971   23.0355 C   0  0  0  0  0  0  0  0  0  0  0  0
  -35.8872  -25.8608   19.3479 C   0  0  0  0  0  0  0  0  0  0  0  0
  -22.4042   -8.5878   20.2463 C   0  0  0  0  0  0  0  0  0  0  0  0
  -23.2440   -8.6305   22.5112 C   0  0  0  0  0  0  0  0  0  0  0  0
  -36.5017  -24.6101   19.3934 C   0  0  0  0  0  0  0  0  0  0  0  0
  -21.4207   -5.8179   23.9193 C   0  0  0  0  0  0  0  0  0  0  0  0
  -20.7088   -5.7461   25.1167 C   0  0  0  0  0  0  0  0  0  0  0  0
  -34.8236  -23.7377   17.8960 C   0  0  0  0  0  0  0  0  0  0  0  0
  -19.3613   -7.6297   24.4285 C   0  0  0  0  0  0  0  0  0  0  0  0
  -23.8547  -10.3820   20.9632 C   0  0  0  0  0  0  0  0  0  0  0  0
  -24.0891  -12.9187   20.8294 C   0  0  0  0  0  0  0  0  0  0  0  0
  -29.7419  -29.7179   22.5353 C   0  0  0  0  0  0  0  0  0  0  0  0
  -34.7280  -26.0568   18.5834 C   0  0  0  0  0  0  0  0  0  0  0  0
  -30.6518  -28.6737   22.2815 C   0  0  0  0  0  0  0  0  0  0  0  0
  -34.1978  -24.9924   17.8405 C   0  0  0  0  0  0  0  0  0  0  0  0
  -22.4806   -8.0182   21.5172 C   0  0  0  0  0  0  0  0  0  0  0  0
  -35.9683  -23.5477   18.6697 C   0  0  0  0  0  0  0  0  0  0  0  0
  -21.1029   -6.7956   22.9766 C   0  0  0  0  0  0  0  0  0  0  0  0
  -19.6791   -6.6520   25.3712 C   0  0  0  0  0  0  0  0  0  0  0  0
  -20.0732   -7.7015   23.2311 C   0  0  0  0  0  0  0  0  0  0  0  0
  -24.5651  -11.6026   20.6775 C   0  0  0  0  0  0  0  0  0  0  0  0
  -30.1577  -19.7827   21.3772 C   0  0  0  0  0  0  0  0  0  0  0  0
  -31.4081  -19.2164   21.2433 C   0  0  0  0  0  0  0  0  0  0  0  0
  -25.1363  -13.7111   20.4271 C   0  0  0  0  0  0  0  0  0  0  0  0
  -30.1950  -17.4213   20.9031 C   0  0  0  0  0  0  0  0  0  0  0  0
  -22.8143  -13.3833   21.2928 C   0  0  0  0  0  0  0  0  0  0  0  0
  -31.7299  -26.8924   19.2291 C   0  0  0  0  0  0  0  0  0  0  0  0
  -31.4514  -26.9130   15.9973 C   0  0  0  0  0  0  0  0  0  0  0  0
  -33.9147  -19.4449   21.2471 C   0  0  0  0  0  0  0  0  0  0  0  0
  -32.5945  -25.7915   12.9836 C   0  0  0  0  0  0  0  0  0  0  0  0
  -30.5582  -14.9782   20.4070 C   0  0  0  0  0  0  0  0  0  0  0  0
  -28.4336  -29.8280   21.7931 C   0  0  0  0  0  0  0  0  0  0  0  0
  -34.0924  -27.4187   18.5236 C   0  0  0  0  0  0  0  0  0  0  0  0
  -32.9668  -25.1560   16.9882 C   0  0  0  0  0  0  0  0  0  0  0  0
  -28.3960  -29.0157   20.5012 C   0  0  0  0  0  0  0  0  0  0  0  0
  -29.4596  -12.5163   18.0813 C   0  0  0  0  0  0  0  0  0  0  0  0
  -28.9390  -27.6101   20.7384 C   0  0  0  0  0  0  0  0  0  0  0  0
  -28.0491  -12.1673   18.5619 C   0  0  0  0  0  0  0  0  0  0  0  0
  -30.4067  -12.7845   19.2495 C   0  0  0  0  0  0  0  0  0  0  0  0
  -28.5220  -13.4338   20.6972 C   0  0  0  0  0  0  0  0  0  0  0  0
  -30.4034  -27.6536   21.1916 C   0  0  1  0  0  0  0  0  0  0  0  0
  -32.6218  -27.3745   18.1201 C   0  0  1  0  0  0  0  0  0  0  0  0
  -27.5159  -13.2187   19.5548 C   0  0  2  0  0  0  0  0  0  0  0  0
  -28.5214  -21.2602   22.5972 C   0  0  0  0  0  0  0  0  0  0  0  0
  -32.1409  -25.9528   10.5208 C   0  0  0  0  0  0  0  0  0  0  0  0
  -37.6767  -19.6247   18.8464 C   0  0  0  0  0  0  0  0  0  0  0  0
  -30.9468  -22.2691   19.6036 C   0  0  0  0  0  0  0  0  0  0  0  0
  -29.2272  -23.5623   20.8747 C   0  0  0  0  0  0  0  0  0  0  0  0
  -28.5355  -21.6625   19.4276 C   0  0  0  0  0  0  0  0  0  0  0  0
  -29.0675  -25.0353   16.3159 C   0  0  0  0  0  0  0  0  0  0  0  0
  -29.2606  -24.4897   13.8800 C   0  0  0  0  0  0  0  0  0  0  0  0
  -28.7623  -26.8263   14.5973 C   0  0  0  0  0  0  0  0  0  0  0  0
  -35.2621  -26.9574   12.4508 C   0  0  0  0  0  0  0  0  0  0  0  0
  -36.3144  -20.2240   20.8661 C   0  0  0  0  0  0  0  0  0  0  0  0
  -35.7239  -21.1850   18.5509 C   0  0  0  0  0  0  0  0  0  1  0  0
  -29.7665  -21.1780   21.6638 C   0  0  2  0  0  0  0  0  0  0  0  0
  -31.0844  -25.8902   14.9493 C   0  0  1  0  0  0  0  0  0  0  0  0
  -34.9514  -20.5354   21.4967 C   0  0  2  0  0  0  0  0  0  0  0  0
  -32.9214  -26.5236   11.6945 C   0  0  2  0  0  0  0  0  0  0  0  0
  -36.2703  -19.9873   19.3391 C   0  0  1  0  0  0  0  0  0  0  0  0
  -29.6342  -22.1489   20.4010 C   0  0  0  0  0  0  0  0  0  0  0  0
  -29.5658  -25.5565   14.9531 C   0  0  0  0  0  0  0  0  0  0  0  0
  -25.8172  -11.5573   20.2147 N   0  0  0  0  0  0  0  0  0  0  0  0
  -31.4315  -17.8623   20.9719 N   0  0  0  0  0  0  0  0  0  0  0  0
  -26.1368  -12.8549   20.0722 N   0  0  0  0  0  0  0  0  0  0  0  0
  -32.3779  -26.5051   16.9674 N   0  0  0  0  0  0  0  0  0  0  0  0
  -29.8377  -13.7936   20.1456 N   0  0  0  0  0  0  0  0  0  0  0  0
  -25.2896  -15.0499   20.3457 N   0  0  0  0  0  0  0  0  0  0  0  0
  -21.8528  -12.4345   21.6664 N   0  0  0  0  0  0  0  0  0  0  0  0
  -32.6195  -19.9377   21.3671 N   0  0  0  0  0  0  0  0  0  0  0  0
  -29.7610  -16.0975   20.6443 N   0  0  0  0  0  0  0  0  0  0  0  0
  -31.2750  -27.8966   20.0621 N   0  0  0  0  0  0  0  0  0  0  0  0
  -31.5784  -26.4116   13.6795 N   0  0  0  0  0  0  0  0  0  0  0  0
  -35.1499  -20.6500   22.9748 N   0  3  0  0  0  0  0  0  0  0  0  0
  -34.3761  -26.4123   11.3902 N   0  3  0  0  0  0  0  0  0  0  0  0
  -22.5303  -14.6035   21.3577 O   0  0  0  0  0  0  0  0  0  0  0  0
  -31.4723  -25.6979   19.3211 O   0  0  0  0  0  0  0  0  0  0  0  0
  -30.9404  -28.0348   15.9525 O   0  0  0  0  0  0  0  0  0  0  0  0
  -34.2502  -18.2877   21.0106 O   0  0  0  0  0  0  0  0  0  0  0  0
  -33.1794  -24.7696   13.3360 O   0  0  0  0  0  0  0  0  0  0  0  0
  -31.7915  -15.0043   20.3925 O   0  0  0  0  0  0  0  0  0  0  0  0
  -21.8101   -6.8651   21.7880 O   0  0  0  0  0  0  0  0  0  0  0  0
  -36.5658  -22.3258   18.7129 O   0  0  0  0  0  0  0  0  0  1  0  0
  -18.9945   -6.5819   26.5204 F   0  0  0  0  0  0  0  0  0  0  0  0
  -19.7626   -8.6422   22.3287 F   0  0  0  0  0  0  0  0  0  0  0  0
  -28.9549  -18.5806   21.1542 S   0  0  0  0  0  0  0  0  0  0  0  0
  1  2  1  0  0  0  0
  1  5  2  0  0  0  0
  2  6  2  0  0  0  0
  3  8  2  0  0  0  0
  3 15  1  0  0  0  0
  4  9  1  0  0  0  0
  4 15  2  0  0  0  0
  5 17  1  0  0  0  0
  6 19  1  0  0  0  0
  7 10  2  0  0  0  0
  7 18  1  0  0  0  0
  8 21  1  0  0  0  0
  9 21  2  0  0  0  0
 10 22  1  0  0  0  0
 11 12  2  0  0  0  0
 11 23  1  0  0  0  0
 12 24  1  0  0  0  0
 13 20  1  0  0  0  0
 13 22  2  0  0  0  0
 14 24  2  0  0  0  0
 14 25  1  0  0  0  0
 15 26  1  0  0  0  0
 16 26  1  0  0  0  0
 16 29  2  0  0  0  0
 16 31  1  0  0  0  0
 17 19  2  0  0  0  0
 17 37  1  0  0  0  0
 18 20  2  0  0  0  0
 18 38  1  0  0  0  0
 19 46  1  0  0  0  0
 20 39  1  0  0  0  0
 21 87  1  0  0  0  0
 22 88  1  0  0  0  0
 23 25  2  0  0  0  0
 23 87  1  0  0  0  0
 24 89  1  0  0  0  0
 25 90  1  0  0  0  0
 26 68  2  0  0  0  0
 27 28  2  0  0  0  0
 27 61  1  0  0  0  0
 27 91  1  0  0  0  0
 28 69  1  0  0  0  0
 28 75  1  0  0  0  0
 29 70  1  0  0  0  0
 29 73  1  0  0  0  0
 30 69  2  0  0  0  0
 30 76  1  0  0  0  0
 30 91  1  0  0  0  0
 31 74  1  0  0  0  0
 31 81  2  0  0  0  0
 32 47  1  0  0  0  0
 32 77  1  0  0  0  0
 32 82  2  0  0  0  0
 33 62  1  0  0  0  0
 33 71  1  0  0  0  0
 33 83  2  0  0  0  0
 34 63  1  0  0  0  0
 34 75  1  0  0  0  0
 34 84  2  0  0  0  0
 35 64  1  0  0  0  0
 35 78  1  0  0  0  0
 35 85  2  0  0  0  0
 36 72  1  0  0  0  0
 36 76  1  0  0  0  0
 36 86  2  0  0  0  0
 37 40  1  0  0  0  0
 38 47  1  0  0  0  0
 39 71  1  0  0  0  0
 40 42  1  0  0  0  0
 41 43  1  0  0  0  0
 41 44  1  0  0  0  0
 42 46  1  0  0  0  0
 43 48  1  0  0  0  0
 44 72  1  0  0  0  0
 45 48  1  0  0  0  0
 45 72  1  0  0  0  0
 46 77  1  0  0  0  0
 47 71  1  0  0  0  0
 48 70  1  0  0  0  0
 49 61  1  0  0  0  0
 50 64  1  0  0  0  0
 51 65  1  0  0  0  0
 52 66  1  0  0  0  0
 53 66  1  0  0  0  0
 54 66  1  0  0  0  0
 55 67  1  0  0  0  0
 56 67  1  0  0  0  0
 57 67  1  0  0  0  0
 58 80  1  0  0  0  0
 59 63  1  0  0  0  0
 59 65  1  0  0  0  0
 60 65  1  0  0  0  0
 60 88  1  0  0  0  0
 61 66  1  0  0  0  0
 62 67  1  0  0  0  0
 62 78  1  0  0  0  0
 63 79  1  0  0  0  0
 64 80  1  0  0  0  0
 68 70  1  0  0  0  0
M  CHG  2  79   1  80   1
M  ISO  4  36 100  60 101  76 100  88 101
M  END
> <Batch ID>
0190

> <Smiles>
CNC(C)C(=O)NC(C(=O)N1Cc2cc([101O:1][101CH2:1]C(C)CC(N)C(=O)Nc3nc([100NH:0][100C:0](=O)N4CCCC(n5nc(-c6ccc(Oc7ccc(F)cc7F)cc6)c(C(N)=O)c5N)C4)sc3C(C)C(C)(C)C)ccc2CC1C(=O)NC1CCCc2ccccc21)C(C)(C)C

> <Shape>
0.237

> <Color>
0.176

> <Negative vol penalty>
0.000

$$$$

  -OEChem-04052305213D

 86 94  0     1  0  0  0  0  0999 V2000
  -32.6779  -28.8214   19.1637 C   0  0  0  0  0  0  0  0  0  0  0  0
  -31.7910  -27.7788   19.4127 C   0  0  0  0  0  0  0  0  0  0  0  0
  -23.9824  -16.0641   22.3880 C   0  0  0  0  0  0  0  0  0  0  0  0
  -22.6971  -15.8629   20.3522 C   0  0  0  0  0  0  0  0  0  0  0  0
  -32.5000  -30.0520   19.7945 C   0  0  0  0  0  0  0  0  0  0  0  0
  -30.7264  -27.9660   20.2936 C   0  0  0  0  0  0  0  0  0  0  0  0
  -26.3713  -26.1053   18.5003 C   0  0  0  0  0  0  0  0  0  0  0  0
  -23.2004  -17.1526   22.7742 C   0  0  0  0  0  0  0  0  0  0  0  0
  -21.9150  -16.9514   20.7384 C   0  0  0  0  0  0  0  0  0  0  0  0
  -26.1867  -24.7258   18.5817 C   0  0  0  0  0  0  0  0  0  0  0  0
  -20.1427  -17.6694   24.1219 C   0  0  0  0  0  0  0  0  0  0  0  0
  -19.6879  -17.7057   25.4400 C   0  0  0  0  0  0  0  0  0  0  0  0
  -24.8194  -25.0307   20.5456 C   0  0  0  0  0  0  0  0  0  0  0  0
  -20.8538  -19.7935   25.7848 C   0  0  0  0  0  0  0  0  0  0  0  0
  -23.7309  -15.4193   21.1769 C   0  0  0  0  0  0  0  0  0  0  0  0
  -24.3039  -12.9363   21.0596 C   0  0  0  0  0  0  0  0  0  0  0  0
  -31.4270  -30.2573   20.6761 C   0  0  0  0  0  0  0  0  0  0  0  0
  -25.7892  -26.9585   19.4488 C   0  0  0  0  0  0  0  0  0  0  0  0
  -30.5347  -29.2001   20.9378 C   0  0  0  0  0  0  0  0  0  0  0  0
  -24.9960  -26.4208   20.4725 C   0  0  0  0  0  0  0  0  0  0  0  0
  -22.1666  -17.5962   21.9494 C   0  0  0  0  0  0  0  0  0  0  0  0
  -25.4131  -24.1880   19.6061 C   0  0  0  0  0  0  0  0  0  0  0  0
  -20.9531  -18.6952   23.6352 C   0  0  0  0  0  0  0  0  0  0  0  0
  -20.0435  -18.7677   26.2715 C   0  0  0  0  0  0  0  0  0  0  0  0
  -21.3086  -19.7572   24.4667 C   0  0  0  0  0  0  0  0  0  0  0  0
  -24.5388  -14.2952   20.7772 C   0  0  0  0  0  0  0  0  0  0  0  0
  -25.3501  -12.2758   20.4633 C   0  0  0  0  0  0  0  0  0  0  0  0
  -28.6455  -17.8289   22.3572 C   0  0  0  0  0  0  0  0  0  0  0  0
  -29.2737  -16.2598   23.5722 C   0  0  0  0  0  0  0  0  0  0  0  0
  -23.2354  -12.3255   21.7951 C   0  0  0  0  0  0  0  0  0  0  0  0
  -26.9058  -29.0083   21.6064 C   0  0  0  0  0  0  0  0  0  0  0  0
  -29.1430  -19.6852   19.8849 C   0  0  0  0  0  0  0  0  0  0  0  0
  -23.7619  -29.7016   22.0028 C   0  0  0  0  0  0  0  0  0  0  0  0
  -20.5142  -28.6927   21.7175 C   0  0  0  0  0  0  0  0  0  0  0  0
  -29.2263  -14.4773   21.8449 C   0  0  0  0  0  0  0  0  0  0  0  0
  -31.3030  -31.5903   21.3707 C   0  0  0  0  0  0  0  0  0  0  0  0
  -25.9758  -28.4464   19.3315 C   0  0  0  0  0  0  0  0  0  0  0  0
  -24.3326  -27.2952   21.5039 C   0  0  0  0  0  0  0  0  0  0  0  0
  -29.9328  -31.8229   22.0022 C   0  0  0  0  0  0  0  0  0  0  0  0
  -28.2767  -15.3912   18.4239 C   0  0  0  0  0  0  0  0  0  0  0  0
  -29.4907  -30.5918   22.7868 C   0  0  0  0  0  0  0  0  0  0  0  0
  -27.6905  -14.0538   17.9496 C   0  0  0  0  0  0  0  0  0  0  0  0
  -29.4290  -15.1914   19.3986 C   0  0  0  0  0  0  0  0  0  0  0  0
  -28.6414  -12.9505   20.0124 C   0  0  0  0  0  0  0  0  0  0  0  0
  -29.3533  -29.3719   21.8678 C   0  0  1  0  0  0  0  0  0  0  0  0
  -25.7595  -29.1816   20.6506 C   0  0  1  0  0  0  0  0  0  0  0  0
  -27.4072  -13.0434   19.0879 C   0  0  1  0  0  0  0  0  0  0  0  0
  -29.0153  -19.3569   18.4184 C   0  0  0  0  0  0  0  0  0  0  0  0
  -18.1665  -29.4623   22.1573 C   0  0  0  0  0  0  0  0  0  0  0  0
  -24.1501  -29.1748   24.9831 C   0  0  0  0  0  0  0  0  0  0  0  0
  -21.6614  -29.0208   25.2089 C   0  0  0  0  0  0  0  0  0  0  0  0
  -22.7137  -31.1519   24.4516 C   0  0  0  0  0  0  0  0  0  0  0  0
  -24.8979  -19.9597   20.0528 C   0  0  0  0  0  0  0  0  0  0  0  0
  -25.3287  -20.3215   22.4954 C   0  0  0  0  0  0  0  0  0  0  0  0
  -19.7929  -28.5063   18.8533 C   0  0  0  0  0  0  0  0  0  0  0  0
  -27.1454  -20.9035   20.7791 C   0  0  0  0  0  0  0  0  0  0  0  0
  -25.0409  -22.2905   20.9906 C   0  0  0  0  0  0  0  0  0  1  0  0
  -27.8792  -19.5542   20.7257 C   0  0  2  0  0  0  0  0  0  0  0  0
  -22.6527  -29.1726   22.8797 C   0  0  1  0  0  0  0  0  0  0  0  0
  -19.2923  -29.3825   21.1381 C   0  0  2  0  0  0  0  0  0  0  0  0
  -22.8084  -29.6131   24.3627 C   0  0  0  0  0  0  0  0  0  0  0  0
  -25.6166  -20.8546   21.0820 C   0  0  0  0  0  0  0  0  0  0  0  0
  -25.6474  -14.4882   20.0576 N   0  0  0  0  0  0  0  0  0  0  0  0
  -28.9984  -17.5406   23.6387 N   0  0  0  0  0  0  0  0  0  0  0  0
  -28.6838  -16.8093   21.4999 N   0  0  0  0  0  0  0  0  0  0  0  0
  -26.1184  -13.2417   19.8829 N   0  0  0  0  0  0  0  0  0  0  0  0
  -29.1299  -15.8008   22.2825 N   0  0  0  0  0  0  0  0  0  0  0  0
  -24.5502  -28.7432   21.3503 N   0  0  0  0  0  0  0  0  0  0  0  0
  -29.0383  -14.2778   20.4790 N   0  0  0  0  0  0  0  0  0  0  0  0
  -25.6788  -10.9688   20.3842 N   0  0  0  0  0  0  0  0  0  0  0  0
  -29.6890  -15.4450   24.5706 N   0  0  0  0  0  0  0  0  0  0  0  0
  -22.2428  -13.1509   22.3410 N   0  0  0  0  0  0  0  0  0  0  0  0
  -28.2728  -19.1259   22.0510 N   0  0  0  0  0  0  0  0  0  0  0  0
  -28.1207  -29.4441   21.1129 N   0  0  0  0  0  0  0  0  0  0  0  0
  -21.4031  -29.5975   22.2582 N   0  0  0  0  0  0  0  0  0  0  0  0
  -18.7950  -28.6397   19.9456 N   0  3  0  0  0  0  0  0  0  0  0  0
  -23.1717  -11.0860   21.9772 O   0  0  0  0  0  0  0  0  0  0  0  0
  -26.7029  -28.5170   22.7106 O   0  0  0  0  0  0  0  0  0  0  0  0
  -30.2165  -20.0599   20.3569 O   0  0  0  0  0  0  0  0  0  0  0  0
  -23.9184  -30.9204   21.8950 O   0  0  0  0  0  0  0  0  0  0  0  0
  -20.6633  -27.4729   21.6962 O   0  0  0  0  0  0  0  0  0  0  0  0
  -29.3960  -13.6168   22.7002 O   0  0  0  0  0  0  0  0  0  0  0  0
  -21.4031  -18.6581   22.3261 O   0  0  0  0  0  0  0  0  0  0  0  0
  -25.2319  -22.8418   19.6883 O   0  0  0  0  0  0  0  0  0  1  0  0
  -19.6054  -18.8032   27.5368 F   0  0  0  0  0  0  0  0  0  0  0  0
  -22.0859  -20.7461   24.0044 F   0  0  0  0  0  0  0  0  0  0  0  0
  1  2  1  0  0  0  0
  1  5  2  0  0  0  0
  2  6  2  0  0  0  0
  3  8  2  0  0  0  0
  3 15  1  0  0  0  0
  4  9  1  0  0  0  0
  4 15  2  0  0  0  0
  5 17  1  0  0  0  0
  6 19  1  0  0  0  0
  7 10  2  0  0  0  0
  7 18  1  0  0  0  0
  8 21  1  0  0  0  0
  9 21  2  0  0  0  0
 10 22  1  0  0  0  0
 11 12  2  0  0  0  0
 11 23  1  0  0  0  0
 12 24  1  0  0  0  0
 13 20  1  0  0  0  0
 13 22  2  0  0  0  0
 14 24  2  0  0  0  0
 14 25  1  0  0  0  0
 15 26  1  0  0  0  0
 16 26  1  0  0  0  0
 16 27  2  0  0  0  0
 16 30  1  0  0  0  0
 17 19  2  0  0  0  0
 17 36  1  0  0  0  0
 18 20  2  0  0  0  0
 18 37  1  0  0  0  0
 19 45  1  0  0  0  0
 20 38  1  0  0  0  0
 21 83  1  0  0  0  0
 22 84  1  0  0  0  0
 23 25  2  0  0  0  0
 23 83  1  0  0  0  0
 24 85  1  0  0  0  0
 25 86  1  0  0  0  0
 26 63  2  0  0  0  0
 27 66  1  0  0  0  0
 27 70  1  0  0  0  0
 28 64  1  0  0  0  0
 28 65  2  0  0  0  0
 28 73  1  0  0  0  0
 29 64  2  0  0  0  0
 29 67  1  0  0  0  0
 29 71  1  0  0  0  0
 30 72  1  0  0  0  0
 30 77  2  0  0  0  0
 31 46  1  0  0  0  0
 31 74  1  0  0  0  0
 31 78  2  0  0  0  0
 32 48  1  0  0  0  0
 32 58  1  0  0  0  0
 32 79  2  0  0  0  0
 33 59  1  0  0  0  0
 33 68  1  0  0  0  0
 33 80  2  0  0  0  0
 34 60  1  0  0  0  0
 34 75  1  0  0  0  0
 34 81  2  0  0  0  0
 35 67  1  0  0  0  0
 35 69  1  0  0  0  0
 35 82  2  0  0  0  0
 36 39  1  0  0  0  0
 37 46  1  0  0  0  0
 38 68  1  0  0  0  0
 39 41  1  0  0  0  0
 40 42  1  0  0  0  0
 40 43  1  0  0  0  0
 41 45  1  0  0  0  0
 42 47  1  0  0  0  0
 43 69  1  0  0  0  0
 44 47  1  0  0  0  0
 44 69  1  0  0  0  0
 45 74  1  0  0  0  0
 46 68  1  0  0  0  0
 47 66  1  0  0  0  0
 49 60  1  0  0  0  0
 50 61  1  0  0  0  0
 51 61  1  0  0  0  0
 52 61  1  0  0  0  0
 53 62  1  0  0  0  0
 54 62  1  0  0  0  0
 55 76  1  0  0  0  0
 56 58  1  0  0  0  0
 56 62  1  0  0  0  0
 57 62  1  0  0  0  0
 57 84  1  0  0  0  0
 58 73  1  0  0  0  0
 59 61  1  0  0  0  0
 59 75  1  0  0  0  0
 60 76  1  0  0  0  0
 63 66  1  0  0  0  0
 65 67  1  0  0  0  0
M  CHG  1  76   1
M  ISO  4  35 100  57 101  67 100  84 101
M  END
> <Batch ID>
0190

> <Smiles>
CNC(C)C(=O)NC(C(=O)N1Cc2cc([101O:1][101CH2:1]C(C)(C)CC(Nc3nc(N)[100n:0]([100C:0](=O)N4CCCC(n5nc(-c6ccc(Oc7ccc(F)cc7F)cc6)c(C(N)=O)c5N)C4)n3)C(C)=O)ccc2CC1C(=O)NC1CCCc2ccccc21)C(C)(C)C

> <Shape>
0.219

> <Color>
0.073

> <Negative vol penalty>
0.000

$$$$

  -OEChem-04052305213D

 84 92  0     1  0  0  0  0  0999 V2000
  -26.3146  -34.9160   23.6977 C   0  0  0  0  0  0  0  0  0  0  0  0
  -26.8053  -33.6508   23.3913 C   0  0  0  0  0  0  0  0  0  0  0  0
  -20.7673  -18.5555   20.4888 C   0  0  0  0  0  0  0  0  0  0  0  0
  -19.9153  -16.4716   21.3654 C   0  0  0  0  0  0  0  0  0  0  0  0
  -25.0125  -35.0608   24.1746 C   0  0  0  0  0  0  0  0  0  0  0  0
  -25.9943  -32.5294   23.5626 C   0  0  0  0  0  0  0  0  0  0  0  0
  -26.2338  -29.3404   19.6361 C   0  0  0  0  0  0  0  0  0  0  0  0
  -19.7844  -19.2528   21.1912 C   0  0  0  0  0  0  0  0  0  0  0  0
  -18.9324  -17.1689   22.0678 C   0  0  0  0  0  0  0  0  0  0  0  0
  -27.3516  -28.5110   19.5568 C   0  0  0  0  0  0  0  0  0  0  0  0
  -16.4921  -19.9375   20.8498 C   0  0  0  0  0  0  0  0  0  0  0  0
  -15.8055  -20.9458   20.1735 C   0  0  0  0  0  0  0  0  0  0  0  0
  -29.7896  -18.3327   22.6894 C   0  0  0  0  0  0  0  0  0  0  0  0
  -29.7521  -19.6408   22.1257 C   0  0  0  0  0  0  0  0  0  0  0  0
  -26.0610  -26.6935   20.4790 C   0  0  0  0  0  0  0  0  0  0  0  0
  -16.5868  -22.5623   21.7901 C   0  0  0  0  0  0  0  0  0  0  0  0
  -20.8327  -17.1649   20.5759 C   0  0  0  0  0  0  0  0  0  0  0  0
  -22.0455  -16.4266   18.4565 C   0  0  0  0  0  0  0  0  0  0  0  0
  -24.1820  -33.9416   24.3428 C   0  0  0  0  0  0  0  0  0  0  0  0
  -25.0221  -28.8549   20.1485 C   0  0  0  0  0  0  0  0  0  0  0  0
  -24.6803  -32.6593   24.0435 C   0  0  0  0  0  0  0  0  0  0  0  0
  -24.9285  -27.5181   20.5614 C   0  0  0  0  0  0  0  0  0  0  0  0
  -18.8670  -18.5595   21.9807 C   0  0  0  0  0  0  0  0  0  0  0  0
  -27.2661  -27.1881   19.9809 C   0  0  0  0  0  0  0  0  0  0  0  0
  -17.2261  -20.2416   21.9964 C   0  0  0  0  0  0  0  0  0  0  0  0
  -15.8528  -22.2582   20.6436 C   0  0  0  0  0  0  0  0  0  0  0  0
  -17.2734  -21.5540   22.4665 C   0  0  0  0  0  0  0  0  0  0  0  0
  -21.8474  -16.4440   19.8502 C   0  0  0  0  0  0  0  0  0  0  0  0
  -29.4136  -17.3672   21.7818 C   0  0  0  0  0  0  0  0  0  0  0  0
  -23.1271  -15.6001   18.2736 C   0  0  0  0  0  0  0  0  0  0  0  0
  -29.3490  -19.6251   20.8084 C   0  0  0  0  0  0  0  0  0  0  0  0
  -21.3168  -17.0976   17.4199 C   0  0  0  0  0  0  0  0  0  0  0  0
  -23.1852  -29.5869   22.6372 C   0  0  0  0  0  0  0  0  0  0  0  0
  -21.1761  -27.4226   21.2950 C   0  0  0  0  0  0  0  0  0  0  0  0
  -29.3808  -22.0401   20.0941 C   0  0  0  0  0  0  0  0  0  0  0  0
  -20.7786  -24.7087   19.2643 C   0  0  0  0  0  0  0  0  0  0  0  0
  -27.7027  -14.0316   21.8028 C   0  0  0  0  0  0  0  0  0  0  0  0
  -22.7975  -34.1432   24.9060 C   0  0  0  0  0  0  0  0  0  0  0  0
  -23.8181  -29.7548   20.2026 C   0  0  0  0  0  0  0  0  0  0  0  0
  -23.6453  -26.9425   21.1003 C   0  0  0  0  0  0  0  0  0  0  0  0
  -21.8771  -32.9422   24.7043 C   0  0  0  0  0  0  0  0  0  0  0  0
  -25.3533  -11.8540   20.2487 C   0  0  0  0  0  0  0  0  0  0  0  0
  -22.5948  -31.6502   25.0818 C   0  0  0  0  0  0  0  0  0  0  0  0
  -24.2063  -12.7818   19.8446 C   0  0  0  0  0  0  0  0  0  0  0  0
  -25.9743  -12.2711   21.5801 C   0  0  0  0  0  0  0  0  0  0  0  0
  -25.2631  -14.6064   21.2421 C   0  0  0  0  0  0  0  0  0  0  0  0
  -23.8229  -31.4212   24.1926 C   0  0  1  0  0  0  0  0  0  0  0  0
  -22.7768  -29.2992   21.2201 C   0  0  1  0  0  0  0  0  0  0  0  0
  -24.6416  -14.2592   19.8784 C   0  0  2  0  0  0  0  0  0  0  0  0
  -19.0236  -23.1415   18.3917 C   0  0  0  0  0  0  0  0  0  0  0  0
  -29.4992  -25.0061   17.5983 C   0  0  0  0  0  0  0  0  0  0  0  0
  -21.1123  -25.9962   23.9915 C   0  0  0  0  0  0  0  0  0  0  0  0
  -20.1605  -23.9926   22.8307 C   0  0  0  0  0  0  0  0  0  0  0  0
  -18.8987  -26.1445   22.8372 C   0  0  0  0  0  0  0  0  0  0  0  0
  -21.3043  -25.4962   16.4603 C   0  0  0  0  0  0  0  0  0  0  0  0
  -29.3218  -15.9042   21.9787 C   0  0  0  0  0  0  0  0  0  0  0  0
  -29.0766  -22.8333   18.8272 C   0  0  0  0  0  0  0  0  0  0  0  0
  -28.1160  -24.9840   19.7063 C   0  0  0  0  0  0  0  0  0  1  0  0
  -20.9774  -25.9308   21.4140 C   0  0  1  0  0  0  0  0  0  0  0  0
  -19.7975  -24.4264   18.1408 C   0  0  2  0  0  0  0  0  0  0  0  0
  -29.3015  -24.3469   18.9694 C   0  0  2  0  0  0  0  0  0  0  0  0
  -20.3121  -25.5271   22.7600 C   0  0  0  0  0  0  0  0  0  0  0  0
  -22.7322  -15.6884   20.5061 N   0  0  0  0  0  0  0  0  0  0  0  0
  -23.4966  -15.1885   19.5203 N   0  0  0  0  0  0  0  0  0  0  0  0
  -22.4977  -27.8640   21.1392 N   0  0  0  0  0  0  0  0  0  0  0  0
  -26.3668  -13.6820   21.5455 N   0  0  0  0  0  0  0  0  0  0  0  0
  -23.7886  -15.1926   17.1697 N   0  0  0  0  0  0  0  0  0  0  0  0
  -20.2213  -16.4421   16.8415 N   0  0  0  0  0  0  0  0  0  0  0  0
  -29.1752  -20.6798   19.8808 N   0  0  0  0  0  0  0  0  0  0  0  0
  -23.4212  -30.9239   22.8942 N   0  0  0  0  0  0  0  0  0  0  0  0
  -20.2275  -25.5232   20.2309 N   0  0  0  0  0  0  0  0  0  0  0  0
  -27.9911  -15.3895   21.7437 N   0  0  0  0  0  0  0  0  0  0  0  0
  -20.5194  -24.2945   16.8437 N   0  3  0  0  0  0  0  0  0  0  0  0
  -21.6380  -18.2377   17.0071 O   0  0  0  0  0  0  0  0  0  0  0  0
  -23.2778  -28.6643   23.4384 O   0  0  0  0  0  0  0  0  0  0  0  0
  -20.1941  -28.1682   21.3314 O   0  0  0  0  0  0  0  0  0  0  0  0
  -29.7284  -22.5841   21.1369 O   0  0  0  0  0  0  0  0  0  0  0  0
  -21.9184  -24.2493   19.2845 O   0  0  0  0  0  0  0  0  0  0  0  0
  -28.5749  -13.1951   22.0606 O   0  0  0  0  0  0  0  0  0  0  0  0
  -17.9079  -19.2396   22.6663 O   0  0  0  0  0  0  0  0  0  0  0  0
  -28.3558  -26.3766   19.9051 O   0  0  0  0  0  0  0  0  0  1  0  0
  -15.1946  -23.2266   19.9931 F   0  0  0  0  0  0  0  0  0  0  0  0
  -17.9778  -21.8525   23.5668 F   0  0  0  0  0  0  0  0  0  0  0  0
  -29.0176  -18.0382   20.2569 S   0  0  0  0  0  0  0  0  0  0  0  0
  1  2  1  0  0  0  0
  1  5  2  0  0  0  0
  2  6  2  0  0  0  0
  3  8  2  0  0  0  0
  3 17  1  0  0  0  0
  4  9  1  0  0  0  0
  4 17  2  0  0  0  0
  5 19  1  0  0  0  0
  6 21  1  0  0  0  0
  7 10  2  0  0  0  0
  7 20  1  0  0  0  0
  8 23  1  0  0  0  0
  9 23  2  0  0  0  0
 10 24  1  0  0  0  0
 11 12  2  0  0  0  0
 11 25  1  0  0  0  0
 12 26  1  0  0  0  0
 13 14  1  0  0  0  0
 13 29  2  0  0  0  0
 14 31  2  0  0  0  0
 15 22  1  0  0  0  0
 15 24  2  0  0  0  0
 16 26  2  0  0  0  0
 16 27  1  0  0  0  0
 17 28  1  0  0  0  0
 18 28  1  0  0  0  0
 18 30  2  0  0  0  0
 18 32  1  0  0  0  0
 19 21  2  0  0  0  0
 19 38  1  0  0  0  0
 20 22  2  0  0  0  0
 20 39  1  0  0  0  0
 21 47  1  0  0  0  0
 22 40  1  0  0  0  0
 23 80  1  0  0  0  0
 24 81  1  0  0  0  0
 25 27  2  0  0  0  0
 25 80  1  0  0  0  0
 26 82  1  0  0  0  0
 27 83  1  0  0  0  0
 28 63  2  0  0  0  0
 29 56  1  0  0  0  0
 29 84  1  0  0  0  0
 30 64  1  0  0  0  0
 30 67  1  0  0  0  0
 31 69  1  0  0  0  0
 31 84  1  0  0  0  0
 32 68  1  0  0  0  0
 32 74  2  0  0  0  0
 33 48  1  0  0  0  0
 33 70  1  0  0  0  0
 33 75  2  0  0  0  0
 34 59  1  0  0  0  0
 34 65  1  0  0  0  0
 34 76  2  0  0  0  0
 35 57  1  0  0  0  0
 35 69  1  0  0  0  0
 35 77  2  0  0  0  0
 36 60  1  0  0  0  0
 36 71  1  0  0  0  0
 36 78  2  0  0  0  0
 37 66  1  0  0  0  0
 37 72  1  0  0  0  0
 37 79  2  0  0  0  0
 38 41  1  0  0  0  0
 39 48  1  0  0  0  0
 40 65  1  0  0  0  0
 41 43  1  0  0  0  0
 42 44  1  0  0  0  0
 42 45  1  0  0  0  0
 43 47  1  0  0  0  0
 44 49  1  0  0  0  0
 45 66  1  0  0  0  0
 46 49  1  0  0  0  0
 46 66  1  0  0  0  0
 47 70  1  0  0  0  0
 48 65  1  0  0  0  0
 49 64  1  0  0  0  0
 50 60  1  0  0  0  0
 51 61  1  0  0  0  0
 52 62  1  0  0  0  0
 53 62  1  0  0  0  0
 54 62  1  0  0  0  0
 55 73  1  0  0  0  0
 56 72  1  0  0  0  0
 57 61  1  0  0  0  0
 58 61  1  0  0  0  0
 58 81  1  0  0  0  0
 59 62  1  0  0  0  0
 59 71  1  0  0  0  0
 60 73  1  0  0  0  0
 63 64  1  0  0  0  0
M  CHG  1  73   1
M  ISO  4  37 100  58 101  72 100  81 101
M  END
> <Batch ID>
0190

> <Smiles>
CNC(C)C(=O)NC(C(=O)N1Cc2cc([101O:1][101CH2:1]C(C)CC(=O)Nc3ccc(C[100NH:0][100C:0](=O)N4CCCC(n5nc(-c6ccc(Oc7ccc(F)cc7F)cc6)c(C(N)=O)c5N)C4)s3)ccc2CC1C(=O)NC1CCCc2ccccc21)C(C)(C)C

> <Shape>
0.235

> <Color>
0.070

> <Negative vol penalty>
0.000

$$$$

  -OEChem-04052305213D

 89 97  0     1  0  0  0  0  0999 V2000
  -22.2324  -23.5264   18.9608 C   0  0  0  0  0  0  0  0  0  0  0  0
  -23.4363  -22.8328   19.0320 C   0  0  0  0  0  0  0  0  0  0  0  0
  -21.6605  -30.7813   21.9011 C   0  0  0  0  0  0  0  0  0  0  0  0
  -22.9092  -29.8939   23.7694 C   0  0  0  0  0  0  0  0  0  0  0  0
  -21.1297  -23.0831   19.6898 C   0  0  0  0  0  0  0  0  0  0  0  0
  -23.5384  -21.6961   19.8333 C   0  0  0  0  0  0  0  0  0  0  0  0
  -25.9305  -17.8873   17.5061 C   0  0  0  0  0  0  0  0  0  0  0  0
  -20.4948  -30.7525   22.6666 C   0  0  0  0  0  0  0  0  0  0  0  0
  -21.7435  -29.8651   24.5349 C   0  0  0  0  0  0  0  0  0  0  0  0
  -27.3213  -17.9557   17.4383 C   0  0  0  0  0  0  0  0  0  0  0  0
  -17.1222  -30.5744   24.0149 C   0  0  0  0  0  0  0  0  0  0  0  0
  -15.9658  -30.0711   23.4192 C   0  0  0  0  0  0  0  0  0  0  0  0
  -27.4810  -16.4290   19.2992 C   0  0  0  0  0  0  0  0  0  0  0  0
  -17.0684  -27.9498   23.0709 C   0  0  0  0  0  0  0  0  0  0  0  0
  -28.1939  -22.9842   20.7303 C   0  0  0  0  0  0  0  0  0  0  0  0
  -22.8677  -30.3519   22.4525 C   0  0  0  0  0  0  0  0  0  0  0  0
  -24.9912  -31.4415   21.5518 C   0  0  0  0  0  0  0  0  0  0  0  0
  -21.2156  -21.9349   20.4928 C   0  0  0  0  0  0  0  0  0  0  0  0
  -25.3033  -17.0965   18.4795 C   0  0  0  0  0  0  0  0  0  0  0  0
  -22.4361  -21.2379   20.5747 C   0  0  0  0  0  0  0  0  0  0  0  0
  -26.0820  -16.3503   19.3756 C   0  0  0  0  0  0  0  0  0  0  0  0
  -20.5363  -30.2944   23.9834 C   0  0  0  0  0  0  0  0  0  0  0  0
  -28.0968  -17.2287   18.3368 C   0  0  0  0  0  0  0  0  0  0  0  0
  -18.2519  -29.7655   24.1384 C   0  0  0  0  0  0  0  0  0  0  0  0
  -15.9388  -28.7588   22.9473 C   0  0  0  0  0  0  0  0  0  0  0  0
  -18.2249  -28.4532   23.6665 C   0  0  0  0  0  0  0  0  0  0  0  0
  -24.0721  -30.3809   21.6621 C   0  0  0  0  0  0  0  0  0  0  0  0
  -28.7848  -22.9749   19.4841 C   0  0  0  0  0  0  0  0  0  0  0  0
  -25.9523  -30.9746   20.6888 C   0  0  0  0  0  0  0  0  0  0  0  0
  -29.6389  -21.1132   20.2680 C   0  0  0  0  0  0  0  0  0  0  0  0
  -24.9775  -32.7331   22.1739 C   0  0  0  0  0  0  0  0  0  0  0  0
  -23.3387  -17.6707   20.9115 C   0  0  0  0  0  0  0  0  0  0  0  0
  -31.1033  -25.7555   17.1714 C   0  0  0  0  0  0  0  0  0  0  0  0
  -23.2598  -14.4336   21.1046 C   0  0  0  0  0  0  0  0  0  0  0  0
  -24.7891  -11.4540   20.4488 C   0  0  0  0  0  0  0  0  0  0  0  0
  -28.7890  -26.3449   19.3629 C   0  0  0  0  0  0  0  0  0  0  0  0
  -20.0102  -21.5214   21.2995 C   0  0  0  0  0  0  0  0  0  0  0  0
  -23.8021  -17.0126   18.5223 C   0  0  0  0  0  0  0  0  0  0  0  0
  -25.4576  -15.4704   20.4265 C   0  0  0  0  0  0  0  0  0  0  0  0
  -20.0943  -20.0932   21.8319 C   0  0  0  0  0  0  0  0  0  0  0  0
  -26.1541  -27.4205   17.2719 C   0  0  0  0  0  0  0  0  0  0  0  0
  -21.4630  -19.8352   22.4539 C   0  0  0  0  0  0  0  0  0  0  0  0
  -25.4230  -28.4020   18.1869 C   0  0  0  0  0  0  0  0  0  0  0  0
  -26.6369  -26.1811   18.0275 C   0  0  0  0  0  0  0  0  0  0  0  0
  -26.7240  -27.4714   20.1370 C   0  0  0  0  0  0  0  0  0  0  0  0
  -22.5792  -19.9863   21.4133 C   0  0  1  0  0  0  0  0  0  0  0  0
  -23.2665  -16.5777   19.8830 C   0  0  1  0  0  0  0  0  0  0  0  0
  -26.2811  -28.7531   19.4147 C   0  0  2  0  0  0  0  0  0  0  0  0
  -32.5359  -25.7931   15.0874 C   0  0  0  0  0  0  0  0  0  0  0  0
  -31.5258  -25.8840   19.6319 C   0  0  0  0  0  0  0  0  0  0  0  0
  -24.4997   -8.9807   20.7599 C   0  0  0  0  0  0  0  0  0  0  0  0
  -32.5007  -20.2510   19.2467 C   0  0  0  0  0  0  0  0  0  0  0  0
  -24.0346  -14.7148   24.0424 C   0  0  0  0  0  0  0  0  0  0  0  0
  -24.6499  -12.2880   24.0403 C   0  0  0  0  0  0  0  0  0  0  0  0
  -22.2962  -12.9765   23.5838 C   0  0  0  0  0  0  0  0  0  0  0  0
  -24.7835  -10.9701   17.5291 C   0  0  0  0  0  0  0  0  0  0  0  0
  -28.6017  -23.9977   18.4353 C   0  0  0  0  0  0  0  0  0  0  0  0
  -32.2602  -25.1181   16.4189 C   0  0  0  0  0  0  0  0  0  0  0  0
  -30.1710  -17.1227   19.4954 C   0  0  0  0  0  0  0  0  0  1  0  0
  -30.7798  -25.1521   18.5310 C   0  0  1  0  0  0  0  0  0  0  0  0
  -24.0698  -13.3858   21.8291 C   0  0  1  0  0  0  0  0  0  0  0  0
  -24.2666  -10.1667   19.8370 C   0  0  2  0  0  0  0  0  0  0  0  0
  -31.2031  -19.4467   19.2672 C   0  0  1  0  0  0  0  0  0  0  0  0
  -31.4604  -17.9394   19.4282 C   0  0  1  0  0  0  0  0  0  0  0  0
  -23.7747  -13.3593   23.3555 C   0  0  0  0  0  0  0  0  0  0  0  0
  -24.4181  -29.3202   20.9277 N   0  0  0  0  0  0  0  0  0  0  0  0
  -29.6140  -21.9030   19.2174 N   0  0  0  0  0  0  0  0  0  0  0  0
  -25.5653  -29.7120   20.3476 N   0  0  0  0  0  0  0  0  0  0  0  0
  -23.9861  -15.4266   20.4320 N   0  0  0  0  0  0  0  0  0  0  0  0
  -27.4108  -26.5614   19.2171 N   0  0  0  0  0  0  0  0  0  0  0  0
  -27.0822  -31.5250   20.1960 N   0  0  0  0  0  0  0  0  0  0  0  0
  -23.9162  -33.0499   23.0328 N   0  0  0  0  0  0  0  0  0  0  0  0
  -30.3715  -19.9432   20.3456 N   0  0  0  0  0  0  0  0  0  0  0  0
  -22.6434  -18.8141   20.5671 N   0  0  0  0  0  0  0  0  0  0  0  0
  -23.8066  -12.1229   21.1477 N   0  0  0  0  0  0  0  0  0  0  0  0
  -29.3368  -25.2310   18.7092 N   0  0  0  0  0  0  0  0  0  0  0  0
  -24.9496   -9.8948   18.5406 N   0  3  0  0  0  0  0  0  0  0  0  0
  -25.8711  -33.5874   21.9613 O   0  0  0  0  0  0  0  0  0  0  0  0
  -23.9767  -17.4895   21.9419 O   0  0  0  0  0  0  0  0  0  0  0  0
  -30.4873  -26.7249   16.7278 O   0  0  0  0  0  0  0  0  0  0  0  0
  -22.0282  -14.3692   21.1283 O   0  0  0  0  0  0  0  0  0  0  0  0
  -25.9535  -11.8268   20.3229 O   0  0  0  0  0  0  0  0  0  0  0  0
  -29.4918  -27.1005   20.0464 O   0  0  0  0  0  0  0  0  0  0  0  0
  -32.2231  -17.7053   20.6133 O   0  0  0  0  0  0  0  0  0  0  0  0
  -19.3990  -30.2664   24.7307 O   0  0  0  0  0  0  0  0  0  0  0  0
  -29.4546  -17.2942   18.2733 O   0  0  0  0  0  0  0  0  0  1  0  0
  -14.8277  -28.2751   22.3768 F   0  0  0  0  0  0  0  0  0  0  0  0
  -19.3067  -27.6709   23.7835 F   0  0  0  0  0  0  0  0  0  0  0  0
  -28.6880  -21.5984   21.6116 S   0  0  0  0  0  0  0  0  0  0  0  0
  1  2  1  0  0  0  0
  1  5  2  0  0  0  0
  2  6  2  0  0  0  0
  3  8  2  0  0  0  0
  3 16  1  0  0  0  0
  4  9  1  0  0  0  0
  4 16  2  0  0  0  0
  5 18  1  0  0  0  0
  6 20  1  0  0  0  0
  7 10  2  0  0  0  0
  7 19  1  0  0  0  0
  8 22  1  0  0  0  0
  9 22  2  0  0  0  0
 10 23  1  0  0  0  0
 11 12  2  0  0  0  0
 11 24  1  0  0  0  0
 12 25  1  0  0  0  0
 13 21  1  0  0  0  0
 13 23  2  0  0  0  0
 14 25  2  0  0  0  0
 14 26  1  0  0  0  0
 15 28  2  0  0  0  0
 15 89  1  0  0  0  0
 16 27  1  0  0  0  0
 17 27  1  0  0  0  0
 17 29  2  0  0  0  0
 17 31  1  0  0  0  0
 18 20  2  0  0  0  0
 18 37  1  0  0  0  0
 19 21  2  0  0  0  0
 19 38  1  0  0  0  0
 20 46  1  0  0  0  0
 21 39  1  0  0  0  0
 22 85  1  0  0  0  0
 23 86  1  0  0  0  0
 24 26  2  0  0  0  0
 24 85  1  0  0  0  0
 25 87  1  0  0  0  0
 26 88  1  0  0  0  0
 27 66  2  0  0  0  0
 28 57  1  0  0  0  0
 28 67  1  0  0  0  0
 29 68  1  0  0  0  0
 29 71  1  0  0  0  0
 30 67  2  0  0  0  0
 30 73  1  0  0  0  0
 30 89  1  0  0  0  0
 31 72  1  0  0  0  0
 31 78  2  0  0  0  0
 32 47  1  0  0  0  0
 32 74  1  0  0  0  0
 32 79  2  0  0  0  0
 33 58  1  0  0  0  0
 33 60  1  0  0  0  0
 33 80  2  0  0  0  0
 34 61  1  0  0  0  0
 34 69  1  0  0  0  0
 34 81  2  0  0  0  0
 35 62  1  0  0  0  0
 35 75  1  0  0  0  0
 35 82  2  0  0  0  0
 36 70  1  0  0  0  0
 36 76  1  0  0  0  0
 36 83  2  0  0  0  0
 37 40  1  0  0  0  0
 38 47  1  0  0  0  0
 39 69  1  0  0  0  0
 40 42  1  0  0  0  0
 41 43  1  0  0  0  0
 41 44  1  0  0  0  0
 42 46  1  0  0  0  0
 43 48  1  0  0  0  0
 44 70  1  0  0  0  0
 45 48  1  0  0  0  0
 45 70  1  0  0  0  0
 46 74  1  0  0  0  0
 47 69  1  0  0  0  0
 48 68  1  0  0  0  0
 49 58  1  0  0  0  0
 50 60  1  0  0  0  0
 51 62  1  0  0  0  0
 52 63  1  0  0  0  0
 53 65  1  0  0  0  0
 54 65  1  0  0  0  0
 55 65  1  0  0  0  0
 56 77  1  0  0  0  0
 57 76  1  0  0  0  0
 59 64  1  0  0  0  0
 59 86  1  0  0  0  0
 60 76  1  0  0  0  0
 61 65  1  0  0  0  0
 61 75  1  0  0  0  0
 62 77  1  0  0  0  0
 63 64  1  0  0  0  0
 63 73  1  0  0  0  0
 64 84  1  0  0  0  0
 66 68  1  0  0  0  0
M  CHG  1  77   1
M  ISO  4  36 100  59 101  76 100  86 101
M  END
> <Batch ID>
0190

> <Smiles>
CCC(=O)C(C)[100N:0](Cc1csc(NC(C)C(O)[101CH2:1][101O:1]c2ccc3c(c2)CN(C(=O)C(NC(=O)C(C)NC)C(C)(C)C)C(C(=O)NC2CCCc4ccccc42)C3)n1)[100C:0](=O)N1CCCC(n2nc(-c3ccc(Oc4ccc(F)cc4F)cc3)c(C(N)=O)c2N)C1

> <Shape>
0.264

> <Color>
0.068

> <Negative vol penalty>
0.000

$$$$

  -OEChem-04052305213D

 91 99  0     1  0  0  0  0  0999 V2000
  -27.1359  -11.9737   21.4105 C   0  0  0  0  0  0  0  0  0  0  0  0
  -27.8523  -12.9076   22.1522 C   0  0  0  0  0  0  0  0  0  0  0  0
  -26.5575  -28.5136   19.0327 C   0  0  0  0  0  0  0  0  0  0  0  0
  -26.0638  -27.2208   21.0130 C   0  0  0  0  0  0  0  0  0  0  0  0
  -26.0954  -12.3927   20.5825 C   0  0  0  0  0  0  0  0  0  0  0  0
  -27.5292  -14.2613   22.0653 C   0  0  0  0  0  0  0  0  0  0  0  0
  -27.3741  -16.5161   26.5971 C   0  0  0  0  0  0  0  0  0  0  0  0
  -25.4960  -29.3695   19.3267 C   0  0  0  0  0  0  0  0  0  0  0  0
  -25.0023  -28.0767   21.3071 C   0  0  0  0  0  0  0  0  0  0  0  0
  -28.5937  -16.8521   27.1831 C   0  0  0  0  0  0  0  0  0  0  0  0
  -21.8176  -28.5430   20.2721 C   0  0  0  0  0  0  0  0  0  0  0  0
  -20.6077  -27.9661   20.6579 C   0  0  0  0  0  0  0  0  0  0  0  0
  -28.3105  -19.1329   26.4503 C   0  0  0  0  0  0  0  0  0  0  0  0
  -20.7264  -29.1303   22.7715 C   0  0  0  0  0  0  0  0  0  0  0  0
  -26.8413  -27.4392   19.8758 C   0  0  0  0  0  0  0  0  0  0  0  0
  -29.2752  -26.6839   19.9905 C   0  0  0  0  0  0  0  0  0  0  0  0
  -25.7531  -13.7512   20.4928 C   0  0  0  0  0  0  0  0  0  0  0  0
  -26.6175  -17.4852   25.9227 C   0  0  0  0  0  0  0  0  0  0  0  0
  -26.4840  -14.6991   21.2343 C   0  0  0  0  0  0  0  0  0  0  0  0
  -27.0805  -18.8072   25.8588 C   0  0  0  0  0  0  0  0  0  0  0  0
  -24.7185  -29.1510   20.4640 C   0  0  0  0  0  0  0  0  0  0  0  0
  -29.0635  -18.1601   27.1074 C   0  0  0  0  0  0  0  0  0  0  0  0
  -22.4821  -29.4135   21.1361 C   0  0  0  0  0  0  0  0  0  0  0  0
  -20.0621  -28.2598   21.9076 C   0  0  0  0  0  0  0  0  0  0  0  0
  -21.9364  -29.7072   22.3858 C   0  0  0  0  0  0  0  0  0  0  0  0
  -27.9373  -26.5544   19.5722 C   0  0  0  0  0  0  0  0  0  0  0  0
  -30.7162  -17.0175   20.9515 C   0  0  0  0  0  0  0  0  0  0  0  0
  -30.7949  -17.6770   22.1602 C   0  0  0  0  0  0  0  0  0  0  0  0
  -29.9130  -25.5982   19.4418 C   0  0  0  0  0  0  0  0  0  0  0  0
  -29.9025  -18.9549   20.3236 C   0  0  0  0  0  0  0  0  0  0  0  0
  -29.8868  -27.6950   20.8025 C   0  0  0  0  0  0  0  0  0  0  0  0
  -25.6073  -17.8614   22.9324 C   0  0  0  0  0  0  0  0  0  0  0  0
  -24.0194  -20.3903   24.1997 C   0  0  0  0  0  0  0  0  0  0  0  0
  -23.7984  -22.7256   26.6784 C   0  0  0  0  0  0  0  0  0  0  0  0
  -29.0145  -20.0244   18.2227 C   0  0  0  0  0  0  0  0  0  0  0  0
  -24.6514  -14.1615   19.5480 C   0  0  0  0  0  0  0  0  0  0  0  0
  -25.2912  -17.1126   25.3189 C   0  0  0  0  0  0  0  0  0  0  0  0
  -26.2965  -19.8893   25.1639 C   0  0  0  0  0  0  0  0  0  0  0  0
  -24.1282  -15.5734   19.7989 C   0  0  0  0  0  0  0  0  0  0  0  0
  -28.9522  -22.5227   15.6866 C   0  0  0  0  0  0  0  0  0  0  0  0
  -25.2875  -16.5493   19.9730 C   0  0  0  0  0  0  0  0  0  0  0  0
  -28.8150  -23.8306   16.4694 C   0  0  0  0  0  0  0  0  0  0  0  0
  -28.1565  -21.3895   16.3318 C   0  0  0  0  0  0  0  0  0  0  0  0
  -28.2993  -22.4748   18.5388 C   0  0  0  0  0  0  0  0  0  0  0  0
  -26.1475  -16.1737   21.1858 C   0  0  1  0  0  0  0  0  0  0  0  0
  -24.8490  -18.0662   24.2133 C   0  0  1  0  0  0  0  0  0  0  0  0
  -29.1356  -23.6294   17.9635 C   0  0  2  0  0  0  0  0  0  0  0  0
  -35.2593  -15.4149   26.7544 C   0  0  0  0  0  0  0  0  0  0  0  0
  -22.4152  -24.6824   27.4237 C   0  0  0  0  0  0  0  0  0  0  0  0
  -31.1201  -20.6961   28.0661 C   0  0  0  0  0  0  0  0  0  0  0  0
  -32.5921  -15.5107   20.2661 C   0  0  0  0  0  0  0  0  0  0  0  0
  -25.3133  -22.1220   22.0463 C   0  0  0  0  0  0  0  0  0  0  0  0
  -24.6793  -24.1396   23.3863 C   0  0  0  0  0  0  0  0  0  0  0  0
  -22.9054  -22.6329   22.4886 C   0  0  0  0  0  0  0  0  0  0  0  0
  -34.8377  -17.9570   25.0643 C   0  0  0  0  0  0  0  0  0  0  0  0
  -23.0731  -21.3933   29.2196 C   0  0  0  0  0  0  0  0  0  0  0  0
  -31.2893  -17.1971   23.4929 C   0  0  0  0  0  0  0  0  0  0  0  0
  -34.0368  -16.3246   26.8379 C   0  0  0  0  0  0  0  0  0  0  0  0
  -32.3722  -19.0481   26.6144 C   0  0  0  0  0  0  0  0  0  0  0  0
  -24.3360  -21.8497   24.4205 C   0  0  1  0  0  0  0  0  0  0  0  0
  -22.6286  -23.1806   27.5323 C   0  0  2  0  0  0  0  0  0  0  0  0
  -32.3305  -17.8284   25.6738 C   0  0  2  0  0  0  0  0  0  0  0  0
  -30.9923  -19.5507   27.0690 C   0  0  1  0  0  0  0  0  0  1  0  0
  -31.1250  -15.6216   20.6943 C   0  0  0  0  0  0  0  0  0  0  0  0
  -24.3244  -22.6655   23.0969 C   0  0  0  0  0  0  0  0  0  0  0  0
  -33.6791  -17.0612   25.5221 C   0  0  1  0  0  0  0  0  0  0  0  0
  -27.7358  -25.4721   18.8160 N   0  0  0  0  0  0  0  0  0  0  0  0
  -30.2044  -17.7486   19.8973 N   0  0  0  0  0  0  0  0  0  0  0  0
  -28.9557  -24.9115   18.7547 N   0  0  0  0  0  0  0  0  0  0  0  0
  -25.0087  -19.4739   24.5837 N   0  0  0  0  0  0  0  0  0  0  0  0
  -28.5157  -21.2549   17.7452 N   0  0  0  0  0  0  0  0  0  0  0  0
  -31.1938  -25.1736   19.4848 N   0  0  0  0  0  0  0  0  0  0  0  0
  -29.0863  -28.7398   21.2841 N   0  0  0  0  0  0  0  0  0  0  0  0
  -29.3527  -20.0254   19.5755 N   0  0  0  0  0  0  0  0  0  0  0  0
  -25.4990  -16.5858   22.4123 N   0  0  0  0  0  0  0  0  0  0  0  0
  -23.3897  -22.3254   25.4238 N   0  0  0  0  0  0  0  0  0  0  0  0
  -22.8698  -22.8425   28.9636 N   0  3  0  0  0  0  0  0  0  0  0  0
  -31.8694  -18.2806   24.3217 N   0  3  0  0  0  0  0  0  0  0  0  0
  -31.1103  -27.6814   21.0787 O   0  0  0  0  0  0  0  0  0  0  0  0
  -26.2424  -18.7923   22.4509 O   0  0  0  0  0  0  0  0  0  0  0  0
  -22.9316  -20.0746   23.7114 O   0  0  0  0  0  0  0  0  0  0  0  0
  -24.9591  -22.7288   27.0826 O   0  0  0  0  0  0  0  0  0  0  0  0
  -29.1585  -19.0503   17.4795 O   0  0  0  0  0  0  0  0  0  0  0  0
  -33.4972  -16.0675   24.5009 O   0  0  0  0  0  0  0  0  0  0  0  0
  -23.6828  -29.9861   20.7514 O   0  0  0  0  0  0  0  0  0  0  0  0
  -30.2612  -18.4926   27.6815 O   0  0  0  0  0  0  0  0  0  1  0  0
  -18.8994  -27.7069   22.2772 F   0  0  0  0  0  0  0  0  0  0  0  0
  -22.5695  -30.5437   23.2196 F   0  0  0  0  0  0  0  0  0  0  0  0
  -30.3850  -15.0034   19.7108 F   0  0  0  0  0  0  0  0  0  0  0  0
  -30.9744  -14.7939   21.7850 F   0  0  0  0  0  0  0  0  0  0  0  0
  -30.2086  -19.2787   21.9808 S   0  0  0  0  0  0  0  0  0  0  0  0
  1  2  1  0  0  0  0
  1  5  2  0  0  0  0
  2  6  2  0  0  0  0
  3  8  2  0  0  0  0
  3 15  1  0  0  0  0
  4  9  1  0  0  0  0
  4 15  2  0  0  0  0
  5 17  1  0  0  0  0
  6 19  1  0  0  0  0
  7 10  2  0  0  0  0
  7 18  1  0  0  0  0
  8 21  1  0  0  0  0
  9 21  2  0  0  0  0
 10 22  1  0  0  0  0
 11 12  2  0  0  0  0
 11 23  1  0  0  0  0
 12 24  1  0  0  0  0
 13 20  1  0  0  0  0
 13 22  2  0  0  0  0
 14 24  2  0  0  0  0
 14 25  1  0  0  0  0
 15 26  1  0  0  0  0
 16 26  1  0  0  0  0
 16 29  2  0  0  0  0
 16 31  1  0  0  0  0
 17 19  2  0  0  0  0
 17 36  1  0  0  0  0
 18 20  2  0  0  0  0
 18 37  1  0  0  0  0
 19 45  1  0  0  0  0
 20 38  1  0  0  0  0
 21 85  1  0  0  0  0
 22 86  1  0  0  0  0
 23 25  2  0  0  0  0
 23 85  1  0  0  0  0
 24 87  1  0  0  0  0
 25 88  1  0  0  0  0
 26 67  2  0  0  0  0
 27 28  2  0  0  0  0
 27 64  1  0  0  0  0
 27 68  1  0  0  0  0
 28 57  1  0  0  0  0
 28 91  1  0  0  0  0
 29 69  1  0  0  0  0
 29 72  1  0  0  0  0
 30 68  2  0  0  0  0
 30 74  1  0  0  0  0
 30 91  1  0  0  0  0
 31 73  1  0  0  0  0
 31 79  2  0  0  0  0
 32 46  1  0  0  0  0
 32 75  1  0  0  0  0
 32 80  2  0  0  0  0
 33 60  1  0  0  0  0
 33 70  1  0  0  0  0
 33 81  2  0  0  0  0
 34 61  1  0  0  0  0
 34 76  1  0  0  0  0
 34 82  2  0  0  0  0
 35 71  1  0  0  0  0
 35 74  1  0  0  0  0
 35 83  2  0  0  0  0
 36 39  1  0  0  0  0
 37 46  1  0  0  0  0
 38 70  1  0  0  0  0
 39 41  1  0  0  0  0
 40 42  1  0  0  0  0
 40 43  1  0  0  0  0
 41 45  1  0  0  0  0
 42 47  1  0  0  0  0
 43 71  1  0  0  0  0
 44 47  1  0  0  0  0
 44 71  1  0  0  0  0
 45 75  1  0  0  0  0
 46 70  1  0  0  0  0
 47 69  1  0  0  0  0
 48 58  1  0  0  0  0
 49 61  1  0  0  0  0
 50 63  1  0  0  0  0
 51 64  1  0  0  0  0
 52 65  1  0  0  0  0
 53 65  1  0  0  0  0
 54 65  1  0  0  0  0
 55 66  1  0  0  0  0
 56 77  1  0  0  0  0
 57 78  1  0  0  0  0
 58 66  1  0  0  0  0
 59 62  1  0  0  0  0
 59 63  1  0  0  0  0
 60 65  1  0  0  0  0
 60 76  1  0  0  0  0
 61 77  1  0  0  0  0
 62 66  1  0  0  0  0
 62 78  1  0  0  0  0
 63 86  1  0  0  0  0
 64 89  1  0  0  0  0
 64 90  1  0  0  0  0
 66 84  1  0  0  0  0
 67 69  1  0  0  0  0
M  CHG  2  77   1  78   1
M  ISO  4  35 100  63 101  74 100  86 101
M  END
> <Batch ID>
0190

> <Smiles>
CCC(C)(O)C(C[101CH:1](C)[101O:1]c1ccc2c(c1)CN(C(=O)C(NC(=O)C(C)NC)C(C)(C)C)C(C(=O)NC1CCCc3ccccc31)C2)NCc1sc([100NH:0][100C:0](=O)N2CCCC(n3nc(-c4ccc(Oc5ccc(F)cc5F)cc4)c(C(N)=O)c3N)C2)nc1C(C)(F)F

> <Shape>
0.212

> <Color>
0.049

> <Negative vol penalty>
0.000

$$$$

  -OEChem-04052305213D

 78 85  0     1  0  0  0  0  0999 V2000
  -16.7881  -28.2015   22.7469 C   0  0  0  0  0  0  0  0  0  0  0  0
  -17.7612  -27.8280   21.8254 C   0  0  0  0  0  0  0  0  0  0  0  0
  -24.4603  -13.7707   21.7245 C   0  0  0  0  0  0  0  0  0  0  0  0
  -26.7532  -13.4603   21.0292 C   0  0  0  0  0  0  0  0  0  0  0  0
  -17.0753  -29.1693   23.7085 C   0  0  0  0  0  0  0  0  0  0  0  0
  -19.0217  -28.4229   21.8644 C   0  0  0  0  0  0  0  0  0  0  0  0
  -24.3849  -25.7743   20.5505 C   0  0  0  0  0  0  0  0  0  0  0  0
  -24.0991  -12.6015   21.0552 C   0  0  0  0  0  0  0  0  0  0  0  0
  -26.3920  -12.2910   20.3599 C   0  0  0  0  0  0  0  0  0  0  0  0
  -25.1778  -25.7797   19.4037 C   0  0  0  0  0  0  0  0  0  0  0  0
  -24.2818   -9.2677   21.5894 C   0  0  0  0  0  0  0  0  0  0  0  0
  -23.4437   -8.3727   22.2544 C   0  0  0  0  0  0  0  0  0  0  0  0
  -26.4976  -27.5729   20.3321 C   0  0  0  0  0  0  0  0  0  0  0  0
  -21.8003   -8.6077   20.4991 C   0  0  0  0  0  0  0  0  0  0  0  0
  -25.7874  -14.2002   21.7115 C   0  0  0  0  0  0  0  0  0  0  0  0
  -26.5831  -15.5268   23.7400 C   0  0  0  0  0  0  0  0  0  0  0  0
  -18.3431  -29.7694   23.7654 C   0  0  0  0  0  0  0  0  0  0  0  0
  -24.6361  -26.6769   21.5938 C   0  0  0  0  0  0  0  0  0  0  0  0
  -19.3257  -29.4006   22.8269 C   0  0  0  0  0  0  0  0  0  0  0  0
  -25.7081  -27.5751   21.4921 C   0  0  0  0  0  0  0  0  0  0  0  0
  -25.0649  -11.8616   20.3730 C   0  0  0  0  0  0  0  0  0  0  0  0
  -26.2325  -26.6811   19.2931 C   0  0  0  0  0  0  0  0  0  0  0  0
  -23.8792   -9.8327   20.3793 C   0  0  0  0  0  0  0  0  0  0  0  0
  -22.2030   -8.0427   21.7092 C   0  0  0  0  0  0  0  0  0  0  0  0
  -22.6384   -9.5027   19.8342 C   0  0  0  0  0  0  0  0  0  0  0  0
  -26.1611  -15.4083   22.4021 C   0  0  0  0  0  0  0  0  0  0  0  0
  -26.8169  -16.8697   23.9085 C   0  0  0  0  0  0  0  0  0  0  0  0
  -26.7489  -14.5136   24.7407 C   0  0  0  0  0  0  0  0  0  0  0  0
  -22.9995  -29.0313   22.9658 C   0  0  0  0  0  0  0  0  0  0  0  0
  -28.2279  -21.0983   19.9839 C   0  0  0  0  0  0  0  0  0  0  0  0
  -25.5194  -29.0686   25.0082 C   0  0  0  0  0  0  0  0  0  0  0  0
  -29.1165  -24.8550   17.4041 C   0  0  0  0  0  0  0  0  0  0  0  0
  -28.8095  -28.3519   25.5634 C   0  0  0  0  0  0  0  0  0  0  0  0
  -18.5917  -30.8450   24.7931 C   0  0  0  0  0  0  0  0  0  0  0  0
  -23.7883  -26.6403   22.8357 C   0  0  0  0  0  0  0  0  0  0  0  0
  -26.0321  -28.5510   22.5927 C   0  0  0  0  0  0  0  0  0  0  0  0
  -20.0713  -31.1565   25.0031 C   0  0  0  0  0  0  0  0  0  0  0  0
  -25.4286  -21.1505   22.3051 C   0  0  0  0  0  0  0  0  0  0  0  0
  -20.7809  -31.3064   23.6612 C   0  0  0  0  0  0  0  0  0  0  0  0
  -25.3249  -19.6759   22.6921 C   0  0  0  0  0  0  0  0  0  0  0  0
  -25.8472  -21.3201   20.8470 C   0  0  0  0  0  0  0  0  0  0  0  0
  -27.0155  -19.1388   20.8848 C   0  0  0  0  0  0  0  0  0  0  0  0
  -20.7127  -30.0052   22.8526 C   0  0  1  0  0  0  0  0  0  0  0  0
  -23.8155  -27.9505   23.6167 C   0  0  1  0  0  0  0  0  0  0  0  0
  -26.6251  -18.9245   22.3567 C   0  0  2  0  0  0  0  0  0  0  0  0
  -28.8094  -26.8055   15.8761 C   0  0  0  0  0  0  0  0  0  0  0  0
  -30.5962  -28.5320   27.3163 C   0  0  0  0  0  0  0  0  0  0  0  0
  -25.7876  -32.0515   24.4249 C   0  0  0  0  0  0  0  0  0  0  0  0
  -28.0867  -31.9669   25.4123 C   0  0  0  0  0  0  0  0  0  0  0  0
  -26.1037  -31.4254   26.8254 C   0  0  0  0  0  0  0  0  0  0  0  0
  -29.1708  -25.4161   25.6623 C   0  0  0  0  0  0  0  0  0  0  0  0
  -28.1956  -22.5650   19.6348 C   0  0  0  0  0  0  0  0  0  0  0  0
  -29.5158  -22.9970   19.0174 C   0  0  0  0  0  0  0  0  0  0  0  0
  -28.3686  -27.0884   18.3303 C   0  0  0  0  0  0  0  0  0  1  0  0
  -26.8485  -29.7831   25.0533 C   0  0  1  0  0  0  0  0  0  0  0  0
  -29.2271  -26.3772   17.2819 C   0  0  1  0  0  0  0  0  0  0  0  0
  -29.5078  -27.6550   26.7172 C   0  0  2  0  0  0  0  0  0  0  0  0
  -26.6996  -31.2898   25.4072 C   0  0  0  0  0  0  0  0  0  0  0  0
  -26.1277  -16.5823   21.7661 N   0  0  0  0  0  0  0  0  0  0  0  0
  -26.5315  -17.4513   22.7083 N   0  0  0  0  0  0  0  0  0  0  0  0
  -25.1702  -28.4805   23.7842 N   0  0  0  0  0  0  0  0  0  0  0  0
  -27.0743  -20.5671   20.5613 N   0  0  0  0  0  0  0  0  0  0  0  0
  -27.2366  -17.5980   24.9649 N   0  0  0  0  0  0  0  0  0  0  0  0
  -26.4646  -13.1843   24.3993 N   0  0  0  0  0  0  0  0  0  0  0  0
  -21.6738  -29.0470   23.3552 N   0  0  0  0  0  0  0  0  0  0  0  0
  -29.5176  -24.3949   18.6503 N   0  0  0  0  0  0  0  0  0  0  0  0
  -27.6850  -29.0309   25.9823 N   0  0  0  0  0  0  0  0  0  0  0  0
  -30.1312  -26.3833   26.2533 N   0  3  0  0  0  0  0  0  0  0  0  0
  -27.1220  -14.7812   25.9081 O   0  0  0  0  0  0  0  0  0  0  0  0
  -23.5336  -29.7954   22.1704 O   0  0  0  0  0  0  0  0  0  0  0  0
  -29.2496  -20.4467   19.7521 O   0  0  0  0  0  0  0  0  0  0  0  0
  -24.8202  -29.0274   26.0235 O   0  0  0  0  0  0  0  0  0  0  0  0
  -28.7208  -24.1403   16.4858 O   0  0  0  0  0  0  0  0  0  0  0  0
  -29.2226  -28.3021   24.4069 O   0  0  0  0  0  0  0  0  0  0  0  0
  -24.7127  -10.7205   19.7200 O   0  0  0  0  0  0  0  0  0  0  0  0
  -27.0075  -26.6890   18.1746 O   0  0  0  0  0  0  0  0  0  1  0  0
  -21.3989   -7.1821   22.3471 F   0  0  0  0  0  0  0  0  0  0  0  0
  -22.2466  -10.0414   18.6714 F   0  0  0  0  0  0  0  0  0  0  0  0
  1  2  1  0  0  0  0
  1  5  2  0  0  0  0
  2  6  2  0  0  0  0
  3  8  2  0  0  0  0
  3 15  1  0  0  0  0
  4  9  1  0  0  0  0
  4 15  2  0  0  0  0
  5 17  1  0  0  0  0
  6 19  1  0  0  0  0
  7 10  2  0  0  0  0
  7 18  1  0  0  0  0
  8 21  1  0  0  0  0
  9 21  2  0  0  0  0
 10 22  1  0  0  0  0
 11 12  2  0  0  0  0
 11 23  1  0  0  0  0
 12 24  1  0  0  0  0
 13 20  1  0  0  0  0
 13 22  2  0  0  0  0
 14 24  2  0  0  0  0
 14 25  1  0  0  0  0
 15 26  1  0  0  0  0
 16 26  1  0  0  0  0
 16 27  2  0  0  0  0
 16 28  1  0  0  0  0
 17 19  2  0  0  0  0
 17 34  1  0  0  0  0
 18 20  2  0  0  0  0
 18 35  1  0  0  0  0
 19 43  1  0  0  0  0
 20 36  1  0  0  0  0
 21 75  1  0  0  0  0
 22 76  1  0  0  0  0
 23 25  2  0  0  0  0
 23 75  1  0  0  0  0
 24 77  1  0  0  0  0
 25 78  1  0  0  0  0
 26 59  2  0  0  0  0
 27 60  1  0  0  0  0
 27 63  1  0  0  0  0
 28 64  1  0  0  0  0
 28 69  2  0  0  0  0
 29 44  1  0  0  0  0
 29 65  1  0  0  0  0
 29 70  2  0  0  0  0
 30 52  1  0  0  0  0
 30 62  1  0  0  0  0
 30 71  2  0  0  0  0
 31 55  1  0  0  0  0
 31 61  1  0  0  0  0
 31 72  2  0  0  0  0
 32 56  1  0  0  0  0
 32 66  1  0  0  0  0
 32 73  2  0  0  0  0
 33 57  1  0  0  0  0
 33 67  1  0  0  0  0
 33 74  2  0  0  0  0
 34 37  1  0  0  0  0
 35 44  1  0  0  0  0
 36 61  1  0  0  0  0
 37 39  1  0  0  0  0
 38 40  1  0  0  0  0
 38 41  1  0  0  0  0
 39 43  1  0  0  0  0
 40 45  1  0  0  0  0
 41 62  1  0  0  0  0
 42 45  1  0  0  0  0
 42 62  1  0  0  0  0
 43 65  1  0  0  0  0
 44 61  1  0  0  0  0
 45 60  1  0  0  0  0
 46 56  1  0  0  0  0
 47 57  1  0  0  0  0
 48 58  1  0  0  0  0
 49 58  1  0  0  0  0
 50 58  1  0  0  0  0
 51 68  1  0  0  0  0
 52 53  1  0  0  0  0
 53 66  1  0  0  0  0
 54 56  1  0  0  0  0
 54 76  1  0  0  0  0
 55 58  1  0  0  0  0
 55 67  1  0  0  0  0
 57 68  1  0  0  0  0
 59 60  1  0  0  0  0
M  CHG  1  68   1
M  ISO  4  30 100  52 100  54 101  76 101
M  END
> <Batch ID>
0190

> <Smiles>
CNC(C)C(=O)NC(C(=O)N1Cc2cc([101O:1][101CH2:1]C(C)C(=O)NC[100CH2:0][100C:0](=O)N3CCCC(n4nc(-c5ccc(Oc6ccc(F)cc6F)cc5)c(C(N)=O)c4N)C3)ccc2CC1C(=O)NC1CCCc2ccccc21)C(C)(C)C

> <Shape>
0.256

> <Color>
0.089

> <Negative vol penalty>
0.000

$$$$

  -OEChem-04052305213D

 87 95  0     1  0  0  0  0  0999 V2000
  -29.5990  -25.5555   17.0928 C   0  0  0  0  0  0  0  0  0  0  0  0
  -28.2210  -25.7327   17.1645 C   0  0  0  0  0  0  0  0  0  0  0  0
  -27.3387  -13.9339   18.4676 C   0  0  0  0  0  0  0  0  0  0  0  0
  -24.9611  -14.2726   18.7308 C   0  0  0  0  0  0  0  0  0  0  0  0
  -30.3984  -25.8627   18.1931 C   0  0  0  0  0  0  0  0  0  0  0  0
  -27.6415  -26.2163   18.3370 C   0  0  0  0  0  0  0  0  0  0  0  0
  -22.7522  -29.8764   18.7891 C   0  0  0  0  0  0  0  0  0  0  0  0
  -27.2669  -12.8006   19.2776 C   0  0  0  0  0  0  0  0  0  0  0  0
  -24.8893  -13.1393   19.5408 C   0  0  0  0  0  0  0  0  0  0  0  0
  -21.4071  -29.6171   19.0483 C   0  0  0  0  0  0  0  0  0  0  0  0
  -26.3168   -9.5708   18.9639 C   0  0  0  0  0  0  0  0  0  0  0  0
  -26.9928   -8.4269   18.5395 C   0  0  0  0  0  0  0  0  0  0  0  0
  -21.7672  -30.1130   21.3814 C   0  0  0  0  0  0  0  0  0  0  0  0
  -28.3237   -8.4654   20.5555 C   0  0  0  0  0  0  0  0  0  0  0  0
  -23.5784  -24.7506   18.6340 C   0  0  0  0  0  0  0  0  0  0  0  0
  -24.2153  -24.7737   20.7436 C   0  0  0  0  0  0  0  0  0  0  0  0
  -26.1857  -14.6700   18.1943 C   0  0  0  0  0  0  0  0  0  0  0  0
  -26.1123  -15.8974   15.9592 C   0  0  0  0  0  0  0  0  0  0  0  0
  -29.8294  -26.3594   19.3763 C   0  0  0  0  0  0  0  0  0  0  0  0
  -23.6188  -30.2461   19.8278 C   0  0  0  0  0  0  0  0  0  0  0  0
  -28.4339  -26.5292   19.4546 C   0  0  0  0  0  0  0  0  0  0  0  0
  -23.1223  -30.3790   21.1324 C   0  0  0  0  0  0  0  0  0  0  0  0
  -26.0422  -12.4033   19.8141 C   0  0  0  0  0  0  0  0  0  0  0  0
  -20.9150  -29.7325   20.3450 C   0  0  0  0  0  0  0  0  0  0  0  0
  -26.6443  -10.1621   20.1840 C   0  0  0  0  0  0  0  0  0  0  0  0
  -27.9962   -7.8741   19.3353 C   0  0  0  0  0  0  0  0  0  0  0  0
  -27.6477   -9.6094   20.9799 C   0  0  0  0  0  0  0  0  0  0  0  0
  -26.2593  -15.8411   17.3581 C   0  0  0  0  0  0  0  0  0  0  0  0
  -22.6880  -25.4426   19.4206 C   0  0  0  0  0  0  0  0  0  0  0  0
  -26.2667  -17.2270   15.6510 C   0  0  0  0  0  0  0  0  0  0  0  0
  -25.8587  -14.8423   15.0221 C   0  0  0  0  0  0  0  0  0  0  0  0
  -21.4417  -26.1069   18.9593 C   0  0  0  0  0  0  0  0  0  0  0  0
  -26.2354  -28.9874   21.1210 C   0  0  0  0  0  0  0  0  0  0  0  0
  -25.3667  -22.1090   18.9114 C   0  0  0  0  0  0  0  0  0  0  0  0
  -26.2765  -31.7684   22.7903 C   0  0  0  0  0  0  0  0  0  0  0  0
  -24.5373  -34.4332   24.0236 C   0  0  0  0  0  0  0  0  0  0  0  0
  -18.2035  -25.7467   18.9259 C   0  0  0  0  0  0  0  0  0  0  0  0
  -30.7291  -26.6327   20.5555 C   0  0  0  0  0  0  0  0  0  0  0  0
  -25.0612  -30.5484   19.5272 C   0  0  0  0  0  0  0  0  0  0  0  0
  -24.0068  -30.7925   22.2792 C   0  0  0  0  0  0  0  0  0  0  0  0
  -30.0762  -27.4946   21.6330 C   0  0  0  0  0  0  0  0  0  0  0  0
  -28.4306  -21.2049   17.1731 C   0  0  0  0  0  0  0  0  0  0  0  0
  -28.6695  -26.9907   21.9400 C   0  0  0  0  0  0  0  0  0  0  0  0
  -28.2111  -19.7136   16.9223 C   0  0  0  0  0  0  0  0  0  0  0  0
  -27.8328  -21.6437   18.5073 C   0  0  0  0  0  0  0  0  0  0  0  0
  -26.1617  -19.8213   18.4059 C   0  0  0  0  0  0  0  0  0  0  0  0
  -27.7706  -27.0750   20.7005 C   0  0  1  0  0  0  0  0  0  0  0  0
  -25.9661  -30.4179   20.7484 C   0  0  1  0  0  0  0  0  0  0  0  0
  -26.7233  -19.3447   17.0560 C   0  0  2  0  0  0  0  0  0  0  0  0
  -24.8361  -36.5234   25.3798 C   0  0  0  0  0  0  0  0  0  0  0  0
  -18.5844  -29.0227   22.7232 C   0  0  0  0  0  0  0  0  0  0  0  0
  -26.4227  -30.0929   25.3361 C   0  0  0  0  0  0  0  0  0  0  0  0
  -25.7663  -32.1317   26.6325 C   0  0  0  0  0  0  0  0  0  0  0  0
  -27.8948  -32.1145   25.3319 C   0  0  0  0  0  0  0  0  0  0  0  0
  -23.6571  -36.1527   21.7814 C   0  0  0  0  0  0  0  0  0  0  0  0
  -16.0888  -25.4029   17.9190 C   0  0  0  0  0  0  0  0  0  0  0  0
  -25.7198  -23.5552   19.1518 C   0  0  0  0  0  0  0  0  0  0  0  0
  -18.4697  -27.3449   20.8375 C   0  0  0  0  0  0  0  0  0  0  0  0
  -25.6905  -32.2380   24.0999 C   0  0  1  0  0  0  0  0  0  0  0  0
  -24.8166  -35.9248   23.9819 C   0  0  2  0  0  0  0  0  0  0  0  0
  -19.1309  -26.7639   19.5794 C   0  0  1  0  0  0  0  0  0  0  0  0
  -19.3114  -28.4299   21.5230 C   0  0  1  0  0  0  0  0  0  1  0  0
  -26.4271  -31.6346   25.3290 C   0  0  0  0  0  0  0  0  0  0  0  0
  -23.0903  -25.4536   20.7327 N   0  0  0  0  0  0  0  0  0  0  0  0
  -26.4896  -17.0395   17.9010 N   0  0  0  0  0  0  0  0  0  0  0  0
  -24.5516  -24.3285   19.4954 N   0  0  0  0  0  0  0  0  0  0  0  0
  -26.4886  -17.8614   16.8377 N   0  0  0  0  0  0  0  0  0  0  0  0
  -25.4110  -31.0711   21.9356 N   0  0  0  0  0  0  0  0  0  0  0  0
  -26.4225  -21.2496   18.6067 N   0  0  0  0  0  0  0  0  0  0  0  0
  -26.2331  -17.9035   14.4832 N   0  0  0  0  0  0  0  0  0  0  0  0
  -25.7269  -13.5344   15.5082 N   0  0  0  0  0  0  0  0  0  0  0  0
  -20.4096  -26.1724   19.8847 N   0  0  0  0  0  0  0  0  0  0  0  0
  -27.3324  -28.4374   20.4857 N   0  0  0  0  0  0  0  0  0  0  0  0
  -25.7023  -33.6961   24.0529 N   0  0  0  0  0  0  0  0  0  0  0  0
  -23.7702  -36.6256   23.1851 N   0  3  0  0  0  0  0  0  0  0  0  0
  -25.7684  -15.0508   13.7884 O   0  0  0  0  0  0  0  0  0  0  0  0
  -21.3799  -26.5344   17.8096 O   0  0  0  0  0  0  0  0  0  0  0  0
  -25.5031  -28.4247   21.9265 O   0  0  0  0  0  0  0  0  0  0  0  0
  -24.1870  -21.7563   18.9899 O   0  0  0  0  0  0  0  0  0  0  0  0
  -27.4567  -32.0176   22.5320 O   0  0  0  0  0  0  0  0  0  0  0  0
  -23.3996  -33.9685   24.0333 O   0  0  0  0  0  0  0  0  0  0  0  0
  -18.5130  -24.5683   18.7800 O   0  0  0  0  0  0  0  0  0  0  0  0
  -25.9718  -11.2973   20.6043 O   0  0  0  0  0  0  0  0  0  0  0  0
  -19.6027  -29.4793   20.6009 O   0  0  0  0  0  0  0  0  0  1  0  0
  -17.0186  -26.2974   18.5391 O   0  0  0  0  0  0  0  0  0  0  0  0
  -28.6441   -6.7747   18.9284 F   0  0  0  0  0  0  0  0  0  0  0  0
  -27.9659  -10.1722   22.1536 F   0  0  0  0  0  0  0  0  0  0  0  0
  1  2  1  0  0  0  0
  1  5  2  0  0  0  0
  2  6  2  0  0  0  0
  3  8  2  0  0  0  0
  3 17  1  0  0  0  0
  4  9  1  0  0  0  0
  4 17  2  0  0  0  0
  5 19  1  0  0  0  0
  6 21  1  0  0  0  0
  7 10  2  0  0  0  0
  7 20  1  0  0  0  0
  8 23  1  0  0  0  0
  9 23  2  0  0  0  0
 10 24  1  0  0  0  0
 11 12  2  0  0  0  0
 11 25  1  0  0  0  0
 12 26  1  0  0  0  0
 13 22  1  0  0  0  0
 13 24  2  0  0  0  0
 14 26  2  0  0  0  0
 14 27  1  0  0  0  0
 15 29  2  0  0  0  0
 15 66  1  0  0  0  0
 16 64  2  0  0  0  0
 16 66  1  0  0  0  0
 17 28  1  0  0  0  0
 18 28  1  0  0  0  0
 18 30  2  0  0  0  0
 18 31  1  0  0  0  0
 19 21  2  0  0  0  0
 19 38  1  0  0  0  0
 20 22  2  0  0  0  0
 20 39  1  0  0  0  0
 21 47  1  0  0  0  0
 22 40  1  0  0  0  0
 23 83  1  0  0  0  0
 24 84  1  0  0  0  0
 25 27  2  0  0  0  0
 25 83  1  0  0  0  0
 26 86  1  0  0  0  0
 27 87  1  0  0  0  0
 28 65  2  0  0  0  0
 29 32  1  0  0  0  0
 29 64  1  0  0  0  0
 30 67  1  0  0  0  0
 30 70  1  0  0  0  0
 31 71  1  0  0  0  0
 31 76  2  0  0  0  0
 32 72  1  0  0  0  0
 32 77  2  0  0  0  0
 33 48  1  0  0  0  0
 33 73  1  0  0  0  0
 33 78  2  0  0  0  0
 34 57  1  0  0  0  0
 34 69  1  0  0  0  0
 34 79  2  0  0  0  0
 35 59  1  0  0  0  0
 35 68  1  0  0  0  0
 35 80  2  0  0  0  0
 36 60  1  0  0  0  0
 36 74  1  0  0  0  0
 36 81  2  0  0  0  0
 37 61  1  0  0  0  0
 37 82  2  0  0  0  0
 37 85  1  0  0  0  0
 38 41  1  0  0  0  0
 39 48  1  0  0  0  0
 40 68  1  0  0  0  0
 41 43  1  0  0  0  0
 42 44  1  0  0  0  0
 42 45  1  0  0  0  0
 43 47  1  0  0  0  0
 44 49  1  0  0  0  0
 45 69  1  0  0  0  0
 46 49  1  0  0  0  0
 46 69  1  0  0  0  0
 47 73  1  0  0  0  0
 48 68  1  0  0  0  0
 49 67  1  0  0  0  0
 50 60  1  0  0  0  0
 51 62  1  0  0  0  0
 52 63  1  0  0  0  0
 53 63  1  0  0  0  0
 54 63  1  0  0  0  0
 55 75  1  0  0  0  0
 56 85  1  0  0  0  0
 57 66  1  0  0  0  0
 58 61  1  0  0  0  0
 58 62  1  0  0  0  0
 59 63  1  0  0  0  0
 59 74  1  0  0  0  0
 60 75  1  0  0  0  0
 61 72  1  0  0  0  0
 62 84  1  0  0  0  0
 65 67  1  0  0  0  0
M  CHG  1  75   1
M  ISO  4  34 100  57 100  62 101  84 101
M  END
> <Batch ID>
0190

> <Smiles>
CNC(C)C(=O)NC(C(=O)N1Cc2cc([101O:1][101CH:1](C)CC(NC(=O)c3cn([100CH2:0][100C:0](=O)N4CCCC(n5nc(-c6ccc(Oc7ccc(F)cc7F)cc6)c(C(N)=O)c5N)C4)cn3)C(=O)OC)ccc2CC1C(=O)NC1CCCc2ccccc21)C(C)(C)C

> <Shape>
0.232

> <Color>
0.065

> <Negative vol penalty>
0.000

$$$$

  -OEChem-04052305213D

 86 94  0     1  0  0  0  0  0999 V2000
  -27.5455  -20.5600   23.6642 C   0  0  0  0  0  0  0  0  0  0  0  0
  -27.0477  -19.3515   23.1876 C   0  0  0  0  0  0  0  0  0  0  0  0
  -27.3020  -27.3478   19.1043 C   0  0  0  0  0  0  0  0  0  0  0  0
  -26.1084  -25.5523   20.1945 C   0  0  0  0  0  0  0  0  0  0  0  0
  -28.3430  -21.3564   22.8434 C   0  0  0  0  0  0  0  0  0  0  0  0
  -27.3463  -18.9391   21.8894 C   0  0  0  0  0  0  0  0  0  0  0  0
  -28.6660  -14.0555   21.6575 C   0  0  0  0  0  0  0  0  0  0  0  0
  -26.8485  -28.2395   20.0763 C   0  0  0  0  0  0  0  0  0  0  0  0
  -25.6549  -26.4440   21.1666 C   0  0  0  0  0  0  0  0  0  0  0  0
  -27.6383  -13.1150   21.7121 C   0  0  0  0  0  0  0  0  0  0  0  0
  -24.0110  -29.9425   20.7639 C   0  0  0  0  0  0  0  0  0  0  0  0
  -23.5268  -31.1778   20.3336 C   0  0  0  0  0  0  0  0  0  0  0  0
  -27.7394  -12.8741   19.3140 C   0  0  0  0  0  0  0  0  0  0  0  0
  -25.2255  -32.2975   21.6366 C   0  0  0  0  0  0  0  0  0  0  0  0
  -23.9748  -16.0029   17.0140 C   0  0  0  0  0  0  0  0  0  0  0  0
  -26.9319  -26.0042   19.1634 C   0  0  0  0  0  0  0  0  0  0  0  0
  -28.7365  -24.7636   17.8549 C   0  0  0  0  0  0  0  0  0  0  0  0
  -28.6595  -20.9490   21.5378 C   0  0  0  0  0  0  0  0  0  0  0  0
  -29.2317  -14.4211   20.4276 C   0  0  0  0  0  0  0  0  0  0  0  0
  -28.1478  -19.7314   21.0499 C   0  0  0  0  0  0  0  0  0  0  0  0
  -28.7759  -13.8177   19.2467 C   0  0  0  0  0  0  0  0  0  0  0  0
  -26.0250  -27.7876   21.1074 C   0  0  0  0  0  0  0  0  0  0  0  0
  -27.1729  -12.5263   20.5400 C   0  0  0  0  0  0  0  0  0  0  0  0
  -25.1025  -29.8847   21.6306 C   0  0  0  0  0  0  0  0  0  0  0  0
  -24.1340  -32.3553   20.7699 C   0  0  0  0  0  0  0  0  0  0  0  0
  -25.7097  -31.0622   22.0669 C   0  0  0  0  0  0  0  0  0  0  0  0
  -27.3996  -25.0826   18.1593 C   0  0  0  0  0  0  0  0  0  0  0  0
  -24.4508  -16.1787   18.2964 C   0  0  0  0  0  0  0  0  0  0  0  0
  -28.6473  -23.8470   16.8359 C   0  0  0  0  0  0  0  0  0  0  0  0
  -24.4921  -18.1303   16.8850 C   0  0  0  0  0  0  0  0  0  0  0  0
  -29.9504  -25.2522   18.4408 C   0  0  0  0  0  0  0  0  0  0  0  0
  -24.5711  -15.2081   19.4147 C   0  0  0  0  0  0  0  0  0  0  0  0
  -29.4482  -17.1272   18.7741 C   0  0  0  0  0  0  0  0  0  0  0  0
  -31.3225  -15.3320   16.8281 C   0  0  0  0  0  0  0  0  0  0  0  0
  -32.1829  -12.2334   15.6858 C   0  0  0  0  0  0  0  0  0  0  0  0
  -24.3999  -19.9835   15.1810 C   0  0  0  0  0  0  0  0  0  0  0  0
  -29.4864  -21.8659   20.6716 C   0  0  0  0  0  0  0  0  0  0  0  0
  -30.3578  -15.4175   20.3883 C   0  0  0  0  0  0  0  0  0  0  0  0
  -29.3635  -14.1606   17.9030 C   0  0  0  0  0  0  0  0  0  0  0  0
  -30.0651  -21.1795   19.4370 C   0  0  0  0  0  0  0  0  0  0  0  0
  -25.8225  -22.5673   13.1867 C   0  0  0  0  0  0  0  0  0  0  0  0
  -28.9946  -20.3482   18.7373 C   0  0  0  0  0  0  0  0  0  0  0  0
  -26.5152  -23.4732   14.2072 C   0  0  0  0  0  0  0  0  0  0  0  0
  -24.5133  -21.9978   13.7303 C   0  0  0  0  0  0  0  0  0  0  0  0
  -25.3156  -22.2250   16.0484 C   0  0  0  0  0  0  0  0  0  0  0  0
  -28.4701  -19.2381   19.6561 C   0  0  1  0  0  0  0  0  0  0  0  0
  -30.5094  -16.0946   19.0296 C   0  0  1  0  0  0  0  0  0  0  0  0
  -26.6711  -22.7706   15.5702 C   0  0  2  0  0  0  0  0  0  0  0  0
  -33.4792  -10.4938   14.4245 C   0  0  0  0  0  0  0  0  0  0  0  0
  -22.0729  -14.6451   21.8856 C   0  0  0  0  0  0  0  0  0  0  0  0
  -21.0459  -12.8220   20.5073 C   0  0  0  0  0  0  0  0  0  0  0  0
  -25.4648  -10.1337   18.8611 C   0  0  0  0  0  0  0  0  0  0  0  0
  -29.5331  -16.1982   14.5134 C   0  0  0  0  0  0  0  0  0  0  0  0
  -30.5004  -14.3289   13.1576 C   0  0  0  0  0  0  0  0  0  0  0  0
  -31.9773  -16.1610   13.9851 C   0  0  0  0  0  0  0  0  0  0  0  0
  -34.1009  -11.8818   17.9121 C   0  0  0  0  0  0  0  0  0  0  0  0
  -23.8489  -11.7813   19.8736 C   0  0  0  0  0  0  0  0  0  0  0  0
  -31.0818  -14.4556   15.6227 C   0  0  1  0  0  0  0  0  0  0  0  0
  -33.5345  -11.5679   15.4998 C   0  0  2  0  0  0  0  0  0  0  0  0
  -22.2897  -13.2472   21.2938 C   0  0  0  0  0  0  0  0  0  0  0  0
  -23.6028  -13.1823   20.4704 C   0  0  2  0  0  0  0  0  0  0  0  0
  -25.3064  -11.5268   19.4569 C   0  0  1  0  0  0  0  0  0  1  0  0
  -30.7606  -15.2807   14.3447 C   0  0  0  0  0  0  0  0  0  0  0  0
  -23.9973  -17.1210   16.2033 N   0  0  0  0  0  0  0  0  0  0  0  0
  -26.5251  -24.4224   17.3955 N   0  0  0  0  0  0  0  0  0  0  0  0
  -27.3143  -23.6794   16.6009 N   0  0  0  0  0  0  0  0  0  0  0  0
  -30.4582  -15.1450   17.9161 N   0  0  0  0  0  0  0  0  0  0  0  0
  -24.7391  -21.3437   15.0210 N   0  0  0  0  0  0  0  0  0  0  0  0
  -29.5798  -23.1760   16.1270 N   0  0  0  0  0  0  0  0  0  0  0  0
  -30.5464  -26.3942   17.8887 N   0  0  0  0  0  0  0  0  0  0  0  0
  -24.6899  -19.4613   16.4411 N   0  0  0  0  0  0  0  0  0  0  0  0
  -23.6323  -14.1894   19.4332 N   0  0  0  0  0  0  0  0  0  0  0  0
  -29.4123  -18.1411   19.7122 N   0  0  0  0  0  0  0  0  0  0  0  0
  -32.2557  -13.5978   15.5008 N   0  0  0  0  0  0  0  0  0  0  0  0
  -33.9801  -10.9353   16.7735 N   0  3  0  0  0  0  0  0  0  0  0  0
  -30.4995  -24.6830   19.4145 O   0  0  0  0  0  0  0  0  0  0  0  0
  -25.4559  -15.3643   20.2521 O   0  0  0  0  0  0  0  0  0  0  0  0
  -28.7171  -17.0133   17.7972 O   0  0  0  0  0  0  0  0  0  0  0  0
  -32.2479  -16.1474   16.8078 O   0  0  0  0  0  0  0  0  0  0  0  0
  -31.1637  -11.6052   15.9634 O   0  0  0  0  0  0  0  0  0  0  0  0
  -23.9149  -19.3228   14.2589 O   0  0  0  0  0  0  0  0  0  0  0  0
  -25.5825  -28.6575   22.0562 O   0  0  0  0  0  0  0  0  0  0  0  0
  -26.1695  -11.6084   20.5904 O   0  0  0  0  0  0  0  0  0  1  0  0
  -23.6699  -33.5414   20.3554 F   0  0  0  0  0  0  0  0  0  0  0  0
  -26.7593  -31.0129   22.8986 F   0  0  0  0  0  0  0  0  0  0  0  0
  -24.9514  -17.8056   18.5063 S   0  0  0  0  0  0  0  0  0  0  0  0
  1  2  1  0  0  0  0
  1  5  2  0  0  0  0
  2  6  2  0  0  0  0
  3  8  2  0  0  0  0
  3 16  1  0  0  0  0
  4  9  1  0  0  0  0
  4 16  2  0  0  0  0
  5 18  1  0  0  0  0
  6 20  1  0  0  0  0
  7 10  2  0  0  0  0
  7 19  1  0  0  0  0
  8 22  1  0  0  0  0
  9 22  2  0  0  0  0
 10 23  1  0  0  0  0
 11 12  2  0  0  0  0
 11 24  1  0  0  0  0
 12 25  1  0  0  0  0
 13 21  1  0  0  0  0
 13 23  2  0  0  0  0
 14 25  2  0  0  0  0
 14 26  1  0  0  0  0
 15 28  2  0  0  0  0
 15 64  1  0  0  0  0
 16 27  1  0  0  0  0
 17 27  1  0  0  0  0
 17 29  2  0  0  0  0
 17 31  1  0  0  0  0
 18 20  2  0  0  0  0
 18 37  1  0  0  0  0
 19 21  2  0  0  0  0
 19 38  1  0  0  0  0
 20 46  1  0  0  0  0
 21 39  1  0  0  0  0
 22 82  1  0  0  0  0
 23 83  1  0  0  0  0
 24 26  2  0  0  0  0
 24 82  1  0  0  0  0
 25 84  1  0  0  0  0
 26 85  1  0  0  0  0
 27 65  2  0  0  0  0
 28 32  1  0  0  0  0
 28 86  1  0  0  0  0
 29 66  1  0  0  0  0
 29 69  1  0  0  0  0
 30 64  2  0  0  0  0
 30 71  1  0  0  0  0
 30 86  1  0  0  0  0
 31 70  1  0  0  0  0
 31 76  2  0  0  0  0
 32 72  1  0  0  0  0
 32 77  2  0  0  0  0
 33 47  1  0  0  0  0
 33 73  1  0  0  0  0
 33 78  2  0  0  0  0
 34 58  1  0  0  0  0
 34 67  1  0  0  0  0
 34 79  2  0  0  0  0
 35 59  1  0  0  0  0
 35 74  1  0  0  0  0
 35 80  2  0  0  0  0
 36 68  1  0  0  0  0
 36 71  1  0  0  0  0
 36 81  2  0  0  0  0
 37 40  1  0  0  0  0
 38 47  1  0  0  0  0
 39 67  1  0  0  0  0
 40 42  1  0  0  0  0
 41 43  1  0  0  0  0
 41 44  1  0  0  0  0
 42 46  1  0  0  0  0
 43 48  1  0  0  0  0
 44 68  1  0  0  0  0
 45 48  1  0  0  0  0
 45 68  1  0  0  0  0
 46 73  1  0  0  0  0
 47 67  1  0  0  0  0
 48 66  1  0  0  0  0
 49 59  1  0  0  0  0
 50 60  1  0  0  0  0
 51 60  1  0  0  0  0
 52 62  1  0  0  0  0
 53 63  1  0  0  0  0
 54 63  1  0  0  0  0
 55 63  1  0  0  0  0
 56 75  1  0  0  0  0
 57 61  1  0  0  0  0
 57 62  1  0  0  0  0
 58 63  1  0  0  0  0
 58 74  1  0  0  0  0
 59 75  1  0  0  0  0
 60 61  1  0  0  0  0
 61 72  1  0  0  0  0
 62 83  1  0  0  0  0
 65 66  1  0  0  0  0
M  CHG  1  75   1
M  ISO  4  36 100  62 101  71 100  83 101
M  END
> <Batch ID>
0190

> <Smiles>
CNC(C)C(=O)NC(C(=O)N1Cc2cc([101O:1][101CH:1](C)CC(NC(=O)c3cnc([100NH:0][100C:0](=O)N4CCCC(n5nc(-c6ccc(Oc7ccc(F)cc7F)cc6)c(C(N)=O)c5N)C4)s3)C(C)C)ccc2CC1C(=O)NC1CCCc2ccccc21)C(C)(C)C

> <Shape>
0.213

> <Color>
0.057

> <Negative vol penalty>
0.000

$$$$

  -OEChem-04052305213D

 84 92  0     1  0  0  0  0  0999 V2000
  -19.7553   -9.0382   20.1605 C   0  0  0  0  0  0  0  0  0  0  0  0
  -19.8011  -10.3435   20.6393 C   0  0  0  0  0  0  0  0  0  0  0  0
  -25.4506  -31.8033   23.6422 C   0  0  0  0  0  0  0  0  0  0  0  0
  -26.3252  -31.5853   21.4007 C   0  0  0  0  0  0  0  0  0  0  0  0
  -20.9082   -8.2541   20.1655 C   0  0  0  0  0  0  0  0  0  0  0  0
  -20.9998  -10.8653   21.1245 C   0  0  0  0  0  0  0  0  0  0  0  0
  -22.9531  -16.6509   20.6579 C   0  0  0  0  0  0  0  0  0  0  0  0
  -25.7426  -33.1671   23.6236 C   0  0  0  0  0  0  0  0  0  0  0  0
  -26.6172  -32.9491   21.3820 C   0  0  0  0  0  0  0  0  0  0  0  0
  -22.9251  -17.7248   21.5465 C   0  0  0  0  0  0  0  0  0  0  0  0
  -24.3895  -35.9868   22.3385 C   0  0  0  0  0  0  0  0  0  0  0  0
  -23.4150  -36.8649   22.8125 C   0  0  0  0  0  0  0  0  0  0  0  0
  -25.1806  -17.2102   22.2300 C   0  0  0  0  0  0  0  0  0  0  0  0
  -24.9492  -37.6549   24.5034 C   0  0  0  0  0  0  0  0  0  0  0  0
  -29.4022  -20.7191   20.8794 C   0  0  0  0  0  0  0  0  0  0  0  0
  -25.7420  -31.0123   22.5308 C   0  0  0  0  0  0  0  0  0  0  0  0
  -24.2442  -28.9841   22.1427 C   0  0  0  0  0  0  0  0  0  0  0  0
  -22.1238   -8.7697   20.6420 C   0  0  0  0  0  0  0  0  0  0  0  0
  -24.0930  -15.8405   20.5565 C   0  0  0  0  0  0  0  0  0  0  0  0
  -22.1697  -10.0870   21.1372 C   0  0  0  0  0  0  0  0  0  0  0  0
  -25.2214  -16.1281   21.3376 C   0  0  0  0  0  0  0  0  0  0  0  0
  -26.3259  -33.7400   22.4934 C   0  0  0  0  0  0  0  0  0  0  0  0
  -24.0379  -18.0029   22.3348 C   0  0  0  0  0  0  0  0  0  0  0  0
  -25.6439  -35.9426   22.9470 C   0  0  0  0  0  0  0  0  0  0  0  0
  -23.6948  -37.6990   23.8949 C   0  0  0  0  0  0  0  0  0  0  0  0
  -25.9237  -36.7767   24.0294 C   0  0  0  0  0  0  0  0  0  0  0  0
  -25.4411  -29.6033   22.5497 C   0  0  0  0  0  0  0  0  0  0  0  0
  -28.8522  -21.9238   20.4944 C   0  0  0  0  0  0  0  0  0  0  0  0
  -24.4605  -27.6447   22.3565 C   0  0  0  0  0  0  0  0  0  0  0  0
  -27.2113  -21.2008   21.7572 C   0  0  0  0  0  0  0  0  0  0  0  0
  -23.0441  -29.5675   21.6182 C   0  0  0  0  0  0  0  0  0  0  0  0
  -24.7133  -12.7664   21.0751 C   0  0  0  0  0  0  0  0  0  0  0  0
  -27.6099  -13.5439   19.8393 C   0  0  0  0  0  0  0  0  0  0  0  0
  -24.9378  -21.9758   22.5133 C   0  0  0  0  0  0  0  0  0  0  0  0
  -29.9365  -15.9594   19.2076 C   0  0  0  0  0  0  0  0  0  0  0  0
  -29.4251  -24.3082   22.6239 C   0  0  0  0  0  0  0  0  0  0  0  0
  -23.3328   -7.8686   20.6714 C   0  0  0  0  0  0  0  0  0  0  0  0
  -24.1169  -14.7020   19.5738 C   0  0  0  0  0  0  0  0  0  0  0  0
  -26.4771  -15.3010   21.2516 C   0  0  0  0  0  0  0  0  0  0  0  0
  -24.6485   -8.6204   20.8551 C   0  0  0  0  0  0  0  0  0  0  0  0
  -26.9373  -24.6506   25.1478 C   0  0  0  0  0  0  0  0  0  0  0  0
  -24.5249   -9.6466   21.9769 C   0  0  0  0  0  0  0  0  0  0  0  0
  -26.1637  -25.9029   24.7314 C   0  0  0  0  0  0  0  0  0  0  0  0
  -28.4278  -24.7802   24.8418 C   0  0  0  0  0  0  0  0  0  0  0  0
  -27.9713  -26.3863   23.0292 C   0  0  0  0  0  0  0  0  0  0  0  0
  -23.4568  -10.6968   21.6486 C   0  0  1  0  0  0  0  0  0  0  0  0
  -25.1453  -13.6312   19.9248 C   0  0  1  0  0  0  0  0  0  0  0  0
  -26.4551  -26.2808   23.2667 C   0  0  2  0  0  0  0  0  0  0  0  0
  -32.2203  -16.2844   18.2196 C   0  0  0  0  0  0  0  0  0  0  0  0
  -28.8635  -12.3383   22.3463 C   0  0  0  0  0  0  0  0  0  0  0  0
  -30.9936  -13.5180   21.7641 C   0  0  0  0  0  0  0  0  0  0  0  0
  -30.0602  -11.7971   20.2181 C   0  0  0  0  0  0  0  0  0  0  0  0
  -28.9034  -17.7972   17.1305 C   0  0  0  0  0  0  0  0  0  0  0  0
  -29.4880  -22.9173   19.6065 C   0  0  0  0  0  0  0  0  0  0  0  0
  -30.3425  -23.9644   20.3437 C   0  0  0  0  0  0  0  0  0  0  0  0
  -23.1995  -20.1680   22.8499 C   0  0  0  0  0  0  0  0  0  1  0  0
  -28.9158  -14.0435   20.4084 C   0  0  1  0  0  0  0  0  0  0  0  0
  -23.8061  -21.4577   23.3928 C   0  0  2  0  0  0  0  0  0  0  0  0
  -30.7230  -16.2971   17.9538 C   0  0  2  0  0  0  0  0  0  0  0  0
  -29.6841  -12.9388   21.1875 C   0  0  0  0  0  0  0  0  0  0  0  0
  -26.3504  -28.7291   22.9890 N   0  0  0  0  0  0  0  0  0  0  0  0
  -27.5958  -22.2016   20.9964 N   0  0  0  0  0  0  0  0  0  0  0  0
  -25.7246  -27.5470   22.8593 N   0  0  0  0  0  0  0  0  0  0  0  0
  -26.4491  -14.1948   20.2805 N   0  0  0  0  0  0  0  0  0  0  0  0
  -28.6356  -25.1384   23.4366 N   0  0  0  0  0  0  0  0  0  0  0  0
  -23.6909  -26.5529   22.1616 N   0  0  0  0  0  0  0  0  0  0  0  0
  -22.9904  -30.9594   21.4627 N   0  0  0  0  0  0  0  0  0  0  0  0
  -25.9939  -21.0707   22.4668 N   0  0  0  0  0  0  0  0  0  0  0  0
  -23.9716  -11.6621   20.7011 N   0  0  0  0  0  0  0  0  0  0  0  0
  -29.6586  -14.6112   19.2885 N   0  0  0  0  0  0  0  0  0  0  0  0
  -29.5658  -24.7170   21.3034 N   0  0  0  0  0  0  0  0  0  0  0  0
  -22.7294  -22.4829   23.5134 N   0  3  0  0  0  0  0  0  0  0  0  0
  -30.3458  -17.6496   17.4544 N   0  3  0  0  0  0  0  0  0  0  0  0
  -22.0428  -28.8765   21.3123 O   0  0  0  0  0  0  0  0  0  0  0  0
  -25.0306  -13.0772   22.2171 O   0  0  0  0  0  0  0  0  0  0  0  0
  -27.6200  -12.6151   19.0276 O   0  0  0  0  0  0  0  0  0  0  0  0
  -24.8639  -23.0613   21.9450 O   0  0  0  0  0  0  0  0  0  0  0  0
  -29.6053  -16.8062   20.0345 O   0  0  0  0  0  0  0  0  0  0  0  0
  -29.9603  -23.2761   23.0427 O   0  0  0  0  0  0  0  0  0  0  0  0
  -26.6107  -35.0708   22.4748 O   0  0  0  0  0  0  0  0  0  0  0  0
  -24.0131  -19.0502   23.2034 O   0  0  0  0  0  0  0  0  0  1  0  0
  -22.7593  -38.5433   24.3490 F   0  0  0  0  0  0  0  0  0  0  0  0
  -27.1274  -36.7396   24.6173 F   0  0  0  0  0  0  0  0  0  0  0  0
  -28.3114  -19.8930   21.9135 S   0  0  0  0  0  0  0  0  0  0  0  0
  1  2  1  0  0  0  0
  1  5  2  0  0  0  0
  2  6  2  0  0  0  0
  3  8  2  0  0  0  0
  3 16  1  0  0  0  0
  4  9  1  0  0  0  0
  4 16  2  0  0  0  0
  5 18  1  0  0  0  0
  6 20  1  0  0  0  0
  7 10  2  0  0  0  0
  7 19  1  0  0  0  0
  8 22  1  0  0  0  0
  9 22  2  0  0  0  0
 10 23  1  0  0  0  0
 11 12  2  0  0  0  0
 11 24  1  0  0  0  0
 12 25  1  0  0  0  0
 13 21  1  0  0  0  0
 13 23  2  0  0  0  0
 14 25  2  0  0  0  0
 14 26  1  0  0  0  0
 15 28  2  0  0  0  0
 15 84  1  0  0  0  0
 16 27  1  0  0  0  0
 17 27  1  0  0  0  0
 17 29  2  0  0  0  0
 17 31  1  0  0  0  0
 18 20  2  0  0  0  0
 18 37  1  0  0  0  0
 19 21  2  0  0  0  0
 19 38  1  0  0  0  0
 20 46  1  0  0  0  0
 21 39  1  0  0  0  0
 22 80  1  0  0  0  0
 23 81  1  0  0  0  0
 24 26  2  0  0  0  0
 24 80  1  0  0  0  0
 25 82  1  0  0  0  0
 26 83  1  0  0  0  0
 27 61  2  0  0  0  0
 28 54  1  0  0  0  0
 28 62  1  0  0  0  0
 29 63  1  0  0  0  0
 29 66  1  0  0  0  0
 30 62  2  0  0  0  0
 30 68  1  0  0  0  0
 30 84  1  0  0  0  0
 31 67  1  0  0  0  0
 31 74  2  0  0  0  0
 32 47  1  0  0  0  0
 32 69  1  0  0  0  0
 32 75  2  0  0  0  0
 33 57  1  0  0  0  0
 33 64  1  0  0  0  0
 33 76  2  0  0  0  0
 34 58  1  0  0  0  0
 34 68  1  0  0  0  0
 34 77  2  0  0  0  0
 35 59  1  0  0  0  0
 35 70  1  0  0  0  0
 35 78  2  0  0  0  0
 36 65  1  0  0  0  0
 36 71  1  0  0  0  0
 36 79  2  0  0  0  0
 37 40  1  0  0  0  0
 38 47  1  0  0  0  0
 39 64  1  0  0  0  0
 40 42  1  0  0  0  0
 41 43  1  0  0  0  0
 41 44  1  0  0  0  0
 42 46  1  0  0  0  0
 43 48  1  0  0  0  0
 44 65  1  0  0  0  0
 45 48  1  0  0  0  0
 45 65  1  0  0  0  0
 46 69  1  0  0  0  0
 47 64  1  0  0  0  0
 48 63  1  0  0  0  0
 49 59  1  0  0  0  0
 50 60  1  0  0  0  0
 51 60  1  0  0  0  0
 52 60  1  0  0  0  0
 53 73  1  0  0  0  0
 54 55  1  0  0  0  0
 55 71  1  0  0  0  0
 56 58  1  0  0  0  0
 56 81  1  0  0  0  0
 57 60  1  0  0  0  0
 57 70  1  0  0  0  0
 58 72  1  0  0  0  0
 59 73  1  0  0  0  0
 61 63  1  0  0  0  0
M  CHG  2  72   1  73   1
M  ISO  4  36 100  56 101  71 100  81 101
M  END
> <Batch ID>
0190

> <Smiles>
CNC(C)C(=O)NC(C(=O)N1Cc2cc([101O:1][101CH2:1]C(N)C(=O)Nc3nc(CC[100NH:0][100C:0](=O)N4CCCC(n5nc(-c6ccc(Oc7ccc(F)cc7F)cc6)c(C(N)=O)c5N)C4)cs3)ccc2CC1C(=O)NC1CCCc2ccccc21)C(C)(C)C

> <Shape>
0.271

> <Color>
0.039

> <Negative vol penalty>
0.000

$$$$

  -OEChem-04052305213D

 88 96  0     1  0  0  0  0  0999 V2000
  -26.2514  -19.5424   27.9233 C   0  0  0  0  0  0  0  0  0  0  0  0
  -25.5094  -19.2735   26.7776 C   0  0  0  0  0  0  0  0  0  0  0  0
  -30.6138  -19.8644   19.3715 C   0  0  0  0  0  0  0  0  0  0  0  0
  -28.6920  -20.2523   20.7834 C   0  0  0  0  0  0  0  0  0  0  0  0
  -25.9129  -20.6254   28.7334 C   0  0  0  0  0  0  0  0  0  0  0  0
  -24.4277  -20.0870   26.4419 C   0  0  0  0  0  0  0  0  0  0  0  0
  -24.3613  -21.3001   21.5257 C   0  0  0  0  0  0  0  0  0  0  0  0
  -30.4501  -21.1269   18.8017 C   0  0  0  0  0  0  0  0  0  0  0  0
  -28.5283  -21.5149   20.2137 C   0  0  0  0  0  0  0  0  0  0  0  0
  -23.8987  -20.3307   20.6369 C   0  0  0  0  0  0  0  0  0  0  0  0
  -27.8206  -24.9838   19.3866 C   0  0  0  0  0  0  0  0  0  0  0  0
  -27.5679  -26.0550   20.2435 C   0  0  0  0  0  0  0  0  0  0  0  0
  -21.7549  -21.4339   20.5586 C   0  0  0  0  0  0  0  0  0  0  0  0
  -29.6694  -25.6530   21.3657 C   0  0  0  0  0  0  0  0  0  0  0  0
  -21.1285  -12.9259   19.6658 C   0  0  0  0  0  0  0  0  0  0  0  0
  -29.7347  -19.4270   20.3623 C   0  0  0  0  0  0  0  0  0  0  0  0
  -30.6696  -17.7941   22.0849 C   0  0  0  0  0  0  0  0  0  0  0  0
  -24.8324  -21.4583   28.4023 C   0  0  0  0  0  0  0  0  0  0  0  0
  -23.5192  -22.3394   21.9469 C   0  0  0  0  0  0  0  0  0  0  0  0
  -24.0736  -21.1814   27.2491 C   0  0  0  0  0  0  0  0  0  0  0  0
  -22.2100  -22.4167   21.4509 C   0  0  0  0  0  0  0  0  0  0  0  0
  -29.4074  -21.9522   19.2228 C   0  0  0  0  0  0  0  0  0  0  0  0
  -22.5945  -20.3958   20.1554 C   0  0  0  0  0  0  0  0  0  0  0  0
  -28.9977  -24.2471   19.5193 C   0  0  0  0  0  0  0  0  0  0  0  0
  -28.4923  -26.3896   21.2331 C   0  0  0  0  0  0  0  0  0  0  0  0
  -29.9221  -24.5817   20.5088 C   0  0  0  0  0  0  0  0  0  0  0  0
  -29.9030  -18.1226   20.9509 C   0  0  0  0  0  0  0  0  0  0  0  0
  -21.4672  -14.2223   19.9922 C   0  0  0  0  0  0  0  0  0  0  0  0
  -30.5027  -16.4387   22.2315 C   0  0  0  0  0  0  0  0  0  0  0  0
  -23.0234  -13.1781   21.1314 C   0  0  0  0  0  0  0  0  0  0  0  0
  -31.4618  -18.6387   22.9304 C   0  0  0  0  0  0  0  0  0  0  0  0
  -22.3454  -23.2803   24.7469 C   0  0  0  0  0  0  0  0  0  0  0  0
  -21.2248  -25.7725   22.9989 C   0  0  0  0  0  0  0  0  0  0  0  0
  -20.2935  -26.9846   19.9477 C   0  0  0  0  0  0  0  0  0  0  0  0
  -26.1761  -12.6578   20.5473 C   0  0  0  0  0  0  0  0  0  0  0  0
  -24.4754  -22.5892   29.3342 C   0  0  0  0  0  0  0  0  0  0  0  0
  -24.0417  -23.3923   22.8853 C   0  0  0  0  0  0  0  0  0  0  0  0
  -21.2725  -23.5237   21.8562 C   0  0  0  0  0  0  0  0  0  0  0  0
  -23.5459  -23.6249   28.7070 C   0  0  0  0  0  0  0  0  0  0  0  0
  -29.6282  -12.4778   19.6944 C   0  0  0  0  0  0  0  0  0  0  0  0
  -22.3932  -22.9380   27.9815 C   0  0  0  0  0  0  0  0  0  0  0  0
  -30.1592  -13.8744   20.0220 C   0  0  0  0  0  0  0  0  0  0  0  0
  -28.2079  -12.5307   19.1358 C   0  0  0  0  0  0  0  0  0  0  0  0
  -27.7701  -14.6568   20.3029 C   0  0  0  0  0  0  0  0  0  0  0  0
  -22.9086  -22.0555   26.8382 C   0  0  1  0  0  0  0  0  0  0  0  0
  -22.9355  -24.1162   23.6467 C   0  0  1  0  0  0  0  0  0  0  0  0
  -29.1785  -14.6504   20.9216 C   0  0  2  0  0  0  0  0  0  0  0  0
  -22.4980  -15.0263   25.6923 C   0  0  0  0  0  0  0  0  0  0  0  0
  -19.3845  -29.0449   18.8403 C   0  0  0  0  0  0  0  0  0  0  0  0
  -23.0058  -11.3740   24.4528 C   0  0  0  0  0  0  0  0  0  0  0  0
  -21.0161  -17.4758   17.4469 C   0  0  0  0  0  0  0  0  0  0  0  0
  -18.4543  -25.1463   24.1135 C   0  0  0  0  0  0  0  0  0  0  0  0
  -17.4789  -26.5659   22.2964 C   0  0  0  0  0  0  0  0  0  0  0  0
  -19.0025  -27.5832   23.9894 C   0  0  0  0  0  0  0  0  0  0  0  0
  -22.6869  -27.2572   18.2283 C   0  0  0  0  0  0  0  0  0  0  0  0
  -22.7474  -13.5250   25.7058 C   0  0  0  0  0  0  0  0  0  0  0  0
  -21.1296  -16.6909   19.8596 C   0  0  0  0  0  0  0  0  0  0  0  0
  -20.7464  -19.1475   19.3295 C   0  0  0  0  0  0  0  0  0  1  0  0
  -24.1891  -12.9340   22.0083 C   0  0  2  0  0  0  0  0  0  0  0  0
  -19.9608  -26.0506   22.2217 C   0  0  1  0  0  0  0  0  0  0  0  0
  -20.6381  -28.2767   19.2291 C   0  0  2  0  0  0  0  0  0  0  0  0
  -22.9034  -12.8990   24.2996 C   0  0  1  0  0  0  0  0  0  0  0  0
  -20.5161  -17.6997   18.8784 C   0  0  1  0  0  0  0  0  0  0  0  0
  -24.0573  -13.5150   23.4575 C   0  0  1  0  0  0  0  0  0  0  0  0
  -18.7410  -26.3144   23.1489 C   0  0  0  0  0  0  0  0  0  0  0  0
  -29.2943  -17.0613   20.4149 N   0  0  0  0  0  0  0  0  0  0  0  0
  -22.5533  -14.3689   20.8328 N   0  0  0  0  0  0  0  0  0  0  0  0
  -29.6785  -16.0527   21.2156 N   0  0  0  0  0  0  0  0  0  0  0  0
  -21.8280  -24.5258   22.7807 N   0  0  0  0  0  0  0  0  0  0  0  0
  -27.3279  -13.2789   20.0368 N   0  0  0  0  0  0  0  0  0  0  0  0
  -30.9819  -15.5514   23.1288 N   0  0  0  0  0  0  0  0  0  0  0  0
  -31.5239  -20.0079   22.6375 N   0  0  0  0  0  0  0  0  0  0  0  0
  -20.7812  -15.3308   19.5225 N   0  0  0  0  0  0  0  0  0  0  0  0
  -23.2632  -22.8672   25.6937 N   0  0  0  0  0  0  0  0  0  0  0  0
  -20.2723  -27.1513   21.3162 N   0  0  0  0  0  0  0  0  0  0  0  0
  -25.4007  -13.4353   21.3988 N   0  0  0  0  0  0  0  0  0  0  0  0
  -25.3589  -13.3374   24.1796 N   0  3  0  0  0  0  0  0  0  0  0  0
  -21.4162  -27.9892   17.9910 N   0  3  0  0  0  0  0  0  0  0  0  0
  -32.1090  -18.1898   23.9067 O   0  0  0  0  0  0  0  0  0  0  0  0
  -21.1458  -23.0299   24.7384 O   0  0  0  0  0  0  0  0  0  0  0  0
  -21.6647  -26.6327   23.7659 O   0  0  0  0  0  0  0  0  0  0  0  0
  -20.0624  -25.9335   19.3541 O   0  0  0  0  0  0  0  0  0  0  0  0
  -25.8648  -11.4948   20.2692 O   0  0  0  0  0  0  0  0  0  0  0  0
  -29.2475  -23.1844   18.6673 O   0  0  0  0  0  0  0  0  0  0  0  0
  -22.1403  -19.4505   19.2883 O   0  0  0  0  0  0  0  0  0  1  0  0
  -28.2502  -27.4192   22.0549 F   0  0  0  0  0  0  0  0  0  0  0  0
  -31.0552  -23.8785   20.6404 F   0  0  0  0  0  0  0  0  0  0  0  0
  -22.2080  -11.8380   20.4355 S   0  0  0  0  0  0  0  0  0  0  0  0
  1  2  1  0  0  0  0
  1  5  2  0  0  0  0
  2  6  2  0  0  0  0
  3  8  2  0  0  0  0
  3 16  1  0  0  0  0
  4  9  1  0  0  0  0
  4 16  2  0  0  0  0
  5 18  1  0  0  0  0
  6 20  1  0  0  0  0
  7 10  2  0  0  0  0
  7 19  1  0  0  0  0
  8 22  1  0  0  0  0
  9 22  2  0  0  0  0
 10 23  1  0  0  0  0
 11 12  2  0  0  0  0
 11 24  1  0  0  0  0
 12 25  1  0  0  0  0
 13 21  1  0  0  0  0
 13 23  2  0  0  0  0
 14 25  2  0  0  0  0
 14 26  1  0  0  0  0
 15 28  2  0  0  0  0
 15 88  1  0  0  0  0
 16 27  1  0  0  0  0
 17 27  1  0  0  0  0
 17 29  2  0  0  0  0
 17 31  1  0  0  0  0
 18 20  2  0  0  0  0
 18 36  1  0  0  0  0
 19 21  2  0  0  0  0
 19 37  1  0  0  0  0
 20 45  1  0  0  0  0
 21 38  1  0  0  0  0
 22 84  1  0  0  0  0
 23 85  1  0  0  0  0
 24 26  2  0  0  0  0
 24 84  1  0  0  0  0
 25 86  1  0  0  0  0
 26 87  1  0  0  0  0
 27 66  2  0  0  0  0
 28 67  1  0  0  0  0
 28 73  1  0  0  0  0
 29 68  1  0  0  0  0
 29 71  1  0  0  0  0
 30 59  1  0  0  0  0
 30 67  2  0  0  0  0
 30 88  1  0  0  0  0
 31 72  1  0  0  0  0
 31 79  2  0  0  0  0
 32 46  1  0  0  0  0
 32 74  1  0  0  0  0
 32 80  2  0  0  0  0
 33 60  1  0  0  0  0
 33 69  1  0  0  0  0
 33 81  2  0  0  0  0
 34 61  1  0  0  0  0
 34 75  1  0  0  0  0
 34 82  2  0  0  0  0
 35 70  1  0  0  0  0
 35 76  1  0  0  0  0
 35 83  2  0  0  0  0
 36 39  1  0  0  0  0
 37 46  1  0  0  0  0
 38 69  1  0  0  0  0
 39 41  1  0  0  0  0
 40 42  1  0  0  0  0
 40 43  1  0  0  0  0
 41 45  1  0  0  0  0
 42 47  1  0  0  0  0
 43 70  1  0  0  0  0
 44 47  1  0  0  0  0
 44 70  1  0  0  0  0
 45 74  1  0  0  0  0
 46 69  1  0  0  0  0
 47 68  1  0  0  0  0
 48 56  1  0  0  0  0
 49 61  1  0  0  0  0
 50 62  1  0  0  0  0
 51 63  1  0  0  0  0
 52 65  1  0  0  0  0
 53 65  1  0  0  0  0
 54 65  1  0  0  0  0
 55 78  1  0  0  0  0
 56 62  1  0  0  0  0
 57 63  1  0  0  0  0
 57 73  1  0  0  0  0
 58 63  1  0  0  0  0
 58 85  1  0  0  0  0
 59 64  1  0  0  0  0
 59 76  1  0  0  0  0
 60 65  1  0  0  0  0
 60 75  1  0  0  0  0
 61 78  1  0  0  0  0
 62 64  1  0  0  0  0
 64 77  1  0  0  0  0
 66 68  1  0  0  0  0
M  CHG  2  77   1  78   1
M  ISO  4  35 100  58 101  76 100  85 101
M  END
> <Batch ID>
0190

> <Smiles>
CCC(C)C(N)C([100NH:0][100C:0](=O)N1CCCC(n2nc(-c3ccc(Oc4ccc(F)cc4F)cc3)c(C(N)=O)c2N)C1)c1nc(NCC(C)[101CH2:1][101O:1]c2ccc3c(c2)CN(C(=O)C(NC(=O)C(C)NC)C(C)(C)C)C(C(=O)NC2CCCc4ccccc42)C3)cs1

> <Shape>
0.199

> <Color>
0.056

> <Negative vol penalty>
0.000

$$$$

  -OEChem-04052305213D

 83 91  0     1  0  0  0  0  0999 V2000
  -27.4566  -33.9058   26.0581 C   0  0  0  0  0  0  0  0  0  0  0  0
  -27.6966  -32.5478   25.8744 C   0  0  0  0  0  0  0  0  0  0  0  0
  -26.8940  -12.8263   21.0538 C   0  0  0  0  0  0  0  0  0  0  0  0
  -26.7956  -13.1924   18.6677 C   0  0  0  0  0  0  0  0  0  0  0  0
  -26.2332  -34.4543   25.6756 C   0  0  0  0  0  0  0  0  0  0  0  0
  -26.7128  -31.7373   25.3090 C   0  0  0  0  0  0  0  0  0  0  0  0
  -28.5660  -28.5963   21.7956 C   0  0  0  0  0  0  0  0  0  0  0  0
  -26.3325  -11.5610   20.8828 C   0  0  0  0  0  0  0  0  0  0  0  0
  -26.2341  -11.9270   18.4967 C   0  0  0  0  0  0  0  0  0  0  0  0
  -29.2336  -27.4586   22.2471 C   0  0  0  0  0  0  0  0  0  0  0  0
  -23.2623  -10.2492   20.3560 C   0  0  0  0  0  0  0  0  0  0  0  0
  -22.2377   -9.8729   21.2244 C   0  0  0  0  0  0  0  0  0  0  0  0
  -27.2513  -26.1436   21.8460 C   0  0  0  0  0  0  0  0  0  0  0  0
  -23.5651   -8.0007   21.9794 C   0  0  0  0  0  0  0  0  0  0  0  0
  -29.0940  -23.9276   16.5060 C   0  0  0  0  0  0  0  0  0  0  0  0
  -27.1254  -13.6421   19.9462 C   0  0  0  0  0  0  0  0  0  0  0  0
  -29.0731  -15.2808   20.1164 C   0  0  0  0  0  0  0  0  0  0  0  0
  -25.2375  -33.6520   25.0964 C   0  0  0  0  0  0  0  0  0  0  0  0
  -27.2304  -28.5181   21.3755 C   0  0  0  0  0  0  0  0  0  0  0  0
  -25.4744  -32.2754   24.9196 C   0  0  0  0  0  0  0  0  0  0  0  0
  -26.5699  -27.2813   21.3873 C   0  0  0  0  0  0  0  0  0  0  0  0
  -26.0026  -11.1113   19.6043 C   0  0  0  0  0  0  0  0  0  0  0  0
  -28.5754  -26.2326   22.2751 C   0  0  0  0  0  0  0  0  0  0  0  0
  -24.4384   -9.5012   20.2992 C   0  0  0  0  0  0  0  0  0  0  0  0
  -22.3891   -8.7487   22.0361 C   0  0  0  0  0  0  0  0  0  0  0  0
  -24.5898   -8.3770   21.1109 C   0  0  0  0  0  0  0  0  0  0  0  0
  -27.7048  -14.9495   20.1222 C   0  0  0  0  0  0  0  0  0  0  0  0
  -28.3995  -23.0491   17.3110 C   0  0  0  0  0  0  0  0  0  0  0  0
  -29.0985  -16.6385   20.3228 C   0  0  0  0  0  0  0  0  0  0  0  0
  -29.9611  -23.6364   18.7345 C   0  0  0  0  0  0  0  0  0  0  0  0
  -30.2186  -14.4368   19.9401 C   0  0  0  0  0  0  0  0  0  0  0  0
  -24.4938  -29.8103   22.3477 C   0  0  0  0  0  0  0  0  0  0  0  0
  -23.3198  -28.3689   19.6894 C   0  0  0  0  0  0  0  0  0  0  0  0
  -23.6296  -25.8959   17.3582 C   0  0  0  0  0  0  0  0  0  0  0  0
  -26.1213  -21.4193   18.9832 C   0  0  0  0  0  0  0  0  0  0  0  0
  -23.9133  -34.2809   24.7423 C   0  0  0  0  0  0  0  0  0  0  0  0
  -26.5327  -29.7494   20.8661 C   0  0  0  0  0  0  0  0  0  0  0  0
  -25.1425  -27.1402   20.9278 C   0  0  0  0  0  0  0  0  0  0  0  0
  -23.0636  -33.4255   23.8061 C   0  0  0  0  0  0  0  0  0  0  0  0
  -25.9365  -19.9350   22.2142 C   0  0  0  0  0  0  0  0  0  0  0  0
  -23.0342  -31.9776   24.2853 C   0  0  0  0  0  0  0  0  0  0  0  0
  -26.5009  -18.5289   22.0036 C   0  0  0  0  0  0  0  0  0  0  0  0
  -25.1228  -20.4028   21.0096 C   0  0  0  0  0  0  0  0  0  0  0  0
  -26.3938  -18.9197   19.5067 C   0  0  0  0  0  0  0  0  0  0  0  0
  -24.4414  -31.3683   24.2869 C   0  0  1  0  0  0  0  0  0  0  0  0
  -25.0125  -29.6512   20.9465 C   0  0  1  0  0  0  0  0  0  0  0  0
  -27.2686  -18.4265   20.6719 C   0  0  2  0  0  0  0  0  0  0  0  0
  -22.4959  -24.9468   15.3305 C   0  0  0  0  0  0  0  0  0  0  0  0
  -30.8661  -21.5198   20.8972 C   0  0  0  0  0  0  0  0  0  0  0  0
  -21.2231  -27.0591   21.4778 C   0  0  0  0  0  0  0  0  0  0  0  0
  -20.7540  -25.4420   19.6250 C   0  0  0  0  0  0  0  0  0  0  0  0
  -20.3546  -27.8802   19.2810 C   0  0  0  0  0  0  0  0  0  0  0  0
  -25.9756  -26.4536   15.6423 C   0  0  0  0  0  0  0  0  0  0  0  0
  -27.1921  -22.2936   16.9221 C   0  0  0  0  0  0  0  0  0  0  0  0
  -30.6363  -25.0703   22.5149 C   0  0  0  0  0  0  0  0  0  1  0  0
  -22.7281  -27.0149   19.3804 C   0  0  1  0  0  0  0  0  0  0  0  0
  -23.5430  -25.9234   15.8429 C   0  0  2  0  0  0  0  0  0  0  0  0
  -30.4028  -22.9610   21.0955 C   0  0  1  0  0  0  0  0  0  0  0  0
  -31.0543  -23.6129   22.3262 C   0  0  1  0  0  0  0  0  0  0  0  0
  -21.2912  -26.8517   19.9516 C   0  0  0  0  0  0  0  0  0  0  0  0
  -26.9181  -16.0112   20.3170 N   0  0  0  0  0  0  0  0  0  0  0  0
  -28.8955  -22.8805   18.5890 N   0  0  0  0  0  0  0  0  0  0  0  0
  -27.7947  -17.0228   20.4356 N   0  0  0  0  0  0  0  0  0  0  0  0
  -24.5012  -28.3742   20.4444 N   0  0  0  0  0  0  0  0  0  0  0  0
  -25.9086  -20.2817   19.7792 N   0  0  0  0  0  0  0  0  0  0  0  0
  -30.1086  -17.5291   20.4170 N   0  0  0  0  0  0  0  0  0  0  0  0
  -30.0132  -13.0651   19.7389 N   0  0  0  0  0  0  0  0  0  0  0  0
  -30.7099  -23.7119   19.8943 N   0  0  0  0  0  0  0  0  0  0  0  0
  -24.8382  -31.0092   22.9423 N   0  0  0  0  0  0  0  0  0  0  0  0
  -22.8181  -26.8507   17.9336 N   0  0  0  0  0  0  0  0  0  0  0  0
  -26.8820  -21.2184   17.8379 N   0  0  0  0  0  0  0  0  0  0  0  0
  -24.8578  -25.5606   15.2422 N   0  3  0  0  0  0  0  0  0  0  0  0
  -31.3903  -14.8832   19.9768 O   0  0  0  0  0  0  0  0  0  0  0  0
  -23.8292  -28.9125   22.8515 O   0  0  0  0  0  0  0  0  0  0  0  0
  -22.7585  -29.3842   19.2702 O   0  0  0  0  0  0  0  0  0  0  0  0
  -24.3427  -25.1039   17.9703 O   0  0  0  0  0  0  0  0  0  0  0  0
  -25.6716  -22.5328   19.2747 O   0  0  0  0  0  0  0  0  0  0  0  0
  -32.4766  -23.5471   22.2094 O   0  0  0  0  0  0  0  0  0  0  0  0
  -25.4550   -9.8765   19.4371 O   0  0  0  0  0  0  0  0  0  0  0  0
  -29.2244  -25.1207   22.7159 O   0  0  0  0  0  0  0  0  0  1  0  0
  -21.4057   -8.3884   22.8711 F   0  0  0  0  0  0  0  0  0  0  0  0
  -25.7177   -7.6551   21.0616 F   0  0  0  0  0  0  0  0  0  0  0  0
  -30.4228  -24.5763   17.3749 S   0  0  0  0  0  0  0  0  0  0  0  0
  1  2  1  0  0  0  0
  1  5  2  0  0  0  0
  2  6  2  0  0  0  0
  3  8  2  0  0  0  0
  3 16  1  0  0  0  0
  4  9  1  0  0  0  0
  4 16  2  0  0  0  0
  5 18  1  0  0  0  0
  6 20  1  0  0  0  0
  7 10  2  0  0  0  0
  7 19  1  0  0  0  0
  8 22  1  0  0  0  0
  9 22  2  0  0  0  0
 10 23  1  0  0  0  0
 11 12  2  0  0  0  0
 11 24  1  0  0  0  0
 12 25  1  0  0  0  0
 13 21  1  0  0  0  0
 13 23  2  0  0  0  0
 14 25  2  0  0  0  0
 14 26  1  0  0  0  0
 15 28  2  0  0  0  0
 15 83  1  0  0  0  0
 16 27  1  0  0  0  0
 17 27  1  0  0  0  0
 17 29  2  0  0  0  0
 17 31  1  0  0  0  0
 18 20  2  0  0  0  0
 18 36  1  0  0  0  0
 19 21  2  0  0  0  0
 19 37  1  0  0  0  0
 20 45  1  0  0  0  0
 21 38  1  0  0  0  0
 22 79  1  0  0  0  0
 23 80  1  0  0  0  0
 24 26  2  0  0  0  0
 24 79  1  0  0  0  0
 25 81  1  0  0  0  0
 26 82  1  0  0  0  0
 27 61  2  0  0  0  0
 28 54  1  0  0  0  0
 28 62  1  0  0  0  0
 29 63  1  0  0  0  0
 29 66  1  0  0  0  0
 30 62  2  0  0  0  0
 30 68  1  0  0  0  0
 30 83  1  0  0  0  0
 31 67  1  0  0  0  0
 31 73  2  0  0  0  0
 32 46  1  0  0  0  0
 32 69  1  0  0  0  0
 32 74  2  0  0  0  0
 33 56  1  0  0  0  0
 33 64  1  0  0  0  0
 33 75  2  0  0  0  0
 34 57  1  0  0  0  0
 34 70  1  0  0  0  0
 34 76  2  0  0  0  0
 35 65  1  0  0  0  0
 35 71  1  0  0  0  0
 35 77  2  0  0  0  0
 36 39  1  0  0  0  0
 37 46  1  0  0  0  0
 38 64  1  0  0  0  0
 39 41  1  0  0  0  0
 40 42  1  0  0  0  0
 40 43  1  0  0  0  0
 41 45  1  0  0  0  0
 42 47  1  0  0  0  0
 43 65  1  0  0  0  0
 44 47  1  0  0  0  0
 44 65  1  0  0  0  0
 45 69  1  0  0  0  0
 46 64  1  0  0  0  0
 47 63  1  0  0  0  0
 48 57  1  0  0  0  0
 49 58  1  0  0  0  0
 50 60  1  0  0  0  0
 51 60  1  0  0  0  0
 52 60  1  0  0  0  0
 53 72  1  0  0  0  0
 54 71  1  0  0  0  0
 55 59  1  0  0  0  0
 55 80  1  0  0  0  0
 56 60  1  0  0  0  0
 56 70  1  0  0  0  0
 57 72  1  0  0  0  0
 58 59  1  0  0  0  0
 58 68  1  0  0  0  0
 59 78  1  0  0  0  0
 61 63  1  0  0  0  0
M  CHG  1  72   1
M  ISO  4  35 100  55 101  71 100  80 101
M  END
> <Batch ID>
0190

> <Smiles>
CNC(C)C(=O)NC(C(=O)N1Cc2cc([101O:1][101CH2:1]C(O)C(C)Nc3nc(C[100NH:0][100C:0](=O)N4CCCC(n5nc(-c6ccc(Oc7ccc(F)cc7F)cc6)c(C(N)=O)c5N)C4)cs3)ccc2CC1C(=O)NC1CCCc2ccccc21)C(C)(C)C

> <Shape>
0.259

> <Color>
0.088

> <Negative vol penalty>
0.000

$$$$

  -OEChem-04052305213D

 83 91  0     1  0  0  0  0  0999 V2000
  -31.9292  -28.5758   17.4148 C   0  0  0  0  0  0  0  0  0  0  0  0
  -31.5518  -27.5328   18.2545 C   0  0  0  0  0  0  0  0  0  0  0  0
  -24.5985  -13.8644   21.1726 C   0  0  0  0  0  0  0  0  0  0  0  0
  -26.6018  -13.4744   19.8796 C   0  0  0  0  0  0  0  0  0  0  0  0
  -31.4198  -29.8568   17.6239 C   0  0  0  0  0  0  0  0  0  0  0  0
  -30.6656  -27.7704   19.3046 C   0  0  0  0  0  0  0  0  0  0  0  0
  -26.4045  -23.9384   21.4643 C   0  0  0  0  0  0  0  0  0  0  0  0
  -24.0856  -12.6388   20.7477 C   0  0  0  0  0  0  0  0  0  0  0  0
  -26.0889  -12.2487   19.4548 C   0  0  0  0  0  0  0  0  0  0  0  0
  -26.3880  -23.0742   22.5582 C   0  0  0  0  0  0  0  0  0  0  0  0
  -24.4853   -9.3703   21.5158 C   0  0  0  0  0  0  0  0  0  0  0  0
  -23.8924   -8.5484   22.4742 C   0  0  0  0  0  0  0  0  0  0  0  0
  -25.2721  -24.7643   23.8689 C   0  0  0  0  0  0  0  0  0  0  0  0
  -21.8100   -8.6248   21.2515 C   0  0  0  0  0  0  0  0  0  0  0  0
  -31.2434  -24.3750   21.9748 C   0  0  0  0  0  0  0  0  0  0  0  0
  -25.8565  -14.2822   20.7385 C   0  0  0  0  0  0  0  0  0  0  0  0
  -27.1719  -15.7916   22.3195 C   0  0  0  0  0  0  0  0  0  0  0  0
  -30.5195  -30.1082   18.6711 C   0  0  0  0  0  0  0  0  0  0  0  0
  -25.8638  -25.2281   21.5679 C   0  0  0  0  0  0  0  0  0  0  0  0
  -30.1448  -29.0562   19.5287 C   0  0  0  0  0  0  0  0  0  0  0  0
  -25.2807  -25.6420   22.7740 C   0  0  0  0  0  0  0  0  0  0  0  0
  -24.8308  -11.8310   19.8888 C   0  0  0  0  0  0  0  0  0  0  0  0
  -25.8244  -23.4881   23.7616 C   0  0  0  0  0  0  0  0  0  0  0  0
  -23.7405   -9.8196   20.4253 C   0  0  0  0  0  0  0  0  0  0  0  0
  -22.5548   -8.1756   22.3420 C   0  0  0  0  0  0  0  0  0  0  0  0
  -22.4029   -9.4468   20.2932 C   0  0  0  0  0  0  0  0  0  0  0  0
  -26.3866  -15.5484   21.1766 C   0  0  0  0  0  0  0  0  0  0  0  0
  -30.7896  -23.0943   21.7381 C   0  0  0  0  0  0  0  0  0  0  0  0
  -27.4154  -17.1429   22.2875 C   0  0  0  0  0  0  0  0  0  0  0  0
  -29.9618  -23.3709   23.7501 C   0  0  0  0  0  0  0  0  0  0  0  0
  -27.6394  -14.8777   23.3204 C   0  0  0  0  0  0  0  0  0  0  0  0
  -27.0245  -28.1752   21.3008 C   0  0  0  0  0  0  0  0  0  0  0  0
  -23.9049  -29.0122   21.6006 C   0  0  0  0  0  0  0  0  0  0  0  0
  -20.7817  -28.2019   22.7123 C   0  0  0  0  0  0  0  0  0  0  0  0
  -28.8175  -21.7709   19.5016 C   0  0  0  0  0  0  0  0  0  0  0  0
  -30.0323  -31.5192   18.8867 C   0  0  0  0  0  0  0  0  0  0  0  0
  -25.8654  -26.1387   20.3707 C   0  0  0  0  0  0  0  0  0  0  0  0
  -24.6687  -27.0092   22.9309 C   0  0  0  0  0  0  0  0  0  0  0  0
  -28.8071  -31.6088   19.7928 C   0  0  0  0  0  0  0  0  0  0  0  0
  -25.3975  -20.7848   19.4150 C   0  0  0  0  0  0  0  0  0  0  0  0
  -28.9989  -30.7470   21.0367 C   0  0  0  0  0  0  0  0  0  0  0  0
  -25.4158  -19.3532   19.9537 C   0  0  0  0  0  0  0  0  0  0  0  0
  -26.6300  -21.0835   18.5643 C   0  0  0  0  0  0  0  0  0  0  0  0
  -27.9380  -19.3718   19.7614 C   0  0  0  0  0  0  0  0  0  0  0  0
  -29.1664  -29.2691   20.6634 C   0  0  1  0  0  0  0  0  0  0  0  0
  -25.7478  -27.6138   20.7418 C   0  0  1  0  0  0  0  0  0  0  0  0
  -26.7427  -19.0412   20.6715 C   0  0  2  0  0  0  0  0  0  0  0  0
  -18.4434  -29.1028   22.8470 C   0  0  0  0  0  0  0  0  0  0  0  0
  -29.6448  -20.8197   25.5983 C   0  0  0  0  0  0  0  0  0  0  0  0
  -25.4719  -23.1893   27.1442 C   0  0  0  0  0  0  0  0  0  0  0  0
  -24.7472  -30.8501   23.8859 C   0  0  0  0  0  0  0  0  0  0  0  0
  -22.3446  -30.9745   24.5788 C   0  0  0  0  0  0  0  0  0  0  0  0
  -23.0405  -31.8239   22.3389 C   0  0  0  0  0  0  0  0  0  0  0  0
  -19.7068  -25.9776   21.0825 C   0  0  0  0  0  0  0  0  0  0  0  0
  -31.0208  -22.3111   20.5080 C   0  0  0  0  0  0  0  0  0  0  0  0
  -27.5936  -22.0788   26.3534 C   0  0  0  0  0  0  0  0  0  0  0  0
  -22.9901  -29.3312   22.7583 C   0  0  1  0  0  0  0  0  0  0  0  0
  -19.4236  -28.2682   22.0373 C   0  0  2  0  0  0  0  0  0  0  0  0
  -28.6086  -21.8734   25.2171 C   0  0  1  0  0  0  0  0  0  0  0  0
  -26.4834  -23.0817   26.0103 C   0  0  1  0  0  0  0  0  0  1  0  0
  -23.2938  -30.7198   23.3884 C   0  0  0  0  0  0  0  0  0  0  0  0
  -26.1471  -16.6564   20.4703 N   0  0  0  0  0  0  0  0  0  0  0  0
  -30.0549  -22.5168   22.7551 N   0  0  0  0  0  0  0  0  0  0  0  0
  -26.7854  -17.6089   21.1712 N   0  0  0  0  0  0  0  0  0  0  0  0
  -24.7003  -27.8653   21.7336 N   0  0  0  0  0  0  0  0  0  0  0  0
  -27.8546  -20.7676   19.3035 N   0  0  0  0  0  0  0  0  0  0  0  0
  -28.1046  -17.9662   23.1058 N   0  0  0  0  0  0  0  0  0  0  0  0
  -27.2977  -13.5237   23.2008 N   0  0  0  0  0  0  0  0  0  0  0  0
  -29.2922  -23.1181   24.9339 N   0  0  0  0  0  0  0  0  0  0  0  0
  -27.8838  -28.6800   20.3436 N   0  0  0  0  0  0  0  0  0  0  0  0
  -21.6286  -29.1888   22.2539 N   0  0  0  0  0  0  0  0  0  0  0  0
  -29.9454  -21.3891   20.2178 N   0  0  0  0  0  0  0  0  0  0  0  0
  -18.8564  -26.8992   21.8790 N   0  3  0  0  0  0  0  0  0  0  0  0
  -28.3257  -15.2533   24.3009 O   0  0  0  0  0  0  0  0  0  0  0  0
  -27.2152  -28.1533   22.5111 O   0  0  0  0  0  0  0  0  0  0  0  0
  -23.9082  -29.7494   20.6115 O   0  0  0  0  0  0  0  0  0  0  0  0
  -21.0620  -27.3611   23.5638 O   0  0  0  0  0  0  0  0  0  0  0  0
  -28.6797  -22.9230   19.0766 O   0  0  0  0  0  0  0  0  0  0  0  0
  -24.3307  -10.6349   19.4742 O   0  0  0  0  0  0  0  0  0  0  0  0
  -25.8076  -22.6468   24.8311 O   0  0  0  0  0  0  0  0  0  1  0  0
  -21.9860   -7.3850   23.2616 F   0  0  0  0  0  0  0  0  0  0  0  0
  -21.6826   -9.8743   19.2471 F   0  0  0  0  0  0  0  0  0  0  0  0
  -30.7338  -24.8876   23.5300 S   0  0  0  0  0  0  0  0  0  0  0  0
  1  2  1  0  0  0  0
  1  5  2  0  0  0  0
  2  6  2  0  0  0  0
  3  8  2  0  0  0  0
  3 16  1  0  0  0  0
  4  9  1  0  0  0  0
  4 16  2  0  0  0  0
  5 18  1  0  0  0  0
  6 20  1  0  0  0  0
  7 10  2  0  0  0  0
  7 19  1  0  0  0  0
  8 22  1  0  0  0  0
  9 22  2  0  0  0  0
 10 23  1  0  0  0  0
 11 12  2  0  0  0  0
 11 24  1  0  0  0  0
 12 25  1  0  0  0  0
 13 21  1  0  0  0  0
 13 23  2  0  0  0  0
 14 25  2  0  0  0  0
 14 26  1  0  0  0  0
 15 28  2  0  0  0  0
 15 83  1  0  0  0  0
 16 27  1  0  0  0  0
 17 27  1  0  0  0  0
 17 29  2  0  0  0  0
 17 31  1  0  0  0  0
 18 20  2  0  0  0  0
 18 36  1  0  0  0  0
 19 21  2  0  0  0  0
 19 37  1  0  0  0  0
 20 45  1  0  0  0  0
 21 38  1  0  0  0  0
 22 79  1  0  0  0  0
 23 80  1  0  0  0  0
 24 26  2  0  0  0  0
 24 79  1  0  0  0  0
 25 81  1  0  0  0  0
 26 82  1  0  0  0  0
 27 62  2  0  0  0  0
 28 55  1  0  0  0  0
 28 63  1  0  0  0  0
 29 64  1  0  0  0  0
 29 67  1  0  0  0  0
 30 63  2  0  0  0  0
 30 69  1  0  0  0  0
 30 83  1  0  0  0  0
 31 68  1  0  0  0  0
 31 74  2  0  0  0  0
 32 46  1  0  0  0  0
 32 70  1  0  0  0  0
 32 75  2  0  0  0  0
 33 57  1  0  0  0  0
 33 65  1  0  0  0  0
 33 76  2  0  0  0  0
 34 58  1  0  0  0  0
 34 71  1  0  0  0  0
 34 77  2  0  0  0  0
 35 66  1  0  0  0  0
 35 72  1  0  0  0  0
 35 78  2  0  0  0  0
 36 39  1  0  0  0  0
 37 46  1  0  0  0  0
 38 65  1  0  0  0  0
 39 41  1  0  0  0  0
 40 42  1  0  0  0  0
 40 43  1  0  0  0  0
 41 45  1  0  0  0  0
 42 47  1  0  0  0  0
 43 66  1  0  0  0  0
 44 47  1  0  0  0  0
 44 66  1  0  0  0  0
 45 70  1  0  0  0  0
 46 65  1  0  0  0  0
 47 64  1  0  0  0  0
 48 58  1  0  0  0  0
 49 59  1  0  0  0  0
 50 60  1  0  0  0  0
 51 61  1  0  0  0  0
 52 61  1  0  0  0  0
 53 61  1  0  0  0  0
 54 73  1  0  0  0  0
 55 72  1  0  0  0  0
 56 59  1  0  0  0  0
 56 60  1  0  0  0  0
 57 61  1  0  0  0  0
 57 71  1  0  0  0  0
 58 73  1  0  0  0  0
 59 69  1  0  0  0  0
 60 80  1  0  0  0  0
 62 64  1  0  0  0  0
M  CHG  1  73   1
M  ISO  4  35 100  60 101  72 100  80 101
M  END
> <Batch ID>
0190

> <Smiles>
CNC(C)C(=O)NC(C(=O)N1Cc2cc([101O:1][101CH:1](C)CC(C)Nc3nc(C[100NH:0][100C:0](=O)N4CCCC(n5nc(-c6ccc(Oc7ccc(F)cc7F)cc6)c(C(N)=O)c5N)C4)cs3)ccc2CC1C(=O)NC1CCCc2ccccc21)C(C)(C)C

> <Shape>
0.229

> <Color>
0.067

> <Negative vol penalty>
0.000

$$$$

  -OEChem-04052305213D

 83 91  0     1  0  0  0  0  0999 V2000
  -28.9651  -34.0778   24.4560 C   0  0  0  0  0  0  0  0  0  0  0  0
  -28.9206  -33.7889   23.0958 C   0  0  0  0  0  0  0  0  0  0  0  0
  -27.9684  -12.6916   22.6501 C   0  0  0  0  0  0  0  0  0  0  0  0
  -26.7560  -13.2304   20.6310 C   0  0  0  0  0  0  0  0  0  0  0  0
  -28.7533  -33.0645   25.3899 C   0  0  0  0  0  0  0  0  0  0  0  0
  -28.6653  -32.4863   22.6689 C   0  0  0  0  0  0  0  0  0  0  0  0
  -25.5052  -28.8723   17.3519 C   0  0  0  0  0  0  0  0  0  0  0  0
  -27.4188  -11.4096   22.6380 C   0  0  0  0  0  0  0  0  0  0  0  0
  -26.2064  -11.9485   20.6189 C   0  0  0  0  0  0  0  0  0  0  0  0
  -25.7710  -27.8600   16.4309 C   0  0  0  0  0  0  0  0  0  0  0  0
  -23.7232  -10.2874   22.2018 C   0  0  0  0  0  0  0  0  0  0  0  0
  -22.3567  -10.1705   21.9475 C   0  0  0  0  0  0  0  0  0  0  0  0
  -25.3418  -26.2062   18.1338 C   0  0  0  0  0  0  0  0  0  0  0  0
  -22.8342   -8.8203   20.0018 C   0  0  0  0  0  0  0  0  0  0  0  0
  -27.6370  -13.6020   21.6466 C   0  0  0  0  0  0  0  0  0  0  0  0
  -29.4028  -15.3438   21.0501 C   0  0  0  0  0  0  0  0  0  0  0  0
  -28.4857  -31.7507   24.9741 C   0  0  0  0  0  0  0  0  0  0  0  0
  -25.1657  -28.5588   18.6759 C   0  0  0  0  0  0  0  0  0  0  0  0
  -28.4510  -31.4542   23.5982 C   0  0  0  0  0  0  0  0  0  0  0  0
  -25.0697  -27.2163   19.0690 C   0  0  0  0  0  0  0  0  0  0  0  0
  -26.5378  -11.0381   21.6224 C   0  0  0  0  0  0  0  0  0  0  0  0
  -25.6922  -26.5268   16.8224 C   0  0  0  0  0  0  0  0  0  0  0  0
  -24.6452   -9.6708   21.3560 C   0  0  0  0  0  0  0  0  0  0  0  0
  -21.9122   -9.4369   20.8476 C   0  0  0  0  0  0  0  0  0  0  0  0
  -24.2008   -8.9372   20.2560 C   0  0  0  0  0  0  0  0  0  0  0  0
  -28.2039  -14.9266   21.6589 C   0  0  0  0  0  0  0  0  0  0  0  0
  -29.4936  -16.6807   21.3513 C   0  0  0  0  0  0  0  0  0  0  0  0
  -28.5082  -22.8233   19.9531 C   0  0  0  0  0  0  0  0  0  0  0  0
  -28.9122  -24.8227   19.5098 C   0  0  0  0  0  0  0  0  0  0  0  0
  -30.3495  -14.5902   20.2810 C   0  0  0  0  0  0  0  0  0  0  0  0
  -26.4623  -29.1345   21.5204 C   0  0  0  0  0  0  0  0  0  0  0  0
  -23.7298  -27.7665   22.6089 C   0  0  0  0  0  0  0  0  0  0  0  0
  -21.1002  -25.6746   22.0125 C   0  0  0  0  0  0  0  0  0  0  0  0
  -27.2058  -21.7358   21.8151 C   0  0  0  0  0  0  0  0  0  0  0  0
  -28.3101  -30.6794   26.0211 C   0  0  0  0  0  0  0  0  0  0  0  0
  -24.8559  -29.6619   19.6504 C   0  0  0  0  0  0  0  0  0  0  0  0
  -24.6895  -26.8265   20.4733 C   0  0  0  0  0  0  0  0  0  0  0  0
  -27.6744  -29.4001   25.4830 C   0  0  0  0  0  0  0  0  0  0  0  0
  -26.8166  -19.5203   24.5751 C   0  0  0  0  0  0  0  0  0  0  0  0
  -28.3379  -28.9841   24.1740 C   0  0  0  0  0  0  0  0  0  0  0  0
  -27.2414  -18.1620   24.0123 C   0  0  0  0  0  0  0  0  0  0  0  0
  -26.0664  -20.3543   23.5380 C   0  0  0  0  0  0  0  0  0  0  0  0
  -27.1881  -19.1666   21.6939 C   0  0  0  0  0  0  0  0  0  0  0  0
  -28.1523  -30.0584   23.0956 C   0  0  1  0  0  0  0  0  0  0  0  0
  -25.0216  -29.2372   21.1062 C   0  0  1  0  0  0  0  0  0  0  0  0
  -28.0039  -18.3167   22.6818 C   0  0  2  0  0  0  0  0  0  0  0  0
  -19.0496  -24.7271   23.1055 C   0  0  0  0  0  0  0  0  0  0  0  0
  -25.4772  -25.8625   24.2310 C   0  0  0  0  0  0  0  0  0  0  0  0
  -23.4757  -24.3875   24.5252 C   0  0  0  0  0  0  0  0  0  0  0  0
  -23.4571  -26.7089   25.4382 C   0  0  0  0  0  0  0  0  0  0  0  0
  -19.3171  -26.8927   19.9887 C   0  0  0  0  0  0  0  0  0  0  0  0
  -29.4842  -24.9415   16.2075 C   0  0  0  0  0  0  0  0  0  0  0  0
  -27.6504  -24.5685   14.5016 C   0  0  0  0  0  0  0  0  0  0  0  0
  -30.3142  -24.3961   17.3785 C   0  0  0  0  0  0  0  0  0  0  0  0
  -26.8827  -25.8309   14.8848 C   0  0  0  0  0  0  0  0  0  1  0  0
  -23.2973  -26.3585   22.9395 C   0  0  1  0  0  0  0  0  0  0  0  0
  -19.6082  -25.8430   22.2364 C   0  0  2  0  0  0  0  0  0  0  0  0
  -28.4304  -23.9573   15.6758 C   0  0  1  0  0  0  0  0  0  0  0  0
  -23.9359  -25.8364   24.2575 C   0  0  0  0  0  0  0  0  0  0  0  0
  -27.5782  -15.9181   22.2986 N   0  0  0  0  0  0  0  0  0  0  0  0
  -28.2787  -24.0935   20.3988 N   0  0  0  0  0  0  0  0  0  0  0  0
  -29.2439  -22.7208   18.8442 N   0  0  0  0  0  0  0  0  0  0  0  0
  -28.3870  -16.9717   22.0936 N   0  0  0  0  0  0  0  0  0  0  0  0
  -29.4892  -24.0134   18.5814 N   0  0  0  0  0  0  0  0  0  0  0  0
  -24.4021  -27.9413   21.3909 N   0  0  0  0  0  0  0  0  0  0  0  0
  -26.8509  -20.4614   22.3059 N   0  0  0  0  0  0  0  0  0  0  0  0
  -30.4114  -17.6241   21.0512 N   0  0  0  0  0  0  0  0  0  0  0  0
  -29.0439  -26.1654   19.4238 N   0  0  0  0  0  0  0  0  0  0  0  0
  -30.1024  -13.2274   20.0666 N   0  0  0  0  0  0  0  0  0  0  0  0
  -27.9794  -21.7119   20.6552 N   0  0  0  0  0  0  0  0  0  0  0  0
  -26.8164  -29.9940   22.5428 N   0  0  0  0  0  0  0  0  0  0  0  0
  -21.8385  -26.3705   22.9462 N   0  0  0  0  0  0  0  0  0  0  0  0
  -18.8844  -25.8313   20.9337 N   0  3  0  0  0  0  0  0  0  0  0  0
  -31.3923  -15.1063   19.8121 O   0  0  0  0  0  0  0  0  0  0  0  0
  -27.1978  -28.3336   20.9554 O   0  0  0  0  0  0  0  0  0  0  0  0
  -23.4742  -28.6789   23.3987 O   0  0  0  0  0  0  0  0  0  0  0  0
  -21.5642  -24.9909   21.1027 O   0  0  0  0  0  0  0  0  0  0  0  0
  -26.8726  -22.7713   22.3971 O   0  0  0  0  0  0  0  0  0  0  0  0
  -29.0685  -22.7558   15.2500 O   0  0  0  0  0  0  0  0  0  0  0  0
  -26.0015   -9.7871   21.6102 O   0  0  0  0  0  0  0  0  0  0  0  0
  -25.9518  -25.5368   15.9256 O   0  0  0  0  0  0  0  0  0  1  0  0
  -20.5999   -9.3235   20.6044 F   0  0  0  0  0  0  0  0  0  0  0  0
  -25.0818   -8.3416   19.4406 F   0  0  0  0  0  0  0  0  0  0  0  0
  1  2  1  0  0  0  0
  1  5  2  0  0  0  0
  2  6  2  0  0  0  0
  3  8  2  0  0  0  0
  3 15  1  0  0  0  0
  4  9  1  0  0  0  0
  4 15  2  0  0  0  0
  5 17  1  0  0  0  0
  6 19  1  0  0  0  0
  7 10  2  0  0  0  0
  7 18  1  0  0  0  0
  8 21  1  0  0  0  0
  9 21  2  0  0  0  0
 10 22  1  0  0  0  0
 11 12  2  0  0  0  0
 11 23  1  0  0  0  0
 12 24  1  0  0  0  0
 13 20  1  0  0  0  0
 13 22  2  0  0  0  0
 14 24  2  0  0  0  0
 14 25  1  0  0  0  0
 15 26  1  0  0  0  0
 16 26  1  0  0  0  0
 16 27  2  0  0  0  0
 16 30  1  0  0  0  0
 17 19  2  0  0  0  0
 17 35  1  0  0  0  0
 18 20  2  0  0  0  0
 18 36  1  0  0  0  0
 19 44  1  0  0  0  0
 20 37  1  0  0  0  0
 21 80  1  0  0  0  0
 22 81  1  0  0  0  0
 23 25  2  0  0  0  0
 23 80  1  0  0  0  0
 24 82  1  0  0  0  0
 25 83  1  0  0  0  0
 26 60  2  0  0  0  0
 27 63  1  0  0  0  0
 27 67  1  0  0  0  0
 28 61  1  0  0  0  0
 28 62  2  0  0  0  0
 28 70  1  0  0  0  0
 29 61  2  0  0  0  0
 29 64  1  0  0  0  0
 29 68  1  0  0  0  0
 30 69  1  0  0  0  0
 30 74  2  0  0  0  0
 31 45  1  0  0  0  0
 31 71  1  0  0  0  0
 31 75  2  0  0  0  0
 32 56  1  0  0  0  0
 32 65  1  0  0  0  0
 32 76  2  0  0  0  0
 33 57  1  0  0  0  0
 33 72  1  0  0  0  0
 33 77  2  0  0  0  0
 34 66  1  0  0  0  0
 34 70  1  0  0  0  0
 34 78  2  0  0  0  0
 35 38  1  0  0  0  0
 36 45  1  0  0  0  0
 37 65  1  0  0  0  0
 38 40  1  0  0  0  0
 39 41  1  0  0  0  0
 39 42  1  0  0  0  0
 40 44  1  0  0  0  0
 41 46  1  0  0  0  0
 42 66  1  0  0  0  0
 43 46  1  0  0  0  0
 43 66  1  0  0  0  0
 44 71  1  0  0  0  0
 45 65  1  0  0  0  0
 46 63  1  0  0  0  0
 47 57  1  0  0  0  0
 48 59  1  0  0  0  0
 49 59  1  0  0  0  0
 50 59  1  0  0  0  0
 51 73  1  0  0  0  0
 52 54  1  0  0  0  0
 52 58  1  0  0  0  0
 53 55  1  0  0  0  0
 53 58  1  0  0  0  0
 54 64  1  0  0  0  0
 55 81  1  0  0  0  0
 56 59  1  0  0  0  0
 56 72  1  0  0  0  0
 57 73  1  0  0  0  0
 58 79  1  0  0  0  0
 60 63  1  0  0  0  0
 62 64  1  0  0  0  0
M  CHG  1  73   1
M  ISO  4  34 100  55 101  70 100  81 101
M  END
> <Batch ID>
0190

> <Smiles>
CNC(C)C(=O)NC(C(=O)N1Cc2cc([101O:1][101CH2:1]CC(O)CCn3nc([100NH:0][100C:0](=O)N4CCCC(n5nc(-c6ccc(Oc7ccc(F)cc7F)cc6)c(C(N)=O)c5N)C4)nc3N)ccc2CC1C(=O)NC1CCCc2ccccc21)C(C)(C)C

> <Shape>
0.241

> <Color>
0.078

> <Negative vol penalty>
0.000

$$$$

  -OEChem-04052305213D

 88 96  0     1  0  0  0  0  0999 V2000
  -25.9202  -17.3356   25.1554 C   0  0  0  0  0  0  0  0  0  0  0  0
  -26.8649  -18.3565   25.1834 C   0  0  0  0  0  0  0  0  0  0  0  0
  -26.6221  -12.2068   21.7247 C   0  0  0  0  0  0  0  0  0  0  0  0
  -25.8652  -13.7129   19.9939 C   0  0  0  0  0  0  0  0  0  0  0  0
  -24.8167  -17.4317   24.3087 C   0  0  0  0  0  0  0  0  0  0  0  0
  -26.7072  -19.4736   24.3638 C   0  0  0  0  0  0  0  0  0  0  0  0
  -28.2830  -25.2466   25.6656 C   0  0  0  0  0  0  0  0  0  0  0  0
  -25.3733  -11.5855   21.7303 C   0  0  0  0  0  0  0  0  0  0  0  0
  -24.6163  -13.0917   19.9995 C   0  0  0  0  0  0  0  0  0  0  0  0
  -29.3971  -26.0137   25.3278 C   0  0  0  0  0  0  0  0  0  0  0  0
  -23.7124   -9.3145   19.8549 C   0  0  0  0  0  0  0  0  0  0  0  0
  -23.6821   -7.9201   19.8717 C   0  0  0  0  0  0  0  0  0  0  0  0
  -28.1776  -26.9571   23.4725 C   0  0  0  0  0  0  0  0  0  0  0  0
  -22.4697   -7.9716   21.9608 C   0  0  0  0  0  0  0  0  0  0  0  0
  -29.7140  -22.7467   21.1267 C   0  0  0  0  0  0  0  0  0  0  0  0
  -26.8681  -13.2705   20.8566 C   0  0  0  0  0  0  0  0  0  0  0  0
  -29.2743  -13.5710   20.0646 C   0  0  0  0  0  0  0  0  0  0  0  0
  -24.6403  -18.5550   23.4854 C   0  0  0  0  0  0  0  0  0  0  0  0
  -27.1094  -25.3210   24.9016 C   0  0  0  0  0  0  0  0  0  0  0  0
  -25.6009  -19.5841   23.5044 C   0  0  0  0  0  0  0  0  0  0  0  0
  -27.0491  -26.1918   23.8042 C   0  0  0  0  0  0  0  0  0  0  0  0
  -24.3704  -12.0280   20.8677 C   0  0  0  0  0  0  0  0  0  0  0  0
  -29.3455  -26.8669   24.2295 C   0  0  0  0  0  0  0  0  0  0  0  0
  -23.1215  -10.0375   20.8911 C   0  0  0  0  0  0  0  0  0  0  0  0
  -23.0608   -7.2486   20.9246 C   0  0  0  0  0  0  0  0  0  0  0  0
  -22.5001   -9.3660   21.9441 C   0  0  0  0  0  0  0  0  0  0  0  0
  -28.1577  -13.9130   20.8507 C   0  0  0  0  0  0  0  0  0  0  0  0
  -29.3309  -23.6530   20.0969 C   0  0  0  0  0  0  0  0  0  0  0  0
  -30.2408  -14.4764   20.4286 C   0  0  0  0  0  0  0  0  0  0  0  0
  -29.2724  -21.4762   20.8275 C   0  0  0  0  0  0  0  0  0  0  0  0
  -29.4244  -12.5282   19.0921 C   0  0  0  0  0  0  0  0  0  0  0  0
  -25.4348  -23.2589   23.1560 C   0  0  0  0  0  0  0  0  0  0  0  0
  -31.5305  -27.3501   19.6589 C   0  0  0  0  0  0  0  0  0  0  0  0
  -23.3527  -25.7364   22.9338 C   0  0  0  0  0  0  0  0  0  0  0  0
  -22.8366  -29.1075   23.0614 C   0  0  0  0  0  0  0  0  0  0  0  0
  -30.0135  -19.9897   22.7216 C   0  0  0  0  0  0  0  0  0  0  0  0
  -23.4561  -18.5922   22.5522 C   0  0  0  0  0  0  0  0  0  0  0  0
  -25.9074  -24.5069   25.2950 C   0  0  0  0  0  0  0  0  0  0  0  0
  -25.8063  -26.3234   22.9637 C   0  0  0  0  0  0  0  0  0  0  0  0
  -23.1672  -19.9817   21.9899 C   0  0  0  0  0  0  0  0  0  0  0  0
  -31.6511  -17.1616   24.1347 C   0  0  0  0  0  0  0  0  0  0  0  0
  -24.4542  -20.6370   21.4989 C   0  0  0  0  0  0  0  0  0  0  0  0
  -31.0472  -15.9769   23.3772 C   0  0  0  0  0  0  0  0  0  0  0  0
  -30.6165  -18.2549   24.3955 C   0  0  0  0  0  0  0  0  0  0  0  0
  -29.2892  -17.5369   22.4482 C   0  0  0  0  0  0  0  0  0  0  0  0
  -25.4519  -20.8232   22.6484 C   0  0  1  0  0  0  0  0  0  0  0  0
  -24.9365  -24.2787   24.1406 C   0  0  1  0  0  0  0  0  0  0  0  0
  -30.3089  -16.4385   22.1054 C   0  0  2  0  0  0  0  0  0  0  0  0
  -21.0359  -30.8359   22.8016 C   0  0  0  0  0  0  0  0  0  0  0  0
  -33.5380  -29.4603   18.8534 C   0  0  0  0  0  0  0  0  0  0  0  0
  -31.7040  -30.7477   17.7367 C   0  0  0  0  0  0  0  0  0  0  0  0
  -32.7061  -27.3057   24.5888 C   0  0  0  0  0  0  0  0  0  0  0  0
  -23.4710  -25.4007   19.9034 C   0  0  0  0  0  0  0  0  0  0  0  0
  -22.4550  -27.6781   19.6813 C   0  0  0  0  0  0  0  0  0  0  0  0
  -21.1864  -25.8535   20.8144 C   0  0  0  0  0  0  0  0  0  0  0  0
  -23.1754  -30.0469   25.8474 C   0  0  0  0  0  0  0  0  0  0  0  0
  -29.6411  -25.1208   20.0881 C   0  0  0  0  0  0  0  0  0  0  0  0
  -31.1530  -28.7517   19.1958 C   0  0  0  0  0  0  0  0  0  0  0  0
  -32.0776  -27.2499   22.1481 C   0  0  0  0  0  0  0  0  0  0  0  0
  -31.0532  -26.9445   21.0469 C   0  0  2  0  0  0  0  0  0  0  0  0
  -23.1692  -26.8968   21.9858 C   0  0  1  0  0  0  0  0  0  0  0  0
  -21.7860  -29.9394   23.7745 C   0  0  2  0  0  0  0  0  0  0  0  0
  -32.1556  -29.3623   18.2054 C   0  0  0  0  0  0  0  0  0  0  0  0
  -31.6329  -26.9130   23.5801 C   0  0  2  0  0  0  0  0  0  1  0  0
  -22.5946  -26.4536   20.6107 C   0  0  0  0  0  0  0  0  0  0  0  0
  -28.3920  -14.9543   21.6538 N   0  0  0  0  0  0  0  0  0  0  0  0
  -28.6474  -23.1541   19.0697 N   0  0  0  0  0  0  0  0  0  0  0  0
  -29.6669  -15.2744   21.3741 N   0  0  0  0  0  0  0  0  0  0  0  0
  -24.6594  -25.5020   23.3849 N   0  0  0  0  0  0  0  0  0  0  0  0
  -29.9610  -18.6449   23.1453 N   0  0  0  0  0  0  0  0  0  0  0  0
  -31.5172  -14.6598   20.0290 N   0  0  0  0  0  0  0  0  0  0  0  0
  -28.3316  -11.6878   18.8396 N   0  0  0  0  0  0  0  0  0  0  0  0
  -29.3830  -20.2351   21.5022 N   0  0  0  0  0  0  0  0  0  0  0  0
  -25.0782  -21.9596   23.4629 N   0  0  0  0  0  0  0  0  0  0  0  0
  -22.3458  -27.8734   22.6906 N   0  0  0  0  0  0  0  0  0  0  0  0
  -22.4227  -30.7999   24.8113 N   0  3  0  0  0  0  0  0  0  0  0  0
  -30.6877  -25.5007   21.0721 N   0  3  0  0  0  0  0  0  0  0  0  0
  -30.5010  -12.3368   18.4775 O   0  0  0  0  0  0  0  0  0  0  0  0
  -26.0927  -23.6240   22.1888 O   0  0  0  0  0  0  0  0  0  0  0  0
  -32.2082  -26.5953   18.9612 O   0  0  0  0  0  0  0  0  0  0  0  0
  -22.3717  -25.0671   23.2675 O   0  0  0  0  0  0  0  0  0  0  0  0
  -23.9775  -29.5133   22.8508 O   0  0  0  0  0  0  0  0  0  0  0  0
  -30.5997  -20.8544   23.3777 O   0  0  0  0  0  0  0  0  0  0  0  0
  -23.1517  -11.4218   20.8727 O   0  0  0  0  0  0  0  0  0  0  0  0
  -30.4388  -27.6211   23.8950 O   0  0  0  0  0  0  0  0  0  1  0  0
  -23.0304   -5.9096   20.9398 F   0  0  0  0  0  0  0  0  0  0  0  0
  -21.9296  -10.0552   22.9418 F   0  0  0  0  0  0  0  0  0  0  0  0
  -28.4428  -21.5255   19.3298 S   0  0  0  0  0  0  0  0  0  0  0  0
  1  2  1  0  0  0  0
  1  5  2  0  0  0  0
  2  6  2  0  0  0  0
  3  8  2  0  0  0  0
  3 16  1  0  0  0  0
  4  9  1  0  0  0  0
  4 16  2  0  0  0  0
  5 18  1  0  0  0  0
  6 20  1  0  0  0  0
  7 10  2  0  0  0  0
  7 19  1  0  0  0  0
  8 22  1  0  0  0  0
  9 22  2  0  0  0  0
 10 23  1  0  0  0  0
 11 12  2  0  0  0  0
 11 24  1  0  0  0  0
 12 25  1  0  0  0  0
 13 21  1  0  0  0  0
 13 23  2  0  0  0  0
 14 25  2  0  0  0  0
 14 26  1  0  0  0  0
 15 28  1  0  0  0  0
 15 30  2  0  0  0  0
 16 27  1  0  0  0  0
 17 27  1  0  0  0  0
 17 29  2  0  0  0  0
 17 31  1  0  0  0  0
 18 20  2  0  0  0  0
 18 37  1  0  0  0  0
 19 21  2  0  0  0  0
 19 38  1  0  0  0  0
 20 46  1  0  0  0  0
 21 39  1  0  0  0  0
 22 84  1  0  0  0  0
 23 85  1  0  0  0  0
 24 26  2  0  0  0  0
 24 84  1  0  0  0  0
 25 86  1  0  0  0  0
 26 87  1  0  0  0  0
 27 66  2  0  0  0  0
 28 57  1  0  0  0  0
 28 67  2  0  0  0  0
 29 68  1  0  0  0  0
 29 71  1  0  0  0  0
 30 73  1  0  0  0  0
 30 88  1  0  0  0  0
 31 72  1  0  0  0  0
 31 78  2  0  0  0  0
 32 47  1  0  0  0  0
 32 74  1  0  0  0  0
 32 79  2  0  0  0  0
 33 58  1  0  0  0  0
 33 60  1  0  0  0  0
 33 80  2  0  0  0  0
 34 61  1  0  0  0  0
 34 69  1  0  0  0  0
 34 81  2  0  0  0  0
 35 62  1  0  0  0  0
 35 75  1  0  0  0  0
 35 82  2  0  0  0  0
 36 70  1  0  0  0  0
 36 73  1  0  0  0  0
 36 83  2  0  0  0  0
 37 40  1  0  0  0  0
 38 47  1  0  0  0  0
 39 69  1  0  0  0  0
 40 42  1  0  0  0  0
 41 43  1  0  0  0  0
 41 44  1  0  0  0  0
 42 46  1  0  0  0  0
 43 48  1  0  0  0  0
 44 70  1  0  0  0  0
 45 48  1  0  0  0  0
 45 70  1  0  0  0  0
 46 74  1  0  0  0  0
 47 69  1  0  0  0  0
 48 68  1  0  0  0  0
 49 62  1  0  0  0  0
 50 63  1  0  0  0  0
 51 63  1  0  0  0  0
 52 64  1  0  0  0  0
 53 65  1  0  0  0  0
 54 65  1  0  0  0  0
 55 65  1  0  0  0  0
 56 76  1  0  0  0  0
 57 77  1  0  0  0  0
 58 63  1  0  0  0  0
 59 60  1  0  0  0  0
 59 64  1  0  0  0  0
 60 77  1  0  0  0  0
 61 65  1  0  0  0  0
 61 75  1  0  0  0  0
 62 76  1  0  0  0  0
 64 85  1  0  0  0  0
 66 68  1  0  0  0  0
 67 88  1  0  0  0  0
M  CHG  2  76   1  77   1
M  ISO  4  36 100  64 101  73 100  85 101
M  END
> <Batch ID>
0190

> <Smiles>
CNC(C)C(=O)NC(C(=O)N1Cc2cc([101O:1][101CH:1](C)CC(NCc3cc([100NH:0][100C:0](=O)N4CCCC(n5nc(-c6ccc(Oc7ccc(F)cc7F)cc6)c(C(N)=O)c5N)C4)sn3)C(=O)CC(C)C)ccc2CC1C(=O)NC1CCCc2ccccc21)C(C)(C)C

> <Shape>
0.206

> <Color>
0.067

> <Negative vol penalty>
0.000

$$$$

  -OEChem-04052305213D

 86 94  0     1  0  0  0  0  0999 V2000
  -23.0860  -22.7458   18.8212 C   0  0  0  0  0  0  0  0  0  0  0  0
  -24.2273  -22.0705   18.4004 C   0  0  0  0  0  0  0  0  0  0  0  0
  -26.1848  -27.8052   18.8358 C   0  0  0  0  0  0  0  0  0  0  0  0
  -26.1291  -27.1467   21.1597 C   0  0  0  0  0  0  0  0  0  0  0  0
  -22.4578  -22.3771   20.0100 C   0  0  0  0  0  0  0  0  0  0  0  0
  -24.7416  -21.0268   19.1689 C   0  0  0  0  0  0  0  0  0  0  0  0
  -28.1730  -14.7733   18.5088 C   0  0  0  0  0  0  0  0  0  0  0  0
  -25.0652  -28.6122   19.0376 C   0  0  0  0  0  0  0  0  0  0  0  0
  -25.0095  -27.9538   21.3615 C   0  0  0  0  0  0  0  0  0  0  0  0
  -29.2994  -14.1069   18.9893 C   0  0  0  0  0  0  0  0  0  0  0  0
  -24.3579  -31.2389   21.8133 C   0  0  0  0  0  0  0  0  0  0  0  0
  -24.3400  -32.0473   22.9498 C   0  0  0  0  0  0  0  0  0  0  0  0
  -28.0848  -13.5050   20.9847 C   0  0  0  0  0  0  0  0  0  0  0  0
  -22.3377  -30.9310   23.7124 C   0  0  0  0  0  0  0  0  0  0  0  0
  -28.7417  -18.2237   24.4832 C   0  0  0  0  0  0  0  0  0  0  0  0
  -26.7167  -27.0723   19.8968 C   0  0  0  0  0  0  0  0  0  0  0  0
  -29.2242  -26.6082   19.8264 C   0  0  0  0  0  0  0  0  0  0  0  0
  -22.9591  -21.3219   20.7885 C   0  0  0  0  0  0  0  0  0  0  0  0
  -26.9954  -14.8199   19.2689 C   0  0  0  0  0  0  0  0  0  0  0  0
  -24.1202  -20.6444   20.3699 C   0  0  0  0  0  0  0  0  0  0  0  0
  -26.9440  -14.1705   20.5105 C   0  0  0  0  0  0  0  0  0  0  0  0
  -24.4776  -28.6866   20.3004 C   0  0  0  0  0  0  0  0  0  0  0  0
  -29.2564  -13.4751   20.2286 C   0  0  0  0  0  0  0  0  0  0  0  0
  -23.3656  -30.2766   21.6262 C   0  0  0  0  0  0  0  0  0  0  0  0
  -23.3300  -31.8934   23.8994 C   0  0  0  0  0  0  0  0  0  0  0  0
  -22.3555  -30.1226   22.5758 C   0  0  0  0  0  0  0  0  0  0  0  0
  -27.8729  -26.2380   19.6889 C   0  0  0  0  0  0  0  0  0  0  0  0
  -28.9532  -17.2985   23.4824 C   0  0  0  0  0  0  0  0  0  0  0  0
  -29.9255  -25.4674   19.5209 C   0  0  0  0  0  0  0  0  0  0  0  0
  -28.6295  -19.0701   22.2307 C   0  0  0  0  0  0  0  0  0  0  0  0
  -29.7944  -27.8703   20.1972 C   0  0  0  0  0  0  0  0  0  0  0  0
  -25.2675  -17.1389   20.5881 C   0  0  0  0  0  0  0  0  0  0  0  0
  -31.3598  -13.7998   24.7816 C   0  0  0  0  0  0  0  0  0  0  0  0
  -23.2330  -14.7050   21.2660 C   0  0  0  0  0  0  0  0  0  0  0  0
  -22.7843  -11.3603   21.7745 C   0  0  0  0  0  0  0  0  0  0  0  0
  -28.5746  -19.6525   19.7804 C   0  0  0  0  0  0  0  0  0  0  0  0
  -22.2730  -20.9905   22.0901 C   0  0  0  0  0  0  0  0  0  0  0  0
  -25.7806  -15.5201   18.7246 C   0  0  0  0  0  0  0  0  0  0  0  0
  -25.6978  -14.1739   21.3562 C   0  0  0  0  0  0  0  0  0  0  0  0
  -22.6654  -19.6280   22.6557 C   0  0  0  0  0  0  0  0  0  0  0  0
  -29.6165  -21.4702   16.9015 C   0  0  0  0  0  0  0  0  0  0  0  0
  -24.1791  -19.4456   22.6071 C   0  0  0  0  0  0  0  0  0  0  0  0
  -29.4163  -22.9330   17.3043 C   0  0  0  0  0  0  0  0  0  0  0  0
  -28.5217  -20.5701   17.4716 C   0  0  0  0  0  0  0  0  0  0  0  0
  -28.1201  -22.1428   19.3249 C   0  0  0  0  0  0  0  0  0  0  0  0
  -24.6940  -19.4907   21.1634 C   0  0  1  0  0  0  0  0  0  0  0  0
  -24.7967  -15.9416   19.8117 C   0  0  1  0  0  0  0  0  0  0  0  0
  -29.2345  -23.0782   18.8280 C   0  0  2  0  0  0  0  0  0  0  0  0
  -31.4674  -12.4044   26.8878 C   0  0  0  0  0  0  0  0  0  0  0  0
  -21.0160   -9.6749   22.3489 C   0  0  0  0  0  0  0  0  0  0  0  0
  -32.6331  -13.0468   19.9774 C   0  0  0  0  0  0  0  0  0  0  0  0
  -23.3219  -15.6082   24.1791 C   0  0  0  0  0  0  0  0  0  0  0  0
  -22.3493  -13.3929   24.8229 C   0  0  0  0  0  0  0  0  0  0  0  0
  -21.0535  -14.9446   23.3614 C   0  0  0  0  0  0  0  0  0  0  0  0
  -23.1623   -9.9199   19.2169 C   0  0  0  0  0  0  0  0  0  0  0  0
  -29.2408  -15.8399   23.6842 C   0  0  0  0  0  0  0  0  0  0  0  0
  -30.9759  -12.4907   25.4538 C   0  0  0  0  0  0  0  0  0  0  0  0
  -31.9596  -13.5344   22.3573 C   0  0  0  0  0  0  0  0  0  0  0  0
  -30.8799  -13.9854   23.3483 C   0  0  2  0  0  0  0  0  0  0  0  0
  -23.0652  -13.7405   22.4151 C   0  0  1  0  0  0  0  0  0  0  0  0
  -21.7556  -10.3874   21.2272 C   0  0  2  0  0  0  0  0  0  0  0  0
  -31.5393  -13.5986   20.8836 C   0  0  2  0  0  0  0  0  0  1  0  0
  -22.4717  -14.4229   23.6798 C   0  0  0  0  0  0  0  0  0  0  0  0
  -27.7224  -24.9619   19.3242 N   0  0  0  0  0  0  0  0  0  0  0  0
  -28.8888  -17.7820   22.1902 N   0  0  0  0  0  0  0  0  0  0  0  0
  -28.9881  -24.5203   19.2299 N   0  0  0  0  0  0  0  0  0  0  0  0
  -24.5381  -14.8773   20.7835 N   0  0  0  0  0  0  0  0  0  0  0  0
  -28.4097  -20.7583   18.9197 N   0  0  0  0  0  0  0  0  0  0  0  0
  -31.2463  -25.1921   19.4753 N   0  0  0  0  0  0  0  0  0  0  0  0
  -28.9301  -28.9373   20.4781 N   0  0  0  0  0  0  0  0  0  0  0  0
  -28.4789  -19.9588   21.1374 N   0  0  0  0  0  0  0  0  0  0  0  0
  -24.4313  -18.2350   20.4936 N   0  0  0  0  0  0  0  0  0  0  0  0
  -22.2665  -12.6317   21.9041 N   0  0  0  0  0  0  0  0  0  0  0  0
  -22.4168   -9.3602   20.3736 N   0  3  0  0  0  0  0  0  0  0  0  0
  -30.5472  -15.4203   23.1157 N   0  3  0  0  0  0  0  0  0  0  0  0
  -31.0341  -28.0511   20.2613 O   0  0  0  0  0  0  0  0  0  0  0  0
  -26.3112  -17.0726   21.2267 O   0  0  0  0  0  0  0  0  0  0  0  0
  -32.0346  -14.6559   25.3536 O   0  0  0  0  0  0  0  0  0  0  0  0
  -22.2415  -15.2789   20.8084 O   0  0  0  0  0  0  0  0  0  0  0  0
  -23.9313  -11.0252   22.0620 O   0  0  0  0  0  0  0  0  0  0  0  0
  -28.8122  -18.5223   19.3466 O   0  0  0  0  0  0  0  0  0  0  0  0
  -23.3852  -29.4742   20.4977 O   0  0  0  0  0  0  0  0  0  0  0  0
  -30.3546  -12.8244   20.7002 O   0  0  0  0  0  0  0  0  0  1  0  0
  -23.3138  -32.6687   24.9915 F   0  0  0  0  0  0  0  0  0  0  0  0
  -21.4002  -29.1990   22.4021 F   0  0  0  0  0  0  0  0  0  0  0  0
  -28.4514  -19.7651   23.7896 S   0  0  0  0  0  0  0  0  0  0  0  0
  1  2  1  0  0  0  0
  1  5  2  0  0  0  0
  2  6  2  0  0  0  0
  3  8  2  0  0  0  0
  3 16  1  0  0  0  0
  4  9  1  0  0  0  0
  4 16  2  0  0  0  0
  5 18  1  0  0  0  0
  6 20  1  0  0  0  0
  7 10  2  0  0  0  0
  7 19  1  0  0  0  0
  8 22  1  0  0  0  0
  9 22  2  0  0  0  0
 10 23  1  0  0  0  0
 11 12  2  0  0  0  0
 11 24  1  0  0  0  0
 12 25  1  0  0  0  0
 13 21  1  0  0  0  0
 13 23  2  0  0  0  0
 14 25  2  0  0  0  0
 14 26  1  0  0  0  0
 15 28  2  0  0  0  0
 15 86  1  0  0  0  0
 16 27  1  0  0  0  0
 17 27  1  0  0  0  0
 17 29  2  0  0  0  0
 17 31  1  0  0  0  0
 18 20  2  0  0  0  0
 18 37  1  0  0  0  0
 19 21  2  0  0  0  0
 19 38  1  0  0  0  0
 20 46  1  0  0  0  0
 21 39  1  0  0  0  0
 22 82  1  0  0  0  0
 23 83  1  0  0  0  0
 24 26  2  0  0  0  0
 24 82  1  0  0  0  0
 25 84  1  0  0  0  0
 26 85  1  0  0  0  0
 27 64  2  0  0  0  0
 28 56  1  0  0  0  0
 28 65  1  0  0  0  0
 29 66  1  0  0  0  0
 29 69  1  0  0  0  0
 30 65  2  0  0  0  0
 30 71  1  0  0  0  0
 30 86  1  0  0  0  0
 31 70  1  0  0  0  0
 31 76  2  0  0  0  0
 32 47  1  0  0  0  0
 32 72  1  0  0  0  0
 32 77  2  0  0  0  0
 33 57  1  0  0  0  0
 33 59  1  0  0  0  0
 33 78  2  0  0  0  0
 34 60  1  0  0  0  0
 34 67  1  0  0  0  0
 34 79  2  0  0  0  0
 35 61  1  0  0  0  0
 35 73  1  0  0  0  0
 35 80  2  0  0  0  0
 36 68  1  0  0  0  0
 36 71  1  0  0  0  0
 36 81  2  0  0  0  0
 37 40  1  0  0  0  0
 38 47  1  0  0  0  0
 39 67  1  0  0  0  0
 40 42  1  0  0  0  0
 41 43  1  0  0  0  0
 41 44  1  0  0  0  0
 42 46  1  0  0  0  0
 43 48  1  0  0  0  0
 44 68  1  0  0  0  0
 45 48  1  0  0  0  0
 45 68  1  0  0  0  0
 46 72  1  0  0  0  0
 47 67  1  0  0  0  0
 48 66  1  0  0  0  0
 49 57  1  0  0  0  0
 50 61  1  0  0  0  0
 51 62  1  0  0  0  0
 52 63  1  0  0  0  0
 53 63  1  0  0  0  0
 54 63  1  0  0  0  0
 55 74  1  0  0  0  0
 56 75  1  0  0  0  0
 58 59  1  0  0  0  0
 58 62  1  0  0  0  0
 59 75  1  0  0  0  0
 60 63  1  0  0  0  0
 60 73  1  0  0  0  0
 61 74  1  0  0  0  0
 62 83  1  0  0  0  0
 64 66  1  0  0  0  0
M  CHG  2  74   1  75   1
M  ISO  4  36 100  62 101  71 100  83 101
M  END
> <Batch ID>
0190

> <Smiles>
CCC(=O)C(C[101CH:1](C)[101O:1]c1ccc2c(c1)CN(C(=O)C(NC(=O)C(C)NC)C(C)(C)C)C(C(=O)NC1CCCc3ccccc31)C2)NCc1csc([100NH:0][100C:0](=O)N2CCCC(n3nc(-c4ccc(Oc5ccc(F)cc5F)cc4)c(C(N)=O)c3N)C2)n1

> <Shape>
0.264

> <Color>
0.056

> <Negative vol penalty>
0.000

$$$$

  -OEChem-04052305213D

 85 93  0     1  0  0  0  0  0999 V2000
  -17.0869  -23.2208   24.5135 C   0  0  0  0  0  0  0  0  0  0  0  0
  -17.5280  -23.2039   23.1942 C   0  0  0  0  0  0  0  0  0  0  0  0
  -22.0961  -14.2796   18.9841 C   0  0  0  0  0  0  0  0  0  0  0  0
  -22.9668  -14.0528   21.2263 C   0  0  0  0  0  0  0  0  0  0  0  0
  -17.3003  -24.3492   25.3042 C   0  0  0  0  0  0  0  0  0  0  0  0
  -18.1819  -24.3159   22.6645 C   0  0  0  0  0  0  0  0  0  0  0  0
  -24.8586  -23.7780   20.0144 C   0  0  0  0  0  0  0  0  0  0  0  0
  -21.5993  -12.9777   19.0453 C   0  0  0  0  0  0  0  0  0  0  0  0
  -22.4699  -12.7509   21.2876 C   0  0  0  0  0  0  0  0  0  0  0  0
  -26.0535  -23.7123   19.2974 C   0  0  0  0  0  0  0  0  0  0  0  0
  -21.7450   -9.2426   21.9012 C   0  0  0  0  0  0  0  0  0  0  0  0
  -22.5809   -8.2533   22.4190 C   0  0  0  0  0  0  0  0  0  0  0  0
  -25.9712  -26.0996   18.9207 C   0  0  0  0  0  0  0  0  0  0  0  0
  -24.1906   -8.7000   20.6736 C   0  0  0  0  0  0  0  0  0  0  0  0
  -27.4001  -22.8207   22.9544 C   0  0  0  0  0  0  0  0  0  0  0  0
  -22.7800  -14.8172   20.0746 C   0  0  0  0  0  0  0  0  0  0  0  0
  -22.6300  -17.3442   20.3894 C   0  0  0  0  0  0  0  0  0  0  0  0
  -17.9656  -25.4718   24.7869 C   0  0  0  0  0  0  0  0  0  0  0  0
  -24.2227  -25.0086   20.2006 C   0  0  0  0  0  0  0  0  0  0  0  0
  -18.4031  -25.4608   23.4487 C   0  0  0  0  0  0  0  0  0  0  0  0
  -24.7807  -26.1735   19.6486 C   0  0  0  0  0  0  0  0  0  0  0  0
  -21.7861  -12.2134   20.1970 C   0  0  0  0  0  0  0  0  0  0  0  0
  -26.6082  -24.8702   18.7517 C   0  0  0  0  0  0  0  0  0  0  0  0
  -22.1318   -9.9606   20.7696 C   0  0  0  0  0  0  0  0  0  0  0  0
  -23.8037   -7.9820   21.8052 C   0  0  0  0  0  0  0  0  0  0  0  0
  -23.3547   -9.6893   20.1558 C   0  0  0  0  0  0  0  0  0  0  0  0
  -23.2940  -16.1618   20.0117 C   0  0  0  0  0  0  0  0  0  0  0  0
  -28.2130  -22.2656   21.9884 C   0  0  0  0  0  0  0  0  0  0  0  0
  -23.5385  -18.3433   20.1386 C   0  0  0  0  0  0  0  0  0  0  0  0
  -29.3640  -24.0912   22.3787 C   0  0  0  0  0  0  0  0  0  0  0  0
  -21.3100  -17.5235   20.9197 C   0  0  0  0  0  0  0  0  0  0  0  0
  -21.3301  -26.8751   21.6921 C   0  0  0  0  0  0  0  0  0  0  0  0
  -23.8213  -28.6176   22.1018 C   0  0  0  0  0  0  0  0  0  0  0  0
  -26.8605  -30.0357   22.7261 C   0  0  0  0  0  0  0  0  0  0  0  0
  -28.7086  -20.3971   20.3731 C   0  0  0  0  0  0  0  0  0  0  0  0
  -18.1312  -26.6863   25.6657 C   0  0  0  0  0  0  0  0  0  0  0  0
  -22.9022  -25.1176   20.9134 C   0  0  0  0  0  0  0  0  0  0  0  0
  -24.0437  -27.4701   19.8447 C   0  0  0  0  0  0  0  0  0  0  0  0
  -19.1641  -27.6809   25.1419 C   0  0  0  0  0  0  0  0  0  0  0  0
  -27.9424  -18.2410   17.6452 C   0  0  0  0  0  0  0  0  0  0  0  0
  -18.9572  -27.9301   23.6513 C   0  0  0  0  0  0  0  0  0  0  0  0
  -26.6101  -17.6051   18.0488 C   0  0  0  0  0  0  0  0  0  0  0  0
  -28.8627  -18.4412   18.8480 C   0  0  0  0  0  0  0  0  0  0  0  0
  -26.9325  -18.5367   20.3758 C   0  0  0  0  0  0  0  0  0  0  0  0
  -19.1382  -26.6381   22.8456 C   0  0  1  0  0  0  0  0  0  0  0  0
  -22.7591  -26.4187   21.7232 C   0  0  1  0  0  0  0  0  0  0  0  0
  -25.9464  -18.3748   19.2075 C   0  0  2  0  0  0  0  0  0  0  0  0
  -31.6097  -24.8658   23.2445 C   0  0  0  0  0  0  0  0  0  0  0  0
  -27.9137  -32.0429   23.8026 C   0  0  0  0  0  0  0  0  0  0  0  0
  -30.3774  -27.5593   20.2541 C   0  0  0  0  0  0  0  0  0  0  0  0
  -22.9910  -30.3279   19.7166 C   0  0  0  0  0  0  0  0  0  0  0  0
  -24.7951  -31.9478   20.3404 C   0  0  0  0  0  0  0  0  0  0  0  0
  -22.9169  -31.5058   21.9214 C   0  0  0  0  0  0  0  0  0  0  0  0
  -28.3456  -28.3620   24.6632 C   0  0  0  0  0  0  0  0  0  0  0  0
  -30.4210  -25.6924   18.5528 C   0  0  0  0  0  0  0  0  0  0  0  0
  -28.6971  -23.7769   18.4370 C   0  0  0  0  0  0  0  0  0  1  0  0
  -30.4450  -25.1442   22.2976 C   0  0  1  0  0  0  0  0  0  0  0  0
  -24.6856  -29.7334   21.5715 C   0  0  1  0  0  0  0  0  0  0  0  0
  -27.4656  -30.6028   23.9976 C   0  0  2  0  0  0  0  0  0  0  0  0
  -30.1201  -26.0786   20.0041 C   0  0  1  0  0  0  0  0  0  0  0  0
  -30.1320  -24.2301   18.1795 C   0  0  1  0  0  0  0  0  0  0  0  0
  -23.8533  -30.8514   20.8824 C   0  0  0  0  0  0  0  0  0  0  0  0
  -24.5290  -16.3871   19.5555 N   0  0  0  0  0  0  0  0  0  0  0  0
  -29.3394  -22.9930   21.6567 N   0  0  0  0  0  0  0  0  0  0  0  0
  -24.6481  -17.7227   19.6448 N   0  0  0  0  0  0  0  0  0  0  0  0
  -23.5451  -27.5607   21.2260 N   0  0  0  0  0  0  0  0  0  0  0  0
  -28.1679  -19.1813   19.9037 N   0  0  0  0  0  0  0  0  0  0  0  0
  -23.4884  -19.6833   20.2944 N   0  0  0  0  0  0  0  0  0  0  0  0
  -20.5089  -16.3902   21.1153 N   0  0  0  0  0  0  0  0  0  0  0  0
  -27.9440  -21.0274   21.3542 N   0  0  0  0  0  0  0  0  0  0  0  0
  -20.5442  -26.3319   22.6905 N   0  0  0  0  0  0  0  0  0  0  0  0
  -25.4913  -30.1956   22.6966 N   0  0  0  0  0  0  0  0  0  0  0  0
  -28.6468  -29.7953   24.4141 N   0  3  0  0  0  0  0  0  0  0  0  0
  -30.9929  -25.2991   20.9249 N   0  3  0  0  0  0  0  0  0  0  0  0
  -20.8484  -18.6567   21.1960 O   0  0  0  0  0  0  0  0  0  0  0  0
  -20.9663  -27.6634   20.8273 O   0  0  0  0  0  0  0  0  0  0  0  0
  -23.3966  -28.6815   23.2589 O   0  0  0  0  0  0  0  0  0  0  0  0
  -27.5354  -29.5071   21.8454 O   0  0  0  0  0  0  0  0  0  0  0  0
  -29.7576  -20.8596   19.9174 O   0  0  0  0  0  0  0  0  0  0  0  0
  -30.3930  -24.0653   16.7823 O   0  0  0  0  0  0  0  0  0  0  0  0
  -21.3012  -10.9430   20.2572 O   0  0  0  0  0  0  0  0  0  0  0  0
  -27.7773  -24.7995   18.0567 O   0  0  0  0  0  0  0  0  0  1  0  0
  -24.6070   -7.0330   22.3035 F   0  0  0  0  0  0  0  0  0  0  0  0
  -23.7323  -10.3765   19.0691 F   0  0  0  0  0  0  0  0  0  0  0  0
  -28.0642  -24.3130   23.4771 S   0  0  0  0  0  0  0  0  0  0  0  0
  1  2  1  0  0  0  0
  1  5  2  0  0  0  0
  2  6  2  0  0  0  0
  3  8  2  0  0  0  0
  3 16  1  0  0  0  0
  4  9  1  0  0  0  0
  4 16  2  0  0  0  0
  5 18  1  0  0  0  0
  6 20  1  0  0  0  0
  7 10  2  0  0  0  0
  7 19  1  0  0  0  0
  8 22  1  0  0  0  0
  9 22  2  0  0  0  0
 10 23  1  0  0  0  0
 11 12  2  0  0  0  0
 11 24  1  0  0  0  0
 12 25  1  0  0  0  0
 13 21  1  0  0  0  0
 13 23  2  0  0  0  0
 14 25  2  0  0  0  0
 14 26  1  0  0  0  0
 15 28  2  0  0  0  0
 15 85  1  0  0  0  0
 16 27  1  0  0  0  0
 17 27  1  0  0  0  0
 17 29  2  0  0  0  0
 17 31  1  0  0  0  0
 18 20  2  0  0  0  0
 18 36  1  0  0  0  0
 19 21  2  0  0  0  0
 19 37  1  0  0  0  0
 20 45  1  0  0  0  0
 21 38  1  0  0  0  0
 22 81  1  0  0  0  0
 23 82  1  0  0  0  0
 24 26  2  0  0  0  0
 24 81  1  0  0  0  0
 25 83  1  0  0  0  0
 26 84  1  0  0  0  0
 27 63  2  0  0  0  0
 28 64  1  0  0  0  0
 28 70  1  0  0  0  0
 29 65  1  0  0  0  0
 29 68  1  0  0  0  0
 30 57  1  0  0  0  0
 30 64  2  0  0  0  0
 30 85  1  0  0  0  0
 31 69  1  0  0  0  0
 31 75  2  0  0  0  0
 32 46  1  0  0  0  0
 32 71  1  0  0  0  0
 32 76  2  0  0  0  0
 33 58  1  0  0  0  0
 33 66  1  0  0  0  0
 33 77  2  0  0  0  0
 34 59  1  0  0  0  0
 34 72  1  0  0  0  0
 34 78  2  0  0  0  0
 35 67  1  0  0  0  0
 35 70  1  0  0  0  0
 35 79  2  0  0  0  0
 36 39  1  0  0  0  0
 37 46  1  0  0  0  0
 38 66  1  0  0  0  0
 39 41  1  0  0  0  0
 40 42  1  0  0  0  0
 40 43  1  0  0  0  0
 41 45  1  0  0  0  0
 42 47  1  0  0  0  0
 43 67  1  0  0  0  0
 44 47  1  0  0  0  0
 44 67  1  0  0  0  0
 45 71  1  0  0  0  0
 46 66  1  0  0  0  0
 47 65  1  0  0  0  0
 48 57  1  0  0  0  0
 49 59  1  0  0  0  0
 50 60  1  0  0  0  0
 51 62  1  0  0  0  0
 52 62  1  0  0  0  0
 53 62  1  0  0  0  0
 54 73  1  0  0  0  0
 55 60  1  0  0  0  0
 55 61  1  0  0  0  0
 56 61  1  0  0  0  0
 56 82  1  0  0  0  0
 57 74  1  0  0  0  0
 58 62  1  0  0  0  0
 58 72  1  0  0  0  0
 59 73  1  0  0  0  0
 60 74  1  0  0  0  0
 61 80  1  0  0  0  0
 63 65  1  0  0  0  0
M  CHG  2  73   1  74   1
M  ISO  4  35 100  56 101  70 100  82 101
M  END
> <Batch ID>
0190

> <Smiles>
CNC(C)C(=O)NC(C(=O)N1Cc2cc([101O:1][101CH2:1]C(O)CC(C)NC(C)c3nc([100NH:0][100C:0](=O)N4CCCC(n5nc(-c6ccc(Oc7ccc(F)cc7F)cc6)c(C(N)=O)c5N)C4)cs3)ccc2CC1C(=O)NC1CCCc2ccccc21)C(C)(C)C

> <Shape>
0.251

> <Color>
0.047

> <Negative vol penalty>
0.000

$$$$

  -OEChem-04052305213D

 89 97  0     1  0  0  0  0  0999 V2000
  -26.4693  -20.0018   30.3919 C   0  0  0  0  0  0  0  0  0  0  0  0
  -27.0762  -20.9939   29.6285 C   0  0  0  0  0  0  0  0  0  0  0  0
  -25.6330  -12.9689   21.8755 C   0  0  0  0  0  0  0  0  0  0  0  0
  -25.6715  -13.5548   19.5319 C   0  0  0  0  0  0  0  0  0  0  0  0
  -25.3077  -19.3827   29.9320 C   0  0  0  0  0  0  0  0  0  0  0  0
  -26.5225  -21.3668   28.4042 C   0  0  0  0  0  0  0  0  0  0  0  0
  -26.4801  -26.9720   25.9373 C   0  0  0  0  0  0  0  0  0  0  0  0
  -24.5790  -12.0868   21.6376 C   0  0  0  0  0  0  0  0  0  0  0  0
  -24.6175  -12.6727   19.2941 C   0  0  0  0  0  0  0  0  0  0  0  0
  -27.2860  -27.5795   24.9754 C   0  0  0  0  0  0  0  0  0  0  0  0
  -24.1720   -8.9706   20.3900 C   0  0  0  0  0  0  0  0  0  0  0  0
  -24.2411   -7.7056   20.9736 C   0  0  0  0  0  0  0  0  0  0  0  0
  -25.6701  -27.0168   23.2749 C   0  0  0  0  0  0  0  0  0  0  0  0
  -31.2932  -23.6186   20.5331 C   0  0  0  0  0  0  0  0  0  0  0  0
  -22.1872   -8.1444   22.1677 C   0  0  0  0  0  0  0  0  0  0  0  0
  -29.4743  -24.2586   19.3704 C   0  0  0  0  0  0  0  0  0  0  0  0
  -26.1793  -13.7029   20.8226 C   0  0  0  0  0  0  0  0  0  0  0  0
  -28.6449  -14.3274   21.0184 C   0  0  0  0  0  0  0  0  0  0  0  0
  -24.7341  -19.7549   28.7060 C   0  0  0  0  0  0  0  0  0  0  0  0
  -25.2663  -26.3717   25.5729 C   0  0  0  0  0  0  0  0  0  0  0  0
  -25.3529  -20.7511   27.9269 C   0  0  0  0  0  0  0  0  0  0  0  0
  -24.8494  -26.4046   24.2345 C   0  0  0  0  0  0  0  0  0  0  0  0
  -30.3816  -24.6812   20.3168 C   0  0  0  0  0  0  0  0  0  0  0  0
  -24.0713  -11.9387   20.3469 C   0  0  0  0  0  0  0  0  0  0  0  0
  -26.8824  -27.5995   23.6435 C   0  0  0  0  0  0  0  0  0  0  0  0
  -23.1105   -9.8226   20.6953 C   0  0  0  0  0  0  0  0  0  0  0  0
  -23.2487   -7.2925   21.8624 C   0  0  0  0  0  0  0  0  0  0  0  0
  -22.1181   -9.4094   21.5841 C   0  0  0  0  0  0  0  0  0  0  0  0
  -27.2677  -14.6147   21.0678 C   0  0  0  0  0  0  0  0  0  0  0  0
  -30.9154  -22.5790   19.7121 C   0  0  0  0  0  0  0  0  0  0  0  0
  -29.2555  -15.5187   21.3255 C   0  0  0  0  0  0  0  0  0  0  0  0
  -29.3126  -13.0938   20.7214 C   0  0  0  0  0  0  0  0  0  0  0  0
  -24.0974  -23.4185   25.6995 C   0  0  0  0  0  0  0  0  0  0  0  0
  -21.3762  -24.8705   24.6947 C   0  0  0  0  0  0  0  0  0  0  0  0
  -29.4847  -26.9973   20.7318 C   0  0  0  0  0  0  0  0  0  0  0  0
  -19.9219  -27.5145   23.1007 C   0  0  0  0  0  0  0  0  0  0  0  0
  -27.5356  -21.2315   20.8182 C   0  0  0  0  0  0  0  0  0  0  0  0
  -23.5043  -19.0241   28.2283 C   0  0  0  0  0  0  0  0  0  0  0  0
  -24.3958  -25.7439   26.6267 C   0  0  0  0  0  0  0  0  0  0  0  0
  -23.5456  -25.7921   23.7948 C   0  0  0  0  0  0  0  0  0  0  0  0
  -22.7722  -19.7394   27.0958 C   0  0  0  0  0  0  0  0  0  0  0  0
  -28.5556  -19.5588   23.7911 C   0  0  0  0  0  0  0  0  0  0  0  0
  -23.7599  -20.1998   26.0285 C   0  0  0  0  0  0  0  0  0  0  0  0
  -28.4654  -18.0760   23.4258 C   0  0  0  0  0  0  0  0  0  0  0  0
  -27.4382  -20.3697   23.1386 C   0  0  0  0  0  0  0  0  0  0  0  0
  -27.2404  -18.7282   21.3109 C   0  0  0  0  0  0  0  0  0  0  0  0
  -24.7687  -21.2005   26.6053 C   0  0  1  0  0  0  0  0  0  0  0  0
  -23.4243  -24.7120   26.0622 C   0  0  1  0  0  0  0  0  0  0  0  0
  -28.3792  -17.8786   21.9004 C   0  0  2  0  0  0  0  0  0  0  0  0
  -17.6818  -28.4035   22.4016 C   0  0  0  0  0  0  0  0  0  0  0  0
  -29.1571  -22.8367   16.6480 C   0  0  0  0  0  0  0  0  0  0  0  0
  -21.2891  -22.8485   22.4112 C   0  0  0  0  0  0  0  0  0  0  0  0
  -19.6410  -24.3341   21.2514 C   0  0  0  0  0  0  0  0  0  0  0  0
  -19.0720  -23.3304   23.4631 C   0  0  0  0  0  0  0  0  0  0  0  0
  -20.2456  -29.9518   24.7480 C   0  0  0  0  0  0  0  0  0  0  0  0
  -27.6294  -21.9400   18.4415 C   0  0  0  0  0  0  0  0  0  0  0  0
  -29.0759  -28.1800   22.9311 C   0  0  0  0  0  0  0  0  0  1  0  0
  -20.7728  -25.1976   23.3501 C   0  0  1  0  0  0  0  0  0  0  0  0
  -29.8282  -28.1986   21.6046 C   0  0  2  0  0  0  0  0  0  0  0  0
  -18.7507  -28.4011   23.4834 C   0  0  2  0  0  0  0  0  0  0  0  0
  -29.0906  -22.1886   18.0350 C   0  0  2  0  0  0  0  0  0  0  0  0
  -31.5165  -21.2406   19.5403 C   0  0  0  0  0  0  0  0  0  0  0  0
  -20.2193  -23.9376   22.6266 C   0  0  0  0  0  0  0  0  0  0  0  0
  -27.0177  -15.8887   21.3817 N   0  0  0  0  0  0  0  0  0  0  0  0
  -29.8088  -22.9794   19.0098 N   0  0  0  0  0  0  0  0  0  0  0  0
  -28.2462  -16.4124   21.5324 N   0  0  0  0  0  0  0  0  0  0  0  0
  -22.7325  -25.1847   24.8613 N   0  0  0  0  0  0  0  0  0  0  0  0
  -27.4118  -20.1389   21.6922 N   0  0  0  0  0  0  0  0  0  0  0  0
  -30.5519  -15.8786   21.4360 N   0  0  0  0  0  0  0  0  0  0  0  0
  -28.5336  -11.9663   20.4275 N   0  0  0  0  0  0  0  0  0  0  0  0
  -30.3780  -25.9510   20.9413 N   0  0  0  0  0  0  0  0  0  0  0  0
  -24.1639  -22.5086   26.7373 N   0  0  0  0  0  0  0  0  0  0  0  0
  -19.7753  -26.2344   23.5917 N   0  0  0  0  0  0  0  0  0  0  0  0
  -27.5071  -20.9243   19.4633 N   0  0  0  0  0  0  0  0  0  0  0  0
  -29.5123  -29.4689   20.8895 N   0  3  0  0  0  0  0  0  0  0  0  0
  -19.2095  -29.8033   23.6938 N   0  3  0  0  0  0  0  0  0  0  0  0
  -30.5627  -12.9903   20.7329 O   0  0  0  0  0  0  0  0  0  0  0  0
  -24.5234  -23.2574   24.5619 O   0  0  0  0  0  0  0  0  0  0  0  0
  -20.6685  -24.3617   25.5675 O   0  0  0  0  0  0  0  0  0  0  0  0
  -28.5274  -27.0145   19.9635 O   0  0  0  0  0  0  0  0  0  0  0  0
  -20.8702  -27.9162   22.4298 O   0  0  0  0  0  0  0  0  0  0  0  0
  -27.6676  -22.3940   21.2158 O   0  0  0  0  0  0  0  0  0  0  0  0
  -23.0429  -11.0778   20.1144 O   0  0  0  0  0  0  0  0  0  0  0  0
  -27.6673  -28.1913   22.7025 O   0  0  0  0  0  0  0  0  0  1  0  0
  -23.3144   -6.0771   22.4216 F   0  0  0  0  0  0  0  0  0  0  0  0
  -21.0953  -10.2230   21.8804 F   0  0  0  0  0  0  0  0  0  0  0  0
  -32.6183  -21.0146   20.3256 F   0  0  0  0  0  0  0  0  0  0  0  0
  -30.6683  -20.2030   19.8328 F   0  0  0  0  0  0  0  0  0  0  0  0
  -31.9403  -21.0001   18.2595 F   0  0  0  0  0  0  0  0  0  0  0  0
  1  2  1  0  0  0  0
  1  5  2  0  0  0  0
  2  6  2  0  0  0  0
  3  8  2  0  0  0  0
  3 17  1  0  0  0  0
  4  9  1  0  0  0  0
  4 17  2  0  0  0  0
  5 19  1  0  0  0  0
  6 21  1  0  0  0  0
  7 10  2  0  0  0  0
  7 20  1  0  0  0  0
  8 24  1  0  0  0  0
  9 24  2  0  0  0  0
 10 25  1  0  0  0  0
 11 12  2  0  0  0  0
 11 26  1  0  0  0  0
 12 27  1  0  0  0  0
 13 22  1  0  0  0  0
 13 25  2  0  0  0  0
 14 23  1  0  0  0  0
 14 30  2  0  0  0  0
 15 27  2  0  0  0  0
 15 28  1  0  0  0  0
 16 23  2  0  0  0  0
 16 65  1  0  0  0  0
 17 29  1  0  0  0  0
 18 29  1  0  0  0  0
 18 31  2  0  0  0  0
 18 32  1  0  0  0  0
 19 21  2  0  0  0  0
 19 38  1  0  0  0  0
 20 22  2  0  0  0  0
 20 39  1  0  0  0  0
 21 47  1  0  0  0  0
 22 40  1  0  0  0  0
 23 71  1  0  0  0  0
 24 83  1  0  0  0  0
 25 84  1  0  0  0  0
 26 28  2  0  0  0  0
 26 83  1  0  0  0  0
 27 85  1  0  0  0  0
 28 86  1  0  0  0  0
 29 64  2  0  0  0  0
 30 62  1  0  0  0  0
 30 65  1  0  0  0  0
 31 66  1  0  0  0  0
 31 69  1  0  0  0  0
 32 70  1  0  0  0  0
 32 77  2  0  0  0  0
 33 48  1  0  0  0  0
 33 72  1  0  0  0  0
 33 78  2  0  0  0  0
 34 58  1  0  0  0  0
 34 67  1  0  0  0  0
 34 79  2  0  0  0  0
 35 59  1  0  0  0  0
 35 71  1  0  0  0  0
 35 80  2  0  0  0  0
 36 60  1  0  0  0  0
 36 73  1  0  0  0  0
 36 81  2  0  0  0  0
 37 68  1  0  0  0  0
 37 74  1  0  0  0  0
 37 82  2  0  0  0  0
 38 41  1  0  0  0  0
 39 48  1  0  0  0  0
 40 67  1  0  0  0  0
 41 43  1  0  0  0  0
 42 44  1  0  0  0  0
 42 45  1  0  0  0  0
 43 47  1  0  0  0  0
 44 49  1  0  0  0  0
 45 68  1  0  0  0  0
 46 49  1  0  0  0  0
 46 68  1  0  0  0  0
 47 72  1  0  0  0  0
 48 67  1  0  0  0  0
 49 66  1  0  0  0  0
 50 60  1  0  0  0  0
 51 61  1  0  0  0  0
 52 63  1  0  0  0  0
 53 63  1  0  0  0  0
 54 63  1  0  0  0  0
 55 76  1  0  0  0  0
 56 61  1  0  0  0  0
 56 74  1  0  0  0  0
 57 59  1  0  0  0  0
 57 84  1  0  0  0  0
 58 63  1  0  0  0  0
 58 73  1  0  0  0  0
 59 75  1  0  0  0  0
 60 76  1  0  0  0  0
 61 65  1  0  0  0  0
 62 87  1  0  0  0  0
 62 88  1  0  0  0  0
 62 89  1  0  0  0  0
 64 66  1  0  0  0  0
M  CHG  2  75   1  76   1
M  ISO  4  37 100  57 101  74 100  84 101
M  END
> <Batch ID>
0190

> <Smiles>
CNC(C)C(=O)NC(C(=O)N1Cc2cc([101O:1][101CH2:1]C(N)C(=O)Nc3cc(C(F)(F)F)n(C(C)C[100NH:0][100C:0](=O)N4CCCC(n5nc(-c6ccc(Oc7ccc(F)cc7F)cc6)c(C(N)=O)c5N)C4)c3)ccc2CC1C(=O)NC1CCCc2ccccc21)C(C)(C)C

> <Shape>
0.217

> <Color>
0.046

> <Negative vol penalty>
0.000

$$$$

  -OEChem-04052305213D

 82 90  0     1  0  0  0  0  0999 V2000
  -21.4224  -18.7745   19.3025 C   0  0  0  0  0  0  0  0  0  0  0  0
  -22.6459  -19.4356   19.3398 C   0  0  0  0  0  0  0  0  0  0  0  0
  -26.4441  -12.3233   21.5855 C   0  0  0  0  0  0  0  0  0  0  0  0
  -25.7882  -13.2584   19.4565 C   0  0  0  0  0  0  0  0  0  0  0  0
  -20.2565  -19.4838   19.0168 C   0  0  0  0  0  0  0  0  0  0  0  0
  -22.7044  -20.8063   19.0902 C   0  0  0  0  0  0  0  0  0  0  0  0
  -26.4988  -24.8599   21.6741 C   0  0  0  0  0  0  0  0  0  0  0  0
  -25.2541  -11.5973   21.6333 C   0  0  0  0  0  0  0  0  0  0  0  0
  -24.5982  -12.5324   19.5043 C   0  0  0  0  0  0  0  0  0  0  0  0
  -27.6967  -25.4295   21.2447 C   0  0  0  0  0  0  0  0  0  0  0  0
  -24.0057   -8.7678   20.2665 C   0  0  0  0  0  0  0  0  0  0  0  0
  -24.0789   -7.4271   20.6444 C   0  0  0  0  0  0  0  0  0  0  0  0
  -26.4854  -27.3525   20.4359 C   0  0  0  0  0  0  0  0  0  0  0  0
  -22.6249   -7.8766   22.5208 C   0  0  0  0  0  0  0  0  0  0  0  0
  -26.7112  -13.1539   20.4971 C   0  0  0  0  0  0  0  0  0  0  0  0
  -29.1654  -13.4934   19.8892 C   0  0  0  0  0  0  0  0  0  0  0  0
  -20.2995  -20.8657   18.7732 C   0  0  0  0  0  0  0  0  0  0  0  0
  -25.2820  -25.5286   21.4776 C   0  0  0  0  0  0  0  0  0  0  0  0
  -21.5382  -21.5345   18.7997 C   0  0  0  0  0  0  0  0  0  0  0  0
  -25.2737  -26.7904   20.8661 C   0  0  0  0  0  0  0  0  0  0  0  0
  -24.3311  -11.7019   20.5927 C   0  0  0  0  0  0  0  0  0  0  0  0
  -27.6898  -26.6746   20.6229 C   0  0  0  0  0  0  0  0  0  0  0  0
  -23.2421   -9.6629   21.0158 C   0  0  0  0  0  0  0  0  0  0  0  0
  -23.3885   -6.9815   21.7716 C   0  0  0  0  0  0  0  0  0  0  0  0
  -22.5517   -9.2173   22.1429 C   0  0  0  0  0  0  0  0  0  0  0  0
  -27.9401  -13.9045   20.4474 C   0  0  0  0  0  0  0  0  0  0  0  0
  -30.0103  -14.5565   20.0949 C   0  0  0  0  0  0  0  0  0  0  0  0
  -27.8481  -21.5491   18.9605 C   0  0  0  0  0  0  0  0  0  0  0  0
  -28.3102  -23.4787   18.0669 C   0  0  0  0  0  0  0  0  0  0  0  0
  -29.5090  -12.2608   19.2424 C   0  0  0  0  0  0  0  0  0  0  0  0
  -22.6146  -24.9048   19.8652 C   0  0  0  0  0  0  0  0  0  0  0  0
  -21.5650  -27.6064   21.3219 C   0  0  0  0  0  0  0  0  0  0  0  0
  -22.3318  -30.5765   22.8177 C   0  0  0  0  0  0  0  0  0  0  0  0
  -29.0950  -20.4151   20.8328 C   0  0  0  0  0  0  0  0  0  0  0  0
  -19.0191  -21.5811   18.4220 C   0  0  0  0  0  0  0  0  0  0  0  0
  -24.0014  -24.9127   21.9706 C   0  0  0  0  0  0  0  0  0  0  0  0
  -23.9963  -27.5584   20.6498 C   0  0  0  0  0  0  0  0  0  0  0  0
  -19.1183  -23.0999   18.5385 C   0  0  0  0  0  0  0  0  0  0  0  0
  -30.7601  -18.2194   23.0875 C   0  0  0  0  0  0  0  0  0  0  0  0
  -20.3955  -23.6040   17.8739 C   0  0  0  0  0  0  0  0  0  0  0  0
  -30.3423  -16.8261   22.6118 C   0  0  0  0  0  0  0  0  0  0  0  0
  -29.6223  -19.2298   22.9523 C   0  0  0  0  0  0  0  0  0  0  0  0
  -28.5957  -17.9110   21.1423 C   0  0  0  0  0  0  0  0  0  0  0  0
  -21.6393  -23.0251   18.5589 C   0  0  1  0  0  0  0  0  0  0  0  0
  -22.7655  -25.4515   21.2566 C   0  0  1  0  0  0  0  0  0  0  0  0
  -29.7290  -16.8736   21.1986 C   0  0  2  0  0  0  0  0  0  0  0  0
  -21.2601  -32.5854   23.8726 C   0  0  0  0  0  0  0  0  0  0  0  0
  -31.3027  -24.5024   17.9177 C   0  0  0  0  0  0  0  0  0  0  0  0
  -29.1707  -29.0156   18.6274 C   0  0  0  0  0  0  0  0  0  0  0  0
  -20.8222  -28.6594   18.5561 C   0  0  0  0  0  0  0  0  0  0  0  0
  -20.6637  -30.9526   19.5483 C   0  0  0  0  0  0  0  0  0  0  0  0
  -19.1408  -29.1437   20.3429 C   0  0  0  0  0  0  0  0  0  0  0  0
  -23.6435  -30.0548   25.4189 C   0  0  0  0  0  0  0  0  0  0  0  0
  -30.1661  -26.7317   18.2357 C   0  0  0  0  0  0  0  0  0  0  0  0
  -21.5847  -29.0783   20.9869 C   0  0  1  0  0  0  0  0  0  0  0  0
  -21.8518  -31.2053   24.1133 C   0  0  2  0  0  0  0  0  0  0  0  0
  -30.0621  -25.2131   18.4518 C   0  0  1  0  0  0  0  0  0  0  0  0
  -28.9771  -27.5155   18.8086 C   0  0  1  0  0  0  0  0  0  1  0  0
  -20.5769  -29.4434   19.8607 C   0  0  0  0  0  0  0  0  0  0  0  0
  -27.9974  -15.1329   20.9688 N   0  0  0  0  0  0  0  0  0  0  0  0
  -28.7092  -22.6329   18.9913 N   0  0  0  0  0  0  0  0  0  0  0  0
  -26.8373  -21.5049   18.0928 N   0  0  0  0  0  0  0  0  0  0  0  0
  -29.2688  -15.5028   20.7391 N   0  0  0  0  0  0  0  0  0  0  0  0
  -22.7696  -26.9114   21.1437 N   0  0  0  0  0  0  0  0  0  0  0  0
  -29.0937  -19.2223   21.5865 N   0  0  0  0  0  0  0  0  0  0  0  0
  -31.3078  -14.7649   19.7859 N   0  0  0  0  0  0  0  0  0  0  0  0
  -28.5208  -11.2751   19.1148 N   0  0  0  0  0  0  0  0  0  0  0  0
  -28.0809  -20.4957   19.8791 N   0  0  0  0  0  0  0  0  0  0  0  0
  -28.8968  -24.6949   17.7661 N   0  0  0  0  0  0  0  0  0  0  0  0
  -21.9034  -23.7219   19.7996 N   0  0  0  0  0  0  0  0  0  0  0  0
  -21.3595  -29.7858   22.2428 N   0  0  0  0  0  0  0  0  0  0  0  0
  -22.9831  -31.3400   25.0740 N   0  3  0  0  0  0  0  0  0  0  0  0
  -30.6627  -12.0336   18.8057 O   0  0  0  0  0  0  0  0  0  0  0  0
  -23.1057  -25.5121   18.9209 O   0  0  0  0  0  0  0  0  0  0  0  0
  -20.5212  -27.0938   21.7334 O   0  0  0  0  0  0  0  0  0  0  0  0
  -23.4556  -30.7705   22.3595 O   0  0  0  0  0  0  0  0  0  0  0  0
  -29.9504  -21.2880   21.0010 O   0  0  0  0  0  0  0  0  0  0  0  0
  -23.1698  -10.9935   20.6389 O   0  0  0  0  0  0  0  0  0  0  0  0
  -28.8575  -27.2326   20.2021 O   0  0  0  0  0  0  0  0  0  1  0  0
  -23.4576   -5.6937   22.1335 F   0  0  0  0  0  0  0  0  0  0  0  0
  -21.8155  -10.0723   22.8660 F   0  0  0  0  0  0  0  0  0  0  0  0
  -26.9275  -22.9262   17.2138 S   0  0  0  0  0  0  0  0  0  0  0  0
  1  2  1  0  0  0  0
  1  5  2  0  0  0  0
  2  6  2  0  0  0  0
  3  8  2  0  0  0  0
  3 15  1  0  0  0  0
  4  9  1  0  0  0  0
  4 15  2  0  0  0  0
  5 17  1  0  0  0  0
  6 19  1  0  0  0  0
  7 10  2  0  0  0  0
  7 18  1  0  0  0  0
  8 21  1  0  0  0  0
  9 21  2  0  0  0  0
 10 22  1  0  0  0  0
 11 12  2  0  0  0  0
 11 23  1  0  0  0  0
 12 24  1  0  0  0  0
 13 20  1  0  0  0  0
 13 22  2  0  0  0  0
 14 24  2  0  0  0  0
 14 25  1  0  0  0  0
 15 26  1  0  0  0  0
 16 26  1  0  0  0  0
 16 27  2  0  0  0  0
 16 30  1  0  0  0  0
 17 19  2  0  0  0  0
 17 35  1  0  0  0  0
 18 20  2  0  0  0  0
 18 36  1  0  0  0  0
 19 44  1  0  0  0  0
 20 37  1  0  0  0  0
 21 78  1  0  0  0  0
 22 79  1  0  0  0  0
 23 25  2  0  0  0  0
 23 78  1  0  0  0  0
 24 80  1  0  0  0  0
 25 81  1  0  0  0  0
 26 60  2  0  0  0  0
 27 63  1  0  0  0  0
 27 66  1  0  0  0  0
 28 61  1  0  0  0  0
 28 62  2  0  0  0  0
 28 68  1  0  0  0  0
 29 61  2  0  0  0  0
 29 69  1  0  0  0  0
 29 82  1  0  0  0  0
 30 67  1  0  0  0  0
 30 73  2  0  0  0  0
 31 45  1  0  0  0  0
 31 70  1  0  0  0  0
 31 74  2  0  0  0  0
 32 55  1  0  0  0  0
 32 64  1  0  0  0  0
 32 75  2  0  0  0  0
 33 56  1  0  0  0  0
 33 71  1  0  0  0  0
 33 76  2  0  0  0  0
 34 65  1  0  0  0  0
 34 68  1  0  0  0  0
 34 77  2  0  0  0  0
 35 38  1  0  0  0  0
 36 45  1  0  0  0  0
 37 64  1  0  0  0  0
 38 40  1  0  0  0  0
 39 41  1  0  0  0  0
 39 42  1  0  0  0  0
 40 44  1  0  0  0  0
 41 46  1  0  0  0  0
 42 65  1  0  0  0  0
 43 46  1  0  0  0  0
 43 65  1  0  0  0  0
 44 70  1  0  0  0  0
 45 64  1  0  0  0  0
 46 63  1  0  0  0  0
 47 56  1  0  0  0  0
 48 57  1  0  0  0  0
 49 58  1  0  0  0  0
 50 59  1  0  0  0  0
 51 59  1  0  0  0  0
 52 59  1  0  0  0  0
 53 72  1  0  0  0  0
 54 57  1  0  0  0  0
 54 58  1  0  0  0  0
 55 59  1  0  0  0  0
 55 71  1  0  0  0  0
 56 72  1  0  0  0  0
 57 69  1  0  0  0  0
 58 79  1  0  0  0  0
 60 63  1  0  0  0  0
 62 82  1  0  0  0  0
M  CHG  1  72   1
M  ISO  4  34 100  58 101  68 100  79 101
M  END
> <Batch ID>
0190

> <Smiles>
CNC(C)C(=O)NC(C(=O)N1Cc2cc([101O:1][101CH:1](C)CC(C)Nc3nc([100NH:0][100C:0](=O)N4CCCC(n5nc(-c6ccc(Oc7ccc(F)cc7F)cc6)c(C(N)=O)c5N)C4)ns3)ccc2CC1C(=O)NC1CCCc2ccccc21)C(C)(C)C

> <Shape>
0.251

> <Color>
0.084

> <Negative vol penalty>
0.000

$$$$

  -OEChem-04052305213D

 88 96  0     1  0  0  0  0  0999 V2000
  -25.2785  -36.5317   20.6896 C   0  0  0  0  0  0  0  0  0  0  0  0
  -25.9323  -35.6299   19.8561 C   0  0  0  0  0  0  0  0  0  0  0  0
  -23.1823   -9.7825   21.5679 C   0  0  0  0  0  0  0  0  0  0  0  0
  -23.7906  -10.9834   23.5741 C   0  0  0  0  0  0  0  0  0  0  0  0
  -25.1526  -36.2562   22.0505 C   0  0  0  0  0  0  0  0  0  0  0  0
  -26.4615  -34.4524   20.3833 C   0  0  0  0  0  0  0  0  0  0  0  0
  -27.6819  -27.6110   18.6450 C   0  0  0  0  0  0  0  0  0  0  0  0
  -22.4629   -8.8659   22.3345 C   0  0  0  0  0  0  0  0  0  0  0  0
  -23.0711  -10.0668   24.3409 C   0  0  0  0  0  0  0  0  0  0  0  0
  -28.7111  -26.6706   18.6301 C   0  0  0  0  0  0  0  0  0  0  0  0
  -23.1262   -6.1813   24.2781 C   0  0  0  0  0  0  0  0  0  0  0  0
  -23.2886   -4.8266   23.9885 C   0  0  0  0  0  0  0  0  0  0  0  0
  -28.3642  -26.2626   20.9822 C   0  0  0  0  0  0  0  0  0  0  0  0
  -20.9278   -4.6464   23.5074 C   0  0  0  0  0  0  0  0  0  0  0  0
  -30.7794  -18.9399   17.9442 C   0  0  0  0  0  0  0  0  0  0  0  0
  -23.8462  -10.8413   22.1876 C   0  0  0  0  0  0  0  0  0  0  0  0
  -24.1101  -12.9828   20.8269 C   0  0  0  0  0  0  0  0  0  0  0  0
  -25.6721  -35.0702   22.5930 C   0  0  0  0  0  0  0  0  0  0  0  0
  -26.9923  -27.8926   19.8331 C   0  0  0  0  0  0  0  0  0  0  0  0
  -26.3436  -34.1614   21.7531 C   0  0  0  0  0  0  0  0  0  0  0  0
  -27.3250  -27.2052   21.0090 C   0  0  0  0  0  0  0  0  0  0  0  0
  -29.3235  -18.4352   19.6843 C   0  0  0  0  0  0  0  0  0  0  0  0
  -29.7776  -19.4192   18.7593 C   0  0  0  0  0  0  0  0  0  0  0  0
  -22.4073   -9.0081   23.7210 C   0  0  0  0  0  0  0  0  0  0  0  0
  -29.0543  -25.9983   19.7995 C   0  0  0  0  0  0  0  0  0  0  0  0
  -21.8646   -6.7687   24.1824 C   0  0  0  0  0  0  0  0  0  0  0  0
  -22.1894   -4.0591   23.6032 C   0  0  0  0  0  0  0  0  0  0  0  0
  -20.7654   -6.0012   23.7971 C   0  0  0  0  0  0  0  0  0  0  0  0
  -24.5900  -11.7881   21.3962 C   0  0  0  0  0  0  0  0  0  0  0  0
  -25.1978  -13.5157   20.1792 C   0  0  0  0  0  0  0  0  0  0  0  0
  -29.9953  -17.2410   19.5407 C   0  0  0  0  0  0  0  0  0  0  0  0
  -22.7985  -13.5594   20.8788 C   0  0  0  0  0  0  0  0  0  0  0  0
  -26.6031  -30.4772   21.6420 C   0  0  0  0  0  0  0  0  0  0  0  0
  -24.5412  -28.5610   23.2541 C   0  0  0  0  0  0  0  0  0  0  0  0
  -29.6862  -21.7336   17.7726 C   0  0  0  0  0  0  0  0  0  0  0  0
  -23.5722  -25.3949   24.0810 C   0  0  0  0  0  0  0  0  0  0  0  0
  -30.6029  -14.8436   20.0196 C   0  0  0  0  0  0  0  0  0  0  0  0
  -25.5529  -34.8382   24.0785 C   0  0  0  0  0  0  0  0  0  0  0  0
  -25.8667  -28.8904   19.8266 C   0  0  0  0  0  0  0  0  0  0  0  0
  -26.6019  -27.4564   22.3061 C   0  0  0  0  0  0  0  0  0  0  0  0
  -25.8132  -33.3920   24.4919 C   0  0  0  0  0  0  0  0  0  0  0  0
  -29.7267  -11.5051   19.1456 C   0  0  0  0  0  0  0  0  0  0  0  0
  -27.0684  -32.8590   23.8083 C   0  0  0  0  0  0  0  0  0  0  0  0
  -28.2728  -11.3794   19.6063 C   0  0  0  0  0  0  0  0  0  0  0  0
  -30.5534  -12.3605   20.1039 C   0  0  0  0  0  0  0  0  0  0  0  0
  -28.5374  -13.5597   20.8567 C   0  0  0  0  0  0  0  0  0  0  0  0
  -26.9093  -32.8618   22.2831 C   0  0  1  0  0  0  0  0  0  0  0  0
  -25.5753  -29.4713   21.2068 C   0  0  1  0  0  0  0  0  0  0  0  0
  -27.6497  -12.7605   19.8887 C   0  0  2  0  0  0  0  0  0  0  0  0
  -28.2518  -18.6662   20.6856 C   0  0  0  0  0  0  0  0  0  0  0  0
  -27.5859  -22.9093   17.2111 C   0  0  0  0  0  0  0  0  0  0  0  0
  -21.8761  -24.1472   25.4462 C   0  0  0  0  0  0  0  0  0  0  0  0
  -32.1831  -26.8859   19.1809 C   0  0  0  0  0  0  0  0  0  0  0  0
  -32.1153  -26.1770   16.7853 C   0  0  0  0  0  0  0  0  0  0  0  0
  -26.0818  -29.2521   25.7954 C   0  0  0  0  0  0  0  0  0  0  0  0
  -24.9829  -27.2979   26.9098 C   0  0  0  0  0  0  0  0  0  0  0  0
  -23.5964  -29.1922   26.0660 C   0  0  0  0  0  0  0  0  0  0  0  0
  -31.7964  -23.7979   18.7695 C   0  0  0  0  0  0  0  0  0  0  0  0
  -22.4631  -24.0520   21.6882 C   0  0  0  0  0  0  0  0  0  0  0  0
  -29.6741  -24.2847   17.5251 C   0  0  0  0  0  0  0  0  0  0  0  0
  -24.6578  -27.6007   24.4130 C   0  0  1  0  0  0  0  0  0  0  0  0
  -28.9010  -23.0312   17.9880 C   0  0  2  0  0  0  0  0  0  0  0  0
  -22.2095  -24.7259   24.0799 C   0  0  2  0  0  0  0  0  0  0  0  0
  -31.3151  -26.2365   18.0904 C   0  0  0  0  0  0  0  0  0  0  0  0
  -24.8448  -28.3322   25.7722 C   0  0  0  0  0  0  0  0  0  0  0  0
  -30.7139  -24.8647   18.5280 C   0  0  2  0  0  0  0  0  0  1  0  0
  -25.8819  -11.5741   21.1332 N   0  0  0  0  0  0  0  0  0  0  0  0
  -26.2231  -12.6416   20.3914 N   0  0  0  0  0  0  0  0  0  0  0  0
  -25.5130  -28.4457   22.2501 N   0  0  0  0  0  0  0  0  0  0  0  0
  -29.9042  -13.6553   20.3207 N   0  0  0  0  0  0  0  0  0  0  0  0
  -25.3677  -14.6419   19.4545 N   0  0  0  0  0  0  0  0  0  0  0  0
  -21.7978  -12.8806   21.5876 N   0  0  0  0  0  0  0  0  0  0  0  0
  -29.2820  -20.7410   18.6601 N   0  0  0  0  0  0  0  0  0  0  0  0
  -29.8729  -16.0120   20.2352 N   0  0  0  0  0  0  0  0  0  0  0  0
  -26.0946  -31.7438   21.8579 N   0  0  0  0  0  0  0  0  0  0  0  0
  -23.4789  -26.7434   24.3531 N   0  0  0  0  0  0  0  0  0  0  0  0
  -22.1758  -23.6209   23.0805 N   0  3  0  0  0  0  0  0  0  0  0  0
  -22.5178  -14.6362   20.2998 O   0  0  0  0  0  0  0  0  0  0  0  0
  -27.7708  -30.1296   21.7737 O   0  0  0  0  0  0  0  0  0  0  0  0
  -23.6174  -29.3783   23.2366 O   0  0  0  0  0  0  0  0  0  0  0  0
  -30.5240  -21.6319   16.8808 O   0  0  0  0  0  0  0  0  0  0  0  0
  -24.6154  -24.7817   23.8659 O   0  0  0  0  0  0  0  0  0  0  0  0
  -31.7537  -14.8249   19.5755 O   0  0  0  0  0  0  0  0  0  0  0  0
  -21.7051   -8.1140   24.4695 O   0  0  0  0  0  0  0  0  0  0  0  0
  -30.0618  -25.0778   19.7878 O   0  0  0  0  0  0  0  0  0  1  0  0
  -22.3458   -2.7585   23.3236 F   0  0  0  0  0  0  0  0  0  0  0  0
  -19.5512   -6.5601   23.7022 F   0  0  0  0  0  0  0  0  0  0  0  0
  -31.1684  -17.3096   18.2951 S   0  0  0  0  0  0  0  0  0  0  0  0
  1  2  1  0  0  0  0
  1  5  2  0  0  0  0
  2  6  2  0  0  0  0
  3  8  2  0  0  0  0
  3 16  1  0  0  0  0
  4  9  1  0  0  0  0
  4 16  2  0  0  0  0
  5 18  1  0  0  0  0
  6 20  1  0  0  0  0
  7 10  2  0  0  0  0
  7 19  1  0  0  0  0
  8 24  1  0  0  0  0
  9 24  2  0  0  0  0
 10 25  1  0  0  0  0
 11 12  2  0  0  0  0
 11 26  1  0  0  0  0
 12 27  1  0  0  0  0
 13 21  1  0  0  0  0
 13 25  2  0  0  0  0
 14 27  2  0  0  0  0
 14 28  1  0  0  0  0
 15 23  2  0  0  0  0
 15 88  1  0  0  0  0
 16 29  1  0  0  0  0
 17 29  1  0  0  0  0
 17 30  2  0  0  0  0
 17 32  1  0  0  0  0
 18 20  2  0  0  0  0
 18 38  1  0  0  0  0
 19 21  2  0  0  0  0
 19 39  1  0  0  0  0
 20 47  1  0  0  0  0
 21 40  1  0  0  0  0
 22 23  1  0  0  0  0
 22 31  2  0  0  0  0
 22 50  1  0  0  0  0
 23 73  1  0  0  0  0
 24 84  1  0  0  0  0
 25 85  1  0  0  0  0
 26 28  2  0  0  0  0
 26 84  1  0  0  0  0
 27 86  1  0  0  0  0
 28 87  1  0  0  0  0
 29 67  2  0  0  0  0
 30 68  1  0  0  0  0
 30 71  1  0  0  0  0
 31 74  1  0  0  0  0
 31 88  1  0  0  0  0
 32 72  1  0  0  0  0
 32 78  2  0  0  0  0
 33 48  1  0  0  0  0
 33 75  1  0  0  0  0
 33 79  2  0  0  0  0
 34 61  1  0  0  0  0
 34 69  1  0  0  0  0
 34 80  2  0  0  0  0
 35 62  1  0  0  0  0
 35 73  1  0  0  0  0
 35 81  2  0  0  0  0
 36 63  1  0  0  0  0
 36 76  1  0  0  0  0
 36 82  2  0  0  0  0
 37 70  1  0  0  0  0
 37 74  1  0  0  0  0
 37 83  2  0  0  0  0
 38 41  1  0  0  0  0
 39 48  1  0  0  0  0
 40 69  1  0  0  0  0
 41 43  1  0  0  0  0
 42 44  1  0  0  0  0
 42 45  1  0  0  0  0
 43 47  1  0  0  0  0
 44 49  1  0  0  0  0
 45 70  1  0  0  0  0
 46 49  1  0  0  0  0
 46 70  1  0  0  0  0
 47 75  1  0  0  0  0
 48 69  1  0  0  0  0
 49 68  1  0  0  0  0
 51 62  1  0  0  0  0
 52 63  1  0  0  0  0
 53 64  1  0  0  0  0
 54 64  1  0  0  0  0
 55 65  1  0  0  0  0
 56 65  1  0  0  0  0
 57 65  1  0  0  0  0
 58 66  1  0  0  0  0
 59 77  1  0  0  0  0
 60 62  1  0  0  0  0
 60 66  1  0  0  0  0
 61 65  1  0  0  0  0
 61 76  1  0  0  0  0
 63 77  1  0  0  0  0
 64 66  1  0  0  0  0
 66 85  1  0  0  0  0
 67 68  1  0  0  0  0
M  CHG  1  77   1
M  ISO  4  37 100  66 101  74 100  85 101
M  END
> <Batch ID>
0190

> <Smiles>
CNC(C)C(=O)NC(C(=O)N1Cc2cc([101O:1][101C:1](C)(CC(C)C(=O)Nc3csc([100NH:0][100C:0](=O)N4CCCC(n5nc(-c6ccc(Oc7ccc(F)cc7F)cc6)c(C(N)=O)c5N)C4)c3C)C(C)C)ccc2CC1C(=O)NC1CCCc2ccccc21)C(C)(C)C

> <Shape>
0.322

> <Color>
0.158

> <Negative vol penalty>
0.000

$$$$

  -OEChem-04052305213D

 91 99  0     1  0  0  0  0  0999 V2000
  -22.3577  -27.6665   21.0504 C   0  0  0  0  0  0  0  0  0  0  0  0
  -22.5940  -26.2986   21.1434 C   0  0  0  0  0  0  0  0  0  0  0  0
  -23.4906   -9.7501   20.5856 C   0  0  0  0  0  0  0  0  0  0  0  0
  -24.0452  -10.3385   22.8623 C   0  0  0  0  0  0  0  0  0  0  0  0
  -23.4137  -28.5392   20.7913 C   0  0  0  0  0  0  0  0  0  0  0  0
  -23.8865  -25.8026   20.9762 C   0  0  0  0  0  0  0  0  0  0  0  0
  -28.1880  -20.5477   23.2563 C   0  0  0  0  0  0  0  0  0  0  0  0
  -31.7939  -14.9197   25.6591 C   0  0  0  0  0  0  0  0  0  0  0  0
  -22.8633   -8.5895   21.0383 C   0  0  0  0  0  0  0  0  0  0  0  0
  -23.4179   -9.1778   23.3150 C   0  0  0  0  0  0  0  0  0  0  0  0
  -29.0069  -19.5344   22.7600 C   0  0  0  0  0  0  0  0  0  0  0  0
  -19.9105   -7.7432   22.4519 C   0  0  0  0  0  0  0  0  0  0  0  0
  -18.6637   -7.4275   21.9120 C   0  0  0  0  0  0  0  0  0  0  0  0
  -31.0134  -14.3880   24.6386 C   0  0  0  0  0  0  0  0  0  0  0  0
  -30.7665  -21.1438   22.3948 C   0  0  0  0  0  0  0  0  0  0  0  0
  -19.5510   -5.3382   21.0847 C   0  0  0  0  0  0  0  0  0  0  0  0
  -24.0816  -10.6246   21.4976 C   0  0  0  0  0  0  0  0  0  0  0  0
  -24.1446  -13.0902   20.8460 C   0  0  0  0  0  0  0  0  0  0  0  0
  -24.7213  -28.0545   20.6304 C   0  0  0  0  0  0  0  0  0  0  0  0
  -28.6490  -21.8707   23.3156 C   0  0  0  0  0  0  0  0  0  0  0  0
  -24.9608  -26.6695   20.7133 C   0  0  0  0  0  0  0  0  0  0  0  0
  -29.9523  -22.1715   22.8947 C   0  0  0  0  0  0  0  0  0  0  0  0
  -33.0856  -15.3548   25.3841 C   0  0  0  0  0  0  0  0  0  0  0  0
  -22.8269   -8.3034   22.4030 C   0  0  0  0  0  0  0  0  0  0  0  0
  -30.2954  -19.8329   22.3264 C   0  0  0  0  0  0  0  0  0  0  0  0
  -20.9776   -6.8565   22.3080 C   0  0  0  0  0  0  0  0  0  0  0  0
  -18.4840   -6.2250   21.2285 C   0  0  0  0  0  0  0  0  0  0  0  0
  -20.7979   -5.6539   21.6245 C   0  0  0  0  0  0  0  0  0  0  0  0
  -24.7303  -11.8234   21.0304 C   0  0  0  0  0  0  0  0  0  0  0  0
  -31.5666  -14.3138   23.3705 C   0  0  0  0  0  0  0  0  0  0  0  0
  -33.5461  -15.2372   24.0826 C   0  0  0  0  0  0  0  0  0  0  0  0
  -25.1720  -13.8808   20.3923 C   0  0  0  0  0  0  0  0  0  0  0  0
  -22.7927  -13.5144   21.0652 C   0  0  0  0  0  0  0  0  0  0  0  0
  -27.7563  -24.6187   21.9909 C   0  0  0  0  0  0  0  0  0  0  0  0
  -30.0398  -25.8501   23.9381 C   0  0  0  0  0  0  0  0  0  0  0  0
  -32.9025  -25.3459   25.7262 C   0  0  0  0  0  0  0  0  0  0  0  0
  -31.1102  -13.6026   20.9972 C   0  0  0  0  0  0  0  0  0  0  0  0
  -25.8228  -29.0319   20.3048 C   0  0  0  0  0  0  0  0  0  0  0  0
  -27.7627  -22.9476   23.8786 C   0  0  0  0  0  0  0  0  0  0  0  0
  -30.5020  -23.5724   22.9564 C   0  0  0  0  0  0  0  0  0  0  0  0
  -27.2237  -28.4621   20.5122 C   0  0  0  0  0  0  0  0  0  0  0  0
  -29.2804  -13.6417   17.9431 C   0  0  0  0  0  0  0  0  0  0  0  0
  -27.3307  -27.0708   19.8961 C   0  0  0  0  0  0  0  0  0  0  0  0
  -27.8514  -13.3011   18.3722 C   0  0  0  0  0  0  0  0  0  0  0  0
  -30.3166  -12.8707   18.7591 C   0  0  0  0  0  0  0  0  0  0  0  0
  -28.7465  -12.6518   20.6448 C   0  0  0  0  0  0  0  0  0  0  0  0
  -26.3529  -26.0956   20.5626 C   0  0  1  0  0  0  0  0  0  0  0  0
  -28.1541  -24.3471   23.4141 C   0  0  1  0  0  0  0  0  0  0  0  0
  -27.6692  -13.4526   19.8952 C   0  0  2  0  0  0  0  0  0  0  0  0
  -36.6094  -13.6670   21.3361 C   0  0  0  0  0  0  0  0  0  0  0  0
  -34.5523  -26.5501   27.1841 C   0  0  0  0  0  0  0  0  0  0  0  0
  -37.5621  -16.8423   23.3769 C   0  0  0  0  0  0  0  0  0  0  0  0
  -35.3765  -18.4010   21.2129 C   0  0  0  0  0  0  0  0  0  0  0  0
  -32.5220  -17.2461   27.8727 C   0  0  0  0  0  0  0  0  0  0  0  0
  -34.6214  -16.1193   28.6906 C   0  0  0  0  0  0  0  0  0  0  0  0
  -31.2614  -27.1612   21.4685 C   0  0  0  0  0  0  0  0  0  0  0  0
  -33.3580  -27.5290   22.7867 C   0  0  0  0  0  0  0  0  0  0  0  0
  -31.2276  -28.6075   23.5086 C   0  0  0  0  0  0  0  0  0  0  0  0
  -32.3201  -23.5889   28.0354 C   0  0  0  0  0  0  0  0  0  0  0  0
  -37.2393  -14.5576   22.3978 C   0  0  0  0  0  0  0  0  0  0  0  0
  -33.1450  -17.6207   22.1231 C   0  0  0  0  0  0  0  0  0  0  0  0
  -32.5031  -19.0012   22.0257 C   0  0  0  0  0  0  0  0  0  1  0  0
  -31.5209  -26.1150   23.8146 C   0  0  1  0  0  0  0  0  0  0  0  0
  -33.2802  -25.7175   27.1487 C   0  0  2  0  0  0  0  0  0  0  0  0
  -36.7656  -16.0304   22.3444 C   0  0  1  0  0  0  0  0  0  0  0  0
  -34.6778  -17.6474   22.3528 C   0  0  1  0  0  0  0  0  0  0  0  0
  -33.4168  -16.0198   27.7661 C   0  0  0  0  0  0  0  0  0  0  0  0
  -35.2256  -16.1934   22.5045 C   0  0  2  0  0  0  0  0  0  0  0  0
  -31.8312  -27.3270   22.8915 C   0  0  0  0  0  0  0  0  0  0  0  0
  -26.0291  -11.8056   20.7192 N   0  0  0  0  0  0  0  0  0  0  0  0
  -32.8173  -14.7262   23.0651 N   0  0  0  0  0  0  0  0  0  0  0  0
  -26.2679  -13.0709   20.3344 N   0  0  0  0  0  0  0  0  0  0  0  0
  -29.5947  -24.5917   23.5089 N   0  0  0  0  0  0  0  0  0  0  0  0
  -30.0841  -13.0647   20.1919 N   0  0  0  0  0  0  0  0  0  0  0  0
  -25.2359  -15.1827   20.0410 N   0  0  0  0  0  0  0  0  0  0  0  0
  -21.8649  -12.5740   21.5335 N   0  0  0  0  0  0  0  0  0  0  0  0
  -33.8775  -15.8914   26.4166 N   0  0  0  0  0  0  0  0  0  0  0  0
  -30.7627  -13.7719   22.3371 N   0  0  0  0  0  0  0  0  0  0  0  0
  -34.8264  -15.6678   23.8004 N   0  0  0  0  0  0  0  0  0  0  0  0
  -26.8648  -25.6645   21.8457 N   0  0  0  0  0  0  0  0  0  0  0  0
  -32.0251  -26.2565   25.1763 N   0  0  0  0  0  0  0  0  0  0  0  0
  -33.4995  -24.4894   27.9640 N   0  3  0  0  0  0  0  0  0  0  0  0
  -22.4147  -14.6885   20.8366 O   0  0  0  0  0  0  0  0  0  0  0  0
  -28.2246  -23.9314   21.0909 O   0  0  0  0  0  0  0  0  0  0  0  0
  -29.3059  -26.7248   24.4049 O   0  0  0  0  0  0  0  0  0  0  0  0
  -33.3448  -24.3498   25.1581 O   0  0  0  0  0  0  0  0  0  0  0  0
  -32.2066  -13.9172   20.5271 O   0  0  0  0  0  0  0  0  0  0  0  0
  -22.2146   -7.1710   22.8452 O   0  0  0  0  0  0  0  0  0  0  0  0
  -31.1020  -18.8393   21.8376 O   0  0  0  0  0  0  0  0  0  1  0  0
  -17.2862   -5.9212   20.7115 F   0  0  0  0  0  0  0  0  0  0  0  0
  -21.8190   -4.7975   21.4841 F   0  0  0  0  0  0  0  0  0  0  0  0
  1  2  1  0  0  0  0
  1  5  2  0  0  0  0
  2  6  2  0  0  0  0
  3  9  2  0  0  0  0
  3 17  1  0  0  0  0
  4 10  1  0  0  0  0
  4 17  2  0  0  0  0
  5 19  1  0  0  0  0
  6 21  1  0  0  0  0
  7 11  2  0  0  0  0
  7 20  1  0  0  0  0
  8 14  2  0  0  0  0
  8 23  1  0  0  0  0
  9 24  1  0  0  0  0
 10 24  2  0  0  0  0
 11 25  1  0  0  0  0
 12 13  2  0  0  0  0
 12 26  1  0  0  0  0
 13 27  1  0  0  0  0
 14 30  1  0  0  0  0
 15 22  1  0  0  0  0
 15 25  2  0  0  0  0
 16 27  2  0  0  0  0
 16 28  1  0  0  0  0
 17 29  1  0  0  0  0
 18 29  1  0  0  0  0
 18 32  2  0  0  0  0
 18 33  1  0  0  0  0
 19 21  2  0  0  0  0
 19 38  1  0  0  0  0
 20 22  2  0  0  0  0
 20 39  1  0  0  0  0
 21 47  1  0  0  0  0
 22 40  1  0  0  0  0
 23 31  2  0  0  0  0
 23 77  1  0  0  0  0
 24 88  1  0  0  0  0
 25 89  1  0  0  0  0
 26 28  2  0  0  0  0
 26 88  1  0  0  0  0
 27 90  1  0  0  0  0
 28 91  1  0  0  0  0
 29 70  2  0  0  0  0
 30 71  2  0  0  0  0
 30 78  1  0  0  0  0
 31 71  1  0  0  0  0
 31 79  1  0  0  0  0
 32 72  1  0  0  0  0
 32 75  1  0  0  0  0
 33 76  1  0  0  0  0
 33 83  2  0  0  0  0
 34 48  1  0  0  0  0
 34 80  1  0  0  0  0
 34 84  2  0  0  0  0
 35 63  1  0  0  0  0
 35 73  1  0  0  0  0
 35 85  2  0  0  0  0
 36 64  1  0  0  0  0
 36 81  1  0  0  0  0
 36 86  2  0  0  0  0
 37 74  1  0  0  0  0
 37 78  1  0  0  0  0
 37 87  2  0  0  0  0
 38 41  1  0  0  0  0
 39 48  1  0  0  0  0
 40 73  1  0  0  0  0
 41 43  1  0  0  0  0
 42 44  1  0  0  0  0
 42 45  1  0  0  0  0
 43 47  1  0  0  0  0
 44 49  1  0  0  0  0
 45 74  1  0  0  0  0
 46 49  1  0  0  0  0
 46 74  1  0  0  0  0
 47 80  1  0  0  0  0
 48 73  1  0  0  0  0
 49 72  1  0  0  0  0
 50 60  1  0  0  0  0
 51 64  1  0  0  0  0
 52 65  1  0  0  0  0
 53 66  1  0  0  0  0
 54 67  1  0  0  0  0
 55 67  1  0  0  0  0
 56 69  1  0  0  0  0
 57 69  1  0  0  0  0
 58 69  1  0  0  0  0
 59 82  1  0  0  0  0
 60 65  1  0  0  0  0
 61 62  1  0  0  0  0
 61 66  1  0  0  0  0
 62 89  1  0  0  0  0
 63 69  1  0  0  0  0
 63 81  1  0  0  0  0
 64 82  1  0  0  0  0
 65 68  1  0  0  0  0
 66 68  1  0  0  0  0
 67 77  1  0  0  0  0
 68 79  1  0  0  0  0
 70 72  1  0  0  0  0
M  CHG  1  82   1
M  ISO  4  37 100  62 101  78 100  89 101
M  END
> <Batch ID>
0190

> <Smiles>
CCC(C)C(Nc1nc([100NH:0][100C:0](=O)N2CCCC(n3nc(-c4ccc(Oc5ccc(F)cc5F)cc4)c(C(N)=O)c3N)C2)ccc1NC(C)C)C(C)C[101CH2:1][101O:1]c1ccc2c(c1)CN(C(=O)C(NC(=O)C(C)NC)C(C)(C)C)C(C(=O)NC1CCCc3ccccc31)C2

> <Shape>
0.183

> <Color>
0.143

> <Negative vol penalty>
0.000

$$$$

  -OEChem-04052305213D

 88 97  0     1  0  0  0  0  0999 V2000
  -26.9510  -35.8812   26.7766 C   0  0  0  0  0  0  0  0  0  0  0  0
  -26.8491  -35.7463   25.3966 C   0  0  0  0  0  0  0  0  0  0  0  0
  -24.5464   -8.9775   20.8238 C   0  0  0  0  0  0  0  0  0  0  0  0
  -22.9110  -10.7551   20.8728 C   0  0  0  0  0  0  0  0  0  0  0  0
  -27.0817  -34.7477   27.5761 C   0  0  0  0  0  0  0  0  0  0  0  0
  -26.8658  -34.4774   24.8166 C   0  0  0  0  0  0  0  0  0  0  0  0
  -26.7217  -29.0366   19.0201 C   0  0  0  0  0  0  0  0  0  0  0  0
  -23.5510   -8.0529   21.1395 C   0  0  0  0  0  0  0  0  0  0  0  0
  -21.9155   -9.8305   21.1885 C   0  0  0  0  0  0  0  0  0  0  0  0
  -27.0436  -27.7115   18.7297 C   0  0  0  0  0  0  0  0  0  0  0  0
  -21.8747   -7.0417   23.8948 C   0  0  0  0  0  0  0  0  0  0  0  0
  -22.1610   -6.0916   24.8752 C   0  0  0  0  0  0  0  0  0  0  0  0
  -25.6838  -26.9812   20.5836 C   0  0  0  0  0  0  0  0  0  0  0  0
  -21.7921   -4.3241   23.2699 C   0  0  0  0  0  0  0  0  0  0  0  0
  -23.5587  -18.9270   20.2382 C   0  0  0  0  0  0  0  0  0  0  0  0
  -24.2265  -10.3286   20.6904 C   0  0  0  0  0  0  0  0  0  0  0  0
  -26.0665  -11.3008   19.2150 C   0  0  0  0  0  0  0  0  0  0  0  0
  -27.1125  -33.4653   27.0038 C   0  0  0  0  0  0  0  0  0  0  0  0
  -25.8858  -29.3451   20.1029 C   0  0  0  0  0  0  0  0  0  0  0  0
  -26.9729  -33.3198   25.6085 C   0  0  0  0  0  0  0  0  0  0  0  0
  -25.3508  -28.3108   20.8841 C   0  0  0  0  0  0  0  0  0  0  0  0
  -22.2355   -8.4794   21.3218 C   0  0  0  0  0  0  0  0  0  0  0  0
  -26.5270  -26.6837   19.5132 C   0  0  0  0  0  0  0  0  0  0  0  0
  -21.5470   -6.6329   22.6021 C   0  0  0  0  0  0  0  0  0  0  0  0
  -22.1197   -4.7328   24.5627 C   0  0  0  0  0  0  0  0  0  0  0  0
  -21.5057   -5.2741   22.2896 C   0  0  0  0  0  0  0  0  0  0  0  0
  -25.2545  -11.2843   20.3648 C   0  0  0  0  0  0  0  0  0  0  0  0
  -24.6082  -18.8612   21.1306 C   0  0  0  0  0  0  0  0  0  0  0  0
  -26.8737  -12.3997   19.3804 C   0  0  0  0  0  0  0  0  0  0  0  0
  -24.3596  -21.0395   21.0739 C   0  0  0  0  0  0  0  0  0  0  0  0
  -26.9634  -23.2536   21.7734 C   0  0  0  0  0  0  0  0  0  0  0  0
  -26.0890  -10.4031   18.0972 C   0  0  0  0  0  0  0  0  0  0  0  0
  -26.2244  -30.9932   22.7998 C   0  0  0  0  0  0  0  0  0  0  0  0
  -23.0459  -30.4163   23.0938 C   0  0  0  0  0  0  0  0  0  0  0  0
  -20.8113  -27.6385   22.5386 C   0  0  0  0  0  0  0  0  0  0  0  0
  -26.2606  -17.4904   22.4484 C   0  0  0  0  0  0  0  0  0  0  0  0
  -27.2479  -32.2722   27.9167 C   0  0  0  0  0  0  0  0  0  0  0  0
  -25.5266  -30.7779   20.3867 C   0  0  0  0  0  0  0  0  0  0  0  0
  -24.4324  -28.5877   22.0453 C   0  0  0  0  0  0  0  0  0  0  0  0
  -26.6534  -23.3435   23.2549 C   0  0  0  0  0  0  0  0  0  0  0  0
  -27.7003  -31.0124   27.1855 C   0  0  0  0  0  0  0  0  0  0  0  0
  -25.4496  -22.5487   23.7137 C   0  0  0  0  0  0  0  0  0  0  0  0
  -28.8738  -15.0970   22.7948 C   0  0  0  0  0  0  0  0  0  0  0  0
  -26.8451  -30.7954   25.9461 C   0  0  0  0  0  0  0  0  0  0  0  0
  -24.2623  -22.8572   22.8213 C   0  0  0  0  0  0  0  0  0  0  0  0
  -28.3185  -13.8510   22.1010 C   0  0  0  0  0  0  0  0  0  0  0  0
  -27.7843  -15.8618   23.5444 C   0  0  0  0  0  0  0  0  0  0  0  0
  -26.0475  -14.9586   22.0487 C   0  0  0  0  0  0  0  0  0  0  0  0
  -27.0195  -31.9514   24.9530 C   0  0  1  0  0  0  0  0  0  0  0  0
  -24.5698  -22.5232   21.3575 C   0  0  1  0  0  0  0  0  0  0  0  0
  -25.0793  -31.0077   21.8270 C   0  0  1  0  0  0  0  0  0  0  0  0
  -27.0955  -14.1907   21.2267 C   0  0  2  0  0  0  0  0  0  0  0  0
  -18.3641  -27.5988   21.9846 C   0  0  0  0  0  0  0  0  0  0  0  0
  -26.6203  -24.0604   16.5606 C   0  0  0  0  0  0  0  0  0  0  0  0
  -24.1901  -23.7697   17.0765 C   0  0  0  0  0  0  0  0  0  0  0  0
  -22.6633  -30.1554   26.1097 C   0  0  0  0  0  0  0  0  0  0  0  0
  -20.7802  -28.5670   25.6632 C   0  0  0  0  0  0  0  0  0  0  0  0
  -20.6363  -30.9256   24.8638 C   0  0  0  0  0  0  0  0  0  0  0  0
  -21.2664  -25.9908   20.1226 C   0  0  0  0  0  0  0  0  0  0  0  0
  -26.0965  -23.1240   19.4720 C   0  0  0  0  0  0  0  0  0  0  0  0
  -22.2108  -29.3194   23.7092 C   0  0  1  0  0  0  0  0  0  0  0  0
  -19.7786  -27.5098   21.4334 C   0  0  2  0  0  0  0  0  0  0  0  0
  -25.4547  -24.5727   17.4081 C   0  0  0  0  0  0  0  0  0  0  0  0
  -25.7582  -24.5121   18.9225 C   0  0  2  0  0  0  0  0  0  1  0  0
  -21.5987  -29.7367   25.0761 C   0  0  0  0  0  0  0  0  0  0  0  0
  -25.5216  -12.2925   21.1992 N   0  0  0  0  0  0  0  0  0  0  0  0
  -25.0690  -20.0716   21.6105 N   0  0  0  0  0  0  0  0  0  0  0  0
  -26.5105  -12.9528   20.5730 N   0  0  0  0  0  0  0  0  0  0  0  0
  -25.8898  -23.0180   20.9147 N   0  0  0  0  0  0  0  0  0  0  0  0
  -24.1160  -30.0052   22.2865 N   0  0  0  0  0  0  0  0  0  0  0  0
  -26.6599  -16.1526   22.6521 N   0  0  0  0  0  0  0  0  0  0  0  0
  -27.8516  -12.9370   18.6206 N   0  0  0  0  0  0  0  0  0  0  0  0
  -25.2662  -10.6840   16.9980 N   0  0  0  0  0  0  0  0  0  0  0  0
  -25.2019  -17.6464   21.5544 N   0  0  0  0  0  0  0  0  0  0  0  0
  -26.0428  -31.8162   23.8948 N   0  0  0  0  0  0  0  0  0  0  0  0
  -21.2241  -28.9439   22.7023 N   0  0  0  0  0  0  0  0  0  0  0  0
  -19.9290  -26.2025   20.7337 N   0  3  0  0  0  0  0  0  0  0  0  0
  -28.1151  -23.4819   21.3918 O   0  0  0  0  0  0  0  0  0  0  0  0
  -26.8050   -9.3732   18.0809 O   0  0  0  0  0  0  0  0  0  0  0  0
  -27.1998  -30.2864   22.5743 O   0  0  0  0  0  0  0  0  0  0  0  0
  -22.7549  -31.5944   23.3153 O   0  0  0  0  0  0  0  0  0  0  0  0
  -21.2090  -26.6778   23.1939 O   0  0  0  0  0  0  0  0  0  0  0  0
  -26.8347  -18.4307   23.0038 O   0  0  0  0  0  0  0  0  0  0  0  0
  -21.2638   -7.5774   21.6297 O   0  0  0  0  0  0  0  0  0  0  0  0
  -26.8401  -25.3895   19.2323 O   0  0  0  0  0  0  0  0  0  1  0  0
  -22.3962   -3.8207   25.5038 F   0  0  0  0  0  0  0  0  0  0  0  0
  -21.1927   -4.8754   21.0491 F   0  0  0  0  0  0  0  0  0  0  0  0
  -23.1217  -20.5658   19.9838 S   0  0  0  0  0  0  0  0  0  0  0  0
  1  2  1  0  0  0  0
  1  5  2  0  0  0  0
  2  6  2  0  0  0  0
  3  8  2  0  0  0  0
  3 16  1  0  0  0  0
  4  9  1  0  0  0  0
  4 16  2  0  0  0  0
  5 18  1  0  0  0  0
  6 20  1  0  0  0  0
  7 10  2  0  0  0  0
  7 19  1  0  0  0  0
  8 22  1  0  0  0  0
  9 22  2  0  0  0  0
 10 23  1  0  0  0  0
 11 12  2  0  0  0  0
 11 24  1  0  0  0  0
 12 25  1  0  0  0  0
 13 21  1  0  0  0  0
 13 23  2  0  0  0  0
 14 25  2  0  0  0  0
 14 26  1  0  0  0  0
 15 28  2  0  0  0  0
 15 88  1  0  0  0  0
 16 27  1  0  0  0  0
 17 27  1  0  0  0  0
 17 29  2  0  0  0  0
 17 32  1  0  0  0  0
 18 20  2  0  0  0  0
 18 37  1  0  0  0  0
 19 21  2  0  0  0  0
 19 38  1  0  0  0  0
 20 49  1  0  0  0  0
 21 39  1  0  0  0  0
 22 84  1  0  0  0  0
 23 85  1  0  0  0  0
 24 26  2  0  0  0  0
 24 84  1  0  0  0  0
 25 86  1  0  0  0  0
 26 87  1  0  0  0  0
 27 66  2  0  0  0  0
 28 67  1  0  0  0  0
 28 74  1  0  0  0  0
 29 68  1  0  0  0  0
 29 72  1  0  0  0  0
 30 50  1  0  0  0  0
 30 67  2  0  0  0  0
 30 88  1  0  0  0  0
 31 40  1  0  0  0  0
 31 69  1  0  0  0  0
 31 78  2  0  0  0  0
 32 73  1  0  0  0  0
 32 79  2  0  0  0  0
 33 51  1  0  0  0  0
 33 75  1  0  0  0  0
 33 80  2  0  0  0  0
 34 61  1  0  0  0  0
 34 70  1  0  0  0  0
 34 81  2  0  0  0  0
 35 62  1  0  0  0  0
 35 76  1  0  0  0  0
 35 82  2  0  0  0  0
 36 71  1  0  0  0  0
 36 74  1  0  0  0  0
 36 83  2  0  0  0  0
 37 41  1  0  0  0  0
 38 51  1  0  0  0  0
 39 70  1  0  0  0  0
 40 42  1  0  0  0  0
 41 44  1  0  0  0  0
 42 45  1  0  0  0  0
 43 46  1  0  0  0  0
 43 47  1  0  0  0  0
 44 49  1  0  0  0  0
 45 50  1  0  0  0  0
 46 52  1  0  0  0  0
 47 71  1  0  0  0  0
 48 52  1  0  0  0  0
 48 71  1  0  0  0  0
 49 75  1  0  0  0  0
 50 69  1  0  0  0  0
 51 70  1  0  0  0  0
 52 68  1  0  0  0  0
 53 62  1  0  0  0  0
 54 63  1  0  0  0  0
 55 63  1  0  0  0  0
 56 65  1  0  0  0  0
 57 65  1  0  0  0  0
 58 65  1  0  0  0  0
 59 77  1  0  0  0  0
 60 64  1  0  0  0  0
 60 69  1  0  0  0  0
 61 65  1  0  0  0  0
 61 76  1  0  0  0  0
 62 77  1  0  0  0  0
 63 64  1  0  0  0  0
 64 85  1  0  0  0  0
 66 68  1  0  0  0  0
M  CHG  1  77   1
M  ISO  4  36 100  64 101  74 100  85 101
M  END
> <Batch ID>
0190

> <Smiles>
CNC(C)C(=O)NC(C(=O)N1Cc2cc([101O:1][101CH:1](CN3C(=O)CCCC3c3nc([100NH:0][100C:0](=O)N4CCCC(n5nc(-c6ccc(Oc7ccc(F)cc7F)cc6)c(C(N)=O)c5N)C4)cs3)C(C)C)ccc2CC1C(=O)NC1CCCc2ccccc21)C(C)(C)C

> <Shape>
0.282

> <Color>
0.105

> <Negative vol penalty>
0.000

$$$$

  -OEChem-04052305213D

 84 92  0     1  0  0  0  0  0999 V2000
  -29.2400  -26.2590   18.3795 C   0  0  0  0  0  0  0  0  0  0  0  0
  -28.4220  -25.1726   18.6685 C   0  0  0  0  0  0  0  0  0  0  0  0
  -27.2150  -17.2941   19.0388 C   0  0  0  0  0  0  0  0  0  0  0  0
  -27.5257  -17.3192   21.4346 C   0  0  0  0  0  0  0  0  0  0  0  0
  -28.8396  -27.5436   18.7410 C   0  0  0  0  0  0  0  0  0  0  0  0
  -27.1981  -25.3716   19.3083 C   0  0  0  0  0  0  0  0  0  0  0  0
  -23.0733  -21.3561   21.3055 C   0  0  0  0  0  0  0  0  0  0  0  0
  -27.7550  -18.5774   18.9552 C   0  0  0  0  0  0  0  0  0  0  0  0
  -28.0657  -18.6026   21.3511 C   0  0  0  0  0  0  0  0  0  0  0  0
  -22.7933  -20.6692   22.4861 C   0  0  0  0  0  0  0  0  0  0  0  0
  -26.9262  -21.7679   21.0147 C   0  0  0  0  0  0  0  0  0  0  0  0
  -26.4907  -22.7158   21.9407 C   0  0  0  0  0  0  0  0  0  0  0  0
  -21.1717  -22.3551   23.0753 C   0  0  0  0  0  0  0  0  0  0  0  0
  -28.7562  -22.9771   22.7386 C   0  0  0  0  0  0  0  0  0  0  0  0
  -24.1144  -13.3412   25.5560 C   0  0  0  0  0  0  0  0  0  0  0  0
  -27.1003  -16.6650   20.2785 C   0  0  0  0  0  0  0  0  0  0  0  0
  -27.2370  -14.1177   20.2883 C   0  0  0  0  0  0  0  0  0  0  0  0
  -27.6158  -27.7562   19.3967 C   0  0  0  0  0  0  0  0  0  0  0  0
  -22.4112  -22.5553   21.0057 C   0  0  0  0  0  0  0  0  0  0  0  0
  -26.7654  -26.6630   19.6598 C   0  0  0  0  0  0  0  0  0  0  0  0
  -21.4432  -23.0539   21.8891 C   0  0  0  0  0  0  0  0  0  0  0  0
  -28.1804  -19.2317   20.1114 C   0  0  0  0  0  0  0  0  0  0  0  0
  -21.8445  -21.1702   23.3725 C   0  0  0  0  0  0  0  0  0  0  0  0
  -28.2767  -21.4246   20.9506 C   0  0  0  0  0  0  0  0  0  0  0  0
  -27.4057  -23.3204   22.8026 C   0  0  0  0  0  0  0  0  0  0  0  0
  -29.1916  -22.0292   21.8126 C   0  0  0  0  0  0  0  0  0  0  0  0
  -26.5421  -15.3395   20.3655 C   0  0  0  0  0  0  0  0  0  0  0  0
  -22.8511  -13.1985   25.0214 C   0  0  0  0  0  0  0  0  0  0  0  0
  -26.2628  -13.1593   20.4256 C   0  0  0  0  0  0  0  0  0  0  0  0
  -22.6922  -15.2807   25.6917 C   0  0  0  0  0  0  0  0  0  0  0  0
  -28.6380  -13.8710   20.1088 C   0  0  0  0  0  0  0  0  0  0  0  0
  -23.3209  -25.5671   20.5526 C   0  0  0  0  0  0  0  0  0  0  0  0
  -20.2022  -25.9804   19.7622 C   0  0  0  0  0  0  0  0  0  0  0  0
  -21.2993  -12.3003   23.3193 C   0  0  0  0  0  0  0  0  0  0  0  0
  -16.9763  -24.9009   20.0361 C   0  0  0  0  0  0  0  0  0  0  0  0
  -27.2281  -29.1684   19.7583 C   0  0  0  0  0  0  0  0  0  0  0  0
  -22.7053  -23.2702   19.7154 C   0  0  0  0  0  0  0  0  0  0  0  0
  -20.6899  -24.3266   21.6040 C   0  0  0  0  0  0  0  0  0  0  0  0
  -26.1342  -29.2315   20.8193 C   0  0  0  0  0  0  0  0  0  0  0  0
  -21.3666  -13.0421   19.8143 C   0  0  0  0  0  0  0  0  0  0  0  0
  -24.9831  -28.3142   20.4342 C   0  0  0  0  0  0  0  0  0  0  0  0
  -22.7640  -13.6211   19.5966 C   0  0  0  0  0  0  0  0  0  0  0  0
  -20.8060  -13.4339   21.1778 C   0  0  0  0  0  0  0  0  0  0  0  0
  -23.0878  -13.6462   22.1105 C   0  0  0  0  0  0  0  0  0  0  0  0
  -25.4438  -26.8520   20.3823 C   0  0  1  0  0  0  0  0  0  0  0  0
  -22.3419  -24.7513   19.7566 C   0  0  1  0  0  0  0  0  0  0  0  0
  -23.7035  -13.2487   20.7572 C   0  0  2  0  0  0  0  0  0  0  0  0
  -14.6417  -25.4650   19.3088 C   0  0  0  0  0  0  0  0  0  0  0  0
  -19.8492  -16.3420   26.5677 C   0  0  0  0  0  0  0  0  0  0  0  0
  -21.6068  -11.0574   25.4213 C   0  0  0  0  0  0  0  0  0  0  0  0
  -23.3470  -11.0754   23.6310 C   0  0  0  0  0  0  0  0  0  0  0  0
  -20.1108  -28.2370   21.8138 C   0  0  0  0  0  0  0  0  0  0  0  0
  -17.6115  -28.1143   21.7344 C   0  0  0  0  0  0  0  0  0  0  0  0
  -18.8948  -28.7159   19.6816 C   0  0  0  0  0  0  0  0  0  0  0  0
  -16.6773  -22.3293   18.6021 C   0  0  0  0  0  0  0  0  0  0  0  0
  -21.7236  -19.0836   24.5071 C   0  0  0  0  0  0  0  0  0  1  0  0
  -18.9446  -26.3312   20.5201 C   0  0  1  0  0  0  0  0  0  0  0  0
  -15.8990  -24.6705   18.9916 C   0  0  2  0  0  0  0  0  0  0  0  0
  -20.8300  -16.9360   25.5596 C   0  0  1  0  0  0  0  0  0  0  0  0
  -20.7185  -18.4674   25.4789 C   0  0  1  0  0  0  0  0  0  0  0  0
  -22.3170  -11.9783   24.3845 C   0  0  0  0  0  0  0  0  0  0  0  0
  -18.9058  -27.8266   20.9441 C   0  0  0  0  0  0  0  0  0  0  0  0
  -25.2278  -15.1752   20.5381 N   0  0  0  0  0  0  0  0  0  0  0  0
  -22.0340  -14.3095   25.0987 N   0  0  0  0  0  0  0  0  0  0  0  0
  -25.0892  -13.8389   20.5706 N   0  0  0  0  0  0  0  0  0  0  0  0
  -21.0174  -24.9925   20.3324 N   0  0  0  0  0  0  0  0  0  0  0  0
  -21.7375  -13.0839   22.2516 N   0  0  0  0  0  0  0  0  0  0  0  0
  -26.3041  -11.8100   20.4351 N   0  0  0  0  0  0  0  0  0  0  0  0
  -29.4993  -14.9697   19.9848 N   0  0  0  0  0  0  0  0  0  0  0  0
  -22.1723  -16.5384   25.9351 N   0  0  0  0  0  0  0  0  0  0  0  0
  -24.3872  -26.0440   19.8144 N   0  0  0  0  0  0  0  0  0  0  0  0
  -17.8297  -25.9212   19.6731 N   0  0  0  0  0  0  0  0  0  0  0  0
  -15.5387  -23.2257   18.9291 N   0  3  0  0  0  0  0  0  0  0  0  0
  -29.1098  -12.7106   20.0433 O   0  0  0  0  0  0  0  0  0  0  0  0
  -23.1227  -25.7516   21.7478 O   0  0  0  0  0  0  0  0  0  0  0  0
  -20.4484  -26.5565   18.6995 O   0  0  0  0  0  0  0  0  0  0  0  0
  -20.1505  -11.8650   23.4330 O   0  0  0  0  0  0  0  0  0  0  0  0
  -17.0508  -24.2441   21.0722 O   0  0  0  0  0  0  0  0  0  0  0  0
  -20.9164  -19.0334   26.7756 O   0  0  0  0  0  0  0  0  0  0  0  0
  -28.7076  -20.4839   20.0302 O   0  0  0  0  0  0  0  0  0  0  0  0
  -21.5699  -20.5022   24.5259 O   0  0  0  0  0  0  0  0  0  1  0  0
  -26.9876  -24.2317   23.6908 F   0  0  0  0  0  0  0  0  0  0  0  0
  -30.4905  -21.7043   21.7549 F   0  0  0  0  0  0  0  0  0  0  0  0
  -24.2984  -14.9273   26.1819 S   0  0  0  0  0  0  0  0  0  0  0  0
  1  2  1  0  0  0  0
  1  5  2  0  0  0  0
  2  6  2  0  0  0  0
  3  8  2  0  0  0  0
  3 16  1  0  0  0  0
  4  9  1  0  0  0  0
  4 16  2  0  0  0  0
  5 18  1  0  0  0  0
  6 20  1  0  0  0  0
  7 10  2  0  0  0  0
  7 19  1  0  0  0  0
  8 22  1  0  0  0  0
  9 22  2  0  0  0  0
 10 23  1  0  0  0  0
 11 12  2  0  0  0  0
 11 24  1  0  0  0  0
 12 25  1  0  0  0  0
 13 21  1  0  0  0  0
 13 23  2  0  0  0  0
 14 25  2  0  0  0  0
 14 26  1  0  0  0  0
 15 28  2  0  0  0  0
 15 84  1  0  0  0  0
 16 27  1  0  0  0  0
 17 27  1  0  0  0  0
 17 29  2  0  0  0  0
 17 31  1  0  0  0  0
 18 20  2  0  0  0  0
 18 36  1  0  0  0  0
 19 21  2  0  0  0  0
 19 37  1  0  0  0  0
 20 45  1  0  0  0  0
 21 38  1  0  0  0  0
 22 80  1  0  0  0  0
 23 81  1  0  0  0  0
 24 26  2  0  0  0  0
 24 80  1  0  0  0  0
 25 82  1  0  0  0  0
 26 83  1  0  0  0  0
 27 63  2  0  0  0  0
 28 61  1  0  0  0  0
 28 64  1  0  0  0  0
 29 65  1  0  0  0  0
 29 68  1  0  0  0  0
 30 64  2  0  0  0  0
 30 70  1  0  0  0  0
 30 84  1  0  0  0  0
 31 69  1  0  0  0  0
 31 74  2  0  0  0  0
 32 46  1  0  0  0  0
 32 71  1  0  0  0  0
 32 75  2  0  0  0  0
 33 57  1  0  0  0  0
 33 66  1  0  0  0  0
 33 76  2  0  0  0  0
 34 61  1  0  0  0  0
 34 67  1  0  0  0  0
 34 77  2  0  0  0  0
 35 58  1  0  0  0  0
 35 72  1  0  0  0  0
 35 78  2  0  0  0  0
 36 39  1  0  0  0  0
 37 46  1  0  0  0  0
 38 66  1  0  0  0  0
 39 41  1  0  0  0  0
 40 42  1  0  0  0  0
 40 43  1  0  0  0  0
 41 45  1  0  0  0  0
 42 47  1  0  0  0  0
 43 67  1  0  0  0  0
 44 47  1  0  0  0  0
 44 67  1  0  0  0  0
 45 71  1  0  0  0  0
 46 66  1  0  0  0  0
 47 65  1  0  0  0  0
 48 58  1  0  0  0  0
 49 59  1  0  0  0  0
 50 61  1  0  0  0  0
 51 61  1  0  0  0  0
 52 62  1  0  0  0  0
 53 62  1  0  0  0  0
 54 62  1  0  0  0  0
 55 73  1  0  0  0  0
 56 60  1  0  0  0  0
 56 81  1  0  0  0  0
 57 62  1  0  0  0  0
 57 72  1  0  0  0  0
 58 73  1  0  0  0  0
 59 60  1  0  0  0  0
 59 70  1  0  0  0  0
 60 79  1  0  0  0  0
 63 65  1  0  0  0  0
M  CHG  1  73   1
M  ISO  4  34 100  56 101  61 100  81 101
M  END
> <Batch ID>
0190

> <Smiles>
CNC(C)C(=O)NC(C(=O)N1Cc2cc([101O:1][101CH2:1]C(O)C(C)Nc3nc([100C:0](C)(C)[100C:0](=O)N4CCCC(n5nc(-c6ccc(Oc7ccc(F)cc7F)cc6)c(C(N)=O)c5N)C4)cs3)ccc2CC1C(=O)NC1CCCc2ccccc21)C(C)(C)C

> <Shape>
0.180

> <Color>
0.061

> <Negative vol penalty>
0.000

$$$$

  -OEChem-04052305213D

 90 98  0     1  0  0  0  0  0999 V2000
  -29.4725  -35.1369   24.2984 C   0  0  0  0  0  0  0  0  0  0  0  0
  -29.2076  -33.7728   24.3647 C   0  0  0  0  0  0  0  0  0  0  0  0
  -24.6210   -9.0770   21.7180 C   0  0  0  0  0  0  0  0  0  0  0  0
  -22.7979  -10.4019   20.8474 C   0  0  0  0  0  0  0  0  0  0  0  0
  -28.4252  -36.0419   24.1304 C   0  0  0  0  0  0  0  0  0  0  0  0
  -27.8951  -33.3129   24.2643 C   0  0  0  0  0  0  0  0  0  0  0  0
  -27.4665  -29.3200   21.1791 C   0  0  0  0  0  0  0  0  0  0  0  0
  -23.7244   -8.3693   22.5185 C   0  0  0  0  0  0  0  0  0  0  0  0
  -21.9013   -9.6942   21.6479 C   0  0  0  0  0  0  0  0  0  0  0  0
  -27.8546  -28.0801   21.6848 C   0  0  0  0  0  0  0  0  0  0  0  0
  -21.8678   -5.9716   24.5233 C   0  0  0  0  0  0  0  0  0  0  0  0
  -21.9956   -4.5834   24.5692 C   0  0  0  0  0  0  0  0  0  0  0  0
  -25.5428  -27.5351   22.1065 C   0  0  0  0  0  0  0  0  0  0  0  0
  -21.6187   -4.4698   22.1855 C   0  0  0  0  0  0  0  0  0  0  0  0
  -23.5513  -19.9068   18.2820 C   0  0  0  0  0  0  0  0  0  0  0  0
  -24.1577  -10.0934   20.8824 C   0  0  0  0  0  0  0  0  0  0  0  0
  -25.4821  -10.5112   18.7425 C   0  0  0  0  0  0  0  0  0  0  0  0
  -27.1001  -35.5921   24.0182 C   0  0  0  0  0  0  0  0  0  0  0  0
  -26.1121  -29.6818   21.1434 C   0  0  0  0  0  0  0  0  0  0  0  0
  -26.8289  -34.2127   24.0961 C   0  0  0  0  0  0  0  0  0  0  0  0
  -25.1399  -28.7792   21.5976 C   0  0  0  0  0  0  0  0  0  0  0  0
  -22.3646   -8.6778   22.4835 C   0  0  0  0  0  0  0  0  0  0  0  0
  -26.8930  -27.1886   22.1512 C   0  0  0  0  0  0  0  0  0  0  0  0
  -21.6153   -6.6090   23.3084 C   0  0  0  0  0  0  0  0  0  0  0  0
  -21.8712   -3.8325   23.4003 C   0  0  0  0  0  0  0  0  0  0  0  0
  -21.4908   -5.8581   22.1396 C   0  0  0  0  0  0  0  0  0  0  0  0
  -25.0835  -10.8252   20.0556 C   0  0  0  0  0  0  0  0  0  0  0  0
  -24.7452  -20.4891   18.6531 C   0  0  0  0  0  0  0  0  0  0  0  0
  -26.3658  -11.5068   18.4046 C   0  0  0  0  0  0  0  0  0  0  0  0
  -25.1871  -18.4243   19.2457 C   0  0  0  0  0  0  0  0  0  0  0  0
  -25.0885   -9.4174   17.9032 C   0  0  0  0  0  0  0  0  0  0  0  0
  -24.3693  -31.9835   22.4732 C   0  0  0  0  0  0  0  0  0  0  0  0
  -25.3238  -22.4455   20.9959 C   0  0  0  0  0  0  0  0  0  0  0  0
  -22.0267  -30.7604   20.5920 C   0  0  0  0  0  0  0  0  0  0  0  0
  -20.7973  -28.0849   18.8667 C   0  0  0  0  0  0  0  0  0  0  0  0
  -27.0876  -17.1341   20.2801 C   0  0  0  0  0  0  0  0  0  0  0  0
  -25.9964  -36.6113   23.8851 C   0  0  0  0  0  0  0  0  0  0  0  0
  -25.7077  -31.0123   20.5702 C   0  0  0  0  0  0  0  0  0  0  0  0
  -23.6713  -29.1113   21.5622 C   0  0  0  0  0  0  0  0  0  0  0  0
  -24.6725  -36.0171   23.4114 C   0  0  0  0  0  0  0  0  0  0  0  0
  -29.5203  -14.5354   20.3569 C   0  0  0  0  0  0  0  0  0  0  0  0
  -24.3486  -34.7463   24.1904 C   0  0  0  0  0  0  0  0  0  0  0  0
  -28.6955  -13.2609   20.1627 C   0  0  0  0  0  0  0  0  0  0  0  0
  -28.7791  -15.5667   21.2059 C   0  0  0  0  0  0  0  0  0  0  0  0
  -26.6013  -14.6225   20.5464 C   0  0  0  0  0  0  0  0  0  0  0  0
  -25.4210  -33.6733   23.9663 C   0  0  1  0  0  0  0  0  0  0  0  0
  -24.3403  -31.4819   21.0571 C   0  0  1  0  0  0  0  0  0  0  0  0
  -27.2797  -13.5795   19.6434 C   0  0  2  0  0  0  0  0  0  0  0  0
  -18.8437  -27.3774   17.4595 C   0  0  0  0  0  0  0  0  0  0  0  0
  -29.1410  -21.5494   15.4019 C   0  0  0  0  0  0  0  0  0  0  0  0
  -26.8717  -21.1521   14.4278 C   0  0  0  0  0  0  0  0  0  0  0  0
  -25.4237  -23.7505   16.7136 C   0  0  0  0  0  0  0  0  0  0  0  0
  -20.3082  -30.5219   23.1020 C   0  0  0  0  0  0  0  0  0  0  0  0
  -18.7982  -28.9767   21.8369 C   0  0  0  0  0  0  0  0  0  0  0  0
  -19.0882  -31.3345   21.0757 C   0  0  0  0  0  0  0  0  0  0  0  0
  -22.5287  -27.5464   16.5276 C   0  0  0  0  0  0  0  0  0  0  0  0
  -25.9942  -22.5215   19.6334 C   0  0  0  0  0  0  0  0  0  0  0  0
  -27.1271  -23.5949   22.3670 C   0  0  0  0  0  0  0  0  0  0  0  0
  -27.1249  -21.8657   16.8693 C   0  0  0  0  0  0  0  0  0  0  0  0
  -26.3483  -24.8995   22.4965 C   0  0  0  0  0  0  0  0  0  1  0  0
  -25.1015  -21.9674   18.5035 C   0  0  1  0  0  0  0  0  0  0  0  0
  -26.2240  -22.3762   22.2175 C   0  0  1  0  0  0  0  0  0  0  0  0
  -20.9781  -29.6864   20.7526 C   0  0  1  0  0  0  0  0  0  0  0  0
  -20.2478  -27.9616   17.4570 C   0  0  2  0  0  0  0  0  0  0  0  0
  -27.6721  -21.9846   15.4300 C   0  0  0  0  0  0  0  0  0  0  0  0
  -25.6440  -22.2713   17.0660 C   0  0  1  0  0  0  0  0  0  0  0  0
  -19.8209  -30.1241   21.6944 C   0  0  0  0  0  0  0  0  0  0  0  0
  -25.6664  -11.9335   20.5203 N   0  0  0  0  0  0  0  0  0  0  0  0
  -25.6842  -19.6406   19.2063 N   0  0  0  0  0  0  0  0  0  0  0  0
  -26.4403  -12.3245   19.4936 N   0  0  0  0  0  0  0  0  0  0  0  0
  -23.3265  -30.4270   20.9985 N   0  0  0  0  0  0  0  0  0  0  0  0
  -27.4477  -15.8214   20.6513 N   0  0  0  0  0  0  0  0  0  0  0  0
  -27.0789  -11.7537   17.2852 N   0  0  0  0  0  0  0  0  0  0  0  0
  -24.1714   -8.4850   18.4069 N   0  0  0  0  0  0  0  0  0  0  0  0
  -25.8093  -17.2489   19.7346 N   0  0  0  0  0  0  0  0  0  0  0  0
  -25.2387  -33.0377   22.6790 N   0  0  0  0  0  0  0  0  0  0  0  0
  -20.5490  -29.3300   19.4046 N   0  0  0  0  0  0  0  0  0  0  0  0
  -21.1228  -27.0784   16.6353 N   0  3  0  0  0  0  0  0  0  0  0  0
  -25.5495   -9.2621   16.7469 O   0  0  0  0  0  0  0  0  0  0  0  0
  -23.6547  -31.4543   23.3164 O   0  0  0  0  0  0  0  0  0  0  0  0
  -24.0969  -22.4891   21.0965 O   0  0  0  0  0  0  0  0  0  0  0  0
  -21.7060  -31.8525   20.1165 O   0  0  0  0  0  0  0  0  0  0  0  0
  -21.3845  -27.1671   19.4353 O   0  0  0  0  0  0  0  0  0  0  0  0
  -27.8666  -18.0819   20.4094 O   0  0  0  0  0  0  0  0  0  0  0  0
  -21.4894   -7.9873   23.2644 O   0  0  0  0  0  0  0  0  0  0  0  0
  -27.2719  -25.9693   22.6494 O   0  0  0  0  0  0  0  0  0  1  0  0
  -21.9955   -2.4996   23.4443 F   0  0  0  0  0  0  0  0  0  0  0  0
  -21.2495   -6.4648   20.9693 F   0  0  0  0  0  0  0  0  0  0  0  0
  -25.4968  -22.2382   23.3622 F   0  0  0  0  0  0  0  0  0  0  0  0
  -23.5958  -18.2288   18.6336 S   0  0  0  0  0  0  0  0  0  0  0  0
  1  2  1  0  0  0  0
  1  5  2  0  0  0  0
  2  6  2  0  0  0  0
  3  8  2  0  0  0  0
  3 16  1  0  0  0  0
  4  9  1  0  0  0  0
  4 16  2  0  0  0  0
  5 18  1  0  0  0  0
  6 20  1  0  0  0  0
  7 10  2  0  0  0  0
  7 19  1  0  0  0  0
  8 22  1  0  0  0  0
  9 22  2  0  0  0  0
 10 23  1  0  0  0  0
 11 12  2  0  0  0  0
 11 24  1  0  0  0  0
 12 25  1  0  0  0  0
 13 21  1  0  0  0  0
 13 23  2  0  0  0  0
 14 25  2  0  0  0  0
 14 26  1  0  0  0  0
 15 28  2  0  0  0  0
 15 90  1  0  0  0  0
 16 27  1  0  0  0  0
 17 27  1  0  0  0  0
 17 29  2  0  0  0  0
 17 31  1  0  0  0  0
 18 20  2  0  0  0  0
 18 37  1  0  0  0  0
 19 21  2  0  0  0  0
 19 38  1  0  0  0  0
 20 46  1  0  0  0  0
 21 39  1  0  0  0  0
 22 85  1  0  0  0  0
 23 86  1  0  0  0  0
 24 26  2  0  0  0  0
 24 85  1  0  0  0  0
 25 87  1  0  0  0  0
 26 88  1  0  0  0  0
 27 68  2  0  0  0  0
 28 61  1  0  0  0  0
 28 69  1  0  0  0  0
 29 70  1  0  0  0  0
 29 73  1  0  0  0  0
 30 69  2  0  0  0  0
 30 75  1  0  0  0  0
 30 90  1  0  0  0  0
 31 74  1  0  0  0  0
 31 79  2  0  0  0  0
 32 47  1  0  0  0  0
 32 76  1  0  0  0  0
 32 80  2  0  0  0  0
 33 57  1  0  0  0  0
 33 62  1  0  0  0  0
 33 81  2  0  0  0  0
 34 63  1  0  0  0  0
 34 71  1  0  0  0  0
 34 82  2  0  0  0  0
 35 64  1  0  0  0  0
 35 77  1  0  0  0  0
 35 83  2  0  0  0  0
 36 72  1  0  0  0  0
 36 75  1  0  0  0  0
 36 84  2  0  0  0  0
 37 40  1  0  0  0  0
 38 47  1  0  0  0  0
 39 71  1  0  0  0  0
 40 42  1  0  0  0  0
 41 43  1  0  0  0  0
 41 44  1  0  0  0  0
 42 46  1  0  0  0  0
 43 48  1  0  0  0  0
 44 72  1  0  0  0  0
 45 48  1  0  0  0  0
 45 72  1  0  0  0  0
 46 76  1  0  0  0  0
 47 71  1  0  0  0  0
 48 70  1  0  0  0  0
 49 64  1  0  0  0  0
 50 65  1  0  0  0  0
 51 65  1  0  0  0  0
 52 66  1  0  0  0  0
 53 67  1  0  0  0  0
 54 67  1  0  0  0  0
 55 67  1  0  0  0  0
 56 78  1  0  0  0  0
 57 61  1  0  0  0  0
 58 60  1  0  0  0  0
 58 62  1  0  0  0  0
 59 65  1  0  0  0  0
 59 66  1  0  0  0  0
 60 86  1  0  0  0  0
 61 66  1  0  0  0  0
 62 89  1  0  0  0  0
 63 67  1  0  0  0  0
 63 77  1  0  0  0  0
 64 78  1  0  0  0  0
 68 70  1  0  0  0  0
M  CHG  1  78   1
M  ISO  4  36 100  60 101  75 100  86 101
M  END
> <Batch ID>
0190

> <Smiles>
CNC(C)C(=O)NC(C(=O)N1Cc2cc([101O:1][101CH2:1]CC(F)C(=O)CC(c3csc([100NH:0][100C:0](=O)N4CCCC(n5nc(-c6ccc(Oc7ccc(F)cc7F)cc6)c(C(N)=O)c5N)C4)n3)C(C)CC(C)C)ccc2CC1C(=O)NC1CCCc2ccccc21)C(C)(C)C

> <Shape>
0.248

> <Color>
0.077

> <Negative vol penalty>
0.000

$$$$

  -OEChem-04052305213D

 84 92  0     1  0  0  0  0  0999 V2000
  -20.9612   -9.5404   20.7058 C   0  0  0  0  0  0  0  0  0  0  0  0
  -22.3302   -9.6683   20.4941 C   0  0  0  0  0  0  0  0  0  0  0  0
  -20.9008  -28.4998   23.7667 C   0  0  0  0  0  0  0  0  0  0  0  0
  -22.8637  -27.9307   25.0551 C   0  0  0  0  0  0  0  0  0  0  0  0
  -20.1591  -10.6784   20.7799 C   0  0  0  0  0  0  0  0  0  0  0  0
  -22.8978  -10.9345   20.3552 C   0  0  0  0  0  0  0  0  0  0  0  0
  -28.9275  -14.5350   21.7675 C   0  0  0  0  0  0  0  0  0  0  0  0
  -20.0950  -27.8733   24.7174 C   0  0  0  0  0  0  0  0  0  0  0  0
  -22.0580  -27.3043   26.0059 C   0  0  0  0  0  0  0  0  0  0  0  0
  -29.8746  -15.3397   21.1356 C   0  0  0  0  0  0  0  0  0  0  0  0
  -20.4326  -24.3588   26.3428 C   0  0  0  0  0  0  0  0  0  0  0  0
  -20.8359  -23.1086   26.8115 C   0  0  0  0  0  0  0  0  0  0  0  0
  -28.4031  -17.2379   21.3605 C   0  0  0  0  0  0  0  0  0  0  0  0
  -20.9517  -23.9884   29.0587 C   0  0  0  0  0  0  0  0  0  0  0  0
  -30.0388  -22.5812   18.9494 C   0  0  0  0  0  0  0  0  0  0  0  0
  -22.2851  -28.5284   23.9355 C   0  0  0  0  0  0  0  0  0  0  0  0
  -23.5209  -30.5237   22.9357 C   0  0  0  0  0  0  0  0  0  0  0  0
  -20.7185  -11.9595   20.6516 C   0  0  0  0  0  0  0  0  0  0  0  0
  -27.7045  -15.0743   22.1916 C   0  0  0  0  0  0  0  0  0  0  0  0
  -22.1022  -12.0906   20.4263 C   0  0  0  0  0  0  0  0  0  0  0  0
  -27.4432  -16.4385   21.9998 C   0  0  0  0  0  0  0  0  0  0  0  0
  -29.6422  -21.7003   17.9639 C   0  0  0  0  0  0  0  0  0  0  0  0
  -20.6736  -27.2756   25.8371 C   0  0  0  0  0  0  0  0  0  0  0  0
  -29.6113  -16.6907   20.9294 C   0  0  0  0  0  0  0  0  0  0  0  0
  -20.2889  -25.4240   27.2320 C   0  0  0  0  0  0  0  0  0  0  0  0
  -21.0955  -22.9233   28.1695 C   0  0  0  0  0  0  0  0  0  0  0  0
  -20.5484  -25.2387   28.5899 C   0  0  0  0  0  0  0  0  0  0  0  0
  -23.1180  -29.1749   22.9534 C   0  0  0  0  0  0  0  0  0  0  0  0
  -29.1617  -22.2769   16.8060 C   0  0  0  0  0  0  0  0  0  0  0  0
  -24.2953  -30.6359   21.8070 C   0  0  0  0  0  0  0  0  0  0  0  0
  -29.4891  -24.3625   17.6486 C   0  0  0  0  0  0  0  0  0  0  0  0
  -23.2218  -31.5806   23.8572 C   0  0  0  0  0  0  0  0  0  0  0  0
  -24.6527  -14.5506   21.4735 C   0  0  0  0  0  0  0  0  0  0  0  0
  -24.1280  -16.6429   23.8961 C   0  0  0  0  0  0  0  0  0  0  0  0
  -25.3041  -19.2097   25.8132 C   0  0  0  0  0  0  0  0  0  0  0  0
  -30.1953  -19.6310   19.2871 C   0  0  0  0  0  0  0  0  0  0  0  0
  -27.4938  -26.6722   18.8213 C   0  0  0  0  0  0  0  0  0  0  0  0
  -19.8042  -13.1582   20.6916 C   0  0  0  0  0  0  0  0  0  0  0  0
  -26.7044  -14.1987   22.8956 C   0  0  0  0  0  0  0  0  0  0  0  0
  -26.1539  -17.0705   22.4545 C   0  0  0  0  0  0  0  0  0  0  0  0
  -20.5396  -14.4783   20.9083 C   0  0  0  0  0  0  0  0  0  0  0  0
  -24.8596  -28.7397   17.4488 C   0  0  0  0  0  0  0  0  0  0  0  0
  -21.7563  -14.5681   19.9926 C   0  0  0  0  0  0  0  0  0  0  0  0
  -24.1519  -29.2140   18.7194 C   0  0  0  0  0  0  0  0  0  0  0  0
  -25.3312  -27.2950   17.5851 C   0  0  0  0  0  0  0  0  0  0  0  0
  -25.5033  -27.5151   20.0337 C   0  0  0  0  0  0  0  0  0  0  0  0
  -22.7587  -13.4478   20.2955 C   0  0  1  0  0  0  0  0  0  0  0  0
  -25.2806  -14.7419   22.8251 C   0  0  1  0  0  0  0  0  0  0  0  0
  -25.0223  -28.9760   19.9676 C   0  0  2  0  0  0  0  0  0  0  0  0
  -24.6321  -20.7364   27.6881 C   0  0  0  0  0  0  0  0  0  0  0  0
  -31.0399  -17.6551   17.9672 C   0  0  0  0  0  0  0  0  0  0  0  0
  -22.4107  -18.2600   21.9607 C   0  0  0  0  0  0  0  0  0  0  0  0
  -22.5602  -20.1893   23.5493 C   0  0  0  0  0  0  0  0  0  0  0  0
  -21.4743  -18.0626   24.2712 C   0  0  0  0  0  0  0  0  0  0  0  0
  -27.4785  -18.2150   27.5572 C   0  0  0  0  0  0  0  0  0  0  0  0
  -29.4040  -25.8408   17.4734 C   0  0  0  0  0  0  0  0  0  0  0  0
  -23.9869  -18.1422   24.0021 C   0  0  1  0  0  0  0  0  0  0  0  0
  -25.3069  -19.4253   27.3159 C   0  0  2  0  0  0  0  0  0  0  0  0
  -30.1354  -18.1171   19.1001 C   0  0  1  0  0  0  0  0  0  1  0  0
  -22.6316  -18.6515   23.4354 C   0  0  0  0  0  0  0  0  0  0  0  0
  -29.9758  -23.9232   18.8249 N   0  0  0  0  0  0  0  0  0  0  0  0
  -23.5968  -28.4801   21.9180 N   0  0  0  0  0  0  0  0  0  0  0  0
  -29.0707  -23.6092   16.6137 N   0  0  0  0  0  0  0  0  0  0  0  0
  -24.3085  -29.3959   21.2391 N   0  0  0  0  0  0  0  0  0  0  0  0
  -25.2052  -16.1716   23.1324 N   0  0  0  0  0  0  0  0  0  0  0  0
  -26.1699  -27.1403   18.7821 N   0  0  0  0  0  0  0  0  0  0  0  0
  -28.7378  -21.4259   15.7549 N   0  0  0  0  0  0  0  0  0  0  0  0
  -24.9595  -31.6733   21.2547 N   0  0  0  0  0  0  0  0  0  0  0  0
  -22.4111  -31.2928   24.9637 N   0  0  0  0  0  0  0  0  0  0  0  0
  -29.7348  -20.3016   18.1588 N   0  0  0  0  0  0  0  0  0  0  0  0
  -23.5200  -13.7592   21.4863 N   0  0  0  0  0  0  0  0  0  0  0  0
  -24.2110  -18.4751   25.4048 N   0  0  0  0  0  0  0  0  0  0  0  0
  -28.0493  -26.3320   17.5940 N   0  0  0  0  0  0  0  0  0  0  0  0
  -26.7045  -19.4528   27.8326 N   0  3  0  0  0  0  0  0  0  0  0  0
  -23.6470  -32.7496   23.6951 O   0  0  0  0  0  0  0  0  0  0  0  0
  -25.1575  -15.0828   20.4919 O   0  0  0  0  0  0  0  0  0  0  0  0
  -23.3166  -15.9167   24.4756 O   0  0  0  0  0  0  0  0  0  0  0  0
  -26.1816  -19.6521   25.0752 O   0  0  0  0  0  0  0  0  0  0  0  0
  -30.5957  -20.1272   20.3362 O   0  0  0  0  0  0  0  0  0  0  0  0
  -28.1358  -26.5701   19.8723 O   0  0  0  0  0  0  0  0  0  0  0  0
  -19.8877  -26.6644   26.7651 O   0  0  0  0  0  0  0  0  0  0  0  0
  -30.5337  -17.4782   20.3123 O   0  0  0  0  0  0  0  0  0  1  0  0
  -21.4813  -21.7223   28.6197 F   0  0  0  0  0  0  0  0  0  0  0  0
  -20.4110  -26.2579   29.4491 F   0  0  0  0  0  0  0  0  0  0  0  0
  1  2  1  0  0  0  0
  1  5  2  0  0  0  0
  2  6  2  0  0  0  0
  3  8  2  0  0  0  0
  3 16  1  0  0  0  0
  4  9  1  0  0  0  0
  4 16  2  0  0  0  0
  5 18  1  0  0  0  0
  6 20  1  0  0  0  0
  7 10  2  0  0  0  0
  7 19  1  0  0  0  0
  8 23  1  0  0  0  0
  9 23  2  0  0  0  0
 10 24  1  0  0  0  0
 11 12  2  0  0  0  0
 11 25  1  0  0  0  0
 12 26  1  0  0  0  0
 13 21  1  0  0  0  0
 13 24  2  0  0  0  0
 14 26  2  0  0  0  0
 14 27  1  0  0  0  0
 15 22  1  0  0  0  0
 15 61  2  0  0  0  0
 16 28  1  0  0  0  0
 17 28  1  0  0  0  0
 17 30  2  0  0  0  0
 17 32  1  0  0  0  0
 18 20  2  0  0  0  0
 18 38  1  0  0  0  0
 19 21  2  0  0  0  0
 19 39  1  0  0  0  0
 20 47  1  0  0  0  0
 21 40  1  0  0  0  0
 22 29  2  0  0  0  0
 22 70  1  0  0  0  0
 23 81  1  0  0  0  0
 24 82  1  0  0  0  0
 25 27  2  0  0  0  0
 25 81  1  0  0  0  0
 26 83  1  0  0  0  0
 27 84  1  0  0  0  0
 28 62  2  0  0  0  0
 29 63  1  0  0  0  0
 29 67  1  0  0  0  0
 30 64  1  0  0  0  0
 30 68  1  0  0  0  0
 31 56  1  0  0  0  0
 31 61  1  0  0  0  0
 31 63  2  0  0  0  0
 32 69  1  0  0  0  0
 32 75  2  0  0  0  0
 33 48  1  0  0  0  0
 33 71  1  0  0  0  0
 33 76  2  0  0  0  0
 34 57  1  0  0  0  0
 34 65  1  0  0  0  0
 34 77  2  0  0  0  0
 35 58  1  0  0  0  0
 35 72  1  0  0  0  0
 35 78  2  0  0  0  0
 36 59  1  0  0  0  0
 36 70  1  0  0  0  0
 36 79  2  0  0  0  0
 37 66  1  0  0  0  0
 37 73  1  0  0  0  0
 37 80  2  0  0  0  0
 38 41  1  0  0  0  0
 39 48  1  0  0  0  0
 40 65  1  0  0  0  0
 41 43  1  0  0  0  0
 42 44  1  0  0  0  0
 42 45  1  0  0  0  0
 43 47  1  0  0  0  0
 44 49  1  0  0  0  0
 45 66  1  0  0  0  0
 46 49  1  0  0  0  0
 46 66  1  0  0  0  0
 47 71  1  0  0  0  0
 48 65  1  0  0  0  0
 49 64  1  0  0  0  0
 50 58  1  0  0  0  0
 51 59  1  0  0  0  0
 52 60  1  0  0  0  0
 53 60  1  0  0  0  0
 54 60  1  0  0  0  0
 55 74  1  0  0  0  0
 56 73  1  0  0  0  0
 57 60  1  0  0  0  0
 57 72  1  0  0  0  0
 58 74  1  0  0  0  0
 59 82  1  0  0  0  0
 62 64  1  0  0  0  0
M  CHG  1  74   1
M  ISO  4  37 100  59 101  73 100  82 101
M  END
> <Batch ID>
0190

> <Smiles>
CNC(C)C(=O)NC(C(=O)N1Cc2cc([101O:1][101CH:1](C)C(=O)Nc3cnc(C[100NH:0][100C:0](=O)N4CCCC(n5nc(-c6ccc(Oc7ccc(F)cc7F)cc6)c(C(N)=O)c5N)C4)nc3N)ccc2CC1C(=O)NC1CCCc2ccccc21)C(C)(C)C

> <Shape>
0.192

> <Color>
0.072

> <Negative vol penalty>
0.000

$$$$

  -OEChem-04052305213D

 81 89  0     1  0  0  0  0  0999 V2000
  -27.5928  -36.1405   20.2839 C   0  0  0  0  0  0  0  0  0  0  0  0
  -28.2723  -34.9967   19.8771 C   0  0  0  0  0  0  0  0  0  0  0  0
  -24.9926  -10.0556   21.9607 C   0  0  0  0  0  0  0  0  0  0  0  0
  -24.9677  -11.6233   23.7988 C   0  0  0  0  0  0  0  0  0  0  0  0
  -26.8354  -36.1207   21.4543 C   0  0  0  0  0  0  0  0  0  0  0  0
  -28.1957  -33.8327   20.6411 C   0  0  0  0  0  0  0  0  0  0  0  0
  -28.1723  -28.0677   18.5748 C   0  0  0  0  0  0  0  0  0  0  0  0
  -24.9708   -8.9943   22.8655 C   0  0  0  0  0  0  0  0  0  0  0  0
  -24.9459  -10.5619   24.7037 C   0  0  0  0  0  0  0  0  0  0  0  0
  -29.1763  -27.1065   18.4651 C   0  0  0  0  0  0  0  0  0  0  0  0
  -22.6854   -7.4014   24.7819 C   0  0  0  0  0  0  0  0  0  0  0  0
  -21.8095   -6.3471   24.5233 C   0  0  0  0  0  0  0  0  0  0  0  0
  -28.4927  -26.1603   20.5761 C   0  0  0  0  0  0  0  0  0  0  0  0
  -23.6780   -4.8186   24.4265 C   0  0  0  0  0  0  0  0  0  0  0  0
  -24.9911  -11.3702   22.4273 C   0  0  0  0  0  0  0  0  0  0  0  0
  -23.9060  -13.1201   20.9214 C   0  0  0  0  0  0  0  0  0  0  0  0
  -26.7416  -34.9531   22.2279 C   0  0  0  0  0  0  0  0  0  0  0  0
  -27.3266  -28.0891   19.6932 C   0  0  0  0  0  0  0  0  0  0  0  0
  -27.4374  -33.7977   21.8236 C   0  0  0  0  0  0  0  0  0  0  0  0
  -27.4772  -27.1211   20.6964 C   0  0  0  0  0  0  0  0  0  0  0  0
  -24.9474   -9.2474   24.2370 C   0  0  0  0  0  0  0  0  0  0  0  0
  -29.3385  -26.1544   19.4672 C   0  0  0  0  0  0  0  0  0  0  0  0
  -24.0576   -7.1644   24.8626 C   0  0  0  0  0  0  0  0  0  0  0  0
  -22.3058   -5.0557   24.3456 C   0  0  0  0  0  0  0  0  0  0  0  0
  -24.5539   -5.8730   24.6850 C   0  0  0  0  0  0  0  0  0  0  0  0
  -25.0143  -12.4669   21.4932 C   0  0  0  0  0  0  0  0  0  0  0  0
  -24.4557  -14.0820   20.1096 C   0  0  0  0  0  0  0  0  0  0  0  0
  -29.0076  -19.8350   21.5115 C   0  0  0  0  0  0  0  0  0  0  0  0
  -28.7549  -21.6531   20.3427 C   0  0  0  0  0  0  0  0  0  0  0  0
  -22.5050  -12.8789   21.1075 C   0  0  0  0  0  0  0  0  0  0  0  0
  -26.7315  -30.1759   22.0158 C   0  0  0  0  0  0  0  0  0  0  0  0
  -24.4282  -28.0366   22.8163 C   0  0  0  0  0  0  0  0  0  0  0  0
  -23.2955  -24.8194   22.6998 C   0  0  0  0  0  0  0  0  0  0  0  0
  -29.7118  -16.9493   20.1672 C   0  0  0  0  0  0  0  0  0  0  0  0
  -25.9490  -34.9937   23.5104 C   0  0  0  0  0  0  0  0  0  0  0  0
  -26.2313  -29.1160   19.7837 C   0  0  0  0  0  0  0  0  0  0  0  0
  -26.5823  -27.0884   21.9075 C   0  0  0  0  0  0  0  0  0  0  0  0
  -25.6160  -33.6109   24.0647 C   0  0  0  0  0  0  0  0  0  0  0  0
  -28.3655  -14.9999   17.5093 C   0  0  0  0  0  0  0  0  0  0  0  0
  -26.8511  -32.7160   24.0445 C   0  0  0  0  0  0  0  0  0  0  0  0
  -27.2540  -14.1887   18.1773 C   0  0  0  0  0  0  0  0  0  0  0  0
  -29.5653  -15.1834   18.4360 C   0  0  0  0  0  0  0  0  0  0  0  0
  -28.1333  -14.9400   20.4270 C   0  0  0  0  0  0  0  0  0  0  0  0
  -27.3587  -32.5086   22.6124 C   0  0  1  0  0  0  0  0  0  0  0  0
  -25.7578  -29.3601   21.2132 C   0  0  1  0  0  0  0  0  0  0  0  0
  -26.8792  -14.7761   19.5513 C   0  0  2  0  0  0  0  0  0  0  0  0
  -21.4012  -23.3686   23.4770 C   0  0  0  0  0  0  0  0  0  0  0  0
  -31.5301  -24.5748   17.4165 C   0  0  0  0  0  0  0  0  0  0  0  0
  -25.6057  -28.0111   25.6311 C   0  0  0  0  0  0  0  0  0  0  0  0
  -24.3253  -25.9054   26.0724 C   0  0  0  0  0  0  0  0  0  0  0  0
  -23.1063  -28.0171   25.5459 C   0  0  0  0  0  0  0  0  0  0  0  0
  -22.5125  -24.1551   19.9242 C   0  0  0  0  0  0  0  0  0  0  0  0
  -29.7364  -18.6438   21.9802 C   0  0  0  0  0  0  0  0  0  0  0  0
  -30.1681  -22.8972   18.7055 C   0  0  0  0  0  0  0  0  0  0  0  0
  -24.3624  -26.8197   23.7073 C   0  0  1  0  0  0  0  0  0  0  0  0
  -21.9350  -24.2425   22.3526 C   0  0  2  0  0  0  0  0  0  0  0  0
  -30.2664  -24.3458   18.2327 C   0  0  1  0  0  0  0  0  0  1  0  0
  -24.3682  -27.1899   25.2174 C   0  0  0  0  0  0  0  0  0  0  0  0
  -26.1799  -12.9712   21.0795 N   0  0  0  0  0  0  0  0  0  0  0  0
  -29.6037  -20.6799   20.5908 N   0  0  0  0  0  0  0  0  0  0  0  0
  -27.7840  -20.0866   21.9765 N   0  0  0  0  0  0  0  0  0  0  0  0
  -25.8071  -13.9514   20.2391 N   0  0  0  0  0  0  0  0  0  0  0  0
  -25.5302  -28.1172   21.9532 N   0  0  0  0  0  0  0  0  0  0  0  0
  -29.1420  -15.7454   19.7210 N   0  0  0  0  0  0  0  0  0  0  0  0
  -23.9100  -15.0183   19.3046 N   0  0  0  0  0  0  0  0  0  0  0  0
  -22.1136  -11.8519   21.9772 N   0  0  0  0  0  0  0  0  0  0  0  0
  -28.9591  -22.7136   19.4759 N   0  0  0  0  0  0  0  0  0  0  0  0
  -26.5357  -31.5404   21.9198 N   0  0  0  0  0  0  0  0  0  0  0  0
  -23.1887  -26.0650   23.2815 N   0  0  0  0  0  0  0  0  0  0  0  0
  -29.2501  -17.4156   21.3919 N   0  0  0  0  0  0  0  0  0  0  0  0
  -22.0233  -23.4155   21.1161 N   0  3  0  0  0  0  0  0  0  0  0  0
  -21.6264  -13.5434   20.5075 O   0  0  0  0  0  0  0  0  0  0  0  0
  -27.5955  -29.6092   22.6747 O   0  0  0  0  0  0  0  0  0  0  0  0
  -23.5310  -28.8809   22.8786 O   0  0  0  0  0  0  0  0  0  0  0  0
  -24.3476  -24.2231   22.4806 O   0  0  0  0  0  0  0  0  0  0  0  0
  -30.5645  -17.5658   19.5193 O   0  0  0  0  0  0  0  0  0  0  0  0
  -24.9258   -8.2120   25.1202 O   0  0  0  0  0  0  0  0  0  0  0  0
  -30.3180  -25.2155   19.3629 O   0  0  0  0  0  0  0  0  0  1  0  0
  -21.4645   -4.0431   24.0989 F   0  0  0  0  0  0  0  0  0  0  0  0
  -25.8711   -5.6389   24.7626 F   0  0  0  0  0  0  0  0  0  0  0  0
  -27.2917  -21.4990   21.2259 S   0  0  0  0  0  0  0  0  0  0  0  0
  1  2  1  0  0  0  0
  1  5  2  0  0  0  0
  2  6  2  0  0  0  0
  3  8  2  0  0  0  0
  3 15  1  0  0  0  0
  4  9  1  0  0  0  0
  4 15  2  0  0  0  0
  5 17  1  0  0  0  0
  6 19  1  0  0  0  0
  7 10  2  0  0  0  0
  7 18  1  0  0  0  0
  8 21  1  0  0  0  0
  9 21  2  0  0  0  0
 10 22  1  0  0  0  0
 11 12  2  0  0  0  0
 11 23  1  0  0  0  0
 12 24  1  0  0  0  0
 13 20  1  0  0  0  0
 13 22  2  0  0  0  0
 14 24  2  0  0  0  0
 14 25  1  0  0  0  0
 15 26  1  0  0  0  0
 16 26  1  0  0  0  0
 16 27  2  0  0  0  0
 16 30  1  0  0  0  0
 17 19  2  0  0  0  0
 17 35  1  0  0  0  0
 18 20  2  0  0  0  0
 18 36  1  0  0  0  0
 19 44  1  0  0  0  0
 20 37  1  0  0  0  0
 21 77  1  0  0  0  0
 22 78  1  0  0  0  0
 23 25  2  0  0  0  0
 23 77  1  0  0  0  0
 24 79  1  0  0  0  0
 25 80  1  0  0  0  0
 26 59  2  0  0  0  0
 27 62  1  0  0  0  0
 27 65  1  0  0  0  0
 28 53  1  0  0  0  0
 28 60  1  0  0  0  0
 28 61  2  0  0  0  0
 29 60  2  0  0  0  0
 29 67  1  0  0  0  0
 29 81  1  0  0  0  0
 30 66  1  0  0  0  0
 30 72  2  0  0  0  0
 31 45  1  0  0  0  0
 31 68  1  0  0  0  0
 31 73  2  0  0  0  0
 32 55  1  0  0  0  0
 32 63  1  0  0  0  0
 32 74  2  0  0  0  0
 33 56  1  0  0  0  0
 33 69  1  0  0  0  0
 33 75  2  0  0  0  0
 34 64  1  0  0  0  0
 34 70  1  0  0  0  0
 34 76  2  0  0  0  0
 35 38  1  0  0  0  0
 36 45  1  0  0  0  0
 37 63  1  0  0  0  0
 38 40  1  0  0  0  0
 39 41  1  0  0  0  0
 39 42  1  0  0  0  0
 40 44  1  0  0  0  0
 41 46  1  0  0  0  0
 42 64  1  0  0  0  0
 43 46  1  0  0  0  0
 43 64  1  0  0  0  0
 44 68  1  0  0  0  0
 45 63  1  0  0  0  0
 46 62  1  0  0  0  0
 47 56  1  0  0  0  0
 48 57  1  0  0  0  0
 49 58  1  0  0  0  0
 50 58  1  0  0  0  0
 51 58  1  0  0  0  0
 52 71  1  0  0  0  0
 53 70  1  0  0  0  0
 54 57  1  0  0  0  0
 54 67  1  0  0  0  0
 55 58  1  0  0  0  0
 55 69  1  0  0  0  0
 56 71  1  0  0  0  0
 57 78  1  0  0  0  0
 59 62  1  0  0  0  0
 61 81  1  0  0  0  0
M  CHG  1  71   1
M  ISO  4  34 100  57 101  70 100  78 101
M  END
> <Batch ID>
0190

> <Smiles>
CNC(C)C(=O)NC(C(=O)N1Cc2cc([101O:1][101CH:1](C)CNc3nc(C[100NH:0][100C:0](=O)N4CCCC(n5nc(-c6ccc(Oc7ccc(F)cc7F)cc6)c(C(N)=O)c5N)C4)ns3)ccc2CC1C(=O)NC1CCCc2ccccc21)C(C)(C)C

> <Shape>
0.255

> <Color>
0.094

> <Negative vol penalty>
0.000

$$$$

  -OEChem-04052305213D

 91 99  0     1  0  0  0  0  0999 V2000
  -28.4723  -18.3797   18.8064 C   0  0  0  0  0  0  0  0  0  0  0  0
  -27.3986  -19.2579   18.6993 C   0  0  0  0  0  0  0  0  0  0  0  0
  -26.1009  -13.5574   20.0601 C   0  0  0  0  0  0  0  0  0  0  0  0
  -24.1386  -13.3106   21.4476 C   0  0  0  0  0  0  0  0  0  0  0  0
  -29.5343  -18.6796   19.6586 C   0  0  0  0  0  0  0  0  0  0  0  0
  -27.3857  -20.4359   19.4453 C   0  0  0  0  0  0  0  0  0  0  0  0
  -25.1355  -27.2288   19.1148 C   0  0  0  0  0  0  0  0  0  0  0  0
  -26.1237  -12.1791   19.8470 C   0  0  0  0  0  0  0  0  0  0  0  0
  -24.1613  -11.9323   21.2346 C   0  0  0  0  0  0  0  0  0  0  0  0
  -24.3907  -28.1535   19.8456 C   0  0  0  0  0  0  0  0  0  0  0  0
  -25.8721   -9.2591   22.4000 C   0  0  0  0  0  0  0  0  0  0  0  0
  -25.6843   -8.4293   23.5053 C   0  0  0  0  0  0  0  0  0  0  0  0
  -26.3172  -28.6055   21.2253 C   0  0  0  0  0  0  0  0  0  0  0  0
  -23.7270   -7.4765   22.4573 C   0  0  0  0  0  0  0  0  0  0  0  0
  -19.9816  -25.5063   23.8151 C   0  0  0  0  0  0  0  0  0  0  0  0
  -25.1084  -14.1231   20.8604 C   0  0  0  0  0  0  0  0  0  0  0  0
  -24.4165  -16.5159   20.3092 C   0  0  0  0  0  0  0  0  0  0  0  0
  -29.5390  -19.8666   20.4081 C   0  0  0  0  0  0  0  0  0  0  0  0
  -26.4758  -26.9771   19.4412 C   0  0  0  0  0  0  0  0  0  0  0  0
  -28.4481  -20.7513   20.3093 C   0  0  0  0  0  0  0  0  0  0  0  0
  -27.0775  -27.6790   20.4955 C   0  0  0  0  0  0  0  0  0  0  0  0
  -21.3039  -25.7018   25.7166 C   0  0  0  0  0  0  0  0  0  0  0  0
  -20.7337  -26.3617   24.5898 C   0  0  0  0  0  0  0  0  0  0  0  0
  -25.1539  -11.3665   20.4342 C   0  0  0  0  0  0  0  0  0  0  0  0
  -24.9808  -28.8399   20.9029 C   0  0  0  0  0  0  0  0  0  0  0  0
  -24.9873   -9.1977   21.3233 C   0  0  0  0  0  0  0  0  0  0  0  0
  -24.6117   -7.5380   23.5340 C   0  0  0  0  0  0  0  0  0  0  0  0
  -23.9148   -8.3063   21.3520 C   0  0  0  0  0  0  0  0  0  0  0  0
  -25.0847  -15.5468   21.0813 C   0  0  0  0  0  0  0  0  0  0  0  0
  -20.9656  -24.3670   25.7602 C   0  0  0  0  0  0  0  0  0  0  0  0
  -24.7041  -17.7071   20.9293 C   0  0  0  0  0  0  0  0  0  0  0  0
  -23.6081  -16.3537   19.1362 C   0  0  0  0  0  0  0  0  0  0  0  0
  -28.1066  -24.4289   20.4164 C   0  0  0  0  0  0  0  0  0  0  0  0
  -25.1808  -20.7049   25.6278 C   0  0  0  0  0  0  0  0  0  0  0  0
  -30.6545  -26.4019   20.0456 C   0  0  0  0  0  0  0  0  0  0  0  0
  -23.3051  -22.4023   25.5657 C   0  0  0  0  0  0  0  0  0  0  0  0
  -20.3657  -28.4198   23.1911 C   0  0  0  0  0  0  0  0  0  0  0  0
  -31.8516  -29.5952   19.9175 C   0  0  0  0  0  0  0  0  0  0  0  0
  -30.6870  -20.1249   21.3515 C   0  0  0  0  0  0  0  0  0  0  0  0
  -27.2731  -25.9961   18.6261 C   0  0  0  0  0  0  0  0  0  0  0  0
  -28.5189  -27.4600   20.8733 C   0  0  0  0  0  0  0  0  0  0  0  0
  -30.7725  -21.5738   21.8244 C   0  0  0  0  0  0  0  0  0  0  0  0
  -28.0344  -18.8189   24.5600 C   0  0  0  0  0  0  0  0  0  0  0  0
  -29.3984  -22.0767   22.2551 C   0  0  0  0  0  0  0  0  0  0  0  0
  -27.4609  -17.8588   23.5186 C   0  0  0  0  0  0  0  0  0  0  0  0
  -27.0410  -19.0768   25.6886 C   0  0  0  0  0  0  0  0  0  0  0  0
  -25.1335  -18.6117   24.1830 C   0  0  0  0  0  0  0  0  0  0  0  0
  -28.4094  -22.0510   21.0834 C   0  0  1  0  0  0  0  0  0  0  0  0
  -28.4827  -25.4425   19.3730 C   0  0  1  0  0  0  0  0  0  0  0  0
  -26.0935  -18.3481   23.0094 C   0  0  2  0  0  0  0  0  0  0  0  0
  -22.1598  -26.3714   26.7279 C   0  0  0  0  0  0  0  0  0  0  0  0
  -33.9830  -30.8904   19.6399 C   0  0  0  0  0  0  0  0  0  0  0  0
  -18.3272  -31.3828   25.8750 C   0  0  0  0  0  0  0  0  0  0  0  0
  -17.9267  -31.1507   23.4163 C   0  0  0  0  0  0  0  0  0  0  0  0
  -31.4340  -25.7303   22.9181 C   0  0  0  0  0  0  0  0  0  0  0  0
  -32.9551  -27.7187   22.8965 C   0  0  0  0  0  0  0  0  0  0  0  0
  -33.3498  -25.8314   21.3138 C   0  0  0  0  0  0  0  0  0  0  0  0
  -30.8657  -30.9145   17.4586 C   0  0  0  0  0  0  0  0  0  0  0  0
  -21.3488  -23.3430   26.7579 C   0  0  0  0  0  0  0  0  0  0  0  0
  -23.8498  -21.0958   25.0365 C   0  0  0  0  0  0  0  0  0  0  0  0
  -22.2766  -30.1133   23.0112 C   0  0  0  0  0  0  0  0  0  0  0  0
  -20.2308  -30.6561   24.4034 C   0  0  0  0  0  0  0  0  0  0  0  0
  -22.8548  -29.5123   21.7301 C   0  0  0  0  0  0  0  0  0  1  0  0
  -31.3877  -27.3794   20.9321 C   0  0  1  0  0  0  0  0  0  0  0  0
  -20.7530  -29.9035   23.1596 C   0  0  2  0  0  0  0  0  0  0  0  0
  -32.7801  -30.2842   18.9339 C   0  0  2  0  0  0  0  0  0  0  0  0
  -18.7026  -30.5998   24.6134 C   0  0  0  0  0  0  0  0  0  0  0  0
  -32.2539  -26.6679   22.0095 C   0  0  0  0  0  0  0  0  0  0  0  0
  -25.7470  -16.0766   22.1132 N   0  0  0  0  0  0  0  0  0  0  0  0
  -25.4965  -17.3915   21.9936 N   0  0  0  0  0  0  0  0  0  0  0  0
  -29.2550  -26.4861   20.0503 N   0  0  0  0  0  0  0  0  0  0  0  0
  -25.7480  -19.5183   25.1627 N   0  0  0  0  0  0  0  0  0  0  0  0
  -24.3541  -18.9833   20.6626 N   0  0  0  0  0  0  0  0  0  0  0  0
  -23.4148  -15.0605   18.6315 N   0  0  0  0  0  0  0  0  0  0  0  0
  -20.8985  -27.7311   24.2722 N   0  0  0  0  0  0  0  0  0  0  0  0
  -28.6426  -23.1737   20.2005 N   0  0  0  0  0  0  0  0  0  0  0  0
  -22.0711  -22.2360   26.1736 N   0  0  0  0  0  0  0  0  0  0  0  0
  -32.1423  -28.2530   20.0400 N   0  0  0  0  0  0  0  0  0  0  0  0
  -32.0587  -31.3729   18.2160 N   0  3  0  0  0  0  0  0  0  0  0  0
  -23.0865  -17.3284   18.5434 O   0  0  0  0  0  0  0  0  0  0  0  0
  -27.3847  -24.7614   21.3492 O   0  0  0  0  0  0  0  0  0  0  0  0
  -25.7008  -21.4352   26.4755 O   0  0  0  0  0  0  0  0  0  0  0  0
  -31.3001  -25.5981   19.3682 O   0  0  0  0  0  0  0  0  0  0  0  0
  -23.9036  -23.4695   25.4580 O   0  0  0  0  0  0  0  0  0  0  0  0
  -19.6459  -27.9625   22.3051 O   0  0  0  0  0  0  0  0  0  0  0  0
  -30.9601  -30.1892   20.5200 O   0  0  0  0  0  0  0  0  0  0  0  0
  -25.1756  -10.0216   20.2264 O   0  0  0  0  0  0  0  0  0  0  0  0
  -24.2503  -29.7496   21.6239 O   0  0  0  0  0  0  0  0  0  1  0  0
  -24.4324   -6.7401   24.5948 F   0  0  0  0  0  0  0  0  0  0  0  0
  -23.0622   -8.2419   20.3202 F   0  0  0  0  0  0  0  0  0  0  0  0
  -19.9648  -23.9146   24.4464 S   0  0  0  0  0  0  0  0  0  0  0  0
  1  2  1  0  0  0  0
  1  5  2  0  0  0  0
  2  6  2  0  0  0  0
  3  8  2  0  0  0  0
  3 16  1  0  0  0  0
  4  9  1  0  0  0  0
  4 16  2  0  0  0  0
  5 18  1  0  0  0  0
  6 20  1  0  0  0  0
  7 10  2  0  0  0  0
  7 19  1  0  0  0  0
  8 24  1  0  0  0  0
  9 24  2  0  0  0  0
 10 25  1  0  0  0  0
 11 12  2  0  0  0  0
 11 26  1  0  0  0  0
 12 27  1  0  0  0  0
 13 21  1  0  0  0  0
 13 25  2  0  0  0  0
 14 27  2  0  0  0  0
 14 28  1  0  0  0  0
 15 23  2  0  0  0  0
 15 91  1  0  0  0  0
 16 29  1  0  0  0  0
 17 29  1  0  0  0  0
 17 31  2  0  0  0  0
 17 32  1  0  0  0  0
 18 20  2  0  0  0  0
 18 39  1  0  0  0  0
 19 21  2  0  0  0  0
 19 40  1  0  0  0  0
 20 48  1  0  0  0  0
 21 41  1  0  0  0  0
 22 23  1  0  0  0  0
 22 30  2  0  0  0  0
 22 51  1  0  0  0  0
 23 75  1  0  0  0  0
 24 87  1  0  0  0  0
 25 88  1  0  0  0  0
 26 28  2  0  0  0  0
 26 87  1  0  0  0  0
 27 89  1  0  0  0  0
 28 90  1  0  0  0  0
 29 69  2  0  0  0  0
 30 59  1  0  0  0  0
 30 91  1  0  0  0  0
 31 70  1  0  0  0  0
 31 73  1  0  0  0  0
 32 74  1  0  0  0  0
 32 80  2  0  0  0  0
 33 49  1  0  0  0  0
 33 76  1  0  0  0  0
 33 81  2  0  0  0  0
 34 60  1  0  0  0  0
 34 72  1  0  0  0  0
 34 82  2  0  0  0  0
 35 64  1  0  0  0  0
 35 71  1  0  0  0  0
 35 83  2  0  0  0  0
 36 60  1  0  0  0  0
 36 77  1  0  0  0  0
 36 84  2  0  0  0  0
 37 65  1  0  0  0  0
 37 75  1  0  0  0  0
 37 85  2  0  0  0  0
 38 66  1  0  0  0  0
 38 78  1  0  0  0  0
 38 86  2  0  0  0  0
 39 42  1  0  0  0  0
 40 49  1  0  0  0  0
 41 71  1  0  0  0  0
 42 44  1  0  0  0  0
 43 45  1  0  0  0  0
 43 46  1  0  0  0  0
 44 48  1  0  0  0  0
 45 50  1  0  0  0  0
 46 72  1  0  0  0  0
 47 50  1  0  0  0  0
 47 72  1  0  0  0  0
 48 76  1  0  0  0  0
 49 71  1  0  0  0  0
 50 70  1  0  0  0  0
 52 66  1  0  0  0  0
 53 67  1  0  0  0  0
 54 67  1  0  0  0  0
 55 68  1  0  0  0  0
 56 68  1  0  0  0  0
 57 68  1  0  0  0  0
 58 79  1  0  0  0  0
 59 77  1  0  0  0  0
 61 63  1  0  0  0  0
 61 65  1  0  0  0  0
 62 65  1  0  0  0  0
 62 67  1  0  0  0  0
 63 88  1  0  0  0  0
 64 68  1  0  0  0  0
 64 78  1  0  0  0  0
 66 79  1  0  0  0  0
 69 70  1  0  0  0  0
M  CHG  1  79   1
M  ISO  4  34 100  60 100  63 101  88 101
M  END
> <Batch ID>
0190

> <Smiles>
CNC(C)C(=O)NC(C(=O)N1Cc2cc([101O:1][101CH2:1]CC(CC(C)C)C(=O)Nc3csc(CNC(=O)[100CH2:0][100C:0](=O)N4CCCC(n5nc(-c6ccc(Oc7ccc(F)cc7F)cc6)c(C(N)=O)c5N)C4)c3C)ccc2CC1C(=O)NC1CCCc2ccccc21)C(C)(C)C

> <Shape>
0.246

> <Color>
0.045

> <Negative vol penalty>
0.000

$$$$

  -OEChem-04052305213D

 87 95  0     1  0  0  0  0  0999 V2000
  -28.6393  -37.9949   21.5806 C   0  0  0  0  0  0  0  0  0  0  0  0
  -29.0337  -36.7317   21.1513 C   0  0  0  0  0  0  0  0  0  0  0  0
  -24.0689   -9.2018   22.1452 C   0  0  0  0  0  0  0  0  0  0  0  0
  -22.7765   -9.9440   20.2436 C   0  0  0  0  0  0  0  0  0  0  0  0
  -27.7071  -38.1205   22.6097 C   0  0  0  0  0  0  0  0  0  0  0  0
  -28.4970  -35.5934   21.7519 C   0  0  0  0  0  0  0  0  0  0  0  0
  -27.2372  -30.2479   19.0418 C   0  0  0  0  0  0  0  0  0  0  0  0
  -23.4073   -7.9742   22.1158 C   0  0  0  0  0  0  0  0  0  0  0  0
  -22.1149   -8.7163   20.2142 C   0  0  0  0  0  0  0  0  0  0  0  0
  -27.9347  -29.0425   18.9756 C   0  0  0  0  0  0  0  0  0  0  0  0
  -23.5536   -5.1078   20.3284 C   0  0  0  0  0  0  0  0  0  0  0  0
  -24.3241   -3.9527   20.4615 C   0  0  0  0  0  0  0  0  0  0  0  0
  -26.6421  -28.1996   20.8297 C   0  0  0  0  0  0  0  0  0  0  0  0
  -23.0858   -3.3558   22.4483 C   0  0  0  0  0  0  0  0  0  0  0  0
  -23.7535  -10.1867   21.2091 C   0  0  0  0  0  0  0  0  0  0  0  0
  -25.6239  -11.7976   20.5655 C   0  0  0  0  0  0  0  0  0  0  0  0
  -27.1515  -36.9832   23.2166 C   0  0  0  0  0  0  0  0  0  0  0  0
  -26.2428  -30.4424   20.0112 C   0  0  0  0  0  0  0  0  0  0  0  0
  -27.5575  -35.7040   22.7910 C   0  0  0  0  0  0  0  0  0  0  0  0
  -25.9317  -29.4074   20.9046 C   0  0  0  0  0  0  0  0  0  0  0  0
  -22.4303   -7.7315   21.1503 C   0  0  0  0  0  0  0  0  0  0  0  0
  -27.6392  -28.0192   19.8714 C   0  0  0  0  0  0  0  0  0  0  0  0
  -22.5492   -5.3869   21.2552 C   0  0  0  0  0  0  0  0  0  0  0  0
  -24.0902   -3.0767   21.5215 C   0  0  0  0  0  0  0  0  0  0  0  0
  -22.3153   -4.5109   22.3152 C   0  0  0  0  0  0  0  0  0  0  0  0
  -24.4363  -11.4552   21.2393 C   0  0  0  0  0  0  0  0  0  0  0  0
  -26.0062  -21.3712   19.2698 C   0  0  0  0  0  0  0  0  0  0  0  0
  -25.8541  -13.1049   20.9182 C   0  0  0  0  0  0  0  0  0  0  0  0
  -26.4994  -20.6570   18.1980 C   0  0  0  0  0  0  0  0  0  0  0  0
  -25.3297  -19.3720   19.8663 C   0  0  0  0  0  0  0  0  0  0  0  0
  -26.4456  -11.0048   19.6982 C   0  0  0  0  0  0  0  0  0  0  0  0
  -25.8438  -32.4489   22.4441 C   0  0  0  0  0  0  0  0  0  0  0  0
  -24.1380  -23.6746   20.3364 C   0  0  0  0  0  0  0  0  0  0  0  0
  -22.9285  -31.0377   22.6225 C   0  0  0  0  0  0  0  0  0  0  0  0
  -20.9817  -28.3154   21.9546 C   0  0  0  0  0  0  0  0  0  0  0  0
  -24.0638  -18.3085   21.7670 C   0  0  0  0  0  0  0  0  0  0  0  0
  -26.1827  -37.1692   24.3575 C   0  0  0  0  0  0  0  0  0  0  0  0
  -25.4812  -31.7388   20.0524 C   0  0  0  0  0  0  0  0  0  0  0  0
  -24.8590  -29.5587   21.9509 C   0  0  0  0  0  0  0  0  0  0  0  0
  -25.3812  -35.9125   24.6870 C   0  0  0  0  0  0  0  0  0  0  0  0
  -23.6649  -15.9989   24.4472 C   0  0  0  0  0  0  0  0  0  0  0  0
  -26.2989  -34.6958   24.7519 C   0  0  0  0  0  0  0  0  0  0  0  0
  -23.9278  -14.6391   23.7962 C   0  0  0  0  0  0  0  0  0  0  0  0
  -22.9242  -16.9455   23.5043 C   0  0  0  0  0  0  0  0  0  0  0  0
  -23.8083  -15.7598   21.5341 C   0  0  0  0  0  0  0  0  0  0  0  0
  -26.9794  -34.4454   23.4008 C   0  0  1  0  0  0  0  0  0  0  0  0
  -24.8434  -32.0143   21.4106 C   0  0  1  0  0  0  0  0  0  0  0  0
  -24.6096  -14.7943   22.4226 C   0  0  2  0  0  0  0  0  0  0  0  0
  -21.8202  -23.9206   21.3191 C   0  0  0  0  0  0  0  0  0  0  0  0
  -18.6488  -27.4408   22.2543 C   0  0  0  0  0  0  0  0  0  0  0  0
  -29.9780  -25.9931   21.3213 C   0  0  0  0  0  0  0  0  0  0  0  0
  -23.5202  -30.4736   25.5622 C   0  0  0  0  0  0  0  0  0  0  0  0
  -21.6438  -28.8161   25.5497 C   0  0  0  0  0  0  0  0  0  0  0  0
  -21.1811  -31.2246   25.0943 C   0  0  0  0  0  0  0  0  0  0  0  0
  -20.5617  -28.1029   19.0327 C   0  0  0  0  0  0  0  0  0  0  0  0
  -23.2966  -23.7098   21.6031 C   0  0  0  0  0  0  0  0  0  0  0  0
  -26.3168  -24.8607   20.6364 C   0  0  0  0  0  0  0  0  0  0  0  0
  -27.8250  -24.7498   20.9037 C   0  0  0  0  0  0  0  0  0  0  0  0
  -25.6387  -23.4909   20.5336 C   0  0  2  0  0  0  0  0  0  0  0  0
  -22.3642  -29.8371   23.3430 C   0  0  1  0  0  0  0  0  0  0  0  0
  -19.6007  -28.1919   21.3365 C   0  0  2  0  0  0  0  0  0  0  0  0
  -28.4888  -26.1248   21.0313 C   0  0  2  0  0  0  0  0  0  1  0  0
  -22.1989  -30.0854   24.8689 C   0  0  0  0  0  0  0  0  0  0  0  0
  -23.9462  -12.4636   21.9653 N   0  0  0  0  0  0  0  0  0  0  0  0
  -25.3349  -20.6361   20.2273 N   0  0  0  0  0  0  0  0  0  0  0  0
  -24.8304  -13.4524   21.7497 N   0  0  0  0  0  0  0  0  0  0  0  0
  -24.1467  -30.8471   21.9550 N   0  0  0  0  0  0  0  0  0  0  0  0
  -23.6302  -17.0464   22.2252 N   0  0  0  0  0  0  0  0  0  0  0  0
  -26.8304  -13.9796   20.5952 N   0  0  0  0  0  0  0  0  0  0  0  0
  -26.0637   -9.6809   19.4420 N   0  0  0  0  0  0  0  0  0  0  0  0
  -26.1557  -22.7394   19.4091 N   0  0  0  0  0  0  0  0  0  0  0  0
  -24.7522  -18.2764   20.5547 N   0  0  0  0  0  0  0  0  0  0  0  0
  -26.0585  -33.8134   22.4805 N   0  0  0  0  0  0  0  0  0  0  0  0
  -21.1239  -29.4943   22.6556 N   0  0  0  0  0  0  0  0  0  0  0  0
  -19.6772  -27.4619   20.0395 N   0  3  0  0  0  0  0  0  0  0  0  0
  -27.4964  -11.4520   19.1793 O   0  0  0  0  0  0  0  0  0  0  0  0
  -26.3801  -31.6085   23.1567 O   0  0  0  0  0  0  0  0  0  0  0  0
  -23.6416  -23.8067   19.2175 O   0  0  0  0  0  0  0  0  0  0  0  0
  -22.3076  -32.1034   22.6449 O   0  0  0  0  0  0  0  0  0  0  0  0
  -21.8464  -27.4508   21.8313 O   0  0  0  0  0  0  0  0  0  0  0  0
  -23.8645  -19.3383   22.4164 O   0  0  0  0  0  0  0  0  0  0  0  0
  -21.7846   -6.5336   21.1212 O   0  0  0  0  0  0  0  0  0  0  0  0
  -28.3189  -26.8419   19.8093 O   0  0  0  0  0  0  0  0  0  1  0  0
  -24.8292   -1.9667   21.6484 F   0  0  0  0  0  0  0  0  0  0  0  0
  -21.3510   -4.7731   23.2080 F   0  0  0  0  0  0  0  0  0  0  0  0
  -27.1750  -21.1716   17.1669 F   0  0  0  0  0  0  0  0  0  0  0  0
  -26.1144  -18.9965   18.3870 S   0  0  0  0  0  0  0  0  0  0  0  0
  1  2  1  0  0  0  0
  1  5  2  0  0  0  0
  2  6  2  0  0  0  0
  3  8  2  0  0  0  0
  3 15  1  0  0  0  0
  4  9  1  0  0  0  0
  4 15  2  0  0  0  0
  5 17  1  0  0  0  0
  6 19  1  0  0  0  0
  7 10  2  0  0  0  0
  7 18  1  0  0  0  0
  8 21  1  0  0  0  0
  9 21  2  0  0  0  0
 10 22  1  0  0  0  0
 11 12  2  0  0  0  0
 11 23  1  0  0  0  0
 12 24  1  0  0  0  0
 13 20  1  0  0  0  0
 13 22  2  0  0  0  0
 14 24  2  0  0  0  0
 14 25  1  0  0  0  0
 15 26  1  0  0  0  0
 16 26  1  0  0  0  0
 16 28  2  0  0  0  0
 16 31  1  0  0  0  0
 17 19  2  0  0  0  0
 17 37  1  0  0  0  0
 18 20  2  0  0  0  0
 18 38  1  0  0  0  0
 19 46  1  0  0  0  0
 20 39  1  0  0  0  0
 21 82  1  0  0  0  0
 22 83  1  0  0  0  0
 23 25  2  0  0  0  0
 23 82  1  0  0  0  0
 24 84  1  0  0  0  0
 25 85  1  0  0  0  0
 26 64  2  0  0  0  0
 27 29  2  0  0  0  0
 27 65  1  0  0  0  0
 27 71  1  0  0  0  0
 28 66  1  0  0  0  0
 28 69  1  0  0  0  0
 29 86  1  0  0  0  0
 29 87  1  0  0  0  0
 30 65  2  0  0  0  0
 30 72  1  0  0  0  0
 30 87  1  0  0  0  0
 31 70  1  0  0  0  0
 31 76  2  0  0  0  0
 32 47  1  0  0  0  0
 32 73  1  0  0  0  0
 32 77  2  0  0  0  0
 33 56  1  0  0  0  0
 33 59  1  0  0  0  0
 33 78  2  0  0  0  0
 34 60  1  0  0  0  0
 34 67  1  0  0  0  0
 34 79  2  0  0  0  0
 35 61  1  0  0  0  0
 35 74  1  0  0  0  0
 35 80  2  0  0  0  0
 36 68  1  0  0  0  0
 36 72  1  0  0  0  0
 36 81  2  0  0  0  0
 37 40  1  0  0  0  0
 38 47  1  0  0  0  0
 39 67  1  0  0  0  0
 40 42  1  0  0  0  0
 41 43  1  0  0  0  0
 41 44  1  0  0  0  0
 42 46  1  0  0  0  0
 43 48  1  0  0  0  0
 44 68  1  0  0  0  0
 45 48  1  0  0  0  0
 45 68  1  0  0  0  0
 46 73  1  0  0  0  0
 47 67  1  0  0  0  0
 48 66  1  0  0  0  0
 49 56  1  0  0  0  0
 50 61  1  0  0  0  0
 51 62  1  0  0  0  0
 52 63  1  0  0  0  0
 53 63  1  0  0  0  0
 54 63  1  0  0  0  0
 55 75  1  0  0  0  0
 57 58  1  0  0  0  0
 57 59  1  0  0  0  0
 58 62  1  0  0  0  0
 59 71  1  0  0  0  0
 60 63  1  0  0  0  0
 60 74  1  0  0  0  0
 61 75  1  0  0  0  0
 62 83  1  0  0  0  0
 64 66  1  0  0  0  0
M  CHG  1  75   1
M  ISO  4  36 100  62 101  72 100  83 101
M  END
> <Batch ID>
0190

> <Smiles>
CCC(=O)C(CC[101CH:1](C)[101O:1]c1ccc2c(c1)CN(C(=O)C(NC(=O)C(C)NC)C(C)(C)C)C(C(=O)NC1CCCc3ccccc31)C2)Nc1nc([100NH:0][100C:0](=O)N2CCCC(n3nc(-c4ccc(Oc5ccc(F)cc5F)cc4)c(C(N)=O)c3N)C2)sc1F

> <Shape>
0.254

> <Color>
0.094

> <Negative vol penalty>
0.000

$$$$

  -OEChem-04052305213D

 86 94  0     1  0  0  0  0  0999 V2000
  -18.6414  -30.2262   24.5368 C   0  0  0  0  0  0  0  0  0  0  0  0
  -20.0278  -30.1609   24.4421 C   0  0  0  0  0  0  0  0  0  0  0  0
  -26.8694  -18.1610   19.9257 C   0  0  0  0  0  0  0  0  0  0  0  0
  -29.2063  -17.7130   19.5070 C   0  0  0  0  0  0  0  0  0  0  0  0
  -17.8553  -29.2514   23.9239 C   0  0  0  0  0  0  0  0  0  0  0  0
  -20.6290  -29.1199   23.7355 C   0  0  0  0  0  0  0  0  0  0  0  0
  -25.7669  -29.4096   20.4153 C   0  0  0  0  0  0  0  0  0  0  0  0
  -26.7256  -16.8904   20.4828 C   0  0  0  0  0  0  0  0  0  0  0  0
  -29.0625  -16.4423   20.0641 C   0  0  0  0  0  0  0  0  0  0  0  0
  -27.0868  -29.0602   20.6972 C   0  0  0  0  0  0  0  0  0  0  0  0
  -27.8532  -13.4299   19.1187 C   0  0  0  0  0  0  0  0  0  0  0  0
  -28.4271  -12.3555   18.4391 C   0  0  0  0  0  0  0  0  0  0  0  0
  -26.7399  -26.9200   19.6395 C   0  0  0  0  0  0  0  0  0  0  0  0
  -29.8014  -11.8706   20.3661 C   0  0  0  0  0  0  0  0  0  0  0  0
  -28.1098  -18.5723   19.4377 C   0  0  0  0  0  0  0  0  0  0  0  0
  -28.6069  -21.0726   19.5318 C   0  0  0  0  0  0  0  0  0  0  0  0
  -18.4468  -28.2033   23.2012 C   0  0  0  0  0  0  0  0  0  0  0  0
  -24.9190  -28.5110   19.7519 C   0  0  0  0  0  0  0  0  0  0  0  0
  -19.8501  -28.1294   23.1135 C   0  0  0  0  0  0  0  0  0  0  0  0
  -25.4104  -27.2614   19.3481 C   0  0  0  0  0  0  0  0  0  0  0  0
  -27.8221  -16.0310   20.5520 C   0  0  0  0  0  0  0  0  0  0  0  0
  -27.5727  -27.8142   20.3119 C   0  0  0  0  0  0  0  0  0  0  0  0
  -28.2535  -13.7247   20.4221 C   0  0  0  0  0  0  0  0  0  0  0  0
  -29.4012  -11.5758   19.0627 C   0  0  0  0  0  0  0  0  0  0  0  0
  -29.2276  -12.9450   21.0457 C   0  0  0  0  0  0  0  0  0  0  0  0
  -28.2589  -19.8846   18.8616 C   0  0  0  0  0  0  0  0  0  0  0  0
  -32.4927  -26.0146   14.9993 C   0  0  0  0  0  0  0  0  0  0  0  0
  -28.6155  -22.0316   18.5485 C   0  0  0  0  0  0  0  0  0  0  0  0
  -33.8652  -26.1489   14.9843 C   0  0  0  0  0  0  0  0  0  0  0  0
  -32.7652  -26.8394   17.0131 C   0  0  0  0  0  0  0  0  0  0  0  0
  -28.8967  -21.2900   20.9190 C   0  0  0  0  0  0  0  0  0  0  0  0
  -22.2045  -27.0294   20.4868 C   0  0  0  0  0  0  0  0  0  0  0  0
  -22.3489  -26.0635   17.3934 C   0  0  0  0  0  0  0  0  0  0  0  0
  -36.2168  -26.0392   14.1000 C   0  0  0  0  0  0  0  0  0  0  0  0
  -24.2648  -25.4455   14.6377 C   0  0  0  0  0  0  0  0  0  0  0  0
  -29.9899  -23.7214   13.4103 C   0  0  0  0  0  0  0  0  0  0  0  0
  -17.5573  -27.1465   22.5957 C   0  0  0  0  0  0  0  0  0  0  0  0
  -23.5055  -28.9134   19.4315 C   0  0  0  0  0  0  0  0  0  0  0  0
  -24.5467  -26.2687   18.6154 C   0  0  0  0  0  0  0  0  0  0  0  0
  -18.2602  -26.2849   21.5498 C   0  0  0  0  0  0  0  0  0  0  0  0
  -26.9770  -21.8579   13.7661 C   0  0  0  0  0  0  0  0  0  0  0  0
  -19.6232  -25.8298   22.0616 C   0  0  0  0  0  0  0  0  0  0  0  0
  -27.0737  -21.2717   15.1757 C   0  0  0  0  0  0  0  0  0  0  0  0
  -28.3401  -21.9035   13.0790 C   0  0  0  0  0  0  0  0  0  0  0  0
  -29.4937  -22.0041   15.2545 C   0  0  0  0  0  0  0  0  0  0  0  0
  -20.5386  -27.0294   22.3349 C   0  0  1  0  0  0  0  0  0  0  0  0
  -22.5810  -27.7208   19.2070 C   0  0  1  0  0  0  0  0  0  0  0  0
  -28.1530  -21.9893   16.0085 C   0  0  2  0  0  0  0  0  0  0  0  0
  -36.9118  -25.6086   12.8327 C   0  0  0  0  0  0  0  0  0  0  0  0
  -24.1051  -24.6282   12.2704 C   0  0  0  0  0  0  0  0  0  0  0  0
  -22.0551  -23.1998   18.4046 C   0  0  0  0  0  0  0  0  0  0  0  0
  -22.8449  -22.4025   16.1666 C   0  0  0  0  0  0  0  0  0  0  0  0
  -20.7342  -23.7198   16.3457 C   0  0  0  0  0  0  0  0  0  0  0  0
  -25.2909  -28.0047   13.5623 C   0  0  0  0  0  0  0  0  0  0  0  0
  -31.6585  -25.4928   13.8971 C   0  0  0  0  0  0  0  0  0  0  0  0
  -31.1424  -27.3900   18.8266 C   0  0  0  0  0  0  0  0  0  0  0  0
  -29.8175  -28.5275   20.6407 C   0  0  0  0  0  0  0  0  0  1  0  0
  -22.9541  -24.8859   16.6683 C   0  0  1  0  0  0  0  0  0  0  0  0
  -24.0954  -25.8447   13.1829 C   0  0  2  0  0  0  0  0  0  0  0  0
  -31.1821  -27.9819   20.2341 C   0  0  1  0  0  0  0  0  0  0  0  0
  -22.1630  -23.5697   16.9118 C   0  0  0  0  0  0  0  0  0  0  0  0
  -28.0605  -20.0694   17.5538 N   0  0  0  0  0  0  0  0  0  0  0  0
  -31.8603  -26.4096   16.1619 N   0  0  0  0  0  0  0  0  0  0  0  0
  -28.2846  -21.3849   17.3942 N   0  0  0  0  0  0  0  0  0  0  0  0
  -23.1700  -26.7062   18.3308 N   0  0  0  0  0  0  0  0  0  0  0  0
  -29.3175  -22.5984   13.9202 N   0  0  0  0  0  0  0  0  0  0  0  0
  -28.8736  -23.3565   18.5673 N   0  0  0  0  0  0  0  0  0  0  0  0
  -28.8425  -20.1952   21.7924 N   0  0  0  0  0  0  0  0  0  0  0  0
  -34.8086  -25.8704   14.0371 N   0  0  0  0  0  0  0  0  0  0  0  0
  -32.4797  -27.3123   18.2827 N   0  0  0  0  0  0  0  0  0  0  0  0
  -21.0770  -27.5470   21.0952 N   0  0  0  0  0  0  0  0  0  0  0  0
  -23.0490  -25.2752   15.2655 N   0  0  0  0  0  0  0  0  0  0  0  0
  -30.8949  -24.3246   14.2751 N   0  0  0  0  0  0  0  0  0  0  0  0
  -25.1981  -26.7554   12.7639 N   0  3  0  0  0  0  0  0  0  0  0  0
  -29.1788  -22.4246   21.3736 O   0  0  0  0  0  0  0  0  0  0  0  0
  -22.8856  -26.0945   20.8914 O   0  0  0  0  0  0  0  0  0  0  0  0
  -21.1927  -26.4052   17.1325 O   0  0  0  0  0  0  0  0  0  0  0  0
  -36.8575  -26.4772   15.0500 O   0  0  0  0  0  0  0  0  0  0  0  0
  -25.3656  -25.2958   15.1635 O   0  0  0  0  0  0  0  0  0  0  0  0
  -29.7941  -24.1575   12.2708 O   0  0  0  0  0  0  0  0  0  0  0  0
  -31.5341  -26.9547   21.1632 O   0  0  0  0  0  0  0  0  0  0  0  0
  -27.6822  -14.7912   21.0958 O   0  0  0  0  0  0  0  0  0  0  0  0
  -28.8605  -27.4704   20.5864 O   0  0  0  0  0  0  0  0  0  1  0  0
  -29.9511  -10.5432   18.4105 F   0  0  0  0  0  0  0  0  0  0  0  0
  -29.6153  -13.2226   22.2981 F   0  0  0  0  0  0  0  0  0  0  0  0
  -34.3961  -26.7970   16.4808 S   0  0  0  0  0  0  0  0  0  0  0  0
  1  2  1  0  0  0  0
  1  5  2  0  0  0  0
  2  6  2  0  0  0  0
  3  8  2  0  0  0  0
  3 15  1  0  0  0  0
  4  9  1  0  0  0  0
  4 15  2  0  0  0  0
  5 17  1  0  0  0  0
  6 19  1  0  0  0  0
  7 10  2  0  0  0  0
  7 18  1  0  0  0  0
  8 21  1  0  0  0  0
  9 21  2  0  0  0  0
 10 22  1  0  0  0  0
 11 12  2  0  0  0  0
 11 23  1  0  0  0  0
 12 24  1  0  0  0  0
 13 20  1  0  0  0  0
 13 22  2  0  0  0  0
 14 24  2  0  0  0  0
 14 25  1  0  0  0  0
 15 26  1  0  0  0  0
 16 26  1  0  0  0  0
 16 28  2  0  0  0  0
 16 31  1  0  0  0  0
 17 19  2  0  0  0  0
 17 37  1  0  0  0  0
 18 20  2  0  0  0  0
 18 38  1  0  0  0  0
 19 46  1  0  0  0  0
 20 39  1  0  0  0  0
 21 82  1  0  0  0  0
 22 83  1  0  0  0  0
 23 25  2  0  0  0  0
 23 82  1  0  0  0  0
 24 84  1  0  0  0  0
 25 85  1  0  0  0  0
 26 62  2  0  0  0  0
 27 29  2  0  0  0  0
 27 55  1  0  0  0  0
 27 63  1  0  0  0  0
 28 64  1  0  0  0  0
 28 67  1  0  0  0  0
 29 69  1  0  0  0  0
 29 86  1  0  0  0  0
 30 63  2  0  0  0  0
 30 70  1  0  0  0  0
 30 86  1  0  0  0  0
 31 68  1  0  0  0  0
 31 75  2  0  0  0  0
 32 47  1  0  0  0  0
 32 71  1  0  0  0  0
 32 76  2  0  0  0  0
 33 58  1  0  0  0  0
 33 65  1  0  0  0  0
 33 77  2  0  0  0  0
 34 49  1  0  0  0  0
 34 69  1  0  0  0  0
 34 78  2  0  0  0  0
 35 59  1  0  0  0  0
 35 72  1  0  0  0  0
 35 79  2  0  0  0  0
 36 66  1  0  0  0  0
 36 73  1  0  0  0  0
 36 80  2  0  0  0  0
 37 40  1  0  0  0  0
 38 47  1  0  0  0  0
 39 65  1  0  0  0  0
 40 42  1  0  0  0  0
 41 43  1  0  0  0  0
 41 44  1  0  0  0  0
 42 46  1  0  0  0  0
 43 48  1  0  0  0  0
 44 66  1  0  0  0  0
 45 48  1  0  0  0  0
 45 66  1  0  0  0  0
 46 71  1  0  0  0  0
 47 65  1  0  0  0  0
 48 64  1  0  0  0  0
 50 59  1  0  0  0  0
 51 61  1  0  0  0  0
 52 61  1  0  0  0  0
 53 61  1  0  0  0  0
 54 74  1  0  0  0  0
 55 73  1  0  0  0  0
 56 60  1  0  0  0  0
 56 70  1  0  0  0  0
 57 60  1  0  0  0  0
 57 83  1  0  0  0  0
 58 61  1  0  0  0  0
 58 72  1  0  0  0  0
 59 74  1  0  0  0  0
 60 81  1  0  0  0  0
 62 64  1  0  0  0  0
M  CHG  1  74   1
M  ISO  4  36 100  57 101  73 100  83 101
M  END
> <Batch ID>
0190

> <Smiles>
CNC(C)C(=O)NC(C(=O)N1Cc2cc([101O:1][101CH2:1]C(O)CNc3nc(C[100NH:0][100C:0](=O)N4CCCC(n5nc(-c6ccc(Oc7ccc(F)cc7F)cc6)c(C(N)=O)c5N)C4)c(NC(C)=O)s3)ccc2CC1C(=O)NC1CCCc2ccccc21)C(C)(C)C

> <Shape>
0.238

> <Color>
0.068

> <Negative vol penalty>
0.000

$$$$

  -OEChem-04052305213D

 82 89  0     1  0  0  0  0  0999 V2000
  -42.2620  -26.5799   18.5281 C   0  0  0  0  0  0  0  0  0  0  0  0
  -41.6272  -25.6855   19.3839 C   0  0  0  0  0  0  0  0  0  0  0  0
  -23.0767   -9.8645   19.9444 C   0  0  0  0  0  0  0  0  0  0  0  0
  -23.8388   -9.8767   22.2370 C   0  0  0  0  0  0  0  0  0  0  0  0
  -41.6711  -27.8106   18.2447 C   0  0  0  0  0  0  0  0  0  0  0  0
  -40.4016  -26.0216   19.9577 C   0  0  0  0  0  0  0  0  0  0  0  0
  -37.0592  -22.2221   19.7654 C   0  0  0  0  0  0  0  0  0  0  0  0
  -22.3350   -8.7105   20.1970 C   0  0  0  0  0  0  0  0  0  0  0  0
  -23.0971   -8.7227   22.4897 C   0  0  0  0  0  0  0  0  0  0  0  0
  -37.2066  -21.1966   20.6984 C   0  0  0  0  0  0  0  0  0  0  0  0
  -19.8709   -7.9203   23.0967 C   0  0  0  0  0  0  0  0  0  0  0  0
  -19.1152   -7.8811   24.2684 C   0  0  0  0  0  0  0  0  0  0  0  0
  -35.4582  -22.1755   22.0416 C   0  0  0  0  0  0  0  0  0  0  0  0
  -20.3607   -5.9470   25.0069 C   0  0  0  0  0  0  0  0  0  0  0  0
  -23.8286  -10.4476   20.9643 C   0  0  0  0  0  0  0  0  0  0  0  0
  -24.1660  -12.9731   20.8397 C   0  0  0  0  0  0  0  0  0  0  0  0
  -40.4329  -28.1580   18.8077 C   0  0  0  0  0  0  0  0  0  0  0  0
  -36.1162  -23.2397   19.9693 C   0  0  0  0  0  0  0  0  0  0  0  0
  -39.7942  -27.2586   19.6827 C   0  0  0  0  0  0  0  0  0  0  0  0
  -35.2991  -23.2114   21.1085 C   0  0  0  0  0  0  0  0  0  0  0  0
  -22.3452   -8.1396   21.4697 C   0  0  0  0  0  0  0  0  0  0  0  0
  -36.4080  -21.1748   21.8381 C   0  0  0  0  0  0  0  0  0  0  0  0
  -20.8715   -6.9729   22.8800 C   0  0  0  0  0  0  0  0  0  0  0  0
  -19.3601   -6.8945   25.2236 C   0  0  0  0  0  0  0  0  0  0  0  0
  -21.1164   -5.9863   23.8352 C   0  0  0  0  0  0  0  0  0  0  0  0
  -24.5954  -11.6393   20.7038 C   0  0  0  0  0  0  0  0  0  0  0  0
  -25.2565  -13.7238   20.4741 C   0  0  0  0  0  0  0  0  0  0  0  0
  -22.8950  -13.4874   21.2590 C   0  0  0  0  0  0  0  0  0  0  0  0
  -36.2643  -26.3923   20.3477 C   0  0  0  0  0  0  0  0  0  0  0  0
  -33.0302  -26.1656   20.2407 C   0  0  0  0  0  0  0  0  0  0  0  0
  -32.4757  -17.9049   23.5222 C   0  0  0  0  0  0  0  0  0  0  0  0
  -30.2446  -24.2427   20.6762 C   0  0  0  0  0  0  0  0  0  0  0  0
  -30.7386  -14.7526   20.6553 C   0  0  0  0  0  0  0  0  0  0  0  0
  -39.8560  -29.5191   18.5091 C   0  0  0  0  0  0  0  0  0  0  0  0
  -35.9511  -24.3242   18.9402 C   0  0  0  0  0  0  0  0  0  0  0  0
  -34.2578  -24.2692   21.3640 C   0  0  0  0  0  0  0  0  0  0  0  0
  -38.3763  -29.6444   18.8627 C   0  0  0  0  0  0  0  0  0  0  0  0
  -29.6028  -12.3621   18.2737 C   0  0  0  0  0  0  0  0  0  0  0  0
  -38.1085  -29.0702   20.2503 C   0  0  0  0  0  0  0  0  0  0  0  0
  -28.1663  -12.0666   18.7086 C   0  0  0  0  0  0  0  0  0  0  0  0
  -30.5207  -12.5865   19.4733 C   0  0  0  0  0  0  0  0  0  0  0  0
  -28.6191  -13.3167   20.8606 C   0  0  0  0  0  0  0  0  0  0  0  0
  -38.4520  -27.5767   20.3051 C   0  0  1  0  0  0  0  0  0  0  0  0
  -35.3141  -25.5907   19.5038 C   0  0  1  0  0  0  0  0  0  0  0  0
  -27.6441  -13.1384   19.6842 C   0  0  2  0  0  0  0  0  0  0  0  0
  -27.7405  -24.3454   20.5495 C   0  0  0  0  0  0  0  0  0  0  0  0
  -29.7787  -18.0324   22.0266 C   0  0  0  0  0  0  0  0  0  0  0  0
  -32.9612  -27.6861   22.8852 C   0  0  0  0  0  0  0  0  0  0  0  0
  -30.5902  -26.9357   23.1746 C   0  0  0  0  0  0  0  0  0  0  0  0
  -31.2121  -28.3791   21.2374 C   0  0  0  0  0  0  0  0  0  0  0  0
  -36.0935  -18.0492   23.7079 C   0  0  0  0  0  0  0  0  0  0  0  0
  -36.1187  -18.3704   21.2235 C   0  0  0  0  0  0  0  0  0  0  0  0
  -30.1499  -22.1626   18.5731 C   0  0  0  0  0  0  0  0  0  0  0  0
  -34.2682  -19.3985   22.6466 C   0  0  0  0  0  0  0  0  0  0  0  0
  -31.9387  -25.9576   21.2625 C   0  0  1  0  0  0  0  0  0  0  0  0
  -31.6647  -16.6745   23.1419 C   0  0  2  0  0  0  0  0  0  0  0  0
  -29.0243  -24.0243   19.8001 C   0  0  2  0  0  0  0  0  0  0  0  0
  -30.8020  -16.9054   21.8885 C   0  0  1  0  0  0  0  0  0  0  0  0
  -31.6964  -27.2206   22.1364 C   0  0  0  0  0  0  0  0  0  0  0  0
  -35.7508  -19.0079   22.5652 C   0  0  0  0  0  0  0  0  0  1  0  0
  -25.8600  -11.5450   20.2845 N   0  0  0  0  0  0  0  0  0  0  0  0
  -26.2346  -12.8290   20.1536 N   0  0  0  0  0  0  0  0  0  0  0  0
  -34.1388  -25.3120   20.3316 N   0  0  0  0  0  0  0  0  0  0  0  0
  -29.9693  -13.6156   20.3581 N   0  0  0  0  0  0  0  0  0  0  0  0
  -25.4645  -15.0555   20.3986 N   0  0  0  0  0  0  0  0  0  0  0  0
  -21.8850  -12.5771   21.5988 N   0  0  0  0  0  0  0  0  0  0  0  0
  -37.4063  -26.7944   19.6816 N   0  0  0  0  0  0  0  0  0  0  0  0
  -33.3813  -18.2711   22.5331 N   0  0  0  0  0  0  0  0  0  0  0  0
  -30.7649  -25.5101   20.5207 N   0  0  0  0  0  0  0  0  0  0  0  0
  -30.1387  -15.6818   21.4964 N   0  0  0  0  0  0  0  0  0  0  0  0
  -30.8137  -16.2456   24.2902 N   0  3  0  0  0  0  0  0  0  0  0  0
  -28.9606  -22.6068   19.3446 N   0  3  0  0  0  0  0  0  0  0  0  0
  -22.6567  -14.7178   21.3145 O   0  0  0  0  0  0  0  0  0  0  0  0
  -35.9817  -26.6296   21.5162 O   0  0  0  0  0  0  0  0  0  0  0  0
  -32.9007  -27.0481   19.3886 O   0  0  0  0  0  0  0  0  0  0  0  0
  -32.3279  -18.4909   24.5924 O   0  0  0  0  0  0  0  0  0  0  0  0
  -30.6895  -23.3768   21.4265 O   0  0  0  0  0  0  0  0  0  0  0  0
  -31.8738  -14.9293   20.2003 O   0  0  0  0  0  0  0  0  0  0  0  0
  -21.6214   -7.0137   21.7166 O   0  0  0  0  0  0  0  0  0  0  0  0
  -36.5503  -20.1753   22.7506 O   0  0  0  0  0  0  0  0  0  1  0  0
  -18.6353   -6.8579   26.3494 F   0  0  0  0  0  0  0  0  0  0  0  0
  -22.0771   -5.0741   23.6332 F   0  0  0  0  0  0  0  0  0  0  0  0
  1  2  1  0  0  0  0
  1  5  2  0  0  0  0
  2  6  2  0  0  0  0
  3  8  2  0  0  0  0
  3 15  1  0  0  0  0
  4  9  1  0  0  0  0
  4 15  2  0  0  0  0
  5 17  1  0  0  0  0
  6 19  1  0  0  0  0
  7 10  2  0  0  0  0
  7 18  1  0  0  0  0
  8 21  1  0  0  0  0
  9 21  2  0  0  0  0
 10 22  1  0  0  0  0
 11 12  2  0  0  0  0
 11 23  1  0  0  0  0
 12 24  1  0  0  0  0
 13 20  1  0  0  0  0
 13 22  2  0  0  0  0
 14 24  2  0  0  0  0
 14 25  1  0  0  0  0
 15 26  1  0  0  0  0
 16 26  1  0  0  0  0
 16 27  2  0  0  0  0
 16 28  1  0  0  0  0
 17 19  2  0  0  0  0
 17 34  1  0  0  0  0
 18 20  2  0  0  0  0
 18 35  1  0  0  0  0
 19 43  1  0  0  0  0
 20 36  1  0  0  0  0
 21 79  1  0  0  0  0
 22 80  1  0  0  0  0
 23 25  2  0  0  0  0
 23 79  1  0  0  0  0
 24 81  1  0  0  0  0
 25 82  1  0  0  0  0
 26 61  2  0  0  0  0
 27 62  1  0  0  0  0
 27 65  1  0  0  0  0
 28 66  1  0  0  0  0
 28 73  2  0  0  0  0
 29 44  1  0  0  0  0
 29 67  1  0  0  0  0
 29 74  2  0  0  0  0
 30 55  1  0  0  0  0
 30 63  1  0  0  0  0
 30 75  2  0  0  0  0
 31 56  1  0  0  0  0
 31 68  1  0  0  0  0
 31 76  2  0  0  0  0
 32 57  1  0  0  0  0
 32 69  1  0  0  0  0
 32 77  2  0  0  0  0
 33 64  1  0  0  0  0
 33 70  1  0  0  0  0
 33 78  2  0  0  0  0
 34 37  1  0  0  0  0
 35 44  1  0  0  0  0
 36 63  1  0  0  0  0
 37 39  1  0  0  0  0
 38 40  1  0  0  0  0
 38 41  1  0  0  0  0
 39 43  1  0  0  0  0
 40 45  1  0  0  0  0
 41 64  1  0  0  0  0
 42 45  1  0  0  0  0
 42 64  1  0  0  0  0
 43 67  1  0  0  0  0
 44 63  1  0  0  0  0
 45 62  1  0  0  0  0
 46 57  1  0  0  0  0
 47 58  1  0  0  0  0
 48 59  1  0  0  0  0
 49 59  1  0  0  0  0
 50 59  1  0  0  0  0
 51 60  1  0  0  0  0
 52 60  1  0  0  0  0
 53 72  1  0  0  0  0
 54 60  1  0  0  0  0
 54 68  1  0  0  0  0
 55 59  1  0  0  0  0
 55 69  1  0  0  0  0
 56 58  1  0  0  0  0
 56 71  1  0  0  0  0
 57 72  1  0  0  0  0
 58 70  1  0  0  0  0
 60 80  1  0  0  0  0
 61 62  1  0  0  0  0
M  CHG  2  71   1  72   1
M  ISO  4  33 100  60 101  70 100  80 101
M  END
> <Batch ID>
0190

> <Smiles>
CNC(C)C(=O)NC(C(=O)N1Cc2cc([101O:1][101C:1](C)(C)CNC(=O)C(N)C(C)[100NH:0][100C:0](=O)N3CCCC(n4nc(-c5ccc(Oc6ccc(F)cc6F)cc5)c(C(N)=O)c4N)C3)ccc2CC1C(=O)NC1CCCc2ccccc21)C(C)(C)C

> <Shape>
0.211

> <Color>
0.184

> <Negative vol penalty>
0.000

$$$$

  -OEChem-04052305213D

 87 95  0     1  0  0  0  0  0999 V2000
  -20.1356  -23.8430   23.0450 C   0  0  0  0  0  0  0  0  0  0  0  0
  -21.2576  -24.2338   22.3213 C   0  0  0  0  0  0  0  0  0  0  0  0
  -24.4472   -9.0955   21.5708 C   0  0  0  0  0  0  0  0  0  0  0  0
  -22.6416  -10.2158   20.4212 C   0  0  0  0  0  0  0  0  0  0  0  0
  -19.1695  -24.7857   23.3940 C   0  0  0  0  0  0  0  0  0  0  0  0
  -21.4136  -25.5674   21.9451 C   0  0  0  0  0  0  0  0  0  0  0  0
  -26.1118  -27.2766   22.7517 C   0  0  0  0  0  0  0  0  0  0  0  0
  -23.6626   -7.9480   21.6850 C   0  0  0  0  0  0  0  0  0  0  0  0
  -21.8569   -9.0682   20.5354 C   0  0  0  0  0  0  0  0  0  0  0  0
  -27.0901  -26.9094   21.8288 C   0  0  0  0  0  0  0  0  0  0  0  0
  -21.1357   -6.8433   23.6391 C   0  0  0  0  0  0  0  0  0  0  0  0
  -21.1148   -6.1935   24.8732 C   0  0  0  0  0  0  0  0  0  0  0  0
  -26.8860  -29.0645   20.7642 C   0  0  0  0  0  0  0  0  0  0  0  0
  -21.9845   -4.1930   23.8345 C   0  0  0  0  0  0  0  0  0  0  0  0
  -26.3853  -20.5865   20.5158 C   0  0  0  0  0  0  0  0  0  0  0  0
  -23.9367  -10.2295   20.9390 C   0  0  0  0  0  0  0  0  0  0  0  0
  -25.6214  -11.7463   19.7691 C   0  0  0  0  0  0  0  0  0  0  0  0
  -19.3185  -26.1333   23.0303 C   0  0  0  0  0  0  0  0  0  0  0  0
  -25.5044  -28.5386   22.6810 C   0  0  0  0  0  0  0  0  0  0  0  0
  -20.4479  -26.5288   22.2885 C   0  0  0  0  0  0  0  0  0  0  0  0
  -25.9021  -29.4462   21.6889 C   0  0  0  0  0  0  0  0  0  0  0  0
  -26.0985  -19.3467   19.9936 C   0  0  0  0  0  0  0  0  0  0  0  0
  -26.2706  -19.4607   18.5933 C   0  0  0  0  0  0  0  0  0  0  0  0
  -22.3675   -7.9343   21.1673 C   0  0  0  0  0  0  0  0  0  0  0  0
  -27.4753  -27.8023   20.8331 C   0  0  0  0  0  0  0  0  0  0  0  0
  -21.5808   -6.1679   22.5027 C   0  0  0  0  0  0  0  0  0  0  0  0
  -21.5393   -4.8684   24.9709 C   0  0  0  0  0  0  0  0  0  0  0  0
  -22.0053   -4.8428   22.6004 C   0  0  0  0  0  0  0  0  0  0  0  0
  -24.7465  -11.4154   20.8212 C   0  0  0  0  0  0  0  0  0  0  0  0
  -26.6501  -20.7620   18.3598 C   0  0  0  0  0  0  0  0  0  0  0  0
  -26.1463  -12.9635   20.1290 C   0  0  0  0  0  0  0  0  0  0  0  0
  -25.9318  -11.0186   18.5734 C   0  0  0  0  0  0  0  0  0  0  0  0
  -26.9751  -21.4906   17.1065 C   0  0  0  0  0  0  0  0  0  0  0  0
  -22.5359  -29.5765   22.2181 C   0  0  0  0  0  0  0  0  0  0  0  0
  -23.8642  -32.4679   22.8486 C   0  0  0  0  0  0  0  0  0  0  0  0
  -26.6632  -34.4196   22.9069 C   0  0  0  0  0  0  0  0  0  0  0  0
  -25.5504  -18.1260   22.1280 C   0  0  0  0  0  0  0  0  0  0  0  0
  -18.2244  -27.1074   23.3894 C   0  0  0  0  0  0  0  0  0  0  0  0
  -24.4698  -28.9294   23.7004 C   0  0  0  0  0  0  0  0  0  0  0  0
  -25.2953  -30.8205   21.5822 C   0  0  0  0  0  0  0  0  0  0  0  0
  -18.6490  -28.5693   23.2759 C   0  0  0  0  0  0  0  0  0  0  0  0
  -25.8922  -15.4965   24.5041 C   0  0  0  0  0  0  0  0  0  0  0  0
  -19.3846  -28.8110   21.9617 C   0  0  0  0  0  0  0  0  0  0  0  0
  -25.6966  -14.2275   23.6712 C   0  0  0  0  0  0  0  0  0  0  0  0
  -24.9852  -16.6310   24.0307 C   0  0  0  0  0  0  0  0  0  0  0  0
  -24.8773  -15.6702   21.7648 C   0  0  0  0  0  0  0  0  0  0  0  0
  -20.6650  -27.9707   21.8835 C   0  0  1  0  0  0  0  0  0  0  0  0
  -23.5509  -30.0485   23.2204 C   0  0  1  0  0  0  0  0  0  0  0  0
  -25.8162  -14.5196   22.1626 C   0  0  2  0  0  0  0  0  0  0  0  0
  -27.4284  -36.7510   23.4326 C   0  0  0  0  0  0  0  0  0  0  0  0
  -22.6696  -33.4504   20.2185 C   0  0  0  0  0  0  0  0  0  0  0  0
  -24.2174  -35.4151   20.3300 C   0  0  0  0  0  0  0  0  0  0  0  0
  -22.5043  -35.0766   22.1114 C   0  0  0  0  0  0  0  0  0  0  0  0
  -28.4791  -33.4669   25.0408 C   0  0  0  0  0  0  0  0  0  0  0  0
  -30.5141  -23.2217   15.8878 C   0  0  0  0  0  0  0  0  0  0  0  0
  -28.9122  -27.0638   17.5923 C   0  0  0  0  0  0  0  0  0  0  0  0
  -28.1453  -25.7347   17.5529 C   0  0  0  0  0  0  0  0  0  0  0  0
  -27.6442  -23.6710   16.1297 C   0  0  0  0  0  0  0  0  0  0  0  0
  -28.3409  -28.0248   18.6291 C   0  0  0  0  0  0  0  0  0  1  0  0
  -24.5163  -33.5483   22.0202 C   0  0  1  0  0  0  0  0  0  0  0  0
  -27.2246  -35.3439   23.9723 C   0  0  2  0  0  0  0  0  0  0  0  0
  -28.6467  -24.7781   16.4616 C   0  0  2  0  0  0  0  0  0  0  0  0
  -23.4871  -34.3461   21.1706 C   0  0  0  0  0  0  0  0  0  0  0  0
  -24.7148  -12.3470   21.7778 N   0  0  0  0  0  0  0  0  0  0  0  0
  -25.5764  -13.2753   21.3282 N   0  0  0  0  0  0  0  0  0  0  0  0
  -24.2833  -31.1535   22.5983 N   0  0  0  0  0  0  0  0  0  0  0  0
  -25.1557  -16.8538   22.5933 N   0  0  0  0  0  0  0  0  0  0  0  0
  -26.0992  -18.4938   17.6672 N   0  0  0  0  0  0  0  0  0  0  0  0
  -27.0352  -13.7867   19.5335 N   0  0  0  0  0  0  0  0  0  0  0  0
  -25.3029   -9.7844   18.3601 N   0  0  0  0  0  0  0  0  0  0  0  0
  -25.7120  -18.2096   20.7454 N   0  0  0  0  0  0  0  0  0  0  0  0
  -27.3264  -22.8275   17.2500 N   0  0  0  0  0  0  0  0  0  0  0  0
  -21.7120  -28.5693   22.6833 N   0  0  0  0  0  0  0  0  0  0  0  0
  -25.2860  -34.3674   22.9504 N   0  0  0  0  0  0  0  0  0  0  0  0
  -28.5366  -34.8337   24.4616 N   0  3  0  0  0  0  0  0  0  0  0  0
  -29.9289  -24.1493   16.8895 N   0  3  0  0  0  0  0  0  0  0  0  0
  -26.7552  -11.4424   17.7272 O   0  0  0  0  0  0  0  0  0  0  0  0
  -26.9002  -20.8998   16.0323 O   0  0  0  0  0  0  0  0  0  0  0  0
  -22.5017  -30.0891   21.1055 O   0  0  0  0  0  0  0  0  0  0  0  0
  -23.0195  -32.7793   23.6919 O   0  0  0  0  0  0  0  0  0  0  0  0
  -27.3749  -33.8082   22.1131 O   0  0  0  0  0  0  0  0  0  0  0  0
  -25.7581  -19.0643   22.9016 O   0  0  0  0  0  0  0  0  0  0  0  0
  -26.7222  -21.4549   19.5265 O   0  0  0  0  0  0  0  0  0  0  0  0
  -21.6016   -6.8146   21.2784 O   0  0  0  0  0  0  0  0  0  0  0  0
  -28.4296  -27.4462   19.9305 O   0  0  0  0  0  0  0  0  0  1  0  0
  -21.5207   -4.2450   26.1563 F   0  0  0  0  0  0  0  0  0  0  0  0
  -22.4351   -4.1891   21.5124 F   0  0  0  0  0  0  0  0  0  0  0  0
  1  2  1  0  0  0  0
  1  5  2  0  0  0  0
  2  6  2  0  0  0  0
  3  8  2  0  0  0  0
  3 16  1  0  0  0  0
  4  9  1  0  0  0  0
  4 16  2  0  0  0  0
  5 18  1  0  0  0  0
  6 20  1  0  0  0  0
  7 10  2  0  0  0  0
  7 19  1  0  0  0  0
  8 24  1  0  0  0  0
  9 24  2  0  0  0  0
 10 25  1  0  0  0  0
 11 12  2  0  0  0  0
 11 26  1  0  0  0  0
 12 27  1  0  0  0  0
 13 21  1  0  0  0  0
 13 25  2  0  0  0  0
 14 27  2  0  0  0  0
 14 28  1  0  0  0  0
 15 22  2  0  0  0  0
 15 83  1  0  0  0  0
 16 29  1  0  0  0  0
 17 29  1  0  0  0  0
 17 31  2  0  0  0  0
 17 32  1  0  0  0  0
 18 20  2  0  0  0  0
 18 38  1  0  0  0  0
 19 21  2  0  0  0  0
 19 39  1  0  0  0  0
 20 47  1  0  0  0  0
 21 40  1  0  0  0  0
 22 23  1  0  0  0  0
 22 71  1  0  0  0  0
 23 30  2  0  0  0  0
 23 68  1  0  0  0  0
 24 84  1  0  0  0  0
 25 85  1  0  0  0  0
 26 28  2  0  0  0  0
 26 84  1  0  0  0  0
 27 86  1  0  0  0  0
 28 87  1  0  0  0  0
 29 64  2  0  0  0  0
 30 33  1  0  0  0  0
 30 83  1  0  0  0  0
 31 65  1  0  0  0  0
 31 69  1  0  0  0  0
 32 70  1  0  0  0  0
 32 77  2  0  0  0  0
 33 72  1  0  0  0  0
 33 78  2  0  0  0  0
 34 48  1  0  0  0  0
 34 73  1  0  0  0  0
 34 79  2  0  0  0  0
 35 60  1  0  0  0  0
 35 66  1  0  0  0  0
 35 80  2  0  0  0  0
 36 61  1  0  0  0  0
 36 74  1  0  0  0  0
 36 81  2  0  0  0  0
 37 67  1  0  0  0  0
 37 71  1  0  0  0  0
 37 82  2  0  0  0  0
 38 41  1  0  0  0  0
 39 48  1  0  0  0  0
 40 66  1  0  0  0  0
 41 43  1  0  0  0  0
 42 44  1  0  0  0  0
 42 45  1  0  0  0  0
 43 47  1  0  0  0  0
 44 49  1  0  0  0  0
 45 67  1  0  0  0  0
 46 49  1  0  0  0  0
 46 67  1  0  0  0  0
 47 73  1  0  0  0  0
 48 66  1  0  0  0  0
 49 65  1  0  0  0  0
 50 61  1  0  0  0  0
 51 63  1  0  0  0  0
 52 63  1  0  0  0  0
 53 63  1  0  0  0  0
 54 75  1  0  0  0  0
 55 76  1  0  0  0  0
 56 57  1  0  0  0  0
 56 59  1  0  0  0  0
 57 62  1  0  0  0  0
 58 62  1  0  0  0  0
 58 72  1  0  0  0  0
 59 85  1  0  0  0  0
 60 63  1  0  0  0  0
 60 74  1  0  0  0  0
 61 75  1  0  0  0  0
 62 76  1  0  0  0  0
 64 65  1  0  0  0  0
M  CHG  2  75   1  76   1
M  ISO  4  37 100  59 101  71 100  85 101
M  END
> <Batch ID>
0190

> <Smiles>
CNC(CC[101CH2:1][101O:1]c1ccc2c(c1)CN(C(=O)C(NC(=O)C(C)NC)C(C)(C)C)C(C(=O)NC1CCCc3ccccc31)C2)CNC(=O)c1occ([100NH:0][100C:0](=O)N2CCCC(n3nc(-c4ccc(Oc5ccc(F)cc5F)cc4)c(C(N)=O)c3N)C2)c1N

> <Shape>
0.280

> <Color>
0.123

> <Negative vol penalty>
0.000

$$$$

  -OEChem-04052305213D

 85 93  0     1  0  0  0  0  0999 V2000
  -22.1812  -11.5544   25.1391 C   0  0  0  0  0  0  0  0  0  0  0  0
  -22.8342  -12.7701   24.9629 C   0  0  0  0  0  0  0  0  0  0  0  0
  -23.0757   -9.8648   19.9425 C   0  0  0  0  0  0  0  0  0  0  0  0
  -23.8352   -9.8758   22.2360 C   0  0  0  0  0  0  0  0  0  0  0  0
  -20.7923  -11.4892   25.0365 C   0  0  0  0  0  0  0  0  0  0  0  0
  -22.0987  -13.9212   24.6829 C   0  0  0  0  0  0  0  0  0  0  0  0
  -23.6149  -17.9077   27.4131 C   0  0  0  0  0  0  0  0  0  0  0  0
  -22.3323   -8.7117   20.1942 C   0  0  0  0  0  0  0  0  0  0  0  0
  -23.0918   -8.7226   22.4877 C   0  0  0  0  0  0  0  0  0  0  0  0
  -24.7766  -18.5581   26.9993 C   0  0  0  0  0  0  0  0  0  0  0  0
  -21.1079   -5.9867   23.8284 C   0  0  0  0  0  0  0  0  0  0  0  0
  -20.3515   -5.9447   24.9995 C   0  0  0  0  0  0  0  0  0  0  0  0
  -23.4378  -20.2616   25.9387 C   0  0  0  0  0  0  0  0  0  0  0  0
  -19.1061   -7.8802   24.2647 C   0  0  0  0  0  0  0  0  0  0  0  0
  -23.8272  -10.4468   20.9634 C   0  0  0  0  0  0  0  0  0  0  0  0
  -24.1678  -12.9719   20.8394 C   0  0  0  0  0  0  0  0  0  0  0  0
  -20.0386  -12.6418   24.7646 C   0  0  0  0  0  0  0  0  0  0  0  0
  -22.3538  -18.4244   27.0829 C   0  0  0  0  0  0  0  0  0  0  0  0
  -20.6985  -13.8711   24.5752 C   0  0  0  0  0  0  0  0  0  0  0  0
  -22.2616  -19.6173   26.3517 C   0  0  0  0  0  0  0  0  0  0  0  0
  -22.3403   -8.1406   21.4668 C   0  0  0  0  0  0  0  0  0  0  0  0
  -24.6882  -19.7337   26.2595 C   0  0  0  0  0  0  0  0  0  0  0  0
  -20.8635   -6.9756   22.8754 C   0  0  0  0  0  0  0  0  0  0  0  0
  -19.3506   -6.8913   25.2177 C   0  0  0  0  0  0  0  0  0  0  0  0
  -19.8626   -7.9223   23.0935 C   0  0  0  0  0  0  0  0  0  0  0  0
  -24.5957  -11.6376   20.7039 C   0  0  0  0  0  0  0  0  0  0  0  0
  -31.8063  -18.7309   22.2407 C   0  0  0  0  0  0  0  0  0  0  0  0
  -25.2597  -13.7213   20.4752 C   0  0  0  0  0  0  0  0  0  0  0  0
  -30.7042  -19.0979   22.9841 C   0  0  0  0  0  0  0  0  0  0  0  0
  -30.5696  -16.9526   21.8969 C   0  0  0  0  0  0  0  0  0  0  0  0
  -22.8970  -13.4878   21.2573 C   0  0  0  0  0  0  0  0  0  0  0  0
  -19.8750  -17.3799   25.3893 C   0  0  0  0  0  0  0  0  0  0  0  0
  -18.4682  -20.0783   26.5128 C   0  0  0  0  0  0  0  0  0  0  0  0
  -18.8358  -23.2364   27.7529 C   0  0  0  0  0  0  0  0  0  0  0  0
  -30.7254  -14.7697   20.6491 C   0  0  0  0  0  0  0  0  0  0  0  0
  -18.5432  -12.5130   24.6162 C   0  0  0  0  0  0  0  0  0  0  0  0
  -21.1103  -17.7253   27.5597 C   0  0  0  0  0  0  0  0  0  0  0  0
  -20.9319  -20.2242   25.9887 C   0  0  0  0  0  0  0  0  0  0  0  0
  -17.8068  -13.8483   24.6878 C   0  0  0  0  0  0  0  0  0  0  0  0
  -29.6124  -12.3518   18.2844 C   0  0  0  0  0  0  0  0  0  0  0  0
  -18.5005  -14.8880   23.8134 C   0  0  0  0  0  0  0  0  0  0  0  0
  -28.1728  -12.0602   18.7142 C   0  0  0  0  0  0  0  0  0  0  0  0
  -30.5272  -12.5828   19.4858 C   0  0  0  0  0  0  0  0  0  0  0  0
  -28.6198  -13.3085   20.8657 C   0  0  0  0  0  0  0  0  0  0  0  0
  -19.9334  -15.1462   24.2947 C   0  0  1  0  0  0  0  0  0  0  0  0
  -19.8777  -18.0641   26.7271 C   0  0  1  0  0  0  0  0  0  0  0  0
  -27.6472  -13.1330   19.6880 C   0  0  2  0  0  0  0  0  0  0  0  0
  -33.0400  -19.5244   22.0568 C   0  0  0  0  0  0  0  0  0  0  0  0
  -17.5024  -25.2098   28.5435 C   0  0  0  0  0  0  0  0  0  0  0  0
  -17.8116  -20.7907   23.6195 C   0  0  0  0  0  0  0  0  0  0  0  0
  -17.3610  -23.1356   24.3723 C   0  0  0  0  0  0  0  0  0  0  0  0
  -15.9748  -21.2572   25.2514 C   0  0  0  0  0  0  0  0  0  0  0  0
  -29.2534  -21.3246   21.9227 C   0  0  0  0  0  0  0  0  0  0  0  0
  -29.8403  -22.5560   24.0218 C   0  0  0  0  0  0  0  0  0  0  0  0
  -20.0158  -23.0948   30.4634 C   0  0  0  0  0  0  0  0  0  0  0  0
  -28.2001  -20.6274   25.6589 C   0  0  0  0  0  0  0  0  0  0  0  0
  -27.0657  -19.7779   26.2212 C   0  0  0  0  0  0  0  0  0  1  0  0
  -18.3646  -21.5074   26.0374 C   0  0  1  0  0  0  0  0  0  0  0  0
  -18.2103  -23.9271   28.9513 C   0  0  2  0  0  0  0  0  0  0  0  0
  -28.1393  -20.7043   24.1318 C   0  0  2  0  0  0  0  0  0  0  0  0
  -17.4032  -21.6605   24.8252 C   0  0  0  0  0  0  0  0  0  0  0  0
  -29.4311  -21.1948   23.4402 C   0  0  0  0  0  0  0  0  0  0  0  0
  -25.8607  -11.5417   20.2860 N   0  0  0  0  0  0  0  0  0  0  0  0
  -31.7311  -17.5009   21.6168 N   0  0  0  0  0  0  0  0  0  0  0  0
  -26.2370  -12.8253   20.1557 N   0  0  0  0  0  0  0  0  0  0  0  0
  -19.7449  -19.5000   26.4725 N   0  0  0  0  0  0  0  0  0  0  0  0
  -29.9677  -13.6147   20.3616 N   0  0  0  0  0  0  0  0  0  0  0  0
  -25.4694  -15.0528   20.4001 N   0  0  0  0  0  0  0  0  0  0  0  0
  -21.8855  -12.5787   21.5959 N   0  0  0  0  0  0  0  0  0  0  0  0
  -30.5116  -20.2593   23.7049 N   0  0  0  0  0  0  0  0  0  0  0  0
  -30.0775  -15.6957   21.4660 N   0  0  0  0  0  0  0  0  0  0  0  0
  -19.9280  -16.0010   25.4625 N   0  0  0  0  0  0  0  0  0  0  0  0
  -17.9870  -22.2990   27.2033 N   0  0  0  0  0  0  0  0  0  0  0  0
  -19.2560  -24.2668   29.9574 N   0  3  0  0  0  0  0  0  0  0  0  0
  -22.6602  -14.7184   21.3127 O   0  0  0  0  0  0  0  0  0  0  0  0
  -19.8268  -18.0531   24.3665 O   0  0  0  0  0  0  0  0  0  0  0  0
  -17.4551  -19.4988   26.9120 O   0  0  0  0  0  0  0  0  0  0  0  0
  -19.9630  -23.5045   27.3429 O   0  0  0  0  0  0  0  0  0  0  0  0
  -31.8545  -14.9382   20.1814 O   0  0  0  0  0  0  0  0  0  0  0  0
  -21.6149   -7.0155   21.7128 O   0  0  0  0  0  0  0  0  0  0  0  0
  -25.8205  -20.3702   25.8538 O   0  0  0  0  0  0  0  0  0  1  0  0
  -18.6232   -6.8499   26.3417 F   0  0  0  0  0  0  0  0  0  0  0  0
  -19.6224   -8.8739   22.1811 F   0  0  0  0  0  0  0  0  0  0  0  0
  -27.1266  -21.5611   23.8000 F   0  0  0  0  0  0  0  0  0  0  0  0
  -29.5187  -17.8611   22.9045 S   0  0  0  0  0  0  0  0  0  0  0  0
  1  2  1  0  0  0  0
  1  5  2  0  0  0  0
  2  6  2  0  0  0  0
  3  8  2  0  0  0  0
  3 15  1  0  0  0  0
  4  9  1  0  0  0  0
  4 15  2  0  0  0  0
  5 17  1  0  0  0  0
  6 19  1  0  0  0  0
  7 10  2  0  0  0  0
  7 18  1  0  0  0  0
  8 21  1  0  0  0  0
  9 21  2  0  0  0  0
 10 22  1  0  0  0  0
 11 12  2  0  0  0  0
 11 23  1  0  0  0  0
 12 24  1  0  0  0  0
 13 20  1  0  0  0  0
 13 22  2  0  0  0  0
 14 24  2  0  0  0  0
 14 25  1  0  0  0  0
 15 26  1  0  0  0  0
 16 26  1  0  0  0  0
 16 28  2  0  0  0  0
 16 31  1  0  0  0  0
 17 19  2  0  0  0  0
 17 36  1  0  0  0  0
 18 20  2  0  0  0  0
 18 37  1  0  0  0  0
 19 45  1  0  0  0  0
 20 38  1  0  0  0  0
 21 80  1  0  0  0  0
 22 81  1  0  0  0  0
 23 25  2  0  0  0  0
 23 80  1  0  0  0  0
 24 82  1  0  0  0  0
 25 83  1  0  0  0  0
 26 63  2  0  0  0  0
 27 29  2  0  0  0  0
 27 48  1  0  0  0  0
 27 64  1  0  0  0  0
 28 65  1  0  0  0  0
 28 68  1  0  0  0  0
 29 70  1  0  0  0  0
 29 85  1  0  0  0  0
 30 64  2  0  0  0  0
 30 71  1  0  0  0  0
 30 85  1  0  0  0  0
 31 69  1  0  0  0  0
 31 75  2  0  0  0  0
 32 46  1  0  0  0  0
 32 72  1  0  0  0  0
 32 76  2  0  0  0  0
 33 58  1  0  0  0  0
 33 66  1  0  0  0  0
 33 77  2  0  0  0  0
 34 59  1  0  0  0  0
 34 73  1  0  0  0  0
 34 78  2  0  0  0  0
 35 67  1  0  0  0  0
 35 71  1  0  0  0  0
 35 79  2  0  0  0  0
 36 39  1  0  0  0  0
 37 46  1  0  0  0  0
 38 66  1  0  0  0  0
 39 41  1  0  0  0  0
 40 42  1  0  0  0  0
 40 43  1  0  0  0  0
 41 45  1  0  0  0  0
 42 47  1  0  0  0  0
 43 67  1  0  0  0  0
 44 47  1  0  0  0  0
 44 67  1  0  0  0  0
 45 72  1  0  0  0  0
 46 66  1  0  0  0  0
 47 65  1  0  0  0  0
 49 59  1  0  0  0  0
 50 61  1  0  0  0  0
 51 61  1  0  0  0  0
 52 61  1  0  0  0  0
 53 62  1  0  0  0  0
 54 62  1  0  0  0  0
 55 74  1  0  0  0  0
 56 57  1  0  0  0  0
 56 60  1  0  0  0  0
 57 81  1  0  0  0  0
 58 61  1  0  0  0  0
 58 73  1  0  0  0  0
 59 74  1  0  0  0  0
 60 62  1  0  0  0  0
 60 84  1  0  0  0  0
 62 70  1  0  0  0  0
 63 65  1  0  0  0  0
M  CHG  1  74   1
M  ISO  4  35 100  57 101  71 100  81 101
M  END
> <Batch ID>
0190

> <Smiles>
CNC(C)C(=O)NC(C(=O)N1Cc2cc([101O:1][101CH2:1]CC(F)C(C)(C)Nc3sc([100NH:0][100C:0](=O)N4CCCC(n5nc(-c6ccc(Oc7ccc(F)cc7F)cc6)c(C(N)=O)c5N)C4)nc3C)ccc2CC1C(=O)NC1CCCc2ccccc21)C(C)(C)C

> <Shape>
0.168

> <Color>
0.188

> <Negative vol penalty>
0.000

$$$$

  -OEChem-04052305213D

 88 96  0     1  0  0  0  0  0999 V2000
  -35.8306  -23.7084   13.5302 C   0  0  0  0  0  0  0  0  0  0  0  0
  -36.0391  -23.5490   14.8965 C   0  0  0  0  0  0  0  0  0  0  0  0
  -23.2067   -9.8363   19.9488 C   0  0  0  0  0  0  0  0  0  0  0  0
  -23.9223   -9.9132   22.2551 C   0  0  0  0  0  0  0  0  0  0  0  0
  -35.1375  -24.8218   13.0572 C   0  0  0  0  0  0  0  0  0  0  0  0
  -35.5555  -24.5036   15.7904 C   0  0  0  0  0  0  0  0  0  0  0  0
  -33.2888  -22.4254   19.8138 C   0  0  0  0  0  0  0  0  0  0  0  0
  -22.5224   -8.6473   20.2007 C   0  0  0  0  0  0  0  0  0  0  0  0
  -23.2379   -8.7241   22.5071 C   0  0  0  0  0  0  0  0  0  0  0  0
  -34.1129  -21.9150   20.8159 C   0  0  0  0  0  0  0  0  0  0  0  0
  -20.0475   -7.7580   23.0623 C   0  0  0  0  0  0  0  0  0  0  0  0
  -19.2722   -7.6911   24.2199 C   0  0  0  0  0  0  0  0  0  0  0  0
  -33.7618  -23.9166   22.1157 C   0  0  0  0  0  0  0  0  0  0  0  0
  -20.6036   -5.8338   25.0042 C   0  0  0  0  0  0  0  0  0  0  0  0
  -30.5845  -15.9283   24.2455 C   0  0  0  0  0  0  0  0  0  0  0  0
  -23.9067  -10.4692   20.9760 C   0  0  0  0  0  0  0  0  0  0  0  0
  -24.1124  -13.0077   20.8285 C   0  0  0  0  0  0  0  0  0  0  0  0
  -34.6368  -25.7857   13.9466 C   0  0  0  0  0  0  0  0  0  0  0  0
  -32.7027  -23.6920   19.9506 C   0  0  0  0  0  0  0  0  0  0  0  0
  -34.8562  -25.6317   15.3288 C   0  0  0  0  0  0  0  0  0  0  0  0
  -32.9286  -24.4396   21.1151 C   0  0  0  0  0  0  0  0  0  0  0  0
  -22.5380   -8.0912   21.4799 C   0  0  0  0  0  0  0  0  0  0  0  0
  -34.3518  -22.6618   21.9658 C   0  0  0  0  0  0  0  0  0  0  0  0
  -21.1008   -6.8628   22.8756 C   0  0  0  0  0  0  0  0  0  0  0  0
  -19.5503   -6.7290   25.1908 C   0  0  0  0  0  0  0  0  0  0  0  0
  -21.3789   -5.9008   23.8465 C   0  0  0  0  0  0  0  0  0  0  0  0
  -24.6143  -11.6972   20.7162 C   0  0  0  0  0  0  0  0  0  0  0  0
  -31.1223  -15.4862   23.0550 C   0  0  0  0  0  0  0  0  0  0  0  0
  -25.1685  -13.8114   20.4749 C   0  0  0  0  0  0  0  0  0  0  0  0
  -32.7914  -16.7414   23.7248 C   0  0  0  0  0  0  0  0  0  0  0  0
  -22.8080  -13.4582   21.2177 C   0  0  0  0  0  0  0  0  0  0  0  0
  -34.1153  -17.4194   23.7215 C   0  0  0  0  0  0  0  0  0  0  0  0
  -32.8805  -26.4308   18.3472 C   0  0  0  0  0  0  0  0  0  0  0  0
  -30.5312  -27.3313   20.3947 C   0  0  0  0  0  0  0  0  0  0  0  0
  -28.9853  -26.8901   23.4051 C   0  0  0  0  0  0  0  0  0  0  0  0
  -30.9166  -14.1157   20.9512 C   0  0  0  0  0  0  0  0  0  0  0  0
  -33.9348  -26.9966   13.3848 C   0  0  0  0  0  0  0  0  0  0  0  0
  -31.7948  -24.2169   18.8725 C   0  0  0  0  0  0  0  0  0  0  0  0
  -32.3069  -25.7962   21.3196 C   0  0  0  0  0  0  0  0  0  0  0  0
  -33.1293  -27.7708   14.4250 C   0  0  0  0  0  0  0  0  0  0  0  0
  -29.3454  -13.1478   17.9063 C   0  0  0  0  0  0  0  0  0  0  0  0
  -33.9522  -27.9761   15.6929 C   0  0  0  0  0  0  0  0  0  0  0  0
  -27.9158  -12.8028   18.3298 C   0  0  0  0  0  0  0  0  0  0  0  0
  -30.3663  -12.7301   18.9632 C   0  0  0  0  0  0  0  0  0  0  0  0
  -28.6680  -12.8849   20.7411 C   0  0  0  0  0  0  0  0  0  0  0  0
  -34.3254  -26.6330   16.3318 C   0  0  1  0  0  0  0  0  0  0  0  0
  -31.6632  -25.7367   18.8896 C   0  0  1  0  0  0  0  0  0  0  0  0
  -27.5985  -13.3452   19.7371 C   0  0  2  0  0  0  0  0  0  0  0  0
  -38.8086  -18.6008   24.4181 C   0  0  0  0  0  0  0  0  0  0  0  0
  -27.1183  -27.8008   24.8130 C   0  0  0  0  0  0  0  0  0  0  0  0
  -34.4504  -20.9499   25.4944 C   0  0  0  0  0  0  0  0  0  0  0  0
  -32.2510  -29.7487   21.1074 C   0  0  0  0  0  0  0  0  0  0  0  0
  -30.8236  -30.0780   23.1378 C   0  0  0  0  0  0  0  0  0  0  0  0
  -29.8110  -30.2398   20.8638 C   0  0  0  0  0  0  0  0  0  0  0  0
  -36.6894  -16.7377   25.6930 C   0  0  0  0  0  0  0  0  0  0  0  0
  -36.0635  -18.5688   27.2548 C   0  0  0  0  0  0  0  0  0  0  0  0
  -27.5651  -24.2936   23.4073 C   0  0  0  0  0  0  0  0  0  0  0  0
  -38.0788  -18.8624   25.7319 C   0  0  0  0  0  0  0  0  0  0  0  0
  -35.1940  -20.7480   23.0989 C   0  0  0  0  0  0  0  0  0  1  0  0
  -30.4913  -27.9755   21.7594 C   0  0  1  0  0  0  0  0  0  0  0  0
  -27.5186  -26.7636   23.7753 C   0  0  2  0  0  0  0  0  0  0  0  0
  -35.5209  -20.3764   24.5607 C   0  0  2  0  0  0  0  0  0  0  0  0
  -35.7424  -18.8424   24.6844 C   0  0  1  0  0  0  0  0  0  0  0  0
  -30.8577  -29.4858   21.7127 C   0  0  0  0  0  0  0  0  0  0  0  0
  -36.6395  -18.2805   25.8515 C   0  0  0  0  0  0  0  0  0  0  0  0
  -25.8901  -11.6657   20.3220 N   0  0  0  0  0  0  0  0  0  0  0  0
  -32.3875  -15.9517   22.7545 N   0  0  0  0  0  0  0  0  0  0  0  0
  -34.4272  -18.1722   24.7090 N   0  0  0  0  0  0  0  0  0  0  0  0
  -26.1987  -12.9664   20.1833 N   0  0  0  0  0  0  0  0  0  0  0  0
  -31.4318  -26.2688   20.2341 N   0  0  0  0  0  0  0  0  0  0  0  0
  -30.0033  -13.2839   20.2695 N   0  0  0  0  0  0  0  0  0  0  0  0
  -25.3073  -15.1514   20.3879 N   0  0  0  0  0  0  0  0  0  0  0  0
  -21.8412  -12.4991   21.5488 N   0  0  0  0  0  0  0  0  0  0  0  0
  -34.9107  -17.1828   22.6187 N   0  0  0  0  0  0  0  0  0  0  0  0
  -30.4488  -14.6096   22.1685 N   0  0  0  0  0  0  0  0  0  0  0  0
  -33.1946  -26.0822   17.0475 N   0  0  0  0  0  0  0  0  0  0  0  0
  -29.1660  -27.6987   22.3029 N   0  0  0  0  0  0  0  0  0  0  0  0
  -27.2397  -25.4097   24.3322 N   0  3  0  0  0  0  0  0  0  0  0  0
  -22.5039  -14.6746   21.2544 O   0  0  0  0  0  0  0  0  0  0  0  0
  -33.4888  -27.2250   19.0550 O   0  0  0  0  0  0  0  0  0  0  0  0
  -29.7854  -27.7505   19.5060 O   0  0  0  0  0  0  0  0  0  0  0  0
  -29.8815  -26.3308   24.0332 O   0  0  0  0  0  0  0  0  0  0  0  0
  -32.0210  -14.3930   20.4765 O   0  0  0  0  0  0  0  0  0  0  0  0
  -21.8701   -6.9311   21.7261 O   0  0  0  0  0  0  0  0  0  0  0  0
  -35.1617  -22.1630   22.9516 O   0  0  0  0  0  0  0  0  0  1  0  0
  -18.8066   -6.6658   26.3031 F   0  0  0  0  0  0  0  0  0  0  0  0
  -22.3903   -5.0388   23.6733 F   0  0  0  0  0  0  0  0  0  0  0  0
  -31.7003  -16.9682   25.0298 S   0  0  0  0  0  0  0  0  0  0  0  0
  1  2  1  0  0  0  0
  1  5  2  0  0  0  0
  2  6  2  0  0  0  0
  3  8  2  0  0  0  0
  3 16  1  0  0  0  0
  4  9  1  0  0  0  0
  4 16  2  0  0  0  0
  5 18  1  0  0  0  0
  6 20  1  0  0  0  0
  7 10  2  0  0  0  0
  7 19  1  0  0  0  0
  8 22  1  0  0  0  0
  9 22  2  0  0  0  0
 10 23  1  0  0  0  0
 11 12  2  0  0  0  0
 11 24  1  0  0  0  0
 12 25  1  0  0  0  0
 13 21  1  0  0  0  0
 13 23  2  0  0  0  0
 14 25  2  0  0  0  0
 14 26  1  0  0  0  0
 15 28  2  0  0  0  0
 15 88  1  0  0  0  0
 16 27  1  0  0  0  0
 17 27  1  0  0  0  0
 17 29  2  0  0  0  0
 17 31  1  0  0  0  0
 18 20  2  0  0  0  0
 18 37  1  0  0  0  0
 19 21  2  0  0  0  0
 19 38  1  0  0  0  0
 20 46  1  0  0  0  0
 21 39  1  0  0  0  0
 22 84  1  0  0  0  0
 23 85  1  0  0  0  0
 24 26  2  0  0  0  0
 24 84  1  0  0  0  0
 25 86  1  0  0  0  0
 26 87  1  0  0  0  0
 27 66  2  0  0  0  0
 28 67  1  0  0  0  0
 28 75  1  0  0  0  0
 29 69  1  0  0  0  0
 29 72  1  0  0  0  0
 30 32  1  0  0  0  0
 30 67  2  0  0  0  0
 30 88  1  0  0  0  0
 31 73  1  0  0  0  0
 31 79  2  0  0  0  0
 32 68  2  0  0  0  0
 32 74  1  0  0  0  0
 33 47  1  0  0  0  0
 33 76  1  0  0  0  0
 33 80  2  0  0  0  0
 34 60  1  0  0  0  0
 34 70  1  0  0  0  0
 34 81  2  0  0  0  0
 35 61  1  0  0  0  0
 35 77  1  0  0  0  0
 35 82  2  0  0  0  0
 36 71  1  0  0  0  0
 36 75  1  0  0  0  0
 36 83  2  0  0  0  0
 37 40  1  0  0  0  0
 38 47  1  0  0  0  0
 39 70  1  0  0  0  0
 40 42  1  0  0  0  0
 41 43  1  0  0  0  0
 41 44  1  0  0  0  0
 42 46  1  0  0  0  0
 43 48  1  0  0  0  0
 44 71  1  0  0  0  0
 45 48  1  0  0  0  0
 45 71  1  0  0  0  0
 46 76  1  0  0  0  0
 47 70  1  0  0  0  0
 48 69  1  0  0  0  0
 49 58  1  0  0  0  0
 50 61  1  0  0  0  0
 51 62  1  0  0  0  0
 52 64  1  0  0  0  0
 53 64  1  0  0  0  0
 54 64  1  0  0  0  0
 55 65  1  0  0  0  0
 56 65  1  0  0  0  0
 57 78  1  0  0  0  0
 58 65  1  0  0  0  0
 59 62  1  0  0  0  0
 59 85  1  0  0  0  0
 60 64  1  0  0  0  0
 60 77  1  0  0  0  0
 61 78  1  0  0  0  0
 62 63  1  0  0  0  0
 63 65  1  0  0  0  0
 63 68  1  0  0  0  0
 66 69  1  0  0  0  0
M  CHG  1  78   1
M  ISO  4  36 100  59 101  75 100  85 101
M  END
> <Batch ID>
0190

> <Smiles>
CCC(C)(C)C(NC(=N)c1nc([100NH:0][100C:0](=O)N2CCCC(n3nc(-c4ccc(Oc5ccc(F)cc5F)cc4)c(C(N)=O)c3N)C2)cs1)C(C)[101CH2:1][101O:1]c1ccc2c(c1)CN(C(=O)C(NC(=O)C(C)NC)C(C)(C)C)C(C(=O)NC1CCCc3ccccc31)C2

> <Shape>
0.195

> <Color>
0.172

> <Negative vol penalty>
0.000

$$$$

  -OEChem-04052305213D

 85 93  0     1  0  0  0  0  0999 V2000
  -30.9562  -26.2096   16.9786 C   0  0  0  0  0  0  0  0  0  0  0  0
  -29.5742  -26.0730   17.0615 C   0  0  0  0  0  0  0  0  0  0  0  0
  -26.7127  -13.9630   21.1513 C   0  0  0  0  0  0  0  0  0  0  0  0
  -24.7549  -14.4560   19.8243 C   0  0  0  0  0  0  0  0  0  0  0  0
  -31.6753  -26.6873   18.0734 C   0  0  0  0  0  0  0  0  0  0  0  0
  -28.9106  -26.4128   18.2399 C   0  0  0  0  0  0  0  0  0  0  0  0
  -23.3285  -28.8815   18.7407 C   0  0  0  0  0  0  0  0  0  0  0  0
  -25.9463  -13.1401   21.9765 C   0  0  0  0  0  0  0  0  0  0  0  0
  -23.9884  -13.6330   20.6494 C   0  0  0  0  0  0  0  0  0  0  0  0
  -22.0781  -28.3265   19.0096 C   0  0  0  0  0  0  0  0  0  0  0  0
  -24.5794  -10.6249   24.2172 C   0  0  0  0  0  0  0  0  0  0  0  0
  -25.1089   -9.3827   24.5663 C   0  0  0  0  0  0  0  0  0  0  0  0
  -22.3369  -28.8882   21.3413 C   0  0  0  0  0  0  0  0  0  0  0  0
  -25.2018   -8.7662   22.2321 C   0  0  0  0  0  0  0  0  0  0  0  0
  -22.4413  -22.9463   17.7453 C   0  0  0  0  0  0  0  0  0  0  0  0
  -26.1170  -14.6210   20.0752 C   0  0  0  0  0  0  0  0  0  0  0  0
  -27.6035  -15.0972   18.0575 C   0  0  0  0  0  0  0  0  0  0  0  0
  -31.0191  -27.0423   19.2625 C   0  0  0  0  0  0  0  0  0  0  0  0
  -24.0985  -29.4351   19.7737 C   0  0  0  0  0  0  0  0  0  0  0  0
  -29.6218  -26.8944   19.3521 C   0  0  0  0  0  0  0  0  0  0  0  0
  -23.5957  -29.4518   21.0825 C   0  0  0  0  0  0  0  0  0  0  0  0
  -24.5841  -12.9751   21.7256 C   0  0  0  0  0  0  0  0  0  0  0  0
  -21.5834  -28.3272   20.3105 C   0  0  0  0  0  0  0  0  0  0  0  0
  -24.3610  -10.9379   22.8755 C   0  0  0  0  0  0  0  0  0  0  0  0
  -25.4202   -8.4533   23.5738 C   0  0  0  0  0  0  0  0  0  0  0  0
  -24.6722  -10.0085   21.8830 C   0  0  0  0  0  0  0  0  0  0  0  0
  -26.9081  -15.4717   19.2228 C   0  0  0  0  0  0  0  0  0  0  0  0
  -23.7935  -23.2139   17.7891 C   0  0  0  0  0  0  0  0  0  0  0  0
  -28.1914  -16.2589   17.6201 C   0  0  0  0  0  0  0  0  0  0  0  0
  -22.4325  -24.4255   19.3645 C   0  0  0  0  0  0  0  0  0  0  0  0
  -27.7085  -13.8139   17.4267 C   0  0  0  0  0  0  0  0  0  0  0  0
  -26.9415  -28.7946   21.0428 C   0  0  0  0  0  0  0  0  0  0  0  0
  -26.3711  -31.5121   22.7197 C   0  0  0  0  0  0  0  0  0  0  0  0
  -24.0884  -33.7171   23.9743 C   0  0  0  0  0  0  0  0  0  0  0  0
  -26.8498  -22.0446   18.3801 C   0  0  0  0  0  0  0  0  0  0  0  0
  -31.8442  -27.5094   20.4354 C   0  0  0  0  0  0  0  0  0  0  0  0
  -25.4337  -30.0539   19.4627 C   0  0  0  0  0  0  0  0  0  0  0  0
  -24.3742  -30.0521   22.2235 C   0  0  0  0  0  0  0  0  0  0  0  0
  -31.0234  -28.2015   21.5205 C   0  0  0  0  0  0  0  0  0  0  0  0
  -29.9044  -20.4255   19.2312 C   0  0  0  0  0  0  0  0  0  0  0  0
  -29.7683  -27.3944   21.8369 C   0  0  0  0  0  0  0  0  0  0  0  0
  -29.5457  -18.9385   19.2205 C   0  0  0  0  0  0  0  0  0  0  0  0
  -28.7561  -21.2793   19.7646 C   0  0  0  0  0  0  0  0  0  0  0  0
  -27.1045  -19.5851   19.0749 C   0  0  0  0  0  0  0  0  0  0  0  0
  -28.8632  -27.2761   20.6048 C   0  0  1  0  0  0  0  0  0  0  0  0
  -26.3549  -30.1285   20.6765 C   0  0  1  0  0  0  0  0  0  0  0  0
  -28.2110  -18.6890   18.4927 C   0  0  2  0  0  0  0  0  0  0  0  0
  -17.5076  -28.1086   23.9220 C   0  0  0  0  0  0  0  0  0  0  0  0
  -23.9216  -35.8196   25.3341 C   0  0  0  0  0  0  0  0  0  0  0  0
  -17.7947  -26.5210   21.3635 C   0  0  0  0  0  0  0  0  0  0  0  0
  -20.2100  -24.1522   21.5809 C   0  0  0  0  0  0  0  0  0  0  0  0
  -26.9106  -29.9094   25.2594 C   0  0  0  0  0  0  0  0  0  0  0  0
  -25.8241  -31.7474   26.5668 C   0  0  0  0  0  0  0  0  0  0  0  0
  -27.8913  -32.2099   25.2496 C   0  0  0  0  0  0  0  0  0  0  0  0
  -22.8261  -35.1975   21.7440 C   0  0  0  0  0  0  0  0  0  0  0  0
  -24.8937  -22.6550   16.9799 C   0  0  0  0  0  0  0  0  0  0  0  0
  -18.8029  -28.0386   23.1246 C   0  0  0  0  0  0  0  0  0  0  0  0
  -25.7055  -31.8368   24.0352 C   0  0  1  0  0  0  0  0  0  0  0  0
  -24.0253  -35.2333   23.9347 C   0  0  2  0  0  0  0  0  0  0  0  0
  -18.9944  -26.7522   22.2958 C   0  0  2  0  0  0  0  0  0  0  0  0
  -20.5832  -25.3750   20.7444 C   0  0  1  0  0  0  0  0  0  0  0  0
  -20.3229  -26.6966   21.4972 C   0  0  1  0  0  0  0  0  0  1  0  0
  -26.5688  -31.4127   25.2568 C   0  0  0  0  0  0  0  0  0  0  0  0
  -21.6593  -23.6399   18.6482 N   0  0  0  0  0  0  0  0  0  0  0  0
  -27.0411  -16.7698   19.5079 N   0  0  0  0  0  0  0  0  0  0  0  0
  -27.8269  -17.2211   18.5154 N   0  0  0  0  0  0  0  0  0  0  0  0
  -25.6772  -30.6392   21.8698 N   0  0  0  0  0  0  0  0  0  0  0  0
  -27.5201  -20.9958   19.0311 N   0  0  0  0  0  0  0  0  0  0  0  0
  -28.9794  -16.5410   16.5610 N   0  0  0  0  0  0  0  0  0  0  0  0
  -27.0417  -12.7270   18.0082 N   0  0  0  0  0  0  0  0  0  0  0  0
  -21.9775  -25.2634   20.3660 N   0  0  0  0  0  0  0  0  0  0  0  0
  -28.1286  -28.5056   20.3973 N   0  0  0  0  0  0  0  0  0  0  0  0
  -25.3893  -33.2603   23.9923 N   0  0  0  0  0  0  0  0  0  0  0  0
  -25.6899  -21.6885   17.7029 N   0  0  0  0  0  0  0  0  0  0  0  0
  -22.8418  -35.6822   23.1482 N   0  3  0  0  0  0  0  0  0  0  0  0
  -28.3875  -13.6330   16.3875 O   0  0  0  0  0  0  0  0  0  0  0  0
  -26.3609  -28.0810   21.8524 O   0  0  0  0  0  0  0  0  0  0  0  0
  -27.4631  -32.0201   22.4529 O   0  0  0  0  0  0  0  0  0  0  0  0
  -23.0841  -33.0089   23.9915 O   0  0  0  0  0  0  0  0  0  0  0  0
  -27.2578  -23.2108   18.3963 O   0  0  0  0  0  0  0  0  0  0  0  0
  -23.8360  -12.1719   22.5304 O   0  0  0  0  0  0  0  0  0  0  0  0
  -20.3635  -27.7855   20.5759 O   0  0  0  0  0  0  0  0  0  1  0  0
  -25.9301   -7.2610   23.9091 F   0  0  0  0  0  0  0  0  0  0  0  0
  -24.4658  -10.3039   20.5923 F   0  0  0  0  0  0  0  0  0  0  0  0
  -24.1099  -24.3811   19.0051 S   0  0  0  0  0  0  0  0  0  0  0  0
  1  2  1  0  0  0  0
  1  5  2  0  0  0  0
  2  6  2  0  0  0  0
  3  8  2  0  0  0  0
  3 16  1  0  0  0  0
  4  9  1  0  0  0  0
  4 16  2  0  0  0  0
  5 18  1  0  0  0  0
  6 20  1  0  0  0  0
  7 10  2  0  0  0  0
  7 19  1  0  0  0  0
  8 22  1  0  0  0  0
  9 22  2  0  0  0  0
 10 23  1  0  0  0  0
 11 12  2  0  0  0  0
 11 24  1  0  0  0  0
 12 25  1  0  0  0  0
 13 21  1  0  0  0  0
 13 23  2  0  0  0  0
 14 25  2  0  0  0  0
 14 26  1  0  0  0  0
 15 28  2  0  0  0  0
 15 64  1  0  0  0  0
 16 27  1  0  0  0  0
 17 27  1  0  0  0  0
 17 29  2  0  0  0  0
 17 31  1  0  0  0  0
 18 20  2  0  0  0  0
 18 36  1  0  0  0  0
 19 21  2  0  0  0  0
 19 37  1  0  0  0  0
 20 45  1  0  0  0  0
 21 38  1  0  0  0  0
 22 81  1  0  0  0  0
 23 82  1  0  0  0  0
 24 26  2  0  0  0  0
 24 81  1  0  0  0  0
 25 83  1  0  0  0  0
 26 84  1  0  0  0  0
 27 65  2  0  0  0  0
 28 56  1  0  0  0  0
 28 85  1  0  0  0  0
 29 66  1  0  0  0  0
 29 69  1  0  0  0  0
 30 64  2  0  0  0  0
 30 71  1  0  0  0  0
 30 85  1  0  0  0  0
 31 70  1  0  0  0  0
 31 76  2  0  0  0  0
 32 46  1  0  0  0  0
 32 72  1  0  0  0  0
 32 77  2  0  0  0  0
 33 58  1  0  0  0  0
 33 67  1  0  0  0  0
 33 78  2  0  0  0  0
 34 59  1  0  0  0  0
 34 73  1  0  0  0  0
 34 79  2  0  0  0  0
 35 68  1  0  0  0  0
 35 74  1  0  0  0  0
 35 80  2  0  0  0  0
 36 39  1  0  0  0  0
 37 46  1  0  0  0  0
 38 67  1  0  0  0  0
 39 41  1  0  0  0  0
 40 42  1  0  0  0  0
 40 43  1  0  0  0  0
 41 45  1  0  0  0  0
 42 47  1  0  0  0  0
 43 68  1  0  0  0  0
 44 47  1  0  0  0  0
 44 68  1  0  0  0  0
 45 72  1  0  0  0  0
 46 67  1  0  0  0  0
 47 66  1  0  0  0  0
 48 57  1  0  0  0  0
 49 59  1  0  0  0  0
 50 60  1  0  0  0  0
 51 61  1  0  0  0  0
 52 63  1  0  0  0  0
 53 63  1  0  0  0  0
 54 63  1  0  0  0  0
 55 75  1  0  0  0  0
 56 74  1  0  0  0  0
 57 60  1  0  0  0  0
 58 63  1  0  0  0  0
 58 73  1  0  0  0  0
 59 75  1  0  0  0  0
 60 62  1  0  0  0  0
 61 62  1  0  0  0  0
 61 71  1  0  0  0  0
 62 82  1  0  0  0  0
 65 66  1  0  0  0  0
M  CHG  1  75   1
M  ISO  4  35 100  62 101  74 100  82 101
M  END
> <Batch ID>
0190

> <Smiles>
CCC(C)[101CH:1](C(C)Nc1ncc(C[100NH:0][100C:0](=O)N2CCCC(n3nc(-c4ccc(Oc5ccc(F)cc5F)cc4)c(C(N)=O)c3N)C2)s1)[101O:1]c1ccc2c(c1)CN(C(=O)C(NC(=O)C(C)NC)C(C)(C)C)C(C(=O)NC1CCCc3ccccc31)C2

> <Shape>
0.312

> <Color>
0.057

> <Negative vol penalty>
0.000

$$$$

  -OEChem-04052305213D

 86 94  0     1  0  0  0  0  0999 V2000
  -21.0151  -34.9756   20.0421 C   0  0  0  0  0  0  0  0  0  0  0  0
  -21.4712  -33.9783   19.1859 C   0  0  0  0  0  0  0  0  0  0  0  0
  -26.3984  -12.7052   21.6101 C   0  0  0  0  0  0  0  0  0  0  0  0
  -25.9227  -13.6267   19.4279 C   0  0  0  0  0  0  0  0  0  0  0  0
  -21.8614  -35.4916   21.0226 C   0  0  0  0  0  0  0  0  0  0  0  0
  -22.7742  -33.4973   19.3092 C   0  0  0  0  0  0  0  0  0  0  0  0
  -23.0110  -28.4447   19.0652 C   0  0  0  0  0  0  0  0  0  0  0  0
  -25.1597  -12.0641   21.6094 C   0  0  0  0  0  0  0  0  0  0  0  0
  -24.6840  -12.9856   19.4272 C   0  0  0  0  0  0  0  0  0  0  0  0
  -22.9237  -27.8635   17.8009 C   0  0  0  0  0  0  0  0  0  0  0  0
  -23.7904   -9.2918   20.2411 C   0  0  0  0  0  0  0  0  0  0  0  0
  -23.7497   -7.9597   20.6527 C   0  0  0  0  0  0  0  0  0  0  0  0
  -25.3222  -27.6086   17.7591 C   0  0  0  0  0  0  0  0  0  0  0  0
  -22.2337   -8.5571   22.4364 C   0  0  0  0  0  0  0  0  0  0  0  0
  -26.7800  -13.4866   20.5193 C   0  0  0  0  0  0  0  0  0  0  0  0
  -29.2805  -13.6409   20.0384 C   0  0  0  0  0  0  0  0  0  0  0  0
  -23.1723  -35.0099   21.1642 C   0  0  0  0  0  0  0  0  0  0  0  0
  -24.2576  -28.6225   19.6823 C   0  0  0  0  0  0  0  0  0  0  0  0
  -23.6392  -34.0084   20.2916 C   0  0  0  0  0  0  0  0  0  0  0  0
  -25.4223  -28.1900   19.0323 C   0  0  0  0  0  0  0  0  0  0  0  0
  -24.3024  -12.2043   20.5180 C   0  0  0  0  0  0  0  0  0  0  0  0
  -24.0796  -27.4480   17.1464 C   0  0  0  0  0  0  0  0  0  0  0  0
  -23.0528  -10.2566   20.9272 C   0  0  0  0  0  0  0  0  0  0  0  0
  -22.9714   -7.5923   21.7503 C   0  0  0  0  0  0  0  0  0  0  0  0
  -22.2744   -9.8893   22.0248 C   0  0  0  0  0  0  0  0  0  0  0  0
  -28.0592  -14.1496   20.5197 C   0  0  0  0  0  0  0  0  0  0  0  0
  -28.8914  -23.5601   17.6735 C   0  0  0  0  0  0  0  0  0  0  0  0
  -30.1856  -14.6487   20.2658 C   0  0  0  0  0  0  0  0  0  0  0  0
  -27.7809  -23.0728   17.0167 C   0  0  0  0  0  0  0  0  0  0  0  0
  -28.5797  -21.7408   18.8579 C   0  0  0  0  0  0  0  0  0  0  0  0
  -29.5707  -12.3710   19.4394 C   0  0  0  0  0  0  0  0  0  0  0  0
  -29.5665  -24.7790   17.3227 C   0  0  0  0  0  0  0  0  0  0  0  0
  -25.9326  -31.1363   20.6716 C   0  0  0  0  0  0  0  0  0  0  0  0
  -27.9162  -28.8582   21.8541 C   0  0  0  0  0  0  0  0  0  0  0  0
  -25.9141  -22.9671   15.3290 C   0  0  0  0  0  0  0  0  0  0  0  0
  -29.0619  -25.6475   21.6945 C   0  0  0  0  0  0  0  0  0  0  0  0
  -29.6441  -20.5736   20.8203 C   0  0  0  0  0  0  0  0  0  0  0  0
  -24.0655  -35.6318   22.2083 C   0  0  0  0  0  0  0  0  0  0  0  0
  -24.3325  -29.2267   21.0577 C   0  0  0  0  0  0  0  0  0  0  0  0
  -26.7831  -28.3398   19.6603 C   0  0  0  0  0  0  0  0  0  0  0  0
  -25.3107  -34.8042   22.5160 C   0  0  0  0  0  0  0  0  0  0  0  0
  -31.0309  -18.3290   23.2111 C   0  0  0  0  0  0  0  0  0  0  0  0
  -25.9770  -34.3417   21.2241 C   0  0  0  0  0  0  0  0  0  0  0  0
  -30.5424  -16.9556   22.7449 C   0  0  0  0  0  0  0  0  0  0  0  0
  -29.9751  -19.4110   22.9915 C   0  0  0  0  0  0  0  0  0  0  0  0
  -28.9555  -18.1186   21.1586 C   0  0  0  0  0  0  0  0  0  0  0  0
  -25.0381  -33.4433   20.4100 C   0  0  1  0  0  0  0  0  0  0  0  0
  -25.6987  -29.8280   21.3726 C   0  0  1  0  0  0  0  0  0  0  0  0
  -30.0090  -17.0078   21.2998 C   0  0  2  0  0  0  0  0  0  0  0  0
  -30.7716  -25.1838   18.1363 C   0  0  0  0  0  0  0  0  0  0  0  0
  -24.8016  -22.9118   13.0588 C   0  0  0  0  0  0  0  0  0  0  0  0
  -30.7113  -24.0890   22.7658 C   0  0  0  0  0  0  0  0  0  0  0  0
  -30.1883  -30.2355   20.3539 C   0  0  0  0  0  0  0  0  0  0  0  0
  -31.5577  -28.1630   20.6663 C   0  0  0  0  0  0  0  0  0  0  0  0
  -30.7804  -29.4536   22.6544 C   0  0  0  0  0  0  0  0  0  0  0  0
  -26.9229  -23.7982   22.5682 C   0  0  0  0  0  0  0  0  0  0  0  0
  -24.4052  -24.8829   14.6215 C   0  0  0  0  0  0  0  0  0  0  0  0
  -24.9973  -25.9223   15.5697 C   0  0  0  0  0  0  0  0  0  1  0  0
  -29.1095  -28.1001   21.3246 C   0  0  1  0  0  0  0  0  0  0  0  0
  -25.3934  -23.8017   14.1517 C   0  0  1  0  0  0  0  0  0  0  0  0
  -29.2793  -24.6009   22.7723 C   0  0  2  0  0  0  0  0  0  0  0  0
  -30.3837  -28.9869   21.2369 C   0  0  0  0  0  0  0  0  0  0  0  0
  -28.1746  -15.3845   21.0155 N   0  0  0  0  0  0  0  0  0  0  0  0
  -29.3507  -22.7978   18.7298 N   0  0  0  0  0  0  0  0  0  0  0  0
  -29.4791  -15.6601   20.8470 N   0  0  0  0  0  0  0  0  0  0  0  0
  -26.8048  -28.9421   21.0035 N   0  0  0  0  0  0  0  0  0  0  0  0
  -29.5198  -19.4039   21.5995 N   0  0  0  0  0  0  0  0  0  0  0  0
  -31.5090  -14.7593   20.0232 N   0  0  0  0  0  0  0  0  0  0  0  0
  -28.5242  -11.4524   19.2804 N   0  0  0  0  0  0  0  0  0  0  0  0
  -27.0332  -23.5516   15.9146 N   0  0  0  0  0  0  0  0  0  0  0  0
  -28.6897  -20.6984   19.8113 N   0  0  0  0  0  0  0  0  0  0  0  0
  -25.0000  -32.1105   20.9728 N   0  0  0  0  0  0  0  0  0  0  0  0
  -29.2570  -26.9247   22.1761 N   0  0  0  0  0  0  0  0  0  0  0  0
  -28.3653  -23.4428   22.5616 N   0  3  0  0  0  0  0  0  0  0  0  0
  -30.7272  -12.0538   19.0714 O   0  0  0  0  0  0  0  0  0  0  0  0
  -29.2429  -25.5461   16.3998 O   0  0  0  0  0  0  0  0  0  0  0  0
  -26.8892  -31.2537   19.9148 O   0  0  0  0  0  0  0  0  0  0  0  0
  -27.9658  -29.3515   22.9836 O   0  0  0  0  0  0  0  0  0  0  0  0
  -25.3659  -21.9214   15.6660 O   0  0  0  0  0  0  0  0  0  0  0  0
  -28.7538  -25.3606   20.5398 O   0  0  0  0  0  0  0  0  0  0  0  0
  -30.5483  -21.3900   21.0149 O   0  0  0  0  0  0  0  0  0  0  0  0
  -23.0937  -11.5786   20.5169 O   0  0  0  0  0  0  0  0  0  0  0  0
  -23.9973  -26.8810   15.9121 O   0  0  0  0  0  0  0  0  0  1  0  0
  -22.9311   -6.3128   22.1445 F   0  0  0  0  0  0  0  0  0  0  0  0
  -21.5627  -10.8115   22.6872 F   0  0  0  0  0  0  0  0  0  0  0  0
  -27.2842  -21.5999   17.7413 S   0  0  0  0  0  0  0  0  0  0  0  0
  1  2  1  0  0  0  0
  1  5  2  0  0  0  0
  2  6  2  0  0  0  0
  3  8  2  0  0  0  0
  3 15  1  0  0  0  0
  4  9  1  0  0  0  0
  4 15  2  0  0  0  0
  5 17  1  0  0  0  0
  6 19  1  0  0  0  0
  7 10  2  0  0  0  0
  7 18  1  0  0  0  0
  8 21  1  0  0  0  0
  9 21  2  0  0  0  0
 10 22  1  0  0  0  0
 11 12  2  0  0  0  0
 11 23  1  0  0  0  0
 12 24  1  0  0  0  0
 13 20  1  0  0  0  0
 13 22  2  0  0  0  0
 14 24  2  0  0  0  0
 14 25  1  0  0  0  0
 15 26  1  0  0  0  0
 16 26  1  0  0  0  0
 16 28  2  0  0  0  0
 16 31  1  0  0  0  0
 17 19  2  0  0  0  0
 17 38  1  0  0  0  0
 18 20  2  0  0  0  0
 18 39  1  0  0  0  0
 19 47  1  0  0  0  0
 20 40  1  0  0  0  0
 21 82  1  0  0  0  0
 22 83  1  0  0  0  0
 23 25  2  0  0  0  0
 23 82  1  0  0  0  0
 24 84  1  0  0  0  0
 25 85  1  0  0  0  0
 26 63  2  0  0  0  0
 27 29  2  0  0  0  0
 27 32  1  0  0  0  0
 27 64  1  0  0  0  0
 28 65  1  0  0  0  0
 28 68  1  0  0  0  0
 29 70  1  0  0  0  0
 29 86  1  0  0  0  0
 30 64  2  0  0  0  0
 30 71  1  0  0  0  0
 30 86  1  0  0  0  0
 31 69  1  0  0  0  0
 31 75  2  0  0  0  0
 32 50  1  0  0  0  0
 32 76  2  0  0  0  0
 33 48  1  0  0  0  0
 33 72  1  0  0  0  0
 33 77  2  0  0  0  0
 34 59  1  0  0  0  0
 34 66  1  0  0  0  0
 34 78  2  0  0  0  0
 35 60  1  0  0  0  0
 35 70  1  0  0  0  0
 35 79  2  0  0  0  0
 36 61  1  0  0  0  0
 36 73  1  0  0  0  0
 36 80  2  0  0  0  0
 37 67  1  0  0  0  0
 37 71  1  0  0  0  0
 37 81  2  0  0  0  0
 38 41  1  0  0  0  0
 39 48  1  0  0  0  0
 40 66  1  0  0  0  0
 41 43  1  0  0  0  0
 42 44  1  0  0  0  0
 42 45  1  0  0  0  0
 43 47  1  0  0  0  0
 44 49  1  0  0  0  0
 45 67  1  0  0  0  0
 46 49  1  0  0  0  0
 46 67  1  0  0  0  0
 47 72  1  0  0  0  0
 48 66  1  0  0  0  0
 49 65  1  0  0  0  0
 51 60  1  0  0  0  0
 52 61  1  0  0  0  0
 53 62  1  0  0  0  0
 54 62  1  0  0  0  0
 55 62  1  0  0  0  0
 56 74  1  0  0  0  0
 57 58  1  0  0  0  0
 57 60  1  0  0  0  0
 58 83  1  0  0  0  0
 59 62  1  0  0  0  0
 59 73  1  0  0  0  0
 61 74  1  0  0  0  0
 63 65  1  0  0  0  0
M  CHG  1  74   1
M  ISO  4  37 100  58 101  71 100  83 101
M  END
> <Batch ID>
0190

> <Smiles>
CNC(C)C(=O)NC(C(=O)N1Cc2cc([101O:1][101CH2:1]CC(C)C(=O)Nc3sc([100NH:0][100C:0](=O)N4CCCC(n5nc(-c6ccc(Oc7ccc(F)cc7F)cc6)c(C(N)=O)c5N)C4)nc3C(C)=O)ccc2CC1C(=O)NC1CCCc2ccccc21)C(C)(C)C

> <Shape>
0.268

> <Color>
0.077

> <Negative vol penalty>
0.000

$$$$
